data_Molecule from HDF5

_cell_length_a		16.593405
_cell_length_b		16.614312
_cell_length_c		16.574772
_cell_angle_alpha	90.131009
_cell_angle_beta	90.070452
_cell_angle_gamma	90.042206
_symmetry_space_group_name_H-M	'P 1'
_symmetry_Int_Tables_number		1

loop_
	_symmetry_equiv_pos_as_xyz
	x,y,z

loop_
	_atom_site_label
	_atom_site_type_symbol
	_atom_site_fract_x
	_atom_site_fract_y
	_atom_site_fract_z
	H0	H	0.399952	0.842826	0.703718
	H1	H	0.605797	0.157148	0.703579
	H2	H	0.605746	0.842434	0.264051
	H3	H	0.395887	0.155872	0.261843
	H4	H	0.723183	0.395516	0.826833
	H5	H	0.724473	0.605084	0.140614
	H6	H	0.282974	0.603628	0.827259
	H7	H	0.277300	0.390015	0.138453
	H8	H	0.848617	0.721899	0.378545
	H9	H	0.159134	0.722745	0.590714
	H10	H	0.847685	0.277318	0.590975
	H11	H	0.157917	0.274165	0.374545
	H12	H	0.846116	0.396803	0.703688
	H13	H	0.159649	0.607264	0.706637
	H14	H	0.849408	0.606357	0.260474
	H15	H	0.157952	0.389896	0.258989
	H16	H	0.398802	0.719595	0.827098
	H17	H	0.608240	0.720672	0.140836
	H18	H	0.608633	0.277479	0.828213
	H19	H	0.394965	0.275858	0.139359
	H20	H	0.723773	0.842984	0.379204
	H21	H	0.723845	0.156245	0.589053
	H22	H	0.283257	0.843030	0.588489
	H23	H	0.280289	0.155980	0.378863
	H24	H	0.897653	0.345078	0.206037
	H25	H	0.108936	0.655784	0.204744
	H26	H	0.108237	0.343402	0.761407
	H27	H	0.901894	0.656619	0.765318
	H28	H	0.226103	0.892804	0.328036
	H29	H	0.221202	0.102152	0.641942
	H30	H	0.781701	0.104186	0.328187
	H31	H	0.784795	0.897426	0.641481
	H32	H	0.347493	0.220761	0.880634
	H33	H	0.658352	0.221718	0.091860
	H34	H	0.345423	0.778278	0.087848
	H35	H	0.661364	0.782423	0.882555
	H36	H	0.344864	0.894624	0.204687
	H37	H	0.659073	0.102893	0.205291
	H38	H	0.346687	0.104066	0.764125
	H39	H	0.660817	0.897601	0.766208
	H40	H	0.896949	0.221799	0.329524
	H41	H	0.105455	0.219245	0.641309
	H42	H	0.108497	0.777961	0.327464
	H43	H	0.902765	0.782887	0.642153
	H44	H	0.225726	0.343761	0.877604
	H45	H	0.224319	0.656154	0.088060
	H46	H	0.783265	0.343740	0.087687
	H47	H	0.782391	0.654782	0.879185
	H48	H	0.411771	0.112203	0.573918
	H49	H	0.598352	0.885937	0.576633
	H50	H	0.595282	0.109803	0.400552
	H51	H	0.416427	0.889665	0.393638
	H52	H	0.592366	0.408633	0.095881
	H53	H	0.591223	0.589414	0.872174
	H54	H	0.417898	0.592928	0.095588
	H55	H	0.418092	0.414676	0.876116
	H56	H	0.117130	0.587537	0.391879
	H57	H	0.888846	0.598396	0.576316
	H58	H	0.114281	0.410860	0.570932
	H59	H	0.892882	0.411307	0.396115
	H60	H	0.114283	0.411724	0.572755
	H61	H	0.894139	0.589233	0.567259
	H62	H	0.115214	0.591882	0.399401
	H63	H	0.894499	0.412541	0.397612
	H64	H	0.409510	0.589188	0.097702
	H65	H	0.594420	0.591739	0.871002
	H66	H	0.594979	0.410943	0.096589
	H67	H	0.418402	0.408135	0.873345
	H68	H	0.594315	0.113153	0.390636
	H69	H	0.588898	0.888048	0.578280
	H70	H	0.410136	0.112868	0.576923
	H71	H	0.414470	0.891158	0.399405
	H72	H	0.914431	0.611145	0.070165
	H73	H	0.094225	0.386304	0.074037
	H74	H	0.092298	0.611473	0.891972
	H75	H	0.917673	0.388861	0.895823
	H76	H	0.089892	0.916755	0.593236
	H77	H	0.091999	0.090906	0.370819
	H78	H	0.914152	0.089301	0.595898
	H79	H	0.910969	0.909574	0.370594
	H80	H	0.616449	0.090516	0.893872
	H81	H	0.392160	0.079833	0.075355
	H82	H	0.613313	0.910618	0.072463
	H83	H	0.389121	0.906065	0.891183
	H84	H	0.613335	0.912689	0.075378
	H85	H	0.387314	0.095309	0.077015
	H86	H	0.615524	0.090580	0.897152
	H87	H	0.391784	0.907844	0.896682
	H88	H	0.914246	0.089217	0.596555
	H89	H	0.093798	0.083279	0.372826
	H90	H	0.088951	0.902892	0.596664
	H91	H	0.913893	0.910502	0.371637
	H92	H	0.091199	0.609045	0.896795
	H93	H	0.086320	0.390239	0.072075
	H94	H	0.912707	0.612140	0.073092
	H95	H	0.909573	0.386349	0.895557
	H96	H	0.413511	0.112883	0.576952
	H97	H	0.593375	0.889512	0.569117
	H98	H	0.585676	0.109333	0.395866
	H99	H	0.410993	0.888712	0.395142
	H100	H	0.592509	0.412030	0.095454
	H101	H	0.594937	0.588023	0.871922
	H102	H	0.416473	0.584407	0.093966
	H103	H	0.412271	0.412510	0.873063
	H104	H	0.112296	0.583540	0.397975
	H105	H	0.891486	0.585189	0.580368
	H106	H	0.115269	0.409700	0.572989
	H107	H	0.893584	0.413077	0.395515
	H108	H	0.916247	0.611435	0.073710
	H109	H	0.092833	0.389894	0.066126
	H110	H	0.095682	0.611558	0.895733
	H111	H	0.914019	0.386051	0.888539
	H112	H	0.101152	0.909814	0.599113
	H113	H	0.086565	0.086312	0.374530
	H114	H	0.913819	0.089492	0.597061
	H115	H	0.913739	0.907683	0.370899
	H116	H	0.614363	0.087275	0.895008
	H117	H	0.393995	0.090218	0.062957
	H118	H	0.614030	0.909337	0.075265
	H119	H	0.391181	0.912123	0.892537
	C120	C	0.381462	0.008518	0.606477
	C121	C	0.624655	0.991579	0.605692
	C122	C	0.623865	0.007552	0.363109
	C123	C	0.380628	0.992073	0.362934
	C124	C	0.625021	0.378063	-0.007416
	C125	C	0.625344	0.621675	0.975382
	C126	C	0.382474	0.620611	-0.007546
	C127	C	0.382695	0.378904	0.976663
	C128	C	0.012176	0.620771	0.363051
	C129	C	0.994910	0.622582	0.606369
	C130	C	0.011369	0.378681	0.604941
	C131	C	0.995761	0.378170	0.362727
	C132	C	0.882240	0.508546	0.104823
	C133	C	0.124561	0.491268	0.104134
	C134	C	0.125203	0.507674	0.862091
	C135	C	0.882288	0.490691	0.862056
	C136	C	0.125496	0.877570	0.492860
	C137	C	0.122950	0.119431	0.476262
	C138	C	0.881969	0.121168	0.493118
	C139	C	0.882414	0.878723	0.475600
	C140	C	0.511936	0.120916	0.863927
	C141	C	0.494403	0.120696	0.105248
	C142	C	0.510170	0.878223	0.105688
	C143	C	0.494829	0.878265	0.862855
	C144	C	0.380968	0.890246	0.664769
	C145	C	0.625186	0.109907	0.664210
	C146	C	0.624668	0.889510	0.303647
	C147	C	0.377668	0.109080	0.302046
	C148	C	0.683933	0.376400	0.874314
	C149	C	0.684367	0.623153	0.093573
	C150	C	0.322676	0.622340	0.874446
	C151	C	0.319465	0.373776	0.092424
	C152	C	0.895134	0.681440	0.359870
	C153	C	0.112480	0.682506	0.608825
	C154	C	0.894232	0.318186	0.608030
	C155	C	0.111527	0.315334	0.357877
	C156	C	0.893487	0.377570	0.664311
	C157	C	0.112488	0.624735	0.666449
	C158	C	0.895649	0.624197	0.301360
	C159	C	0.111638	0.372996	0.300047
	C160	C	0.380614	0.679898	0.874376
	C161	C	0.626391	0.680611	0.093795
	C162	C	0.627170	0.317553	0.875145
	C163	C	0.378065	0.316948	0.093079
	C164	C	0.683576	0.889924	0.360723
	C165	C	0.683893	0.109355	0.607253
	C166	C	0.322877	0.890352	0.607204
	C167	C	0.320482	0.109282	0.360424
	C168	C	0.879921	0.391422	0.165074
	C169	C	0.127441	0.608781	0.164879
	C170	C	0.127307	0.390240	0.801566
	C171	C	0.881747	0.609176	0.803881
	C172	C	0.185671	0.874839	0.374969
	C173	C	0.181804	0.121132	0.594733
	C174	C	0.821975	0.122591	0.375189
	C175	C	0.824521	0.878533	0.594352
	C176	C	0.394018	0.180385	0.861993
	C177	C	0.611571	0.181171	0.109084
	C178	C	0.392466	0.818256	0.106647
	C179	C	0.613632	0.820960	0.862922
	C180	C	0.391858	0.876359	0.164447
	C181	C	0.611900	0.122115	0.165547
	C182	C	0.393709	0.122290	0.804440
	C183	C	0.613567	0.878487	0.805074
	C184	C	0.878940	0.181194	0.375772
	C185	C	0.124277	0.179188	0.594300
	C186	C	0.127314	0.817573	0.374684
	C187	C	0.882830	0.821410	0.594598
	C188	C	0.185420	0.390264	0.859342
	C189	C	0.184803	0.608849	0.106798
	C190	C	0.822534	0.390995	0.106698
	C191	C	0.822662	0.608298	0.860407
	C192	C	0.404956	0.091126	0.582594
	C193	C	0.600444	0.909424	0.581382
	C194	C	0.598835	0.089510	0.388520
	C195	C	0.406717	0.910912	0.388686
	C196	C	0.600305	0.403276	0.074651
	C197	C	0.600638	0.596826	0.893052
	C198	C	0.407350	0.595813	0.074465
	C199	C	0.409109	0.404705	0.895343
	C200	C	0.093701	0.595082	0.389083
	C201	C	0.912878	0.598084	0.581606
	C202	C	0.093326	0.403630	0.579470
	C203	C	0.914769	0.404819	0.389044
	C204	C	0.907517	0.590318	0.079650
	C205	C	0.098532	0.410019	0.078233
	C206	C	0.100276	0.589434	0.887637
	C207	C	0.906665	0.408433	0.886391
	C208	C	0.100567	0.902520	0.574810
	C209	C	0.098145	0.094015	0.394068
	C210	C	0.906929	0.096356	0.575068
	C211	C	0.906193	0.902302	0.392781
	C212	C	0.593989	0.096501	0.888509
	C213	C	0.412489	0.095449	0.079299
	C214	C	0.592178	0.903488	0.081279
	C215	C	0.412198	0.901799	0.886609
	Zn216	Zn	0.503664	0.000025	0.735039
	Zn217	Zn	0.501800	-0.000058	0.234323
	Zn218	Zn	0.753483	0.499766	-0.016359
	Zn219	Zn	0.253819	0.499213	-0.016317
	Zn220	Zn	0.003395	0.750122	0.484091
	Zn221	Zn	0.003455	0.249398	0.484030
	Zn222	Zn	0.003868	0.499944	0.733372
	Zn223	Zn	0.004245	0.499539	0.233733
	Zn224	Zn	0.503656	0.749513	-0.015898
	Zn225	Zn	0.502993	0.250015	-0.015086
	Zn226	Zn	0.753462	-0.000629	0.484234
	Zn227	Zn	0.252709	0.000098	0.484276
	N228	N	0.416456	0.964917	0.664700
	N229	N	0.589158	0.035681	0.663586
	N230	N	0.588546	0.964021	0.304594
	N231	N	0.414300	0.034979	0.303367
	N232	N	0.682853	0.413393	0.948539
	N233	N	0.684144	0.587382	0.018705
	N234	N	0.323568	0.586238	0.948927
	N235	N	0.322339	0.411945	0.019168
	N236	N	0.968746	0.679438	0.397630
	N237	N	0.038393	0.681362	0.571960
	N238	N	0.968608	0.318852	0.571692
	N239	N	0.038402	0.318605	0.396330
	N240	N	0.967433	0.414574	0.662519
	N241	N	0.038542	0.587849	0.664817
	N242	N	0.969569	0.587122	0.303303
	N243	N	0.038628	0.411580	0.302800
	N244	N	0.416822	0.679318	0.948915
	N245	N	0.590509	0.680016	0.019244
	N246	N	0.591494	0.318311	0.949802
	N247	N	0.417000	0.320244	0.020152
	N248	N	0.683361	0.964369	0.396814
	N249	N	0.683716	0.034629	0.571404
	N250	N	0.322896	0.964962	0.571609
	N251	N	0.322032	0.035408	0.397398
	N252	N	0.916119	0.465636	0.164130
	N253	N	0.090927	0.534553	0.163600
	N254	N	0.090819	0.464322	0.802939
	N255	N	0.917859	0.534929	0.804453
	N256	N	0.185015	0.911271	0.449493
	N257	N	0.181236	0.084920	0.520273
	N258	N	0.823381	0.086127	0.449341
	N259	N	0.823622	0.913080	0.519107
	N260	N	0.468467	0.179779	0.898086
	N261	N	0.537349	0.180401	0.072326
	N262	N	0.467018	0.819318	0.070754
	N263	N	0.538767	0.820457	0.898043
	N264	N	0.466194	0.912546	0.164366
	N265	N	0.537867	0.085129	0.163246
	N266	N	0.468117	0.086140	0.805192
	N267	N	0.538483	0.913220	0.804582
	N268	N	0.915235	0.180541	0.450114
	N269	N	0.088652	0.178345	0.519487
	N270	N	0.090739	0.819002	0.448905
	N271	N	0.917822	0.821185	0.519573
	N272	N	0.184365	0.464414	0.895986
	N273	N	0.183567	0.534800	0.070027
	N274	N	0.823814	0.464921	0.069939
	N275	N	0.822639	0.533511	0.895579
	O276	O	0.052514	0.946655	0.181031
	H277	H	0.040746	0.958269	0.182785
	H278	H	0.058754	0.945953	0.175178
	O279	O	0.463883	0.279360	0.491190
	H280	H	0.463247	0.287730	0.494753
	H281	H	0.467000	0.272139	0.489882
	O282	O	1.106608	0.048721	0.820833
	H283	H	1.093030	0.047472	0.834534
	H284	H	1.106923	0.046794	0.820735
	O285	O	0.504304	0.564873	0.584298
	H286	H	0.507686	0.569899	0.586920
	H287	H	0.499632	0.579262	0.590096
	O288	O	0.279401	0.530626	0.264587
	H289	H	0.296560	0.512114	0.264532
	H290	H	0.254559	0.522488	0.237233
	O291	O	0.723504	0.590237	0.583823
	H292	H	0.741133	0.593660	0.601065
	H293	H	0.715700	0.561870	0.589217
	O294	O	0.979390	0.040659	0.989041
	H295	H	0.990724	0.049536	0.995991
	H296	H	0.961068	0.043599	0.993214
	O297	O	0.489475	0.489154	0.549023
	H298	H	0.473363	0.487422	0.548206
	H299	H	0.482926	0.498767	0.557612
	O300	O	-0.126420	-0.211029	0.853752
	H301	H	-0.127920	-0.204192	0.873960
	H302	H	-0.113220	-0.196237	0.871835
	O303	O	0.761027	0.753390	0.740004
	H304	H	0.750178	0.741783	0.760286
	H305	H	0.786586	0.782660	0.764438
	O306	O	0.597403	0.402863	0.701119
	H307	H	0.583772	0.435249	0.710427
	H308	H	0.598013	0.401677	0.706645
	O309	O	0.321712	0.696545	0.677103
	H310	H	0.315807	0.701780	0.666956
	H311	H	0.309068	0.709752	0.676619
	O312	O	0.483495	0.632855	0.445261
	H313	H	0.494428	0.652550	0.443944
	H314	H	0.486993	0.617145	0.424725
	O315	O	1.199843	1.195261	1.174404
	H316	H	1.214279	1.187647	1.185188
	H317	H	1.197849	1.189966	1.151121
	O318	O	0.608216	0.431024	0.622928
	H319	H	0.595400	0.429376	0.633743
	H320	H	0.595734	0.431843	0.619464
	O321	O	-0.030257	0.956851	0.915085
	H322	H	-0.031705	0.962641	0.927007
	H323	H	-0.017746	0.959396	0.926196
	O324	O	0.692614	0.668368	0.303564
	H325	H	0.697986	0.651829	0.297467
	H326	H	0.692268	0.654801	0.331128
	O327	O	-0.053401	0.212696	1.014503
	H328	H	-0.064929	0.209857	1.022445
	H329	H	-0.060317	0.213519	1.017395
	O330	O	0.686220	0.437545	0.492987
	H331	H	0.682177	0.433878	0.486430
	H332	H	0.685640	0.442194	0.503327
	O333	O	0.279567	0.716162	0.451295
	H334	H	0.297430	0.723389	0.450617
	H335	H	0.260212	0.742869	0.444326
	O336	O	0.716808	0.288103	0.272433
	H337	H	0.715668	0.302945	0.306500
	H338	H	0.677232	0.297526	0.270894
	O339	O	1.029368	-0.113681	1.064679
	H340	H	1.038342	-0.113468	1.071398
	H341	H	1.023538	-0.099037	1.057007
	O342	O	0.072605	0.043741	0.083724
	H343	H	0.070559	0.039847	0.083368
	H344	H	0.090616	0.046118	0.095823
	O345	O	-0.208199	1.016494	0.991518
	H346	H	-0.198844	1.029061	1.007124
	H347	H	-0.209134	1.006567	1.013791
	O348	O	0.586036	0.556166	0.432488
	H349	H	0.573238	0.557120	0.452682
	H350	H	0.570357	0.563743	0.426706
	O351	O	0.276052	0.550618	0.563361
	H352	H	0.269820	0.552247	0.539959
	H353	H	0.276078	0.568549	0.544356
	O354	O	-0.242263	0.245979	0.740543
	H355	H	-0.237024	0.243785	0.725614
	H356	H	-0.245317	0.251837	0.760024
	O357	O	0.480192	0.341000	0.512000
	H358	H	0.475371	0.349303	0.500402
	H359	H	0.495767	0.340281	0.528823
	O360	O	-0.209366	-0.005225	0.986143
	H361	H	-0.205273	-0.005216	0.989381
	H362	H	-0.217022	0.005687	1.010853
	O363	O	-0.215190	-0.036429	0.203166
	H364	H	-0.225798	-0.050268	0.216057
	H365	H	-0.215181	-0.038345	0.214589
	O366	O	0.484407	0.655172	0.487970
	H367	H	0.485153	0.656501	0.491827
	H368	H	0.490340	0.657930	0.498225
	O369	O	0.785656	0.216872	-0.046667
	H370	H	0.758086	0.233331	-0.041973
	H371	H	0.789115	0.205086	-0.049160
	O372	O	1.227551	0.936805	0.033710
	H373	H	1.219221	0.936151	0.028168
	H374	H	1.238299	0.936548	0.023977
	O375	O	0.817594	0.185479	0.169016
	H376	H	0.801439	0.206571	0.197526
	H377	H	0.833501	0.193398	0.168103
	O378	O	0.441575	0.519187	0.501256
	H379	H	0.425493	0.515465	0.509652
	H380	H	0.447108	0.526776	0.501641
	O381	O	-0.210094	1.088044	0.769174
	H382	H	-0.225233	1.085414	0.768659
	H383	H	-0.222758	1.090290	0.768552
	O384	O	1.026349	0.168034	0.816990
	H385	H	1.020137	0.174097	0.806592
	H386	H	1.022676	0.159909	0.826723
	O387	O	1.118111	1.206517	-0.136650
	H388	H	1.137849	1.224032	-0.154903
	H389	H	1.090781	1.206272	-0.126624
	O390	O	0.688754	0.292053	0.435336
	H391	H	0.687931	0.301949	0.440949
	H392	H	0.705350	0.276565	0.444471
	O393	O	0.537406	0.719402	0.704218
	H394	H	0.550621	0.732024	0.716944
	H395	H	0.544009	0.726348	0.705151
	O396	O	0.184410	0.799344	0.783229
	H397	H	0.142535	0.796797	0.775607
	H398	H	0.181702	0.815516	0.808440
	O399	O	0.185178	0.191041	1.012580
	H400	H	0.190502	0.189047	1.007877
	H401	H	0.168565	0.196075	1.007123
	O402	O	0.447246	0.614589	0.463380
	H403	H	0.460643	0.612937	0.467775
	H404	H	0.459204	0.608207	0.464907
	O405	O	0.953230	-0.077072	1.015212
	H406	H	0.956070	-0.069751	1.020161
	H407	H	0.969839	-0.079241	1.015950
	O408	O	0.224213	-0.031949	-0.233586
	H409	H	0.228898	-0.043929	-0.238777
	H410	H	0.235849	-0.023179	-0.249812
	O411	O	0.727691	0.622031	0.637264
	H412	H	0.764091	0.634429	0.657414
	H413	H	0.721225	0.626577	0.638335
	O414	O	0.297043	0.293201	0.690735
	H415	H	0.308341	0.329114	0.699999
	H416	H	0.313806	0.285130	0.691324
	O417	O	0.486683	0.473755	0.321734
	H418	H	0.498864	0.485537	0.318366
	H419	H	0.500388	0.484396	0.330744
	O420	O	0.300623	0.701647	0.278963
	H421	H	0.323565	0.703253	0.300521
	H422	H	0.296963	0.659936	0.281358
	O423	O	0.224444	-0.219953	0.949868
	H424	H	0.243792	-0.227178	0.956557
	H425	H	0.230044	-0.228079	0.933272
	O426	O	0.283255	0.299184	0.505649
	H427	H	0.280098	0.287762	0.527150
	H428	H	0.268836	0.282250	0.515840
	O429	O	1.045766	0.779635	1.002731
	H430	H	1.061608	0.786118	1.010538
	H431	H	1.053237	0.779692	0.994782
	O432	O	0.726122	0.661001	0.471046
	H433	H	0.748628	0.679133	0.489373
	H434	H	0.722463	0.658023	0.501069
	O435	O	0.183458	1.027145	-0.074636
	H436	H	0.190190	1.021290	-0.091000
	H437	H	0.184331	1.049931	-0.068282
	O438	O	0.531650	0.284182	0.275022
	H439	H	0.526682	0.289718	0.273255
	H440	H	0.529642	0.274591	0.271264
	O441	O	0.014373	0.209141	0.187412
	H442	H	0.032351	0.216422	0.184554
	H443	H	0.027542	0.214246	0.192308
	O444	O	0.578064	0.374943	0.500885
	H445	H	0.566623	0.383554	0.508513
	H446	H	0.573158	0.390132	0.508254
	O447	O	-0.203066	0.795765	1.191230
	H448	H	-0.153071	0.785946	1.195947
	H449	H	-0.219062	0.799410	1.202017
	O450	O	-0.216311	0.778964	1.011554
	H451	H	-0.218932	0.788299	1.039192
	H452	H	-0.234231	0.754949	1.027683
	O453	O	0.033434	0.124258	0.814518
	H454	H	0.029746	0.114168	0.831399
	H455	H	0.018255	0.114830	0.796657
	O456	O	0.212456	0.032744	1.196434
	H457	H	0.223577	0.036272	1.213846
	H458	H	0.219726	0.018303	1.185480
	O459	O	0.931121	0.918046	-0.218059
	H460	H	0.916813	0.932295	-0.200432
	H461	H	0.927425	0.913960	-0.219277
	O462	O	0.714020	0.460189	0.266885
	H463	H	0.729978	0.465869	0.247157
	H464	H	0.712686	0.453410	0.277454
	O465	O	0.939529	0.045351	0.208435
	H466	H	0.923473	0.030110	0.206868
	H467	H	0.944657	0.083826	0.203282
	O468	O	0.328180	0.483097	0.715071
	H469	H	0.289918	0.486614	0.737416
	H470	H	0.325378	0.502861	0.683561
	O471	O	0.467085	0.288891	0.701703
	H472	H	0.477358	0.287219	0.717544
	H473	H	0.473758	0.288710	0.697048
	O474	O	0.350810	0.366532	0.292421
	H475	H	0.350776	0.369119	0.313621
	H476	H	0.380818	0.379676	0.301863
	O477	O	0.550956	0.566455	1.310581
	H478	H	0.579131	0.575062	1.311141
	H479	H	0.546997	0.568436	1.327827
	O480	O	0.467526	0.725760	0.262215
	H481	H	0.470515	0.736691	0.251274
	H482	H	0.454933	0.733787	0.254923
	O483	O	0.309227	0.432464	0.498283
	H484	H	0.292307	0.419438	0.502017
	H485	H	0.321417	0.419339	0.490927
	O486	O	1.001163	-0.101843	0.768078
	H487	H	0.996169	-0.088104	0.776813
	H488	H	0.997933	-0.094082	0.759912
	O489	O	1.066622	0.798898	0.184576
	H490	H	1.095299	0.793827	0.197082
	H491	H	1.069806	0.796623	0.179761
