data_Molecule from HDF5

_cell_length_a		16.338339
_cell_length_b		16.286828
_cell_length_c		16.101715
_cell_angle_alpha	90.370400
_cell_angle_beta	90.079327
_cell_angle_gamma	90.549030
_symmetry_space_group_name_H-M	'P 1'
_symmetry_Int_Tables_number		1

loop_
	_symmetry_equiv_pos_as_xyz
	x,y,z

loop_
	_atom_site_label
	_atom_site_type_symbol
	_atom_site_fract_x
	_atom_site_fract_y
	_atom_site_fract_z
	H0	H	0.405720	0.834933	0.702499
	H1	H	0.603896	0.163530	0.703545
	H2	H	0.599650	0.834041	0.275726
	H3	H	0.410712	0.163013	0.277408
	H4	H	0.718886	0.399343	0.826902
	H5	H	0.719891	0.601280	0.155894
	H6	H	0.289905	0.595968	0.826825
	H7	H	0.291365	0.400077	0.156390
	H8	H	0.842950	0.712831	0.393045
	H9	H	0.167955	0.717761	0.593686
	H10	H	0.844701	0.280538	0.592839
	H11	H	0.169434	0.286000	0.391422
	H12	H	0.841737	0.402191	0.703704
	H13	H	0.168797	0.600745	0.707878
	H14	H	0.841878	0.595862	0.279235
	H15	H	0.169003	0.403883	0.277257
	H16	H	0.406873	0.708228	0.824502
	H17	H	0.605689	0.716495	0.154041
	H18	H	0.601493	0.287355	0.824334
	H19	H	0.405422	0.284010	0.155009
	H20	H	0.720864	0.835221	0.387359
	H21	H	0.724032	0.161367	0.591948
	H22	H	0.287131	0.836778	0.590015
	H23	H	0.290935	0.162670	0.389249
	H24	H	0.905928	0.335757	0.205067
	H25	H	0.101745	0.664653	0.204460
	H26	H	0.098949	0.335794	0.777670
	H27	H	0.910123	0.664710	0.780609
	H28	H	0.216000	0.901062	0.325779
	H29	H	0.224657	0.103111	0.654082
	H30	H	0.792660	0.096923	0.326045
	H31	H	0.790031	0.899054	0.655417
	H32	H	0.342618	0.213084	0.888177
	H33	H	0.667112	0.217903	0.090366
	H34	H	0.341630	0.783082	0.087416
	H35	H	0.667817	0.783310	0.888659
	H36	H	0.341430	0.901285	0.201929
	H37	H	0.669230	0.100173	0.204675
	H38	H	0.340400	0.092679	0.777364
	H39	H	0.668826	0.903101	0.775523
	H40	H	0.908515	0.212244	0.326378
	H41	H	0.108652	0.216392	0.656136
	H42	H	0.104110	0.783978	0.327671
	H43	H	0.908156	0.787545	0.657602
	H44	H	0.218421	0.335940	0.890465
	H45	H	0.223777	0.662102	0.094022
	H46	H	0.786879	0.336502	0.092785
	H47	H	0.790518	0.662768	0.893549
	H48	H	0.415388	0.113698	0.578491
	H49	H	0.603268	0.881773	0.577169
	H50	H	0.604090	0.116774	0.394597
	H51	H	0.400042	0.883450	0.406812
	H52	H	0.593367	0.407234	0.108756
	H53	H	0.600664	0.595290	0.868951
	H54	H	0.412148	0.583168	0.107470
	H55	H	0.417698	0.404905	0.874479
	H56	H	0.121705	0.594546	0.402410
	H57	H	0.888280	0.600235	0.580271
	H58	H	0.121463	0.411309	0.583964
	H59	H	0.893497	0.409637	0.406930
	H60	H	0.122983	0.407951	0.587731
	H61	H	0.892270	0.585960	0.581035
	H62	H	0.122047	0.592299	0.398127
	H63	H	0.888891	0.408762	0.391207
	H64	H	0.422650	0.594325	0.107320
	H65	H	0.602490	0.585264	0.872572
	H66	H	0.597548	0.405141	0.110172
	H67	H	0.407831	0.399985	0.870566
	H68	H	0.597205	0.113494	0.398706
	H69	H	0.599845	0.880077	0.586630
	H70	H	0.409780	0.117542	0.583363
	H71	H	0.405189	0.877647	0.384083
	H72	H	0.921018	0.615299	0.093421
	H73	H	0.098105	0.383627	0.080903
	H74	H	0.108466	0.616826	0.908524
	H75	H	0.912807	0.383265	0.894120
	H76	H	0.103415	0.912945	0.610438
	H77	H	0.099426	0.085475	0.375128
	H78	H	0.919139	0.084556	0.605570
	H79	H	0.913998	0.904051	0.373969
	H80	H	0.623477	0.102621	0.897667
	H81	H	0.389911	0.089209	0.083006
	H82	H	0.620333	0.904324	0.077701
	H83	H	0.389410	0.900016	0.900746
	H84	H	0.619794	0.911572	0.081889
	H85	H	0.387910	0.092398	0.084333
	H86	H	0.619181	0.090830	0.903356
	H87	H	0.390180	0.907462	0.893911
	H88	H	0.919618	0.096911	0.609613
	H89	H	0.091850	0.097658	0.373198
	H90	H	0.093758	0.912586	0.607751
	H91	H	0.912381	0.903941	0.372930
	H92	H	0.101338	0.619547	0.891435
	H93	H	0.102218	0.381718	0.086071
	H94	H	0.913062	0.613023	0.073318
	H95	H	0.911707	0.384510	0.903003
	H96	H	0.418019	0.115532	0.585550
	H97	H	0.593612	0.884168	0.579922
	H98	H	0.604286	0.114935	0.403187
	H99	H	0.422148	0.886458	0.398149
	H100	H	0.598078	0.410589	0.107845
	H101	H	0.593200	0.590259	0.874061
	H102	H	0.409491	0.597208	0.112260
	H103	H	0.407751	0.411580	0.873419
	H104	H	0.123122	0.597439	0.398236
	H105	H	0.887009	0.592968	0.594310
	H106	H	0.122353	0.406251	0.582865
	H107	H	0.888078	0.395682	0.401613
	H108	H	0.900866	0.620683	0.089446
	H109	H	0.094929	0.382845	0.086978
	H110	H	0.089955	0.612451	0.904323
	H111	H	0.905301	0.381460	0.897435
	H112	H	0.097715	0.903551	0.611231
	H113	H	0.106582	0.096513	0.369693
	H114	H	0.908158	0.090318	0.609871
	H115	H	0.913100	0.905847	0.373875
	H116	H	0.622670	0.091554	0.889973
	H117	H	0.389544	0.092773	0.080749
	H118	H	0.623327	0.905393	0.085028
	H119	H	0.386257	0.897996	0.891232
	C120	C	0.384316	0.007446	0.610758
	C121	C	0.627808	0.990382	0.611636
	C122	C	0.628545	0.006898	0.368463
	C123	C	0.382850	0.990800	0.367896
	C124	C	0.624953	0.378830	-0.000454
	C125	C	0.627529	0.620934	0.981381
	C126	C	0.385308	0.618896	-0.000446
	C127	C	0.382447	0.376833	0.981760
	C128	C	0.014268	0.621573	0.371264
	C129	C	0.997172	0.622227	0.614380
	C130	C	0.014743	0.378473	0.613306
	C131	C	0.997794	0.377826	0.370525
	C132	C	0.882527	0.508264	0.114173
	C133	C	0.127394	0.491132	0.114159
	C134	C	0.126774	0.508110	0.871085
	C135	C	0.882657	0.491119	0.870162
	C136	C	0.126024	0.879984	0.500601
	C137	C	0.128863	0.122336	0.481958
	C138	C	0.886779	0.118941	0.499397
	C139	C	0.883898	0.876493	0.482566
	C140	C	0.513388	0.121010	0.868074
	C141	C	0.497019	0.121550	0.112062
	C142	C	0.513510	0.877503	0.110255
	C143	C	0.496622	0.875125	0.866585
	C144	C	0.385868	0.884114	0.664890
	C145	C	0.625107	0.113982	0.666759
	C146	C	0.622700	0.883455	0.312587
	C147	C	0.388274	0.114093	0.313840
	C148	C	0.680319	0.380177	0.875530
	C149	C	0.682649	0.620700	0.105932
	C150	C	0.328772	0.616196	0.875677
	C151	C	0.328449	0.379493	0.106630
	C152	C	0.891350	0.675197	0.373373
	C153	C	0.119575	0.678981	0.613356
	C154	C	0.892701	0.320464	0.612129
	C155	C	0.120736	0.323703	0.371623
	C156	C	0.891222	0.380792	0.667334
	C157	C	0.119939	0.620749	0.670066
	C158	C	0.891011	0.617079	0.316511
	C159	C	0.120402	0.382181	0.314704
	C160	C	0.386939	0.671747	0.874511
	C161	C	0.625832	0.677957	0.105109
	C162	C	0.622212	0.324236	0.874492
	C163	C	0.385025	0.321636	0.105802
	C164	C	0.682837	0.883978	0.368340
	C165	C	0.684786	0.113019	0.611045
	C166	C	0.326519	0.885186	0.609134
	C167	C	0.328824	0.113721	0.369691
	C168	C	0.885225	0.384992	0.168398
	C169	C	0.123821	0.615013	0.168182
	C170	C	0.121302	0.384646	0.815253
	C171	C	0.887518	0.615110	0.816474
	C172	C	0.179543	0.880862	0.375613
	C173	C	0.185527	0.121847	0.605570
	C174	C	0.831238	0.116748	0.375207
	C175	C	0.828234	0.878858	0.606501
	C176	C	0.390562	0.174582	0.869469
	C177	C	0.619163	0.178920	0.110474
	C178	C	0.390459	0.821460	0.108044
	C179	C	0.619317	0.821310	0.868834
	C180	C	0.390236	0.880346	0.164649
	C181	C	0.619911	0.120382	0.167426
	C182	C	0.389593	0.114833	0.814154
	C183	C	0.619852	0.880689	0.812594
	C184	C	0.888617	0.174426	0.375411
	C185	C	0.128181	0.178319	0.606438
	C186	C	0.123815	0.822671	0.376561
	C187	C	0.886918	0.823581	0.607607
	C188	C	0.180532	0.384778	0.871454
	C189	C	0.184615	0.613662	0.113433
	C190	C	0.826002	0.385367	0.112350
	C191	C	0.828262	0.614183	0.872620
	C192	C	0.407421	0.093291	0.588711
	C193	C	0.605366	0.904187	0.588314
	C194	C	0.607933	0.092892	0.391921
	C195	C	0.403125	0.904739	0.389956
	C196	C	0.602969	0.401093	0.086550
	C197	C	0.605353	0.597176	0.894380
	C198	C	0.408136	0.597715	0.086539
	C199	C	0.404437	0.398902	0.895107
	C200	C	0.100142	0.600953	0.393195
	C201	C	0.911406	0.599664	0.591729
	C202	C	0.100134	0.401647	0.591331
	C203	C	0.912479	0.398582	0.393274
	C204	C	0.904903	0.594165	0.091935
	C205	C	0.104971	0.404965	0.091324
	C206	C	0.106114	0.593970	0.894624
	C207	C	0.903554	0.405401	0.891864
	C208	C	0.104647	0.902996	0.587407
	C209	C	0.105973	0.099796	0.395181
	C210	C	0.909162	0.096931	0.586012
	C211	C	0.906684	0.898225	0.395842
	C212	C	0.599359	0.100867	0.890294
	C213	C	0.411324	0.098402	0.089209
	C214	C	0.598970	0.900390	0.088179
	C215	C	0.410792	0.895666	0.888552
	Zn216	Zn	0.505221	-0.001139	0.739566
	Zn217	Zn	0.505604	-0.000893	0.240124
	Zn218	Zn	0.753559	0.499258	-0.008153
	Zn219	Zn	0.256321	0.499035	-0.007863
	Zn220	Zn	0.006066	0.750813	0.492653
	Zn221	Zn	0.007218	0.248658	0.491617
	Zn222	Zn	0.005238	0.500434	0.742255
	Zn223	Zn	0.005011	0.500007	0.242130
	Zn224	Zn	0.505222	0.746796	-0.010693
	Zn225	Zn	0.504653	0.250185	-0.010429
	Zn226	Zn	0.757363	-0.001977	0.490709
	Zn227	Zn	0.254500	0.000303	0.490158
	N228	N	0.421260	0.961147	0.665790
	N229	N	0.590390	0.036638	0.667200
	N230	N	0.589629	0.960764	0.312711
	N231	N	0.421370	0.036773	0.312816
	N232	N	0.682230	0.413234	0.954343
	N233	N	0.683644	0.585686	0.027827
	N234	N	0.327728	0.584063	0.954522
	N235	N	0.326692	0.412970	0.028539
	N236	N	0.969058	0.678249	0.406819
	N237	N	0.042306	0.679970	0.579495
	N238	N	0.970368	0.318875	0.579336
	N239	N	0.043601	0.320636	0.405604
	N240	N	0.967997	0.416288	0.668087
	N241	N	0.042752	0.586077	0.670783
	N242	N	0.968234	0.584466	0.315165
	N243	N	0.043115	0.414849	0.313811
	N244	N	0.421573	0.673462	0.952573
	N245	N	0.592660	0.678439	0.026566
	N246	N	0.588388	0.323340	0.952716
	N247	N	0.417926	0.319778	0.027209
	N248	N	0.686701	0.961837	0.402133
	N249	N	0.686580	0.035150	0.577480
	N250	N	0.325586	0.962945	0.576130
	N251	N	0.325255	0.035942	0.402399
	N252	N	0.919715	0.462269	0.169396
	N253	N	0.089008	0.537800	0.168671
	N254	N	0.088617	0.462053	0.815008
	N255	N	0.920632	0.537664	0.814815
	N256	N	0.180913	0.915906	0.453462
	N257	N	0.186209	0.087891	0.527220
	N258	N	0.829973	0.083064	0.453311
	N259	N	0.825999	0.910880	0.527568
	N260	N	0.468354	0.178508	0.902577
	N261	N	0.541676	0.179799	0.076707
	N262	N	0.468076	0.819556	0.074857
	N263	N	0.541698	0.817805	0.901709
	N264	N	0.467580	0.914615	0.166282
	N265	N	0.542966	0.085349	0.168381
	N266	N	0.466977	0.082332	0.813238
	N267	N	0.542658	0.913364	0.811019
	N268	N	0.922345	0.176017	0.453796
	N269	N	0.093447	0.178595	0.528466
	N270	N	0.091254	0.821705	0.455438
	N271	N	0.920657	0.821910	0.529471
	N272	N	0.184015	0.462560	0.905478
	N273	N	0.186653	0.535549	0.080272
	N274	N	0.824013	0.463005	0.079383
	N275	N	0.825058	0.536294	0.905198
	O276	O	0.008734	0.077390	-0.033669
	H277	H	0.006263	0.081610	-0.042882
	H278	H	0.009711	0.079774	-0.022823
	O279	O	0.425399	0.445381	0.543477
	H280	H	0.414383	0.433105	0.536698
	H281	H	0.428648	0.445094	0.551355
	O282	O	0.582958	0.368072	0.498443
	H283	H	0.586970	0.371717	0.497161
	H284	H	0.591398	0.372086	0.484248
	O285	O	1.045812	0.039996	1.038248
	H286	H	1.051077	0.045493	1.045471
	H287	H	1.040694	0.050547	1.035153
	O288	O	0.562311	0.279091	0.443493
	H289	H	0.569086	0.279853	0.446835
	H290	H	0.569889	0.264880	0.445282
	O291	O	0.508380	0.537895	0.443652
	H292	H	0.511694	0.539615	0.442423
	H293	H	0.503725	0.530895	0.439063
	O294	O	0.905402	-0.036125	0.903063
	H295	H	0.907078	-0.045938	0.910233
	H296	H	0.906205	-0.032980	0.899276
	O297	O	-0.064973	-0.029184	0.023176
	H298	H	-0.060138	-0.023391	0.034904
	H299	H	-0.061390	-0.026197	0.023066
	O300	O	0.489089	0.431976	0.449406
	H301	H	0.493719	0.444180	0.443501
	H302	H	0.490846	0.431967	0.457787
	O303	O	0.587265	0.561572	0.423316
	H304	H	0.583050	0.569839	0.418437
	H305	H	0.572215	0.565797	0.430573
	O306	O	0.956893	-0.039668	-0.064081
	H307	H	0.957780	-0.037888	-0.053839
	H308	H	0.951802	-0.037030	-0.061402
	O309	O	0.042624	0.066274	1.067646
	H310	H	0.037324	0.073462	1.062858
	H311	H	0.042162	0.076338	1.063370
	O312	O	0.958653	0.979439	1.043525
	H313	H	0.953130	0.972862	1.047218
	H314	H	0.963519	0.982929	1.041209
	O315	O	0.572851	0.527673	0.482511
	H316	H	0.563203	0.529950	0.482836
	H317	H	0.572670	0.527659	0.481641
	O318	O	0.564192	0.497380	0.486688
	H319	H	0.562263	0.489341	0.488342
	H320	H	0.559786	0.492086	0.470438
	O321	O	0.518595	1.598108	1.507783
	H322	H	0.514258	1.602557	1.517217
	H323	H	0.521696	1.601467	1.495843
	O324	O	0.538874	0.475160	0.428221
	H325	H	0.547908	0.464483	0.410293
	H326	H	0.544080	0.481176	0.434363
	O327	O	0.470217	0.466698	0.464958
	H328	H	0.468640	0.481820	0.463134
	H329	H	0.471424	0.468110	0.475129
	O330	O	0.446974	0.476979	0.561889
	H331	H	0.446692	0.471962	0.571582
	H332	H	0.438253	0.472238	0.562106
	O333	O	0.496043	0.569078	0.537847
	H334	H	0.499857	0.586174	0.529953
	H335	H	0.510847	0.575427	0.544647
	O336	O	0.469278	0.507615	0.489177
	H337	H	0.471545	0.496627	0.487896
	H338	H	0.476431	0.499917	0.507595
	O339	O	0.959805	1.044945	0.002926
	H340	H	0.957462	1.052690	0.007628
	H341	H	0.952509	1.048212	0.000333
	O342	O	0.481977	0.521538	0.458813
	H343	H	0.478485	0.515938	0.457169
	H344	H	0.473872	0.512947	0.463121
	O345	O	0.469332	0.450439	0.461257
	H346	H	0.476208	0.461855	0.472877
	H347	H	0.469959	0.452962	0.472426
	O348	O	-0.044021	0.044495	-0.038973
	H349	H	-0.046589	0.053018	-0.036621
	H350	H	-0.050287	0.040629	-0.047390
	O351	O	-0.047828	0.993541	1.075764
	H352	H	-0.040498	0.992154	1.076255
	H353	H	-0.041222	0.989345	1.083465
	O354	O	0.612371	0.523968	0.553055
	H355	H	0.610173	0.539799	0.549541
	H356	H	0.619203	0.525057	0.560555
	O357	O	0.003945	1.040608	1.076212
	H358	H	0.005503	1.046974	1.076672
	H359	H	0.003972	1.037754	1.078140
