data_Molecule from HDF5

_cell_length_a		16.662102
_cell_length_b		16.540445
_cell_length_c		16.556137
_cell_angle_alpha	89.858469
_cell_angle_beta	89.847717
_cell_angle_gamma	90.024926
_symmetry_space_group_name_H-M	'P 1'
_symmetry_Int_Tables_number		1

loop_
	_symmetry_equiv_pos_as_xyz
	x,y,z

loop_
	_atom_site_label
	_atom_site_type_symbol
	_atom_site_fract_x
	_atom_site_fract_y
	_atom_site_fract_z
	H0	H	0.395777	0.843353	0.707641
	H1	H	0.605425	0.156511	0.707051
	H2	H	0.602733	0.840932	0.268360
	H3	H	0.397218	0.157501	0.267186
	H4	H	0.722202	0.395056	0.831271
	H5	H	0.722214	0.606727	0.143362
	H6	H	0.280992	0.603129	0.829555
	H7	H	0.278380	0.394567	0.143394
	H8	H	0.845864	0.725003	0.379007
	H9	H	0.152791	0.724338	0.595222
	H10	H	0.844205	0.278844	0.590590
	H11	H	0.155493	0.278168	0.381117
	H12	H	0.844612	0.392823	0.709157
	H13	H	0.154051	0.605837	0.710021
	H14	H	0.844953	0.606849	0.264544
	H15	H	0.155281	0.393719	0.263908
	H16	H	0.397197	0.720058	0.829822
	H17	H	0.603139	0.719676	0.144323
	H18	H	0.602954	0.281199	0.829935
	H19	H	0.397963	0.281795	0.145289
	H20	H	0.722057	0.843103	0.380373
	H21	H	0.721639	0.156462	0.590447
	H22	H	0.278719	0.844113	0.592960
	H23	H	0.279660	0.156683	0.382268
	H24	H	0.896490	0.343671	0.207916
	H25	H	0.102467	0.657528	0.205640
	H26	H	0.102801	0.342135	0.767809
	H27	H	0.894838	0.655071	0.764377
	H28	H	0.223431	0.893373	0.333040
	H29	H	0.220831	0.105520	0.643976
	H30	H	0.780459	0.104793	0.329722
	H31	H	0.775001	0.892547	0.641498
	H32	H	0.343996	0.221054	0.882716
	H33	H	0.656791	0.219337	0.089483
	H34	H	0.343612	0.779102	0.091071
	H35	H	0.655973	0.778289	0.882681
	H36	H	0.343783	0.895839	0.207775
	H37	H	0.657107	0.101229	0.204975
	H38	H	0.344363	0.105627	0.765537
	H39	H	0.655203	0.894260	0.764214
	H40	H	0.898158	0.220594	0.330297
	H41	H	0.102465	0.218542	0.645388
	H42	H	0.105163	0.778982	0.332302
	H43	H	0.893363	0.779093	0.643811
	H44	H	0.221305	0.343982	0.881314
	H45	H	0.220358	0.656599	0.090684
	H46	H	0.779399	0.343719	0.092883
	H47	H	0.777857	0.655436	0.880458
	H48	H	0.406611	0.114407	0.575822
	H49	H	0.582051	0.891575	0.574134
	H50	H	0.590148	0.110424	0.398538
	H51	H	0.408715	0.889982	0.407140
	H52	H	0.587282	0.409686	0.098771
	H53	H	0.589809	0.591821	0.873732
	H54	H	0.406683	0.584629	0.098891
	H55	H	0.409078	0.407975	0.874086
	H56	H	0.108918	0.585625	0.399998
	H57	H	0.885799	0.592815	0.577536
	H58	H	0.111996	0.412572	0.579998
	H59	H	0.888565	0.410060	0.399976
	H60	H	0.113200	0.406554	0.578122
	H61	H	0.890474	0.587831	0.569669
	H62	H	0.111310	0.587899	0.395063
	H63	H	0.889566	0.412155	0.397482
	H64	H	0.414289	0.590088	0.099011
	H65	H	0.592708	0.585373	0.876212
	H66	H	0.590802	0.408714	0.100748
	H67	H	0.406981	0.412475	0.873704
	H68	H	0.592946	0.113129	0.395578
	H69	H	0.592260	0.888685	0.569342
	H70	H	0.411925	0.113375	0.578913
	H71	H	0.404293	0.883957	0.393108
	H72	H	0.914924	0.614488	0.084782
	H73	H	0.091629	0.386335	0.078001
	H74	H	0.087235	0.611758	0.897806
	H75	H	0.908069	0.384966	0.893900
	H76	H	0.084937	0.921344	0.595751
	H77	H	0.085678	0.098505	0.373819
	H78	H	0.909673	0.096950	0.601757
	H79	H	0.910833	0.914811	0.376188
	H80	H	0.612595	0.094362	0.897283
	H81	H	0.386887	0.098336	0.072717
	H82	H	0.612207	0.911459	0.080488
	H83	H	0.389613	0.910401	0.899019
	H84	H	0.613616	0.905152	0.076711
	H85	H	0.391342	0.082206	0.074281
	H86	H	0.609582	0.086933	0.900885
	H87	H	0.389508	0.912478	0.898892
	H88	H	0.901250	0.083987	0.600138
	H89	H	0.100523	0.086880	0.372976
	H90	H	0.081259	0.904811	0.599696
	H91	H	0.914706	0.911324	0.375661
	H92	H	0.089300	0.611205	0.899130
	H93	H	0.085958	0.387509	0.077636
	H94	H	0.915875	0.608025	0.067611
	H95	H	0.915898	0.388991	0.899153
	H96	H	0.411985	0.111570	0.573207
	H97	H	0.589502	0.886229	0.580541
	H98	H	0.588627	0.112394	0.394379
	H99	H	0.419298	0.889523	0.395294
	H100	H	0.590671	0.412730	0.099064
	H101	H	0.585809	0.587140	0.877552
	H102	H	0.406062	0.593432	0.101533
	H103	H	0.411762	0.412177	0.875591
	H104	H	0.110941	0.591602	0.399731
	H105	H	0.889444	0.582926	0.578777
	H106	H	0.111081	0.411028	0.573796
	H107	H	0.888096	0.409875	0.397141
	H108	H	0.900254	0.615296	0.073559
	H109	H	0.089671	0.388246	0.072711
	H110	H	0.089899	0.612479	0.896720
	H111	H	0.907297	0.387657	0.904031
	H112	H	0.096912	0.911361	0.603490
	H113	H	0.084457	0.080823	0.380156
	H114	H	0.916483	0.084337	0.595753
	H115	H	0.909251	0.910325	0.374226
	H116	H	0.612475	0.086877	0.892199
	H117	H	0.384952	0.090557	0.087337
	H118	H	0.609907	0.911167	0.073058
	H119	H	0.389503	0.911353	0.897051
	C120	C	0.378696	0.009030	0.608218
	C121	C	0.620739	0.992039	0.606766
	C122	C	0.621880	0.007999	0.364679
	C123	C	0.379129	0.991608	0.366585
	C124	C	0.621275	0.378799	-0.004224
	C125	C	0.621293	0.620588	0.979272
	C126	C	0.378313	0.621096	-0.004300
	C127	C	0.378112	0.378757	0.978354
	C128	C	0.008187	0.621562	0.365672
	C129	C	0.990884	0.620664	0.608586
	C130	C	0.008904	0.377515	0.609093
	C131	C	0.991614	0.378533	0.365529
	C132	C	0.878776	0.508786	0.107911
	C133	C	0.120451	0.491680	0.107309
	C134	C	0.120698	0.508274	0.865641
	C135	C	0.878458	0.490623	0.866113
	C136	C	0.120864	0.879345	0.496883
	C137	C	0.121786	0.121090	0.479143
	C138	C	0.878737	0.120590	0.495328
	C139	C	0.878190	0.878953	0.478320
	C140	C	0.508391	0.121377	0.865305
	C141	C	0.491635	0.121295	0.108737
	C142	C	0.508294	0.877950	0.108593
	C143	C	0.492110	0.878962	0.865925
	C144	C	0.377226	0.890712	0.667925
	C145	C	0.623454	0.109638	0.666741
	C146	C	0.622284	0.888770	0.306891
	C147	C	0.378257	0.110191	0.307061
	C148	C	0.681525	0.376574	0.878053
	C149	C	0.681527	0.624023	0.096659
	C150	C	0.320373	0.622283	0.876933
	C151	C	0.318811	0.376778	0.096763
	C152	C	0.892023	0.683473	0.361862
	C153	C	0.106783	0.682897	0.612530
	C154	C	0.891340	0.317931	0.610202
	C155	C	0.108818	0.318397	0.363108
	C156	C	0.891489	0.374877	0.668890
	C157	C	0.107242	0.624183	0.669834
	C158	C	0.891520	0.624675	0.304902
	C159	C	0.108582	0.375869	0.304697
	C160	C	0.378062	0.680208	0.877053
	C161	C	0.622205	0.680144	0.097308
	C162	C	0.622472	0.320153	0.877282
	C163	C	0.378099	0.320516	0.097471
	C164	C	0.681431	0.889796	0.362807
	C165	C	0.681407	0.109477	0.608976
	C166	C	0.318949	0.891100	0.611005
	C167	C	0.319826	0.109829	0.364301
	C168	C	0.877409	0.390811	0.168051
	C169	C	0.121529	0.610260	0.165955
	C170	C	0.122233	0.389770	0.806611
	C171	C	0.876407	0.608379	0.805022
	C172	C	0.182009	0.876198	0.379413
	C173	C	0.180889	0.123377	0.597058
	C174	C	0.819960	0.123261	0.376865
	C175	C	0.816147	0.875138	0.595237
	C176	C	0.390935	0.181026	0.864115
	C177	C	0.609613	0.179503	0.108694
	C178	C	0.390509	0.818876	0.109959
	C179	C	0.609136	0.818380	0.863567
	C180	C	0.390653	0.876755	0.167997
	C181	C	0.609801	0.120900	0.166275
	C182	C	0.391017	0.123562	0.805863
	C183	C	0.608837	0.876067	0.804976
	C184	C	0.878186	0.180763	0.377258
	C185	C	0.121860	0.179629	0.597587
	C186	C	0.123657	0.818917	0.379235
	C187	C	0.875042	0.818658	0.596303
	C188	C	0.180915	0.390542	0.863146
	C189	C	0.180337	0.609610	0.109279
	C190	C	0.819189	0.390884	0.110963
	C191	C	0.818318	0.608617	0.862588
	C192	C	0.403202	0.091528	0.583147
	C193	C	0.595348	0.909937	0.581543
	C194	C	0.597553	0.090423	0.389228
	C195	C	0.403639	0.909280	0.391562
	C196	C	0.596708	0.403423	0.078085
	C197	C	0.596599	0.595288	0.897054
	C198	C	0.402142	0.596394	0.078431
	C199	C	0.402311	0.403586	0.895979
	C200	C	0.089256	0.595865	0.391266
	C201	C	0.909601	0.594801	0.582694
	C202	C	0.090687	0.402759	0.584435
	C203	C	0.910111	0.403520	0.390882
	C204	C	0.903368	0.591289	0.082314
	C205	C	0.096150	0.408789	0.083146
	C206	C	0.095765	0.590448	0.890657
	C207	C	0.903306	0.408648	0.891674
	C208	C	0.095119	0.905188	0.578427
	C209	C	0.097342	0.095856	0.396819
	C210	C	0.902438	0.095600	0.577716
	C211	C	0.903999	0.904820	0.396562
	C212	C	0.590184	0.096485	0.889813
	C213	C	0.409170	0.097433	0.084949
	C214	C	0.590479	0.902358	0.083943
	C215	C	0.410799	0.904182	0.891210
	Zn216	Zn	0.500091	0.000536	0.735939
	Zn217	Zn	0.499928	-0.000933	0.237669
	Zn218	Zn	0.749883	0.499900	-0.012585
	Zn219	Zn	0.249334	0.499649	-0.013378
	Zn220	Zn	-0.000732	0.750729	0.487440
	Zn221	Zn	0.000444	0.249056	0.487118
	Zn222	Zn	-0.000498	0.498737	0.737390
	Zn223	Zn	0.000062	0.500249	0.236512
	Zn224	Zn	0.500272	0.749072	-0.012794
	Zn225	Zn	0.499664	0.250327	-0.013113
	Zn226	Zn	0.749710	-0.000273	0.485847
	Zn227	Zn	0.249658	0.000372	0.487702
	N228	N	0.413548	0.965189	0.666537
	N229	N	0.586526	0.035545	0.665401
	N230	N	0.586129	0.963405	0.307706
	N231	N	0.414255	0.035601	0.308234
	N232	N	0.681025	0.412271	0.952802
	N233	N	0.681188	0.587824	0.022125
	N234	N	0.320184	0.586336	0.951858
	N235	N	0.318639	0.412266	0.021687
	N236	N	0.965524	0.681683	0.399136
	N237	N	0.033344	0.680871	0.575091
	N238	N	0.965354	0.319380	0.573726
	N239	N	0.035146	0.319736	0.400138
	N240	N	0.965630	0.411059	0.668481
	N241	N	0.033930	0.586343	0.667483
	N242	N	0.964674	0.586669	0.307134
	N243	N	0.034695	0.412684	0.305966
	N244	N	0.413300	0.679581	0.951932
	N245	N	0.585345	0.677930	0.023233
	N246	N	0.585761	0.321214	0.951553
	N247	N	0.414227	0.321574	0.022862
	N248	N	0.681476	0.964960	0.397879
	N249	N	0.679986	0.035042	0.572423
	N250	N	0.319548	0.965805	0.574802
	N251	N	0.320106	0.034966	0.400675
	N252	N	0.913507	0.465358	0.166582
	N253	N	0.085204	0.535715	0.165077
	N254	N	0.085481	0.464030	0.807871
	N255	N	0.912734	0.533988	0.806785
	N256	N	0.180598	0.912763	0.453708
	N257	N	0.180797	0.087605	0.522300
	N258	N	0.820041	0.086642	0.451426
	N259	N	0.817825	0.911681	0.520741
	N260	N	0.465027	0.180062	0.900238
	N261	N	0.535005	0.180004	0.073799
	N262	N	0.464823	0.819243	0.073855
	N263	N	0.535482	0.819837	0.900538
	N264	N	0.465028	0.912545	0.167332
	N265	N	0.535205	0.085635	0.166587
	N266	N	0.465150	0.087271	0.806409
	N267	N	0.535135	0.913018	0.806235
	N268	N	0.913840	0.179292	0.451912
	N269	N	0.086021	0.178579	0.523126
	N270	N	0.086201	0.820813	0.453157
	N271	N	0.912920	0.820847	0.522546
	N272	N	0.180268	0.465267	0.899084
	N273	N	0.179773	0.534625	0.073832
	N274	N	0.819877	0.465453	0.074380
	N275	N	0.819288	0.534258	0.899595
	O276	O	0.061514	1.160307	-0.034830
	H277	H	0.050443	1.157109	-0.059147
	H278	H	0.056631	1.145054	-0.039940
	O279	O	0.520699	0.340866	0.567804
	H280	H	0.521464	0.348148	0.586620
	H281	H	0.507711	0.337346	0.573205
	O282	O	1.140246	0.172117	0.865277
	H283	H	1.126539	0.167931	0.869780
	H284	H	1.145702	0.173972	0.856729
	O285	O	0.715534	0.285714	0.448497
	H286	H	0.714593	0.279553	0.464221
	H287	H	0.723588	0.285218	0.457903
	O288	O	0.280391	0.535452	0.276795
	H289	H	0.260781	0.533977	0.263133
	H290	H	0.291359	0.549792	0.270199
	O291	O	0.694056	0.334503	0.649199
	H292	H	0.682081	0.350505	0.635492
	H293	H	0.681220	0.349309	0.639626
	O294	O	1.045707	-0.008895	0.935130
	H295	H	1.042353	-0.007404	0.951651
	H296	H	1.049907	-0.011079	0.937097
	O297	O	0.622212	0.605550	0.330272
	H298	H	0.614174	0.589323	0.333787
	H299	H	0.643925	0.603953	0.306804
	O300	O	-0.155277	-0.188410	0.795568
	H301	H	-0.137426	-0.173204	0.818853
	H302	H	-0.129644	-0.173814	0.791037
	O303	O	0.704723	0.701641	0.687905
	H304	H	0.685997	0.717632	0.688838
	H305	H	0.703081	0.718891	0.702305
	O306	O	0.542713	0.472974	0.696300
	H307	H	0.545119	0.493859	0.692740
	H308	H	0.561386	0.468671	0.694522
	O309	O	0.316126	0.685368	0.675432
	H310	H	0.316965	0.662808	0.649807
	H311	H	0.332851	0.679586	0.664345
	O312	O	0.576243	0.635303	0.520145
	H313	H	0.567456	0.643861	0.525564
	H314	H	0.592889	0.630408	0.517410
	O315	O	1.203677	1.201425	1.189320
	H316	H	1.210279	1.206458	1.142830
	H317	H	1.197007	1.214869	1.202076
	O318	O	0.466238	0.614592	0.404683
	H319	H	0.486677	0.613226	0.406588
	H320	H	0.475103	0.599138	0.391544
	O321	O	-0.084059	0.783210	0.903661
	H322	H	-0.076296	0.779457	0.890706
	H323	H	-0.068433	0.789585	0.917307
	O324	O	0.787361	0.781335	0.201749
	H325	H	0.775842	0.773488	0.179265
	H326	H	0.801046	0.795670	0.210009
	O327	O	-0.044287	0.119679	1.053877
	H328	H	-0.032750	0.124585	1.055188
	H329	H	-0.031265	0.115405	1.057032
	O330	O	0.730012	0.453324	0.531120
	H331	H	0.735600	0.463182	0.533963
	H332	H	0.733856	0.477295	0.535727
	O333	O	0.281358	0.716140	0.464404
	H334	H	0.284905	0.719046	0.428612
	H335	H	0.262234	0.730999	0.456767
	O336	O	0.708456	0.294949	0.280437
	H337	H	0.714275	0.275633	0.259327
	H338	H	0.710911	0.294565	0.324469
	O339	O	1.068824	-0.062160	1.214614
	H340	H	1.098761	-0.041272	1.216393
	H341	H	1.066011	-0.060659	1.214845
	O342	O	0.215582	0.035633	0.208258
	H343	H	0.221719	0.063213	0.212122
	H344	H	0.232994	0.049241	0.217151
	O345	O	-0.074016	1.103521	0.944036
	H346	H	-0.090662	1.097577	0.937494
	H347	H	-0.077393	1.099932	0.949189
	O348	O	0.700935	0.563817	0.410828
	H349	H	0.703771	0.580330	0.401922
	H350	H	0.702053	0.577235	0.401945
	O351	O	0.315698	0.556458	0.509825
	H352	H	0.320612	0.562833	0.496430
	H353	H	0.315878	0.541314	0.495453
	O354	O	-0.206025	0.203642	0.781030
	H355	H	-0.232320	0.214077	0.754652
	H356	H	-0.204923	0.190344	0.810226
	O357	O	0.409504	0.530166	0.668314
	H358	H	0.413497	0.542536	0.665995
	H359	H	0.422359	0.533464	0.658058
	O360	O	-0.211781	-0.126819	1.032559
	H361	H	-0.198672	-0.136363	1.014775
	H362	H	-0.215923	-0.136034	1.021468
	O363	O	-0.215333	-0.036875	0.202559
	H364	H	-0.213836	-0.049224	0.202482
	H365	H	-0.233262	-0.035092	0.212748
	O366	O	0.540914	0.718573	0.451768
	H367	H	0.541950	0.720850	0.446428
	H368	H	0.538846	0.709894	0.433322
	O369	O	0.791080	0.111004	0.004998
	H370	H	0.785843	0.109460	0.003302
	H371	H	0.801897	0.094698	0.014719
	O372	O	1.190067	0.820197	0.167695
	H373	H	1.176711	0.830125	0.141983
	H374	H	1.179518	0.835508	0.162652
	O375	O	0.816128	0.179191	0.164962
	H376	H	0.816427	0.174214	0.142992
	H377	H	0.831081	0.168742	0.158642
	O378	O	0.363732	0.388697	0.286338
	H379	H	0.372392	0.400314	0.281057
	H380	H	0.377343	0.385834	0.303349
	O381	O	-0.219601	1.153374	0.889825
	H382	H	-0.232323	1.142090	0.889972
	H383	H	-0.222212	1.157787	0.880245
	O384	O	1.100182	0.015224	1.024169
	H385	H	1.103505	0.021047	1.038871
	H386	H	1.097284	0.020040	1.028968
	O387	O	1.048910	1.108465	-0.189690
	H388	H	1.063907	1.104849	-0.189894
	H389	H	1.030905	1.126247	-0.188378
	O390	O	0.520945	0.472000	0.365489
	H391	H	0.530822	0.464609	0.371167
	H392	H	0.523896	0.469571	0.368079
	O393	O	0.518313	0.718002	0.663834
	H394	H	0.504246	0.721666	0.652767
	H395	H	0.506711	0.725767	0.673400
	O396	O	0.209032	0.789630	0.779335
	H397	H	0.200759	0.792241	0.781680
	H398	H	0.230647	0.788095	0.763598
	O399	O	-0.007164	0.002237	0.773218
	H400	H	0.006218	0.000352	0.763421
	H401	H	-0.002677	0.009439	0.785934
	O402	O	0.269439	0.430334	0.432612
	H403	H	0.275115	0.415794	0.437648
	H404	H	0.261453	0.432197	0.421936
	O405	O	0.978423	0.220838	0.801916
	H406	H	0.953047	0.222553	0.794063
	H407	H	0.956334	0.233420	0.788279
	O408	O	0.219818	-0.033592	-0.229946
	H409	H	0.222836	-0.040900	-0.234906
	H410	H	0.236602	-0.026583	-0.234522
	O411	O	0.723661	0.531712	0.707940
	H412	H	0.720208	0.565619	0.707755
	H413	H	0.747428	0.545546	0.731592
	O414	O	0.312361	0.306896	0.683835
	H415	H	0.320396	0.304298	0.680066
	H416	H	0.304088	0.345252	0.683056
	O417	O	0.427610	0.435459	0.325269
	H418	H	0.422541	0.433436	0.330942
	H419	H	0.420142	0.424948	0.326416
	O420	O	0.283284	0.708133	0.276872
	H421	H	0.261890	0.731500	0.254468
	H422	H	0.316128	0.696914	0.277137
	O423	O	0.217603	-0.218226	0.955025
	H424	H	0.225752	-0.219933	0.938992
	H425	H	0.229447	-0.232631	0.945888
	O426	O	0.312359	0.309799	0.517636
	H427	H	0.300735	0.288189	0.517791
	H428	H	0.314809	0.314277	0.535750
	O429	O	1.028157	0.777522	1.021849
	H430	H	1.035266	0.770541	1.028503
	H431	H	1.035183	0.773817	1.032993
	O432	O	0.720949	0.713589	0.515387
	H433	H	0.697676	0.718719	0.531906
	H434	H	0.746799	0.740349	0.522511
	O435	O	0.159681	0.908792	-0.034549
	H436	H	0.169374	0.898312	-0.053686
	H437	H	0.166231	0.931134	-0.026737
	O438	O	0.540655	0.281045	0.264020
	H439	H	0.552385	0.262332	0.244679
	H440	H	0.543915	0.274778	0.271231
	O441	O	0.038038	0.190952	0.182504
	H442	H	0.038408	0.194716	0.196751
	H443	H	0.039770	0.188204	0.190848
	O444	O	0.491076	0.398209	0.544836
	H445	H	0.509230	0.396404	0.549522
	H446	H	0.485100	0.407426	0.550594
	O447	O	-0.091185	0.906676	1.017487
	H448	H	-0.093377	0.898782	1.019602
	H449	H	-0.101878	0.909606	1.021381
	O450	O	-0.222149	0.910572	0.947727
	H451	H	-0.220723	0.900653	0.957030
	H452	H	-0.231492	0.902374	0.944240
	O453	O	0.221478	0.094001	0.909396
	H454	H	0.210042	0.094779	0.915756
	H455	H	0.219544	0.106398	0.904981
	O456	O	0.221057	0.213241	1.020364
	H457	H	0.209610	0.223378	1.001646
	H458	H	0.223471	0.235632	1.007337
	O459	O	1.039411	0.792871	-0.174653
	H460	H	1.040124	0.784462	-0.190900
	H461	H	1.056992	0.793973	-0.165760
	O462	O	0.717190	0.470544	0.270850
	H463	H	0.708332	0.440654	0.275319
	H464	H	0.743222	0.463032	0.247100
	O465	O	0.936501	0.053630	0.210063
	H466	H	0.938548	0.047953	0.207210
	H467	H	0.922636	0.043923	0.209701
	O468	O	0.437208	0.693480	0.516294
	H469	H	0.443480	0.686619	0.503430
	H470	H	0.432779	0.683579	0.498958
	O471	O	0.476974	0.286346	0.698317
	H472	H	0.469577	0.280843	0.712788
	H473	H	0.465429	0.289790	0.704495
	O474	O	0.443214	0.315469	0.445085
	H475	H	0.445590	0.314779	0.431025
	H476	H	0.445263	0.307349	0.446845
	O477	O	0.586048	0.423681	1.509484
	H478	H	0.592888	0.424846	1.516642
	H479	H	0.577809	0.424371	1.500570
	O480	O	0.502759	0.627596	0.269680
	H481	H	0.499841	0.617193	0.264898
	H482	H	0.501346	0.622275	0.266094
	O483	O	0.283593	0.475599	0.682670
	H484	H	0.283674	0.492632	0.661911
	H485	H	0.268170	0.487395	0.691246
	O486	O	0.838294	-0.003967	0.766687
	H487	H	0.845799	0.004884	0.752335
	H488	H	0.838560	0.005192	0.765430
	O489	O	0.974708	0.794116	0.193731
	H490	H	0.974504	0.816092	0.196077
	H491	H	0.965123	0.782177	0.215006
