data_Molecule from HDF5

_cell_length_a		16.431987
_cell_length_b		16.202123
_cell_length_c		16.087094
_cell_angle_alpha	90.325854
_cell_angle_beta	89.524848
_cell_angle_gamma	90.024559
_symmetry_space_group_name_H-M	'P 1'
_symmetry_Int_Tables_number		1

loop_
	_symmetry_equiv_pos_as_xyz
	x,y,z

loop_
	_atom_site_label
	_atom_site_type_symbol
	_atom_site_fract_x
	_atom_site_fract_y
	_atom_site_fract_z
	H0	H	0.389813	0.834993	0.710882
	H1	H	0.582785	0.165143	0.708935
	H2	H	0.586136	0.836036	0.281033
	H3	H	0.393552	0.166113	0.288925
	H4	H	0.704631	0.397234	0.835220
	H5	H	0.701954	0.605077	0.162647
	H6	H	0.271315	0.601009	0.834092
	H7	H	0.270549	0.400230	0.162558
	H8	H	0.826862	0.716155	0.399788
	H9	H	0.150952	0.716100	0.598688
	H10	H	0.826934	0.281252	0.603140
	H11	H	0.149786	0.282328	0.397435
	H12	H	0.825668	0.400854	0.715043
	H13	H	0.150910	0.597552	0.713397
	H14	H	0.824784	0.597959	0.286805
	H15	H	0.149110	0.398874	0.279684
	H16	H	0.391405	0.710777	0.830997
	H17	H	0.583227	0.716778	0.162705
	H18	H	0.584371	0.289892	0.832121
	H19	H	0.386487	0.287294	0.162804
	H20	H	0.705529	0.837004	0.392325
	H21	H	0.706056	0.161895	0.602257
	H22	H	0.271178	0.835730	0.599742
	H23	H	0.269495	0.161899	0.397155
	H24	H	0.889069	0.334260	0.211427
	H25	H	0.081132	0.664388	0.211710
	H26	H	0.084767	0.334005	0.785073
	H27	H	0.892551	0.664902	0.788677
	H28	H	0.204909	0.894072	0.334565
	H29	H	0.202730	0.100153	0.663581
	H30	H	0.774284	0.100476	0.334294
	H31	H	0.770203	0.898591	0.661972
	H32	H	0.325535	0.217253	0.897793
	H33	H	0.649079	0.218166	0.095512
	H34	H	0.324607	0.786510	0.097277
	H35	H	0.648566	0.781814	0.893163
	H36	H	0.325054	0.904257	0.212994
	H37	H	0.650206	0.102074	0.211085
	H38	H	0.325310	0.098570	0.783408
	H39	H	0.649688	0.901165	0.779528
	H40	H	0.892228	0.210781	0.333018
	H41	H	0.086248	0.213809	0.664634
	H42	H	0.087070	0.785253	0.333298
	H43	H	0.889874	0.787479	0.664202
	H44	H	0.206220	0.336653	0.894350
	H45	H	0.201033	0.663545	0.101191
	H46	H	0.766890	0.337554	0.102804
	H47	H	0.771037	0.662553	0.898338
	H48	H	0.392011	0.114837	0.581972
	H49	H	0.569265	0.885145	0.589396
	H50	H	0.583369	0.118095	0.402384
	H51	H	0.390024	0.880157	0.400658
	H52	H	0.576714	0.399031	0.119594
	H53	H	0.580952	0.591941	0.879979
	H54	H	0.384880	0.590838	0.117423
	H55	H	0.390757	0.415250	0.880959
	H56	H	0.104907	0.597427	0.403943
	H57	H	0.874515	0.590249	0.591214
	H58	H	0.101992	0.409601	0.589473
	H59	H	0.870731	0.398521	0.407425
	H60	H	0.104920	0.405596	0.594876
	H61	H	0.872244	0.592348	0.597418
	H62	H	0.101556	0.590806	0.411206
	H63	H	0.875052	0.407643	0.412125
	H64	H	0.397259	0.589178	0.112887
	H65	H	0.582536	0.589225	0.880372
	H66	H	0.588653	0.415441	0.118314
	H67	H	0.401970	0.409774	0.882464
	H68	H	0.581184	0.116678	0.407903
	H69	H	0.584388	0.885306	0.575849
	H70	H	0.387292	0.119277	0.593961
	H71	H	0.401848	0.884229	0.403020
	H72	H	0.894825	0.615117	0.087573
	H73	H	0.079587	0.385521	0.079145
	H74	H	0.077296	0.616416	0.905171
	H75	H	0.900324	0.382528	0.903372
	H76	H	0.075569	0.909211	0.616064
	H77	H	0.079642	0.091073	0.381094
	H78	H	0.889362	0.089846	0.618061
	H79	H	0.889930	0.911589	0.379096
	H80	H	0.602906	0.091334	0.901644
	H81	H	0.372004	0.095253	0.094077
	H82	H	0.600278	0.910166	0.082388
	H83	H	0.367170	0.897226	0.898225
	H84	H	0.603286	0.911189	0.091808
	H85	H	0.371483	0.096060	0.091800
	H86	H	0.604096	0.098764	0.900550
	H87	H	0.375396	0.904351	0.916446
	H88	H	0.897736	0.084384	0.614536
	H89	H	0.082742	0.089468	0.380783
	H90	H	0.081596	0.902427	0.619009
	H91	H	0.903071	0.910645	0.383062
	H92	H	0.080869	0.614557	0.912052
	H93	H	0.087489	0.379641	0.090122
	H94	H	0.889005	0.618738	0.091976
	H95	H	0.893634	0.384361	0.915989
	H96	H	0.399762	0.115618	0.592797
	H97	H	0.587506	0.878530	0.594170
	H98	H	0.586884	0.118342	0.408032
	H99	H	0.393101	0.884359	0.412557
	H100	H	0.569204	0.416022	0.112940
	H101	H	0.579223	0.588532	0.881437
	H102	H	0.394095	0.601306	0.118038
	H103	H	0.391793	0.402208	0.876347
	H104	H	0.103415	0.587183	0.400786
	H105	H	0.873773	0.596592	0.591377
	H106	H	0.104088	0.402389	0.588200
	H107	H	0.871281	0.407232	0.401623
	H108	H	0.895173	0.617219	0.095351
	H109	H	0.073520	0.383614	0.092702
	H110	H	0.084904	0.618041	0.906364
	H111	H	0.886762	0.380469	0.904832
	H112	H	0.085096	0.911055	0.616995
	H113	H	0.079897	0.087273	0.382143
	H114	H	0.898228	0.095142	0.616473
	H115	H	0.897063	0.899409	0.378674
	H116	H	0.602552	0.096413	0.906420
	H117	H	0.372543	0.093975	0.092138
	H118	H	0.604307	0.902450	0.087064
	H119	H	0.373554	0.916916	0.900367
	C120	C	0.364478	0.008330	0.619530
	C121	C	0.608704	0.991182	0.617220
	C122	C	0.611503	0.009074	0.374968
	C123	C	0.366668	0.991219	0.376721
	C124	C	0.607755	0.380351	0.007701
	C125	C	0.608464	0.621490	0.989401
	C126	C	0.364837	0.621785	0.006615
	C127	C	0.365531	0.379817	0.989175
	C128	C	-0.003744	0.620985	0.377096
	C129	C	0.980532	0.622204	0.621816
	C130	C	-0.003277	0.377110	0.621011
	C131	C	0.979358	0.375768	0.376487
	C132	C	0.864043	0.508278	0.120971
	C133	C	0.107816	0.491069	0.118788
	C134	C	0.110104	0.508088	0.877182
	C135	C	0.866042	0.490991	0.878911
	C136	C	0.109562	0.877769	0.507781
	C137	C	0.109034	0.119399	0.490601
	C138	C	0.867335	0.119434	0.507540
	C139	C	0.867086	0.877939	0.489134
	C140	C	0.495752	0.123410	0.875062
	C141	C	0.479131	0.124371	0.120060
	C142	C	0.495647	0.879922	0.117516
	C143	C	0.478986	0.877606	0.874501
	C144	C	0.368376	0.884434	0.674308
	C145	C	0.604473	0.115473	0.672537
	C146	C	0.607378	0.885483	0.318708
	C147	C	0.371502	0.116036	0.324687
	C148	C	0.665184	0.379598	0.883815
	C149	C	0.663424	0.622833	0.113496
	C150	C	0.309852	0.620117	0.882757
	C151	C	0.308971	0.380936	0.113286
	C152	C	0.875015	0.677511	0.379956
	C153	C	0.102543	0.677454	0.618700
	C154	C	0.875028	0.320543	0.621476
	C155	C	0.101441	0.320608	0.377407
	C156	C	0.874250	0.379757	0.677514
	C157	C	0.102511	0.618715	0.675930
	C158	C	0.873939	0.618626	0.323382
	C159	C	0.101004	0.378644	0.318964
	C160	C	0.369719	0.674735	0.881295
	C161	C	0.604298	0.678457	0.113598
	C162	C	0.605204	0.326260	0.882378
	C163	C	0.366633	0.324638	0.113336
	C164	C	0.667247	0.886110	0.373758
	C165	C	0.665769	0.113912	0.619296
	C166	C	0.309561	0.884656	0.618551
	C167	C	0.309630	0.113807	0.378101
	C168	C	0.867270	0.384045	0.175048
	C169	C	0.103092	0.615048	0.174560
	C170	C	0.106431	0.383837	0.821859
	C171	C	0.870701	0.615188	0.824899
	C172	C	0.165920	0.876728	0.383610
	C173	C	0.164489	0.119270	0.614476
	C174	C	0.812299	0.119303	0.383478
	C175	C	0.809350	0.879066	0.612971
	C176	C	0.374028	0.178897	0.877925
	C177	C	0.600971	0.180034	0.116441
	C178	C	0.373134	0.824484	0.117138
	C179	C	0.600476	0.820798	0.874255
	C180	C	0.373501	0.883153	0.174651
	C181	C	0.601424	0.122451	0.174172
	C182	C	0.373823	0.119887	0.820670
	C183	C	0.601101	0.880037	0.817693
	C184	C	0.870474	0.174847	0.383229
	C185	C	0.106651	0.175966	0.614807
	C186	C	0.107367	0.822363	0.382957
	C187	C	0.868740	0.823760	0.614153
	C188	C	0.166793	0.385125	0.876111
	C189	C	0.162727	0.614543	0.119514
	C190	C	0.806514	0.385847	0.121361
	C191	C	0.810325	0.614177	0.879682
	C192	C	0.386375	0.094267	0.596515
	C193	C	0.586822	0.905273	0.593462
	C194	C	0.590068	0.095399	0.399046
	C195	C	0.388489	0.905176	0.398892
	C196	C	0.584845	0.403458	0.094474
	C197	C	0.587224	0.597210	0.903027
	C198	C	0.385812	0.600273	0.093724
	C199	C	0.388300	0.402427	0.902246
	C200	C	0.081337	0.598396	0.398822
	C201	C	0.895460	0.599786	0.599954
	C202	C	0.081617	0.399428	0.597711
	C203	C	0.894339	0.397905	0.399958
	C204	C	0.886593	0.594419	0.098180
	C205	C	0.086400	0.405123	0.094575
	C206	C	0.087678	0.594075	0.900908
	C207	C	0.887370	0.404831	0.901390
	C208	C	0.087428	0.900783	0.594702
	C209	C	0.087369	0.095898	0.403748
	C210	C	0.888693	0.096366	0.594012
	C211	C	0.890031	0.900332	0.402675
	C212	C	0.581256	0.101859	0.896469
	C213	C	0.393926	0.101821	0.098948
	C214	C	0.580461	0.901643	0.093925
	C215	C	0.394031	0.899857	0.898003
	Zn216	Zn	0.487783	0.000279	0.745876
	Zn217	Zn	0.488857	0.001352	0.247779
	Zn218	Zn	0.735937	0.499531	-0.000140
	Zn219	Zn	0.237287	0.500116	-0.001604
	Zn220	Zn	-0.011051	0.750825	0.498956
	Zn221	Zn	-0.012262	0.247499	0.499577
	Zn222	Zn	-0.011860	0.499264	0.750186
	Zn223	Zn	-0.013420	0.498878	0.247718
	Zn224	Zn	0.486854	0.748614	-0.003276
	Zn225	Zn	0.487262	0.253010	-0.002084
	Zn226	Zn	0.738848	-0.000410	0.497672
	Zn227	Zn	0.236706	-0.002029	0.498077
	N228	N	0.401794	0.962327	0.675024
	N229	N	0.569723	0.038210	0.671363
	N230	N	0.573633	0.963241	0.319234
	N231	N	0.406151	0.038766	0.323585
	N232	N	0.666579	0.412940	0.962667
	N233	N	0.666081	0.588017	0.035233
	N234	N	0.306692	0.587993	0.961725
	N235	N	0.308238	0.414542	0.034877
	N236	N	0.952207	0.679267	0.412489
	N237	N	0.025486	0.679761	0.585769
	N238	N	0.951921	0.318822	0.586925
	N239	N	0.024840	0.318776	0.412427
	N240	N	0.950891	0.414220	0.677455
	N241	N	0.025632	0.585169	0.678032
	N242	N	0.950308	0.584045	0.321594
	N243	N	0.024264	0.412439	0.318568
	N244	N	0.403236	0.675832	0.959380
	N245	N	0.570984	0.677668	0.035523
	N246	N	0.570207	0.326498	0.960340
	N247	N	0.401048	0.323793	0.035134
	N248	N	0.669918	0.964021	0.408172
	N249	N	0.668596	0.035631	0.585552
	N250	N	0.306886	0.962658	0.585265
	N251	N	0.306352	0.035103	0.409869
	N252	N	0.902172	0.461317	0.175244
	N253	N	0.069352	0.537371	0.173891
	N254	N	0.071934	0.461283	0.822320
	N255	N	0.904797	0.537635	0.824320
	N256	N	0.167338	0.910453	0.462329
	N257	N	0.166407	0.084926	0.536049
	N258	N	0.810014	0.085634	0.461783
	N259	N	0.807898	0.911691	0.534234
	N260	N	0.451062	0.181245	0.910865
	N261	N	0.523870	0.181479	0.083647
	N262	N	0.450037	0.822012	0.082454
	N263	N	0.523458	0.819016	0.908848
	N264	N	0.450339	0.916838	0.174920
	N265	N	0.524753	0.088428	0.176429
	N266	N	0.450533	0.085859	0.819069
	N267	N	0.524722	0.914490	0.817793
	N268	N	0.904112	0.175024	0.461335
	N269	N	0.073052	0.176225	0.536714
	N270	N	0.073000	0.822762	0.461141
	N271	N	0.903949	0.822926	0.536236
	N272	N	0.169180	0.463442	0.909713
	N273	N	0.165824	0.536435	0.085468
	N274	N	0.804463	0.464113	0.088578
	N275	N	0.807368	0.536114	0.912570
	O276	O	0.079320	-0.062952	0.002153
	H277	H	0.080708	-0.043998	0.007916
	H278	H	0.073745	-0.068159	0.012193
	O279	O	0.980223	-0.065137	0.031603
	H280	H	0.982174	-0.062747	0.029208
	H281	H	0.977445	-0.069709	0.032366
	O282	O	0.397329	0.549335	0.464847
	H283	H	0.402554	0.552242	0.465697
	H284	H	0.395239	0.540340	0.468567
	O285	O	0.593824	1.561682	0.586072
	H286	H	0.592955	1.565186	0.586315
	H287	H	0.596131	1.563658	0.596881
	O288	O	0.522762	0.521196	0.432126
	H289	H	0.530489	0.513319	0.433584
	H290	H	0.525871	0.523142	0.425138
	O291	O	1.027364	1.091823	1.002095
	H292	H	1.019022	1.087138	1.001455
	H293	H	1.028644	1.090459	0.991997
	O294	O	0.983128	1.065796	0.998800
	H295	H	0.990968	1.061355	0.996755
	H296	H	0.975433	1.064834	1.009613
	O297	O	1.422103	0.496850	1.566154
	H298	H	1.423706	0.496710	1.567633
	H299	H	1.416889	0.493879	1.558340
	O300	O	0.512812	0.455963	0.485416
	H301	H	0.515481	0.440456	0.485773
	H302	H	0.518017	0.464726	0.492489
	O303	O	0.959021	-0.050951	-0.013606
	H304	H	0.969693	-0.050338	-0.022369
	H305	H	0.963379	-0.062084	-0.015747
	O306	O	0.063521	1.014110	1.018068
	H307	H	0.065861	1.017293	1.016306
	H308	H	0.059249	1.018614	1.020618
	O309	O	0.457373	0.460098	0.569201
	H310	H	0.461831	0.463432	0.558559
	H311	H	0.452063	0.464738	0.566786
	O312	O	1.023102	0.039793	1.037129
	H313	H	1.034785	0.042102	1.032687
	H314	H	1.023123	0.039335	1.037802
	O315	O	0.425447	0.426603	0.576077
	H316	H	0.435973	0.428219	0.577183
	H317	H	0.429568	0.429105	0.575958
	O318	O	0.471393	0.415520	0.432200
	H319	H	0.456359	0.410585	0.426401
	H320	H	0.470813	0.420280	0.441630
	O321	O	0.977709	0.971134	1.011083
	H322	H	0.973507	0.969046	1.010272
	H323	H	0.986842	0.977887	0.996855
	O324	O	0.540129	0.523800	0.483627
	H325	H	0.550887	0.504231	0.480613
	H326	H	0.541549	0.522281	0.484895
	O327	O	0.528144	0.413478	0.382676
	H328	H	0.530702	0.408342	0.384212
	H329	H	0.523670	0.430131	0.383040
	O330	O	0.942233	-0.003294	1.023961
	H331	H	0.934030	0.001832	1.027076
	H332	H	0.931133	-0.007074	1.024396
	O333	O	0.910477	0.969356	0.055733
	H334	H	0.908121	0.961527	0.046120
	H335	H	0.912068	0.970279	0.063148
	O336	O	0.339577	0.494700	0.503146
	H337	H	0.335402	0.505724	0.507438
	H338	H	0.340537	0.481358	0.496525
	O339	O	0.598579	0.627435	0.618463
	H340	H	0.593506	0.635224	0.616890
	H341	H	0.597266	0.627530	0.609205
	O342	O	0.034804	1.047962	0.061240
	H343	H	0.041757	1.046290	0.056514
	H344	H	0.041881	1.043309	0.068190
	O345	O	0.001718	-0.036109	-0.007372
	H346	H	-0.004369	-0.044639	-0.006020
	H347	H	0.007286	-0.025895	-0.010222
	O348	O	0.448487	0.589122	0.434055
	H349	H	0.445810	0.592980	0.424398
	H350	H	0.446449	0.592718	0.435169
	O351	O	0.572052	0.554209	0.477046
	H352	H	0.586673	0.555563	0.483256
	H353	H	0.574916	0.551861	0.473829
	O354	O	0.598577	0.535061	0.458463
	H355	H	0.597281	0.537652	0.462842
	H356	H	0.597025	0.530775	0.459453
	O357	O	0.656834	0.402011	0.479804
	H358	H	0.650937	0.411048	0.484713
	H359	H	0.650987	0.403703	0.492813
	O360	O	-0.055402	-0.046944	-0.028279
	H361	H	-0.056353	-0.053564	-0.017922
	H362	H	-0.053919	-0.048610	-0.028137
	O363	O	0.375912	0.463042	0.522012
	H364	H	0.368293	0.466595	0.525399
	H365	H	0.367967	0.457768	0.511360
	O366	O	0.027350	-0.012434	0.972148
	H367	H	0.027201	-0.009376	0.980213
	H368	H	0.025396	-0.025475	0.967691
	O369	O	0.447575	0.443361	0.511589
	H370	H	0.441968	0.426858	0.504510
	H371	H	0.443440	0.440335	0.520654
