data_Molecule from HDF5

_cell_length_a		16.388861
_cell_length_b		16.351505
_cell_length_c		16.141930
_cell_angle_alpha	90.119430
_cell_angle_beta	89.787286
_cell_angle_gamma	89.718360
_symmetry_space_group_name_H-M	'P 1'
_symmetry_Int_Tables_number		1

loop_
	_symmetry_equiv_pos_as_xyz
	x,y,z

loop_
	_atom_site_label
	_atom_site_type_symbol
	_atom_site_fract_x
	_atom_site_fract_y
	_atom_site_fract_z
	H0	H	0.401041	0.834197	0.714215
	H1	H	0.599141	0.159528	0.713763
	H2	H	0.599957	0.834548	0.280386
	H3	H	0.399902	0.159143	0.282809
	H4	H	0.719918	0.395042	0.836680
	H5	H	0.715247	0.602941	0.161723
	H6	H	0.280956	0.599431	0.835737
	H7	H	0.284941	0.396420	0.162402
	H8	H	0.839552	0.715186	0.399011
	H9	H	0.160242	0.716371	0.606765
	H10	H	0.838898	0.278694	0.604062
	H11	H	0.159162	0.274497	0.393741
	H12	H	0.837528	0.399782	0.716125
	H13	H	0.162802	0.594533	0.715878
	H14	H	0.838305	0.596788	0.285624
	H15	H	0.161421	0.393706	0.282698
	H16	H	0.397143	0.713240	0.834031
	H17	H	0.599608	0.715828	0.159796
	H18	H	0.603854	0.280116	0.834885
	H19	H	0.398241	0.282085	0.161863
	H20	H	0.719417	0.835263	0.392425
	H21	H	0.718693	0.157917	0.599882
	H22	H	0.280889	0.835097	0.601093
	H23	H	0.277359	0.156242	0.391709
	H24	H	0.900402	0.335047	0.215731
	H25	H	0.099197	0.658446	0.217448
	H26	H	0.101254	0.334001	0.782809
	H27	H	0.900931	0.659948	0.784701
	H28	H	0.215389	0.894187	0.335082
	H29	H	0.217399	0.099324	0.660262
	H30	H	0.785892	0.096501	0.334171
	H31	H	0.780537	0.894450	0.660223
	H32	H	0.339125	0.217342	0.894554
	H33	H	0.659977	0.215473	0.099489
	H34	H	0.337325	0.781157	0.099802
	H35	H	0.659595	0.776375	0.891930
	H36	H	0.337146	0.900710	0.212643
	H37	H	0.661475	0.097337	0.212867
	H38	H	0.337183	0.097520	0.782009
	H39	H	0.661860	0.895956	0.780645
	H40	H	0.895908	0.215327	0.336628
	H41	H	0.098135	0.210464	0.662978
	H42	H	0.102850	0.776761	0.337562
	H43	H	0.897986	0.782223	0.663369
	H44	H	0.219195	0.335382	0.896456
	H45	H	0.217912	0.657872	0.103563
	H46	H	0.777760	0.338380	0.106058
	H47	H	0.780233	0.658511	0.896064
	H48	H	0.406817	0.109279	0.581773
	H49	H	0.581687	0.886291	0.583038
	H50	H	0.598164	0.115883	0.396993
	H51	H	0.403391	0.880695	0.409935
	H52	H	0.581988	0.402970	0.113400
	H53	H	0.598037	0.581775	0.881120
	H54	H	0.400931	0.590936	0.117482
	H55	H	0.412388	0.405258	0.881387
	H56	H	0.114178	0.585698	0.413879
	H57	H	0.887636	0.587835	0.587654
	H58	H	0.110016	0.405660	0.577814
	H59	H	0.880849	0.394873	0.404485
	H60	H	0.114675	0.412064	0.598939
	H61	H	0.885129	0.586845	0.596792
	H62	H	0.114933	0.584680	0.407698
	H63	H	0.887880	0.405180	0.420100
	H64	H	0.410381	0.583070	0.111952
	H65	H	0.583633	0.584074	0.884895
	H66	H	0.595431	0.403242	0.118195
	H67	H	0.406112	0.405691	0.880407
	H68	H	0.583508	0.109535	0.405566
	H69	H	0.601340	0.882157	0.579691
	H70	H	0.401705	0.113512	0.589989
	H71	H	0.407902	0.879209	0.400259
	H72	H	0.901122	0.614935	0.091862
	H73	H	0.086934	0.381696	0.093793
	H74	H	0.098807	0.613407	0.911428
	H75	H	0.910150	0.383218	0.911472
	H76	H	0.090255	0.905604	0.615919
	H77	H	0.088977	0.091468	0.380067
	H78	H	0.901858	0.081866	0.615410
	H79	H	0.914701	0.903644	0.383537
	H80	H	0.615686	0.081038	0.895557
	H81	H	0.383610	0.094704	0.088737
	H82	H	0.611623	0.911211	0.086785
	H83	H	0.382720	0.901949	0.902243
	H84	H	0.616336	0.902642	0.091806
	H85	H	0.385892	0.088629	0.086037
	H86	H	0.618396	0.101670	0.905592
	H87	H	0.386115	0.904065	0.912054
	H88	H	0.914920	0.083561	0.611423
	H89	H	0.092981	0.083237	0.381815
	H90	H	0.091692	0.907126	0.616061
	H91	H	0.908647	0.900482	0.380221
	H92	H	0.087869	0.611928	0.902680
	H93	H	0.092151	0.384463	0.082460
	H94	H	0.909214	0.613411	0.096505
	H95	H	0.907594	0.382378	0.910861
	H96	H	0.411776	0.110676	0.590615
	H97	H	0.593340	0.878674	0.597803
	H98	H	0.599101	0.111057	0.415126
	H99	H	0.413135	0.883883	0.408739
	H100	H	0.589598	0.414991	0.112124
	H101	H	0.591470	0.594777	0.878361
	H102	H	0.412767	0.596367	0.114812
	H103	H	0.409341	0.410322	0.883137
	H104	H	0.115679	0.590535	0.409789
	H105	H	0.884189	0.594835	0.592789
	H106	H	0.119168	0.391130	0.592642
	H107	H	0.885165	0.413861	0.402467
	H108	H	0.908197	0.610973	0.087622
	H109	H	0.099080	0.379589	0.091740
	H110	H	0.087428	0.608315	0.914923
	H111	H	0.909466	0.382600	0.909068
	H112	H	0.089426	0.907644	0.615113
	H113	H	0.083784	0.084794	0.384248
	H114	H	0.907880	0.093775	0.617452
	H115	H	0.908302	0.907574	0.382571
	H116	H	0.609282	0.084012	0.917698
	H117	H	0.384117	0.089014	0.091843
	H118	H	0.612686	0.901116	0.080839
	H119	H	0.385476	0.910972	0.905082
	C120	C	0.377403	0.004514	0.618611
	C121	C	0.621955	0.988752	0.618241
	C122	C	0.622646	0.005038	0.375219
	C123	C	0.377661	0.987932	0.376056
	C124	C	0.621037	0.376282	0.007030
	C125	C	0.620303	0.618450	0.989395
	C126	C	0.377284	0.619900	0.006969
	C127	C	0.379466	0.376864	0.989795
	C128	C	0.008601	0.617297	0.379818
	C129	C	0.991866	0.619204	0.622974
	C130	C	0.008032	0.374386	0.621351
	C131	C	0.991105	0.373472	0.377575
	C132	C	0.877015	0.506151	0.122107
	C133	C	0.122120	0.488299	0.121184
	C134	C	0.122134	0.504761	0.878232
	C135	C	0.878949	0.489457	0.879498
	C136	C	0.120902	0.874968	0.508246
	C137	C	0.119704	0.117301	0.489701
	C138	C	0.878288	0.117505	0.507119
	C139	C	0.879257	0.874846	0.489904
	C140	C	0.507938	0.119675	0.875658
	C141	C	0.490993	0.119843	0.119232
	C142	C	0.507245	0.876124	0.117735
	C143	C	0.491031	0.874940	0.874965
	C144	C	0.380021	0.882695	0.675985
	C145	C	0.620170	0.110681	0.675683
	C146	C	0.620518	0.883123	0.318084
	C147	C	0.379248	0.110217	0.320281
	C148	C	0.680185	0.376014	0.884939
	C149	C	0.676686	0.620629	0.112487
	C150	C	0.319748	0.619103	0.884339
	C151	C	0.323245	0.377651	0.113378
	C152	C	0.887706	0.675682	0.380137
	C153	C	0.112772	0.676548	0.624028
	C154	C	0.886788	0.317921	0.622771
	C155	C	0.111528	0.314725	0.376246
	C156	C	0.886261	0.377819	0.678549
	C157	C	0.113943	0.616063	0.678598
	C158	C	0.887045	0.616901	0.323209
	C159	C	0.112411	0.373950	0.320232
	C160	C	0.377547	0.675788	0.883670
	C161	C	0.619348	0.677106	0.111557
	C162	C	0.622424	0.318731	0.884193
	C163	C	0.379456	0.320076	0.112858
	C164	C	0.680103	0.883606	0.374044
	C165	C	0.679411	0.109848	0.618835
	C166	C	0.320029	0.883317	0.619923
	C167	C	0.318022	0.108576	0.374229
	C168	C	0.879091	0.384113	0.178341
	C169	C	0.119529	0.610228	0.178622
	C170	C	0.121322	0.382783	0.820871
	C171	C	0.880225	0.611158	0.822291
	C172	C	0.177740	0.874421	0.384677
	C173	C	0.177692	0.117613	0.612122
	C174	C	0.822792	0.116790	0.383789
	C175	C	0.820169	0.875121	0.612144
	C176	C	0.387247	0.178041	0.875272
	C177	C	0.612057	0.176616	0.118951
	C178	C	0.385767	0.820018	0.118335
	C179	C	0.611712	0.816225	0.873609
	C180	C	0.385664	0.878805	0.175290
	C181	C	0.612537	0.117872	0.175436
	C182	C	0.386307	0.118451	0.819135
	C183	C	0.612986	0.875924	0.818306
	C184	C	0.877675	0.175894	0.385024
	C185	C	0.118570	0.173422	0.613259
	C186	C	0.121895	0.815949	0.385950
	C187	C	0.878567	0.819344	0.613558
	C188	C	0.180245	0.383470	0.877498
	C189	C	0.178887	0.609662	0.122150
	C190	C	0.818289	0.385622	0.123540
	C191	C	0.820421	0.610507	0.878135
	C192	C	0.400118	0.089067	0.594526
	C193	C	0.598867	0.904225	0.593947
	C194	C	0.599981	0.090001	0.398920
	C195	C	0.401332	0.903321	0.399611
	C196	C	0.596303	0.400254	0.092468
	C197	C	0.597630	0.593942	0.903877
	C198	C	0.400910	0.596677	0.092454
	C199	C	0.402531	0.400226	0.903966
	C200	C	0.092951	0.593636	0.403419
	C201	C	0.907474	0.596493	0.599395
	C202	C	0.092651	0.396493	0.596984
	C203	C	0.906548	0.397500	0.401994
	C204	C	0.899469	0.590931	0.098760
	C205	C	0.099464	0.403737	0.096616
	C206	C	0.098398	0.589351	0.902711
	C207	C	0.902334	0.404785	0.903606
	C208	C	0.097469	0.899565	0.593704
	C209	C	0.095786	0.093296	0.404245
	C210	C	0.901589	0.093564	0.592828
	C211	C	0.903480	0.897467	0.404354
	C212	C	0.592588	0.095911	0.899324
	C213	C	0.406515	0.097473	0.095757
	C214	C	0.591700	0.898426	0.093434
	C215	C	0.406563	0.898831	0.899276
	Zn216	Zn	0.499883	-0.002914	0.747262
	Zn217	Zn	0.499694	-0.002698	0.247251
	Zn218	Zn	0.748300	0.498381	-0.000227
	Zn219	Zn	0.251551	0.497031	-0.000665
	Zn220	Zn	0.000745	0.747156	0.501189
	Zn221	Zn	-0.001123	0.245519	0.499272
	Zn222	Zn	0.000189	0.496684	0.750139
	Zn223	Zn	-0.000005	0.496243	0.249700
	Zn224	Zn	0.499238	0.746146	-0.003165
	Zn225	Zn	0.499233	0.248809	-0.002002
	Zn226	Zn	0.751584	-0.004018	0.496954
	Zn227	Zn	0.247939	-0.003770	0.497072
	N228	N	0.414791	0.959154	0.675548
	N229	N	0.585135	0.034363	0.675542
	N230	N	0.585723	0.959918	0.318169
	N231	N	0.415757	0.034386	0.321341
	N232	N	0.679517	0.410943	0.962371
	N233	N	0.677376	0.584742	0.035456
	N234	N	0.319303	0.585200	0.962199
	N235	N	0.323070	0.412324	0.035971
	N236	N	0.964377	0.676305	0.414520
	N237	N	0.035843	0.678753	0.590252
	N238	N	0.963462	0.315535	0.588008
	N239	N	0.035023	0.314611	0.411297
	N240	N	0.962553	0.412258	0.677594
	N241	N	0.037878	0.581238	0.678076
	N242	N	0.963148	0.581298	0.322907
	N243	N	0.036323	0.409864	0.321049
	N244	N	0.412464	0.676555	0.960968
	N245	N	0.584968	0.675922	0.034056
	N246	N	0.586285	0.318885	0.961297
	N247	N	0.413952	0.319654	0.034963
	N248	N	0.681618	0.960329	0.408723
	N249	N	0.680518	0.033008	0.584011
	N250	N	0.318395	0.960047	0.584923
	N251	N	0.316835	0.031553	0.408340
	N252	N	0.914958	0.459869	0.177475
	N253	N	0.085315	0.533640	0.178301
	N254	N	0.086078	0.459313	0.821100
	N255	N	0.915968	0.534837	0.823167
	N256	N	0.177567	0.910189	0.461862
	N257	N	0.178659	0.083759	0.534091
	N258	N	0.822974	0.081198	0.460835
	N259	N	0.820632	0.908970	0.534339
	N260	N	0.464057	0.179188	0.909346
	N261	N	0.535507	0.178024	0.084775
	N262	N	0.462496	0.818056	0.083416
	N263	N	0.534937	0.815499	0.908134
	N264	N	0.461965	0.912994	0.174913
	N265	N	0.536265	0.083193	0.175703
	N266	N	0.462543	0.082790	0.819246
	N267	N	0.536714	0.911487	0.818684
	N268	N	0.911539	0.176376	0.462824
	N269	N	0.083255	0.173147	0.536089
	N270	N	0.087357	0.816233	0.463710
	N271	N	0.914634	0.818877	0.536551
	N272	N	0.180879	0.460385	0.912351
	N273	N	0.180336	0.533048	0.086834
	N274	N	0.816456	0.462755	0.089747
	N275	N	0.819643	0.533980	0.913192
	O276	O	0.077824	0.034701	0.056409
	H277	H	0.070420	0.034858	0.058593
	H278	H	0.082076	0.029685	0.065317
	O279	O	0.452695	0.524995	0.327190
	H280	H	0.452314	0.512235	0.327791
	H281	H	0.464501	0.521629	0.326624
	O282	O	1.026979	0.038560	0.088393
	H283	H	1.036357	0.038496	0.085999
	H284	H	1.014779	0.044813	0.077290
	O285	O	0.035292	1.038410	0.042473
	H286	H	0.049290	1.047612	0.045812
	H287	H	0.023491	1.026457	0.056041
	O288	O	0.396922	0.524048	0.577724
	H289	H	0.389118	0.529232	0.568810
	H290	H	0.407964	0.514746	0.580669
	O291	O	0.613598	0.407603	0.489983
	H292	H	0.605937	0.414150	0.499678
	H293	H	0.627206	0.392614	0.490971
	O294	O	1.089726	0.999385	0.935641
	H295	H	1.094856	1.008031	0.933698
	H296	H	1.082927	0.993228	0.944903
	O297	O	-0.073863	-0.133262	0.046479
	H298	H	-0.079613	-0.119273	0.043919
	H299	H	-0.088016	-0.135232	0.041628
	O300	O	0.517589	0.403434	0.432376
	H301	H	0.520310	0.393219	0.443486
	H302	H	0.510896	0.400876	0.440724
	O303	O	0.167689	0.863927	0.926969
	H304	H	0.175869	0.878687	0.937977
	H305	H	0.177802	0.860106	0.929522
	O306	O	0.434518	0.588283	0.465838
	H307	H	0.425835	0.590903	0.459443
	H308	H	0.439703	0.575954	0.455447
	O309	O	0.933595	0.076986	0.049527
	H310	H	0.929017	0.077588	0.039646
	H311	H	0.941634	0.081109	0.045746
	O312	O	0.028774	-0.018477	1.003552
	H313	H	0.024671	-0.025763	1.014911
	H314	H	0.022237	-0.027426	1.002382
	O315	O	0.659491	0.531575	0.600090
	H316	H	0.660705	0.534932	0.597819
	H317	H	0.677993	0.535208	0.578824
	O318	O	0.552702	0.602379	0.428850
	H319	H	0.557816	0.608066	0.404127
	H320	H	0.546092	0.608653	0.430983
	O321	O	0.352070	0.476856	0.361627
	H322	H	0.348691	0.462573	0.364732
	H323	H	0.356782	0.469362	0.360144
	O324	O	0.525950	0.688625	0.575285
	H325	H	0.524322	0.699665	0.552321
	H326	H	0.521053	0.705284	0.593219
	O327	O	-0.117644	1.133977	0.935059
	H328	H	-0.106212	1.127463	0.932212
	H329	H	-0.116106	1.127309	0.937662
	O330	O	0.393646	0.582043	0.396976
	H331	H	0.401365	0.569347	0.401285
	H332	H	0.378900	0.598309	0.395833
	O333	O	-0.008553	0.901246	0.993038
	H334	H	0.006107	0.903967	0.990779
	H335	H	-0.012941	0.905172	0.996662
	O336	O	0.966130	0.972162	1.005350
	H337	H	0.970710	0.960307	0.998898
	H338	H	0.960498	0.962521	1.003559
	O339	O	0.646624	0.536191	0.461312
	H340	H	0.667096	0.542843	0.464181
	H341	H	0.638312	0.531846	0.455933
	O342	O	1.046840	0.044377	-0.115035
	H343	H	1.062900	0.041783	-0.121271
	H344	H	1.046746	0.050294	-0.118605
	O345	O	0.496299	0.614744	0.337164
	H346	H	0.501062	0.607728	0.336029
	H347	H	0.490342	0.606419	0.347093
	O348	O	1.055962	0.929450	0.970657
	H349	H	1.063242	0.928717	0.973545
	H350	H	1.058215	0.934640	0.962880
	O351	O	0.898701	0.931240	0.058317
	H352	H	0.894184	0.939058	0.056693
	H353	H	0.888780	0.914434	0.058091
	O354	O	0.656924	0.386578	0.398467
	H355	H	0.665087	0.388900	0.382631
	H356	H	0.651253	0.395459	0.406861
	O357	O	0.472497	0.399197	0.664472
	H358	H	0.477538	0.404550	0.671381
	H359	H	0.468767	0.402579	0.672303
	O360	O	-0.102481	-0.106144	0.037502
	H361	H	-0.103828	-0.112338	0.032246
	H362	H	-0.097729	-0.091274	0.034085
	O363	O	0.392692	0.529585	0.610895
	H364	H	0.399154	0.532700	0.618071
	H365	H	0.389240	0.523078	0.607998
	O366	O	0.417582	0.599427	0.564084
	H367	H	0.421985	0.614389	0.551709
	H368	H	0.420696	0.595634	0.562800
	O369	O	0.428756	0.354058	0.583997
	H370	H	0.425021	0.361797	0.585715
	H371	H	0.420826	0.350569	0.582672
	O372	O	0.355732	0.566089	0.382344
	H373	H	0.366132	0.574678	0.385243
	H374	H	0.350470	0.562346	0.378954
	O375	O	0.352992	0.326614	0.495040
	H376	H	0.370368	0.324678	0.501000
	H377	H	0.345984	0.318511	0.505998
	O378	O	0.540036	0.354615	0.541899
	H379	H	0.520448	0.354442	0.541688
	H380	H	0.536552	0.358300	0.546606
	O381	O	0.474787	0.363819	0.596522
	H382	H	0.467928	0.369216	0.601315
	H383	H	0.476869	0.354477	0.608535
	O384	O	-0.161283	1.118839	-0.099623
	H385	H	-0.153253	1.110336	-0.105776
	H386	H	-0.178069	1.129455	-0.103358
	O387	O	1.012798	0.021371	0.824766
	H388	H	1.019343	0.027462	0.827358
	H389	H	1.002172	0.013393	0.819083
	O390	O	-0.035540	0.975830	-0.012256
	H391	H	-0.035966	0.965340	-0.015694
	H392	H	-0.039496	0.978299	-0.021527
	O393	O	1.097400	1.137040	0.128642
	H394	H	1.105269	1.131808	0.113334
	H395	H	1.110375	1.146623	0.142464
	O396	O	0.603135	0.536057	0.518538
	H397	H	0.598005	0.517003	0.514352
	H398	H	0.610685	0.542618	0.522664
	O399	O	0.086514	1.114869	1.024477
	H400	H	0.096205	1.108028	1.016409
	H401	H	0.069090	1.127283	1.028631
	O402	O	0.865356	0.953058	1.072438
	H403	H	0.864908	0.951992	1.076379
	H404	H	0.858382	0.947220	1.075606
	O405	O	0.669916	0.610597	0.527026
	H406	H	0.670641	0.615577	0.518373
	H407	H	0.673521	0.601172	0.515934
