data_Molecule from HDF5

_cell_length_a		16.533449
_cell_length_b		16.611828
_cell_length_c		16.632085
_cell_angle_alpha	90.087789
_cell_angle_beta	89.799228
_cell_angle_gamma	89.923030
_symmetry_space_group_name_H-M	'P 1'
_symmetry_Int_Tables_number		1

loop_
	_symmetry_equiv_pos_as_xyz
	x,y,z

loop_
	_atom_site_label
	_atom_site_type_symbol
	_atom_site_fract_x
	_atom_site_fract_y
	_atom_site_fract_z
	H0	H	0.400037	0.841864	0.707621
	H1	H	0.614093	0.150310	0.710605
	H2	H	0.612003	0.840853	0.264341
	H3	H	0.401969	0.154054	0.266350
	H4	H	0.726722	0.394476	0.830105
	H5	H	0.724929	0.600588	0.143441
	H6	H	0.283516	0.603050	0.831905
	H7	H	0.287458	0.394461	0.144177
	H8	H	0.850436	0.719222	0.381781
	H9	H	0.164882	0.716592	0.590166
	H10	H	0.850359	0.276265	0.591959
	H11	H	0.162536	0.277105	0.382872
	H12	H	0.850475	0.393207	0.708517
	H13	H	0.164384	0.601036	0.706574
	H14	H	0.849995	0.603508	0.265955
	H15	H	0.162630	0.391995	0.265858
	H16	H	0.395668	0.722668	0.833568
	H17	H	0.610814	0.719187	0.142236
	H18	H	0.610595	0.276854	0.830446
	H19	H	0.404820	0.279464	0.144002
	H20	H	0.727638	0.840366	0.381027
	H21	H	0.730613	0.149383	0.594765
	H22	H	0.288163	0.839400	0.588001
	H23	H	0.285388	0.153445	0.383284
	H24	H	0.900765	0.340630	0.207069
	H25	H	0.108239	0.654030	0.205897
	H26	H	0.112761	0.341458	0.764465
	H27	H	0.900468	0.653281	0.764346
	H28	H	0.225798	0.893768	0.329089
	H29	H	0.227862	0.102845	0.641305
	H30	H	0.784536	0.101782	0.332112
	H31	H	0.782456	0.890088	0.641480
	H32	H	0.350522	0.218241	0.883172
	H33	H	0.665099	0.215714	0.088791
	H34	H	0.350318	0.775926	0.093183
	H35	H	0.660950	0.772493	0.876961
	H36	H	0.350083	0.893606	0.208047
	H37	H	0.664133	0.099991	0.205589
	H38	H	0.350171	0.102963	0.766313
	H39	H	0.659749	0.887351	0.760190
	H40	H	0.899586	0.219820	0.332376
	H41	H	0.113645	0.220855	0.640764
	H42	H	0.109117	0.777487	0.329512
	H43	H	0.899759	0.775064	0.642932
	H44	H	0.227462	0.340327	0.882859
	H45	H	0.226541	0.653094	0.091068
	H46	H	0.787969	0.339844	0.087467
	H47	H	0.784854	0.653549	0.882291
	H48	H	0.419035	0.109530	0.578621
	H49	H	0.589477	0.885720	0.575664
	H50	H	0.596558	0.107720	0.398955
	H51	H	0.414568	0.885548	0.402325
	H52	H	0.594122	0.405592	0.097705
	H53	H	0.593793	0.587640	0.875357
	H54	H	0.414567	0.580980	0.096916
	H55	H	0.419277	0.409973	0.876336
	H56	H	0.119058	0.586963	0.394950
	H57	H	0.897722	0.581708	0.574033
	H58	H	0.121741	0.399474	0.573679
	H59	H	0.892890	0.404374	0.398218
	H60	H	0.114235	0.413341	0.567767
	H61	H	0.893654	0.585790	0.581529
	H62	H	0.118028	0.587301	0.399797
	H63	H	0.894616	0.410701	0.399685
	H64	H	0.423482	0.585940	0.095504
	H65	H	0.596048	0.583760	0.876229
	H66	H	0.599084	0.403392	0.100647
	H67	H	0.419099	0.403268	0.873677
	H68	H	0.596644	0.109318	0.394794
	H69	H	0.590458	0.888270	0.569820
	H70	H	0.417006	0.108429	0.573561
	H71	H	0.411280	0.881911	0.390297
	H72	H	0.921223	0.608080	0.077566
	H73	H	0.102802	0.385575	0.070359
	H74	H	0.090723	0.606388	0.900113
	H75	H	0.920596	0.389888	0.902854
	H76	H	0.101010	0.902129	0.601371
	H77	H	0.100563	0.083285	0.373776
	H78	H	0.917727	0.087523	0.598945
	H79	H	0.918866	0.910822	0.377133
	H80	H	0.617373	0.085691	0.899902
	H81	H	0.395928	0.086933	0.072144
	H82	H	0.615810	0.913792	0.073292
	H83	H	0.396614	0.913825	0.899485
	H84	H	0.620952	0.907242	0.078944
	H85	H	0.394186	0.084393	0.081646
	H86	H	0.618001	0.081358	0.897121
	H87	H	0.393450	0.908813	0.896291
	H88	H	0.916888	0.081739	0.596531
	H89	H	0.089744	0.082486	0.378282
	H90	H	0.098421	0.910957	0.597380
	H91	H	0.920857	0.905044	0.375850
	H92	H	0.099250	0.609223	0.901230
	H93	H	0.099224	0.380769	0.086759
	H94	H	0.913626	0.608176	0.073596
	H95	H	0.911360	0.383641	0.896611
	H96	H	0.413647	0.110855	0.577779
	H97	H	0.595258	0.885061	0.573441
	H98	H	0.593049	0.107406	0.396432
	H99	H	0.423687	0.887016	0.392296
	H100	H	0.599295	0.409415	0.098424
	H101	H	0.591426	0.583378	0.876635
	H102	H	0.415487	0.590843	0.099887
	H103	H	0.412897	0.407597	0.873315
	H104	H	0.117600	0.582500	0.397536
	H105	H	0.894391	0.590466	0.573508
	H106	H	0.119865	0.412516	0.583591
	H107	H	0.892361	0.409526	0.393750
	H108	H	0.914437	0.611420	0.081922
	H109	H	0.086746	0.387226	0.076563
	H110	H	0.094938	0.609360	0.893145
	H111	H	0.922385	0.386173	0.890876
	H112	H	0.092168	0.903840	0.598338
	H113	H	0.093222	0.092461	0.373589
	H114	H	0.922335	0.084807	0.596655
	H115	H	0.915278	0.906178	0.374438
	H116	H	0.619590	0.086204	0.895535
	H117	H	0.392106	0.093806	0.078204
	H118	H	0.618229	0.904774	0.069462
	H119	H	0.396047	0.908462	0.902744
	C120	C	0.384601	0.005999	0.607947
	C121	C	0.626152	0.988020	0.606973
	C122	C	0.627961	0.005021	0.364374
	C123	C	0.385136	0.988654	0.364398
	C124	C	0.628947	0.375167	-0.004831
	C125	C	0.626626	0.617858	0.978499
	C126	C	0.384033	0.619078	-0.004666
	C127	C	0.386012	0.376342	0.978346
	C128	C	0.014793	0.617856	0.365652
	C129	C	0.998864	0.618010	0.607903
	C130	C	0.015202	0.376402	0.607539
	C131	C	0.996989	0.376102	0.365551
	C132	C	0.884552	0.505748	0.108551
	C133	C	0.127391	0.488277	0.108732
	C134	C	0.127755	0.505025	0.865847
	C135	C	0.885868	0.489645	0.865182
	C136	C	0.128321	0.874795	0.494917
	C137	C	0.127241	0.118438	0.478002
	C138	C	0.885111	0.117906	0.495491
	C139	C	0.885291	0.874838	0.478597
	C140	C	0.515216	0.117703	0.865614
	C141	C	0.498441	0.119225	0.107971
	C142	C	0.514580	0.876995	0.106896
	C143	C	0.497252	0.875728	0.865119
	C144	C	0.382297	0.888402	0.667254
	C145	C	0.631313	0.103824	0.669572
	C146	C	0.630324	0.887674	0.304314
	C147	C	0.383222	0.106887	0.305881
	C148	C	0.687291	0.374986	0.876949
	C149	C	0.685987	0.619801	0.096031
	C150	C	0.322979	0.621758	0.878881
	C151	C	0.327088	0.375794	0.096651
	C152	C	0.897284	0.678621	0.363594
	C153	C	0.117410	0.676975	0.608949
	C154	C	0.897095	0.316658	0.610185
	C155	C	0.115522	0.317071	0.364446
	C156	C	0.897225	0.374528	0.667952
	C157	C	0.117249	0.619597	0.666865
	C158	C	0.897019	0.620942	0.305948
	C159	C	0.115536	0.374118	0.306116
	C160	C	0.379089	0.680998	0.879472
	C161	C	0.628936	0.678501	0.095542
	C162	C	0.629937	0.316621	0.877227
	C163	C	0.385523	0.318501	0.096831
	C164	C	0.687604	0.887332	0.362532
	C165	C	0.689153	0.103444	0.611758
	C166	C	0.326383	0.887381	0.607870
	C167	C	0.325488	0.106628	0.364065
	C168	C	0.882776	0.387634	0.167031
	C169	C	0.127506	0.606857	0.166580
	C170	C	0.130839	0.387873	0.805186
	C171	C	0.882677	0.606694	0.804951
	C172	C	0.186227	0.875067	0.376291
	C173	C	0.187914	0.121164	0.594466
	C174	C	0.824479	0.120694	0.378732
	C175	C	0.823434	0.872198	0.595149
	C176	C	0.397470	0.178137	0.864188
	C177	C	0.617429	0.176962	0.108406
	C178	C	0.397105	0.816603	0.110691
	C179	C	0.613837	0.813214	0.859783
	C180	C	0.397062	0.875006	0.167778
	C181	C	0.617065	0.119501	0.166298
	C182	C	0.397299	0.120925	0.806120
	C183	C	0.613474	0.870340	0.801617
	C184	C	0.881698	0.179073	0.378726
	C185	C	0.130779	0.179725	0.594355
	C186	C	0.128510	0.817009	0.376485
	C187	C	0.881682	0.814785	0.595697
	C188	C	0.187635	0.387315	0.863918
	C189	C	0.186324	0.606311	0.109554
	C190	C	0.826315	0.387392	0.107967
	C191	C	0.825108	0.606787	0.863326
	C192	C	0.409373	0.088195	0.583629
	C193	C	0.599211	0.907116	0.580341
	C194	C	0.602549	0.086958	0.389536
	C195	C	0.409725	0.906355	0.388003
	C196	C	0.604500	0.399209	0.077555
	C197	C	0.601111	0.592280	0.897171
	C198	C	0.410289	0.593346	0.076305
	C199	C	0.410300	0.399973	0.895936
	C200	C	0.096868	0.592740	0.390356
	C201	C	0.916699	0.593237	0.583502
	C202	C	0.097284	0.401321	0.582398
	C203	C	0.914652	0.401130	0.390258
	C204	C	0.909346	0.587747	0.084618
	C205	C	0.103154	0.405917	0.084635
	C206	C	0.102299	0.586900	0.890901
	C207	C	0.911067	0.407839	0.889677
	C208	C	0.104082	0.898615	0.577468
	C209	C	0.101511	0.093124	0.396371
	C210	C	0.911334	0.092117	0.576052
	C211	C	0.911140	0.900067	0.396938
	C212	C	0.596995	0.091902	0.890511
	C213	C	0.415541	0.095313	0.084054
	C214	C	0.596876	0.901687	0.081273
	C215	C	0.416270	0.902843	0.891843
	Zn216	Zn	0.505744	-0.002800	0.736569
	Zn217	Zn	0.507030	-0.002262	0.235962
	Zn218	Zn	0.756775	0.497554	-0.013855
	Zn219	Zn	0.255979	0.496584	-0.013242
	Zn220	Zn	0.006728	0.746176	0.487022
	Zn221	Zn	0.005659	0.247414	0.486750
	Zn222	Zn	0.007329	0.497322	0.736589
	Zn223	Zn	0.005679	0.497041	0.236901
	Zn224	Zn	0.505623	0.747622	-0.013896
	Zn225	Zn	0.507330	0.247103	-0.013591
	Zn226	Zn	0.756158	-0.003916	0.486214
	Zn227	Zn	0.256411	-0.003155	0.486607
	N228	N	0.417448	0.963238	0.667715
	N229	N	0.592717	0.030950	0.666512
	N230	N	0.594047	0.962051	0.305338
	N231	N	0.419507	0.032564	0.305928
	N232	N	0.687094	0.410375	0.951557
	N233	N	0.684743	0.582642	0.022152
	N234	N	0.325765	0.583757	0.951906
	N235	N	0.327179	0.410939	0.021961
	N236	N	0.971469	0.676732	0.400282
	N237	N	0.042634	0.676507	0.573180
	N238	N	0.971491	0.317618	0.573536
	N239	N	0.040781	0.317914	0.400463
	N240	N	0.971764	0.410808	0.666588
	N241	N	0.042347	0.583985	0.666661
	N242	N	0.971110	0.583588	0.307280
	N243	N	0.040751	0.410087	0.306515
	N244	N	0.416499	0.679296	0.952889
	N245	N	0.592846	0.677595	0.021356
	N246	N	0.594681	0.316489	0.951888
	N247	N	0.421196	0.318284	0.022092
	N248	N	0.686612	0.961605	0.399049
	N249	N	0.686345	0.030229	0.573602
	N250	N	0.327476	0.961709	0.571773
	N251	N	0.326375	0.032089	0.399677
	N252	N	0.917938	0.462414	0.167736
	N253	N	0.091912	0.532265	0.166452
	N254	N	0.094366	0.462231	0.806141
	N255	N	0.919630	0.532745	0.805904
	N256	N	0.186450	0.910037	0.451190
	N257	N	0.185694	0.083481	0.521087
	N258	N	0.826290	0.083273	0.452285
	N259	N	0.825519	0.908844	0.521235
	N260	N	0.471900	0.176551	0.900448
	N261	N	0.542370	0.177253	0.073265
	N262	N	0.471406	0.817630	0.073503
	N263	N	0.540591	0.816311	0.898463
	N264	N	0.471189	0.911723	0.165614
	N265	N	0.541789	0.084519	0.166449
	N266	N	0.471668	0.084132	0.806657
	N267	N	0.539883	0.908731	0.804658
	N268	N	0.918534	0.177693	0.452300
	N269	N	0.093807	0.178200	0.520501
	N270	N	0.093322	0.816610	0.451421
	N271	N	0.919289	0.816163	0.522037
	N272	N	0.185951	0.461341	0.900718
	N273	N	0.186495	0.531478	0.074373
	N274	N	0.827057	0.461876	0.072325
	N275	N	0.826956	0.533009	0.900159
	O276	O	0.177730	0.822422	0.180485
	H277	H	0.168521	0.835947	0.158249
	H278	H	0.155163	0.834769	0.169299
	O279	O	0.311190	0.359213	0.349130
	H280	H	0.315506	0.381814	0.358399
	H281	H	0.318256	0.377663	0.367256
	O282	O	0.946325	-0.127879	0.790407
	H283	H	0.955615	-0.129798	0.780408
	H284	H	0.953783	-0.114250	0.801934
	O285	O	0.330822	0.679874	0.674209
	H286	H	0.350420	0.686131	0.666523
	H287	H	0.340817	0.675248	0.675914
	O288	O	0.285486	0.530835	0.267036
	H289	H	0.288830	0.539194	0.261467
	H290	H	0.269989	0.549395	0.247510
	O291	O	0.578627	0.557720	0.671610
	H292	H	0.584722	0.562332	0.678794
	H293	H	0.574546	0.564994	0.660557
	O294	O	0.960390	0.100895	0.950826
	H295	H	0.954390	0.104584	0.956304
	H296	H	0.969034	0.103765	0.936423
	O297	O	0.524091	0.578007	0.434832
	H298	H	0.515854	0.568130	0.417935
	H299	H	0.537151	0.582065	0.420273
	O300	O	-0.015283	-0.222769	0.949938
	H301	H	-0.021249	-0.215240	0.943304
	H302	H	-0.033390	-0.226544	0.956796
	O303	O	0.735296	0.725959	0.715366
	H304	H	0.747519	0.728405	0.723406
	H305	H	0.723320	0.723953	0.715322
	O306	O	0.511958	0.484599	0.628482
	H307	H	0.517710	0.482855	0.621131
	H308	H	0.521249	0.486584	0.617968
	O309	O	0.211297	0.792020	0.779712
	H310	H	0.224151	0.777507	0.778384
	H311	H	0.186955	0.803413	0.789666
	O312	O	0.709004	0.444037	0.572246
	H313	H	0.721753	0.456615	0.556716
	H314	H	0.698787	0.439871	0.545281
	O315	O	1.118040	1.209255	1.204516
	H316	H	1.140860	1.195546	1.204323
	H317	H	1.127462	1.224893	1.225579
	O318	O	0.717015	0.524499	0.699348
	H319	H	0.736325	0.517508	0.696063
	H320	H	0.718306	0.539558	0.694949
	O321	O	-0.049218	1.056433	1.203774
	H322	H	-0.027196	1.052751	1.199011
	H323	H	-0.048417	1.073157	1.210112
	O324	O	0.727088	0.702493	0.266436
	H325	H	0.759579	0.707259	0.255973
	H326	H	0.720493	0.710067	0.265254
	O327	O	-0.131455	0.210345	0.945228
	H328	H	-0.123170	0.198534	0.947919
	H329	H	-0.127447	0.197831	0.950667
	O330	O	0.312552	0.291920	0.513252
	H331	H	0.310167	0.297470	0.526901
	H332	H	0.302220	0.296953	0.517028
	O333	O	0.288657	0.712148	0.447765
	H334	H	0.276676	0.728297	0.441829
	H335	H	0.281370	0.711624	0.435455
	O336	O	0.716139	0.288237	0.278870
	H337	H	0.718147	0.265462	0.255136
	H338	H	0.680657	0.293313	0.282496
	O339	O	0.777391	-0.071085	0.929438
	H340	H	0.782095	-0.056951	0.936143
	H341	H	0.775604	-0.049642	0.906172
	O342	O	0.051693	-0.021258	-0.048443
	H343	H	0.050338	-0.011965	-0.046430
	H344	H	0.043320	-0.019553	-0.053900
	O345	O	-0.207395	1.049202	1.045775
	H346	H	-0.209525	1.047274	1.063834
	H347	H	-0.195314	1.044248	1.053325
	O348	O	0.721885	0.275631	0.463225
	H349	H	0.735888	0.274029	0.441486
	H350	H	0.731128	0.262593	0.437612
	O351	O	0.406578	0.632355	0.500585
	H352	H	0.416629	0.637257	0.495123
	H353	H	0.408971	0.626380	0.502698
	O354	O	-0.307673	0.307138	0.678461
	H355	H	-0.312918	0.325383	0.665919
	H356	H	-0.316867	0.323423	0.658710
	O357	O	0.260743	0.251091	0.243402
	H358	H	0.263443	0.257486	0.210184
	H359	H	0.281552	0.277334	0.272485
	O360	O	-0.070435	0.027017	0.840330
	H361	H	-0.051093	0.032652	0.842208
	H362	H	-0.076581	0.041438	0.831956
	O363	O	-0.002909	-0.090744	0.185853
	H364	H	0.006964	-0.080251	0.188584
	H365	H	0.003895	-0.081378	0.170952
	O366	O	0.686584	0.488431	0.420477
	H367	H	0.693362	0.486936	0.404281
	H368	H	0.675327	0.499328	0.410273
	O369	O	0.848676	0.210272	-0.127638
	H370	H	0.844447	0.220213	-0.112897
	H371	H	0.833189	0.218637	-0.119109
	O372	O	1.168419	0.855942	0.024488
	H373	H	1.175000	0.847653	0.009430
	H374	H	1.163011	0.862262	0.004715
	O375	O	0.817639	0.186921	0.178573
	H376	H	0.830319	0.196618	0.159518
	H377	H	0.829926	0.164602	0.176966
	O378	O	0.523160	0.704321	0.665316
	H379	H	0.532889	0.707493	0.665922
	H380	H	0.521393	0.713880	0.678122
	O381	O	-0.107290	1.204263	0.840272
	H382	H	-0.115596	1.209537	0.869306
	H383	H	-0.124552	1.227636	0.821985
	O384	O	1.124013	0.165555	0.943379
	H385	H	1.126717	0.164309	0.926407
	H386	H	1.119794	0.152537	0.932670
	O387	O	1.179448	1.177759	-0.196752
	H388	H	1.192628	1.201685	-0.222165
	H389	H	1.153903	1.175917	-0.201370
	O390	O	0.565446	0.269394	0.539147
	H391	H	0.585820	0.265790	0.547634
	H392	H	0.574442	0.274365	0.525791
	O393	O	0.426215	0.586702	0.692410
	H394	H	0.436808	0.570911	0.696051
	H395	H	0.446426	0.605808	0.707693
	O396	O	-0.070048	0.832858	0.874570
	H397	H	-0.088440	0.817518	0.881486
	H398	H	-0.063467	0.839102	0.859970
	O399	O	0.224910	0.216095	1.032112
	H400	H	0.231890	0.227360	1.022342
	H401	H	0.230311	0.216720	1.024799
	O402	O	0.383524	0.544821	0.460288
	H403	H	0.397321	0.551060	0.457703
	H404	H	0.378245	0.562372	0.454873
	O405	O	1.137437	-0.065850	1.050641
	H406	H	1.144448	-0.063686	1.052063
	H407	H	1.134885	-0.053579	1.051268
	O408	O	0.226029	-0.031926	-0.235406
	H409	H	0.236978	-0.039708	-0.253250
	H410	H	0.233448	-0.047192	-0.238371
	O411	O	0.711966	0.636408	0.472989
	H412	H	0.718342	0.650780	0.481523
	H413	H	0.716148	0.638681	0.461961
	O414	O	0.300268	0.288793	0.691438
	H415	H	0.297209	0.310472	0.669328
	H416	H	0.335983	0.301509	0.694830
	O417	O	0.605985	0.703558	0.374983
	H418	H	0.622882	0.712367	0.371870
	H419	H	0.597142	0.695739	0.365077
	O420	O	0.300326	0.703572	0.280494
	H421	H	0.320654	0.691084	0.286611
	H422	H	0.273628	0.732692	0.261055
	O423	O	0.111613	-0.218489	0.842037
	H424	H	0.132521	-0.233744	0.841726
	H425	H	0.107029	-0.223467	0.830238
	O426	O	0.412594	0.493086	0.494855
	H427	H	0.411009	0.489540	0.493272
	H428	H	0.411178	0.487240	0.502840
	O429	O	0.936411	0.842456	1.115931
	H430	H	0.941222	0.843981	1.115533
	H431	H	0.927514	0.846952	1.120167
	O432	O	0.728867	0.465492	0.266290
	H433	H	0.749647	0.467315	0.243758
	H434	H	0.727860	0.429718	0.264371
	O435	O	0.211080	0.915113	-0.053767
	H436	H	0.221075	0.928229	-0.061331
	H437	H	0.216346	0.911168	-0.071246
	O438	O	0.480320	0.271128	0.374978
	H439	H	0.486357	0.274815	0.386368
	H440	H	0.463054	0.260535	0.381381
	O441	O	-0.056866	0.210142	0.081868
	H442	H	-0.057756	0.225024	0.095900
	H443	H	-0.039297	0.213421	0.074238
	O444	O	0.488242	0.290074	0.696656
	H445	H	0.492512	0.276822	0.693638
	H446	H	0.489022	0.295600	0.707976
	O447	O	-0.108759	0.797667	1.177281
	H448	H	-0.088519	0.794300	1.167496
	H449	H	-0.102345	0.808390	1.175395
	O450	O	-0.210785	0.779828	1.018168
	H451	H	-0.230620	0.784118	1.018005
	H452	H	-0.224028	0.783594	1.012382
	O453	O	0.010490	0.164298	0.861948
	H454	H	-0.001671	0.184216	0.844515
	H455	H	-0.014843	0.153995	0.861752
	O456	O	0.108658	0.004187	1.089513
	H457	H	0.102904	0.016202	1.081619
	H458	H	0.115360	0.010729	1.091009
	O459	O	0.794430	1.022900	-0.224434
	H460	H	0.793148	1.019311	-0.245563
	H461	H	0.799615	1.046213	-0.227650
	O462	O	0.510824	0.626410	0.271411
	H463	H	0.526716	0.645407	0.274150
	H464	H	0.525228	0.627683	0.273506
	O465	O	0.863698	-0.042044	0.151920
	H466	H	0.861806	-0.044076	0.158207
	H467	H	0.874889	-0.038518	0.163743
	O468	O	0.310043	0.449741	0.690193
	H469	H	0.300693	0.447727	0.701589
	H470	H	0.314325	0.473354	0.688769
	O471	O	0.517604	0.427249	0.511269
	H472	H	0.533417	0.432791	0.499786
	H473	H	0.506248	0.427024	0.511751
	O474	O	0.392433	0.449640	0.326686
	H475	H	0.377834	0.463910	0.330297
	H476	H	0.409045	0.463746	0.324587
	O477	O	0.644693	0.664236	1.550182
	H478	H	0.659744	0.678320	1.543247
	H479	H	0.643370	0.656509	1.558087
	O480	O	0.482168	0.598086	0.264802
	H481	H	0.478242	0.616218	0.251115
	H482	H	0.454293	0.588040	0.269111
	O483	O	0.527635	0.336311	0.313847
	H484	H	0.513170	0.335414	0.316477
	H485	H	0.510864	0.335129	0.296761
	O486	O	1.067030	0.038157	0.761119
	H487	H	1.070107	0.040687	0.770846
	H488	H	1.083226	0.047500	0.753106
	O489	O	1.220533	1.014654	0.200571
	H490	H	1.247929	1.024617	0.218126
	H491	H	1.220532	1.019742	0.187632
