data_Molecule from HDF5

_cell_length_a		16.174628
_cell_length_b		16.258147
_cell_length_c		16.316717
_cell_angle_alpha	90.357534
_cell_angle_beta	90.202903
_cell_angle_gamma	90.125273
_symmetry_space_group_name_H-M	'P 1'
_symmetry_Int_Tables_number		1

loop_
	_symmetry_equiv_pos_as_xyz
	x,y,z

loop_
	_atom_site_label
	_atom_site_type_symbol
	_atom_site_fract_x
	_atom_site_fract_y
	_atom_site_fract_z
	H0	H	0.409173	0.838479	0.703484
	H1	H	0.610231	0.165442	0.708238
	H2	H	0.609348	0.840135	0.274343
	H3	H	0.408558	0.165339	0.274617
	H4	H	0.721035	0.404435	0.826312
	H5	H	0.724918	0.602297	0.153479
	H6	H	0.294804	0.599108	0.827045
	H7	H	0.294899	0.405566	0.153960
	H8	H	0.843847	0.713706	0.392667
	H9	H	0.172960	0.716871	0.590020
	H10	H	0.844221	0.288570	0.586778
	H11	H	0.173354	0.288524	0.391331
	H12	H	0.844259	0.403366	0.702950
	H13	H	0.172881	0.601261	0.704148
	H14	H	0.845002	0.600138	0.275657
	H15	H	0.172743	0.401138	0.273872
	H16	H	0.410545	0.714680	0.826793
	H17	H	0.610403	0.719998	0.153184
	H18	H	0.608266	0.285706	0.827512
	H19	H	0.408471	0.286447	0.152691
	H20	H	0.721195	0.838062	0.392623
	H21	H	0.724176	0.166613	0.590469
	H22	H	0.295584	0.838669	0.585610
	H23	H	0.296388	0.167388	0.392967
	H24	H	0.909560	0.338574	0.202824
	H25	H	0.110141	0.664930	0.208148
	H26	H	0.107350	0.338586	0.775197
	H27	H	0.909909	0.666131	0.776709
	H28	H	0.222402	0.904236	0.326098
	H29	H	0.223724	0.101732	0.653701
	H30	H	0.793880	0.098460	0.325945
	H31	H	0.796056	0.904861	0.653783
	H32	H	0.344203	0.214778	0.892106
	H33	H	0.673285	0.219761	0.092462
	H34	H	0.344972	0.788923	0.088039
	H35	H	0.673759	0.788032	0.891839
	H36	H	0.345319	0.902996	0.204041
	H37	H	0.673028	0.103733	0.207205
	H38	H	0.345579	0.101618	0.774264
	H39	H	0.673597	0.902102	0.775561
	H40	H	0.909030	0.215933	0.326157
	H41	H	0.108863	0.219133	0.652553
	H42	H	0.109584	0.784357	0.327461
	H43	H	0.910447	0.789019	0.653294
	H44	H	0.222843	0.338354	0.891053
	H45	H	0.222339	0.667717	0.089240
	H46	H	0.795186	0.338672	0.086198
	H47	H	0.794689	0.665945	0.892080
	H48	H	0.418733	0.116862	0.575965
	H49	H	0.595964	0.885429	0.593294
	H50	H	0.604966	0.119188	0.403400
	H51	H	0.421212	0.888632	0.398749
	H52	H	0.609747	0.411423	0.108851
	H53	H	0.601133	0.587295	0.876454
	H54	H	0.417863	0.592262	0.105046
	H55	H	0.411079	0.416109	0.875055
	H56	H	0.128209	0.594281	0.394371
	H57	H	0.890641	0.596751	0.580072
	H58	H	0.127421	0.411305	0.588218
	H59	H	0.890723	0.409124	0.393502
	H60	H	0.127097	0.406286	0.582258
	H61	H	0.890782	0.592337	0.585698
	H62	H	0.126034	0.597709	0.402895
	H63	H	0.890819	0.406931	0.396899
	H64	H	0.421038	0.599898	0.108008
	H65	H	0.595535	0.601673	0.873710
	H66	H	0.597623	0.417081	0.102559
	H67	H	0.425114	0.408315	0.876162
	H68	H	0.604108	0.121790	0.394813
	H69	H	0.599063	0.889164	0.574674
	H70	H	0.409947	0.122246	0.587395
	H71	H	0.411519	0.885089	0.398743
	H72	H	0.915207	0.618345	0.076166
	H73	H	0.099985	0.387467	0.080872
	H74	H	0.096340	0.615527	0.904633
	H75	H	0.909240	0.382783	0.891901
	H76	H	0.108744	0.908146	0.608827
	H77	H	0.106500	0.091918	0.372452
	H78	H	0.911944	0.096939	0.607796
	H79	H	0.916469	0.901378	0.372125
	H80	H	0.625598	0.099774	0.905682
	H81	H	0.395260	0.094480	0.073075
	H82	H	0.628615	0.903835	0.079572
	H83	H	0.395439	0.914584	0.904319
	H84	H	0.623603	0.917274	0.078190
	H85	H	0.393626	0.087002	0.087539
	H86	H	0.622923	0.085471	0.901465
	H87	H	0.389729	0.913330	0.886087
	H88	H	0.918961	0.091280	0.603395
	H89	H	0.097246	0.092277	0.375270
	H90	H	0.101305	0.916277	0.604034
	H91	H	0.909287	0.909683	0.371522
	H92	H	0.111129	0.621967	0.898264
	H93	H	0.103587	0.386016	0.080343
	H94	H	0.913164	0.622678	0.090015
	H95	H	0.922586	0.386091	0.891387
	H96	H	0.424834	0.119177	0.589387
	H97	H	0.613402	0.881379	0.585039
	H98	H	0.596398	0.117374	0.398645
	H99	H	0.416877	0.884330	0.390570
	H100	H	0.597654	0.403810	0.107951
	H101	H	0.610441	0.598159	0.870591
	H102	H	0.412219	0.597825	0.108661
	H103	H	0.412246	0.400488	0.870463
	H104	H	0.123695	0.589006	0.400694
	H105	H	0.888532	0.599301	0.587046
	H106	H	0.125158	0.413277	0.580650
	H107	H	0.892725	0.411270	0.397253
	H108	H	0.925539	0.617307	0.086631
	H109	H	0.101479	0.385306	0.083828
	H110	H	0.098237	0.620616	0.888414
	H111	H	0.916030	0.387648	0.902772
	H112	H	0.097004	0.905205	0.606124
	H113	H	0.101300	0.099968	0.372544
	H114	H	0.920826	0.100370	0.605745
	H115	H	0.920045	0.910780	0.375783
	H116	H	0.628705	0.095096	0.891315
	H117	H	0.389053	0.102266	0.086350
	H118	H	0.628622	0.912570	0.091079
	H119	H	0.389453	0.897646	0.897165
	C120	C	0.388645	0.011001	0.611586
	C121	C	0.631995	0.993520	0.613454
	C122	C	0.630435	0.011161	0.369416
	C123	C	0.387531	0.994286	0.367995
	C124	C	0.630301	0.381146	-0.001359
	C125	C	0.631567	0.625211	0.981685
	C126	C	0.388350	0.624147	-0.000864
	C127	C	0.387048	0.380435	0.981765
	C128	C	0.017674	0.622716	0.369388
	C129	C	0.999554	0.624391	0.612364
	C130	C	0.017656	0.381358	0.611264
	C131	C	1.000139	0.380692	0.367668
	C132	C	0.888528	0.511017	0.111381
	C133	C	0.131248	0.494249	0.111858
	C134	C	0.130294	0.510749	0.868381
	C135	C	0.887194	0.493608	0.867754
	C136	C	0.130916	0.880515	0.498352
	C137	C	0.131240	0.124768	0.481155
	C138	C	0.887616	0.123881	0.497887
	C139	C	0.887030	0.879808	0.481284
	C140	C	0.517459	0.122659	0.869838
	C141	C	0.500830	0.124266	0.112214
	C142	C	0.518169	0.881593	0.111479
	C143	C	0.500523	0.880051	0.867916
	C144	C	0.389860	0.887598	0.665866
	C145	C	0.630214	0.116756	0.669668
	C146	C	0.628922	0.888568	0.312890
	C147	C	0.389078	0.116969	0.312793
	C148	C	0.684365	0.383457	0.875573
	C149	C	0.687040	0.623098	0.104630
	C150	C	0.332887	0.620306	0.875792
	C151	C	0.332045	0.384217	0.104786
	C152	C	0.893496	0.677082	0.371784
	C153	C	0.123506	0.679231	0.610078
	C154	C	0.893454	0.326027	0.607880
	C155	C	0.124310	0.325769	0.370425
	C156	C	0.893508	0.382852	0.665706
	C157	C	0.123649	0.621618	0.666887
	C158	C	0.893856	0.620276	0.313893
	C159	C	0.123968	0.381828	0.312266
	C160	C	0.390313	0.677794	0.875859
	C161	C	0.630130	0.681549	0.104398
	C162	C	0.628339	0.324240	0.876122
	C163	C	0.388760	0.325136	0.104344
	C164	C	0.684134	0.887267	0.372172
	C165	C	0.686982	0.117272	0.611394
	C166	C	0.333198	0.887482	0.607435
	C167	C	0.333198	0.117987	0.371545
	C168	C	0.889791	0.387483	0.165357
	C169	C	0.129727	0.616732	0.169145
	C170	C	0.128398	0.387601	0.812604
	C171	C	0.889782	0.617115	0.813679
	C172	C	0.185319	0.883078	0.375265
	C173	C	0.186397	0.122751	0.604398
	C174	C	0.832175	0.119592	0.374813
	C175	C	0.833166	0.883821	0.604715
	C176	C	0.393574	0.177570	0.871704
	C177	C	0.624251	0.181084	0.111859
	C178	C	0.394371	0.826380	0.108842
	C179	C	0.624492	0.825414	0.870974
	C180	C	0.394482	0.883134	0.166596
	C181	C	0.624123	0.123520	0.168968
	C182	C	0.394156	0.121414	0.813086
	C183	C	0.624443	0.882726	0.813632
	C184	C	0.889317	0.178123	0.374975
	C185	C	0.129421	0.181161	0.603856
	C186	C	0.129023	0.823602	0.375916
	C187	C	0.889981	0.826040	0.604363
	C188	C	0.185242	0.387470	0.870763
	C189	C	0.185646	0.618026	0.109876
	C190	C	0.833037	0.387500	0.107294
	C191	C	0.832530	0.617189	0.871112
	C192	C	0.411236	0.097126	0.590525
	C193	C	0.609583	0.907567	0.590866
	C194	C	0.608481	0.097186	0.392410
	C195	C	0.409958	0.908224	0.389698
	C196	C	0.608035	0.404133	0.084484
	C197	C	0.608964	0.602484	0.895943
	C198	C	0.410498	0.602854	0.084904
	C199	C	0.409460	0.401946	0.896033
	C200	C	0.103748	0.600096	0.392248
	C201	C	0.912606	0.602407	0.590555
	C202	C	0.104171	0.403645	0.590068
	C203	C	0.913861	0.402646	0.389293
	C204	C	0.911222	0.597135	0.090345
	C205	C	0.108459	0.408322	0.088479
	C206	C	0.108251	0.597010	0.890573
	C207	C	0.909281	0.407875	0.889141
	C208	C	0.109054	0.903243	0.584078
	C209	C	0.108398	0.101607	0.395688
	C210	C	0.910448	0.102576	0.583645
	C211	C	0.908727	0.901154	0.395328
	C212	C	0.603585	0.099960	0.892838
	C213	C	0.414943	0.101289	0.088957
	C214	C	0.604556	0.904589	0.089480
	C215	C	0.413812	0.902000	0.889529
	Zn216	Zn	0.509545	0.001851	0.740769
	Zn217	Zn	0.509377	0.002724	0.240427
	Zn218	Zn	0.759776	0.502384	-0.009819
	Zn219	Zn	0.258999	0.503189	-0.009956
	Zn220	Zn	0.008646	0.751467	0.490310
	Zn221	Zn	0.009065	0.253700	0.489038
	Zn222	Zn	0.008567	0.502182	0.739551
	Zn223	Zn	0.009131	0.501745	0.240396
	Zn224	Zn	0.509206	0.753449	-0.009861
	Zn225	Zn	0.509489	0.251751	-0.009569
	Zn226	Zn	0.759044	0.001755	0.490270
	Zn227	Zn	0.259837	0.002837	0.489740
	N228	N	0.423482	0.965423	0.668558
	N229	N	0.596718	0.038891	0.671043
	N230	N	0.596223	0.966550	0.311144
	N231	N	0.422146	0.038901	0.310519
	N232	N	0.685699	0.418084	0.952744
	N233	N	0.688275	0.588673	0.027275
	N234	N	0.331392	0.587625	0.953369
	N235	N	0.330775	0.417658	0.027504
	N236	N	0.971396	0.678425	0.405914
	N237	N	0.045333	0.680928	0.576871
	N238	N	0.971634	0.324861	0.574736
	N239	N	0.046527	0.324700	0.404082
	N240	N	0.971607	0.416436	0.667987
	N241	N	0.045308	0.588286	0.668533
	N242	N	0.972098	0.587198	0.312267
	N243	N	0.045874	0.415286	0.310567
	N244	N	0.424140	0.680170	0.953365
	N245	N	0.596357	0.682850	0.026883
	N246	N	0.595535	0.322647	0.953886
	N247	N	0.422385	0.322729	0.026970
	N248	N	0.685170	0.964649	0.406683
	N249	N	0.688359	0.039744	0.577018
	N250	N	0.332391	0.965036	0.574325
	N251	N	0.331965	0.040621	0.405003
	N252	N	0.923464	0.465362	0.168041
	N253	N	0.096361	0.538716	0.170289
	N254	N	0.094932	0.465349	0.811020
	N255	N	0.923076	0.539258	0.811410
	N256	N	0.186699	0.917759	0.452386
	N257	N	0.187723	0.088337	0.527009
	N258	N	0.830988	0.086577	0.452232
	N259	N	0.831305	0.916816	0.527236
	N260	N	0.471457	0.178575	0.906129
	N261	N	0.546588	0.181840	0.077317
	N262	N	0.472192	0.825322	0.075422
	N263	N	0.546535	0.823951	0.904125
	N264	N	0.472692	0.916966	0.168356
	N265	N	0.546469	0.089070	0.169511
	N266	N	0.472111	0.087923	0.811965
	N267	N	0.546191	0.915912	0.811617
	N268	N	0.923012	0.180834	0.452570
	N269	N	0.095832	0.182460	0.526327
	N270	N	0.095779	0.822047	0.453455
	N271	N	0.922779	0.823415	0.526653
	N272	N	0.186612	0.465108	0.904791
	N273	N	0.186635	0.540724	0.075063
	N274	N	0.832000	0.465200	0.074589
	N275	N	0.830609	0.539567	0.903926
	O276	O	0.993007	1.001210	-0.010978
	H277	H	0.990865	0.999850	-0.003277
	H278	H	0.995019	1.011119	-0.026443
	O279	O	0.047787	-0.045816	1.031393
	H280	H	0.046327	-0.044365	1.028269
	H281	H	0.044530	-0.040370	1.031962
	O282	O	0.068082	0.027764	-0.018146
	H283	H	0.054198	0.026328	-0.021271
	H284	H	0.075620	0.024181	-0.012899
	O285	O	0.589644	0.434120	0.507989
	H286	H	0.586023	0.438545	0.502283
	H287	H	0.594587	0.434902	0.510326
	O288	O	-0.039325	0.091115	-0.024151
	H289	H	-0.033070	0.094227	-0.020338
	H290	H	-0.039242	0.090787	-0.029527
	O291	O	0.054382	0.982104	-0.042410
	H292	H	0.048875	0.984132	-0.032903
	H293	H	0.067385	0.976239	-0.041731
	O294	O	0.060839	0.991025	0.017003
	H295	H	0.055043	0.986086	0.018045
	H296	H	0.059370	0.999119	0.008361
	O297	O	0.551279	0.593508	0.475912
	H298	H	0.539642	0.586588	0.469670
	H299	H	0.551339	0.600886	0.463972
	O300	O	0.424686	0.541666	0.470276
	H301	H	0.420141	0.544671	0.477366
	H302	H	0.432384	0.530380	0.474158
	O303	O	1.013114	0.071714	1.013934
	H304	H	1.020577	0.071945	1.000234
	H305	H	1.014553	0.073470	1.019383
	O306	O	-0.012256	1.020349	1.001106
	H307	H	-0.006065	1.020788	0.998265
	H308	H	-0.010828	1.017923	0.987330
	O309	O	-0.396908	0.554194	1.424272
	H310	H	-0.399845	0.553948	1.426679
	H311	H	-0.404589	0.551207	1.408484
	O312	O	-0.031615	0.040703	1.021936
	H313	H	-0.022815	0.040984	1.022560
	H314	H	-0.043785	0.045258	1.010541
	O315	O	0.478607	0.553559	0.500705
	H316	H	0.474467	0.554565	0.504137
	H317	H	0.485868	0.549400	0.507621
	O318	O	-0.076947	-0.032783	0.918143
	H319	H	-0.081851	-0.027541	0.916150
	H320	H	-0.074574	-0.035666	0.907173
	O321	O	0.997186	1.024137	1.005974
	H322	H	0.991858	1.015086	1.014998
	H323	H	0.991315	1.026771	1.002335
	O324	O	0.002258	-0.979914	0.923719
	H325	H	0.000767	-0.984457	0.923739
	H326	H	0.005890	-0.981675	0.933633
	O327	O	0.949872	0.944022	0.941402
	H328	H	0.951356	0.953167	0.943218
	H329	H	0.962436	0.947987	0.938104
	O330	O	0.498996	0.451737	0.520173
	H331	H	0.514209	0.443927	0.520966
	H332	H	0.497048	0.457960	0.518619
	O333	O	0.524581	0.488863	0.453066
	H334	H	0.524169	0.482464	0.444784
	H335	H	0.526389	0.488175	0.446652
	O336	O	0.425105	0.553198	0.455044
	H337	H	0.416111	0.552627	0.446622
	H338	H	0.424206	0.545524	0.460507
	O339	O	0.537794	0.515543	0.501359
	H340	H	0.528319	0.524049	0.508659
	H341	H	0.546875	0.524083	0.492989
	O342	O	0.451731	0.502968	0.514356
	H343	H	0.456746	0.501351	0.513762
	H344	H	0.452483	0.506421	0.514454
	O345	O	0.514714	0.476328	0.488571
	H346	H	0.525458	0.480595	0.498701
	H347	H	0.518063	0.474315	0.488245
