data_Molecule from HDF5

_cell_length_a		16.476622
_cell_length_b		16.095080
_cell_length_c		16.282716
_cell_angle_alpha	89.975218
_cell_angle_beta	90.040895
_cell_angle_gamma	90.140597
_symmetry_space_group_name_H-M	'P 1'
_symmetry_Int_Tables_number		1

loop_
	_symmetry_equiv_pos_as_xyz
	x,y,z

loop_
	_atom_site_label
	_atom_site_type_symbol
	_atom_site_fract_x
	_atom_site_fract_y
	_atom_site_fract_z
	H0	H	0.403135	0.830099	0.713976
	H1	H	0.600177	0.160157	0.714022
	H2	H	0.599699	0.830690	0.285715
	H3	H	0.402318	0.159579	0.286141
	H4	H	0.719305	0.390910	0.839120
	H5	H	0.720834	0.601922	0.161472
	H6	H	0.281402	0.599086	0.838967
	H7	H	0.281064	0.390820	0.162858
	H8	H	0.839887	0.709308	0.402668
	H9	H	0.163275	0.711753	0.599960
	H10	H	0.840297	0.276571	0.601308
	H11	H	0.163240	0.280602	0.400809
	H12	H	0.841446	0.390149	0.720739
	H13	H	0.161938	0.597161	0.719095
	H14	H	0.841021	0.598681	0.282471
	H15	H	0.161315	0.393406	0.280343
	H16	H	0.402593	0.709803	0.836682
	H17	H	0.597970	0.710581	0.164197
	H18	H	0.596175	0.281828	0.836705
	H19	H	0.401747	0.280566	0.164869
	H20	H	0.716938	0.831348	0.398687
	H21	H	0.720057	0.158403	0.604490
	H22	H	0.283040	0.832348	0.603771
	H23	H	0.285220	0.158386	0.396910
	H24	H	0.899059	0.332340	0.216617
	H25	H	0.098405	0.661870	0.213320
	H26	H	0.101448	0.330865	0.785498
	H27	H	0.901445	0.659838	0.784747
	H28	H	0.219581	0.892379	0.337945
	H29	H	0.221095	0.099149	0.661927
	H30	H	0.782902	0.099134	0.338659
	H31	H	0.781495	0.889057	0.661979
	H32	H	0.338250	0.210987	0.900932
	H33	H	0.661842	0.212064	0.100704
	H34	H	0.338633	0.779118	0.099473
	H35	H	0.661969	0.779129	0.900107
	H36	H	0.339796	0.892746	0.219533
	H37	H	0.660724	0.099602	0.219707
	H38	H	0.340928	0.098027	0.780013
	H39	H	0.661090	0.892763	0.782512
	H40	H	0.903740	0.209878	0.336369
	H41	H	0.100648	0.210245	0.664241
	H42	H	0.097592	0.782101	0.335541
	H43	H	0.904468	0.780471	0.664372
	H44	H	0.218392	0.331823	0.897894
	H45	H	0.218718	0.658533	0.104121
	H46	H	0.782861	0.332379	0.103187
	H47	H	0.784026	0.659372	0.897121
	H48	H	0.411070	0.113528	0.594535
	H49	H	0.592140	0.878225	0.589590
	H50	H	0.604351	0.114810	0.413242
	H51	H	0.411916	0.877024	0.406974
	H52	H	0.595041	0.406326	0.117201
	H53	H	0.597089	0.587592	0.883244
	H54	H	0.413596	0.595760	0.117502
	H55	H	0.404571	0.401637	0.883307
	H56	H	0.116236	0.587851	0.407155
	H57	H	0.886845	0.587337	0.595426
	H58	H	0.115247	0.409076	0.597760
	H59	H	0.891808	0.406584	0.416228
	H60	H	0.117804	0.398957	0.593752
	H61	H	0.887299	0.588155	0.593244
	H62	H	0.117457	0.587073	0.405622
	H63	H	0.887603	0.411844	0.402112
	H64	H	0.397338	0.585201	0.119345
	H65	H	0.593319	0.580387	0.886678
	H66	H	0.591843	0.407088	0.114965
	H67	H	0.405344	0.410624	0.887290
	H68	H	0.589777	0.114529	0.400060
	H69	H	0.593751	0.877489	0.590941
	H70	H	0.414587	0.110111	0.587959
	H71	H	0.410297	0.879467	0.413381
	H72	H	0.916880	0.611917	0.093331
	H73	H	0.089081	0.379490	0.089761
	H74	H	0.098130	0.616227	0.904541
	H75	H	0.908517	0.381918	0.919514
	H76	H	0.087047	0.905775	0.613263
	H77	H	0.091286	0.085184	0.386459
	H78	H	0.910378	0.081147	0.614541
	H79	H	0.897505	0.909220	0.383735
	H80	H	0.610737	0.082584	0.913772
	H81	H	0.385820	0.089613	0.091498
	H82	H	0.611247	0.908627	0.087575
	H83	H	0.387877	0.905798	0.910869
	H84	H	0.614715	0.908303	0.099556
	H85	H	0.387217	0.082361	0.093886
	H86	H	0.616307	0.084309	0.899745
	H87	H	0.386513	0.906732	0.904006
	H88	H	0.912292	0.084344	0.614779
	H89	H	0.096052	0.091208	0.383425
	H90	H	0.097400	0.897989	0.618301
	H91	H	0.916150	0.909551	0.388887
	H92	H	0.083509	0.609321	0.908143
	H93	H	0.092581	0.378877	0.089078
	H94	H	0.906787	0.611667	0.082855
	H95	H	0.902653	0.375864	0.907479
	H96	H	0.407112	0.112821	0.587792
	H97	H	0.592516	0.878513	0.591994
	H98	H	0.586645	0.108559	0.418410
	H99	H	0.405272	0.876332	0.409723
	H100	H	0.592596	0.403999	0.116327
	H101	H	0.589269	0.587752	0.885728
	H102	H	0.412863	0.576549	0.112104
	H103	H	0.412696	0.404943	0.887246
	H104	H	0.117249	0.590020	0.406231
	H105	H	0.886993	0.586263	0.593333
	H106	H	0.112113	0.405796	0.587827
	H107	H	0.883856	0.396787	0.406285
	H108	H	0.903523	0.616394	0.097006
	H109	H	0.091064	0.378973	0.092050
	H110	H	0.095315	0.609891	0.920262
	H111	H	0.916643	0.379591	0.907186
	H112	H	0.099030	0.911487	0.614868
	H113	H	0.098260	0.083324	0.385005
	H114	H	0.908415	0.084357	0.615909
	H115	H	0.908637	0.893643	0.381496
	H116	H	0.616462	0.096448	0.909889
	H117	H	0.384534	0.088560	0.098027
	H118	H	0.616125	0.898459	0.092473
	H119	H	0.384787	0.900634	0.906981
	C120	C	0.380533	0.003790	0.620971
	C121	C	0.622822	0.986401	0.621668
	C122	C	0.622317	0.004010	0.380047
	C123	C	0.380256	0.986309	0.379489
	C124	C	0.622649	0.374468	0.008930
	C125	C	0.622698	0.616910	0.992037
	C126	C	0.378480	0.616477	0.008697
	C127	C	0.377917	0.374357	0.992873
	C128	C	0.010338	0.617871	0.377669
	C129	C	0.993668	0.617074	0.622813
	C130	C	0.009360	0.373065	0.623210
	C131	C	0.993461	0.374525	0.378155
	C132	C	0.878822	0.504773	0.121612
	C133	C	0.120925	0.487413	0.121050
	C134	C	0.122230	0.503881	0.880190
	C135	C	0.879802	0.487271	0.880204
	C136	C	0.122881	0.874908	0.507821
	C137	C	0.124846	0.117536	0.491963
	C138	C	0.880427	0.115303	0.508268
	C139	C	0.878735	0.873243	0.492093
	C140	C	0.508448	0.117633	0.877974
	C141	C	0.492175	0.117528	0.123722
	C142	C	0.508301	0.874076	0.123012
	C143	C	0.492072	0.873775	0.877708
	C144	C	0.382039	0.879769	0.677072
	C145	C	0.621367	0.110477	0.677348
	C146	C	0.620389	0.880244	0.323543
	C147	C	0.382145	0.109991	0.323603
	C148	C	0.679687	0.373268	0.887312
	C149	C	0.680593	0.619341	0.113731
	C150	C	0.320992	0.617224	0.887155
	C151	C	0.320731	0.373051	0.114746
	C152	C	0.888427	0.672559	0.381166
	C153	C	0.114871	0.673442	0.620297
	C154	C	0.888623	0.315282	0.621472
	C155	C	0.114723	0.318154	0.379774
	C156	C	0.889092	0.371562	0.681293
	C157	C	0.114204	0.616829	0.679822
	C158	C	0.889242	0.617532	0.321385
	C159	C	0.113649	0.374540	0.319850
	C160	C	0.381477	0.672312	0.885938
	C161	C	0.619779	0.673816	0.114752
	C162	C	0.618576	0.318707	0.886066
	C163	C	0.380717	0.318044	0.115831
	C164	C	0.678494	0.880416	0.379974
	C165	C	0.680824	0.109441	0.622600
	C166	C	0.322544	0.881045	0.622100
	C167	C	0.323840	0.109490	0.378616
	C168	C	0.879672	0.381489	0.178608
	C169	C	0.119514	0.611682	0.176772
	C170	C	0.121010	0.379944	0.823636
	C171	C	0.881311	0.610638	0.822895
	C172	C	0.179982	0.874123	0.385957
	C173	C	0.181630	0.117491	0.613856
	C174	C	0.822642	0.117172	0.386837
	C175	C	0.821385	0.871620	0.613723
	C176	C	0.387111	0.173387	0.879978
	C177	C	0.613279	0.174277	0.121206
	C178	C	0.387005	0.817375	0.120453
	C179	C	0.613531	0.817081	0.879559
	C180	C	0.387752	0.873832	0.180282
	C181	C	0.612901	0.118090	0.180477
	C182	C	0.388243	0.117085	0.819911
	C183	C	0.613279	0.873812	0.821086
	C184	C	0.882803	0.172343	0.385723
	C185	C	0.121694	0.172857	0.614854
	C186	C	0.119500	0.819194	0.384738
	C187	C	0.882650	0.817573	0.615183
	C188	C	0.179373	0.380580	0.879433
	C189	C	0.179236	0.610279	0.122213
	C190	C	0.821816	0.381451	0.122162
	C191	C	0.822892	0.610340	0.878944
	C192	C	0.404194	0.089772	0.597287
	C193	C	0.599659	0.900516	0.597900
	C194	C	0.600087	0.090346	0.403578
	C195	C	0.402617	0.900013	0.403155
	C196	C	0.599943	0.398665	0.094279
	C197	C	0.599877	0.592377	0.907265
	C198	C	0.401108	0.592680	0.094218
	C199	C	0.400939	0.398559	0.907924
	C200	C	0.095015	0.595120	0.399803
	C201	C	0.909015	0.593749	0.600712
	C202	C	0.093109	0.397555	0.600044
	C203	C	0.909527	0.398030	0.401588
	C204	C	0.902122	0.591204	0.097949
	C205	C	0.097774	0.401393	0.097216
	C206	C	0.099020	0.589543	0.903898
	C207	C	0.902629	0.401525	0.904322
	C208	C	0.100876	0.898334	0.593016
	C209	C	0.101864	0.093633	0.406975
	C210	C	0.903651	0.090647	0.593192
	C211	C	0.900856	0.897248	0.406951
	C212	C	0.592832	0.094730	0.901097
	C213	C	0.407569	0.093853	0.101026
	C214	C	0.592252	0.898082	0.099887
	C215	C	0.408280	0.897462	0.900491
	Zn216	Zn	0.501599	-0.004912	0.748590
	Zn217	Zn	0.500957	-0.004249	0.252949
	Zn218	Zn	0.751622	0.495789	0.000615
	Zn219	Zn	0.249478	0.495109	0.001230
	Zn220	Zn	0.001636	0.745955	0.499849
	Zn221	Zn	0.001754	0.244661	0.500235
	Zn222	Zn	0.001159	0.495034	0.752693
	Zn223	Zn	0.000669	0.496720	0.248703
	Zn224	Zn	0.500541	0.745073	0.000022
	Zn225	Zn	0.499535	0.246345	0.001453
	Zn226	Zn	0.750353	-0.004918	0.500831
	Zn227	Zn	0.253204	-0.004616	0.499593
	N228	N	0.417400	0.957262	0.676507
	N229	N	0.586198	0.033064	0.676948
	N230	N	0.586404	0.957999	0.323498
	N231	N	0.416735	0.032365	0.324352
	N232	N	0.682176	0.407127	0.964955
	N233	N	0.682657	0.584722	0.036596
	N234	N	0.318979	0.583364	0.964837
	N235	N	0.318738	0.407264	0.037298
	N236	N	0.964727	0.673108	0.415461
	N237	N	0.038700	0.673661	0.585586
	N238	N	0.964311	0.315988	0.586217
	N239	N	0.039054	0.317688	0.415236
	N240	N	0.965085	0.407096	0.682236
	N241	N	0.037804	0.582606	0.681689
	N242	N	0.965999	0.584184	0.319173
	N243	N	0.037189	0.408652	0.318715
	N244	N	0.416364	0.672031	0.962597
	N245	N	0.584354	0.672417	0.038217
	N246	N	0.583769	0.319321	0.962751
	N247	N	0.415602	0.318742	0.039047
	N248	N	0.679999	0.958604	0.414359
	N249	N	0.681936	0.031153	0.588767
	N250	N	0.321458	0.959174	0.588025
	N251	N	0.322580	0.031424	0.412754
	N252	N	0.914246	0.459403	0.178468
	N253	N	0.083989	0.534390	0.175974
	N254	N	0.086246	0.457648	0.823839
	N255	N	0.915994	0.533070	0.823468
	N256	N	0.182354	0.907881	0.463613
	N257	N	0.184061	0.084063	0.536126
	N258	N	0.821014	0.082606	0.463992
	N259	N	0.818873	0.905515	0.536134
	N260	N	0.462808	0.173739	0.915389
	N261	N	0.537143	0.173906	0.086540
	N262	N	0.462969	0.817258	0.085625
	N263	N	0.537437	0.816919	0.914232
	N264	N	0.464211	0.908293	0.181902
	N265	N	0.536604	0.083374	0.182012
	N266	N	0.464804	0.083183	0.818422
	N267	N	0.537085	0.908390	0.819715
	N268	N	0.918124	0.171366	0.462516
	N269	N	0.087255	0.173112	0.538016
	N270	N	0.084652	0.819603	0.461332
	N271	N	0.917488	0.818256	0.538573
	N272	N	0.180227	0.458492	0.913927
	N273	N	0.180184	0.531983	0.088160
	N274	N	0.821213	0.459437	0.087572
	N275	N	0.821791	0.532481	0.913730
	O276	O	0.102886	-0.042553	0.046576
	H277	H	0.105651	-0.054610	0.038196
	H278	H	0.115008	-0.023702	0.034912
	O279	O	0.546876	0.558154	0.391968
	H280	H	0.542629	0.557520	0.402240
	H281	H	0.560809	0.559432	0.382885
	O282	O	0.906138	0.084992	-0.012054
	H283	H	0.904289	0.097760	-0.009515
	H284	H	0.897440	0.091911	-0.012348
	O285	O	0.190305	1.094972	0.094112
	H286	H	0.198623	1.086637	0.090074
	H287	H	0.187421	1.097378	0.083073
	O288	O	0.412788	0.549651	0.612282
	H289	H	0.401721	0.548670	0.612892
	H290	H	0.415280	0.552513	0.616140
	O291	O	0.662898	0.563300	0.681180
	H292	H	0.656815	0.548798	0.688943
	H293	H	0.646731	0.559759	0.694511
	O294	O	0.955918	1.061066	1.034371
	H295	H	0.973957	1.067020	1.046393
	H296	H	0.962699	1.060699	1.042664
	O297	O	-0.090346	-0.079901	-0.004244
	H298	H	-0.090439	-0.065690	-0.005468
	H299	H	-0.077355	-0.080852	-0.006934
	O300	O	0.464413	0.596605	0.360509
	H301	H	0.460301	0.581971	0.348071
	H302	H	0.458802	0.605203	0.374284
	O303	O	0.139347	0.886038	0.980591
	H304	H	0.150576	0.875762	0.958349
	H305	H	0.127610	0.886663	0.977243
	O306	O	0.577719	0.444495	0.534957
	H307	H	0.580100	0.439171	0.529795
	H308	H	0.595928	0.460251	0.533048
	O309	O	0.906707	0.033537	-0.111263
	H310	H	0.901977	0.034550	-0.092186
	H311	H	0.900397	0.034300	-0.117758
	O312	O	0.020667	-0.180283	0.902953
	H313	H	0.008649	-0.165024	0.901960
	H314	H	0.023071	-0.188746	0.897648
	O315	O	0.582286	0.449180	0.569974
	H316	H	0.580132	0.462150	0.549140
	H317	H	0.578334	0.451063	0.560716
	O318	O	0.372093	0.407558	0.480672
	H319	H	0.369238	0.408352	0.491911
	H320	H	0.378092	0.397101	0.490719
	O321	O	0.472627	0.587401	0.658933
	H322	H	0.463426	0.591191	0.654006
	H323	H	0.474718	0.569545	0.656801
	O324	O	0.416809	0.574930	0.625079
	H325	H	0.412876	0.576780	0.623980
	H326	H	0.417254	0.573329	0.619561
	O327	O	0.074314	1.003416	1.076812
	H328	H	0.087803	0.996039	1.072566
	H329	H	0.074739	1.014892	1.076848
	O330	O	0.521250	0.339300	0.521718
	H331	H	0.535043	0.339949	0.515702
	H332	H	0.523223	0.326481	0.524542
	O333	O	0.049251	1.091597	1.174884
	H334	H	0.064344	1.081569	1.178968
	H335	H	0.036329	1.072603	1.170660
	O336	O	1.009487	0.964571	1.046649
	H337	H	0.998568	0.957275	1.040125
	H338	H	1.025793	0.975959	1.052947
	O339	O	0.625262	0.433952	0.417134
	H340	H	0.626246	0.448324	0.406872
	H341	H	0.627554	0.443825	0.418234
	O342	O	0.985452	0.086170	-0.113619
	H343	H	0.976579	0.090800	-0.109333
	H344	H	0.979078	0.106144	-0.109674
	O345	O	-0.158493	1.080046	-0.081261
	H346	H	-0.165145	1.066449	-0.073047
	H347	H	-0.166265	1.096909	-0.064781
	O348	O	1.100169	1.114729	1.033688
	H349	H	1.095540	1.111814	1.043886
	H350	H	1.101860	1.117692	1.030307
	O351	O	0.944696	1.048318	-0.021306
	H352	H	0.945153	1.043053	-0.027476
	H353	H	0.949009	1.054868	-0.011585
	O354	O	0.547029	0.437286	0.658958
	H355	H	0.552677	0.437305	0.666523
	H356	H	0.547456	0.430817	0.657047
	O357	O	0.345885	0.554102	0.427942
	H358	H	0.355144	0.542197	0.423720
	H359	H	0.349346	0.549960	0.428750
	O360	O	0.130712	-0.117556	-0.079342
	H361	H	0.120781	-0.120726	-0.085291
	H362	H	0.112944	-0.118198	-0.077889
	O363	O	0.600675	0.540844	0.539874
	H364	H	0.590381	0.544883	0.533474
	H365	H	0.604552	0.540903	0.555741
	O366	O	0.557878	0.434930	0.434676
	H367	H	0.558709	0.445065	0.441426
	H368	H	0.558609	0.430961	0.429733
	O369	O	0.544929	0.445257	0.552043
	H370	H	0.539786	0.435444	0.550646
	H371	H	0.562243	0.457740	0.546409
	O372	O	0.470576	0.440313	0.397032
	H373	H	0.468498	0.441521	0.395795
	H374	H	0.464848	0.448059	0.390708
	O375	O	0.453056	0.491853	0.375777
	H376	H	0.453899	0.479289	0.375476
	H377	H	0.446765	0.493013	0.370120
	O378	O	0.368888	0.419429	0.457978
	H379	H	0.367807	0.413092	0.471075
	H380	H	0.361687	0.412727	0.469265
	O381	O	0.454881	0.417211	0.435432
	H382	H	0.460076	0.417934	0.433588
	H383	H	0.445448	0.421155	0.429373
	O384	O	-0.094366	0.997951	0.076180
	H385	H	-0.096698	0.986542	0.076222
	H386	H	-0.097884	0.992923	0.074374
	O387	O	0.965129	-0.046599	0.954761
	H388	H	0.953709	-0.055682	0.970987
	H389	H	0.953706	-0.026485	0.940321
	O390	O	-0.077138	0.859601	0.025420
	H391	H	-0.068802	0.856586	0.018040
	H392	H	-0.086604	0.852102	0.003501
	O393	O	1.109799	0.911186	-0.092532
	H394	H	1.109228	0.915237	-0.099733
	H395	H	1.100559	0.914280	-0.097992
	O396	O	0.532169	0.508022	0.437394
	H397	H	0.533458	0.502057	0.426644
	H398	H	0.527494	0.517606	0.429947
	O399	O	-0.109709	1.027237	1.036205
	H400	H	-0.111355	1.014153	1.047875
	H401	H	-0.108985	1.019980	1.039085
	O402	O	0.867521	1.047638	0.947504
	H403	H	0.861381	1.036359	0.940016
	H404	H	0.882082	1.060216	0.956441
	O405	O	0.642445	0.630178	0.529811
	H406	H	0.635321	0.624595	0.546421
	H407	H	0.654293	0.640249	0.542856
