data_Molecule from HDF5

_cell_length_a		16.275906
_cell_length_b		16.149079
_cell_length_c		16.290755
_cell_angle_alpha	89.986463
_cell_angle_beta	90.010014
_cell_angle_gamma	89.695565
_symmetry_space_group_name_H-M	'P 1'
_symmetry_Int_Tables_number		1

loop_
	_symmetry_equiv_pos_as_xyz
	x,y,z

loop_
	_atom_site_label
	_atom_site_type_symbol
	_atom_site_fract_x
	_atom_site_fract_y
	_atom_site_fract_z
	H0	H	0.405652	0.836684	0.706041
	H1	H	0.602607	0.164876	0.705029
	H2	H	0.604218	0.836083	0.276371
	H3	H	0.404035	0.165205	0.274698
	H4	H	0.721738	0.398147	0.828188
	H5	H	0.719761	0.599749	0.154657
	H6	H	0.288440	0.601381	0.827978
	H7	H	0.289591	0.401443	0.155044
	H8	H	0.841184	0.716870	0.391298
	H9	H	0.169007	0.713254	0.588415
	H10	H	0.840446	0.288541	0.589260
	H11	H	0.169150	0.285353	0.393350
	H12	H	0.842128	0.400330	0.707471
	H13	H	0.167248	0.601369	0.707216
	H14	H	0.841454	0.601837	0.275214
	H15	H	0.169010	0.400482	0.276240
	H16	H	0.407570	0.713521	0.826775
	H17	H	0.601741	0.713553	0.155196
	H18	H	0.602711	0.287219	0.827113
	H19	H	0.407668	0.286683	0.155539
	H20	H	0.720053	0.836338	0.390660
	H21	H	0.716460	0.165803	0.589613
	H22	H	0.293312	0.836103	0.588606
	H23	H	0.289042	0.165700	0.390441
	H24	H	0.907496	0.336217	0.204944
	H25	H	0.103882	0.665318	0.205187
	H26	H	0.105149	0.336154	0.776471
	H27	H	0.904367	0.665683	0.776728
	H28	H	0.221460	0.899567	0.327797
	H29	H	0.220467	0.100442	0.654359
	H30	H	0.788529	0.101260	0.326675
	H31	H	0.789155	0.901727	0.654325
	H32	H	0.342350	0.217539	0.891392
	H33	H	0.669625	0.212067	0.088661
	H34	H	0.340715	0.788243	0.088779
	H35	H	0.669083	0.784993	0.893353
	H36	H	0.341779	0.900897	0.205786
	H37	H	0.667663	0.099933	0.206438
	H38	H	0.341850	0.101609	0.775148
	H39	H	0.669619	0.900538	0.776360
	H40	H	0.907265	0.216014	0.326572
	H41	H	0.103227	0.214441	0.655057
	H42	H	0.102379	0.788069	0.326325
	H43	H	0.907193	0.787138	0.654785
	H44	H	0.219486	0.336003	0.892864
	H45	H	0.217550	0.665451	0.089679
	H46	H	0.792815	0.335586	0.090440
	H47	H	0.788315	0.664543	0.891721
	H48	H	0.408595	0.117629	0.573991
	H49	H	0.602957	0.884848	0.572642
	H50	H	0.604290	0.121438	0.394318
	H51	H	0.412729	0.881700	0.393660
	H52	H	0.599244	0.412919	0.106095
	H53	H	0.607232	0.596701	0.870272
	H54	H	0.408954	0.600173	0.110311
	H55	H	0.425830	0.411373	0.880316
	H56	H	0.121181	0.591117	0.397079
	H57	H	0.889519	0.595089	0.580345
	H58	H	0.124994	0.404142	0.591419
	H59	H	0.886041	0.406852	0.393040
	H60	H	0.120051	0.403214	0.576188
	H61	H	0.888701	0.590641	0.585543
	H62	H	0.122460	0.593768	0.394498
	H63	H	0.889973	0.406195	0.401750
	H64	H	0.406099	0.587876	0.107900
	H65	H	0.598201	0.581034	0.878527
	H66	H	0.594512	0.402854	0.107374
	H67	H	0.408054	0.396895	0.869932
	H68	H	0.587991	0.117829	0.392251
	H69	H	0.605715	0.878369	0.592733
	H70	H	0.406534	0.122567	0.589808
	H71	H	0.417334	0.885486	0.399836
	H72	H	0.912820	0.621728	0.094744
	H73	H	0.102491	0.382303	0.081884
	H74	H	0.098909	0.620346	0.891043
	H75	H	0.914184	0.382986	0.898553
	H76	H	0.089863	0.907290	0.605448
	H77	H	0.102877	0.092286	0.373658
	H78	H	0.914669	0.102431	0.608309
	H79	H	0.906348	0.911393	0.373114
	H80	H	0.618876	0.091876	0.906703
	H81	H	0.391998	0.088189	0.075606
	H82	H	0.621341	0.908213	0.083789
	H83	H	0.388607	0.907549	0.897643
	H84	H	0.622317	0.906962	0.085914
	H85	H	0.386857	0.089626	0.090028
	H86	H	0.620788	0.084840	0.890591
	H87	H	0.388566	0.909216	0.897183
	H88	H	0.900454	0.093573	0.609860
	H89	H	0.094805	0.088362	0.376965
	H90	H	0.103476	0.900061	0.610927
	H91	H	0.915622	0.911569	0.376781
	H92	H	0.089177	0.616697	0.898735
	H93	H	0.096936	0.381247	0.087810
	H94	H	0.919931	0.614421	0.077150
	H95	H	0.912912	0.383037	0.898071
	H96	H	0.420849	0.116413	0.584944
	H97	H	0.586410	0.884078	0.586875
	H98	H	0.594950	0.115125	0.406950
	H99	H	0.408631	0.883850	0.400612
	H100	H	0.605782	0.404466	0.110252
	H101	H	0.588124	0.597635	0.875417
	H102	H	0.417303	0.591849	0.105311
	H103	H	0.402385	0.420524	0.875911
	H104	H	0.122037	0.595351	0.398092
	H105	H	0.885642	0.596760	0.586235
	H106	H	0.118462	0.418068	0.583665
	H107	H	0.890600	0.414749	0.396830
	H108	H	0.900430	0.619995	0.078973
	H109	H	0.095174	0.384757	0.080341
	H110	H	0.101679	0.618345	0.903976
	H111	H	0.914050	0.382772	0.898263
	H112	H	0.104351	0.915809	0.605900
	H113	H	0.094896	0.097712	0.373942
	H114	H	0.913987	0.086259	0.603244
	H115	H	0.912093	0.904146	0.373019
	H116	H	0.626017	0.100875	0.893760
	H117	H	0.386787	0.102256	0.080953
	H118	H	0.622014	0.905827	0.084114
	H119	H	0.388062	0.908028	0.895845
	C120	C	0.383928	0.009830	0.611801
	C121	C	0.625899	0.991780	0.612033
	C122	C	0.625250	0.009292	0.368947
	C123	C	0.383207	0.992521	0.368684
	C124	C	0.627751	0.378123	-0.000392
	C125	C	0.626468	0.621082	0.983139
	C126	C	0.382476	0.622406	-0.000446
	C127	C	0.383205	0.379562	0.983114
	C128	C	0.013255	0.622550	0.368306
	C129	C	0.996108	0.622626	0.612491
	C130	C	0.013353	0.379375	0.612678
	C131	C	0.997018	0.379233	0.368919
	C132	C	0.883793	0.509443	0.112104
	C133	C	0.125896	0.491771	0.112133
	C134	C	0.126475	0.509422	0.869278
	C135	C	0.883520	0.491550	0.869280
	C136	C	0.127469	0.878825	0.499178
	C137	C	0.126237	0.121821	0.483086
	C138	C	0.881793	0.123075	0.499019
	C139	C	0.882868	0.879911	0.482166
	C140	C	0.514123	0.122791	0.868054
	C141	C	0.496768	0.121561	0.111567
	C142	C	0.513571	0.878568	0.112817
	C143	C	0.496699	0.878768	0.868491
	C144	C	0.385859	0.885954	0.667785
	C145	C	0.622888	0.115940	0.666926
	C146	C	0.624118	0.885293	0.313969
	C147	C	0.384099	0.116053	0.312583
	C148	C	0.683288	0.379178	0.876831
	C149	C	0.681727	0.619481	0.105707
	C150	C	0.326959	0.620635	0.876730
	C151	C	0.327746	0.380943	0.106147
	C152	C	0.890151	0.678526	0.371045
	C153	C	0.119726	0.676544	0.609385
	C154	C	0.889771	0.325063	0.610154
	C155	C	0.120148	0.323442	0.372416
	C156	C	0.890654	0.380876	0.668767
	C157	C	0.118960	0.620603	0.668166
	C158	C	0.890373	0.621595	0.312972
	C159	C	0.120019	0.380752	0.314247
	C160	C	0.385826	0.676986	0.876166
	C161	C	0.622789	0.675894	0.106274
	C162	C	0.624107	0.323796	0.876209
	C163	C	0.386595	0.323965	0.106346
	C164	C	0.681652	0.885469	0.370896
	C165	C	0.679471	0.116264	0.609597
	C166	C	0.330160	0.885360	0.609185
	C167	C	0.326936	0.116305	0.370032
	C168	C	0.886921	0.385403	0.167457
	C169	C	0.123782	0.615970	0.167511
	C170	C	0.124847	0.385343	0.814455
	C171	C	0.884532	0.616069	0.814419
	C172	C	0.182809	0.880402	0.376337
	C173	C	0.181730	0.119755	0.605935
	C174	C	0.826696	0.121419	0.375589
	C175	C	0.827292	0.881679	0.605393
	C176	C	0.391054	0.179239	0.870754
	C177	C	0.620335	0.175168	0.109322
	C178	C	0.389919	0.824993	0.109454
	C179	C	0.620338	0.823013	0.872168
	C180	C	0.390512	0.880725	0.168009
	C181	C	0.619348	0.119342	0.167652
	C182	C	0.390790	0.121754	0.812948
	C183	C	0.620376	0.880135	0.813962
	C184	C	0.885657	0.178356	0.375470
	C185	C	0.123731	0.176984	0.606223
	C186	C	0.123805	0.824452	0.375789
	C187	C	0.886362	0.825199	0.605943
	C188	C	0.181837	0.385319	0.872152
	C189	C	0.180158	0.616199	0.109990
	C190	C	0.830298	0.384921	0.109916
	C191	C	0.826991	0.615556	0.871854
	C192	C	0.405543	0.096399	0.589462
	C193	C	0.604612	0.904806	0.590402
	C194	C	0.602376	0.095891	0.391193
	C195	C	0.406345	0.906051	0.391277
	C196	C	0.606182	0.400238	0.085633
	C197	C	0.604414	0.598376	0.896898
	C198	C	0.404343	0.599994	0.085714
	C199	C	0.405379	0.402883	0.897692
	C200	C	0.099571	0.599953	0.390130
	C201	C	0.910075	0.600702	0.590669
	C202	C	0.099029	0.401714	0.590285
	C203	C	0.911009	0.402451	0.390735
	C204	C	0.904837	0.596207	0.090103
	C205	C	0.104517	0.405268	0.089938
	C206	C	0.103445	0.596067	0.891402
	C207	C	0.906756	0.405302	0.891674
	C208	C	0.105527	0.901058	0.585325
	C209	C	0.104089	0.099386	0.397168
	C210	C	0.903436	0.100550	0.584812
	C211	C	0.904787	0.902412	0.396447
	C212	C	0.599758	0.099363	0.890441
	C213	C	0.410876	0.099754	0.088841
	C214	C	0.599564	0.900400	0.090983
	C215	C	0.410836	0.901580	0.890251
	Zn216	Zn	0.505307	0.000481	0.739589
	Zn217	Zn	0.504439	0.000733	0.240433
	Zn218	Zn	0.755879	0.499575	-0.008894
	Zn219	Zn	0.253668	0.501196	-0.008413
	Zn220	Zn	0.005019	0.750842	0.490656
	Zn221	Zn	0.005093	0.250959	0.491656
	Zn222	Zn	0.004911	0.500726	0.740784
	Zn223	Zn	0.004875	0.500827	0.239762
	Zn224	Zn	0.504750	0.750563	-0.008975
	Zn225	Zn	0.505895	0.250332	-0.008787
	Zn226	Zn	0.752749	0.000948	0.490365
	Zn227	Zn	0.255852	0.001016	0.490661
	N228	N	0.418590	0.964297	0.669523
	N229	N	0.590305	0.037466	0.668404
	N230	N	0.589798	0.963246	0.312780
	N231	N	0.418047	0.037885	0.311320
	N232	N	0.685830	0.412091	0.954682
	N233	N	0.684023	0.585971	0.028012
	N234	N	0.324658	0.587641	0.954608
	N235	N	0.325609	0.414803	0.028640
	N236	N	0.967651	0.679225	0.404780
	N237	N	0.042305	0.677953	0.575386
	N238	N	0.967069	0.324019	0.575937
	N239	N	0.042541	0.322693	0.406034
	N240	N	0.968398	0.413995	0.670520
	N241	N	0.041214	0.587665	0.669979
	N242	N	0.968016	0.587423	0.311207
	N243	N	0.042359	0.414746	0.312071
	N244	N	0.419797	0.677996	0.953469
	N245	N	0.589190	0.676965	0.028777
	N246	N	0.590231	0.323117	0.953474
	N247	N	0.420320	0.322709	0.028847
	N248	N	0.682341	0.963634	0.404499
	N249	N	0.681560	0.038038	0.576167
	N250	N	0.328836	0.963305	0.574935
	N251	N	0.326312	0.038383	0.404259
	N252	N	0.919487	0.463753	0.168818
	N253	N	0.090766	0.537591	0.168991
	N254	N	0.091105	0.463608	0.812513
	N255	N	0.919052	0.538119	0.812716
	N256	N	0.185398	0.913303	0.454228
	N257	N	0.183423	0.086362	0.528243
	N258	N	0.824128	0.087810	0.453246
	N259	N	0.825164	0.915080	0.527694
	N260	N	0.468636	0.180051	0.904137
	N261	N	0.543166	0.176674	0.074890
	N262	N	0.467565	0.823370	0.075681
	N263	N	0.542609	0.821998	0.905478
	N264	N	0.468154	0.913461	0.170047
	N265	N	0.541378	0.086740	0.169322
	N266	N	0.468390	0.087310	0.811186
	N267	N	0.542645	0.914014	0.811495
	N268	N	0.919084	0.179605	0.453144
	N269	N	0.089739	0.178231	0.528864
	N270	N	0.089992	0.823369	0.453182
	N271	N	0.920081	0.823708	0.528391
	N272	N	0.182811	0.463565	0.905462
	N273	N	0.181729	0.538135	0.076400
	N274	N	0.828157	0.463073	0.076302
	N275	N	0.826217	0.537212	0.905155
	O276	O	0.989439	0.991979	0.014710
	H277	H	0.986836	0.979604	0.010577
	H278	H	0.991984	0.993402	0.016072
	O279	O	-0.022844	-0.033749	1.065874
	H280	H	-0.031090	-0.035658	1.063874
	H281	H	-0.022084	-0.038699	1.058064
	O282	O	0.063130	0.068383	-0.057546
	H283	H	0.073690	0.071429	-0.054522
	H284	H	0.059309	0.078893	-0.041227
	O285	O	0.519709	0.490610	0.456107
	H286	H	0.520835	0.490910	0.458858
	H287	H	0.524701	0.491380	0.454220
	O288	O	0.004114	0.001700	0.053341
	H289	H	-0.003386	-0.003880	0.059489
	H290	H	0.001887	0.008851	0.053512
	O291	O	-0.036548	0.971897	0.008387
	H292	H	-0.039324	0.967699	0.007525
	H293	H	-0.037988	0.971793	-0.000563
	O294	O	-0.045890	1.010989	-0.023589
	H295	H	-0.042078	1.010297	-0.023599
	H296	H	-0.046985	1.010470	-0.033753
	O297	O	0.600582	0.501558	0.530677
	H298	H	0.597652	0.507678	0.535160
	H299	H	0.610333	0.501662	0.533934
	O300	O	0.495971	0.468317	0.443998
	H301	H	0.498363	0.459362	0.452544
	H302	H	0.496817	0.466745	0.433221
	O303	O	1.051523	0.001085	1.024370
	H304	H	1.053056	0.005660	1.016061
	H305	H	1.045256	0.002717	1.018532
	O306	O	0.033906	0.947304	1.012221
	H307	H	0.039744	0.948111	1.009560
	H308	H	0.033950	0.944854	1.010421
	O309	O	-0.016515	0.990101	0.972134
	H310	H	-0.009322	0.982773	0.979087
	H311	H	-0.019924	0.987462	0.968625
	O312	O	0.065192	0.023794	1.071039
	H313	H	0.061332	0.025603	1.084123
	H314	H	0.062575	0.023655	1.077631
	O315	O	0.522366	0.496494	0.542340
	H316	H	0.521976	0.494999	0.551022
	H317	H	0.528610	0.497868	0.544084
	O318	O	0.031056	0.081396	0.998933
	H319	H	0.025388	0.090214	1.001934
	H320	H	0.028064	0.084720	1.010757
	O321	O	0.550530	0.470662	0.484907
	H322	H	0.547942	0.476287	0.482555
	H323	H	0.556150	0.465458	0.488161
	O324	O	0.504353	-0.489258	1.472674
	H325	H	0.493464	-0.481846	1.472075
	H326	H	0.503210	-0.492076	1.471455
	O327	O	1.027718	0.978440	0.941983
	H328	H	1.035895	0.982485	0.943250
	H329	H	1.034347	0.982084	0.934061
	O330	O	0.537490	0.529868	0.561341
	H331	H	0.525128	0.528149	0.561874
	H332	H	0.535223	0.542296	0.567678
	O333	O	0.448391	0.542745	0.520100
	H334	H	0.446387	0.540728	0.517529
	H335	H	0.448525	0.540529	0.523501
	O336	O	0.464634	0.481258	0.525338
	H337	H	0.462302	0.482521	0.521339
	H338	H	0.470936	0.470895	0.518990
	O339	O	0.474189	0.568876	0.438537
	H340	H	0.472599	0.567940	0.437977
	H341	H	0.476082	0.568988	0.447536
	O342	O	0.515607	0.471186	0.488980
	H343	H	0.513582	0.468374	0.480989
	H344	H	0.516116	0.467973	0.479314
	O345	O	0.508710	0.494711	0.452871
	H346	H	0.512683	0.504558	0.446689
	H347	H	0.505798	0.489302	0.452030
