data_Molecule from HDF5

_cell_length_a		16.370524
_cell_length_b		16.342428
_cell_length_c		16.098702
_cell_angle_alpha	90.184052
_cell_angle_beta	89.733697
_cell_angle_gamma	89.902826
_symmetry_space_group_name_H-M	'P 1'
_symmetry_Int_Tables_number		1

loop_
	_symmetry_equiv_pos_as_xyz
	x,y,z

loop_
	_atom_site_label
	_atom_site_type_symbol
	_atom_site_fract_x
	_atom_site_fract_y
	_atom_site_fract_z
	H0	H	0.403543	0.836284	0.713832
	H1	H	0.595589	0.164462	0.714517
	H2	H	0.596383	0.836156	0.288031
	H3	H	0.404800	0.164729	0.289135
	H4	H	0.717300	0.398719	0.837821
	H5	H	0.712775	0.598717	0.167294
	H6	H	0.286858	0.598450	0.836322
	H7	H	0.285626	0.402098	0.166618
	H8	H	0.837982	0.719476	0.400911
	H9	H	0.162094	0.718669	0.601102
	H10	H	0.837633	0.285799	0.603662
	H11	H	0.161376	0.283199	0.398804
	H12	H	0.836789	0.405945	0.716311
	H13	H	0.163983	0.598405	0.713517
	H14	H	0.835902	0.598789	0.289379
	H15	H	0.163787	0.404868	0.288412
	H16	H	0.403035	0.713522	0.835613
	H17	H	0.598274	0.714781	0.166019
	H18	H	0.600597	0.285800	0.836388
	H19	H	0.401713	0.288462	0.167347
	H20	H	0.717620	0.838881	0.398395
	H21	H	0.714569	0.163218	0.600941
	H22	H	0.282254	0.838823	0.601582
	H23	H	0.284573	0.163756	0.401166
	H24	H	0.904346	0.336921	0.215575
	H25	H	0.095628	0.665820	0.214515
	H26	H	0.098410	0.337878	0.785544
	H27	H	0.904082	0.665021	0.790645
	H28	H	0.216107	0.900972	0.336526
	H29	H	0.214595	0.103020	0.666061
	H30	H	0.786721	0.099284	0.335519
	H31	H	0.784044	0.902216	0.665692
	H32	H	0.338257	0.217870	0.901097
	H33	H	0.662615	0.217249	0.102003
	H34	H	0.338201	0.784487	0.101874
	H35	H	0.662724	0.782274	0.897856
	H36	H	0.336603	0.905333	0.214213
	H37	H	0.664548	0.096055	0.213134
	H38	H	0.336121	0.097400	0.789523
	H39	H	0.664598	0.903585	0.787023
	H40	H	0.902022	0.214520	0.336638
	H41	H	0.096146	0.214972	0.666810
	H42	H	0.099847	0.786742	0.336125
	H43	H	0.898938	0.787466	0.665656
	H44	H	0.217358	0.338050	0.898869
	H45	H	0.217049	0.662878	0.103325
	H46	H	0.783936	0.337455	0.103740
	H47	H	0.782936	0.661766	0.901540
	H48	H	0.398987	0.117447	0.590789
	H49	H	0.597527	0.882323	0.595458
	H50	H	0.610252	0.119706	0.413783
	H51	H	0.411840	0.885564	0.408683
	H52	H	0.594389	0.407258	0.120303
	H53	H	0.590594	0.589000	0.884865
	H54	H	0.410190	0.594231	0.118875
	H55	H	0.407453	0.400432	0.881313
	H56	H	0.122291	0.605243	0.395836
	H57	H	0.885374	0.594218	0.595902
	H58	H	0.117450	0.399262	0.593123
	H59	H	0.880200	0.407217	0.397728
	H60	H	0.112310	0.410716	0.583284
	H61	H	0.883422	0.597384	0.597674
	H62	H	0.112455	0.602226	0.424603
	H63	H	0.883530	0.397945	0.416697
	H64	H	0.406742	0.593893	0.119209
	H65	H	0.592737	0.594052	0.882645
	H66	H	0.591799	0.410103	0.118678
	H67	H	0.402773	0.413462	0.883029
	H68	H	0.590891	0.121323	0.391658
	H69	H	0.589076	0.884854	0.594721
	H70	H	0.406560	0.118733	0.602486
	H71	H	0.403895	0.885685	0.413693
	H72	H	0.909251	0.615672	0.096436
	H73	H	0.106812	0.383113	0.087537
	H74	H	0.103900	0.620879	0.903416
	H75	H	0.914981	0.383550	0.900009
	H76	H	0.094369	0.920858	0.616529
	H77	H	0.102052	0.089007	0.382511
	H78	H	0.909098	0.094113	0.618341
	H79	H	0.910665	0.907423	0.382826
	H80	H	0.616091	0.092247	0.907871
	H81	H	0.387139	0.092901	0.088454
	H82	H	0.616293	0.903367	0.090889
	H83	H	0.382967	0.900964	0.906797
	H84	H	0.615623	0.908767	0.092758
	H85	H	0.383699	0.091547	0.100047
	H86	H	0.616105	0.095714	0.907115
	H87	H	0.386994	0.905642	0.916018
	H88	H	0.903569	0.096417	0.620811
	H89	H	0.085180	0.086148	0.388045
	H90	H	0.080379	0.908122	0.616212
	H91	H	0.905887	0.908788	0.381969
	H92	H	0.085256	0.615589	0.904475
	H93	H	0.092199	0.381107	0.107813
	H94	H	0.903524	0.615213	0.089469
	H95	H	0.913461	0.389901	0.919789
	H96	H	0.412211	0.113621	0.590492
	H97	H	0.594573	0.885520	0.587737
	H98	H	0.582905	0.111020	0.417676
	H99	H	0.403113	0.882652	0.405166
	H100	H	0.590476	0.406245	0.119131
	H101	H	0.596032	0.590136	0.883244
	H102	H	0.408182	0.591039	0.117741
	H103	H	0.416011	0.410255	0.886581
	H104	H	0.110833	0.578796	0.405787
	H105	H	0.883861	0.597600	0.593553
	H106	H	0.116451	0.414223	0.598557
	H107	H	0.888957	0.418560	0.414206
	H108	H	0.901461	0.618814	0.097297
	H109	H	0.083746	0.390528	0.086281
	H110	H	0.096524	0.613783	0.920308
	H111	H	0.897023	0.381163	0.910282
	H112	H	0.097740	0.902873	0.622960
	H113	H	0.090139	0.102357	0.381268
	H114	H	0.903885	0.089727	0.618323
	H115	H	0.908737	0.911814	0.383860
	H116	H	0.615697	0.094626	0.910661
	H117	H	0.382061	0.102682	0.094841
	H118	H	0.617726	0.905088	0.095530
	H119	H	0.386163	0.911502	0.906663
	C120	C	0.377125	0.009211	0.623619
	C121	C	0.621041	0.992270	0.621638
	C122	C	0.622527	0.008974	0.378921
	C123	C	0.378511	0.992704	0.380180
	C124	C	0.621757	0.378699	0.010662
	C125	C	0.621564	0.620588	0.992881
	C126	C	0.379508	0.621770	0.009662
	C127	C	0.379414	0.379594	0.993012
	C128	C	0.007908	0.624158	0.379646
	C129	C	0.991858	0.624776	0.623922
	C130	C	0.008191	0.379985	0.622381
	C131	C	0.991480	0.379107	0.379589
	C132	C	0.877576	0.508427	0.123516
	C133	C	0.122146	0.492853	0.122923
	C134	C	0.123129	0.508980	0.879472
	C135	C	0.879239	0.492337	0.880909
	C136	C	0.120519	0.880926	0.509521
	C137	C	0.120694	0.122232	0.492866
	C138	C	0.877617	0.122178	0.509925
	C139	C	0.878864	0.880849	0.492152
	C140	C	0.508194	0.122557	0.879905
	C141	C	0.492243	0.122845	0.122954
	C142	C	0.509054	0.877961	0.122697
	C143	C	0.492804	0.877607	0.879524
	C144	C	0.381234	0.885579	0.677380
	C145	C	0.617038	0.115376	0.677030
	C146	C	0.618366	0.885510	0.324533
	C147	C	0.382670	0.115763	0.325787
	C148	C	0.678387	0.379476	0.886603
	C149	C	0.675611	0.618693	0.117535
	C150	C	0.324496	0.619189	0.885557
	C151	C	0.323748	0.382025	0.117333
	C152	C	0.886030	0.680168	0.381539
	C153	C	0.113749	0.680397	0.621274
	C154	C	0.885869	0.324493	0.622700
	C155	C	0.113275	0.322437	0.380043
	C156	C	0.885447	0.384411	0.678427
	C157	C	0.114883	0.620470	0.677081
	C158	C	0.885016	0.620380	0.325806
	C159	C	0.114538	0.383065	0.325136
	C160	C	0.382302	0.676156	0.885206
	C161	C	0.618653	0.676192	0.117101
	C162	C	0.620563	0.323364	0.886027
	C163	C	0.381325	0.325498	0.117572
	C164	C	0.678826	0.886904	0.379204
	C165	C	0.676187	0.114750	0.620527
	C166	C	0.321152	0.886815	0.621664
	C167	C	0.322944	0.115157	0.381527
	C168	C	0.882353	0.385510	0.178275
	C169	C	0.117457	0.616468	0.177384
	C170	C	0.119609	0.386435	0.823473
	C171	C	0.882556	0.615656	0.827225
	C172	C	0.177220	0.881814	0.385556
	C173	C	0.176088	0.121740	0.616932
	C174	C	0.824019	0.119508	0.385295
	C175	C	0.822210	0.882447	0.616250
	C176	C	0.386387	0.178906	0.881553
	C177	C	0.614663	0.177944	0.120960
	C178	C	0.386479	0.823167	0.121133
	C179	C	0.614725	0.821560	0.879325
	C180	C	0.385885	0.882473	0.177544
	C181	C	0.615515	0.117993	0.176470
	C182	C	0.385496	0.119091	0.825771
	C183	C	0.615423	0.881550	0.823780
	C184	C	0.881127	0.176907	0.385763
	C185	C	0.117513	0.177591	0.617264
	C186	C	0.119684	0.824909	0.385338
	C187	C	0.879400	0.825494	0.616496
	C188	C	0.178705	0.386596	0.879834
	C189	C	0.177807	0.615046	0.122285
	C190	C	0.822387	0.385974	0.122847
	C191	C	0.822294	0.613929	0.882237
	C192	C	0.399356	0.094305	0.601248
	C193	C	0.599863	0.906462	0.599342
	C194	C	0.600851	0.095038	0.401169
	C195	C	0.399974	0.906855	0.402545
	C196	C	0.598898	0.401257	0.097031
	C197	C	0.599689	0.597713	0.905937
	C198	C	0.401882	0.599585	0.096429
	C199	C	0.401977	0.401618	0.906152
	C200	C	0.093281	0.602035	0.402077
	C201	C	0.906249	0.602989	0.602204
	C202	C	0.093416	0.401539	0.598534
	C203	C	0.906195	0.401340	0.402631
	C204	C	0.898662	0.594352	0.101060
	C205	C	0.100615	0.407113	0.100546
	C206	C	0.101523	0.594655	0.902697
	C207	C	0.901725	0.406838	0.903451
	C208	C	0.097284	0.904008	0.596139
	C209	C	0.098811	0.099331	0.406227
	C210	C	0.899380	0.100010	0.596906
	C211	C	0.901755	0.902831	0.405567
	C212	C	0.593910	0.100558	0.902133
	C213	C	0.406602	0.101806	0.101091
	C214	C	0.594425	0.899350	0.099968
	C215	C	0.407506	0.899679	0.903059
	Zn216	Zn	0.500019	-0.000003	0.751378
	Zn217	Zn	0.500601	0.000406	0.251281
	Zn218	Zn	0.749015	0.499239	0.001970
	Zn219	Zn	0.251479	0.500326	0.001549
	Zn220	Zn	-0.000433	0.753128	0.501078
	Zn221	Zn	-0.000789	0.250139	0.501434
	Zn222	Zn	0.000721	0.501513	0.751694
	Zn223	Zn	-0.000369	0.501376	0.251165
	Zn224	Zn	0.501294	0.748799	0.000754
	Zn225	Zn	0.500415	0.251994	0.001302
	Zn226	Zn	0.750466	0.000533	0.500436
	Zn227	Zn	0.248951	0.001469	0.501385
	N228	N	0.414960	0.962480	0.678966
	N229	N	0.583349	0.038222	0.677768
	N230	N	0.584306	0.962727	0.324027
	N231	N	0.416373	0.038683	0.324836
	N232	N	0.679197	0.413244	0.964959
	N233	N	0.677436	0.584805	0.039054
	N234	N	0.322661	0.586090	0.964065
	N235	N	0.322379	0.414919	0.038758
	N236	N	0.963395	0.682452	0.414232
	N237	N	0.036002	0.683201	0.588884
	N238	N	0.963158	0.321498	0.588567
	N239	N	0.035733	0.319830	0.413223
	N240	N	0.962343	0.418083	0.678358
	N241	N	0.038140	0.586771	0.678889
	N242	N	0.961747	0.585853	0.324751
	N243	N	0.037784	0.417373	0.324491
	N244	N	0.415764	0.677626	0.963447
	N245	N	0.586079	0.677601	0.038616
	N246	N	0.585939	0.322740	0.964075
	N247	N	0.415380	0.323931	0.039273
	N248	N	0.681223	0.964526	0.412316
	N249	N	0.678633	0.037286	0.586881
	N250	N	0.318529	0.964579	0.589069
	N251	N	0.320275	0.037508	0.414716
	N252	N	0.915679	0.462652	0.178896
	N253	N	0.083440	0.539457	0.177819
	N254	N	0.085945	0.463572	0.823177
	N255	N	0.917220	0.538898	0.826100
	N256	N	0.177935	0.915825	0.463894
	N257	N	0.178320	0.088075	0.538601
	N258	N	0.821509	0.086640	0.463860
	N259	N	0.821676	0.916021	0.537909
	N260	N	0.463854	0.181140	0.914410
	N261	N	0.536958	0.181272	0.088397
	N262	N	0.464193	0.820132	0.087908
	N263	N	0.537417	0.819116	0.913272
	N264	N	0.462822	0.915928	0.178421
	N265	N	0.538576	0.084583	0.177897
	N266	N	0.462348	0.084751	0.824776
	N267	N	0.538585	0.915861	0.824051
	N268	N	0.913809	0.178755	0.464309
	N269	N	0.083505	0.177932	0.539145
	N270	N	0.085150	0.824195	0.463528
	N271	N	0.914069	0.824380	0.538558
	N272	N	0.181243	0.463932	0.913848
	N273	N	0.180853	0.537296	0.089189
	N274	N	0.819355	0.463477	0.089612
	N275	N	0.820315	0.536305	0.914916
	O276	O	1.024652	0.958088	-0.064330
	H277	H	1.022888	0.949583	-0.074156
	H278	H	1.031408	0.961328	-0.062517
	O279	O	-0.005559	-0.033545	0.000367
	H280	H	-0.004066	-0.034998	0.000558
	H281	H	-0.002109	-0.021204	-0.005124
	O282	O	0.035681	-0.058928	0.955145
	H283	H	0.031735	-0.068458	0.957969
	H284	H	0.044834	-0.054571	0.942723
	O285	O	0.513660	0.511947	0.472180
	H286	H	0.508681	0.513579	0.469055
	H287	H	0.503389	0.511135	0.468625
	O288	O	0.508082	0.441773	0.492526
	H289	H	0.510093	0.446992	0.491658
	H290	H	0.503779	0.442876	0.496913
	O291	O	0.497176	0.492387	0.452667
	H292	H	0.497856	0.492245	0.438190
	H293	H	0.501246	0.492737	0.455438
	O294	O	0.025548	-0.025804	-0.004375
	H295	H	0.016854	-0.028542	-0.001595
	H296	H	0.028205	-0.024906	-0.009485
	O297	O	0.498791	0.485037	0.525716
	H298	H	0.499826	0.480127	0.528156
	H299	H	0.494934	0.491405	0.516902
	O300	O	0.062394	0.994259	0.958930
	H301	H	0.059229	0.996199	0.959737
	H302	H	0.062420	1.003005	0.966346
	O303	O	0.419555	0.485089	0.469040
	H304	H	0.418313	0.487403	0.475821
	H305	H	0.421321	0.478946	0.473802
	O306	O	0.008304	-0.058588	1.002835
	H307	H	0.003957	-0.059880	0.999606
	H308	H	0.013385	-0.061333	1.006506
	O309	O	1.072353	0.948637	0.954870
	H310	H	1.071790	0.944066	0.951878
	H311	H	1.083036	0.951616	0.955527
	O312	O	0.465860	0.494444	0.532072
	H313	H	0.463015	0.492422	0.526757
	H314	H	0.461418	0.496670	0.522622
	O315	O	0.434725	0.499293	0.540582
	H316	H	0.442208	0.489853	0.538011
	H317	H	0.439476	0.497189	0.539412
	O318	O	0.020485	0.943773	0.013455
	H319	H	0.022520	0.939319	0.002894
	H320	H	0.019685	0.943844	0.014498
	O321	O	1.059572	0.940886	-0.049176
	H322	H	1.054113	0.938009	-0.046296
	H323	H	1.065184	0.929524	-0.047222
