data_Molecule from HDF5

_cell_length_a		16.319598
_cell_length_b		16.336003
_cell_length_c		16.103257
_cell_angle_alpha	90.486903
_cell_angle_beta	90.070775
_cell_angle_gamma	89.812399
_symmetry_space_group_name_H-M	'P 1'
_symmetry_Int_Tables_number		1

loop_
	_symmetry_equiv_pos_as_xyz
	x,y,z

loop_
	_atom_site_label
	_atom_site_type_symbol
	_atom_site_fract_x
	_atom_site_fract_y
	_atom_site_fract_z
	H0	H	0.404539	0.838822	0.716228
	H1	H	0.598828	0.165960	0.719265
	H2	H	0.599790	0.841028	0.287243
	H3	H	0.402871	0.167360	0.293456
	H4	H	0.715199	0.403707	0.837775
	H5	H	0.717367	0.607055	0.167324
	H6	H	0.287069	0.603584	0.838636
	H7	H	0.286949	0.407665	0.167390
	H8	H	0.840193	0.718888	0.400048
	H9	H	0.164288	0.718974	0.603434
	H10	H	0.838464	0.287431	0.601489
	H11	H	0.163244	0.282198	0.398580
	H12	H	0.838915	0.405299	0.716918
	H13	H	0.166056	0.599349	0.715918
	H14	H	0.837322	0.597585	0.289810
	H15	H	0.165475	0.402951	0.287618
	H16	H	0.402619	0.717386	0.838575
	H17	H	0.601534	0.719944	0.168368
	H18	H	0.602156	0.286109	0.839837
	H19	H	0.399825	0.292040	0.168343
	H20	H	0.716808	0.840193	0.402832
	H21	H	0.719889	0.163792	0.609356
	H22	H	0.285880	0.839423	0.602772
	H23	H	0.281736	0.163610	0.401828
	H24	H	0.903677	0.339200	0.212539
	H25	H	0.097522	0.666096	0.218637
	H26	H	0.101482	0.340580	0.788010
	H27	H	0.904073	0.667756	0.788661
	H28	H	0.218165	0.897169	0.338600
	H29	H	0.215297	0.100928	0.666917
	H30	H	0.786270	0.098690	0.339539
	H31	H	0.787765	0.901111	0.668292
	H32	H	0.338260	0.220803	0.903395
	H33	H	0.663614	0.223164	0.107155
	H34	H	0.339758	0.787956	0.106166
	H35	H	0.664191	0.786194	0.902237
	H36	H	0.337104	0.911561	0.214627
	H37	H	0.664931	0.104284	0.221034
	H38	H	0.337868	0.101844	0.789279
	H39	H	0.665124	0.905165	0.789997
	H40	H	0.900142	0.212960	0.337201
	H41	H	0.103412	0.219761	0.664805
	H42	H	0.100895	0.785604	0.337214
	H43	H	0.901981	0.786665	0.667289
	H44	H	0.221923	0.343270	0.898312
	H45	H	0.217342	0.665214	0.106763
	H46	H	0.782325	0.343466	0.103608
	H47	H	0.785036	0.667408	0.902022
	H48	H	0.411062	0.115782	0.591987
	H49	H	0.597568	0.885502	0.595790
	H50	H	0.583714	0.114684	0.417914
	H51	H	0.409733	0.884986	0.403484
	H52	H	0.594433	0.409804	0.121571
	H53	H	0.599220	0.592540	0.885410
	H54	H	0.402496	0.594295	0.122792
	H55	H	0.413743	0.409996	0.886365
	H56	H	0.120007	0.602748	0.411704
	H57	H	0.884930	0.593312	0.600023
	H58	H	0.113968	0.410711	0.584157
	H59	H	0.886151	0.402828	0.414888
	H60	H	0.116817	0.415671	0.599923
	H61	H	0.883786	0.601871	0.592745
	H62	H	0.114937	0.589056	0.418846
	H63	H	0.887517	0.414338	0.406991
	H64	H	0.414876	0.595680	0.117943
	H65	H	0.587836	0.592158	0.888575
	H66	H	0.597061	0.419391	0.120498
	H67	H	0.408856	0.410925	0.884607
	H68	H	0.605118	0.119724	0.423496
	H69	H	0.594793	0.886543	0.597525
	H70	H	0.402361	0.119097	0.594209
	H71	H	0.412763	0.888522	0.411627
	H72	H	0.911445	0.616115	0.087493
	H73	H	0.094864	0.387759	0.089728
	H74	H	0.092362	0.618756	0.911373
	H75	H	0.907581	0.387741	0.907832
	H76	H	0.102403	0.910933	0.622575
	H77	H	0.091218	0.092497	0.384583
	H78	H	0.910446	0.094220	0.620813
	H79	H	0.906813	0.911601	0.386469
	H80	H	0.617417	0.099402	0.913547
	H81	H	0.388614	0.090802	0.095805
	H82	H	0.616119	0.912932	0.092549
	H83	H	0.388046	0.913824	0.915964
	H84	H	0.618781	0.913985	0.098394
	H85	H	0.382105	0.103111	0.106160
	H86	H	0.614956	0.094736	0.917892
	H87	H	0.384273	0.913027	0.905339
	H88	H	0.912662	0.096193	0.621079
	H89	H	0.094120	0.090017	0.383375
	H90	H	0.089083	0.917401	0.615643
	H91	H	0.911697	0.908009	0.386088
	H92	H	0.098542	0.621022	0.913403
	H93	H	0.098824	0.386426	0.093023
	H94	H	0.899034	0.623309	0.097345
	H95	H	0.912510	0.390801	0.911587
	H96	H	0.408820	0.118681	0.601179
	H97	H	0.595396	0.886665	0.594545
	H98	H	0.597221	0.123729	0.402201
	H99	H	0.403840	0.885381	0.411082
	H100	H	0.587827	0.417583	0.118272
	H101	H	0.592077	0.602985	0.883351
	H102	H	0.409571	0.605714	0.123852
	H103	H	0.410834	0.414620	0.886425
	H104	H	0.119139	0.588620	0.401882
	H105	H	0.889280	0.592366	0.589041
	H106	H	0.121141	0.399553	0.595094
	H107	H	0.881506	0.402941	0.401746
	H108	H	0.914728	0.620132	0.103940
	H109	H	0.094028	0.387426	0.094224
	H110	H	0.095858	0.622064	0.906791
	H111	H	0.906716	0.389893	0.913921
	H112	H	0.088673	0.902053	0.620883
	H113	H	0.089959	0.088582	0.385987
	H114	H	0.909686	0.096506	0.621444
	H115	H	0.906402	0.905957	0.383248
	H116	H	0.616024	0.093020	0.911413
	H117	H	0.385305	0.106313	0.090240
	H118	H	0.618605	0.908004	0.096201
	H119	H	0.384085	0.903676	0.911817
	C120	C	0.378996	0.010594	0.624607
	C121	C	0.624306	0.993657	0.626295
	C122	C	0.623681	0.011780	0.383551
	C123	C	0.379384	0.994312	0.381208
	C124	C	0.622602	0.384151	0.011672
	C125	C	0.622562	0.625923	0.994603
	C126	C	0.379886	0.626729	0.012490
	C127	C	0.381077	0.384263	0.994781
	C128	C	0.009960	0.622089	0.381375
	C129	C	0.993612	0.624530	0.623883
	C130	C	0.009931	0.380394	0.622849
	C131	C	0.992914	0.378110	0.378687
	C132	C	0.879426	0.512417	0.124124
	C133	C	0.123377	0.494539	0.123689
	C134	C	0.124923	0.512948	0.880639
	C135	C	0.879994	0.496602	0.881205
	C136	C	0.122657	0.879918	0.510684
	C137	C	0.121911	0.121703	0.492718
	C138	C	0.880603	0.122940	0.512015
	C139	C	0.879958	0.879853	0.494502
	C140	C	0.508966	0.125198	0.883667
	C141	C	0.492875	0.128837	0.127604
	C142	C	0.510081	0.883568	0.124713
	C143	C	0.493242	0.881117	0.881893
	C144	C	0.383076	0.887847	0.679270
	C145	C	0.620764	0.116687	0.682360
	C146	C	0.620608	0.889503	0.325864
	C147	C	0.381758	0.117874	0.328998
	C148	C	0.677874	0.384120	0.887476
	C149	C	0.679010	0.625901	0.118289
	C150	C	0.324696	0.623734	0.887976
	C151	C	0.325205	0.387269	0.118714
	C152	C	0.888116	0.679377	0.381517
	C153	C	0.116016	0.680292	0.622772
	C154	C	0.887519	0.324990	0.621771
	C155	C	0.114985	0.321550	0.379596
	C156	C	0.887635	0.383871	0.679160
	C157	C	0.116829	0.621221	0.679001
	C158	C	0.886572	0.619007	0.326747
	C159	C	0.116106	0.381399	0.324216
	C160	C	0.382019	0.680534	0.888104
	C161	C	0.621325	0.682176	0.118941
	C162	C	0.621487	0.325717	0.888474
	C163	C	0.381230	0.329640	0.119022
	C164	C	0.678923	0.889124	0.383161
	C165	C	0.680838	0.115624	0.627504
	C166	C	0.324019	0.888018	0.622836
	C167	C	0.321610	0.115869	0.383035
	C168	C	0.882192	0.388951	0.176918
	C169	C	0.119113	0.617188	0.180760
	C170	C	0.122518	0.389689	0.825038
	C171	C	0.882744	0.618933	0.825685
	C172	C	0.178955	0.879556	0.387263
	C173	C	0.177870	0.121255	0.617319
	C174	C	0.824060	0.119441	0.388418
	C175	C	0.825388	0.881700	0.618698
	C176	C	0.386865	0.182063	0.884261
	C177	C	0.615026	0.184848	0.127042
	C178	C	0.387950	0.827615	0.124404
	C179	C	0.615501	0.824852	0.882921
	C180	C	0.386619	0.888644	0.178839
	C181	C	0.615810	0.125245	0.183092
	C182	C	0.386451	0.122661	0.827403
	C183	C	0.616033	0.883754	0.826555
	C184	C	0.880903	0.176154	0.387328
	C185	C	0.122219	0.180202	0.616248
	C186	C	0.120977	0.823296	0.386812
	C187	C	0.882151	0.824447	0.618093
	C188	C	0.182107	0.391140	0.880265
	C189	C	0.178892	0.616790	0.125350
	C190	C	0.821865	0.391090	0.122470
	C191	C	0.823529	0.618886	0.882021
	C192	C	0.400964	0.095855	0.602402
	C193	C	0.602327	0.908455	0.602815
	C194	C	0.601804	0.097233	0.407505
	C195	C	0.402111	0.908646	0.402543
	C196	C	0.599771	0.408526	0.097758
	C197	C	0.599635	0.602627	0.908083
	C198	C	0.402272	0.604949	0.099104
	C199	C	0.404275	0.405591	0.908331
	C200	C	0.095593	0.599918	0.404057
	C201	C	0.908074	0.602448	0.600850
	C202	C	0.095325	0.402086	0.599856
	C203	C	0.907157	0.400285	0.401312
	C204	C	0.901881	0.597732	0.102396
	C205	C	0.102198	0.409258	0.099315
	C206	C	0.102226	0.598457	0.903794
	C207	C	0.902314	0.411450	0.904388
	C208	C	0.100062	0.903242	0.597274
	C209	C	0.098601	0.097495	0.407042
	C210	C	0.904061	0.101840	0.598777
	C211	C	0.901650	0.902033	0.407630
	C212	C	0.594255	0.102246	0.907344
	C213	C	0.407508	0.106652	0.104241
	C214	C	0.595682	0.905320	0.102268
	C215	C	0.407626	0.903664	0.904571
	Zn216	Zn	0.501276	0.002766	0.753517
	Zn217	Zn	0.501597	0.005070	0.254088
	Zn218	Zn	0.750663	0.505220	0.002634
	Zn219	Zn	0.252910	0.504433	0.002725
	Zn220	Zn	0.001578	0.752685	0.501976
	Zn221	Zn	0.001063	0.249951	0.500790
	Zn222	Zn	0.002567	0.503497	0.752647
	Zn223	Zn	0.001472	0.501148	0.251987
	Zn224	Zn	0.501467	0.753348	0.003729
	Zn225	Zn	0.501062	0.256141	0.004657
	Zn226	Zn	0.752998	0.002381	0.505064
	Zn227	Zn	0.250423	0.001163	0.501952
	N228	N	0.416579	0.965197	0.680562
	N229	N	0.586292	0.039974	0.681858
	N230	N	0.587007	0.966856	0.325894
	N231	N	0.417041	0.041352	0.327728
	N232	N	0.678764	0.419686	0.965188
	N233	N	0.679988	0.591535	0.039918
	N234	N	0.323059	0.590995	0.966445
	N235	N	0.324832	0.420366	0.040468
	N236	N	0.965668	0.681242	0.415000
	N237	N	0.038260	0.682673	0.589415
	N238	N	0.964544	0.322752	0.587444
	N239	N	0.037239	0.319165	0.412355
	N240	N	0.964875	0.417409	0.680320
	N241	N	0.039796	0.587391	0.679828
	N242	N	0.963274	0.584065	0.326547
	N243	N	0.039064	0.415661	0.323340
	N244	N	0.415294	0.682709	0.966458
	N245	N	0.586887	0.682261	0.041097
	N246	N	0.588079	0.325552	0.966839
	N247	N	0.415435	0.327742	0.040949
	N248	N	0.680789	0.966095	0.418432
	N249	N	0.683394	0.038089	0.593683
	N250	N	0.321371	0.965253	0.589602
	N251	N	0.320087	0.037876	0.414849
	N252	N	0.916955	0.465304	0.178359
	N253	N	0.085398	0.540154	0.179997
	N254	N	0.087512	0.466493	0.825136
	N255	N	0.917022	0.541858	0.824978
	N256	N	0.180162	0.914068	0.465539
	N257	N	0.177861	0.085443	0.539695
	N258	N	0.823799	0.086858	0.467008
	N259	N	0.823943	0.915667	0.540739
	N260	N	0.464192	0.183665	0.918479
	N261	N	0.537587	0.187242	0.093354
	N262	N	0.465698	0.824270	0.091530
	N263	N	0.538072	0.823037	0.916279
	N264	N	0.463575	0.922975	0.179001
	N265	N	0.538609	0.091666	0.183962
	N266	N	0.463499	0.088140	0.826632
	N267	N	0.538986	0.918054	0.825713
	N268	N	0.915212	0.178546	0.465407
	N269	N	0.088269	0.180688	0.538032
	N270	N	0.086556	0.823627	0.464618
	N271	N	0.915520	0.823319	0.539768
	N272	N	0.183701	0.468724	0.913957
	N273	N	0.181677	0.539657	0.090512
	N274	N	0.819978	0.469040	0.090394
	N275	N	0.821527	0.541822	0.915778
	O276	O	0.563940	0.563647	0.481450
	H277	H	0.569633	0.568764	0.487979
	H278	H	0.571258	0.567428	0.488693
	O279	O	0.579318	0.510122	0.514612
	H280	H	0.579218	0.514063	0.507434
	H281	H	0.591643	0.504600	0.517951
	O282	O	0.981414	1.051072	0.068311
	H283	H	0.986151	1.050042	0.069540
	H284	H	0.971308	1.059188	0.071073
	O285	O	1.003635	0.132716	0.911851
	H286	H	1.005945	0.129342	0.915548
	H287	H	0.995785	0.140480	0.918798
	O288	O	0.588062	0.543880	0.524852
	H289	H	0.594185	0.549311	0.527528
	H290	H	0.576988	0.531963	0.517516
	O291	O	0.491100	0.570353	0.544583
	H292	H	0.504546	0.575252	0.550534
	H293	H	0.492611	0.568687	0.539269
	O294	O	0.448115	0.507613	0.464220
	H295	H	0.449166	0.494842	0.459217
	H296	H	0.444663	0.517572	0.467191
	O297	O	0.153160	-0.115919	0.987148
	H298	H	0.166712	-0.122400	0.979925
	H299	H	0.150149	-0.104425	0.985062
	O300	O	-0.038920	0.139765	-0.042902
	H301	H	-0.029177	0.130523	-0.049227
	H302	H	-0.038142	0.143407	-0.040149
	O303	O	1.038057	1.069761	0.006346
	H304	H	1.023351	1.081918	0.010756
	H305	H	1.037442	1.067825	0.005010
	O306	O	0.005431	1.115302	1.103127
	H307	H	0.008795	1.120695	1.108264
	H308	H	0.013137	1.112934	1.095693
	O309	O	0.570210	0.422356	0.480636
	H310	H	0.566341	0.426707	0.476141
	H311	H	0.569082	0.428788	0.476835
	O312	O	0.107027	0.021184	0.075861
	H313	H	0.112221	0.021216	0.073322
	H314	H	0.108612	0.026306	0.075033
	O315	O	0.911668	-0.050170	-0.006861
	H316	H	0.919278	-0.051222	0.007411
	H317	H	0.899024	-0.055361	-0.005914
	O318	O	0.878506	1.089289	1.000194
	H319	H	0.871597	1.085352	0.996416
	H320	H	0.885576	1.106047	1.006117
	O321	O	-0.039629	-0.074984	1.091353
	H322	H	-0.033440	-0.065080	1.081909
	H323	H	-0.040282	-0.076329	1.089820
	O324	O	0.507413	0.374356	0.493319
	H325	H	0.512729	0.375483	0.476084
	H326	H	0.510895	0.371395	0.489900
	O327	O	-0.018196	-0.101730	0.003931
	H328	H	-0.018520	-0.094591	0.017126
	H329	H	-0.014665	-0.099160	-0.000032
	O330	O	0.583514	0.558779	0.567804
	H331	H	0.583363	0.554632	0.566730
	H332	H	0.588322	0.547531	0.571741
	O333	O	0.146820	0.959710	0.854583
	H334	H	0.146060	0.957867	0.847151
	H335	H	0.130445	0.957514	0.854605
	O336	O	0.050770	0.029191	0.065593
	H337	H	0.061280	0.013826	0.051860
	H338	H	0.062777	0.024527	0.059631
	O339	O	0.461969	0.449726	0.607869
	H340	H	0.467012	0.445685	0.613759
	H341	H	0.464463	0.458544	0.610460
	O342	O	1.177392	0.970369	0.928610
	H343	H	1.156016	0.965393	0.919809
	H344	H	1.190113	0.969486	0.913172
	O345	O	0.963122	1.035162	-0.072255
	H346	H	0.944688	1.034358	-0.053603
	H347	H	0.961499	1.059343	-0.071720
	O348	O	0.489498	0.519407	0.521896
	H349	H	0.491548	0.520352	0.515033
	H350	H	0.486099	0.519811	0.521452
	O351	O	0.502164	0.631544	0.492246
	H352	H	0.510463	0.634902	0.497603
	H353	H	0.495360	0.629392	0.495948
	O354	O	0.436045	0.420978	0.483980
	H355	H	0.437401	0.410130	0.483088
	H356	H	0.425081	0.427124	0.491589
	O357	O	0.909929	-0.005699	0.981782
	H358	H	0.900671	-0.012749	0.981194
	H359	H	0.909164	-0.011352	0.975289
	O360	O	0.525441	0.535918	0.512082
	H361	H	0.521947	0.530091	0.510857
	H362	H	0.530584	0.522261	0.513088
	O363	O	0.454033	0.502853	0.482888
	H364	H	0.455853	0.499906	0.483843
	H365	H	0.452110	0.501846	0.485383
	O366	O	0.949463	0.956400	0.921106
	H367	H	0.950370	0.940645	0.914565
	H368	H	0.940313	0.950638	0.927983
	O369	O	1.042371	0.079769	1.126754
	H370	H	1.038258	0.072120	1.128238
	H371	H	1.056410	0.076649	1.136856
	O372	O	-0.092714	-0.099986	-0.012593
	H373	H	-0.078780	-0.106480	-0.008679
	H374	H	-0.092215	-0.098846	-0.017327
	O375	O	0.951060	-0.044663	-0.047614
	H376	H	0.950185	-0.039155	-0.046966
	H377	H	0.956827	-0.046917	-0.044512
	O378	O	0.582025	0.389736	0.388799
	H379	H	0.592497	0.398294	0.379227
	H380	H	0.567926	0.384808	0.385466
	O381	O	0.503076	0.488340	0.448958
	H382	H	0.491187	0.491618	0.443750
	H383	H	0.499664	0.503480	0.462830
