data_Molecule from HDF5

_cell_length_a		16.441123
_cell_length_b		16.527939
_cell_length_c		16.533287
_cell_angle_alpha	90.097011
_cell_angle_beta	90.049457
_cell_angle_gamma	90.023576
_symmetry_space_group_name_H-M	'P 1'
_symmetry_Int_Tables_number		1

loop_
	_symmetry_equiv_pos_as_xyz
	x,y,z

loop_
	_atom_site_label
	_atom_site_type_symbol
	_atom_site_fract_x
	_atom_site_fract_y
	_atom_site_fract_z
	H0	H	0.382046	0.852702	0.714248
	H1	H	0.594458	0.166288	0.710517
	H2	H	0.596804	0.852968	0.265112
	H3	H	0.385278	0.167536	0.272289
	H4	H	0.708907	0.406007	0.831297
	H5	H	0.713625	0.616805	0.145408
	H6	H	0.270663	0.612668	0.830855
	H7	H	0.268597	0.406667	0.146058
	H8	H	0.831092	0.730540	0.381831
	H9	H	0.146504	0.731061	0.594377
	H10	H	0.830925	0.288336	0.592870
	H11	H	0.146473	0.288605	0.385127
	H12	H	0.831000	0.403653	0.709652
	H13	H	0.147205	0.613165	0.708281
	H14	H	0.831234	0.613539	0.267241
	H15	H	0.146994	0.403853	0.268190
	H16	H	0.384876	0.731808	0.832317
	H17	H	0.597080	0.731984	0.147224
	H18	H	0.595479	0.287377	0.833311
	H19	H	0.383167	0.288791	0.146273
	H20	H	0.711203	0.851391	0.382827
	H21	H	0.707533	0.167366	0.591680
	H22	H	0.267101	0.852255	0.595920
	H23	H	0.271897	0.167451	0.391017
	H24	H	0.884641	0.352995	0.208094
	H25	H	0.098212	0.665158	0.213523
	H26	H	0.095863	0.352927	0.765901
	H27	H	0.880502	0.665962	0.762252
	H28	H	0.212939	0.903487	0.333569
	H29	H	0.211989	0.116621	0.646688
	H30	H	0.767605	0.113316	0.332772
	H31	H	0.766175	0.902198	0.646576
	H32	H	0.332267	0.230452	0.884808
	H33	H	0.646238	0.231602	0.094714
	H34	H	0.331798	0.787945	0.095568
	H35	H	0.648308	0.786859	0.883458
	H36	H	0.330801	0.905621	0.209878
	H37	H	0.646512	0.115604	0.211439
	H38	H	0.332311	0.113549	0.769517
	H39	H	0.647857	0.901267	0.766482
	H40	H	0.884379	0.229544	0.332874
	H41	H	0.096431	0.233802	0.645259
	H42	H	0.096667	0.786574	0.333034
	H43	H	0.880185	0.784184	0.645101
	H44	H	0.210409	0.352671	0.884442
	H45	H	0.212960	0.666048	0.096359
	H46	H	0.768261	0.353050	0.090554
	H47	H	0.764245	0.666657	0.878550
	H48	H	0.408615	0.121093	0.587104
	H49	H	0.578705	0.895976	0.578738
	H50	H	0.584231	0.124266	0.395956
	H51	H	0.407186	0.897629	0.397479
	H52	H	0.579627	0.419124	0.103657
	H53	H	0.577142	0.598093	0.877849
	H54	H	0.396685	0.598770	0.102939
	H55	H	0.392404	0.420508	0.874079
	H56	H	0.102735	0.597510	0.396684
	H57	H	0.875100	0.601208	0.575310
	H58	H	0.101957	0.422474	0.578506
	H59	H	0.874264	0.419189	0.396339
	H60	H	0.102551	0.418416	0.576588
	H61	H	0.878430	0.593940	0.571610
	H62	H	0.102071	0.601107	0.402512
	H63	H	0.875374	0.418008	0.399981
	H64	H	0.402789	0.594644	0.098903
	H65	H	0.575561	0.599024	0.878099
	H66	H	0.580268	0.424972	0.100772
	H67	H	0.405367	0.426776	0.881097
	H68	H	0.571855	0.120547	0.397762
	H69	H	0.575821	0.896646	0.580123
	H70	H	0.401845	0.117814	0.570943
	H71	H	0.401181	0.898082	0.406223
	H72	H	0.903696	0.621471	0.076606
	H73	H	0.076799	0.396493	0.081868
	H74	H	0.077096	0.618940	0.907180
	H75	H	0.889934	0.395864	0.899100
	H76	H	0.068481	0.919646	0.598434
	H77	H	0.081270	0.102105	0.375742
	H78	H	0.898955	0.094256	0.601071
	H79	H	0.900362	0.925110	0.379908
	H80	H	0.601520	0.094372	0.902501
	H81	H	0.373989	0.103828	0.080414
	H82	H	0.597864	0.934052	0.079335
	H83	H	0.378484	0.920891	0.902778
	H84	H	0.607625	0.916370	0.088896
	H85	H	0.376465	0.098915	0.077112
	H86	H	0.605525	0.099710	0.896257
	H87	H	0.380044	0.922467	0.903511
	H88	H	0.904126	0.100613	0.601843
	H89	H	0.081083	0.093999	0.378654
	H90	H	0.080891	0.914117	0.604848
	H91	H	0.905058	0.918849	0.379187
	H92	H	0.085725	0.625351	0.896953
	H93	H	0.076724	0.399488	0.074245
	H94	H	0.902576	0.621746	0.075748
	H95	H	0.905432	0.397305	0.889112
	H96	H	0.391759	0.125067	0.583027
	H97	H	0.576033	0.897013	0.576846
	H98	H	0.580663	0.119205	0.407025
	H99	H	0.396921	0.893768	0.397672
	H100	H	0.574528	0.421316	0.100236
	H101	H	0.577195	0.600165	0.877807
	H102	H	0.403847	0.602153	0.101458
	H103	H	0.405912	0.411971	0.875604
	H104	H	0.100749	0.594655	0.402394
	H105	H	0.876085	0.593983	0.579926
	H106	H	0.099951	0.421318	0.574775
	H107	H	0.876537	0.421911	0.398742
	H108	H	0.902415	0.622044	0.077291
	H109	H	0.083485	0.396344	0.077872
	H110	H	0.071479	0.621919	0.893605
	H111	H	0.905394	0.402995	0.907077
	H112	H	0.080861	0.927979	0.600266
	H113	H	0.073701	0.098337	0.379176
	H114	H	0.896206	0.101362	0.603488
	H115	H	0.897465	0.918079	0.376536
	H116	H	0.603065	0.103436	0.903768
	H117	H	0.374975	0.098095	0.083302
	H118	H	0.600377	0.915103	0.067686
	H119	H	0.379184	0.922293	0.901793
	C120	C	0.367647	0.017416	0.612887
	C121	C	0.609878	1.000483	0.610395
	C122	C	0.611355	0.017508	0.367218
	C123	C	0.369554	1.000912	0.370031
	C124	C	0.610162	0.389515	-0.002297
	C125	C	0.611111	0.631954	0.981245
	C126	C	0.368633	0.631330	-0.002595
	C127	C	0.368303	0.388005	0.980643
	C128	C	-0.002445	0.630237	0.367424
	C129	C	0.980604	0.629729	0.608771
	C130	C	-0.002357	0.387926	0.609483
	C131	C	0.979919	0.387429	0.366785
	C132	C	0.869503	0.518222	0.108212
	C133	C	0.111719	0.500788	0.110818
	C134	C	0.110176	0.518133	0.867356
	C135	C	0.866841	0.502042	0.865448
	C136	C	0.110547	0.887651	0.498011
	C137	C	0.111044	0.130833	0.481425
	C138	C	0.867342	0.130489	0.498384
	C139	C	0.867035	0.887075	0.481392
	C140	C	0.498802	0.130581	0.868971
	C141	C	0.480032	0.131625	0.111623
	C142	C	0.498022	0.888657	0.111380
	C143	C	0.483130	0.888757	0.869706
	C144	C	0.364427	0.899723	0.673458
	C145	C	0.612629	0.119170	0.670369
	C146	C	0.614268	0.899755	0.306035
	C147	C	0.367560	0.120015	0.312010
	C148	C	0.669560	0.387236	0.879088
	C149	C	0.673183	0.634759	0.098504
	C150	C	0.309471	0.632500	0.878579
	C151	C	0.308281	0.387236	0.099019
	C152	C	0.878797	0.690455	0.364230
	C153	C	0.099229	0.690706	0.612123
	C154	C	0.878364	0.328074	0.611572
	C155	C	0.099029	0.328086	0.365849
	C156	C	0.878481	0.385706	0.669373
	C157	C	0.099412	0.632288	0.669039
	C158	C	0.878774	0.632173	0.306923
	C159	C	0.099226	0.385298	0.307656
	C160	C	0.366431	0.691490	0.879370
	C161	C	0.614883	0.692020	0.099475
	C162	C	0.612827	0.328418	0.879839
	C163	C	0.365339	0.328615	0.098903
	C164	C	0.671487	0.899034	0.364659
	C165	C	0.669132	0.119283	0.611505
	C166	C	0.306799	0.899360	0.615008
	C167	C	0.310718	0.120037	0.370691
	C168	C	0.866404	0.399956	0.167998
	C169	C	0.115344	0.618422	0.172444
	C170	C	0.113110	0.400037	0.806927
	C171	C	0.862836	0.619229	0.803210
	C172	C	0.172161	0.885011	0.380465
	C173	C	0.171719	0.134153	0.599409
	C174	C	0.807361	0.132182	0.380171
	C175	C	0.805898	0.883883	0.599140
	C176	C	0.379827	0.190487	0.866554
	C177	C	0.599022	0.191370	0.113536
	C178	C	0.379268	0.827969	0.113797
	C179	C	0.601025	0.827333	0.865802
	C180	C	0.378571	0.886669	0.170520
	C181	C	0.599181	0.133610	0.171305
	C182	C	0.379871	0.132418	0.809137
	C183	C	0.600811	0.884588	0.807566
	C184	C	0.865480	0.189877	0.380005
	C185	C	0.114086	0.192481	0.598900
	C186	C	0.114331	0.826868	0.380267
	C187	C	0.862698	0.825044	0.598307
	C188	C	0.170501	0.399795	0.865393
	C189	C	0.172498	0.618880	0.114002
	C190	C	0.808583	0.400267	0.109745
	C191	C	0.804883	0.619461	0.861317
	C192	C	0.393168	0.099751	0.587569
	C193	C	0.584176	0.918059	0.585680
	C194	C	0.586045	0.099903	0.392767
	C195	C	0.394594	0.918100	0.393772
	C196	C	0.585151	0.414742	0.080154
	C197	C	0.584291	0.606402	0.899222
	C198	C	0.393905	0.606082	0.079713
	C199	C	0.393933	0.412778	0.898224
	C200	C	0.080306	0.605136	0.393262
	C201	C	0.898102	0.603932	0.582949
	C202	C	0.080020	0.413263	0.584016
	C203	C	0.897033	0.412407	0.391280
	C204	C	0.895432	0.600441	0.083548
	C205	C	0.086279	0.418874	0.085256
	C206	C	0.085054	0.600487	0.892169
	C207	C	0.892919	0.419962	0.891142
	C208	C	0.084204	0.913284	0.579902
	C209	C	0.085831	0.105230	0.399254
	C210	C	0.892719	0.105918	0.580690
	C211	C	0.893459	0.913351	0.399702
	C212	C	0.581813	0.106066	0.893735
	C213	C	0.396900	0.107231	0.087219
	C214	C	0.580555	0.914399	0.085862
	C215	C	0.400712	0.914513	0.895599
	Zn216	Zn	0.490778	0.009366	0.740467
	Zn217	Zn	0.488813	0.010181	0.239553
	Zn218	Zn	0.739111	0.510234	-0.011994
	Zn219	Zn	0.239693	0.509874	-0.011918
	Zn220	Zn	-0.011258	0.758365	0.489024
	Zn221	Zn	-0.010954	0.259278	0.489260
	Zn222	Zn	-0.010830	0.509440	0.737635
	Zn223	Zn	-0.010186	0.509226	0.238939
	Zn224	Zn	0.490156	0.760177	-0.009839
	Zn225	Zn	0.489775	0.259858	-0.010273
	Zn226	Zn	0.738829	0.008620	0.489884
	Zn227	Zn	0.239738	0.009086	0.490451
	N228	N	0.401261	0.974233	0.672425
	N229	N	0.576669	0.044127	0.670080
	N230	N	0.577730	0.974390	0.307401
	N231	N	0.403275	0.044804	0.311209
	N232	N	0.667816	0.424600	0.953226
	N233	N	0.671016	0.598429	0.023664
	N234	N	0.310510	0.596169	0.953207
	N235	N	0.310094	0.423661	0.024419
	N236	N	0.953813	0.689329	0.401100
	N237	N	0.024145	0.689249	0.575579
	N238	N	0.953434	0.329248	0.575188
	N239	N	0.023801	0.329105	0.401873
	N240	N	0.953601	0.422049	0.668403
	N241	N	0.024721	0.595146	0.667064
	N242	N	0.953720	0.595515	0.308843
	N243	N	0.024032	0.421457	0.308081
	N244	N	0.402159	0.691090	0.954534
	N245	N	0.577076	0.690421	0.025339
	N246	N	0.576726	0.329583	0.954822
	N247	N	0.401761	0.328960	0.024146
	N248	N	0.669765	0.973386	0.402073
	N249	N	0.667502	0.044526	0.575072
	N250	N	0.308474	0.973917	0.578377
	N251	N	0.311496	0.044748	0.405663
	N252	N	0.903609	0.474380	0.167183
	N253	N	0.078418	0.544109	0.170709
	N254	N	0.076270	0.474601	0.808111
	N255	N	0.900592	0.545070	0.805618
	N256	N	0.170121	0.921956	0.454893
	N257	N	0.169655	0.096344	0.525413
	N258	N	0.808550	0.095909	0.454679
	N259	N	0.808286	0.921586	0.525151
	N260	N	0.454866	0.189373	0.903348
	N261	N	0.523985	0.190445	0.077233
	N262	N	0.454537	0.829203	0.077619
	N263	N	0.526850	0.829753	0.903712
	N264	N	0.453552	0.923361	0.169382
	N265	N	0.524124	0.097378	0.170286
	N266	N	0.454720	0.095726	0.810684
	N267	N	0.526327	0.922231	0.809871
	N268	N	0.902030	0.189100	0.454666
	N269	N	0.076886	0.190545	0.524604
	N270	N	0.076619	0.828477	0.454337
	N271	N	0.899933	0.826786	0.523983
	N272	N	0.168827	0.474107	0.902408
	N273	N	0.170550	0.544786	0.076209
	N274	N	0.810388	0.474825	0.073403
	N275	N	0.807196	0.545497	0.899105
	O276	O	1.031942	0.073314	0.102744
	H277	H	1.019461	0.056799	0.104783
	H278	H	1.023810	0.062022	0.102612
	O279	O	0.529741	0.466495	0.311402
	H280	H	0.555193	0.461180	0.310232
	H281	H	0.528514	0.476567	0.301203
	O282	O	0.352610	1.718229	0.511861
	H283	H	0.352045	1.718516	0.517753
	H284	H	0.338003	1.732534	0.520550
	O285	O	0.389183	0.320344	0.528953
	H286	H	0.375492	0.304790	0.533728
	H287	H	0.406867	0.333859	0.539667
	O288	O	-0.195118	0.017723	-0.220244
	H289	H	-0.208677	0.022551	-0.234888
	H290	H	-0.201839	0.016279	-0.206034
	O291	O	0.982812	0.861706	0.145873
	H292	H	0.945699	0.872069	0.130982
	H293	H	0.973708	0.849252	0.172019
	O294	O	-0.400652	0.630656	-0.423769
	H295	H	-0.392333	0.626975	-0.435987
	H296	H	-0.389627	0.622285	-0.418308
	O297	O	0.486305	0.302683	0.602578
	H298	H	0.484350	0.301838	0.595691
	H299	H	0.482847	0.289134	0.593939
	O300	O	0.279849	0.419858	0.605146
	H301	H	0.273033	0.409336	0.602247
	H302	H	0.274637	0.423860	0.611673
	O303	O	0.439470	0.525552	0.701671
	H304	H	0.445438	0.534811	0.707708
	H305	H	0.441710	0.535066	0.703301
	O306	O	0.023391	0.958710	1.089225
	H307	H	0.019080	0.958784	1.086018
	H308	H	0.036382	0.941254	1.085956
	O309	O	1.031803	1.053662	0.764398
	H310	H	1.033393	1.052569	0.779840
	H311	H	1.040126	1.065619	0.760813
	O312	O	0.327494	0.546684	0.656536
	H313	H	0.311615	0.535286	0.660008
	H314	H	0.341598	0.530322	0.653712
	O315	O	-0.124340	0.220474	0.775362
	H316	H	-0.130756	0.240034	0.753696
	H317	H	-0.116954	0.217204	0.776795
	O318	O	-0.197626	0.818453	0.178489
	H319	H	-0.190800	0.854882	0.187901
	H320	H	-0.212899	0.806004	0.139074
	O321	O	1.196371	0.219461	1.041833
	H322	H	1.193775	0.211675	1.050355
	H323	H	1.209412	0.233453	1.046937
	O324	O	1.409019	0.323911	0.518195
	H325	H	1.403974	0.312182	0.515643
	H326	H	1.402513	0.340433	0.511906
	O327	O	1.051191	-0.037126	0.868150
	H328	H	1.052053	-0.036275	0.861495
	H329	H	1.051344	-0.022776	0.879040
	O330	O	0.622303	-0.510748	0.283523
	H331	H	0.625193	-0.519803	0.280212
	H332	H	0.616584	-0.510954	0.275601
	O333	O	1.583405	0.685138	0.372439
	H334	H	1.574925	0.694724	0.370407
	H335	H	1.583389	0.670060	0.370551
	O336	O	0.820269	0.051114	1.072641
	H337	H	0.823421	0.055900	1.070063
	H338	H	0.832762	0.048686	1.063264
	O339	O	0.289717	0.515045	0.285677
	H340	H	0.279282	0.514718	0.261274
	H341	H	0.302288	0.510299	0.287706
	O342	O	0.772895	-0.206202	1.016033
	H343	H	0.741284	-0.240521	1.016061
	H344	H	0.804709	-0.207967	0.994260
	O345	O	0.016009	-0.204880	-0.224319
	H346	H	-0.000900	-0.190973	-0.235471
	H347	H	0.002865	-0.214449	-0.234006
	O348	O	1.103718	-0.094638	1.000272
	H349	H	1.112646	-0.089581	0.993076
	H350	H	1.114416	-0.111471	1.002951
	O351	O	1.019984	1.066657	0.028553
	H352	H	1.021238	1.054561	0.044667
	H353	H	1.000611	1.061428	0.027518
	O354	O	0.350082	0.688776	0.363359
	H355	H	0.340093	0.666714	0.365958
	H356	H	0.350667	0.679990	0.378906
	O357	O	1.211139	0.788435	0.963371
	H358	H	1.200266	0.804614	0.929065
	H359	H	1.246773	0.753467	0.958200
	O360	O	0.637818	0.567143	0.696325
	H361	H	0.642295	0.569456	0.688827
	H362	H	0.646293	0.549462	0.704975
	O363	O	0.540786	0.474409	0.484808
	H364	H	0.550412	0.467219	0.469285
	H365	H	0.530453	0.475870	0.474662
	O366	O	1.016846	0.218719	1.200352
	H367	H	1.014812	0.234560	1.197492
	H368	H	1.021735	0.211929	1.209204
	O369	O	0.795721	0.068495	0.946150
	H370	H	0.798883	0.046998	0.949931
	H371	H	0.799410	0.071989	0.940416
	O372	O	0.306540	0.473478	0.344889
	H373	H	0.327298	0.481308	0.341678
	H374	H	0.314528	0.473550	0.347159
	O375	O	-0.030355	1.219912	0.888913
	H376	H	-0.048995	1.223781	0.887318
	H377	H	-0.031136	1.217502	0.885677
	O378	O	1.127723	-0.104913	0.171077
	H379	H	1.103211	-0.103105	0.165864
	H380	H	1.125627	-0.108860	0.160384
	O381	O	1.140421	0.189878	-0.132437
	H382	H	1.125580	0.182007	-0.131447
	H383	H	1.143202	0.186745	-0.113056
	O384	O	0.686113	0.353999	1.289132
	H385	H	0.683385	0.375963	1.302979
	H386	H	0.710767	0.341723	1.280803
	O387	O	0.576352	0.615221	0.548539
	H388	H	0.591148	0.597773	0.543010
	H389	H	0.578905	0.631766	0.547199
	O390	O	-0.049187	0.225826	1.047906
	H391	H	-0.051174	0.214014	1.044333
	H392	H	-0.050730	0.224238	1.052489
	O393	O	0.951992	1.031598	0.173224
	H394	H	0.943473	1.022083	0.174056
	H395	H	0.954867	1.031686	0.169729
	O396	O	0.786306	0.219197	1.192860
	H397	H	0.807239	0.224939	1.182898
	H398	H	0.800149	0.197190	1.168749
	O399	O	0.235375	1.214090	1.209561
	H400	H	0.249263	1.204447	1.213026
	H401	H	0.226760	1.210897	1.192689
	O402	O	0.171989	0.020810	1.208300
	H403	H	0.177518	0.014495	1.218300
	H404	H	0.172031	0.014299	1.214040
	O405	O	-1.033091	0.783449	-0.032103
	H406	H	-1.012174	0.781182	-0.018260
	H407	H	-1.017941	0.781921	-0.032734
	O408	O	0.429229	0.390928	0.318296
	H409	H	0.442390	0.361772	0.312525
	H410	H	0.444333	0.397196	0.303431
	O411	O	0.654460	0.717211	0.501452
	H412	H	0.658807	0.733146	0.507280
	H413	H	0.638837	0.722947	0.506626
	O414	O	0.008042	0.787618	0.098947
	H415	H	0.016966	0.786760	0.113401
	H416	H	0.014801	0.783530	0.113174
	O417	O	0.802538	0.191575	0.796356
	H418	H	0.816360	0.181592	0.786399
	H419	H	0.816209	0.211070	0.803746
	O420	O	0.178341	0.817799	0.803892
	H421	H	0.127467	0.807936	0.790606
	H422	H	0.189234	0.833301	0.799411
	O423	O	-0.218593	0.979773	0.183126
	H424	H	-0.217283	0.988292	0.163219
	H425	H	-0.240492	0.969699	0.202687
	O426	O	0.651132	1.527278	1.394702
	H427	H	0.639200	1.541472	1.395054
	H428	H	0.651782	1.527558	1.381914
	O429	O	0.606571	0.385714	0.685950
	H430	H	0.568679	0.389439	0.685654
	H431	H	0.601872	0.402461	0.669763
	O432	O	0.449865	0.725390	0.275545
	H433	H	0.434803	0.740451	0.261344
	H434	H	0.438022	0.731504	0.274367
	O435	O	0.547622	-0.638897	0.400230
	H436	H	0.562984	-0.626768	0.402835
	H437	H	0.566389	-0.658855	0.376695
	O438	O	1.199598	-0.017460	-0.219688
	H439	H	1.224130	-0.030621	-0.247899
	H440	H	1.187005	-0.021482	-0.219775
	O441	O	0.562494	0.682143	0.665576
	H442	H	0.544409	0.679333	0.655361
	H443	H	0.572697	0.658891	0.665173
	O444	O	0.474448	0.384278	0.535417
	H445	H	0.455177	0.382088	0.538983
	H446	H	0.471503	0.384751	0.520796
	O447	O	0.418700	0.553949	0.550225
	H448	H	0.413926	0.544350	0.559029
	H449	H	0.423918	0.548754	0.542485
	O450	O	0.510058	0.467221	0.511672
	H451	H	0.522957	0.453793	0.509014
	H452	H	0.492113	0.475668	0.512904
	O453	O	0.111930	0.080765	-0.084869
	H454	H	0.112609	0.066641	-0.067756
	H455	H	0.111562	0.082217	-0.099600
	O456	O	0.853981	-0.098521	-0.140204
	H457	H	0.851313	-0.101060	-0.148157
	H458	H	0.870259	-0.100793	-0.134915
	O459	O	0.299020	0.587198	0.546906
	H460	H	0.300299	0.576242	0.541778
	H461	H	0.307561	0.593900	0.525976
	O462	O	0.700630	0.513323	0.537506
	H463	H	0.710750	0.526568	0.549110
	H464	H	0.690327	0.509491	0.533888
	O465	O	0.812743	0.224642	-0.042480
	H466	H	0.817044	0.233924	-0.051444
	H467	H	0.799698	0.233717	-0.055992
