data_Molecule from HDF5

_cell_length_a		16.538746
_cell_length_b		16.577601
_cell_length_c		16.516333
_cell_angle_alpha	89.965159
_cell_angle_beta	89.966344
_cell_angle_gamma	89.847332
_symmetry_space_group_name_H-M	'P 1'
_symmetry_Int_Tables_number		1

loop_
	_symmetry_equiv_pos_as_xyz
	x,y,z

loop_
	_atom_site_label
	_atom_site_type_symbol
	_atom_site_fract_x
	_atom_site_fract_y
	_atom_site_fract_z
	H0	H	0.395050	0.849430	0.735212
	H1	H	0.608771	0.160940	0.733618
	H2	H	0.608260	0.847006	0.290997
	H3	H	0.403348	0.162081	0.293360
	H4	H	0.726321	0.399386	0.855031
	H5	H	0.727157	0.614426	0.165924
	H6	H	0.282016	0.610983	0.853152
	H7	H	0.284288	0.402651	0.168523
	H8	H	0.847645	0.731591	0.403895
	H9	H	0.159614	0.727639	0.618021
	H10	H	0.844848	0.286049	0.617315
	H11	H	0.159504	0.287414	0.409968
	H12	H	0.844860	0.401637	0.733905
	H13	H	0.159130	0.610745	0.733956
	H14	H	0.846776	0.614412	0.288413
	H15	H	0.160427	0.404836	0.294172
	H16	H	0.395291	0.729369	0.854343
	H17	H	0.610561	0.729610	0.165987
	H18	H	0.609746	0.284226	0.854393
	H19	H	0.400334	0.285411	0.167433
	H20	H	0.726540	0.848670	0.405794
	H21	H	0.722208	0.162353	0.614731
	H22	H	0.277488	0.850706	0.620824
	H23	H	0.284557	0.162557	0.409037
	H24	H	0.897723	0.351443	0.233140
	H25	H	0.108627	0.662786	0.234294
	H26	H	0.103286	0.349093	0.793637
	H27	H	0.893738	0.664569	0.788207
	H28	H	0.222284	0.902799	0.354354
	H29	H	0.224014	0.111119	0.667884
	H30	H	0.784441	0.108347	0.353937
	H31	H	0.775272	0.894802	0.666974
	H32	H	0.347828	0.226965	0.904470
	H33	H	0.659827	0.225709	0.115520
	H34	H	0.346153	0.784719	0.116423
	H35	H	0.658543	0.779384	0.902753
	H36	H	0.346820	0.901181	0.233437
	H37	H	0.660817	0.107734	0.230830
	H38	H	0.346582	0.107673	0.791332
	H39	H	0.658802	0.893790	0.784922
	H40	H	0.897932	0.226639	0.354963
	H41	H	0.106622	0.227026	0.668827
	H42	H	0.106729	0.785349	0.355506
	H43	H	0.891593	0.779594	0.667926
	H44	H	0.220968	0.349395	0.908926
	H45	H	0.225894	0.662708	0.117357
	H46	H	0.781778	0.351117	0.117416
	H47	H	0.775688	0.662714	0.903073
	H48	H	0.411998	0.115143	0.594671
	H49	H	0.590575	0.894858	0.596676
	H50	H	0.598928	0.119615	0.419982
	H51	H	0.409563	0.891552	0.425804
	H52	H	0.592243	0.417523	0.123860
	H53	H	0.584261	0.596241	0.900396
	H54	H	0.406577	0.590795	0.123970
	H55	H	0.415676	0.415426	0.898125
	H56	H	0.114319	0.596455	0.426139
	H57	H	0.892727	0.588660	0.599659
	H58	H	0.115066	0.412713	0.600627
	H59	H	0.889490	0.416798	0.424791
	H60	H	0.112867	0.418953	0.599697
	H61	H	0.889135	0.597231	0.600797
	H62	H	0.112964	0.592929	0.424033
	H63	H	0.888587	0.419181	0.418550
	H64	H	0.420193	0.591842	0.119772
	H65	H	0.592872	0.590180	0.898937
	H66	H	0.590514	0.413963	0.124281
	H67	H	0.411316	0.413450	0.895242
	H68	H	0.589798	0.117287	0.415931
	H69	H	0.589145	0.894418	0.597832
	H70	H	0.410074	0.119521	0.604744
	H71	H	0.410938	0.890116	0.418220
	H72	H	0.915703	0.618279	0.098867
	H73	H	0.091424	0.393407	0.108980
	H74	H	0.095657	0.621216	0.920611
	H75	H	0.911361	0.395349	0.920865
	H76	H	0.091268	0.921749	0.623211
	H77	H	0.090640	0.098100	0.398931
	H78	H	0.917448	0.093288	0.622764
	H79	H	0.918739	0.917154	0.402387
	H80	H	0.616282	0.093571	0.921323
	H81	H	0.390569	0.096985	0.100293
	H82	H	0.612915	0.919827	0.095893
	H83	H	0.394063	0.920546	0.926098
	H84	H	0.616433	0.917381	0.105256
	H85	H	0.390933	0.093445	0.100388
	H86	H	0.616760	0.094377	0.921397
	H87	H	0.392798	0.918968	0.921831
	H88	H	0.912591	0.100719	0.626082
	H89	H	0.094330	0.099626	0.396850
	H90	H	0.087347	0.915179	0.624660
	H91	H	0.914169	0.918830	0.401367
	H92	H	0.087851	0.619848	0.919387
	H93	H	0.089832	0.397347	0.098215
	H94	H	0.915117	0.618568	0.097351
	H95	H	0.916784	0.397895	0.921631
	H96	H	0.419963	0.115564	0.602182
	H97	H	0.588765	0.895077	0.596836
	H98	H	0.591920	0.115082	0.425586
	H99	H	0.416906	0.893154	0.422776
	H100	H	0.594433	0.414472	0.124639
	H101	H	0.584879	0.586059	0.903404
	H102	H	0.414043	0.603735	0.125465
	H103	H	0.410891	0.418640	0.897573
	H104	H	0.115318	0.595754	0.421495
	H105	H	0.893013	0.595315	0.593014
	H106	H	0.115160	0.416763	0.605501
	H107	H	0.887018	0.412779	0.420119
	H108	H	0.914304	0.618437	0.099241
	H109	H	0.100470	0.392426	0.101025
	H110	H	0.091144	0.618631	0.926603
	H111	H	0.912794	0.397775	0.926150
	H112	H	0.095137	0.915628	0.626074
	H113	H	0.093887	0.095297	0.398227
	H114	H	0.908706	0.092576	0.625421
	H115	H	0.917293	0.921918	0.403941
	H116	H	0.616604	0.094115	0.922613
	H117	H	0.389504	0.094870	0.103372
	H118	H	0.616390	0.910047	0.097544
	H119	H	0.392162	0.915808	0.925547
	C120	C	0.380737	0.013984	0.633827
	C121	C	0.623213	0.997175	0.631140
	C122	C	0.625611	0.013463	0.388896
	C123	C	0.382184	0.996149	0.390988
	C124	C	0.625325	0.383359	0.020230
	C125	C	0.621972	0.625300	1.003260
	C126	C	0.380495	0.628259	0.019660
	C127	C	0.382258	0.384885	1.001745
	C128	C	0.011038	0.628343	0.390645
	C129	C	0.994573	0.627073	0.632054
	C130	C	0.010549	0.384936	0.633769
	C131	C	0.993261	0.385483	0.390413
	C132	C	0.882286	0.515474	0.131598
	C133	C	0.125489	0.498194	0.133904
	C134	C	0.122432	0.515558	0.890914
	C135	C	0.879140	0.499524	0.888764
	C136	C	0.123424	0.885642	0.520625
	C137	C	0.124342	0.128878	0.502164
	C138	C	0.881426	0.127009	0.520531
	C139	C	0.881515	0.884374	0.504793
	C140	C	0.512848	0.126158	0.889637
	C141	C	0.494522	0.126289	0.132748
	C142	C	0.511856	0.883635	0.132287
	C143	C	0.495412	0.883790	0.890198
	C144	C	0.377378	0.896604	0.694926
	C145	C	0.626515	0.114349	0.692870
	C146	C	0.626841	0.894639	0.330465
	C147	C	0.382949	0.115063	0.332550
	C148	C	0.685985	0.381248	0.902198
	C149	C	0.685268	0.630936	0.119662
	C150	C	0.321333	0.629822	0.900898
	C151	C	0.323547	0.383812	0.120727
	C152	C	0.894032	0.690363	0.386707
	C153	C	0.112624	0.687651	0.636063
	C154	C	0.892107	0.325566	0.635967
	C155	C	0.112104	0.327225	0.390546
	C156	C	0.892232	0.383331	0.693791
	C157	C	0.112446	0.629149	0.693128
	C158	C	0.893757	0.632130	0.329186
	C159	C	0.112548	0.385544	0.332973
	C160	C	0.378002	0.688561	0.901251
	C161	C	0.627337	0.688214	0.119775
	C162	C	0.628033	0.323728	0.901813
	C163	C	0.381467	0.325715	0.120357
	C164	C	0.685786	0.895369	0.387457
	C165	C	0.682750	0.115283	0.633636
	C166	C	0.318599	0.897421	0.637966
	C167	C	0.324240	0.115304	0.389955
	C168	C	0.879621	0.398254	0.192680
	C169	C	0.127511	0.616178	0.193906
	C170	C	0.122654	0.396614	0.832739
	C171	C	0.875703	0.617025	0.828205
	C172	C	0.182794	0.883760	0.401887
	C173	C	0.183705	0.129755	0.620900
	C174	C	0.823252	0.127768	0.401617
	C175	C	0.817206	0.878615	0.620805
	C176	C	0.394773	0.186413	0.886722
	C177	C	0.612824	0.185624	0.134132
	C178	C	0.393263	0.824645	0.134894
	C179	C	0.612298	0.820561	0.885318
	C180	C	0.393843	0.882020	0.193309
	C181	C	0.613207	0.126962	0.191383
	C182	C	0.394176	0.127125	0.830420
	C183	C	0.612120	0.877508	0.826696
	C184	C	0.879725	0.186644	0.402090
	C185	C	0.125461	0.187399	0.621390
	C186	C	0.125354	0.825700	0.402226
	C187	C	0.875111	0.820972	0.621142
	C188	C	0.181407	0.396701	0.889755
	C189	C	0.185707	0.615848	0.135949
	C190	C	0.822002	0.398071	0.134868
	C191	C	0.816403	0.616086	0.884826
	C192	C	0.406626	0.095557	0.607690
	C193	C	0.597074	0.915817	0.604546
	C194	C	0.600827	0.095865	0.413453
	C195	C	0.405704	0.913143	0.415396
	C196	C	0.599622	0.408098	0.102741
	C197	C	0.594832	0.598365	0.922139
	C198	C	0.406236	0.602980	0.101753
	C199	C	0.405924	0.408884	0.918653
	C200	C	0.092959	0.602293	0.416495
	C201	C	0.913086	0.601369	0.605503
	C202	C	0.092901	0.409135	0.608830
	C203	C	0.910040	0.409406	0.414227
	C204	C	0.907670	0.597145	0.105795
	C205	C	0.100881	0.415924	0.109623
	C206	C	0.098427	0.598196	0.915272
	C207	C	0.905844	0.418093	0.915224
	C208	C	0.098419	0.910428	0.603127
	C209	C	0.099931	0.104621	0.419543
	C210	C	0.905809	0.102536	0.603336
	C211	C	0.909007	0.911472	0.423579
	C212	C	0.595226	0.101116	0.914744
	C213	C	0.411874	0.102011	0.108280
	C214	C	0.593839	0.908397	0.106654
	C215	C	0.414216	0.910693	0.916908
	Zn216	Zn	0.503905	0.004462	0.761102
	Zn217	Zn	0.503364	0.004593	0.261404
	Zn218	Zn	0.752106	0.506740	0.011668
	Zn219	Zn	0.253036	0.506583	0.010923
	Zn220	Zn	0.003096	0.756593	0.512781
	Zn221	Zn	0.001436	0.256402	0.512384
	Zn222	Zn	0.001675	0.507749	0.761550
	Zn223	Zn	0.002684	0.507376	0.261420
	Zn224	Zn	0.502942	0.755079	0.010546
	Zn225	Zn	0.503582	0.255071	0.010334
	Zn226	Zn	0.753097	0.005519	0.511964
	Zn227	Zn	0.252394	0.005940	0.511764
	N228	N	0.415424	0.970096	0.692244
	N229	N	0.590209	0.039915	0.691314
	N230	N	0.590274	0.969051	0.331303
	N231	N	0.418147	0.040044	0.333177
	N232	N	0.684815	0.417348	0.977075
	N233	N	0.681712	0.592192	0.046310
	N234	N	0.322581	0.593238	0.975547
	N235	N	0.323710	0.419782	0.045834
	N236	N	0.967912	0.687989	0.424315
	N237	N	0.038164	0.686454	0.598857
	N238	N	0.966639	0.326219	0.599439
	N239	N	0.036653	0.326705	0.425285
	N240	N	0.966883	0.419313	0.692863
	N241	N	0.038153	0.592476	0.690906
	N242	N	0.967654	0.594318	0.331406
	N243	N	0.037332	0.420677	0.332469
	N244	N	0.413939	0.687778	0.976281
	N245	N	0.588344	0.684506	0.046492
	N246	N	0.591244	0.324680	0.976405
	N247	N	0.416777	0.325968	0.045148
	N248	N	0.685600	0.970366	0.422729
	N249	N	0.680962	0.041355	0.596092
	N250	N	0.320503	0.971463	0.600458
	N251	N	0.323534	0.040232	0.425458
	N252	N	0.916709	0.472251	0.190783
	N253	N	0.090924	0.541975	0.192882
	N254	N	0.087059	0.471581	0.832984
	N255	N	0.913773	0.543221	0.830488
	N256	N	0.181884	0.919989	0.476665
	N257	N	0.183211	0.094150	0.545838
	N258	N	0.824133	0.091289	0.476237
	N259	N	0.821141	0.917437	0.547291
	N260	N	0.469618	0.185911	0.922813
	N261	N	0.537925	0.185279	0.098170
	N262	N	0.467583	0.825310	0.097806
	N263	N	0.538744	0.824206	0.924002
	N264	N	0.468628	0.917800	0.191930
	N265	N	0.538712	0.090697	0.190567
	N266	N	0.468680	0.090423	0.832039
	N267	N	0.538616	0.916277	0.829778
	N268	N	0.915173	0.186241	0.477230
	N269	N	0.089378	0.187183	0.546563
	N270	N	0.089311	0.826549	0.477176
	N271	N	0.914488	0.824529	0.548044
	N272	N	0.181707	0.471786	0.924988
	N273	N	0.184824	0.541350	0.099784
	N274	N	0.823626	0.471954	0.097485
	N275	N	0.818425	0.541909	0.921773
	O276	O	0.980597	1.103667	0.169171
	H277	H	0.974832	1.100662	0.174167
	H278	H	0.965280	1.110800	0.160909
	O279	O	0.496124	0.546791	0.484947
	H280	H	0.494397	0.554949	0.477346
	H281	H	0.488802	0.553817	0.478679
	O282	O	0.782327	0.152371	0.003041
	H283	H	0.776062	0.152811	0.020595
	H284	H	0.764346	0.161398	0.022308
	O285	O	0.284325	0.479094	0.395623
	H286	H	0.286997	0.499738	0.399430
	H287	H	0.279324	0.490187	0.393793
	O288	O	1.000823	0.217901	0.873676
	H289	H	0.998402	0.229330	0.869702
	H290	H	0.989827	0.216692	0.894918
	O291	O	0.577262	0.432477	0.602215
	H292	H	0.585183	0.436915	0.607996
	H293	H	0.571201	0.436364	0.604638
	O294	O	0.222195	0.008609	0.131863
	H295	H	0.220896	0.008271	0.127566
	H296	H	0.217297	0.018978	0.123425
	O297	O	0.507339	0.319061	0.362228
	H298	H	0.503419	0.322091	0.366167
	H299	H	0.497238	0.322311	0.354176
	O300	O	0.119310	-0.004655	0.198726
	H301	H	0.120082	-0.003348	0.189178
	H302	H	0.106965	-0.006382	0.195195
	O303	O	-0.071501	-0.196730	-0.032046
	H304	H	-0.059232	-0.194568	-0.038344
	H305	H	-0.076697	-0.191338	-0.043076
	O306	O	0.804058	0.195106	-0.188730
	H307	H	0.809265	0.215942	-0.197116
	H308	H	0.805750	0.200974	-0.153732
	O309	O	1.013653	-0.014750	0.032430
	H310	H	1.010901	-0.020107	0.035198
	H311	H	1.006531	-0.020157	0.024102
	O312	O	0.331642	0.314234	0.338781
	H313	H	0.346405	0.335619	0.356157
	H314	H	0.353604	0.325592	0.356295
	O315	O	0.688893	0.522420	0.302152
	H316	H	0.692361	0.499772	0.312728
	H317	H	0.697451	0.508522	0.291874
	O318	O	1.028711	0.791654	-0.206611
	H319	H	1.018274	0.790726	-0.227628
	H320	H	1.026502	0.795948	-0.210527
	O321	O	0.082698	0.822280	1.041834
	H322	H	0.088608	0.819828	1.041706
	H323	H	0.097018	0.822890	1.031180
	O324	O	1.223040	-0.217125	0.981205
	H325	H	1.255749	-0.247627	0.973238
	H326	H	1.214882	-0.210733	0.934678
	O327	O	0.708958	0.712622	0.522371
	H328	H	0.739204	0.721703	0.525891
	H329	H	0.704758	0.698786	0.540116
	O330	O	-0.203917	1.053941	-0.030308
	H331	H	-0.177660	1.067725	-0.045265
	H332	H	-0.214377	1.066147	-0.034893
	O333	O	0.712454	0.392320	0.626661
	H334	H	0.690348	0.392502	0.610255
	H335	H	0.698953	0.406981	0.637506
	O336	O	0.262250	0.746645	0.275197
	H337	H	0.262994	0.733516	0.261117
	H338	H	0.243743	0.771066	0.256522
	O339	O	-0.171830	0.852272	0.052967
	H340	H	-0.168805	0.861825	0.041999
	H341	H	-0.172285	0.849566	0.052215
	O342	O	-0.112062	1.209810	0.100430
	H343	H	-0.116262	1.213298	0.093316
	H344	H	-0.092350	1.196939	0.106796
	O345	O	0.541752	0.384689	0.683497
	H346	H	0.526007	0.402129	0.676009
	H347	H	0.538859	0.382234	0.686564
	O348	O	0.454403	0.714883	0.718736
	H349	H	0.445281	0.711940	0.707129
	H350	H	0.463436	0.728443	0.718752
	O351	O	0.193592	-0.188318	0.819265
	H352	H	0.153288	-0.182525	0.809651
	H353	H	0.210677	-0.159165	0.802940
	O354	O	1.003211	-0.029860	1.111077
	H355	H	0.998741	-0.043226	1.107346
	H356	H	0.977247	-0.015454	1.104748
	O357	O	0.291628	0.605331	0.301541
	H358	H	0.264553	0.620848	0.273238
	H359	H	0.318596	0.603933	0.299352
	O360	O	0.417836	0.483146	0.728013
	H361	H	0.395605	0.491102	0.730151
	H362	H	0.411100	0.467867	0.728109
	O363	O	0.589377	0.289246	0.482154
	H364	H	0.587452	0.289651	0.484749
	H365	H	0.598454	0.289797	0.474677
	O366	O	0.875455	-0.066892	0.850545
	H367	H	0.878872	-0.067540	0.857442
	H368	H	0.861701	-0.050810	0.842642
	O369	O	-0.011354	0.122814	1.044946
	H370	H	-0.024506	0.125769	1.049404
	H371	H	-0.011866	0.128273	1.049397
	O372	O	0.191164	1.192472	0.825262
	H373	H	0.179319	1.184115	0.854767
	H374	H	0.167702	1.165709	0.834485
	O375	O	1.033571	0.065298	0.010064
	H376	H	1.040659	0.058988	0.017326
	H377	H	1.039112	0.059875	0.025734
	O378	O	0.630151	0.701462	0.698343
	H379	H	0.611035	0.702698	0.707260
	H380	H	0.646196	0.675510	0.702794
	O381	O	-0.211456	1.023507	-0.206943
	H382	H	-0.213596	1.041264	-0.213209
	H383	H	-0.225449	1.051892	-0.220221
	O384	O	0.469565	0.719555	0.295828
	H385	H	0.476656	0.724786	0.310286
	H386	H	0.475394	0.739778	0.285192
	O387	O	-0.000340	0.994313	0.787252
	H388	H	-0.025094	1.004331	0.784933
	H389	H	-0.004980	0.997090	0.797513
	O390	O	0.209483	0.977143	0.806720
	H391	H	0.218352	0.991046	0.802458
	H392	H	0.199260	0.993758	0.801618
	O393	O	1.120906	0.001671	-0.028710
	H394	H	1.118264	0.019953	-0.015876
	H395	H	1.124035	-0.022754	-0.013612
	O396	O	0.430313	0.345496	0.683660
	H397	H	0.428524	0.337875	0.701106
	H398	H	0.425821	0.353158	0.683949
	O399	O	0.522919	0.699180	0.468460
	H400	H	0.532133	0.696758	0.473997
	H401	H	0.530550	0.697490	0.473948
	O402	O	1.225853	0.200450	1.234890
	H403	H	1.220729	0.174008	1.238908
	H404	H	1.251187	0.214967	1.262259
	O405	O	0.674770	0.466148	0.531055
	H406	H	0.659189	0.450765	0.524312
	H407	H	0.673148	0.457834	0.558446
	O408	O	0.736114	0.269524	0.274102
	H409	H	0.724212	0.274199	0.278854
	H410	H	0.736190	0.253733	0.270936
	O411	O	0.804177	0.803536	0.203742
	H412	H	0.843384	0.796001	0.197210
	H413	H	0.787714	0.785438	0.183239
	O414	O	0.103591	-0.152185	0.186997
	H415	H	0.095804	-0.136554	0.179152
	H416	H	0.100357	-0.143250	0.177218
	O417	O	0.292509	0.296945	0.542262
	H418	H	0.283399	0.294284	0.552904
	H419	H	0.281303	0.298517	0.549630
	O420	O	1.383385	-0.617150	0.609100
	H421	H	1.362096	-0.623347	0.624538
	H422	H	1.390171	-0.614803	0.616327
	O423	O	0.989544	0.793487	0.187483
	H424	H	0.993099	0.790734	0.173898
	H425	H	0.994915	0.776685	0.192474
	O426	O	0.363036	0.550525	0.619702
	H427	H	0.355419	0.556851	0.607873
	H428	H	0.353756	0.550881	0.616888
	O429	O	0.551309	0.403954	0.352718
	H430	H	0.558030	0.404987	0.358692
	H431	H	0.547463	0.413617	0.353718
	O432	O	1.209403	0.092846	1.031398
	H433	H	1.198077	0.111182	1.045258
	H434	H	1.217192	0.093560	1.036601
	O435	O	-0.164691	0.090876	0.133848
	H436	H	-0.161839	0.078556	0.145833
	H437	H	-0.157701	0.066144	0.126363
	O438	O	0.295344	0.301146	0.715790
	H439	H	0.265675	0.269669	0.747371
	H440	H	0.310318	0.313433	0.701313
	O441	O	0.464305	0.490894	0.410247
	H442	H	0.446507	0.498218	0.410854
	H443	H	0.477503	0.489195	0.398211
	O444	O	0.416619	0.513516	0.605178
	H445	H	0.403257	0.511380	0.597804
	H446	H	0.417654	0.532870	0.605088
	O447	O	0.427714	0.704985	0.575257
	H448	H	0.411723	0.707498	0.556121
	H449	H	0.422305	0.695623	0.563633
	O450	O	1.019355	0.146896	-0.204435
	H451	H	1.013867	0.153672	-0.197808
	H452	H	1.007789	0.160354	-0.200886
	O453	O	0.723421	0.420404	0.422965
	H454	H	0.728302	0.405645	0.423895
	H455	H	0.728143	0.407189	0.413006
	O456	O	0.226785	1.225184	1.074794
	H457	H	0.237984	1.227743	1.093470
	H458	H	0.240645	1.240015	1.106074
	O459	O	0.569745	0.481397	0.501199
	H460	H	0.570149	0.485226	0.515546
	H461	H	0.546705	0.480778	0.509434
	O462	O	0.669589	0.606106	0.334361
	H463	H	0.676810	0.599021	0.336922
	H464	H	0.669766	0.612520	0.338833
	O465	O	0.288268	0.723726	0.482375
	H466	H	0.272455	0.746830	0.471356
	H467	H	0.284632	0.723133	0.447221
	O468	O	0.445696	1.531732	0.472590
	H469	H	0.453480	1.541526	0.472097
	H470	H	0.456631	1.531988	0.465012
	O471	O	0.704407	0.585090	0.715033
	H472	H	0.709647	0.561497	0.734139
	H473	H	0.716785	0.578431	0.703078
	O474	O	1.038066	1.229402	0.231528
	H475	H	1.052488	1.235781	0.234080
	H476	H	1.048920	1.244940	0.243364
	O477	O	-0.216257	-0.030919	1.229245
	H478	H	-0.224138	-0.058454	1.240349
	H479	H	-0.226791	-0.057320	1.244407
