data_Molecule from HDF5

_cell_length_a		16.324527
_cell_length_b		16.398265
_cell_length_c		16.154714
_cell_angle_alpha	90.224809
_cell_angle_beta	89.607809
_cell_angle_gamma	89.942377
_symmetry_space_group_name_H-M	'P 1'
_symmetry_Int_Tables_number		1

loop_
	_symmetry_equiv_pos_as_xyz
	x,y,z

loop_
	_atom_site_label
	_atom_site_type_symbol
	_atom_site_fract_x
	_atom_site_fract_y
	_atom_site_fract_z
	H0	H	0.398136	0.838920	0.719307
	H1	H	0.597581	0.162513	0.717683
	H2	H	0.599501	0.840097	0.281770
	H3	H	0.398632	0.164267	0.290170
	H4	H	0.713291	0.399978	0.837718
	H5	H	0.710494	0.604398	0.165087
	H6	H	0.281689	0.603153	0.835903
	H7	H	0.277204	0.403755	0.163883
	H8	H	0.837255	0.720161	0.395947
	H9	H	0.158534	0.716148	0.604015
	H10	H	0.836589	0.280113	0.604926
	H11	H	0.160024	0.281982	0.396187
	H12	H	0.833646	0.398721	0.716341
	H13	H	0.158198	0.596420	0.715519
	H14	H	0.832802	0.597248	0.288905
	H15	H	0.158667	0.398800	0.280973
	H16	H	0.395233	0.719005	0.837540
	H17	H	0.594559	0.719270	0.164823
	H18	H	0.599231	0.283303	0.838470
	H19	H	0.391536	0.286742	0.164991
	H20	H	0.715718	0.838811	0.398044
	H21	H	0.716945	0.160514	0.605465
	H22	H	0.277887	0.839288	0.606843
	H23	H	0.279638	0.161537	0.402554
	H24	H	0.895778	0.337921	0.215076
	H25	H	0.094869	0.661413	0.218394
	H26	H	0.094750	0.337970	0.785101
	H27	H	0.896450	0.661928	0.784980
	H28	H	0.216248	0.898960	0.337801
	H29	H	0.210338	0.099871	0.666703
	H30	H	0.783742	0.098804	0.338020
	H31	H	0.781330	0.898424	0.665258
	H32	H	0.334014	0.219722	0.899980
	H33	H	0.655663	0.223533	0.105321
	H34	H	0.333905	0.785252	0.106090
	H35	H	0.655534	0.780890	0.895116
	H36	H	0.334239	0.902673	0.219988
	H37	H	0.658716	0.103642	0.216869
	H38	H	0.333857	0.101592	0.787776
	H39	H	0.658990	0.902649	0.786644
	H40	H	0.899535	0.214241	0.337500
	H41	H	0.101084	0.220165	0.663334
	H42	H	0.102341	0.781099	0.337811
	H43	H	0.896380	0.783266	0.664246
	H44	H	0.216251	0.341405	0.895238
	H45	H	0.210635	0.663522	0.101867
	H46	H	0.774749	0.341177	0.104202
	H47	H	0.778823	0.662585	0.899516
	H48	H	0.403021	0.117517	0.599665
	H49	H	0.582941	0.887885	0.592681
	H50	H	0.599281	0.117375	0.413403
	H51	H	0.409409	0.886565	0.410565
	H52	H	0.585983	0.416922	0.114735
	H53	H	0.584520	0.592475	0.884854
	H54	H	0.395666	0.596185	0.120213
	H55	H	0.399777	0.403777	0.880565
	H56	H	0.111617	0.587332	0.407954
	H57	H	0.879324	0.594636	0.591520
	H58	H	0.111786	0.411769	0.592520
	H59	H	0.880304	0.401978	0.406250
	H60	H	0.114406	0.405388	0.593894
	H61	H	0.882725	0.591814	0.588048
	H62	H	0.112696	0.591729	0.407337
	H63	H	0.882276	0.403633	0.415415
	H64	H	0.403476	0.587464	0.114899
	H65	H	0.587734	0.595954	0.883961
	H66	H	0.578682	0.412145	0.116042
	H67	H	0.403403	0.418916	0.885691
	H68	H	0.591314	0.117862	0.403417
	H69	H	0.593244	0.885155	0.587894
	H70	H	0.408055	0.112517	0.592452
	H71	H	0.407910	0.886836	0.414055
	H72	H	0.901075	0.614462	0.087154
	H73	H	0.087797	0.387693	0.085839
	H74	H	0.093537	0.619411	0.906550
	H75	H	0.897549	0.384559	0.911019
	H76	H	0.084001	0.906118	0.617187
	H77	H	0.098049	0.084863	0.384460
	H78	H	0.904033	0.090592	0.619047
	H79	H	0.906660	0.905204	0.382501
	H80	H	0.610033	0.092921	0.913969
	H81	H	0.382478	0.096534	0.088920
	H82	H	0.609598	0.916089	0.091310
	H83	H	0.379115	0.910099	0.905403
	H84	H	0.613121	0.905687	0.093855
	H85	H	0.381762	0.088182	0.096529
	H86	H	0.611537	0.093287	0.908713
	H87	H	0.379519	0.905024	0.915844
	H88	H	0.908621	0.087323	0.616896
	H89	H	0.082482	0.086441	0.388148
	H90	H	0.090159	0.905088	0.619516
	H91	H	0.905400	0.910690	0.384962
	H92	H	0.082808	0.615938	0.903787
	H93	H	0.090018	0.385529	0.090200
	H94	H	0.897579	0.618083	0.098582
	H95	H	0.904717	0.384903	0.904950
	H96	H	0.398621	0.115989	0.591457
	H97	H	0.592194	0.883086	0.600074
	H98	H	0.587641	0.113436	0.414529
	H99	H	0.406026	0.886471	0.411101
	H100	H	0.586668	0.410112	0.118990
	H101	H	0.588576	0.590422	0.885109
	H102	H	0.407449	0.599204	0.116814
	H103	H	0.414779	0.406982	0.886696
	H104	H	0.111317	0.589934	0.411421
	H105	H	0.881393	0.589420	0.592572
	H106	H	0.111625	0.406708	0.586911
	H107	H	0.883024	0.410715	0.408626
	H108	H	0.908776	0.614713	0.096521
	H109	H	0.084345	0.386649	0.089840
	H110	H	0.086845	0.613533	0.915064
	H111	H	0.906158	0.387289	0.914109
	H112	H	0.088442	0.911179	0.617048
	H113	H	0.090408	0.098828	0.382471
	H114	H	0.910259	0.092961	0.618360
	H115	H	0.911245	0.907753	0.385675
	H116	H	0.611668	0.097358	0.911616
	H117	H	0.377733	0.098935	0.099386
	H118	H	0.609711	0.908188	0.083700
	H119	H	0.383064	0.915575	0.914389
	C120	C	0.374036	0.008871	0.625353
	C121	C	0.619410	0.992058	0.623747
	C122	C	0.621693	0.009304	0.379204
	C123	C	0.377128	0.993033	0.382321
	C124	C	0.615901	0.381397	0.009195
	C125	C	0.616288	0.623725	0.992763
	C126	C	0.373517	0.624246	0.009116
	C127	C	0.374149	0.380781	0.992287
	C128	C	0.005268	0.620248	0.379111
	C129	C	0.987833	0.621082	0.621695
	C130	C	0.005270	0.377821	0.621754
	C131	C	0.988873	0.376166	0.378211
	C132	C	0.872679	0.509226	0.123562
	C133	C	0.116738	0.492926	0.120454
	C134	C	0.118011	0.509680	0.877795
	C135	C	0.873727	0.492252	0.879686
	C136	C	0.119285	0.877394	0.509822
	C137	C	0.119171	0.120807	0.492842
	C138	C	0.878033	0.120155	0.510173
	C139	C	0.877081	0.877935	0.492458
	C140	C	0.504377	0.123953	0.880940
	C141	C	0.487572	0.124738	0.124401
	C142	C	0.504397	0.880484	0.122150
	C143	C	0.487373	0.880251	0.880578
	C144	C	0.376732	0.887200	0.681575
	C145	C	0.617724	0.113861	0.680008
	C146	C	0.619789	0.888302	0.320771
	C147	C	0.378515	0.115287	0.327324
	C148	C	0.674377	0.380738	0.886737
	C149	C	0.672673	0.623908	0.115886
	C150	C	0.318939	0.622769	0.885370
	C151	C	0.316026	0.383295	0.115124
	C152	C	0.884710	0.679365	0.378493
	C153	C	0.109859	0.677393	0.622436
	C154	C	0.884173	0.319992	0.622707
	C155	C	0.110955	0.320193	0.377303
	C156	C	0.882671	0.378692	0.678384
	C157	C	0.109785	0.618207	0.678184
	C158	C	0.882554	0.618348	0.324760
	C159	C	0.110331	0.378218	0.319809
	C160	C	0.375344	0.680522	0.886244
	C161	C	0.614712	0.680949	0.115736
	C162	C	0.617233	0.322850	0.887218
	C163	C	0.372698	0.325003	0.115560
	C164	C	0.677767	0.887560	0.378614
	C165	C	0.677059	0.112812	0.623768
	C166	C	0.317172	0.887461	0.625652
	C167	C	0.318872	0.113777	0.382938
	C168	C	0.874815	0.386940	0.178604
	C169	C	0.114804	0.613854	0.179158
	C170	C	0.116068	0.387216	0.821930
	C171	C	0.875831	0.613608	0.823031
	C172	C	0.177773	0.878287	0.386860
	C173	C	0.173402	0.119849	0.617006
	C174	C	0.822022	0.118628	0.387067
	C175	C	0.819657	0.878552	0.615844
	C176	C	0.382508	0.180754	0.881236
	C177	C	0.608053	0.183568	0.124069
	C178	C	0.382407	0.823903	0.124491
	C179	C	0.608071	0.821607	0.878554
	C180	C	0.382622	0.882439	0.181057
	C181	C	0.609878	0.123518	0.179242
	C182	C	0.382417	0.122097	0.825131
	C183	C	0.609838	0.881841	0.824152
	C184	C	0.879529	0.176041	0.386742
	C185	C	0.119238	0.179959	0.615335
	C186	C	0.121207	0.819838	0.386844
	C187	C	0.877269	0.821594	0.615472
	C188	C	0.176680	0.389063	0.876611
	C189	C	0.172276	0.614786	0.120959
	C190	C	0.814386	0.388617	0.123567
	C191	C	0.817475	0.614043	0.880234
	C192	C	0.396649	0.093246	0.601615
	C193	C	0.596147	0.907315	0.600380
	C194	C	0.599314	0.094169	0.403223
	C195	C	0.400915	0.908668	0.405274
	C196	C	0.591045	0.406108	0.094673
	C197	C	0.593711	0.600045	0.907231
	C198	C	0.395681	0.601043	0.095067
	C199	C	0.398761	0.403281	0.906505
	C200	C	0.090140	0.596541	0.402086
	C201	C	0.903182	0.598650	0.597772
	C202	C	0.090408	0.401128	0.598134
	C203	C	0.903840	0.398688	0.402977
	C204	C	0.895647	0.593812	0.100662
	C205	C	0.094234	0.408469	0.095788
	C206	C	0.094656	0.594338	0.901447
	C207	C	0.896232	0.407563	0.903084
	C208	C	0.094558	0.900621	0.595619
	C209	C	0.096779	0.096968	0.407288
	C210	C	0.900983	0.097201	0.595646
	C211	C	0.900769	0.901209	0.406625
	C212	C	0.589259	0.100936	0.904581
	C213	C	0.402648	0.101266	0.101696
	C214	C	0.588847	0.903306	0.096964
	C215	C	0.402501	0.903632	0.904786
	Zn216	Zn	0.496746	0.001573	0.752791
	Zn217	Zn	0.497305	0.001917	0.251813
	Zn218	Zn	0.744265	0.501936	0.001249
	Zn219	Zn	0.246293	0.502690	-0.000704
	Zn220	Zn	-0.002147	0.749771	0.500313
	Zn221	Zn	-0.001322	0.249077	0.501341
	Zn222	Zn	-0.004931	0.499195	0.749947
	Zn223	Zn	-0.003996	0.499416	0.250378
	Zn224	Zn	0.494465	0.751423	0.001128
	Zn225	Zn	0.494955	0.252625	0.001911
	Zn226	Zn	0.749263	-0.000551	0.502294
	Zn227	Zn	0.246311	-0.000481	0.502606
	N228	N	0.411140	0.963721	0.681646
	N229	N	0.582177	0.037763	0.679831
	N230	N	0.585804	0.965140	0.320823
	N231	N	0.414045	0.039152	0.326825
	N232	N	0.673230	0.416835	0.963686
	N233	N	0.673887	0.588829	0.038376
	N234	N	0.317635	0.588549	0.962918
	N235	N	0.316589	0.417021	0.037300
	N236	N	0.962208	0.680822	0.411515
	N237	N	0.033039	0.679382	0.588095
	N238	N	0.961491	0.319187	0.588325
	N239	N	0.034314	0.319009	0.413013
	N240	N	0.959034	0.414078	0.677884
	N241	N	0.033104	0.583732	0.677916
	N242	N	0.958644	0.582313	0.324960
	N243	N	0.033352	0.412436	0.320389
	N244	N	0.408490	0.681461	0.964287
	N245	N	0.580609	0.681060	0.038283
	N246	N	0.581791	0.323216	0.964657
	N247	N	0.408238	0.323528	0.038210
	N248	N	0.679308	0.963884	0.413911
	N249	N	0.678268	0.036027	0.589718
	N250	N	0.315230	0.964141	0.591454
	N251	N	0.317989	0.037015	0.416725
	N252	N	0.910141	0.462989	0.178696
	N253	N	0.081173	0.537096	0.178930
	N254	N	0.080264	0.463263	0.822378
	N255	N	0.909754	0.536869	0.822363
	N256	N	0.176770	0.913193	0.464480
	N257	N	0.173614	0.083797	0.539883
	N258	N	0.820869	0.084576	0.464665
	N259	N	0.819425	0.912918	0.538246
	N260	N	0.459465	0.182103	0.914881
	N261	N	0.530857	0.184356	0.090640
	N262	N	0.459014	0.822421	0.088622
	N263	N	0.530898	0.820572	0.912942
	N264	N	0.459308	0.917048	0.179644
	N265	N	0.534021	0.087449	0.179395
	N266	N	0.459241	0.087197	0.824791
	N267	N	0.533837	0.917920	0.825538
	N268	N	0.913715	0.177006	0.464344
	N269	N	0.086025	0.180563	0.537357
	N270	N	0.085824	0.819081	0.464372
	N271	N	0.912048	0.820878	0.537673
	N272	N	0.177880	0.466173	0.910544
	N273	N	0.173400	0.538611	0.085113
	N274	N	0.812609	0.465606	0.090259
	N275	N	0.816105	0.537478	0.914832
	O276	O	0.021183	-0.095426	0.149723
	H277	H	0.002999	-0.088838	0.141137
	H278	H	0.009712	-0.100505	0.156382
	O279	O	0.390679	0.368965	0.527751
	H280	H	0.386721	0.364244	0.541068
	H281	H	0.403695	0.364919	0.525755
	O282	O	0.818143	0.109674	-0.094468
	H283	H	0.817775	0.111231	-0.101758
	H284	H	0.824769	0.119625	-0.102430
	O285	O	0.005087	0.981401	0.090335
	H286	H	-0.009031	0.987221	0.107247
	H287	H	0.003657	0.982531	0.088536
	O288	O	0.618316	0.445395	0.552912
	H289	H	0.613529	0.455759	0.558239
	H290	H	0.625396	0.451767	0.568455
	O291	O	1.039189	-0.059898	1.023463
	H292	H	1.030052	-0.062631	1.018392
	H293	H	1.034927	-0.069247	1.024695
	O294	O	1.077066	0.987005	0.874241
	H295	H	1.096090	0.979338	0.869768
	H296	H	1.072890	0.984810	0.862846
	O297	O	-0.020142	-0.027886	0.081681
	H298	H	-0.020808	-0.019143	0.069936
	H299	H	-0.016352	-0.014019	0.081953
	O300	O	0.489072	0.552730	0.489214
	H301	H	0.493594	0.550682	0.485297
	H302	H	0.483563	0.555769	0.488259
	O303	O	0.002986	1.035005	0.891064
	H304	H	0.011544	1.030565	0.888026
	H305	H	-0.000761	1.041517	0.890410
	O306	O	0.421319	0.460639	0.393626
	H307	H	0.414316	0.453412	0.389460
	H308	H	0.422902	0.452913	0.404049
	O309	O	0.949654	-0.111866	0.159478
	H310	H	0.943299	-0.112307	0.137389
	H311	H	0.939127	-0.111727	0.166648
	O312	O	-0.096074	0.131893	0.945761
	H313	H	-0.100763	0.136894	0.956344
	H314	H	-0.091421	0.134571	0.935995
	O315	O	0.428614	0.369746	0.648231
	H316	H	0.420414	0.374121	0.654779
	H317	H	0.427883	0.371384	0.658071
	O318	O	0.381955	0.562884	0.488455
	H319	H	0.392366	0.556306	0.483060
	H320	H	0.360882	0.560821	0.489540
	O321	O	0.555293	0.545932	0.527803
	H322	H	0.551563	0.551648	0.540534
	H323	H	0.545199	0.537782	0.534102
	O324	O	0.579955	0.483804	0.639168
	H325	H	0.569922	0.491767	0.635009
	H326	H	0.591646	0.497381	0.641943
	O327	O	0.034910	0.994915	0.887513
	H328	H	0.053214	0.995308	0.865113
	H329	H	0.036406	0.986375	0.905816
	O330	O	0.591990	0.439555	0.397681
	H331	H	0.580387	0.412696	0.403270
	H332	H	0.608017	0.429712	0.388470
	O333	O	0.080319	1.082327	1.102901
	H334	H	0.084263	1.092165	1.109744
	H335	H	0.067067	1.065703	1.099234
	O336	O	0.991765	1.106887	1.014005
	H337	H	0.987345	1.097893	1.022733
	H338	H	0.984762	1.119537	1.008762
	O339	O	0.393076	0.561029	0.548388
	H340	H	0.397573	0.568125	0.536263
	H341	H	0.379772	0.566618	0.538568
	O342	O	0.991725	0.006062	0.088684
	H343	H	0.978299	-0.001666	0.095150
	H344	H	0.995798	-0.001069	0.100034
	O345	O	-0.068190	1.016130	-0.096378
	H346	H	-0.063750	1.006428	-0.088327
	H347	H	-0.051342	1.002594	-0.094913
	O348	O	1.054443	0.885711	0.956527
	H349	H	1.042950	0.883650	0.975415
	H350	H	1.071581	0.873873	0.945451
	O351	O	0.891449	1.050412	0.001425
	H352	H	0.891670	1.049102	-0.002842
	H353	H	0.882396	1.054212	0.006481
	O354	O	0.323135	0.673892	0.433979
	H355	H	0.319305	0.672981	0.417890
	H356	H	0.312882	0.675482	0.408954
	O357	O	0.518908	0.522970	0.420309
	H358	H	0.514941	0.513177	0.404768
	H359	H	0.533203	0.520956	0.419122
	O360	O	0.022120	0.068369	0.094054
	H361	H	0.017523	0.067637	0.090021
	H362	H	0.008924	0.064707	0.092467
	O363	O	0.377513	0.513987	0.632952
	H364	H	0.380134	0.517903	0.629005
	H365	H	0.380840	0.533256	0.630691
	O366	O	0.653590	0.374481	0.398560
	H367	H	0.636921	0.366031	0.408183
	H368	H	0.655462	0.382961	0.418346
	O369	O	0.551993	0.477462	0.461109
	H370	H	0.553199	0.474512	0.470621
	H371	H	0.541446	0.485121	0.458136
	O372	O	0.589881	0.569126	0.533203
	H373	H	0.595559	0.560378	0.525712
	H374	H	0.595910	0.588573	0.539832
	O375	O	0.415119	0.447986	0.420573
	H376	H	0.423996	0.441460	0.413078
	H377	H	0.423813	0.431872	0.421122
	O378	O	0.530026	0.573926	0.359726
	H379	H	0.539679	0.562240	0.350475
	H380	H	0.535495	0.574947	0.364950
	O381	O	0.431535	0.414181	0.469666
	H382	H	0.436491	0.417420	0.476700
	H383	H	0.441096	0.419124	0.472580
	O384	O	-0.047705	0.903374	-0.037318
	H385	H	-0.056151	0.913320	-0.017067
	H386	H	-0.042704	0.907509	-0.041353
	O387	O	1.016544	0.019912	1.081239
	H388	H	1.015734	0.025014	1.083823
	H389	H	1.016790	0.008550	1.077282
	O390	O	0.554511	0.399335	-0.524352
	H391	H	0.550717	0.404491	-0.524432
	H392	H	0.548536	0.391428	-0.524080
	O393	O	0.903114	0.932450	0.002366
	H394	H	0.898498	0.932110	0.008278
	H395	H	0.904153	0.948857	-0.003281
	O396	O	0.620687	0.647115	0.486354
	H397	H	0.617753	0.655421	0.474798
	H398	H	0.629596	0.650384	0.497705
	O399	O	0.147267	0.947274	0.885162
	H400	H	0.142421	0.951215	0.898406
	H401	H	0.155154	0.935533	0.875825
	O402	O	1.045004	1.011109	0.976747
	H403	H	1.054699	1.016469	0.983838
	H404	H	1.042616	1.016506	0.974064
	O405	O	0.503920	0.572718	0.521028
	H406	H	0.486118	0.579996	0.505499
	H407	H	0.506912	0.570609	0.505802
