data_Molecule from HDF5

_cell_length_a		16.494521
_cell_length_b		16.425542
_cell_length_c		16.159993
_cell_angle_alpha	89.991918
_cell_angle_beta	90.273793
_cell_angle_gamma	89.997012
_symmetry_space_group_name_H-M	'P 1'
_symmetry_Int_Tables_number		1

loop_
	_symmetry_equiv_pos_as_xyz
	x,y,z

loop_
	_atom_site_label
	_atom_site_type_symbol
	_atom_site_fract_x
	_atom_site_fract_y
	_atom_site_fract_z
	H0	H	0.378240	0.853022	0.725202
	H1	H	0.581868	0.174116	0.725138
	H2	H	0.581095	0.854217	0.287261
	H3	H	0.377399	0.174578	0.288123
	H4	H	0.699298	0.410063	0.844655
	H5	H	0.703676	0.619464	0.167560
	H6	H	0.258993	0.622182	0.846440
	H7	H	0.260553	0.408745	0.166334
	H8	H	0.822230	0.733985	0.399262
	H9	H	0.138351	0.736143	0.613963
	H10	H	0.822631	0.290260	0.613862
	H11	H	0.139276	0.291094	0.402665
	H12	H	0.820574	0.411855	0.724517
	H13	H	0.140481	0.615222	0.725832
	H14	H	0.821328	0.614079	0.286076
	H15	H	0.141096	0.410893	0.288014
	H16	H	0.378272	0.732713	0.845031
	H17	H	0.587847	0.734679	0.169089
	H18	H	0.583542	0.296809	0.843777
	H19	H	0.374881	0.292442	0.166021
	H20	H	0.701619	0.856594	0.398883
	H21	H	0.702657	0.172087	0.614728
	H22	H	0.257651	0.854957	0.613737
	H23	H	0.255426	0.171026	0.398058
	H24	H	0.879118	0.352957	0.224739
	H25	H	0.081991	0.674215	0.225679
	H26	H	0.083364	0.353151	0.787696
	H27	H	0.879398	0.673973	0.788279
	H28	H	0.200162	0.905871	0.345299
	H29	H	0.203081	0.120144	0.666666
	H30	H	0.760383	0.116923	0.344815
	H31	H	0.761264	0.909383	0.667476
	H32	H	0.323390	0.238522	0.896228
	H33	H	0.638230	0.237606	0.115168
	H34	H	0.324609	0.789630	0.116318
	H35	H	0.640117	0.794175	0.904883
	H36	H	0.320319	0.912268	0.223108
	H37	H	0.639098	0.116585	0.227100
	H38	H	0.320239	0.116541	0.785908
	H39	H	0.640275	0.912467	0.789625
	H40	H	0.874839	0.232221	0.344535
	H41	H	0.086209	0.233302	0.667260
	H42	H	0.080782	0.795912	0.343445
	H43	H	0.876258	0.793371	0.667603
	H44	H	0.205923	0.357602	0.897120
	H45	H	0.204468	0.672003	0.117670
	H46	H	0.758085	0.355384	0.114958
	H47	H	0.761050	0.672806	0.902330
	H48	H	0.393978	0.125860	0.596498
	H49	H	0.569231	0.899662	0.598349
	H50	H	0.563607	0.126547	0.416075
	H51	H	0.391453	0.900529	0.416179
	H52	H	0.570092	0.424919	0.122422
	H53	H	0.570402	0.608949	0.890566
	H54	H	0.389805	0.594789	0.120225
	H55	H	0.394670	0.431482	0.892652
	H56	H	0.091113	0.601417	0.422613
	H57	H	0.867581	0.600347	0.599647
	H58	H	0.090909	0.422152	0.590472
	H59	H	0.868119	0.419558	0.416634
	H60	H	0.093111	0.425676	0.598613
	H61	H	0.865349	0.609373	0.595464
	H62	H	0.094739	0.601669	0.412337
	H63	H	0.868380	0.423978	0.418682
	H64	H	0.399792	0.604857	0.121259
	H65	H	0.574949	0.601999	0.890895
	H66	H	0.570970	0.428152	0.120592
	H67	H	0.395503	0.424675	0.891731
	H68	H	0.571324	0.125768	0.425707
	H69	H	0.572122	0.901194	0.592550
	H70	H	0.389690	0.124914	0.588756
	H71	H	0.386687	0.900317	0.418829
	H72	H	0.882678	0.627406	0.087369
	H73	H	0.072741	0.397795	0.100814
	H74	H	0.068992	0.625570	0.920971
	H75	H	0.890509	0.398203	0.913674
	H76	H	0.067121	0.923909	0.620363
	H77	H	0.069759	0.105951	0.389519
	H78	H	0.886145	0.095730	0.621583
	H79	H	0.886530	0.924026	0.389172
	H80	H	0.594802	0.111568	0.918464
	H81	H	0.372033	0.097657	0.088055
	H82	H	0.595572	0.917952	0.096519
	H83	H	0.368658	0.923108	0.920465
	H84	H	0.591316	0.926483	0.090953
	H85	H	0.365890	0.103863	0.101999
	H86	H	0.590391	0.102259	0.923223
	H87	H	0.367639	0.925140	0.914808
	H88	H	0.898828	0.100951	0.618650
	H89	H	0.071772	0.095830	0.392354
	H90	H	0.071035	0.923638	0.622741
	H91	H	0.890983	0.925388	0.391506
	H92	H	0.073853	0.627506	0.919066
	H93	H	0.064948	0.403250	0.091777
	H94	H	0.888185	0.631270	0.105518
	H95	H	0.890729	0.400456	0.919590
	H96	H	0.385210	0.129122	0.595467
	H97	H	0.575492	0.898139	0.596964
	H98	H	0.575512	0.130238	0.414900
	H99	H	0.387755	0.898450	0.414136
	H100	H	0.567332	0.426157	0.120419
	H101	H	0.567168	0.602197	0.893436
	H102	H	0.386973	0.606958	0.125898
	H103	H	0.388675	0.428014	0.890270
	H104	H	0.096155	0.610664	0.418467
	H105	H	0.870097	0.602181	0.589600
	H106	H	0.095473	0.417664	0.596856
	H107	H	0.866951	0.423567	0.414209
	H108	H	0.900072	0.623016	0.093673
	H109	H	0.077766	0.400685	0.088399
	H110	H	0.068408	0.627428	0.914966
	H111	H	0.885943	0.398126	0.917456
	H112	H	0.070073	0.927440	0.620680
	H113	H	0.061877	0.099899	0.393767
	H114	H	0.889351	0.109795	0.624747
	H115	H	0.890289	0.921222	0.389233
	H116	H	0.594221	0.102196	0.911873
	H117	H	0.366687	0.112991	0.088530
	H118	H	0.595324	0.927582	0.101748
	H119	H	0.365869	0.919094	0.916665
	C120	C	0.358472	0.021516	0.626549
	C121	C	0.603040	1.004991	0.628358
	C122	C	0.601358	0.022548	0.385757
	C123	C	0.356667	1.004770	0.383847
	C124	C	0.601392	0.393929	0.014828
	C125	C	0.602630	0.635216	0.999049
	C126	C	0.360233	0.635255	0.015780
	C127	C	0.359993	0.394319	0.997225
	C128	C	-0.010725	0.634993	0.384865
	C129	C	0.972500	0.635274	0.627640
	C130	C	-0.011299	0.390593	0.628153
	C131	C	0.972599	0.390702	0.384607
	C132	C	0.858979	0.521857	0.128089
	C133	C	0.102903	0.505797	0.127615
	C134	C	0.102350	0.522298	0.885254
	C135	C	0.858644	0.504823	0.885407
	C136	C	0.100348	0.892829	0.514605
	C137	C	0.100981	0.133254	0.497948
	C138	C	0.859275	0.134011	0.515174
	C139	C	0.858295	0.891945	0.497146
	C140	C	0.488410	0.136297	0.884525
	C141	C	0.472267	0.136774	0.126997
	C142	C	0.489570	0.891881	0.128718
	C143	C	0.472438	0.891600	0.885794
	C144	C	0.358288	0.901263	0.686164
	C145	C	0.602125	0.125503	0.686931
	C146	C	0.601253	0.902543	0.326266
	C147	C	0.356927	0.125780	0.325860
	C148	C	0.660026	0.392105	0.893162
	C149	C	0.663371	0.637636	0.119795
	C150	C	0.299711	0.638918	0.894627
	C151	C	0.300420	0.390971	0.118228
	C152	C	0.869674	0.693789	0.381668
	C153	C	0.091310	0.695276	0.630925
	C154	C	0.869893	0.330554	0.631308
	C155	C	0.092097	0.331320	0.383579
	C156	C	0.868869	0.391076	0.686425
	C157	C	0.092445	0.635136	0.686909
	C158	C	0.869203	0.634251	0.325240
	C159	C	0.093004	0.391056	0.326938
	C160	C	0.358683	0.694542	0.893997
	C161	C	0.605504	0.694715	0.120544
	C162	C	0.602578	0.335307	0.892594
	C163	C	0.357336	0.333012	0.118021
	C164	C	0.661165	0.903469	0.382013
	C165	C	0.662300	0.124515	0.631875
	C166	C	0.298329	0.902224	0.630672
	C167	C	0.296409	0.123905	0.380953
	C168	C	0.858917	0.401452	0.186601
	C169	C	0.102354	0.625770	0.187449
	C170	C	0.103098	0.401947	0.826295
	C171	C	0.859532	0.625648	0.827120
	C172	C	0.159695	0.889420	0.393352
	C173	C	0.162278	0.136955	0.618650
	C174	C	0.799861	0.135742	0.393218
	C175	C	0.800246	0.890609	0.619069
	C176	C	0.369981	0.197211	0.879906
	C177	C	0.590869	0.196966	0.131745
	C178	C	0.371294	0.830847	0.132616
	C179	C	0.592325	0.833791	0.885986
	C180	C	0.369148	0.892084	0.185997
	C181	C	0.591518	0.136640	0.187568
	C182	C	0.368714	0.136497	0.824703
	C183	C	0.592573	0.892494	0.828365
	C184	C	0.856955	0.193020	0.393269
	C185	C	0.104232	0.193626	0.618958
	C186	C	0.100306	0.834502	0.392333
	C187	C	0.857197	0.832715	0.618962
	C188	C	0.164150	0.404052	0.880837
	C189	C	0.163092	0.624792	0.133016
	C190	C	0.798517	0.402715	0.131790
	C191	C	0.800675	0.625023	0.883907
	C192	C	0.382697	0.104823	0.601085
	C193	C	0.579242	0.921490	0.603076
	C194	C	0.577057	0.105845	0.411439
	C195	C	0.381390	0.921529	0.408887
	C196	C	0.576457	0.418996	0.099216
	C197	C	0.577805	0.611273	0.913916
	C198	C	0.385146	0.609747	0.100399
	C199	C	0.385565	0.420582	0.913397
	C200	C	0.072340	0.611288	0.410346
	C201	C	0.889187	0.610827	0.602165
	C202	C	0.071571	0.414785	0.602679
	C203	C	0.889572	0.415092	0.409233
	C204	C	0.883306	0.605449	0.103051
	C205	C	0.078714	0.422405	0.101242
	C206	C	0.077505	0.605314	0.911075
	C207	C	0.882302	0.420857	0.909835
	C208	C	0.076278	0.917766	0.599148
	C209	C	0.075158	0.107781	0.413845
	C210	C	0.884272	0.109252	0.599654
	C211	C	0.882081	0.916418	0.412124
	C212	C	0.571581	0.112018	0.910360
	C213	C	0.389574	0.111919	0.100472
	C214	C	0.572507	0.916889	0.103627
	C215	C	0.388932	0.915379	0.910070
	Zn216	Zn	0.479904	0.013313	0.755736
	Zn217	Zn	0.479704	0.014458	0.256241
	Zn218	Zn	0.729763	0.513437	0.006974
	Zn219	Zn	0.231994	0.514961	0.006664
	Zn220	Zn	-0.019567	0.765075	0.506093
	Zn221	Zn	-0.019819	0.261587	0.506201
	Zn222	Zn	-0.019424	0.513395	0.756803
	Zn223	Zn	-0.018326	0.512956	0.255655
	Zn224	Zn	0.481269	0.762761	0.008091
	Zn225	Zn	0.480947	0.266272	0.005223
	Zn226	Zn	0.731201	0.014053	0.506582
	Zn227	Zn	0.228489	0.012485	0.506057
	N228	N	0.395032	0.976353	0.683735
	N229	N	0.565844	0.050216	0.684851
	N230	N	0.564591	0.977399	0.328642
	N231	N	0.393622	0.050678	0.327314
	N232	N	0.659495	0.427641	0.970098
	N233	N	0.661373	0.601215	0.043243
	N234	N	0.300224	0.603083	0.971616
	N235	N	0.302075	0.428255	0.042164
	N236	N	0.944961	0.694360	0.418139
	N237	N	0.015502	0.695707	0.595016
	N238	N	0.945565	0.329868	0.595988
	N239	N	0.016149	0.330833	0.418376
	N240	N	0.943653	0.427646	0.684861
	N241	N	0.017444	0.598869	0.685195
	N242	N	0.944511	0.598165	0.326946
	N243	N	0.017903	0.427175	0.327500
	N244	N	0.395305	0.692662	0.970628
	N245	N	0.568194	0.693105	0.044460
	N246	N	0.566640	0.336411	0.969323
	N247	N	0.393564	0.334842	0.041653
	N248	N	0.661253	0.979211	0.418472
	N249	N	0.662906	0.048626	0.595965
	N250	N	0.298173	0.977974	0.594392
	N251	N	0.295731	0.047519	0.415813
	N252	N	0.895732	0.476430	0.184377
	N253	N	0.065796	0.550550	0.184285
	N254	N	0.065195	0.476421	0.829034
	N255	N	0.894788	0.549704	0.827758
	N256	N	0.159863	0.924936	0.470415
	N257	N	0.160360	0.100138	0.542267
	N258	N	0.801238	0.099828	0.469921
	N259	N	0.800666	0.926472	0.542259
	N260	N	0.445468	0.197263	0.916380
	N261	N	0.515652	0.197233	0.094821
	N262	N	0.447121	0.830656	0.097589
	N263	N	0.516439	0.832941	0.920581
	N264	N	0.443736	0.929430	0.183894
	N265	N	0.516590	0.100181	0.184922
	N266	N	0.443299	0.099272	0.827502
	N267	N	0.516999	0.927839	0.828283
	N268	N	0.893328	0.192076	0.470094
	N269	N	0.066427	0.191241	0.543083
	N270	N	0.064132	0.836502	0.468772
	N271	N	0.892629	0.833436	0.542189
	N272	N	0.163641	0.479808	0.916976
	N273	N	0.163434	0.549255	0.096268
	N274	N	0.798425	0.478750	0.096208
	N275	N	0.799837	0.548822	0.919071
	O276	O	0.452182	0.576459	0.630385
	H277	H	0.451029	0.576397	0.632956
	H278	H	0.461357	0.578366	0.642145
	O279	O	0.643153	0.451836	0.309523
	H280	H	0.650928	0.449924	0.315200
	H281	H	0.639749	0.454875	0.289927
	O282	O	0.580237	0.515175	0.454078
	H283	H	0.565732	0.524825	0.476012
	H284	H	0.566899	0.510541	0.459752
	O285	O	1.187398	0.018788	0.163141
	H286	H	1.183769	0.008734	0.168786
	H287	H	1.193747	0.015475	0.175247
	O288	O	-0.020681	0.054794	0.799679
	H289	H	-0.002377	0.040669	0.805989
	H290	H	-0.000361	0.060699	0.782446
	O291	O	0.435592	0.506764	0.403309
	H292	H	0.442685	0.500702	0.410702
	H293	H	0.435193	0.503419	0.413520
	O294	O	0.320827	0.440652	0.376045
	H295	H	0.319209	0.433805	0.374854
	H296	H	0.331703	0.453791	0.369923
	O297	O	0.797588	1.107758	0.960311
	H298	H	0.800709	1.085342	0.961118
	H299	H	0.815468	1.103645	0.944410
	O300	O	0.012537	-0.131948	0.103277
	H301	H	-0.009088	-0.135716	0.092544
	H302	H	0.014299	-0.122879	0.105932
	O303	O	0.689220	0.581407	0.713248
	H304	H	0.692701	0.594173	0.715492
	H305	H	0.711543	0.590994	0.724074
	O306	O	1.183248	-0.004114	-0.175916
	H307	H	1.177426	0.000830	-0.163319
	H308	H	1.206054	-0.003450	-0.184474
	O309	O	0.627305	0.712758	0.702991
	H310	H	0.632280	0.734029	0.729991
	H311	H	0.647193	0.713018	0.664039
	O312	O	1.096825	1.036607	0.159185
	H313	H	1.094128	1.034721	0.156965
	H314	H	1.090055	1.044426	0.156459
	O315	O	0.655279	0.311213	0.487234
	H316	H	0.671101	0.301366	0.501444
	H317	H	0.650819	0.324814	0.466784
	O318	O	0.515141	0.435552	0.579678
	H319	H	0.517248	0.437337	0.565615
	H320	H	0.504961	0.436512	0.586190
	O321	O	0.991526	-0.017310	1.069589
	H322	H	0.990501	-0.011593	1.078640
	H323	H	0.996207	-0.024270	1.059605
	O324	O	-0.094901	0.204818	1.102262
	H325	H	-0.099422	0.203733	1.110937
	H326	H	-0.085905	0.213724	1.100997
	O327	O	0.877920	-0.131079	0.134519
	H328	H	0.878768	-0.123351	0.147234
	H329	H	0.888684	-0.137377	0.134530
	O330	O	0.444972	0.682851	0.356162
	H331	H	0.432286	0.684005	0.356722
	H332	H	0.417925	0.689403	0.359764
	O333	O	1.366653	0.618935	1.490367
	H334	H	1.362166	0.621983	1.482710
	H335	H	1.377530	0.626380	1.496509
	O336	O	0.367809	0.712916	0.499993
	H337	H	0.367968	0.721234	0.514031
	H338	H	0.376536	0.721195	0.523383
	O339	O	0.779154	0.208872	0.922997
	H340	H	0.785828	0.233927	0.912602
	H341	H	0.780928	0.208509	0.917788
	O342	O	0.150575	0.837300	0.822532
	H343	H	0.141073	0.856217	0.817237
	H344	H	0.160004	0.836107	0.846759
	O345	O	-0.154136	0.896842	0.867363
	H346	H	-0.148317	0.905523	0.885183
	H347	H	-0.153758	0.908506	0.866201
	O348	O	0.470419	0.618747	0.686843
	H349	H	0.479574	0.617242	0.699004
	H350	H	0.488461	0.606581	0.689735
	O351	O	-0.141690	0.128239	-0.181830
	H352	H	-0.141981	0.133386	-0.181628
	H353	H	-0.143298	0.148396	-0.201246
	O354	O	0.837190	1.021791	0.104600
	H355	H	0.841822	1.017468	0.126027
	H356	H	0.847558	1.026954	0.097470
	O357	O	-0.126163	1.086874	0.025767
	H358	H	-0.146517	1.080683	0.027855
	H359	H	-0.125775	1.099386	0.032656
	O360	O	0.509609	0.427893	0.305590
	H361	H	0.515513	0.411908	0.300143
	H362	H	0.496242	0.451073	0.296948
	O363	O	0.330768	0.538185	0.633827
	H364	H	0.333717	0.510124	0.624406
	H365	H	0.322950	0.535405	0.646655
	O366	O	0.774568	0.193525	0.814055
	H367	H	0.792476	0.197339	0.810753
	H368	H	0.771117	0.190555	0.802333
	O369	O	0.328756	0.660292	0.425737
	H370	H	0.318069	0.661690	0.443725
	H371	H	0.325206	0.638012	0.440568
	O372	O	0.453247	0.582481	0.417899
	H373	H	0.455265	0.591664	0.409348
	H374	H	0.445406	0.588897	0.423062
	O375	O	0.943929	-0.130591	-0.174947
	H376	H	0.951627	-0.128431	-0.173086
	H377	H	0.951378	-0.131523	-0.184031
	O378	O	0.584303	0.492812	0.490187
	H379	H	0.586337	0.497239	0.499342
	H380	H	0.591312	0.489123	0.489846
	O381	O	0.598264	0.353541	0.345540
	H382	H	0.615943	0.377169	0.352208
	H383	H	0.595343	0.348518	0.337440
	O384	O	-0.169698	1.014940	1.083250
	H385	H	-0.165452	1.008615	1.090425
	H386	H	-0.173911	1.023957	1.066668
	O387	O	1.193295	0.800375	-0.022431
	H388	H	1.217371	0.789083	-0.021768
	H389	H	1.186167	0.790875	-0.019343
	O390	O	0.551981	0.528847	0.520489
	H391	H	0.541712	0.527269	0.523952
	H392	H	0.552073	0.528836	0.509039
	O393	O	1.693773	-0.303693	0.532350
	H394	H	1.704530	-0.300026	0.516982
	H395	H	1.701073	-0.307600	0.517383
	O396	O	0.031325	1.171028	0.988420
	H397	H	0.015313	1.172927	0.980753
	H398	H	0.046033	1.169286	0.995820
	O399	O	0.381374	0.355913	0.445033
	H400	H	0.395718	0.346862	0.448277
	H401	H	0.396206	0.375680	0.438462
	O402	O	0.995441	0.072265	1.024313
	H403	H	0.996434	0.068425	1.022270
	H404	H	1.003377	0.051321	1.018585
	O405	O	0.473243	-0.385564	-0.483564
	H406	H	0.475900	-0.367898	-0.491795
	H407	H	0.487537	-0.387098	-0.472812
	O408	O	1.123551	1.077329	0.892940
	H409	H	1.141505	1.088964	0.900474
	H410	H	1.107848	1.074404	0.900869
	O411	O	1.096705	1.209002	0.206449
	H412	H	1.101924	1.198458	0.204995
	H413	H	1.099260	1.218722	0.231599
	O414	O	0.167535	0.205674	1.003533
	H415	H	0.178791	0.211147	1.006189
	H416	H	0.172609	0.206887	1.022209
	O417	O	0.356431	0.343350	0.503922
	H418	H	0.363724	0.344345	0.504906
	H419	H	0.376259	0.340166	0.497861
	O420	O	-0.025347	0.847131	0.023321
	H421	H	-0.020106	0.866324	0.010983
	H422	H	-0.029892	0.857959	0.022128
	O423	O	1.344414	-0.662945	-0.361020
	H424	H	1.345331	-0.662508	-0.369787
	H425	H	1.351628	-0.676112	-0.360917
	O426	O	0.078414	-0.056541	1.022538
	H427	H	0.090491	-0.047707	1.020429
	H428	H	0.087015	-0.060203	1.018455
	O429	O	0.537527	0.487513	0.565210
	H430	H	0.550311	0.493920	0.554846
	H431	H	0.533802	0.493276	0.564279
