data_Molecule from HDF5

_cell_length_a		16.222460
_cell_length_b		16.200999
_cell_length_c		16.338745
_cell_angle_alpha	89.953822
_cell_angle_beta	89.942487
_cell_angle_gamma	90.185024
_symmetry_space_group_name_H-M	'P 1'
_symmetry_Int_Tables_number		1

loop_
	_symmetry_equiv_pos_as_xyz
	x,y,z

loop_
	_atom_site_label
	_atom_site_type_symbol
	_atom_site_fract_x
	_atom_site_fract_y
	_atom_site_fract_z
	H0	H	0.390804	0.837722	0.716282
	H1	H	0.590574	0.165796	0.717455
	H2	H	0.588892	0.837924	0.287057
	H3	H	0.391018	0.166033	0.285369
	H4	H	0.706506	0.403798	0.838972
	H5	H	0.705715	0.601202	0.165057
	H6	H	0.277036	0.600248	0.838334
	H7	H	0.275286	0.402664	0.164915
	H8	H	0.825773	0.716390	0.404030
	H9	H	0.154827	0.717947	0.599233
	H10	H	0.825910	0.289587	0.600426
	H11	H	0.154687	0.291661	0.404629
	H12	H	0.825841	0.404586	0.716860
	H13	H	0.154052	0.603909	0.717260
	H14	H	0.827136	0.604543	0.285985
	H15	H	0.153189	0.403607	0.287382
	H16	H	0.394206	0.716433	0.837976
	H17	H	0.590559	0.717153	0.165237
	H18	H	0.589288	0.288478	0.838023
	H19	H	0.392458	0.287823	0.165124
	H20	H	0.704743	0.839297	0.402213
	H21	H	0.702657	0.168268	0.598482
	H22	H	0.274038	0.838195	0.599807
	H23	H	0.279692	0.168624	0.403794
	H24	H	0.890810	0.339258	0.218042
	H25	H	0.090794	0.667509	0.216401
	H26	H	0.088461	0.338915	0.786902
	H27	H	0.890410	0.667283	0.786955
	H28	H	0.203904	0.905927	0.336893
	H29	H	0.205244	0.103065	0.663953
	H30	H	0.775371	0.103579	0.338236
	H31	H	0.774941	0.904844	0.663844
	H32	H	0.326168	0.215554	0.902880
	H33	H	0.654981	0.214699	0.098074
	H34	H	0.326494	0.788428	0.098782
	H35	H	0.656679	0.791001	0.905005
	H36	H	0.326921	0.902470	0.215975
	H37	H	0.654158	0.101897	0.215855
	H38	H	0.326893	0.101262	0.786277
	H39	H	0.654578	0.901561	0.785051
	H40	H	0.893091	0.218577	0.338005
	H41	H	0.087613	0.217810	0.665047
	H42	H	0.089131	0.788179	0.338101
	H43	H	0.891498	0.788939	0.664437
	H44	H	0.201723	0.336878	0.905053
	H45	H	0.205866	0.666603	0.099614
	H46	H	0.777708	0.337954	0.099335
	H47	H	0.778617	0.668718	0.905654
	H48	H	0.389391	0.122649	0.596022
	H49	H	0.580533	0.883234	0.602123
	H50	H	0.581327	0.122010	0.399359
	H51	H	0.396717	0.886287	0.414474
	H52	H	0.586696	0.407070	0.119238
	H53	H	0.587041	0.597844	0.883891
	H54	H	0.397965	0.603697	0.120641
	H55	H	0.389046	0.416335	0.886167
	H56	H	0.104294	0.591805	0.412893
	H57	H	0.872702	0.597505	0.596840
	H58	H	0.106526	0.404554	0.587268
	H59	H	0.868111	0.403584	0.403322
	H60	H	0.104341	0.422279	0.595118
	H61	H	0.873807	0.596135	0.593772
	H62	H	0.108702	0.594713	0.404523
	H63	H	0.875668	0.409007	0.420479
	H64	H	0.390545	0.589365	0.117704
	H65	H	0.586261	0.594059	0.885761
	H66	H	0.584102	0.411974	0.116864
	H67	H	0.406750	0.412112	0.888911
	H68	H	0.575967	0.117119	0.411598
	H69	H	0.575762	0.889267	0.587708
	H70	H	0.404584	0.119824	0.602050
	H71	H	0.392294	0.884005	0.405593
	H72	H	0.902584	0.618568	0.093821
	H73	H	0.080219	0.387498	0.092954
	H74	H	0.092051	0.621663	0.910339
	H75	H	0.904081	0.389526	0.912735
	H76	H	0.079356	0.917490	0.613778
	H77	H	0.089914	0.100212	0.382391
	H78	H	0.904455	0.094625	0.614064
	H79	H	0.906981	0.908776	0.387084
	H80	H	0.605418	0.098283	0.917984
	H81	H	0.374007	0.097655	0.089583
	H82	H	0.608382	0.906748	0.091368
	H83	H	0.372327	0.910196	0.901277
	H84	H	0.607262	0.914095	0.096287
	H85	H	0.374210	0.088329	0.095202
	H86	H	0.605239	0.085773	0.905678
	H87	H	0.373244	0.902467	0.911928
	H88	H	0.895031	0.104502	0.619927
	H89	H	0.084084	0.094751	0.386141
	H90	H	0.078950	0.903626	0.617223
	H91	H	0.892790	0.903908	0.381779
	H92	H	0.079993	0.620733	0.902000
	H93	H	0.085186	0.385164	0.096057
	H94	H	0.894461	0.620690	0.092724
	H95	H	0.890657	0.385185	0.912140
	H96	H	0.401466	0.116663	0.586377
	H97	H	0.591077	0.884522	0.589973
	H98	H	0.589294	0.121466	0.410750
	H99	H	0.401647	0.886220	0.406308
	H100	H	0.580906	0.408174	0.117644
	H101	H	0.583654	0.597219	0.886408
	H102	H	0.406777	0.591352	0.114509
	H103	H	0.395435	0.400003	0.881579
	H104	H	0.108309	0.600679	0.411559
	H105	H	0.873844	0.593905	0.596190
	H106	H	0.111637	0.407909	0.605936
	H107	H	0.875090	0.422443	0.405485
	H108	H	0.898159	0.622015	0.100380
	H109	H	0.080248	0.385343	0.099571
	H110	H	0.080382	0.617168	0.915831
	H111	H	0.898593	0.384177	0.900996
	H112	H	0.091142	0.911431	0.619679
	H113	H	0.081505	0.102221	0.384496
	H114	H	0.890529	0.090921	0.617451
	H115	H	0.894424	0.919647	0.386790
	H116	H	0.612075	0.101685	0.901359
	H117	H	0.370128	0.096932	0.099515
	H118	H	0.611246	0.906817	0.100333
	H119	H	0.377422	0.915166	0.912184
	C120	C	0.368951	0.010935	0.623100
	C121	C	0.611184	0.994130	0.622156
	C122	C	0.611202	0.011430	0.378919
	C123	C	0.369031	0.994301	0.379879
	C124	C	0.612873	0.380700	0.010092
	C125	C	0.613446	0.624770	0.993328
	C126	C	0.369944	0.623730	0.009887
	C127	C	0.368270	0.380066	0.993361
	C128	C	-0.001086	0.624777	0.380694
	C129	C	0.981662	0.625341	0.624092
	C130	C	-0.001132	0.382614	0.624066
	C131	C	0.981556	0.382863	0.381348
	C132	C	0.868968	0.511774	0.124422
	C133	C	0.111695	0.494301	0.124275
	C134	C	0.111648	0.510923	0.880998
	C135	C	0.868979	0.495069	0.880745
	C136	C	0.112044	0.882107	0.508916
	C137	C	0.112882	0.126833	0.492621
	C138	C	0.868265	0.126003	0.509537
	C139	C	0.868356	0.881725	0.492689
	C140	C	0.499307	0.123553	0.879488
	C141	C	0.481732	0.122878	0.122699
	C142	C	0.499803	0.880668	0.123433
	C143	C	0.482782	0.880554	0.880141
	C144	C	0.370598	0.886843	0.677978
	C145	C	0.609840	0.117397	0.678385
	C146	C	0.609223	0.887383	0.324419
	C147	C	0.371332	0.117438	0.323980
	C148	C	0.668256	0.383683	0.887508
	C149	C	0.668163	0.621962	0.116387
	C150	C	0.314593	0.621201	0.887162
	C151	C	0.312962	0.381989	0.116123
	C152	C	0.875161	0.679301	0.383478
	C153	C	0.105722	0.680254	0.620311
	C154	C	0.875069	0.327102	0.621229
	C155	C	0.105457	0.328907	0.384188
	C156	C	0.875012	0.384377	0.678935
	C157	C	0.105354	0.623733	0.678953
	C158	C	0.875945	0.623647	0.324803
	C159	C	0.104602	0.384178	0.325410
	C160	C	0.372749	0.679095	0.887029
	C161	C	0.610739	0.679322	0.116484
	C162	C	0.610141	0.326025	0.886964
	C163	C	0.371085	0.324990	0.116123
	C164	C	0.666806	0.888009	0.381562
	C165	C	0.666078	0.118496	0.619742
	C166	C	0.312805	0.887176	0.620008
	C167	C	0.316150	0.118829	0.382941
	C168	C	0.870867	0.387969	0.179660
	C169	C	0.110643	0.618297	0.178784
	C170	C	0.108676	0.387600	0.825375
	C171	C	0.870668	0.618620	0.825621
	C172	C	0.166597	0.885119	0.385877
	C173	C	0.167436	0.123818	0.615320
	C174	C	0.813737	0.123510	0.386691
	C175	C	0.813133	0.884371	0.615324
	C176	C	0.375329	0.178177	0.881988
	C177	C	0.605636	0.177700	0.119482
	C178	C	0.375875	0.825310	0.120054
	C179	C	0.606913	0.826597	0.882942
	C180	C	0.375910	0.881920	0.178282
	C181	C	0.605038	0.121372	0.177859
	C182	C	0.375826	0.121088	0.824008
	C183	C	0.605976	0.881884	0.823721
	C184	C	0.871684	0.181227	0.386760
	C185	C	0.108926	0.180707	0.615869
	C186	C	0.109501	0.826662	0.386443
	C187	C	0.871032	0.826693	0.615499
	C188	C	0.164945	0.386545	0.884069
	C189	C	0.167538	0.617904	0.120558
	C190	C	0.814311	0.387647	0.121174
	C191	C	0.815142	0.619073	0.884698
	C192	C	0.391802	0.097194	0.601301
	C193	C	0.588968	0.907939	0.599904
	C194	C	0.588923	0.097721	0.400811
	C195	C	0.390480	0.907816	0.402233
	C196	C	0.590460	0.402471	0.095716
	C197	C	0.592032	0.602869	0.907610
	C198	C	0.391974	0.601306	0.095462
	C199	C	0.390734	0.402900	0.907646
	C200	C	0.084882	0.602305	0.403118
	C201	C	0.895694	0.602661	0.602245
	C202	C	0.085100	0.405000	0.602426
	C203	C	0.895179	0.405291	0.403400
	C204	C	0.891713	0.598158	0.102330
	C205	C	0.088535	0.408126	0.102640
	C206	C	0.090431	0.597513	0.902966
	C207	C	0.891199	0.408675	0.902281
	C208	C	0.089863	0.904410	0.594569
	C209	C	0.091339	0.105513	0.406462
	C210	C	0.890110	0.103199	0.595248
	C211	C	0.891366	0.904231	0.407099
	C212	C	0.585377	0.101728	0.901631
	C213	C	0.395083	0.100702	0.100950
	C214	C	0.586480	0.902701	0.102255
	C215	C	0.396746	0.902711	0.901961
	Zn216	Zn	0.491241	0.001761	0.751555
	Zn217	Zn	0.489750	0.002066	0.251205
	Zn218	Zn	0.741499	0.503230	0.002461
	Zn219	Zn	0.240134	0.501805	0.002204
	Zn220	Zn	-0.009795	0.752676	0.501294
	Zn221	Zn	-0.009447	0.254798	0.501693
	Zn222	Zn	-0.009763	0.503816	0.752647
	Zn223	Zn	-0.009908	0.503797	0.253055
	Zn224	Zn	0.491914	0.753034	0.001736
	Zn225	Zn	0.490324	0.251412	0.001516
	Zn226	Zn	0.739451	0.003874	0.500660
	Zn227	Zn	0.241125	0.004017	0.500335
	N228	N	0.404759	0.964693	0.680006
	N229	N	0.576505	0.039274	0.679865
	N230	N	0.575302	0.965083	0.322744
	N231	N	0.403496	0.038892	0.321915
	N232	N	0.670052	0.416755	0.964931
	N233	N	0.669739	0.588573	0.038964
	N234	N	0.312596	0.587576	0.964691
	N235	N	0.311056	0.415305	0.038601
	N236	N	0.952638	0.680022	0.417705
	N237	N	0.027934	0.681365	0.586881
	N238	N	0.952929	0.325806	0.587839
	N239	N	0.028001	0.328214	0.418221
	N240	N	0.952880	0.418338	0.680763
	N241	N	0.027259	0.590285	0.681410
	N242	N	0.953791	0.590433	0.323113
	N243	N	0.026485	0.417150	0.323429
	N244	N	0.406460	0.680723	0.964142
	N245	N	0.577389	0.681139	0.039122
	N246	N	0.575930	0.324150	0.964151
	N247	N	0.405001	0.323722	0.038845
	N248	N	0.668122	0.966087	0.414932
	N249	N	0.666865	0.041016	0.585278
	N250	N	0.311609	0.965284	0.586691
	N251	N	0.314830	0.041211	0.417116
	N252	N	0.903952	0.466206	0.181873
	N253	N	0.076464	0.540393	0.181048
	N254	N	0.076438	0.465970	0.823236
	N255	N	0.903469	0.540442	0.823104
	N256	N	0.168075	0.918959	0.462963
	N257	N	0.169886	0.090910	0.537814
	N258	N	0.811575	0.089896	0.464116
	N259	N	0.811441	0.917932	0.538059
	N260	N	0.452877	0.179831	0.915797
	N261	N	0.527904	0.178677	0.085760
	N262	N	0.453971	0.824461	0.086577
	N263	N	0.529474	0.825657	0.917469
	N264	N	0.453802	0.915315	0.180627
	N265	N	0.526795	0.088224	0.179938
	N266	N	0.453804	0.087733	0.822539
	N267	N	0.527958	0.914680	0.821797
	N268	N	0.905001	0.182664	0.464108
	N269	N	0.075901	0.182761	0.538326
	N270	N	0.076458	0.824345	0.464117
	N271	N	0.904665	0.824850	0.538161
	N272	N	0.166858	0.464236	0.918042
	N273	N	0.168594	0.539813	0.087624
	N274	N	0.813137	0.465594	0.087498
	N275	N	0.814083	0.541184	0.918300
	O276	O	0.545625	0.409722	0.511457
	H277	H	0.558123	0.414951	0.504634
	H278	H	0.554929	0.403671	0.508304
	O279	O	0.540212	0.530712	0.524251
	H280	H	0.543105	0.533230	0.529549
	H281	H	0.530080	0.529074	0.525562
	O282	O	0.546643	0.496759	0.468412
	H283	H	0.550001	0.491168	0.454587
	H284	H	0.545326	0.487417	0.465297
	O285	O	0.032473	0.990290	0.936210
	H286	H	0.028931	0.991981	0.933466
	H287	H	0.034140	0.994608	0.926264
	O288	O	0.518910	0.528282	0.553023
	H289	H	0.511570	0.531811	0.562910
	H290	H	0.519321	0.527957	0.557376
	O291	O	0.523013	0.471264	1.399937
	H292	H	0.524660	0.474375	1.405013
	H293	H	0.523230	0.470178	1.406180
	O294	O	0.396099	0.552384	0.407372
	H295	H	0.396831	0.566180	0.400331
	H296	H	0.404829	0.551765	0.408236
	O297	O	0.442454	0.535569	0.461460
	H298	H	0.446913	0.542358	0.454092
	H299	H	0.443034	0.544528	0.458833
	O300	O	0.533308	0.587842	0.480883
	H301	H	0.525687	0.595313	0.489887
	H302	H	0.535024	0.579882	0.486817
	O303	O	0.546006	0.440178	0.531629
	H304	H	0.536390	0.435685	0.522667
	H305	H	0.544179	0.432067	0.535965
	O306	O	1.021765	0.004938	0.938221
	H307	H	1.020268	0.003947	0.940277
	H308	H	1.022538	0.010518	0.949828
	O309	O	0.408270	0.507676	0.474833
	H310	H	0.417580	0.505096	0.480850
	H311	H	0.401731	0.507986	0.468739
	O312	O	0.466267	0.454471	0.487313
	H313	H	0.456103	0.450014	0.483176
	H314	H	0.470319	0.464089	0.486868
	O315	O	1.026547	-0.005122	0.907366
	H316	H	1.027139	-0.011148	0.899860
	H317	H	1.027481	-0.010085	0.906365
	O318	O	0.464466	-0.537517	-0.530944
	H319	H	0.461610	-0.537244	-0.516752
	H320	H	0.468071	-0.544491	-0.528996
	O321	O	0.465301	0.539245	0.523499
	H322	H	0.464209	0.538183	0.524257
	H323	H	0.472460	0.546588	0.535013
	O324	O	1.045744	-0.043185	-0.075742
	H325	H	1.057073	-0.036741	-0.072652
	H326	H	1.046050	-0.060976	-0.088163
	O327	O	1.084452	0.978592	-0.062598
	H328	H	1.086941	0.989414	-0.059713
	H329	H	1.079137	0.977998	-0.058794
	O330	O	0.385710	0.465966	0.468455
	H331	H	0.382439	0.477472	0.467227
	H332	H	0.386314	0.472977	0.462662
	O333	O	0.502313	0.511966	0.594583
	H334	H	0.499078	0.503612	0.588916
	H335	H	0.493495	0.497415	0.597499
