data_Molecule from HDF5

_cell_length_a		16.362552
_cell_length_b		16.166782
_cell_length_c		16.198189
_cell_angle_alpha	90.900946
_cell_angle_beta	89.255089
_cell_angle_gamma	89.940936
_symmetry_space_group_name_H-M	'P 1'
_symmetry_Int_Tables_number		1

loop_
	_symmetry_equiv_pos_as_xyz
	x,y,z

loop_
	_atom_site_label
	_atom_site_type_symbol
	_atom_site_fract_x
	_atom_site_fract_y
	_atom_site_fract_z
	H0	H	0.408889	0.845783	0.709891
	H1	H	0.603069	0.176266	0.715616
	H2	H	0.608129	0.848697	0.281363
	H3	H	0.411634	0.177994	0.293094
	H4	H	0.725413	0.405990	0.836266
	H5	H	0.720771	0.616086	0.162854
	H6	H	0.295229	0.609134	0.834434
	H7	H	0.286712	0.412495	0.161611
	H8	H	0.843260	0.726254	0.405783
	H9	H	0.169292	0.729068	0.597758
	H10	H	0.842935	0.299809	0.599585
	H11	H	0.168674	0.295599	0.395884
	H12	H	0.844064	0.415190	0.717377
	H13	H	0.169993	0.613666	0.713484
	H14	H	0.843021	0.611333	0.287926
	H15	H	0.168191	0.410486	0.278666
	H16	H	0.411391	0.721748	0.833668
	H17	H	0.603778	0.731155	0.162705
	H18	H	0.605548	0.293385	0.836326
	H19	H	0.406865	0.304686	0.165890
	H20	H	0.724081	0.849245	0.395756
	H21	H	0.721019	0.176251	0.603274
	H22	H	0.290212	0.847587	0.599573
	H23	H	0.292468	0.176229	0.404829
	H24	H	0.906929	0.346905	0.211157
	H25	H	0.102763	0.677135	0.213641
	H26	H	0.106988	0.349181	0.780573
	H27	H	0.910029	0.678335	0.792417
	H28	H	0.225144	0.909002	0.337077
	H29	H	0.218275	0.115141	0.665873
	H30	H	0.791418	0.113591	0.337462
	H31	H	0.785974	0.912520	0.662621
	H32	H	0.342140	0.223876	0.908408
	H33	H	0.668592	0.230220	0.099884
	H34	H	0.342628	0.800931	0.097950
	H35	H	0.668846	0.793795	0.894487
	H36	H	0.344137	0.915395	0.216379
	H37	H	0.669827	0.113941	0.213778
	H38	H	0.342892	0.108453	0.789940
	H39	H	0.668694	0.909701	0.778175
	H40	H	0.910062	0.224008	0.335019
	H41	H	0.101956	0.231152	0.663914
	H42	H	0.106111	0.796535	0.335136
	H43	H	0.906744	0.802591	0.665792
	H44	H	0.223069	0.348391	0.894481
	H45	H	0.221210	0.675625	0.100979
	H46	H	0.789697	0.348307	0.099939
	H47	H	0.789225	0.674422	0.900122
	H48	H	0.409663	0.128871	0.591929
	H49	H	0.594670	0.897196	0.585145
	H50	H	0.590939	0.131519	0.395298
	H51	H	0.411109	0.894597	0.411283
	H52	H	0.604092	0.424403	0.117506
	H53	H	0.597320	0.606872	0.881356
	H54	H	0.409623	0.600867	0.115292
	H55	H	0.420658	0.419469	0.884892
	H56	H	0.124124	0.602843	0.397845
	H57	H	0.892464	0.602524	0.595697
	H58	H	0.121744	0.425096	0.593045
	H59	H	0.890680	0.421069	0.403925
	H60	H	0.122520	0.417229	0.589651
	H61	H	0.887085	0.609101	0.605877
	H62	H	0.122887	0.611540	0.407916
	H63	H	0.888953	0.415865	0.405549
	H64	H	0.416776	0.606969	0.115223
	H65	H	0.606691	0.598035	0.880896
	H66	H	0.595140	0.425319	0.114955
	H67	H	0.415827	0.409180	0.880139
	H68	H	0.593967	0.123571	0.424567
	H69	H	0.603592	0.894133	0.584492
	H70	H	0.407938	0.131751	0.600351
	H71	H	0.414796	0.893546	0.401707
	H72	H	0.909863	0.628762	0.088889
	H73	H	0.093503	0.393707	0.092329
	H74	H	0.106882	0.634398	0.900737
	H75	H	0.914261	0.393727	0.904555
	H76	H	0.102526	0.928124	0.617121
	H77	H	0.102619	0.096557	0.385490
	H78	H	0.916640	0.106936	0.615911
	H79	H	0.916038	0.916213	0.382663
	H80	H	0.620919	0.098747	0.908039
	H81	H	0.389125	0.105847	0.102118
	H82	H	0.621990	0.924042	0.090304
	H83	H	0.389680	0.914665	0.903668
	H84	H	0.623408	0.918433	0.091236
	H85	H	0.389599	0.111449	0.099600
	H86	H	0.623193	0.103628	0.903899
	H87	H	0.391282	0.916970	0.908962
	H88	H	0.910703	0.109017	0.617835
	H89	H	0.098100	0.104983	0.383747
	H90	H	0.091799	0.921742	0.614825
	H91	H	0.914135	0.921960	0.383474
	H92	H	0.094770	0.628647	0.907835
	H93	H	0.095121	0.398659	0.081213
	H94	H	0.909587	0.631782	0.098902
	H95	H	0.920796	0.396588	0.906717
	H96	H	0.416568	0.128795	0.597856
	H97	H	0.597538	0.893669	0.592546
	H98	H	0.617669	0.135704	0.408537
	H99	H	0.421362	0.896645	0.409821
	H100	H	0.597866	0.415844	0.118378
	H101	H	0.595760	0.595173	0.885732
	H102	H	0.408102	0.609836	0.118143
	H103	H	0.409117	0.419635	0.881592
	H104	H	0.119257	0.599047	0.408866
	H105	H	0.889245	0.614937	0.593815
	H106	H	0.119734	0.423712	0.584722
	H107	H	0.891735	0.420002	0.409126
	H108	H	0.918480	0.627315	0.094213
	H109	H	0.104628	0.392699	0.087074
	H110	H	0.107903	0.630523	0.914799
	H111	H	0.915090	0.395604	0.911366
	H112	H	0.102591	0.915745	0.620980
	H113	H	0.106849	0.104171	0.380912
	H114	H	0.912264	0.102885	0.616025
	H115	H	0.920012	0.919896	0.385235
	H116	H	0.621305	0.105333	0.909626
	H117	H	0.391263	0.106239	0.096356
	H118	H	0.620965	0.920065	0.085469
	H119	H	0.391098	0.920394	0.904702
	C120	C	0.383738	0.020382	0.623255
	C121	C	0.627454	1.003383	0.619700
	C122	C	0.630342	0.021888	0.377592
	C123	C	0.386956	1.003885	0.380720
	C124	C	0.628790	0.389577	0.009013
	C125	C	0.628340	0.632576	0.990914
	C126	C	0.385013	0.633148	0.007508
	C127	C	0.384841	0.389927	0.991006
	C128	C	0.014507	0.632971	0.378671
	C129	C	0.997724	0.637037	0.624645
	C130	C	0.014373	0.392801	0.620349
	C131	C	0.997724	0.389414	0.375599
	C132	C	0.883631	0.520526	0.121720
	C133	C	0.126817	0.503345	0.118540
	C134	C	0.130799	0.522075	0.876843
	C135	C	0.887147	0.503772	0.880257
	C136	C	0.128641	0.890851	0.509154
	C137	C	0.129223	0.133964	0.491730
	C138	C	0.885342	0.134419	0.508674
	C139	C	0.885704	0.891665	0.492114
	C140	C	0.514084	0.131510	0.880851
	C141	C	0.497827	0.136372	0.125449
	C142	C	0.514762	0.892053	0.120125
	C143	C	0.498008	0.888180	0.875320
	C144	C	0.387440	0.895768	0.674644
	C145	C	0.624367	0.127078	0.677757
	C146	C	0.628620	0.898066	0.319548
	C147	C	0.390244	0.128317	0.329010
	C148	C	0.686288	0.387554	0.885576
	C149	C	0.682850	0.634414	0.113867
	C150	C	0.331897	0.629645	0.883623
	C151	C	0.326493	0.393232	0.113518
	C152	C	0.891654	0.688176	0.384446
	C153	C	0.120759	0.691224	0.618923
	C154	C	0.891706	0.337646	0.619562
	C155	C	0.120055	0.333429	0.376154
	C156	C	0.892227	0.395224	0.677997
	C157	C	0.120886	0.633987	0.676936
	C158	C	0.891605	0.631327	0.325458
	C159	C	0.119823	0.390576	0.317782
	C160	C	0.389838	0.685972	0.883265
	C161	C	0.624772	0.691727	0.113899
	C162	C	0.627231	0.331287	0.885545
	C163	C	0.386190	0.339140	0.115647
	C164	C	0.686251	0.898314	0.376705
	C165	C	0.682743	0.127065	0.621639
	C166	C	0.328336	0.896551	0.619909
	C167	C	0.331176	0.127419	0.384630
	C168	C	0.886152	0.396592	0.175114
	C169	C	0.124136	0.627427	0.175841
	C170	C	0.127707	0.398114	0.819052
	C171	C	0.889367	0.628449	0.828016
	C172	C	0.186281	0.889695	0.385859
	C173	C	0.181724	0.134530	0.615949
	C174	C	0.830003	0.132652	0.385845
	C175	C	0.826673	0.893908	0.614552
	C176	C	0.391248	0.186602	0.886096
	C177	C	0.620131	0.192292	0.120699
	C178	C	0.391860	0.837909	0.118553
	C179	C	0.620175	0.831804	0.874991
	C180	C	0.392566	0.895097	0.177564
	C181	C	0.620800	0.134732	0.177742
	C182	C	0.391408	0.129212	0.827294
	C183	C	0.620175	0.889226	0.817124
	C184	C	0.888903	0.187592	0.384625
	C185	C	0.124042	0.192586	0.614908
	C186	C	0.127090	0.834115	0.384911
	C187	C	0.886566	0.838871	0.616077
	C188	C	0.185349	0.397743	0.875658
	C189	C	0.182964	0.626616	0.119683
	C190	C	0.827869	0.397267	0.119591
	C191	C	0.829092	0.626353	0.881645
	C192	C	0.405156	0.107275	0.602880
	C193	C	0.605179	0.917354	0.594822
	C194	C	0.607486	0.107910	0.402083
	C195	C	0.409167	0.917213	0.401444
	C196	C	0.605745	0.414560	0.094884
	C197	C	0.606353	0.607434	0.905007
	C198	C	0.405464	0.612328	0.093832
	C199	C	0.408336	0.410025	0.904429
	C200	C	0.099997	0.610832	0.398931
	C201	C	0.911922	0.615457	0.604446
	C202	C	0.099361	0.415412	0.596222
	C203	C	0.912627	0.412315	0.399229
	C204	C	0.905919	0.606914	0.100287
	C205	C	0.104195	0.417226	0.094117
	C206	C	0.109380	0.608593	0.900787
	C207	C	0.910239	0.417641	0.901276
	C208	C	0.105621	0.914865	0.595226
	C209	C	0.108709	0.109110	0.405620
	C210	C	0.907046	0.112906	0.594466
	C211	C	0.909724	0.913120	0.406129
	C212	C	0.599644	0.109061	0.901076
	C213	C	0.412065	0.114232	0.105281
	C214	C	0.600072	0.914166	0.096047
	C215	C	0.412725	0.910781	0.898894
	Zn216	Zn	0.506382	0.011155	0.748511
	Zn217	Zn	0.507782	0.013147	0.251562
	Zn218	Zn	0.757539	0.511462	-0.000151
	Zn219	Zn	0.257203	0.511562	-0.001546
	Zn220	Zn	0.006580	0.763003	0.500775
	Zn221	Zn	0.005934	0.262123	0.498827
	Zn222	Zn	0.007143	0.514311	0.751527
	Zn223	Zn	0.005735	0.511918	0.247688
	Zn224	Zn	0.506001	0.761186	-0.001500
	Zn225	Zn	0.505529	0.262482	0.001872
	Zn226	Zn	0.757132	0.013564	0.499690
	Zn227	Zn	0.257550	0.011576	0.501363
	N228	N	0.420991	0.973892	0.677152
	N229	N	0.590721	0.049168	0.676651
	N230	N	0.594421	0.975855	0.320184
	N231	N	0.424189	0.050510	0.326408
	N232	N	0.687351	0.423104	0.963432
	N233	N	0.684902	0.598204	0.036381
	N234	N	0.328590	0.597549	0.961775
	N235	N	0.325790	0.424278	0.034967
	N236	N	0.969014	0.689324	0.416813
	N237	N	0.043083	0.693450	0.587507
	N238	N	0.968779	0.336045	0.584323
	N239	N	0.043316	0.332551	0.411324
	N240	N	0.969492	0.428651	0.678706
	N241	N	0.043458	0.601084	0.680647
	N242	N	0.968778	0.597416	0.321866
	N243	N	0.042694	0.424699	0.317280
	N244	N	0.422094	0.688485	0.961256
	N245	N	0.591942	0.690952	0.036168
	N246	N	0.592112	0.332366	0.963140
	N247	N	0.422060	0.337126	0.038413
	N248	N	0.687542	0.976228	0.411875
	N249	N	0.684753	0.049227	0.586217
	N250	N	0.325635	0.975255	0.588855
	N251	N	0.329033	0.048776	0.415958
	N252	N	0.920011	0.474377	0.176850
	N253	N	0.089929	0.549651	0.175299
	N254	N	0.094474	0.476296	0.819582
	N255	N	0.924813	0.551157	0.826862
	N256	N	0.187273	0.924380	0.464109
	N257	N	0.185065	0.098758	0.538260
	N258	N	0.827458	0.100225	0.463952
	N259	N	0.825913	0.925883	0.536338
	N260	N	0.468456	0.188197	0.918619
	N261	N	0.542396	0.193801	0.089104
	N262	N	0.468880	0.835868	0.083590
	N263	N	0.543325	0.831129	0.910654
	N264	N	0.470347	0.927598	0.179115
	N265	N	0.543810	0.100853	0.180870
	N266	N	0.468823	0.095742	0.823598
	N267	N	0.543343	0.923651	0.817278
	N268	N	0.922536	0.188956	0.461935
	N269	N	0.092332	0.192443	0.536600
	N270	N	0.091833	0.834747	0.462484
	N271	N	0.922705	0.837356	0.538972
	N272	N	0.187638	0.475871	0.910622
	N273	N	0.184849	0.548505	0.084937
	N274	N	0.826237	0.475398	0.087167
	N275	N	0.827633	0.547971	0.913326
	O276	O	0.480996	0.413585	0.466627
	H277	H	0.480941	0.405728	0.467681
	H278	H	0.475431	0.411473	0.453723
	O279	O	0.579374	0.547182	0.532342
	H280	H	0.582725	0.548315	0.537599
	H281	H	0.583522	0.541487	0.526318
	O282	O	1.038720	0.874148	-0.118782
	H283	H	1.036762	0.865081	-0.133992
	H284	H	1.040042	0.876025	-0.128979
	O285	O	0.959810	0.001987	1.022642
	H286	H	0.960628	-0.015976	1.027785
	H287	H	0.966864	0.001937	1.017856
	O288	O	0.496949	0.579617	0.540828
	H289	H	0.516394	0.588396	0.532151
	H290	H	0.490436	0.565033	0.539089
	O291	O	0.573306	0.618867	0.554806
	H292	H	0.562417	0.624213	0.559193
	H293	H	0.579608	0.625185	0.549688
	O294	O	0.421868	0.552437	0.420696
	H295	H	0.421419	0.553162	0.421980
	H296	H	0.413987	0.546250	0.424016
	O297	O	-0.564082	-0.382336	1.459356
	H298	H	-0.574484	-0.381986	1.466026
	H299	H	-0.569592	-0.388839	1.463120
	O300	O	0.145223	0.025416	0.003483
	H301	H	0.146221	0.016515	-0.013889
	H302	H	0.141481	0.030403	-0.007412
	O303	O	1.025937	0.995305	0.024697
	H304	H	1.019099	0.988207	0.022436
	H305	H	1.034746	0.993993	0.019191
	O306	O	0.063495	0.988422	0.913207
	H307	H	0.064618	1.003370	0.922802
	H308	H	0.046905	0.998084	0.911208
	O309	O	0.473187	0.543379	0.575744
	H310	H	0.475751	0.543372	0.574641
	H311	H	0.472388	0.543806	0.572201
	O312	O	-0.074195	-0.050876	0.148616
	H313	H	-0.075755	-0.066982	0.153494
	H314	H	-0.078861	-0.054320	0.134831
	O315	O	0.855659	0.010698	-0.009371
	H316	H	0.851309	0.012648	0.005005
	H317	H	0.852995	0.008920	-0.014549
	O318	O	0.907820	1.121047	1.046753
	H319	H	0.920575	1.118470	1.052919
	H320	H	0.910719	1.117656	1.061006
	O321	O	-0.081615	-0.915879	0.966995
	H322	H	-0.076029	-0.906502	0.980866
	H323	H	-0.083635	-0.918640	0.963428
	O324	O	0.437068	0.522647	0.574736
	H325	H	0.427782	0.517133	0.573841
	H326	H	0.433155	0.519206	0.575702
	O327	O	0.059521	-0.130154	-0.146255
	H328	H	0.063021	-0.124610	-0.145648
	H329	H	0.065368	-0.143024	-0.160284
	O330	O	0.425666	0.404068	0.487370
	H331	H	0.418730	0.410735	0.497168
	H332	H	0.424406	0.398555	0.490982
	O333	O	0.040661	0.934977	1.095749
	H334	H	0.052543	0.942381	1.102192
	H335	H	0.041393	0.936556	1.076794
	O336	O	0.102514	0.021577	0.009744
	H337	H	0.108730	0.022034	0.015252
	H338	H	0.087885	0.021644	-0.015721
	O339	O	0.531418	0.523999	0.556255
	H340	H	0.537470	0.519665	0.559176
	H341	H	0.531223	0.526536	0.553304
	O342	O	0.950181	0.927673	1.042647
	H343	H	0.927659	0.917261	1.038054
	H344	H	0.957241	0.930391	1.039885
	O345	O	1.000620	1.036129	-0.021579
	H346	H	0.988791	1.041609	-0.021655
	H347	H	1.002700	1.044152	-0.023905
	O348	O	0.613745	0.410964	0.394804
	H349	H	0.606942	0.418781	0.381886
	H350	H	0.614624	0.413053	0.390939
	O351	O	0.518500	0.529036	0.607994
	H352	H	0.517912	0.529353	0.620058
	H353	H	0.517861	0.521147	0.593382
	O354	O	0.990759	-0.107973	0.927921
	H355	H	0.996013	-0.097672	0.937131
	H356	H	0.980465	-0.102128	0.935230
	O357	O	0.822805	0.068509	1.028166
	H358	H	0.819841	0.058917	1.038988
	H359	H	0.809267	0.061732	1.030462
	O360	O	0.494652	0.514055	0.436555
	H361	H	0.478468	0.515853	0.427359
	H362	H	0.489856	0.512257	0.442507
	O363	O	0.611368	0.452878	0.430795
	H364	H	0.618298	0.447668	0.423942
	H365	H	0.614028	0.448963	0.414357
	O366	O	0.531145	1.437420	0.357662
	H367	H	0.537583	1.434721	0.355572
	H368	H	0.537705	1.431521	0.351950
	O369	O	0.932240	0.119986	1.091966
	H370	H	0.923032	0.092765	1.095843
	H371	H	0.940787	0.120912	1.103854
	O372	O	0.072395	0.164582	0.008270
	H373	H	0.058618	0.172643	0.002940
	H374	H	0.080732	0.162309	0.011333
	O375	O	1.100269	-0.012434	0.000395
	H376	H	1.103155	-0.009166	-0.000926
	H377	H	1.111292	-0.016625	0.006744
	O378	O	0.553067	0.555107	0.504285
	H379	H	0.543338	0.548785	0.510631
	H380	H	0.554719	0.559058	0.513473
	O381	O	0.502255	0.462885	0.498801
	H382	H	0.513046	0.464013	0.496886
	H383	H	0.511781	0.469325	0.499437
