data_Molecule from HDF5

_cell_length_a		16.292107
_cell_length_b		16.325379
_cell_length_c		16.271705
_cell_angle_alpha	90.005146
_cell_angle_beta	89.967957
_cell_angle_gamma	90.034308
_symmetry_space_group_name_H-M	'P 1'
_symmetry_Int_Tables_number		1

loop_
	_symmetry_equiv_pos_as_xyz
	x,y,z

loop_
	_atom_site_label
	_atom_site_type_symbol
	_atom_site_fract_x
	_atom_site_fract_y
	_atom_site_fract_z
	H0	H	0.401791	0.837305	0.714562
	H1	H	0.597328	0.163860	0.714200
	H2	H	0.598020	0.837027	0.285884
	H3	H	0.402424	0.164035	0.285627
	H4	H	0.714041	0.402038	0.835650
	H5	H	0.713360	0.597662	0.163683
	H6	H	0.286124	0.597821	0.835881
	H7	H	0.286279	0.402582	0.164310
	H8	H	0.836714	0.713973	0.402205
	H9	H	0.163647	0.714263	0.598226
	H10	H	0.836743	0.285321	0.598711
	H11	H	0.164495	0.285385	0.401485
	H12	H	0.835564	0.402180	0.713878
	H13	H	0.164107	0.597365	0.713749
	H14	H	0.836084	0.597011	0.286705
	H15	H	0.164207	0.402582	0.285824
	H16	H	0.401387	0.714143	0.835844
	H17	H	0.598393	0.713752	0.163522
	H18	H	0.597957	0.285493	0.835750
	H19	H	0.401228	0.286005	0.163569
	H20	H	0.714181	0.836768	0.402049
	H21	H	0.713021	0.163822	0.596678
	H22	H	0.284969	0.837172	0.598603
	H23	H	0.285675	0.163296	0.401756
	H24	H	0.901049	0.335900	0.214611
	H25	H	0.097739	0.663418	0.213819
	H26	H	0.097208	0.336066	0.786131
	H27	H	0.901740	0.663107	0.785457
	H28	H	0.214075	0.902293	0.335850
	H29	H	0.214329	0.098282	0.664201
	H30	H	0.786978	0.097934	0.335634
	H31	H	0.787356	0.902627	0.664589
	H32	H	0.336198	0.213913	0.902122
	H33	H	0.662576	0.216344	0.099485
	H34	H	0.335913	0.785804	0.098399
	H35	H	0.663552	0.785879	0.901495
	H36	H	0.336393	0.903362	0.213461
	H37	H	0.663952	0.097804	0.213196
	H38	H	0.336236	0.098146	0.785677
	H39	H	0.663903	0.902729	0.785776
	H40	H	0.902315	0.214616	0.336551
	H41	H	0.098711	0.214254	0.663783
	H42	H	0.098253	0.785414	0.336150
	H43	H	0.902099	0.785231	0.663657
	H44	H	0.214381	0.336460	0.901310
	H45	H	0.214527	0.662891	0.097653
	H46	H	0.785774	0.336260	0.097418
	H47	H	0.786241	0.663774	0.902526
	H48	H	0.410312	0.114790	0.590953
	H49	H	0.603466	0.879021	0.599959
	H50	H	0.585469	0.114346	0.405287
	H51	H	0.405792	0.883359	0.403796
	H52	H	0.592967	0.411640	0.115111
	H53	H	0.586511	0.597099	0.884496
	H54	H	0.406918	0.599735	0.118384
	H55	H	0.410636	0.400413	0.882215
	H56	H	0.118411	0.596274	0.402733
	H57	H	0.884829	0.589885	0.593290
	H58	H	0.117563	0.408212	0.596879
	H59	H	0.881437	0.402654	0.402213
	H60	H	0.116580	0.402625	0.593144
	H61	H	0.882004	0.595011	0.596229
	H62	H	0.116426	0.595436	0.411278
	H63	H	0.885482	0.403126	0.413623
	H64	H	0.401141	0.590142	0.116991
	H65	H	0.599629	0.597675	0.880120
	H66	H	0.588315	0.405745	0.114974
	H67	H	0.399542	0.405299	0.880725
	H68	H	0.596734	0.115277	0.414602
	H69	H	0.583631	0.885670	0.599103
	H70	H	0.403356	0.117242	0.591288
	H71	H	0.410450	0.885555	0.407471
	H72	H	0.899568	0.617626	0.094762
	H73	H	0.094322	0.384148	0.089411
	H74	H	0.077746	0.610559	0.910205
	H75	H	0.919413	0.386883	0.904763
	H76	H	0.085476	0.910156	0.612870
	H77	H	0.109735	0.089814	0.379554
	H78	H	0.909979	0.094462	0.616639
	H79	H	0.908804	0.910610	0.385215
	H80	H	0.613961	0.086197	0.907775
	H81	H	0.382625	0.090583	0.097332
	H82	H	0.613159	0.916307	0.091496
	H83	H	0.386546	0.913538	0.909385
	H84	H	0.619974	0.903242	0.102640
	H85	H	0.382568	0.097861	0.093269
	H86	H	0.618837	0.096328	0.899702
	H87	H	0.381296	0.905696	0.898795
	H88	H	0.904190	0.095222	0.617871
	H89	H	0.082740	0.081219	0.389852
	H90	H	0.093215	0.899307	0.619347
	H91	H	0.909769	0.901539	0.382915
	H92	H	0.105007	0.615877	0.919046
	H93	H	0.096003	0.381986	0.096653
	H94	H	0.910491	0.615474	0.098820
	H95	H	0.900748	0.386043	0.919039
	H96	H	0.408075	0.117394	0.597075
	H97	H	0.595506	0.887099	0.581977
	H98	H	0.598638	0.119400	0.399826
	H99	H	0.404921	0.885001	0.409823
	H100	H	0.595095	0.404993	0.117453
	H101	H	0.594371	0.586178	0.884727
	H102	H	0.412498	0.590570	0.114015
	H103	H	0.408415	0.411987	0.885377
	H104	H	0.115285	0.589304	0.405982
	H105	H	0.883873	0.595262	0.590786
	H106	H	0.115204	0.408848	0.590722
	H107	H	0.885331	0.412310	0.406498
	H108	H	0.907944	0.613732	0.086699
	H109	H	0.088620	0.384370	0.095538
	H110	H	0.097463	0.621644	0.891680
	H111	H	0.898760	0.379078	0.896408
	H112	H	0.099471	0.911525	0.616825
	H113	H	0.086843	0.109331	0.380685
	H114	H	0.905859	0.089223	0.615568
	H115	H	0.901112	0.906109	0.381358
	H116	H	0.615653	0.098455	0.912777
	H117	H	0.385128	0.090762	0.089349
	H118	H	0.616614	0.899455	0.084940
	H119	H	0.382696	0.899973	0.911950
	C120	C	0.378870	0.008730	0.621408
	C121	C	0.622058	0.991703	0.621925
	C122	C	0.622138	0.008333	0.378363
	C123	C	0.378707	0.992437	0.378301
	C124	C	0.620726	0.378906	0.007652
	C125	C	0.621129	0.621466	0.991675
	C126	C	0.378590	0.621569	0.008049
	C127	C	0.378249	0.378456	0.991557
	C128	C	0.008656	0.621508	0.378533
	C129	C	0.991841	0.621445	0.621390
	C130	C	0.008005	0.378424	0.621937
	C131	C	0.992434	0.378061	0.378722
	C132	C	0.877591	0.507702	0.121837
	C133	C	0.121599	0.491369	0.121911
	C134	C	0.121450	0.508090	0.878200
	C135	C	0.878151	0.491964	0.878602
	C136	C	0.121594	0.878506	0.508234
	C137	C	0.121630	0.121597	0.491778
	C138	C	0.878443	0.121320	0.508387
	C139	C	0.878544	0.878262	0.491774
	C140	C	0.508290	0.122077	0.878616
	C141	C	0.491621	0.121516	0.121353
	C142	C	0.508323	0.878059	0.121630
	C143	C	0.491733	0.878433	0.878545
	C144	C	0.380974	0.885759	0.676743
	C145	C	0.618642	0.115090	0.676467
	C146	C	0.618656	0.885619	0.324052
	C147	C	0.381685	0.115179	0.323154
	C148	C	0.675921	0.381316	0.884428
	C149	C	0.675739	0.618325	0.114848
	C150	C	0.324019	0.618449	0.884807
	C151	C	0.323840	0.381807	0.115203
	C152	C	0.885320	0.676101	0.381429
	C153	C	0.114950	0.676435	0.618964
	C154	C	0.885018	0.323865	0.618612
	C155	C	0.115660	0.323473	0.381340
	C156	C	0.884671	0.381744	0.676184
	C157	C	0.115094	0.618318	0.676166
	C158	C	0.885115	0.618297	0.323941
	C159	C	0.115702	0.381585	0.323886
	C160	C	0.381395	0.676174	0.884664
	C161	C	0.618791	0.676247	0.114663
	C162	C	0.618480	0.323353	0.884573
	C163	C	0.380570	0.323668	0.114907
	C164	C	0.676518	0.885387	0.381518
	C165	C	0.676424	0.114892	0.618646
	C166	C	0.323217	0.885900	0.618855
	C167	C	0.323826	0.114994	0.380886
	C168	C	0.880445	0.385063	0.176688
	C169	C	0.118373	0.614600	0.176107
	C170	C	0.118176	0.384897	0.823559
	C171	C	0.881310	0.614617	0.823602
	C172	C	0.176284	0.881643	0.384698
	C173	C	0.177010	0.119176	0.614937
	C174	C	0.824312	0.118363	0.384800
	C175	C	0.824612	0.881481	0.615323
	C176	C	0.384908	0.176591	0.881399
	C177	C	0.614331	0.177327	0.118995
	C178	C	0.384956	0.823714	0.118720
	C179	C	0.614666	0.823444	0.880889
	C180	C	0.385202	0.881622	0.176349
	C181	C	0.614762	0.118940	0.175910
	C182	C	0.384972	0.118852	0.823995
	C183	C	0.615028	0.881650	0.823673
	C184	C	0.881668	0.176131	0.384960
	C185	C	0.119143	0.176487	0.615055
	C186	C	0.118991	0.823443	0.384990
	C187	C	0.881501	0.823076	0.615026
	C188	C	0.175974	0.384872	0.881062
	C189	C	0.176336	0.614377	0.118285
	C190	C	0.822658	0.385183	0.118937
	C191	C	0.823619	0.614739	0.881363
	C192	C	0.400841	0.094328	0.599506
	C193	C	0.600461	0.906092	0.600338
	C194	C	0.600308	0.094324	0.400339
	C195	C	0.400588	0.906635	0.400490
	C196	C	0.598524	0.400819	0.093516
	C197	C	0.599620	0.600027	0.905388
	C198	C	0.400500	0.599906	0.094207
	C199	C	0.399843	0.399613	0.905128
	C200	C	0.094553	0.600058	0.400188
	C201	C	0.905870	0.599807	0.599703
	C202	C	0.094285	0.400146	0.600061
	C203	C	0.906275	0.399744	0.400806
	C204	C	0.899650	0.593709	0.099944
	C205	C	0.099632	0.405533	0.100215
	C206	C	0.099887	0.593692	0.900388
	C207	C	0.899858	0.406114	0.900359
	C208	C	0.099282	0.900576	0.594156
	C209	C	0.099547	0.099830	0.405544
	C210	C	0.900218	0.099759	0.594332
	C211	C	0.900258	0.899614	0.405358
	C212	C	0.593943	0.100169	0.900391
	C213	C	0.405446	0.099423	0.099776
	C214	C	0.594494	0.899826	0.099551
	C215	C	0.405660	0.900074	0.900258
	Zn216	Zn	0.500037	0.000345	0.750416
	Zn217	Zn	0.500388	0.000049	0.249896
	Zn218	Zn	0.749153	0.499986	-0.000405
	Zn219	Zn	0.250383	0.499568	-0.000292
	Zn220	Zn	0.000193	0.750088	0.500111
	Zn221	Zn	0.000423	0.249694	0.500462
	Zn222	Zn	-0.000059	0.499801	0.750164
	Zn223	Zn	-0.000105	0.499805	0.250773
	Zn224	Zn	0.499851	0.749711	-0.000038
	Zn225	Zn	0.499454	0.250093	-0.000058
	Zn226	Zn	0.750624	-0.000084	0.499838
	Zn227	Zn	0.249716	0.000367	0.499655
	N228	N	0.415004	0.962865	0.678303
	N229	N	0.585444	0.037526	0.678630
	N230	N	0.585691	0.963127	0.321877
	N231	N	0.415202	0.037861	0.321749
	N232	N	0.677458	0.414991	0.961902
	N233	N	0.677461	0.585191	0.037167
	N234	N	0.321990	0.585209	0.962544
	N235	N	0.322244	0.415050	0.037572
	N236	N	0.962909	0.678218	0.414623
	N237	N	0.037414	0.678350	0.585599
	N238	N	0.962797	0.321631	0.585752
	N239	N	0.037878	0.321309	0.414692
	N240	N	0.962265	0.414984	0.678078
	N241	N	0.037622	0.584726	0.677678
	N242	N	0.962653	0.584941	0.322098
	N243	N	0.038185	0.414774	0.322266
	N244	N	0.414576	0.678328	0.962469
	N245	N	0.585546	0.678282	0.037024
	N246	N	0.584587	0.322006	0.962018
	N247	N	0.413701	0.321456	0.037136
	N248	N	0.678570	0.962845	0.414603
	N249	N	0.678575	0.037535	0.585326
	N250	N	0.321920	0.963239	0.585077
	N251	N	0.321610	0.037680	0.414255
	N252	N	0.913982	0.462507	0.178691
	N253	N	0.084854	0.537176	0.178355
	N254	N	0.085010	0.462242	0.821937
	N255	N	0.914344	0.537132	0.821553
	N256	N	0.178136	0.915008	0.462407
	N257	N	0.178323	0.085527	0.537332
	N258	N	0.822426	0.085007	0.462447
	N259	N	0.822781	0.914974	0.537710
	N260	N	0.462331	0.178303	0.914995
	N261	N	0.536716	0.178977	0.085811
	N262	N	0.462614	0.821435	0.085506
	N263	N	0.537081	0.821475	0.914323
	N264	N	0.462940	0.914781	0.178108
	N265	N	0.537494	0.084645	0.177145
	N266	N	0.462545	0.085860	0.821855
	N267	N	0.537758	0.915301	0.822299
	N268	N	0.914708	0.178455	0.462714
	N269	N	0.085507	0.177986	0.537511
	N270	N	0.085664	0.821616	0.462698
	N271	N	0.914358	0.821033	0.537199
	N272	N	0.178545	0.462461	0.914237
	N273	N	0.178418	0.536819	0.085319
	N274	N	0.821032	0.462490	0.085424
	N275	N	0.821643	0.537449	0.914936
