data_Molecule from HDF5

_cell_length_a		16.295995
_cell_length_b		16.214134
_cell_length_c		16.323516
_cell_angle_alpha	90.066387
_cell_angle_beta	90.079525
_cell_angle_gamma	90.040252
_symmetry_space_group_name_H-M	'P 1'
_symmetry_Int_Tables_number		1

loop_
	_symmetry_equiv_pos_as_xyz
	x,y,z

loop_
	_atom_site_label
	_atom_site_type_symbol
	_atom_site_fract_x
	_atom_site_fract_y
	_atom_site_fract_z
	H0	H	0.403385	0.838969	0.719955
	H1	H	0.601066	0.167121	0.719655
	H2	H	0.602919	0.839698	0.289725
	H3	H	0.404234	0.167352	0.290386
	H4	H	0.717678	0.404829	0.841861
	H5	H	0.718280	0.602984	0.168244
	H6	H	0.287252	0.602851	0.842314
	H7	H	0.286909	0.402593	0.168556
	H8	H	0.839713	0.716047	0.407771
	H9	H	0.167475	0.716719	0.603906
	H10	H	0.839346	0.289239	0.602697
	H11	H	0.167244	0.288290	0.408942
	H12	H	0.839734	0.404638	0.720354
	H13	H	0.166394	0.601789	0.721800
	H14	H	0.840508	0.602235	0.289857
	H15	H	0.166274	0.400113	0.288943
	H16	H	0.404719	0.717139	0.841230
	H17	H	0.601829	0.717671	0.168784
	H18	H	0.600414	0.288923	0.841789
	H19	H	0.404755	0.287857	0.169163
	H20	H	0.715428	0.838833	0.406885
	H21	H	0.717564	0.166615	0.604196
	H22	H	0.289275	0.838934	0.603901
	H23	H	0.288511	0.167618	0.406357
	H24	H	0.905266	0.338217	0.218971
	H25	H	0.103604	0.666308	0.223258
	H26	H	0.102973	0.339501	0.791032
	H27	H	0.905056	0.667196	0.793160
	H28	H	0.218243	0.903696	0.342085
	H29	H	0.219725	0.103089	0.667854
	H30	H	0.787661	0.100783	0.342227
	H31	H	0.788720	0.905047	0.668402
	H32	H	0.339981	0.217420	0.906270
	H33	H	0.667566	0.216479	0.103090
	H34	H	0.340200	0.787392	0.103589
	H35	H	0.667715	0.790519	0.908975
	H36	H	0.340106	0.902518	0.220806
	H37	H	0.666094	0.103789	0.222084
	H38	H	0.340533	0.103881	0.788789
	H39	H	0.666232	0.903728	0.790498
	H40	H	0.903278	0.217590	0.341883
	H41	H	0.100732	0.216019	0.668850
	H42	H	0.100828	0.787955	0.341693
	H43	H	0.906053	0.789838	0.669069
	H44	H	0.218560	0.339379	0.906526
	H45	H	0.217523	0.668130	0.105709
	H46	H	0.788153	0.339275	0.104747
	H47	H	0.790539	0.667602	0.908643
	H48	H	0.408485	0.121114	0.599727
	H49	H	0.599763	0.883567	0.602610
	H50	H	0.592728	0.118032	0.416663
	H51	H	0.397516	0.882697	0.412943
	H52	H	0.606121	0.414759	0.122792
	H53	H	0.595889	0.589983	0.891533
	H54	H	0.406495	0.589095	0.120261
	H55	H	0.416379	0.421221	0.895106
	H56	H	0.120739	0.591378	0.409286
	H57	H	0.885421	0.596097	0.604489
	H58	H	0.123017	0.409442	0.610417
	H59	H	0.888707	0.408800	0.418163
	H60	H	0.119878	0.400711	0.593909
	H61	H	0.885627	0.600058	0.598678
	H62	H	0.121449	0.600376	0.415107
	H63	H	0.888261	0.415070	0.409715
	H64	H	0.418403	0.595749	0.118530
	H65	H	0.593679	0.601707	0.888202
	H66	H	0.588794	0.416579	0.117467
	H67	H	0.416146	0.399978	0.888729
	H68	H	0.599481	0.121637	0.414178
	H69	H	0.591064	0.885908	0.600553
	H70	H	0.414020	0.119162	0.599633
	H71	H	0.418300	0.884763	0.401084
	H72	H	0.918967	0.617551	0.099797
	H73	H	0.089900	0.389306	0.096657
	H74	H	0.091953	0.621449	0.904801
	H75	H	0.915957	0.388986	0.918233
	H76	H	0.097304	0.916832	0.619107
	H77	H	0.108890	0.097671	0.384614
	H78	H	0.908892	0.096237	0.622130
	H79	H	0.900744	0.912971	0.387272
	H80	H	0.618777	0.089714	0.908736
	H81	H	0.389212	0.090400	0.098064
	H82	H	0.621429	0.903283	0.099164
	H83	H	0.385264	0.908565	0.910207
	H84	H	0.616872	0.914879	0.092593
	H85	H	0.385055	0.097196	0.103129
	H86	H	0.622610	0.101721	0.908127
	H87	H	0.387762	0.909366	0.914253
	H88	H	0.909751	0.094210	0.620726
	H89	H	0.092287	0.081260	0.394474
	H90	H	0.091046	0.905522	0.621181
	H91	H	0.915601	0.912861	0.392214
	H92	H	0.090713	0.616054	0.921669
	H93	H	0.100286	0.386163	0.092868
	H94	H	0.907501	0.618904	0.091835
	H95	H	0.903183	0.384341	0.915579
	H96	H	0.410350	0.118867	0.595432
	H97	H	0.597851	0.886105	0.594150
	H98	H	0.593310	0.120648	0.409444
	H99	H	0.416695	0.892076	0.424514
	H100	H	0.594668	0.401066	0.123715
	H101	H	0.604293	0.597118	0.886464
	H102	H	0.407012	0.602193	0.124253
	H103	H	0.397843	0.412121	0.886974
	H104	H	0.116848	0.591620	0.419336
	H105	H	0.888080	0.592747	0.598459
	H106	H	0.116006	0.418895	0.595445
	H107	H	0.885198	0.405373	0.408615
	H108	H	0.907703	0.623832	0.105880
	H109	H	0.097229	0.384791	0.104088
	H110	H	0.105567	0.623003	0.916002
	H111	H	0.912921	0.383238	0.906332
	H112	H	0.103440	0.906475	0.624420
	H113	H	0.085199	0.104687	0.389174
	H114	H	0.911486	0.096577	0.621282
	H115	H	0.908943	0.900138	0.385296
	H116	H	0.618405	0.097111	0.918694
	H117	H	0.387367	0.098924	0.094999
	H118	H	0.620735	0.915057	0.105758
	H119	H	0.387298	0.912701	0.911131
	C120	C	0.381861	0.011485	0.626861
	C121	C	0.624402	0.994204	0.626989
	C122	C	0.623822	0.011640	0.384456
	C123	C	0.382077	0.995058	0.384190
	C124	C	0.625052	0.381756	0.013450
	C125	C	0.625744	0.625158	0.996666
	C126	C	0.381804	0.624942	0.013441
	C127	C	0.381304	0.381604	0.997858
	C128	C	0.011476	0.623370	0.385180
	C129	C	0.994876	0.624662	0.628503
	C130	C	0.011596	0.381245	0.627769
	C131	C	0.995281	0.380624	0.384041
	C132	C	0.882294	0.511511	0.127426
	C133	C	0.124693	0.495109	0.127274
	C134	C	0.124802	0.511600	0.884963
	C135	C	0.882464	0.494681	0.885079
	C136	C	0.125406	0.880832	0.513470
	C137	C	0.124447	0.123777	0.497053
	C138	C	0.880781	0.124352	0.513626
	C139	C	0.880648	0.880687	0.496483
	C140	C	0.511689	0.124549	0.883525
	C141	C	0.495259	0.124580	0.127380
	C142	C	0.511618	0.881807	0.127280
	C143	C	0.494924	0.881606	0.883986
	C144	C	0.383605	0.887885	0.682100
	C145	C	0.621965	0.117901	0.681991
	C146	C	0.621983	0.888404	0.328554
	C147	C	0.383513	0.118292	0.328266
	C148	C	0.679981	0.384449	0.890759
	C149	C	0.680237	0.623305	0.119635
	C150	C	0.325704	0.622978	0.890840
	C151	C	0.325552	0.382994	0.120295
	C152	C	0.888574	0.678295	0.387353
	C153	C	0.118217	0.679429	0.625070
	C154	C	0.888044	0.327036	0.623742
	C155	C	0.118303	0.325447	0.387544
	C156	C	0.888434	0.384059	0.682332
	C157	C	0.117754	0.622401	0.683620
	C158	C	0.888848	0.621461	0.329094
	C159	C	0.117849	0.381254	0.328096
	C160	C	0.384800	0.679169	0.890111
	C161	C	0.622113	0.679945	0.119846
	C162	C	0.621615	0.327063	0.890436
	C163	C	0.384081	0.325894	0.120484
	C164	C	0.677935	0.887886	0.386801
	C165	C	0.679688	0.117688	0.624551
	C166	C	0.327078	0.887786	0.623982
	C167	C	0.326537	0.118595	0.386288
	C168	C	0.885072	0.387416	0.181173
	C169	C	0.123399	0.618113	0.183972
	C170	C	0.122687	0.388342	0.829424
	C171	C	0.884858	0.618144	0.830314
	C172	C	0.180567	0.882697	0.390897
	C173	C	0.180835	0.122625	0.619563
	C174	C	0.825104	0.122182	0.390812
	C175	C	0.826538	0.884409	0.619789
	C176	C	0.388619	0.179595	0.885885
	C177	C	0.618418	0.179498	0.124455
	C178	C	0.388827	0.825832	0.124508
	C179	C	0.618527	0.827476	0.887681
	C180	C	0.388819	0.883160	0.182455
	C181	C	0.617696	0.123146	0.183346
	C182	C	0.388944	0.122859	0.827783
	C183	C	0.617898	0.883852	0.828981
	C184	C	0.883128	0.179508	0.390496
	C185	C	0.121899	0.178892	0.619981
	C186	C	0.122017	0.825453	0.390657
	C187	C	0.884935	0.827427	0.620180
	C188	C	0.180386	0.388307	0.886669
	C189	C	0.180146	0.618744	0.125813
	C190	C	0.826583	0.388186	0.124821
	C191	C	0.828065	0.618462	0.888027
	C192	C	0.404333	0.097526	0.604744
	C193	C	0.602621	0.907540	0.605444
	C194	C	0.601703	0.097859	0.406850
	C195	C	0.404352	0.908923	0.406262
	C196	C	0.603016	0.404106	0.099160
	C197	C	0.604106	0.602878	0.910724
	C198	C	0.404059	0.602265	0.098948
	C199	C	0.403614	0.404546	0.912546
	C200	C	0.097430	0.600821	0.407849
	C201	C	0.908641	0.602767	0.606842
	C202	C	0.097386	0.403096	0.606328
	C203	C	0.909512	0.403102	0.405663
	C204	C	0.904893	0.597792	0.105783
	C205	C	0.102295	0.409219	0.104683
	C206	C	0.102427	0.597753	0.907321
	C207	C	0.904247	0.407980	0.906998
	C208	C	0.103628	0.903087	0.599386
	C209	C	0.102085	0.101206	0.411434
	C210	C	0.903283	0.102094	0.599104
	C211	C	0.902042	0.902120	0.410527
	C212	C	0.597651	0.102561	0.905285
	C213	C	0.409468	0.102149	0.105002
	C214	C	0.597575	0.904408	0.105484
	C215	C	0.408921	0.903647	0.905606
	Zn216	Zn	0.502715	0.002768	0.755444
	Zn217	Zn	0.503630	0.002983	0.256154
	Zn218	Zn	0.754318	0.503537	0.005539
	Zn219	Zn	0.252987	0.503734	0.005931
	Zn220	Zn	0.002854	0.752587	0.505622
	Zn221	Zn	0.002918	0.252435	0.505314
	Zn222	Zn	0.003188	0.503182	0.757060
	Zn223	Zn	0.003730	0.502710	0.255862
	Zn224	Zn	0.503596	0.753278	0.005071
	Zn225	Zn	0.503160	0.252530	0.005402
	Zn226	Zn	0.752269	0.002627	0.505005
	Zn227	Zn	0.253716	0.003331	0.505080
	N228	N	0.416924	0.965845	0.684005
	N229	N	0.588170	0.040120	0.683587
	N230	N	0.588825	0.966333	0.327113
	N231	N	0.417120	0.040525	0.326745
	N232	N	0.681997	0.417781	0.968294
	N233	N	0.682536	0.589801	0.042254
	N234	N	0.323629	0.590106	0.968641
	N235	N	0.323708	0.416912	0.043143
	N236	N	0.965799	0.679328	0.421603
	N237	N	0.040591	0.681067	0.591489
	N238	N	0.965529	0.325013	0.590497
	N239	N	0.041203	0.325226	0.421621
	N240	N	0.966147	0.417258	0.684798
	N241	N	0.040263	0.588993	0.685499
	N242	N	0.966540	0.587965	0.327696
	N243	N	0.040327	0.414976	0.325720
	N244	N	0.418778	0.680638	0.967344
	N245	N	0.588792	0.681193	0.042201
	N246	N	0.588098	0.325220	0.967831
	N247	N	0.417715	0.324644	0.043225
	N248	N	0.679198	0.965497	0.420915
	N249	N	0.681342	0.039768	0.591203
	N250	N	0.325642	0.965387	0.590407
	N251	N	0.325360	0.040842	0.420133
	N252	N	0.919100	0.465072	0.182978
	N253	N	0.089709	0.540351	0.185001
	N254	N	0.088804	0.465987	0.828309
	N255	N	0.918085	0.540171	0.828721
	N256	N	0.182728	0.916376	0.468228
	N257	N	0.182605	0.089181	0.542098
	N258	N	0.823887	0.088271	0.468027
	N259	N	0.823642	0.916760	0.541925
	N260	N	0.465752	0.180577	0.920100
	N261	N	0.541056	0.180537	0.090377
	N262	N	0.466147	0.824679	0.091020
	N263	N	0.541093	0.826207	0.921287
	N264	N	0.466326	0.917104	0.184372
	N265	N	0.540059	0.089679	0.185139
	N266	N	0.466579	0.089336	0.826198
	N267	N	0.540134	0.916583	0.826477
	N268	N	0.916919	0.181124	0.467853
	N269	N	0.087550	0.179752	0.542900
	N270	N	0.088441	0.824280	0.468095
	N271	N	0.918026	0.825061	0.542791
	N272	N	0.181710	0.466073	0.920558
	N273	N	0.181295	0.541200	0.091369
	N274	N	0.824781	0.466267	0.091937
	N275	N	0.826623	0.540581	0.921422
	O276	O	0.457505	0.476475	0.411166
	H277	H	0.453102	0.486385	0.401544
	H278	H	0.456983	0.479922	0.408662
	O279	O	0.059885	0.063652	-0.017995
	H280	H	0.064196	0.073668	-0.023550
	H281	H	0.062787	0.051603	-0.024357
	O282	O	0.534725	0.567286	0.443490
	H283	H	0.536969	0.567526	0.448246
	H284	H	0.534084	0.570731	0.447680
	O285	O	0.533332	0.560198	0.490392
	H286	H	0.527225	0.560963	0.486897
	H287	H	0.541752	0.553103	0.488585
	O288	O	1.072503	0.026846	-0.007722
	H289	H	1.070684	0.025205	-0.006246
	H290	H	1.073853	0.038567	-0.008171
	O291	O	-0.528428	0.533999	-0.556387
	H292	H	-0.527639	0.533930	-0.560135
	H293	H	-0.534789	0.537167	-0.556294
	O294	O	0.538593	0.500656	0.429193
	H295	H	0.536314	0.500315	0.423902
	H296	H	0.537874	0.497178	0.428628
	O297	O	0.063210	1.034155	0.015814
	H298	H	0.062332	1.029887	0.026092
	H299	H	0.056836	1.035368	0.018302
	O300	O	1.035863	0.034990	0.984338
	H301	H	1.041897	0.037934	0.976847
	H302	H	1.032440	0.034623	0.992627
	O303	O	0.488162	0.533877	0.460872
	H304	H	0.481474	0.535007	0.464441
	H305	H	0.495411	0.533902	0.470163
	O306	O	0.056941	1.075606	0.998277
	H307	H	0.061836	1.069136	0.990911
	H308	H	0.055265	1.081394	1.003335
	O309	O	0.554840	0.514980	0.446738
	H310	H	0.552966	0.511927	0.441996
	H311	H	0.557459	0.515964	0.445646
