data_Molecule from HDF5

_cell_length_a		16.557267
_cell_length_b		16.362422
_cell_length_c		16.317230
_cell_angle_alpha	89.785662
_cell_angle_beta	90.046751
_cell_angle_gamma	89.940877
_symmetry_space_group_name_H-M	'P 1'
_symmetry_Int_Tables_number		1

loop_
	_symmetry_equiv_pos_as_xyz
	x,y,z

loop_
	_atom_site_label
	_atom_site_type_symbol
	_atom_site_fract_x
	_atom_site_fract_y
	_atom_site_fract_z
	H0	H	0.395566	0.839215	0.714544
	H1	H	0.608036	0.155719	0.716121
	H2	H	0.604843	0.838629	0.274915
	H3	H	0.393627	0.155383	0.266583
	H4	H	0.729221	0.385182	0.836127
	H5	H	0.725598	0.603296	0.149005
	H6	H	0.278323	0.608091	0.833782
	H7	H	0.279958	0.390201	0.150254
	H8	H	0.844781	0.720967	0.385410
	H9	H	0.157961	0.721071	0.598529
	H10	H	0.846476	0.273386	0.601568
	H11	H	0.158761	0.274244	0.385267
	H12	H	0.845701	0.390542	0.717064
	H13	H	0.157825	0.605521	0.715934
	H14	H	0.844807	0.602440	0.269806
	H15	H	0.159019	0.390917	0.270859
	H16	H	0.397711	0.719147	0.833511
	H17	H	0.605924	0.714915	0.151895
	H18	H	0.610510	0.272563	0.834663
	H19	H	0.394317	0.275096	0.150795
	H20	H	0.725530	0.841840	0.385781
	H21	H	0.728505	0.154351	0.606965
	H22	H	0.276633	0.841746	0.601783
	H23	H	0.274858	0.155309	0.378416
	H24	H	0.897428	0.338034	0.213591
	H25	H	0.103289	0.657250	0.208895
	H26	H	0.105062	0.338154	0.773721
	H27	H	0.899485	0.658265	0.773616
	H28	H	0.221516	0.895078	0.332975
	H29	H	0.228258	0.109592	0.648866
	H30	H	0.777235	0.109543	0.335376
	H31	H	0.778632	0.888251	0.651489
	H32	H	0.344554	0.220643	0.885101
	H33	H	0.657727	0.222670	0.101766
	H34	H	0.343899	0.778769	0.095088
	H35	H	0.660052	0.775847	0.888039
	H36	H	0.343533	0.896176	0.210631
	H37	H	0.658677	0.104265	0.214951
	H38	H	0.343871	0.102740	0.770007
	H39	H	0.659283	0.890391	0.770186
	H40	H	0.896951	0.220246	0.333733
	H41	H	0.106314	0.216811	0.652956
	H42	H	0.104206	0.780468	0.332740
	H43	H	0.897387	0.776769	0.651981
	H44	H	0.226220	0.340330	0.882722
	H45	H	0.221135	0.655760	0.094883
	H46	H	0.777345	0.339957	0.103161
	H47	H	0.778064	0.654866	0.882655
	H48	H	0.415819	0.110450	0.578006
	H49	H	0.596095	0.884498	0.576458
	H50	H	0.591979	0.111895	0.407915
	H51	H	0.406758	0.884577	0.406424
	H52	H	0.585606	0.412440	0.102658
	H53	H	0.595494	0.583604	0.877063
	H54	H	0.412070	0.588275	0.106834
	H55	H	0.414288	0.411688	0.879652
	H56	H	0.112094	0.591574	0.410616
	H57	H	0.886945	0.594156	0.580709
	H58	H	0.113718	0.408473	0.580216
	H59	H	0.889018	0.406895	0.403154
	H60	H	0.113488	0.409793	0.580462
	H61	H	0.891884	0.584645	0.576620
	H62	H	0.113314	0.580896	0.397726
	H63	H	0.892409	0.410107	0.407795
	H64	H	0.407449	0.586114	0.108529
	H65	H	0.587197	0.581117	0.880257
	H66	H	0.590361	0.406958	0.105787
	H67	H	0.414322	0.410504	0.878198
	H68	H	0.589974	0.113119	0.402954
	H69	H	0.589581	0.883555	0.585352
	H70	H	0.413822	0.110259	0.577021
	H71	H	0.411481	0.883648	0.400002
	H72	H	0.918965	0.605786	0.072961
	H73	H	0.091179	0.382908	0.079867
	H74	H	0.091350	0.612758	0.900637
	H75	H	0.914278	0.385564	0.908728
	H76	H	0.089476	0.912310	0.606267
	H77	H	0.091988	0.088015	0.377662
	H78	H	0.908845	0.083385	0.607415
	H79	H	0.917328	0.906575	0.379510
	H80	H	0.611384	0.076900	0.902805
	H81	H	0.390387	0.085691	0.079402
	H82	H	0.616190	0.903161	0.084595
	H83	H	0.388378	0.906300	0.902043
	H84	H	0.615853	0.906245	0.082191
	H85	H	0.390786	0.085264	0.078819
	H86	H	0.616581	0.090777	0.901415
	H87	H	0.390572	0.907426	0.905770
	H88	H	0.917255	0.080935	0.603719
	H89	H	0.090349	0.083508	0.379684
	H90	H	0.090275	0.909320	0.607438
	H91	H	0.905740	0.910937	0.376648
	H92	H	0.090512	0.610812	0.905767
	H93	H	0.094655	0.381806	0.080088
	H94	H	0.905336	0.611332	0.075840
	H95	H	0.912261	0.383627	0.905153
	H96	H	0.413785	0.110224	0.579253
	H97	H	0.585913	0.888337	0.575780
	H98	H	0.586494	0.111276	0.407062
	H99	H	0.414935	0.887006	0.406732
	H100	H	0.592868	0.414558	0.104762
	H101	H	0.588209	0.589538	0.876358
	H102	H	0.410958	0.583600	0.105888
	H103	H	0.413450	0.411267	0.877851
	H104	H	0.119269	0.596205	0.396541
	H105	H	0.887950	0.584639	0.587742
	H106	H	0.114512	0.409080	0.581723
	H107	H	0.890331	0.412901	0.402039
	H108	H	0.915990	0.612481	0.086816
	H109	H	0.091961	0.381758	0.083329
	H110	H	0.095372	0.612540	0.905170
	H111	H	0.916669	0.385493	0.904576
	H112	H	0.092334	0.911288	0.607277
	H113	H	0.086965	0.087988	0.379712
	H114	H	0.916366	0.090413	0.606919
	H115	H	0.913825	0.918438	0.381980
	H116	H	0.610014	0.085822	0.913943
	H117	H	0.390880	0.085128	0.079548
	H118	H	0.616795	0.906994	0.085781
	H119	H	0.390468	0.910399	0.902195
	C120	C	0.380856	0.006326	0.612532
	C121	C	0.624294	0.989326	0.614712
	C122	C	0.622473	0.007514	0.372735
	C123	C	0.378691	0.989469	0.369930
	C124	C	0.623704	0.376035	0.000689
	C125	C	0.622932	0.617508	0.982848
	C126	C	0.379497	0.618518	0.001227
	C127	C	0.381166	0.377443	0.983520
	C128	C	0.010847	0.621103	0.369257
	C129	C	0.993010	0.620197	0.613950
	C130	C	0.010479	0.376010	0.614660
	C131	C	0.993988	0.376366	0.371290
	C132	C	0.880734	0.505250	0.112719
	C133	C	0.123272	0.487925	0.112764
	C134	C	0.124518	0.507312	0.870470
	C135	C	0.881310	0.489280	0.871914
	C136	C	0.122095	0.878761	0.501349
	C137	C	0.123732	0.119869	0.483691
	C138	C	0.880723	0.119565	0.501591
	C139	C	0.879714	0.877604	0.484365
	C140	C	0.509226	0.118277	0.871730
	C141	C	0.493483	0.119450	0.113913
	C142	C	0.511394	0.875005	0.114927
	C143	C	0.493599	0.875086	0.870599
	C144	C	0.377380	0.887183	0.674100
	C145	C	0.626659	0.107844	0.676576
	C146	C	0.624436	0.887446	0.313121
	C147	C	0.375664	0.108214	0.307015
	C148	C	0.687064	0.369307	0.882906
	C149	C	0.684410	0.620690	0.102031
	C150	C	0.318972	0.623937	0.881783
	C151	C	0.320108	0.372871	0.102604
	C152	C	0.892230	0.680841	0.367008
	C153	C	0.110836	0.681191	0.616864
	C154	C	0.893014	0.314217	0.618912
	C155	C	0.111709	0.315107	0.368038
	C156	C	0.892838	0.372473	0.676613
	C157	C	0.110906	0.623501	0.675232
	C158	C	0.892084	0.622066	0.309399
	C159	C	0.112027	0.373112	0.310482
	C160	C	0.378392	0.679723	0.881398
	C161	C	0.625100	0.676308	0.103452
	C162	C	0.627872	0.313116	0.882131
	C163	C	0.377431	0.315515	0.102719
	C164	C	0.684444	0.888908	0.368447
	C165	C	0.686774	0.107050	0.621689
	C166	C	0.318143	0.888557	0.617995
	C167	C	0.316494	0.107978	0.363059
	C168	C	0.878460	0.386038	0.174228
	C169	C	0.123267	0.608742	0.170545
	C170	C	0.125125	0.386797	0.811489
	C171	C	0.879649	0.609578	0.812041
	C172	C	0.181520	0.876842	0.380959
	C173	C	0.186563	0.125343	0.602001
	C174	C	0.818392	0.125533	0.382951
	C175	C	0.819057	0.872142	0.603578
	C176	C	0.391679	0.180017	0.867482
	C177	C	0.610866	0.181434	0.118442
	C178	C	0.391647	0.817425	0.114880
	C179	C	0.612220	0.814700	0.868518
	C180	C	0.391589	0.875769	0.172461
	C181	C	0.611414	0.122564	0.175257
	C182	C	0.391283	0.121209	0.810117
	C183	C	0.611910	0.872154	0.810033
	C184	C	0.878016	0.180817	0.382007
	C185	C	0.125652	0.178946	0.604128
	C186	C	0.123207	0.819723	0.380871
	C187	C	0.878787	0.816782	0.604290
	C188	C	0.185409	0.387781	0.866051
	C189	C	0.181813	0.608125	0.113768
	C190	C	0.819002	0.386915	0.118462
	C191	C	0.819478	0.608044	0.866625
	C192	C	0.407023	0.088844	0.585814
	C193	C	0.598197	0.906855	0.586854
	C194	C	0.596720	0.090304	0.398589
	C195	C	0.403859	0.906685	0.397000
	C196	C	0.597166	0.403485	0.082819
	C197	C	0.597670	0.592099	0.899611
	C198	C	0.403444	0.593084	0.085252
	C199	C	0.406831	0.403799	0.900364
	C200	C	0.093227	0.596483	0.394273
	C201	C	0.910461	0.594865	0.588994
	C202	C	0.092433	0.401726	0.588470
	C203	C	0.912009	0.402570	0.396898
	C204	C	0.906169	0.588229	0.086140
	C205	C	0.099577	0.404005	0.088318
	C206	C	0.099673	0.590346	0.896427
	C207	C	0.906905	0.406514	0.898483
	C208	C	0.097706	0.903747	0.585141
	C209	C	0.097420	0.093930	0.400602
	C210	C	0.906688	0.092675	0.584518
	C211	C	0.905081	0.904350	0.400935
	C212	C	0.591344	0.091973	0.898388
	C213	C	0.411801	0.092936	0.087127
	C214	C	0.594496	0.898604	0.091181
	C215	C	0.411384	0.900576	0.896044
	Zn216	Zn	0.501533	-0.003020	0.741491
	Zn217	Zn	0.501872	-0.001845	0.243336
	Zn218	Zn	0.751920	0.497315	-0.008268
	Zn219	Zn	0.251875	0.496688	-0.008467
	Zn220	Zn	0.001349	0.749427	0.492450
	Zn221	Zn	0.002270	0.247246	0.493351
	Zn222	Zn	0.002083	0.498194	0.743532
	Zn223	Zn	0.001980	0.497124	0.241531
	Zn224	Zn	0.501931	0.745659	-0.007034
	Zn225	Zn	0.501720	0.248537	-0.007850
	Zn226	Zn	0.752044	-0.000839	0.493148
	Zn227	Zn	0.251468	-0.000825	0.492139
	N228	N	0.415863	0.961365	0.670588
	N229	N	0.588211	0.033566	0.672195
	N230	N	0.586863	0.962412	0.315164
	N231	N	0.413606	0.033580	0.311128
	N232	N	0.684649	0.407575	0.957652
	N233	N	0.683205	0.584978	0.026044
	N234	N	0.319691	0.586485	0.957257
	N235	N	0.322266	0.410726	0.027301
	N236	N	0.966981	0.680403	0.403392
	N237	N	0.036569	0.678969	0.579252
	N238	N	0.967093	0.316405	0.581180
	N239	N	0.037263	0.316867	0.404991
	N240	N	0.966904	0.410299	0.674136
	N241	N	0.036784	0.586180	0.673469
	N242	N	0.966769	0.585611	0.310557
	N243	N	0.037790	0.410869	0.312484
	N244	N	0.415429	0.676454	0.956794
	N245	N	0.587384	0.674438	0.028472
	N246	N	0.589123	0.317206	0.956373
	N247	N	0.414974	0.318267	0.027617
	N248	N	0.683571	0.964554	0.404411
	N249	N	0.685178	0.032092	0.583865
	N250	N	0.320165	0.963755	0.580322
	N251	N	0.318206	0.033111	0.401601
	N252	N	0.916534	0.460630	0.170522
	N253	N	0.087927	0.532886	0.170409
	N254	N	0.088166	0.462052	0.813977
	N255	N	0.917364	0.534768	0.815135
	N256	N	0.180940	0.912892	0.456972
	N257	N	0.185534	0.089643	0.525972
	N258	N	0.819754	0.088342	0.458552
	N259	N	0.819885	0.909644	0.528071
	N260	N	0.466166	0.178419	0.904555
	N261	N	0.536324	0.179906	0.081320
	N262	N	0.467223	0.816530	0.080068
	N263	N	0.537640	0.816240	0.905437
	N264	N	0.466903	0.910577	0.172788
	N265	N	0.537354	0.084791	0.172487
	N266	N	0.465781	0.083707	0.812488
	N267	N	0.537207	0.908877	0.811209
	N268	N	0.916187	0.177072	0.456799
	N269	N	0.087275	0.175765	0.529410
	N270	N	0.087118	0.820769	0.456695
	N271	N	0.915579	0.819927	0.528787
	N272	N	0.185563	0.463891	0.901485
	N273	N	0.182111	0.531761	0.078799
	N274	N	0.820338	0.462211	0.080858
	N275	N	0.820051	0.532117	0.902959
	O276	O	0.219176	0.758928	0.338589
	H277	H	0.206741	0.757538	0.329969
	H278	H	0.211484	0.776896	0.328956
	O279	O	0.563796	0.346989	0.611406
	H280	H	0.543731	0.341584	0.619981
	H281	H	0.557859	0.343810	0.614149
	O282	O	0.480285	0.279793	0.711399
	H283	H	0.433642	0.286168	0.703998
	H284	H	0.468566	0.249334	0.739465
	O285	O	0.930792	0.971124	-0.052793
	H286	H	0.927424	0.974800	-0.056629
	H287	H	0.934131	0.970505	-0.054208
	O288	O	0.321128	0.442968	0.407782
	H289	H	0.325375	0.412492	0.417110
	H290	H	0.308033	0.448901	0.426703
	O291	O	0.703295	0.415082	0.571986
	H292	H	0.692612	0.418584	0.578256
	H293	H	0.703584	0.420905	0.565235
	O294	O	0.898023	0.828676	1.127881
	H295	H	0.870844	0.807781	1.155805
	H296	H	0.910662	0.813203	1.102466
	O297	O	0.283727	0.476828	0.707690
	H298	H	0.292645	0.492804	0.728547
	H299	H	0.286383	0.490925	0.733405
	O300	O	0.528724	0.476073	0.477404
	H301	H	0.520227	0.462964	0.473375
	H302	H	0.536880	0.492037	0.475692
	O303	O	0.720834	0.508444	0.570123
	H304	H	0.717537	0.502582	0.579288
	H305	H	0.715346	0.509598	0.569059
	O306	O	-0.108267	-0.162414	0.976982
	H307	H	-0.106604	-0.165426	0.972996
	H308	H	-0.098165	-0.149950	0.961690
	O309	O	1.043065	-0.024082	-0.051589
	H310	H	1.041219	-0.039895	-0.052751
	H311	H	1.034201	-0.024371	-0.045246
	O312	O	0.653052	0.614259	0.314808
	H313	H	0.638829	0.612779	0.329094
	H314	H	0.638841	0.609022	0.327863
	O315	O	0.642071	0.295958	0.365716
	H316	H	0.661165	0.284218	0.365439
	H317	H	0.646728	0.307113	0.364164
	O318	O	-0.085067	0.070729	-0.129116
	H319	H	-0.094041	0.067112	-0.132373
	H320	H	-0.077129	0.072275	-0.104652
	O321	O	0.485763	0.723987	0.411838
	H322	H	0.458476	0.727875	0.412270
	H323	H	0.475407	0.739609	0.408466
	O324	O	0.961841	0.055921	0.961453
	H325	H	0.967920	0.064849	0.954545
	H326	H	0.955330	0.066194	0.973383
	O327	O	0.703380	0.579457	0.690485
	H328	H	0.711093	0.554313	0.709629
	H329	H	0.703391	0.577246	0.676295
	O330	O	-0.107775	1.070402	1.115662
	H331	H	-0.117252	1.075558	1.127498
	H332	H	-0.102525	1.067503	1.133353
	O333	O	0.083266	1.100760	-0.082808
	H334	H	0.061001	1.098682	-0.072432
	H335	H	0.063752	1.118072	-0.095212
	O336	O	1.166291	1.070876	0.123773
	H337	H	1.165459	1.064934	0.116554
	H338	H	1.176289	1.069245	0.136458
	O339	O	-0.078857	0.910335	1.068902
	H340	H	-0.096525	0.930944	1.061485
	H341	H	-0.088702	0.888420	1.070400
	O342	O	0.290686	0.613462	0.495703
	H343	H	0.287157	0.596907	0.522678
	H344	H	0.278920	0.632656	0.495700
	O345	O	-0.098188	-0.180692	1.158615
	H346	H	-0.115198	-0.165113	1.156125
	H347	H	-0.108856	-0.197992	1.150046
	O348	O	0.556660	0.467888	0.290842
	H349	H	0.557072	0.470389	0.287632
	H350	H	0.541112	0.480586	0.295507
	O351	O	1.011122	0.875652	-0.167019
	H352	H	1.023379	0.868193	-0.160671
	H353	H	1.017590	0.878961	-0.174229
	O354	O	1.125381	0.872712	0.879102
	H355	H	1.124817	0.874535	0.876483
	H356	H	1.120827	0.871203	0.869492
	O357	O	-0.034801	0.145309	0.089746
	H358	H	-0.051372	0.131300	0.095237
	H359	H	-0.044472	0.146598	0.103001
	O360	O	0.584622	0.460935	0.346227
	H361	H	0.575337	0.458596	0.357720
	H362	H	0.587449	0.486535	0.354377
	O363	O	0.988009	0.042161	-0.138040
	H364	H	0.965641	0.034435	-0.133947
	H365	H	0.985176	0.052475	-0.155977
	O366	O	-0.608047	-0.436912	1.642712
	H367	H	-0.590243	-0.447415	1.627224
	H368	H	-0.595838	-0.432722	1.653747
	O369	O	1.151539	-0.102230	0.905771
	H370	H	1.154158	-0.093828	0.892369
	H371	H	1.152988	-0.104000	0.926877
	O372	O	0.418738	0.629647	0.280070
	H373	H	0.411140	0.626061	0.267412
	H374	H	0.402068	0.629507	0.267282
	O375	O	-0.160240	0.168212	0.984530
	H376	H	-0.163664	0.174588	0.989809
	H377	H	-0.159630	0.174683	0.988680
	O378	O	0.452665	0.508925	0.499051
	H379	H	0.436773	0.514860	0.490292
	H380	H	0.452676	0.515138	0.484966
	O381	O	0.291964	0.698565	0.268246
	H382	H	0.281477	0.658358	0.255989
	H383	H	0.271140	0.713569	0.269271
	O384	O	0.653781	0.696769	0.473368
	H385	H	0.662364	0.703049	0.462161
	H386	H	0.616719	0.704980	0.465516
	O387	O	0.436407	0.276595	0.434486
	H388	H	0.461942	0.286181	0.427188
	H389	H	0.463772	0.278562	0.421487
	O390	O	0.806230	0.992991	-0.173487
	H391	H	0.809175	1.002687	-0.185601
	H392	H	0.817067	0.988393	-0.187076
	O393	O	0.977785	0.020381	0.795663
	H394	H	0.971811	0.026248	0.796361
	H395	H	0.987004	0.019170	0.789580
	O396	O	0.288169	0.282937	0.511906
	H397	H	0.264514	0.244947	0.509301
	H398	H	0.328856	0.268138	0.488991
	O399	O	0.324986	0.317689	0.673005
	H400	H	0.310635	0.307620	0.620237
	H401	H	0.308460	0.370029	0.683953
	O402	O	0.863294	0.973769	0.157403
	H403	H	0.845224	0.967444	0.175315
	H404	H	0.861006	0.947288	0.147683
	O405	O	0.651758	0.287888	0.504554
	H406	H	0.668203	0.281299	0.491224
	H407	H	0.641369	0.269793	0.527009
	O408	O	0.610527	0.579889	0.406653
	H409	H	0.613063	0.570289	0.411432
	H410	H	0.596814	0.590079	0.425270
	O411	O	1.131389	1.083268	0.929601
	H412	H	1.141885	1.085435	0.921969
	H413	H	1.133367	1.090530	0.929826
	O414	O	0.524267	0.706415	0.703020
	H415	H	0.559817	0.710934	0.706841
	H416	H	0.539979	0.726562	0.709065
	O417	O	0.035650	0.918547	1.103695
	H418	H	0.023442	0.900682	1.102075
	H419	H	0.029582	0.935518	1.090395
	O420	O	0.115113	0.868831	1.111517
	H421	H	0.105327	0.879839	1.104823
	H422	H	0.105224	0.874934	1.092793
	O423	O	0.088215	1.174422	0.119228
	H424	H	0.094891	1.163113	0.109578
	H425	H	0.082330	1.182153	0.121236
	O426	O	0.513811	0.478236	0.709499
	H427	H	0.515519	0.493693	0.706631
	H428	H	0.512585	0.453446	0.709120
	O429	O	0.320871	0.484316	0.288642
	H430	H	0.324901	0.476900	0.291348
	H431	H	0.318238	0.471733	0.296638
	O432	O	0.691302	0.682407	0.606405
	H433	H	0.708237	0.657252	0.609866
	H434	H	0.681498	0.686960	0.568276
	O435	O	0.095742	0.187089	0.063587
	H436	H	0.109095	0.170390	0.076489
	H437	H	0.115866	0.193976	0.067210
	O438	O	-0.427893	1.298748	1.289604
	H439	H	-0.423304	1.297282	1.264293
	H440	H	-0.409218	1.308904	1.305951
	O441	O	0.436541	0.701992	0.551654
	H442	H	0.421021	0.702825	0.555239
	H443	H	0.434954	0.699296	0.532204
