data_Molecule from HDF5

_cell_length_a		16.561135
_cell_length_b		16.421212
_cell_length_c		16.503635
_cell_angle_alpha	90.025512
_cell_angle_beta	90.178607
_cell_angle_gamma	89.998013
_symmetry_space_group_name_H-M	'P 1'
_symmetry_Int_Tables_number		1

loop_
	_symmetry_equiv_pos_as_xyz
	x,y,z

loop_
	_atom_site_label
	_atom_site_type_symbol
	_atom_site_fract_x
	_atom_site_fract_y
	_atom_site_fract_z
	H0	H	0.389276	0.849331	0.718135
	H1	H	0.596368	0.167968	0.725891
	H2	H	0.596896	0.852585	0.280469
	H3	H	0.384819	0.168161	0.281201
	H4	H	0.714791	0.400226	0.846959
	H5	H	0.714840	0.617524	0.160687
	H6	H	0.266648	0.616049	0.849051
	H7	H	0.268401	0.401061	0.161303
	H8	H	0.834457	0.735471	0.392726
	H9	H	0.147444	0.728269	0.604677
	H10	H	0.831066	0.289200	0.606841
	H11	H	0.146450	0.289268	0.399373
	H12	H	0.831578	0.403364	0.725575
	H13	H	0.145984	0.614111	0.723602
	H14	H	0.834368	0.618037	0.278023
	H15	H	0.145140	0.401609	0.279156
	H16	H	0.386488	0.728318	0.846846
	H17	H	0.596919	0.732401	0.162236
	H18	H	0.597243	0.286712	0.846673
	H19	H	0.387164	0.286137	0.161125
	H20	H	0.714725	0.854061	0.394684
	H21	H	0.712344	0.169157	0.611013
	H22	H	0.269874	0.851964	0.604432
	H23	H	0.269928	0.168783	0.396967
	H24	H	0.883794	0.353218	0.227598
	H25	H	0.096203	0.668594	0.226518
	H26	H	0.093998	0.353818	0.783793
	H27	H	0.881126	0.666672	0.780790
	H28	H	0.212501	0.903756	0.345002
	H29	H	0.211653	0.115542	0.659171
	H30	H	0.763726	0.120584	0.347198
	H31	H	0.767357	0.903270	0.659183
	H32	H	0.334542	0.228094	0.900552
	H33	H	0.648209	0.231047	0.110034
	H34	H	0.333269	0.787746	0.109648
	H35	H	0.647676	0.786946	0.900233
	H36	H	0.333783	0.903159	0.226731
	H37	H	0.646380	0.117244	0.228286
	H38	H	0.333611	0.111021	0.784496
	H39	H	0.647355	0.901589	0.781156
	H40	H	0.882771	0.232837	0.344581
	H41	H	0.091821	0.229391	0.660970
	H42	H	0.096868	0.787299	0.345132
	H43	H	0.883808	0.787263	0.658404
	H44	H	0.210371	0.354007	0.901103
	H45	H	0.214599	0.667508	0.113483
	H46	H	0.765358	0.353872	0.115060
	H47	H	0.765865	0.666507	0.896378
	H48	H	0.399168	0.126141	0.597968
	H49	H	0.578900	0.898109	0.594032
	H50	H	0.577399	0.122939	0.413299
	H51	H	0.404354	0.894972	0.405109
	H52	H	0.578247	0.422883	0.114790
	H53	H	0.579356	0.599114	0.891500
	H54	H	0.402349	0.594286	0.115971
	H55	H	0.397835	0.418243	0.890775
	H56	H	0.096893	0.588375	0.417984
	H57	H	0.877885	0.594667	0.591702
	H58	H	0.101798	0.420029	0.596732
	H59	H	0.877056	0.421808	0.412625
	H60	H	0.101862	0.418986	0.594249
	H61	H	0.875033	0.600376	0.594533
	H62	H	0.105146	0.599344	0.405435
	H63	H	0.878687	0.422824	0.418574
	H64	H	0.404526	0.600036	0.118332
	H65	H	0.579641	0.594467	0.893789
	H66	H	0.578129	0.421343	0.114816
	H67	H	0.398166	0.423704	0.892033
	H68	H	0.573184	0.120495	0.417016
	H69	H	0.578516	0.898598	0.587775
	H70	H	0.403456	0.123056	0.593048
	H71	H	0.408667	0.902026	0.421817
	H72	H	0.901566	0.619400	0.083415
	H73	H	0.078952	0.399631	0.089823
	H74	H	0.076376	0.625140	0.911814
	H75	H	0.905157	0.397941	0.913466
	H76	H	0.085475	0.923909	0.615300
	H77	H	0.079297	0.097430	0.390264
	H78	H	0.898234	0.105276	0.617484
	H79	H	0.901908	0.927085	0.392360
	H80	H	0.606948	0.102924	0.912643
	H81	H	0.382478	0.088594	0.090927
	H82	H	0.599911	0.923568	0.088646
	H83	H	0.377205	0.918730	0.909111
	H84	H	0.601335	0.924802	0.095610
	H85	H	0.375105	0.100105	0.100112
	H86	H	0.603010	0.095947	0.918810
	H87	H	0.378046	0.916503	0.913621
	H88	H	0.897329	0.092777	0.613792
	H89	H	0.077443	0.103742	0.388092
	H90	H	0.075725	0.925448	0.611215
	H91	H	0.903807	0.923731	0.391797
	H92	H	0.076568	0.622917	0.919006
	H93	H	0.080544	0.395806	0.093268
	H94	H	0.897363	0.625042	0.092915
	H95	H	0.902588	0.399580	0.920009
	H96	H	0.396440	0.124709	0.590792
	H97	H	0.583693	0.896353	0.590350
	H98	H	0.578737	0.122190	0.419028
	H99	H	0.391163	0.895287	0.418624
	H100	H	0.579905	0.422273	0.114657
	H101	H	0.575574	0.597477	0.894798
	H102	H	0.398082	0.598836	0.118979
	H103	H	0.402516	0.420264	0.893011
	H104	H	0.101149	0.605442	0.422370
	H105	H	0.877202	0.600888	0.587726
	H106	H	0.100794	0.421221	0.595148
	H107	H	0.879641	0.427465	0.414046
	H108	H	0.908138	0.621151	0.092746
	H109	H	0.076223	0.398364	0.093430
	H110	H	0.082353	0.626183	0.916321
	H111	H	0.898167	0.395263	0.915514
	H112	H	0.078126	0.916324	0.615804
	H113	H	0.083915	0.101416	0.387446
	H114	H	0.908394	0.099243	0.611880
	H115	H	0.900173	0.923914	0.390185
	H116	H	0.604875	0.094065	0.909337
	H117	H	0.379102	0.103519	0.084800
	H118	H	0.602522	0.918507	0.092510
	H119	H	0.379225	0.921224	0.912968
	C120	C	0.368945	0.018641	0.623756
	C121	C	0.612526	1.001855	0.624587
	C122	C	0.610409	0.018321	0.382939
	C123	C	0.369060	1.001735	0.381758
	C124	C	0.612171	0.388391	0.011713
	C125	C	0.611851	0.630962	0.996481
	C126	C	0.369008	0.630434	0.013767
	C127	C	0.368463	0.387916	0.995920
	C128	C	-0.001617	0.632192	0.380613
	C129	C	0.980755	0.630920	0.623490
	C130	C	-0.002530	0.387865	0.626424
	C131	C	0.981594	0.390281	0.382149
	C132	C	0.868981	0.518464	0.124517
	C133	C	0.111619	0.502223	0.125926
	C134	C	0.110522	0.520226	0.883857
	C135	C	0.868115	0.501212	0.882682
	C136	C	0.111584	0.889264	0.510229
	C137	C	0.111199	0.132181	0.493587
	C138	C	0.867869	0.132417	0.510736
	C139	C	0.868760	0.890445	0.494537
	C140	C	0.500703	0.129358	0.882085
	C141	C	0.482440	0.130810	0.125069
	C142	C	0.498193	0.888840	0.125128
	C143	C	0.481913	0.886064	0.880689
	C144	C	0.369467	0.897930	0.679919
	C145	C	0.614547	0.120689	0.685530
	C146	C	0.614356	0.899844	0.321278
	C147	C	0.366529	0.120633	0.321303
	C148	C	0.673786	0.384013	0.893995
	C149	C	0.673761	0.635001	0.114044
	C150	C	0.307721	0.633626	0.895794
	C151	C	0.308807	0.383721	0.114109
	C152	C	0.881293	0.694650	0.375787
	C153	C	0.099837	0.689378	0.624213
	C154	C	0.878442	0.328814	0.626264
	C155	C	0.099336	0.329289	0.380259
	C156	C	0.878739	0.385519	0.685591
	C157	C	0.099033	0.632546	0.683273
	C158	C	0.881311	0.636429	0.318313
	C159	C	0.098579	0.385036	0.320385
	C160	C	0.367225	0.689510	0.894708
	C161	C	0.614903	0.692041	0.114713
	C162	C	0.615154	0.327272	0.893559
	C163	C	0.367900	0.326583	0.113917
	C164	C	0.673114	0.900666	0.378152
	C165	C	0.672519	0.121179	0.628212
	C166	C	0.309978	0.899177	0.623704
	C167	C	0.309403	0.121085	0.379016
	C168	C	0.865927	0.400463	0.186913
	C169	C	0.114558	0.620983	0.186537
	C170	C	0.112461	0.401082	0.824101
	C171	C	0.863554	0.619194	0.820889
	C172	C	0.171900	0.886018	0.392147
	C173	C	0.171005	0.133867	0.612230
	C174	C	0.805376	0.137136	0.393545
	C175	C	0.807937	0.886106	0.612067
	C176	C	0.381563	0.188248	0.881364
	C177	C	0.600622	0.191143	0.128152
	C178	C	0.380249	0.827696	0.127749
	C179	C	0.600412	0.826320	0.880624
	C180	C	0.380727	0.884853	0.186262
	C181	C	0.599822	0.134321	0.187175
	C182	C	0.381175	0.130392	0.823642
	C183	C	0.600162	0.883295	0.821243
	C184	C	0.864668	0.193242	0.392493
	C185	C	0.111512	0.190452	0.613029
	C186	C	0.114225	0.827915	0.392230
	C187	C	0.865627	0.827981	0.611541
	C188	C	0.170272	0.401239	0.882095
	C189	C	0.173496	0.620519	0.130429
	C190	C	0.806710	0.400735	0.130711
	C191	C	0.806325	0.619167	0.878788
	C192	C	0.392770	0.102765	0.600606
	C193	C	0.587672	0.919248	0.598319
	C194	C	0.583971	0.100359	0.409006
	C195	C	0.394344	0.918984	0.407684
	C196	C	0.586241	0.414815	0.093432
	C197	C	0.585683	0.604471	0.914678
	C198	C	0.394437	0.605030	0.096387
	C199	C	0.392564	0.413492	0.913467
	C200	C	0.079702	0.605321	0.407322
	C201	C	0.898246	0.605881	0.598711
	C202	C	0.079861	0.412963	0.602359
	C203	C	0.899836	0.416572	0.407710
	C204	C	0.895021	0.600633	0.097488
	C205	C	0.085897	0.419550	0.099746
	C206	C	0.085571	0.603160	0.908592
	C207	C	0.894467	0.419007	0.908828
	C208	C	0.086839	0.914515	0.592543
	C209	C	0.087065	0.107769	0.410115
	C210	C	0.893954	0.106432	0.593030
	C211	C	0.894657	0.917459	0.412776
	C212	C	0.583237	0.104794	0.906657
	C213	C	0.400369	0.104899	0.099301
	C214	C	0.579720	0.914791	0.099701
	C215	C	0.399654	0.911524	0.904880
	Zn216	Zn	0.490983	0.008965	0.752643
	Zn217	Zn	0.489796	0.009966	0.253835
	Zn218	Zn	0.740366	0.509308	0.004120
	Zn219	Zn	0.239585	0.510467	0.005508
	Zn220	Zn	-0.010320	0.760647	0.502201
	Zn221	Zn	-0.011328	0.260900	0.502738
	Zn222	Zn	-0.010928	0.510367	0.754411
	Zn223	Zn	-0.009729	0.510408	0.252694
	Zn224	Zn	0.489986	0.759115	0.005027
	Zn225	Zn	0.491915	0.259281	0.002988
	Zn226	Zn	0.739899	0.011507	0.502723
	Zn227	Zn	0.240683	0.011014	0.501611
	N228	N	0.405189	0.973507	0.680311
	N229	N	0.577996	0.045625	0.683473
	N230	N	0.575983	0.973880	0.324119
	N231	N	0.402996	0.045391	0.322953
	N232	N	0.672127	0.421274	0.968601
	N233	N	0.672102	0.597883	0.039404
	N234	N	0.308795	0.597695	0.971017
	N235	N	0.308986	0.421058	0.039787
	N236	N	0.955086	0.692167	0.413828
	N237	N	0.025024	0.688771	0.588161
	N238	N	0.953225	0.330067	0.590413
	N239	N	0.025556	0.332286	0.417942
	N240	N	0.953848	0.421352	0.686082
	N241	N	0.023709	0.597333	0.683405
	N242	N	0.955124	0.598481	0.321159
	N243	N	0.024355	0.422225	0.321612
	N244	N	0.404558	0.687701	0.969100
	N245	N	0.577231	0.689638	0.040523
	N246	N	0.577559	0.329792	0.967504
	N247	N	0.404432	0.328891	0.039237
	N248	N	0.670732	0.975297	0.415593
	N249	N	0.671631	0.046119	0.591149
	N250	N	0.309407	0.975460	0.589647
	N251	N	0.310683	0.045962	0.415771
	N252	N	0.903853	0.474829	0.183170
	N253	N	0.077005	0.546455	0.183767
	N254	N	0.076006	0.476152	0.824978
	N255	N	0.901431	0.544798	0.823217
	N256	N	0.170510	0.923594	0.466485
	N257	N	0.170874	0.098522	0.536857
	N258	N	0.807363	0.100165	0.468126
	N259	N	0.809772	0.924039	0.538068
	N260	N	0.456791	0.188217	0.916655
	N261	N	0.526584	0.189105	0.090261
	N262	N	0.454260	0.829898	0.090607
	N263	N	0.525771	0.827478	0.916594
	N264	N	0.454919	0.922028	0.184896
	N265	N	0.525190	0.097530	0.185327
	N266	N	0.456247	0.094756	0.823808
	N267	N	0.525381	0.919425	0.820967
	N268	N	0.903070	0.190131	0.466457
	N269	N	0.075135	0.189599	0.538062
	N270	N	0.077159	0.829924	0.466551
	N271	N	0.902653	0.830304	0.537217
	N272	N	0.168944	0.476095	0.918727
	N273	N	0.171814	0.545462	0.093458
	N274	N	0.808349	0.475178	0.092784
	N275	N	0.808697	0.544598	0.916299
	O276	O	0.828925	-0.102501	-0.065043
	H277	H	0.821208	-0.099440	-0.038684
	H278	H	0.838345	-0.118168	-0.065844
	O279	O	0.656915	0.456938	0.601179
	H280	H	0.646175	0.455033	0.610885
	H281	H	0.647132	0.434134	0.587095
	O282	O	0.799878	0.826948	0.193963
	H283	H	0.810335	0.814490	0.161003
	H284	H	0.827254	0.807044	0.210043
	O285	O	0.678381	0.323840	0.316628
	H286	H	0.637660	0.314803	0.303158
	H287	H	0.678250	0.358884	0.304100
	O288	O	0.040156	-0.050622	0.213313
	H289	H	0.052453	-0.043035	0.204814
	H290	H	0.024640	-0.028489	0.214711
	O291	O	0.963414	0.797799	0.214262
	H292	H	0.973488	0.774704	0.238997
	H293	H	0.986796	0.822871	0.215739
	O294	O	-0.192908	1.191512	-0.177556
	H295	H	-0.206357	1.139068	-0.190000
	H296	H	-0.182645	1.195949	-0.142103
	O297	O	0.540963	0.684058	0.397072
	H298	H	0.533830	0.681797	0.420208
	H299	H	0.549751	0.673177	0.412933
	O300	O	0.661003	0.554611	0.475009
	H301	H	0.657992	0.553693	0.490819
	H302	H	0.657616	0.523180	0.483820
	O303	O	0.283435	0.305746	0.710635
	H304	H	0.258716	0.289509	0.732288
	H305	H	0.288479	0.305687	0.711615
	O306	O	-0.224635	0.992873	1.218715
	H307	H	-0.251785	0.982765	1.244902
	H308	H	-0.215916	0.951398	1.204953
	O309	O	0.695840	0.717842	0.706843
	H310	H	0.707405	0.695294	0.708803
	H311	H	0.714304	0.729553	0.679101
	O312	O	0.555854	0.335550	0.564902
	H313	H	0.560049	0.340329	0.563517
	H314	H	0.558463	0.329611	0.548826
	O315	O	0.199263	0.032867	0.932790
	H316	H	0.187021	0.038559	0.928325
	H317	H	0.207602	0.031722	0.921742
	O318	O	0.027814	0.809013	0.000201
	H319	H	0.040125	0.806477	0.015993
	H320	H	0.030047	0.820791	-0.011482
	O321	O	0.301344	0.519493	0.583599
	H322	H	0.313182	0.518355	0.585883
	H323	H	0.300705	0.518864	0.598729
	O324	O	0.780782	0.224474	0.983396
	H325	H	0.770106	0.242139	0.982953
	H326	H	0.781588	0.224169	0.982283
	O327	O	0.960135	0.225819	0.782886
	H328	H	0.926326	0.219252	0.803545
	H329	H	0.959040	0.258438	0.747701
	O330	O	1.000001	0.012529	-0.213693
	H331	H	0.992086	0.002571	-0.203698
	H332	H	0.984365	0.021661	-0.219425
	O333	O	0.782477	1.015215	1.017413
	H334	H	0.777319	1.020756	1.049829
	H335	H	0.785143	1.031564	1.008911
	O336	O	1.192142	0.044053	1.206012
	H337	H	1.181932	0.033747	1.191090
	H338	H	1.206418	0.036585	1.205444
	O339	O	0.303264	0.424652	0.401463
	H340	H	0.302168	0.436817	0.401528
	H341	H	0.295607	0.427082	0.401784
	O342	O	0.455842	0.391042	0.606417
	H343	H	0.460805	0.385915	0.600178
	H344	H	0.456915	0.380814	0.615233
	O345	O	-0.100283	0.072074	0.089851
	H346	H	-0.096621	0.071167	0.091951
	H347	H	-0.101607	0.081819	0.074435
	O348	O	1.046561	-0.086073	1.066499
	H349	H	1.047903	-0.064294	1.063223
	H350	H	1.052364	-0.089986	1.071835
	O351	O	0.970008	1.060042	-0.147854
	H352	H	0.954391	1.045907	-0.137809
	H353	H	0.966553	1.061720	-0.164101
	O354	O	0.486050	0.471471	0.276806
	H355	H	0.463197	0.481015	0.280325
	H356	H	0.474255	0.464953	0.274456
	O357	O	0.775932	0.796966	1.031018
	H358	H	0.755768	0.788825	1.020915
	H359	H	0.786194	0.784844	1.038763
	O360	O	0.700983	0.307590	0.476920
	H361	H	0.710384	0.301487	0.449119
	H362	H	0.708086	0.295479	0.450137
	O363	O	0.520846	0.724048	0.722801
	H364	H	0.545506	0.742615	0.741007
	H365	H	0.549515	0.728284	0.727275
	O366	O	1.009663	0.224466	1.204358
	H367	H	1.023033	0.245685	1.224363
	H368	H	1.004815	0.217346	1.193653
	O369	O	0.284727	0.492640	0.347367
	H370	H	0.272419	0.500195	0.326018
	H371	H	0.292901	0.513655	0.355248
	O372	O	0.477113	0.349270	0.725699
	H373	H	0.474903	0.329631	0.726701
	H374	H	0.471510	0.344814	0.735284
	O375	O	0.167150	1.001104	0.784169
	H376	H	0.154524	1.008631	0.783383
	H377	H	0.156482	0.997708	0.769362
	O378	O	0.949273	0.100788	0.075860
	H379	H	0.941503	0.081924	0.083049
	H380	H	0.947430	0.098689	0.064257
	O381	O	1.191880	-0.042198	0.054308
	H382	H	1.191530	-0.038609	0.024182
	H383	H	1.192617	-0.043722	0.050875
	O384	O	0.202969	0.204002	1.015861
	H385	H	0.210509	0.214070	1.046424
	H386	H	0.198718	0.215175	1.026539
	O387	O	0.008158	0.807973	0.823414
	H388	H	0.039102	0.794571	0.806796
	H389	H	0.024711	0.798027	0.823026
	O390	O	0.181173	0.178669	1.163416
	H391	H	0.186742	0.183585	1.180933
	H392	H	0.170782	0.153112	1.169243
	O393	O	0.777532	1.030783	-0.210193
	H394	H	0.751276	1.022849	-0.226548
	H395	H	0.795879	1.005916	-0.205431
	O396	O	0.361495	0.661320	0.406658
	H397	H	0.394405	0.659997	0.403832
	H398	H	0.362081	0.667951	0.433586
	O399	O	0.340702	0.508230	0.711699
	H400	H	0.346028	0.513463	0.719958
	H401	H	0.337479	0.500897	0.716208
	O402	O	-0.063778	-0.060149	0.897718
	H403	H	-0.054088	-0.063690	0.901098
	H404	H	-0.058879	-0.070759	0.916483
	O405	O	0.004543	0.203943	0.013215
	H406	H	0.009160	0.202847	0.012602
	H407	H	0.003189	0.202211	0.020897
	O408	O	0.698740	0.535452	0.716630
	H409	H	0.717765	0.533512	0.744231
	H410	H	0.681820	0.513136	0.717141
	O411	O	0.326612	0.303182	0.529048
	H412	H	0.313593	0.299354	0.535218
	H413	H	0.331118	0.302858	0.546869
	O414	O	0.534140	0.641586	0.417831
	H415	H	0.531529	0.647532	0.416110
	H416	H	0.543897	0.655598	0.440591
	O417	O	0.383797	0.466153	0.502329
	H418	H	0.389072	0.472588	0.501465
	H419	H	0.363775	0.451731	0.506177
	O420	O	0.664733	0.618502	0.446763
	H421	H	0.657594	0.602508	0.428991
	H422	H	0.666288	0.596708	0.453114
	O423	O	0.005228	0.947728	0.051249
	H424	H	0.002128	0.948803	0.058773
	H425	H	0.007589	0.954841	0.044371
	O426	O	0.901502	1.162305	1.141870
	H427	H	0.892478	1.166648	1.149736
	H428	H	0.897366	1.159734	1.150090
	O429	O	0.421393	0.705736	0.552195
	H430	H	0.415881	0.715026	0.576690
	H431	H	0.435013	0.691605	0.565112
	O432	O	0.701904	0.720686	0.523833
	H433	H	0.704204	0.692415	0.506979
	H434	H	0.731127	0.737846	0.525241
	O435	O	0.436151	-0.489340	0.432127
	H436	H	0.442124	-0.486153	0.435990
	H437	H	0.424326	-0.482291	0.430093
	O438	O	1.121239	-0.163614	-0.188393
	H439	H	1.148699	-0.173948	-0.171639
	H440	H	1.139746	-0.158842	-0.210346
	O441	O	0.295004	0.690671	0.553809
	H442	H	0.298284	0.674169	0.562258
	H443	H	0.307862	0.686739	0.559064
	O444	O	0.279379	0.715232	0.703961
	H445	H	0.288216	0.714903	0.700188
	H446	H	0.300458	0.702615	0.688921
	O447	O	0.495812	0.513137	0.682093
	H448	H	0.498624	0.507358	0.684226
	H449	H	0.495174	0.511824	0.691168
	O450	O	0.506589	0.317175	0.314686
	H451	H	0.486746	0.310148	0.331595
	H452	H	0.491071	0.320295	0.305684
	O453	O	0.703171	0.491791	0.296099
	H454	H	0.722529	0.488058	0.276244
	H455	H	0.674083	0.502895	0.291660
	O456	O	1.183962	0.200871	-0.182606
	H457	H	1.166029	0.178678	-0.168184
	H458	H	1.165948	0.186697	-0.157907
	O459	O	0.372704	0.352927	0.353394
	H460	H	0.377795	0.341858	0.374250
	H461	H	0.360470	0.374968	0.361300
	O462	O	0.401671	0.707715	0.308389
	H463	H	0.413252	0.692224	0.329603
	H464	H	0.413313	0.731850	0.289291
	O465	O	1.198047	-0.199743	-0.059209
	H466	H	1.188088	-0.210001	-0.043943
	H467	H	1.217752	-0.200413	-0.065379
