data_Molecule from HDF5

_cell_length_a		16.600479
_cell_length_b		16.563400
_cell_length_c		16.600014
_cell_angle_alpha	90.047366
_cell_angle_beta	90.006345
_cell_angle_gamma	90.154978
_symmetry_space_group_name_H-M	'P 1'
_symmetry_Int_Tables_number		1

loop_
	_symmetry_equiv_pos_as_xyz
	x,y,z

loop_
	_atom_site_label
	_atom_site_type_symbol
	_atom_site_fract_x
	_atom_site_fract_y
	_atom_site_fract_z
	H0	H	0.404411	0.856301	0.708513
	H1	H	0.614709	0.170024	0.702298
	H2	H	0.617544	0.855496	0.262931
	H3	H	0.408024	0.168298	0.264408
	H4	H	0.731551	0.410769	0.827600
	H5	H	0.734676	0.619622	0.139922
	H6	H	0.292579	0.616225	0.826181
	H7	H	0.290750	0.407232	0.139985
	H8	H	0.855244	0.729227	0.383168
	H9	H	0.169890	0.735055	0.590860
	H10	H	0.856517	0.291509	0.589167
	H11	H	0.165530	0.287000	0.375389
	H12	H	0.856558	0.408019	0.704689
	H13	H	0.169363	0.619531	0.706985
	H14	H	0.856960	0.616383	0.263827
	H15	H	0.166528	0.403925	0.259517
	H16	H	0.408822	0.731787	0.825784
	H17	H	0.616531	0.733754	0.140256
	H18	H	0.616090	0.293177	0.828133
	H19	H	0.407212	0.291210	0.140449
	H20	H	0.733304	0.855606	0.379935
	H21	H	0.733090	0.169048	0.587079
	H22	H	0.288864	0.855930	0.592242
	H23	H	0.293449	0.168273	0.382216
	H24	H	0.909615	0.357182	0.204873
	H25	H	0.118197	0.669453	0.205453
	H26	H	0.116588	0.356025	0.764316
	H27	H	0.908598	0.668996	0.763154
	H28	H	0.237489	0.903717	0.330707
	H29	H	0.236413	0.119729	0.638911
	H30	H	0.790806	0.116936	0.328327
	H31	H	0.791198	0.907112	0.640047
	H32	H	0.357872	0.236049	0.877997
	H33	H	0.670318	0.231072	0.087189
	H34	H	0.355235	0.790976	0.088712
	H35	H	0.669121	0.793324	0.881668
	H36	H	0.356260	0.905792	0.206247
	H37	H	0.670197	0.114084	0.202986
	H38	H	0.357953	0.120939	0.760568
	H39	H	0.670068	0.911659	0.766798
	H40	H	0.904844	0.235632	0.329899
	H41	H	0.120055	0.235955	0.638634
	H42	H	0.118337	0.789987	0.329125
	H43	H	0.909162	0.791925	0.641418
	H44	H	0.232474	0.355914	0.880185
	H45	H	0.233987	0.670063	0.089027
	H46	H	0.793293	0.356989	0.087956
	H47	H	0.791899	0.668806	0.879064
	H48	H	0.415227	0.125082	0.569115
	H49	H	0.601520	0.898011	0.576907
	H50	H	0.605332	0.124384	0.397032
	H51	H	0.420321	0.898429	0.395903
	H52	H	0.603031	0.420492	0.097905
	H53	H	0.599355	0.605815	0.872252
	H54	H	0.422157	0.608164	0.097208
	H55	H	0.420187	0.422648	0.871669
	H56	H	0.124624	0.598677	0.395152
	H57	H	0.900811	0.602610	0.575223
	H58	H	0.123982	0.428103	0.576263
	H59	H	0.898548	0.421139	0.391578
	H60	H	0.126939	0.419850	0.574642
	H61	H	0.902074	0.601456	0.573573
	H62	H	0.126470	0.603071	0.393334
	H63	H	0.902831	0.423127	0.401953
	H64	H	0.418312	0.598557	0.096135
	H65	H	0.607356	0.601371	0.871235
	H66	H	0.605392	0.422214	0.097728
	H67	H	0.423962	0.427599	0.874263
	H68	H	0.600987	0.125233	0.390508
	H69	H	0.601489	0.899993	0.574709
	H70	H	0.427540	0.125417	0.581676
	H71	H	0.426732	0.899555	0.392767
	H72	H	0.932661	0.620703	0.069631
	H73	H	0.104736	0.401588	0.071095
	H74	H	0.098721	0.625969	0.890352
	H75	H	0.920709	0.399440	0.894549
	H76	H	0.099463	0.924184	0.595004
	H77	H	0.102420	0.103332	0.371722
	H78	H	0.927125	0.097563	0.593456
	H79	H	0.920617	0.922475	0.372076
	H80	H	0.626231	0.100251	0.887999
	H81	H	0.397638	0.104433	0.079911
	H82	H	0.623391	0.925242	0.075700
	H83	H	0.400994	0.922104	0.899437
	H84	H	0.625473	0.920480	0.074777
	H85	H	0.401299	0.105610	0.068373
	H86	H	0.625737	0.108719	0.897258
	H87	H	0.401142	0.927062	0.893416
	H88	H	0.924860	0.104505	0.596331
	H89	H	0.103560	0.096074	0.373213
	H90	H	0.101108	0.924111	0.595994
	H91	H	0.924920	0.920812	0.372552
	H92	H	0.100200	0.622570	0.900520
	H93	H	0.100818	0.400128	0.075778
	H94	H	0.917047	0.626726	0.067506
	H95	H	0.922754	0.399963	0.892867
	H96	H	0.431280	0.117977	0.565991
	H97	H	0.603973	0.898542	0.575125
	H98	H	0.597894	0.121836	0.397781
	H99	H	0.425551	0.901569	0.399528
	H100	H	0.602858	0.423770	0.097134
	H101	H	0.600007	0.597498	0.874328
	H102	H	0.427499	0.600820	0.093219
	H103	H	0.427058	0.421777	0.872921
	H104	H	0.124564	0.602922	0.398252
	H105	H	0.902490	0.601191	0.575727
	H106	H	0.122948	0.424470	0.567856
	H107	H	0.903006	0.430796	0.394106
	H108	H	0.924924	0.629168	0.081881
	H109	H	0.097930	0.402814	0.070480
	H110	H	0.108668	0.627231	0.894921
	H111	H	0.923042	0.401076	0.895778
	H112	H	0.100257	0.925651	0.595562
	H113	H	0.097305	0.099295	0.374727
	H114	H	0.919620	0.098525	0.596037
	H115	H	0.921715	0.918158	0.370977
	H116	H	0.621254	0.096772	0.899192
	H117	H	0.402616	0.094970	0.074410
	H118	H	0.622455	0.922891	0.071003
	H119	H	0.398942	0.919891	0.892539
	C120	C	0.391031	0.020065	0.606119
	C121	C	0.634087	1.003457	0.605829
	C122	C	0.633319	0.020256	0.363208
	C123	C	0.391721	1.003206	0.363850
	C124	C	0.634559	0.391409	-0.006378
	C125	C	0.634126	0.634043	0.975789
	C126	C	0.390717	0.634201	-0.008241
	C127	C	0.391736	0.391717	0.976013
	C128	C	0.021585	0.633144	0.363921
	C129	C	1.005074	0.634525	0.607068
	C130	C	0.021319	0.391877	0.605199
	C131	C	1.003545	0.391255	0.362725
	C132	C	0.892207	0.521914	0.105240
	C133	C	0.134133	0.504641	0.105331
	C134	C	0.133601	0.521275	0.863501
	C135	C	0.891484	0.504072	0.862958
	C136	C	0.133794	0.890978	0.493220
	C137	C	0.133793	0.133172	0.475896
	C138	C	0.891295	0.132794	0.492622
	C139	C	0.890852	0.889678	0.475670
	C140	C	0.521249	0.134232	0.862823
	C141	C	0.504508	0.132918	0.105506
	C142	C	0.520483	0.890529	0.105727
	C143	C	0.503929	0.891891	0.863698
	C144	C	0.387459	0.902993	0.667683
	C145	C	0.634467	0.122431	0.663569
	C146	C	0.635370	0.902508	0.303144
	C147	C	0.389663	0.121278	0.304389
	C148	C	0.692728	0.390947	0.875076
	C149	C	0.693935	0.636950	0.093214
	C150	C	0.332328	0.634807	0.873268
	C151	C	0.331025	0.389099	0.093263
	C152	C	0.902731	0.690545	0.363792
	C153	C	0.122501	0.695244	0.609355
	C154	C	0.903803	0.331581	0.607494
	C155	C	0.119645	0.328486	0.357927
	C156	C	0.903795	0.389731	0.665003
	C157	C	0.122560	0.637621	0.667063
	C158	C	0.903602	0.634384	0.304423
	C159	C	0.120073	0.386390	0.300310
	C160	C	0.389894	0.692809	0.873205
	C161	C	0.635571	0.694089	0.093259
	C162	C	0.635210	0.332793	0.875192
	C163	C	0.388804	0.331297	0.093404
	C164	C	0.692738	0.902196	0.361344
	C165	C	0.693067	0.122100	0.606342
	C166	C	0.329784	0.902792	0.609820
	C167	C	0.332882	0.121301	0.363015
	C168	C	0.890771	0.403845	0.164334
	C169	C	0.136920	0.622458	0.165561
	C170	C	0.135009	0.403015	0.804025
	C171	C	0.889947	0.621953	0.803203
	C172	C	0.195781	0.886806	0.376504
	C173	C	0.195344	0.137452	0.592369
	C174	C	0.830599	0.135565	0.375270
	C175	C	0.831204	0.888274	0.593474
	C176	C	0.404482	0.195496	0.859746
	C177	C	0.622910	0.191596	0.106106
	C178	C	0.402366	0.830801	0.107325
	C179	C	0.622228	0.833254	0.862588
	C180	C	0.402977	0.887779	0.165995
	C181	C	0.622854	0.133533	0.163819
	C182	C	0.404503	0.138278	0.801306
	C183	C	0.622561	0.891874	0.805542
	C184	C	0.887489	0.194258	0.375914
	C185	C	0.137627	0.195212	0.592173
	C186	C	0.136919	0.830237	0.375838
	C187	C	0.889765	0.831099	0.594014
	C188	C	0.192530	0.403036	0.861799
	C189	C	0.194124	0.622801	0.107306
	C190	C	0.832973	0.403812	0.106474
	C191	C	0.831936	0.621982	0.860690
	C192	C	0.417175	0.101649	0.579734
	C193	C	0.609549	0.920465	0.582097
	C194	C	0.608644	0.102423	0.388213
	C195	C	0.416931	0.921206	0.388886
	C196	C	0.610637	0.415180	0.076154
	C197	C	0.609231	0.608782	0.893839
	C198	C	0.415501	0.609786	0.074059
	C199	C	0.416829	0.416749	0.894298
	C200	C	0.103819	0.608626	0.388546
	C201	C	0.923106	0.609049	0.582020
	C202	C	0.103506	0.417053	0.580053
	C203	C	0.922706	0.417483	0.388629
	C204	C	0.917661	0.604121	0.080318
	C205	C	0.108605	0.422783	0.079859
	C206	C	0.109357	0.603773	0.888098
	C207	C	0.915389	0.421527	0.887365
	C208	C	0.107751	0.917279	0.574350
	C209	C	0.108277	0.106886	0.394385
	C210	C	0.916718	0.107320	0.574163
	C211	C	0.915253	0.913684	0.393318
	C212	C	0.602990	0.108975	0.887660
	C213	C	0.422009	0.108557	0.081232
	C214	C	0.602522	0.915687	0.080889
	C215	C	0.421666	0.916108	0.888316
	Zn216	Zn	0.512181	0.012524	0.734361
	Zn217	Zn	0.512058	0.012053	0.234552
	Zn218	Zn	0.763012	0.513369	-0.015241
	Zn219	Zn	0.262406	0.512630	-0.016068
	Zn220	Zn	0.013236	0.761797	0.484768
	Zn221	Zn	0.012356	0.262168	0.483911
	Zn222	Zn	0.013361	0.512654	0.734675
	Zn223	Zn	0.013351	0.512859	0.234429
	Zn224	Zn	0.512295	0.762477	-0.015868
	Zn225	Zn	0.512580	0.262638	-0.015194
	Zn226	Zn	0.762588	0.011741	0.483943
	Zn227	Zn	0.262948	0.011687	0.484939
	N228	N	0.424711	0.977108	0.665656
	N229	N	0.598720	0.047618	0.663560
	N230	N	0.598917	0.976761	0.304313
	N231	N	0.425276	0.046638	0.304474
	N232	N	0.692855	0.426291	0.949935
	N233	N	0.693345	0.600518	0.018979
	N234	N	0.332578	0.599357	0.948048
	N235	N	0.332352	0.425752	0.019182
	N236	N	0.977127	0.689996	0.400016
	N237	N	0.048256	0.693578	0.572801
	N238	N	0.977976	0.332629	0.570928
	N239	N	0.046294	0.331213	0.395968
	N240	N	0.978110	0.426513	0.663661
	N241	N	0.048435	0.600758	0.665934
	N242	N	0.978698	0.599628	0.304330
	N243	N	0.047259	0.425066	0.303245
	N244	N	0.425375	0.692812	0.948080
	N245	N	0.598981	0.692412	0.019155
	N246	N	0.599922	0.332690	0.949991
	N247	N	0.425741	0.332595	0.019522
	N248	N	0.691640	0.976487	0.397996
	N249	N	0.693114	0.046795	0.571347
	N250	N	0.331800	0.976662	0.572284
	N251	N	0.333928	0.046821	0.399110
	N252	N	0.926938	0.478289	0.163653
	N253	N	0.100606	0.547904	0.164821
	N254	N	0.099006	0.477635	0.805106
	N255	N	0.926195	0.547564	0.804306
	N256	N	0.193999	0.923893	0.450507
	N257	N	0.193145	0.099445	0.518955
	N258	N	0.832776	0.098052	0.448869
	N259	N	0.831641	0.923882	0.518758
	N260	N	0.478081	0.193286	0.897247
	N261	N	0.548066	0.191655	0.070895
	N262	N	0.476462	0.832221	0.070695
	N263	N	0.547286	0.832777	0.897597
	N264	N	0.477410	0.924297	0.165205
	N265	N	0.548017	0.097979	0.163777
	N266	N	0.478083	0.100826	0.803106
	N267	N	0.547887	0.927349	0.805721
	N268	N	0.924607	0.192689	0.449752
	N269	N	0.100109	0.192855	0.518446
	N270	N	0.098991	0.832630	0.449264
	N271	N	0.926073	0.831769	0.519773
	N272	N	0.191895	0.477650	0.898050
	N273	N	0.192905	0.548305	0.070844
	N274	N	0.833695	0.478451	0.070604
	N275	N	0.832866	0.547632	0.897284
	O276	O	-0.198717	0.937713	0.053742
	H277	H	-0.204223	0.935557	0.059209
	H278	H	-0.206409	0.934653	0.052518
	O279	O	0.671586	0.362906	0.444668
	H280	H	0.653831	0.363381	0.461932
	H281	H	0.674080	0.350936	0.453482
	O282	O	0.551836	-0.712432	1.262575
	H283	H	0.571547	-0.719673	1.258144
	H284	H	0.564998	-0.725503	1.243039
	O285	O	0.510244	0.394160	0.486178
	H286	H	0.503836	0.393720	0.476532
	H287	H	0.504529	0.408796	0.474392
	O288	O	0.354613	0.624515	0.570352
	H289	H	0.362887	0.639573	0.565135
	H290	H	0.343672	0.605896	0.586335
	O291	O	0.627775	0.624303	0.298570
	H292	H	0.608724	0.604392	0.294183
	H293	H	0.618707	0.622346	0.316944
	O294	O	0.961357	0.224068	0.773006
	H295	H	0.932061	0.226279	0.770474
	H296	H	0.939575	0.241473	0.760107
	O297	O	0.721469	0.551835	0.698696
	H298	H	0.727772	0.548677	0.697818
	H299	H	0.717938	0.552530	0.711330
	O300	O	-0.282538	-0.277723	0.694183
	H301	H	-0.280122	-0.300828	0.706318
	H302	H	-0.254874	-0.253814	0.708378
	O303	O	0.292836	0.569617	0.270531
	H304	H	0.293920	0.579923	0.279196
	H305	H	0.275051	0.579377	0.245319
	O306	O	0.730361	0.730217	0.523704
	H307	H	0.732542	0.739210	0.534974
	H308	H	0.745555	0.748777	0.539664
	O309	O	0.452940	0.507343	0.398846
	H310	H	0.457745	0.504058	0.396171
	H311	H	0.453932	0.492847	0.392710
	O312	O	0.542525	0.734529	0.704759
	H313	H	0.552405	0.733629	0.717823
	H314	H	0.568556	0.747398	0.722901
	O315	O	0.967408	1.033233	0.992779
	H316	H	0.968960	1.019994	0.986432
	H317	H	0.963808	1.032807	1.001822
	O318	O	0.538506	0.711588	0.381184
	H319	H	0.538594	0.706778	0.391378
	H320	H	0.538015	0.709048	0.397142
	O321	O	0.002568	1.228735	1.140345
	H322	H	0.005545	1.234261	1.152002
	H323	H	-0.001370	1.207293	1.148223
	O324	O	1.166952	1.013229	0.064717
	H325	H	1.173053	1.022396	0.054263
	H326	H	1.164207	0.996456	0.061517
	O327	O	-0.312416	0.334536	0.674006
	H328	H	-0.326409	0.359485	0.658312
	H329	H	-0.331326	0.347730	0.652954
	O330	O	0.293425	0.294328	0.710751
	H331	H	0.265909	0.264384	0.727833
	H332	H	0.291221	0.293229	0.659739
	O333	O	0.451040	0.412965	0.380421
	H334	H	0.460604	0.401891	0.377647
	H335	H	0.436068	0.399239	0.366507
	O336	O	0.911362	0.149214	0.004611
	H337	H	0.922648	0.141664	-0.000922
	H338	H	0.925895	0.157220	0.018500
	O339	O	0.813450	-0.045671	1.197120
	H340	H	0.827529	-0.068406	1.184305
	H341	H	0.782851	-0.054937	1.210344
	O342	O	-0.260072	-0.258416	0.229731
	H343	H	-0.266118	-0.254257	0.239405
	H344	H	-0.285117	-0.287682	0.246912
	O345	O	0.144369	0.848837	1.069957
	H346	H	0.159377	0.842840	1.063769
	H347	H	0.147831	0.836213	1.067238
	O348	O	0.064451	0.051085	0.771301
	H349	H	0.065389	0.065731	0.766723
	H350	H	0.075347	0.054648	0.778494
	O351	O	0.561697	0.472805	0.602592
	H352	H	0.552261	0.463317	0.600075
	H353	H	0.553795	0.484570	0.607626
	O354	O	-0.419986	0.512254	0.597319
	H355	H	-0.427451	0.527809	0.592790
	H356	H	-0.428274	0.527105	0.599883
	O357	O	0.112432	-0.092371	0.200899
	H358	H	0.125120	-0.083780	0.201728
	H359	H	0.113996	-0.112128	0.202654
	O360	O	-0.127124	-0.180540	1.103393
	H361	H	-0.124586	-0.179164	1.111249
	H362	H	-0.141673	-0.197709	1.120189
	O363	O	0.232743	0.036987	0.206949
	H364	H	0.256000	0.037763	0.220648
	H365	H	0.242711	0.047057	0.193824
	O366	O	0.539108	0.532525	0.321411
	H367	H	0.531622	0.554913	0.321925
	H368	H	0.533122	0.512930	0.312595
	O369	O	0.798114	0.049733	-0.235058
	H370	H	0.787945	0.062931	-0.251011
	H371	H	0.796607	0.057609	-0.244848
	O372	O	0.826895	1.199862	0.170261
	H373	H	0.825649	1.189211	0.180731
	H374	H	0.855131	1.199722	0.155109
	O375	O	0.822218	-0.179025	-0.204452
	H376	H	0.842061	-0.161613	-0.186945
	H377	H	0.836704	-0.157817	-0.181237
	O378	O	0.721079	0.306894	0.279726
	H379	H	0.725019	0.303032	0.276238
	H380	H	0.729139	0.315809	0.301956
	O381	O	-0.096328	0.821362	0.968979
	H382	H	-0.091454	0.819645	0.995883
	H383	H	-0.105383	0.827621	0.983109
	O384	O	0.795729	0.228040	0.944680
	H385	H	0.796726	0.247388	0.948064
	H386	H	0.789631	0.227498	0.956459
	O387	O	1.122585	1.168793	-0.016304
	H388	H	1.114682	1.167458	-0.002364
	H389	H	1.112100	1.160307	-0.018627
	O390	O	0.231209	0.799327	0.765495
	H391	H	0.218200	0.811117	0.751483
	H392	H	0.218199	0.811101	0.754467
	O393	O	0.631219	0.577128	0.535270
	H394	H	0.631304	0.587251	0.550085
	H395	H	0.627913	0.595307	0.535157
	O396	O	0.044324	0.798775	0.765471
	H397	H	0.041676	0.770152	0.743795
	H398	H	0.021116	0.807133	0.784140
	O399	O	0.223270	0.225069	1.003429
	H400	H	0.220654	0.244230	0.999701
	H401	H	0.219056	0.232605	1.015164
	O402	O	0.292428	0.646624	0.348158
	H403	H	0.318279	0.649027	0.343678
	H404	H	0.293155	0.645289	0.368647
	O405	O	0.969710	-0.005078	1.150837
	H406	H	0.976709	-0.011250	1.152585
	H407	H	0.952769	-0.012952	1.165413
	O408	O	0.036981	-0.107398	-0.054378
	H409	H	0.033966	-0.113088	-0.055363
	H410	H	0.047499	-0.106366	-0.052366
	O411	O	0.487029	0.634773	0.613431
	H412	H	0.462503	0.624551	0.605128
	H413	H	0.485744	0.643693	0.606992
	O414	O	0.796245	0.230300	0.762288
	H415	H	0.768538	0.250481	0.736436
	H416	H	0.780967	0.230513	0.788250
	O417	O	0.740544	0.465607	0.548712
	H418	H	0.738824	0.476966	0.552426
	H419	H	0.738878	0.462480	0.537695
	O420	O	0.380732	0.708160	0.514372
	H421	H	0.389788	0.709738	0.536411
	H422	H	0.360057	0.705897	0.521513
	O423	O	-0.047162	-0.046154	0.757777
	H424	H	-0.039267	-0.039945	0.764834
	H425	H	-0.044875	-0.036795	0.752534
	O426	O	0.469358	0.501728	0.445378
	H427	H	0.459428	0.496076	0.459597
	H428	H	0.477560	0.480402	0.448957
	O429	O	1.412476	0.726774	1.274367
	H430	H	1.419504	0.749201	1.279816
	H431	H	1.434046	0.727829	1.285573
	O432	O	0.616195	0.288740	0.514647
	H433	H	0.598900	0.291165	0.522110
	H434	H	0.603680	0.295422	0.510837
	O435	O	0.033820	1.005638	-0.068134
	H436	H	0.040501	0.995290	-0.048711
	H437	H	0.034812	1.002837	-0.081977
	O438	O	0.480952	0.301393	0.698868
	H439	H	0.472746	0.293105	0.715125
	H440	H	0.463934	0.303240	0.708258
	O441	O	0.241008	0.062922	-0.019740
	H442	H	0.237516	0.064599	-0.017176
	H443	H	0.242107	0.076952	-0.021742
	O444	O	0.727354	0.476117	0.268376
	H445	H	0.717471	0.477132	0.285112
	H446	H	0.754316	0.471890	0.248952
	O447	O	0.232700	1.227837	1.205646
	H448	H	0.226660	1.226968	1.185462
	H449	H	0.207371	1.207662	1.208251
	O450	O	-0.007466	0.796855	1.196467
	H451	H	-0.001870	0.784975	1.197323
	H452	H	-0.010045	0.782633	1.186926
	O453	O	0.239050	-0.211251	0.952251
	H454	H	0.271677	-0.240399	0.949709
	H455	H	0.233749	-0.202653	0.906664
	O456	O	0.004843	0.107616	1.209193
	H457	H	-0.014335	0.086746	1.210670
	H458	H	-0.004701	0.102266	1.214363
	O459	O	0.989813	0.818806	-0.009402
	H460	H	1.002998	0.827225	-0.006732
	H461	H	0.991598	0.824407	-0.014344
	O462	O	0.322739	0.652712	0.419892
	H463	H	0.322874	0.658963	0.407990
	H464	H	0.314209	0.662744	0.402014
	O465	O	0.792126	0.023329	-0.029247
	H466	H	0.805332	0.040285	-0.044654
	H467	H	0.783336	0.037677	-0.021869
	O468	O	0.296178	0.485239	0.701639
	H469	H	0.277792	0.463035	0.722352
	H470	H	0.297743	0.463103	0.699211
	O471	O	0.294329	0.414837	0.443027
	H472	H	0.286699	0.427779	0.431817
	H473	H	0.305607	0.415229	0.442076
	O474	O	0.334847	0.328451	0.298613
	H475	H	0.314532	0.314851	0.284625
	H476	H	0.336060	0.342193	0.309118
	O477	O	0.489011	0.526412	1.481066
	H478	H	0.493017	0.517239	1.472815
	H479	H	0.502830	0.537931	1.485979
	O480	O	0.358299	0.298339	0.513614
	H481	H	0.379025	0.310954	0.504262
	H482	H	0.354708	0.289158	0.492224
	O483	O	0.057581	0.178041	0.889436
	H484	H	0.037145	0.180030	0.872219
	H485	H	0.047143	0.172353	0.899243
	O486	O	1.227834	-0.005343	0.774159
	H487	H	1.224742	0.006795	0.783517
	H488	H	1.251136	-0.009105	0.762393
	O489	O	1.150961	1.210938	-0.193063
	H490	H	1.130906	1.199828	-0.189502
	H491	H	1.140157	1.204308	-0.175703
