data_Molecule from HDF5

_cell_length_a		16.127220
_cell_length_b		16.368799
_cell_length_c		16.374581
_cell_angle_alpha	89.940939
_cell_angle_beta	89.465733
_cell_angle_gamma	90.166504
_symmetry_space_group_name_H-M	'P 1'
_symmetry_Int_Tables_number		1

loop_
	_symmetry_equiv_pos_as_xyz
	x,y,z

loop_
	_atom_site_label
	_atom_site_type_symbol
	_atom_site_fract_x
	_atom_site_fract_y
	_atom_site_fract_z
	H0	H	0.394412	0.838539	0.719532
	H1	H	0.602298	0.160047	0.717708
	H2	H	0.603271	0.838116	0.280808
	H3	H	0.396575	0.159504	0.280609
	H4	H	0.713738	0.399603	0.835206
	H5	H	0.713386	0.598589	0.160482
	H6	H	0.288341	0.596097	0.833119
	H7	H	0.277208	0.398763	0.159576
	H8	H	0.835060	0.715643	0.396997
	H9	H	0.161657	0.715206	0.595991
	H10	H	0.834315	0.283698	0.597053
	H11	H	0.163143	0.285236	0.393954
	H12	H	0.834352	0.396719	0.714097
	H13	H	0.162249	0.599339	0.709220
	H14	H	0.833398	0.598467	0.283592
	H15	H	0.161788	0.398092	0.277695
	H16	H	0.396182	0.719565	0.838953
	H17	H	0.599030	0.715909	0.161013
	H18	H	0.603182	0.278536	0.838393
	H19	H	0.392107	0.280159	0.160182
	H20	H	0.713741	0.836109	0.402336
	H21	H	0.714484	0.161746	0.598009
	H22	H	0.280191	0.837796	0.601338
	H23	H	0.286688	0.163112	0.402405
	H24	H	0.892900	0.337488	0.216633
	H25	H	0.100719	0.659535	0.213526
	H26	H	0.098661	0.336528	0.778946
	H27	H	0.896173	0.659978	0.778132
	H28	H	0.217485	0.900552	0.336339
	H29	H	0.211643	0.099676	0.661454
	H30	H	0.784570	0.097345	0.334917
	H31	H	0.781961	0.899242	0.660144
	H32	H	0.334777	0.214763	0.899336
	H33	H	0.661122	0.218438	0.100870
	H34	H	0.335049	0.782050	0.103511
	H35	H	0.661858	0.783446	0.898564
	H36	H	0.335830	0.895690	0.219770
	H37	H	0.663584	0.099895	0.212548
	H38	H	0.336185	0.100774	0.783405
	H39	H	0.661378	0.895952	0.780534
	H40	H	0.897410	0.216990	0.335267
	H41	H	0.100286	0.219852	0.657427
	H42	H	0.104030	0.781410	0.336292
	H43	H	0.891935	0.777666	0.657037
	H44	H	0.213241	0.335886	0.897104
	H45	H	0.212663	0.661319	0.094252
	H46	H	0.781198	0.336370	0.096640
	H47	H	0.783711	0.661902	0.899059
	H48	H	0.404613	0.115347	0.591794
	H49	H	0.583276	0.887243	0.587607
	H50	H	0.587211	0.113776	0.403988
	H51	H	0.414842	0.885201	0.405232
	H52	H	0.585350	0.406201	0.112944
	H53	H	0.593710	0.593096	0.882555
	H54	H	0.403060	0.585975	0.113306
	H55	H	0.413538	0.402954	0.884887
	H56	H	0.116839	0.600994	0.407506
	H57	H	0.880395	0.593855	0.587274
	H58	H	0.118273	0.409868	0.598377
	H59	H	0.884540	0.411417	0.411582
	H60	H	0.116878	0.398595	0.581665
	H61	H	0.883445	0.586898	0.584276
	H62	H	0.110324	0.582704	0.410212
	H63	H	0.880503	0.410688	0.400806
	H64	H	0.409719	0.591523	0.112349
	H65	H	0.589262	0.588810	0.885679
	H66	H	0.589320	0.406375	0.114334
	H67	H	0.404775	0.401656	0.881259
	H68	H	0.593099	0.113014	0.409653
	H69	H	0.595486	0.883093	0.587901
	H70	H	0.407654	0.115034	0.596068
	H71	H	0.408909	0.886191	0.414923
	H72	H	0.901515	0.613919	0.084710
	H73	H	0.078926	0.387571	0.082657
	H74	H	0.084290	0.612124	0.902204
	H75	H	0.913398	0.386593	0.907414
	H76	H	0.091910	0.899894	0.615608
	H77	H	0.090379	0.088878	0.384185
	H78	H	0.914493	0.097188	0.611402
	H79	H	0.914059	0.909881	0.385765
	H80	H	0.612438	0.076100	0.904777
	H81	H	0.383797	0.085550	0.089791
	H82	H	0.615698	0.907101	0.090436
	H83	H	0.381693	0.913863	0.905645
	H84	H	0.615947	0.906372	0.089831
	H85	H	0.381050	0.087455	0.094943
	H86	H	0.620344	0.097837	0.900171
	H87	H	0.379631	0.901763	0.909277
	H88	H	0.901025	0.094532	0.614272
	H89	H	0.091596	0.096956	0.382030
	H90	H	0.090728	0.913355	0.611966
	H91	H	0.908696	0.901348	0.380957
	H92	H	0.097044	0.615523	0.906040
	H93	H	0.094054	0.383610	0.082437
	H94	H	0.905896	0.615692	0.096313
	H95	H	0.900713	0.383833	0.908730
	H96	H	0.409526	0.113508	0.592079
	H97	H	0.588201	0.882866	0.597706
	H98	H	0.595002	0.116564	0.402424
	H99	H	0.403398	0.882049	0.405693
	H100	H	0.587599	0.409626	0.112958
	H101	H	0.586970	0.595005	0.883710
	H102	H	0.401651	0.594383	0.115244
	H103	H	0.407183	0.410528	0.884554
	H104	H	0.117851	0.587726	0.392775
	H105	H	0.880083	0.586064	0.591696
	H106	H	0.110862	0.418058	0.580654
	H107	H	0.880792	0.401345	0.407158
	H108	H	0.913685	0.610474	0.087373
	H109	H	0.085662	0.381804	0.095195
	H110	H	0.093693	0.616845	0.892884
	H111	H	0.906625	0.381267	0.896985
	H112	H	0.079444	0.904683	0.609954
	H113	H	0.097644	0.091483	0.380732
	H114	H	0.909334	0.084916	0.609130
	H115	H	0.903374	0.910777	0.382890
	H116	H	0.611438	0.092802	0.921980
	H117	H	0.381650	0.091930	0.090435
	H118	H	0.616239	0.906927	0.089178
	H119	H	0.384457	0.910127	0.916588
	C120	C	0.376258	0.008066	0.622987
	C121	C	0.620073	0.990938	0.621159
	C122	C	0.621740	0.007613	0.376527
	C123	C	0.378892	0.991259	0.378773
	C124	C	0.619038	0.377224	0.006721
	C125	C	0.619722	0.621321	0.990600
	C126	C	0.376354	0.620297	0.006540
	C127	C	0.375899	0.375537	0.990014
	C128	C	0.006482	0.620025	0.374874
	C129	C	0.989335	0.619649	0.617029
	C130	C	0.006944	0.378508	0.617203
	C131	C	0.990118	0.378171	0.374966
	C132	C	0.875366	0.506959	0.119918
	C133	C	0.117584	0.490740	0.116548
	C134	C	0.120562	0.507080	0.872414
	C135	C	0.876603	0.490475	0.874964
	C136	C	0.119565	0.877336	0.505854
	C137	C	0.121207	0.121846	0.489235
	C138	C	0.877825	0.121300	0.505159
	C139	C	0.876851	0.876784	0.489303
	C140	C	0.506996	0.119223	0.879203
	C141	C	0.490315	0.119367	0.120582
	C142	C	0.507747	0.876842	0.121374
	C143	C	0.489663	0.877922	0.879013
	C144	C	0.375518	0.886768	0.680465
	C145	C	0.620960	0.112131	0.678334
	C146	C	0.621786	0.885919	0.320221
	C147	C	0.378613	0.111958	0.320750
	C148	C	0.676064	0.379092	0.884373
	C149	C	0.675404	0.619023	0.112164
	C150	C	0.323796	0.617580	0.883170
	C151	C	0.316234	0.377810	0.111227
	C152	C	0.883657	0.676830	0.376857
	C153	C	0.112655	0.676720	0.615550
	C154	C	0.883521	0.321451	0.617013
	C155	C	0.113463	0.322233	0.374056
	C156	C	0.883547	0.377722	0.675239
	C157	C	0.112782	0.618926	0.672000
	C158	C	0.882946	0.618558	0.320331
	C159	C	0.112916	0.378786	0.316395
	C160	C	0.377554	0.679189	0.886112
	C161	C	0.618456	0.677493	0.112330
	C162	C	0.620728	0.318993	0.885924
	C163	C	0.373467	0.318825	0.111673
	C164	C	0.676814	0.885124	0.380521
	C165	C	0.676809	0.113040	0.618883
	C166	C	0.318659	0.886354	0.621569
	C167	C	0.323412	0.113433	0.381011
	C168	C	0.874450	0.385739	0.177547
	C169	C	0.119026	0.611722	0.174007
	C170	C	0.119057	0.385112	0.816799
	C171	C	0.877034	0.612045	0.817711
	C172	C	0.178639	0.879356	0.384594
	C173	C	0.174958	0.120146	0.612199
	C174	C	0.822126	0.118326	0.383514
	C175	C	0.819774	0.878396	0.611191
	C176	C	0.384029	0.176460	0.879825
	C177	C	0.612886	0.178434	0.119603
	C178	C	0.384339	0.820070	0.122812
	C179	C	0.612654	0.821209	0.878732
	C180	C	0.384885	0.876801	0.180502
	C181	C	0.613942	0.119841	0.175735
	C182	C	0.384578	0.119672	0.822189
	C183	C	0.612517	0.877457	0.820166
	C184	C	0.878708	0.177622	0.383352
	C185	C	0.119848	0.179984	0.610047
	C186	C	0.122092	0.820333	0.384558
	C187	C	0.874742	0.818222	0.609618
	C188	C	0.175803	0.384628	0.875846
	C189	C	0.174597	0.612753	0.114634
	C190	C	0.818514	0.385194	0.118061
	C191	C	0.821104	0.613041	0.877691
	C192	C	0.400324	0.092704	0.600139
	C193	C	0.595904	0.906551	0.597901
	C194	C	0.598486	0.092455	0.398696
	C195	C	0.402196	0.906415	0.401928
	C196	C	0.594744	0.400625	0.091288
	C197	C	0.596781	0.598847	0.905820
	C198	C	0.398253	0.597258	0.091447
	C199	C	0.401360	0.398332	0.905579
	C200	C	0.092737	0.597064	0.396887
	C201	C	0.903583	0.595826	0.594350
	C202	C	0.092948	0.401983	0.593731
	C203	C	0.904066	0.400932	0.399557
	C204	C	0.899777	0.591439	0.096268
	C205	C	0.093227	0.406280	0.093403
	C206	C	0.098236	0.592513	0.894117
	C207	C	0.899905	0.405928	0.897725
	C208	C	0.094502	0.899449	0.590445
	C209	C	0.099691	0.099034	0.404575
	C210	C	0.901477	0.098876	0.589731
	C211	C	0.901615	0.900452	0.404933
	C212	C	0.592560	0.095793	0.902290
	C213	C	0.404630	0.095299	0.098239
	C214	C	0.593726	0.900144	0.096871
	C215	C	0.404147	0.901757	0.903338
	Zn216	Zn	0.499216	-0.001103	0.750649
	Zn217	Zn	0.499882	-0.001590	0.248450
	Zn218	Zn	0.747820	0.499267	-0.002518
	Zn219	Zn	0.247701	0.498917	-0.003944
	Zn220	Zn	-0.001613	0.747930	0.496530
	Zn221	Zn	-0.000499	0.250893	0.495996
	Zn222	Zn	-0.001966	0.498761	0.744720
	Zn223	Zn	-0.002196	0.498621	0.247142
	Zn224	Zn	0.497708	0.749770	-0.000062
	Zn225	Zn	0.498031	0.247317	-0.000315
	Zn226	Zn	0.748829	-0.000386	0.499084
	Zn227	Zn	0.248586	-0.000667	0.499458
	N228	N	0.410689	0.963390	0.681368
	N229	N	0.586366	0.035253	0.679822
	N230	N	0.588378	0.963102	0.317391
	N231	N	0.412676	0.034957	0.319354
	N232	N	0.675275	0.414633	0.960475
	N233	N	0.676373	0.584905	0.035565
	N234	N	0.322869	0.581766	0.959181
	N235	N	0.317636	0.412362	0.034625
	N236	N	0.961595	0.677901	0.409860
	N237	N	0.034828	0.677291	0.581925
	N238	N	0.961189	0.321648	0.581509
	N239	N	0.035992	0.321881	0.410040
	N240	N	0.961234	0.412346	0.675526
	N241	N	0.035008	0.584259	0.673160
	N242	N	0.960573	0.584052	0.318992
	N243	N	0.035127	0.412686	0.316906
	N244	N	0.409207	0.681225	0.963866
	N245	N	0.584663	0.679175	0.035447
	N246	N	0.586151	0.317573	0.962940
	N247	N	0.409920	0.317502	0.035397
	N248	N	0.676900	0.961761	0.414723
	N249	N	0.676514	0.036736	0.584107
	N250	N	0.318880	0.962724	0.586670
	N251	N	0.323662	0.037316	0.416556
	N252	N	0.909042	0.462609	0.178820
	N253	N	0.083993	0.535030	0.175272
	N254	N	0.085705	0.462370	0.814545
	N255	N	0.910902	0.535023	0.815952
	N256	N	0.177461	0.913939	0.461082
	N257	N	0.176079	0.084789	0.536200
	N258	N	0.821824	0.083989	0.460139
	N259	N	0.820974	0.914273	0.535472
	N260	N	0.461302	0.176280	0.914588
	N261	N	0.534982	0.178499	0.086411
	N262	N	0.461582	0.820005	0.086662
	N263	N	0.535320	0.821545	0.914648
	N264	N	0.462771	0.911256	0.179923
	N265	N	0.536805	0.083718	0.176341
	N266	N	0.461982	0.084954	0.821516
	N267	N	0.534949	0.912005	0.820205
	N268	N	0.912548	0.179856	0.460204
	N269	N	0.087113	0.181472	0.532760
	N270	N	0.085967	0.819016	0.460997
	N271	N	0.909672	0.817013	0.532719
	N272	N	0.177130	0.461644	0.909263
	N273	N	0.173736	0.536575	0.079390
	N274	N	0.818970	0.461514	0.083015
	N275	N	0.820435	0.536546	0.912389
	O276	O	-0.080992	-0.090979	0.077593
	H277	H	-0.083414	-0.084183	0.076522
	H278	H	-0.084422	-0.100694	0.070917
	O279	O	0.680411	0.489698	0.482998
	H280	H	0.690614	0.495113	0.504512
	H281	H	0.673867	0.487391	0.485237
	O282	O	0.938483	0.085954	-0.104540
	H283	H	0.937211	0.086645	-0.100524
	H284	H	0.932754	0.078371	-0.109958
	O285	O	-0.076183	0.947993	0.017747
	H286	H	-0.065763	0.946306	0.022052
	H287	H	-0.082354	0.952422	0.011317
	O288	O	0.394222	0.405893	0.470781
	H289	H	0.387800	0.412944	0.466757
	H290	H	0.404288	0.407963	0.465511
	O291	O	1.009285	-0.100295	1.038902
	H292	H	1.018669	-0.109996	1.044654
	H293	H	0.999091	-0.104884	1.052308
	O294	O	0.938984	0.977036	0.892370
	H295	H	0.937077	0.995627	0.886312
	H296	H	0.936931	0.964753	0.899252
	O297	O	-0.045502	-0.063381	0.001685
	H298	H	-0.055277	-0.071153	0.012061
	H299	H	-0.040942	-0.065370	0.014728
	O300	O	0.576821	0.382205	0.538198
	H301	H	0.568943	0.383625	0.535457
	H302	H	0.571367	0.383720	0.535638
	O303	O	-0.014668	0.870824	1.091834
	H304	H	-0.024757	0.864700	1.084384
	H305	H	-0.013207	0.865489	1.088462
	O306	O	0.431441	0.379866	0.573745
	H307	H	0.424741	0.375112	0.581476
	H308	H	0.415732	0.380783	0.575082
	O309	O	0.910445	0.151234	0.060029
	H310	H	0.906085	0.152142	0.048713
	H311	H	0.916187	0.153107	0.063502
	O312	O	0.131225	-0.116313	0.928516
	H313	H	0.137740	-0.124110	0.920893
	H314	H	0.141442	-0.127967	0.911271
	O315	O	0.499332	0.560259	0.522402
	H316	H	0.504600	0.574764	0.536569
	H317	H	0.494943	0.556932	0.515493
	O318	O	0.393213	0.664015	0.539515
	H319	H	0.377708	0.673269	0.530413
	H320	H	0.405118	0.658785	0.533170
	O321	O	0.498302	0.551127	0.429172
	H322	H	0.509659	0.544484	0.433219
	H323	H	0.498872	0.547027	0.434810
	O324	O	0.518595	0.442456	0.446111
	H325	H	0.515377	0.427408	0.423759
	H326	H	0.530683	0.440786	0.472061
	O327	O	0.007689	0.865299	0.900007
	H328	H	0.014599	0.867564	0.901305
	H329	H	0.020098	0.866790	0.890958
	O330	O	0.489397	0.549141	0.445833
	H331	H	0.489943	0.546279	0.435836
	H332	H	0.482960	0.541165	0.450114
	O333	O	-0.003498	1.170860	1.040175
	H334	H	-0.004214	1.154413	1.056198
	H335	H	-0.010118	1.178276	1.045499
	O336	O	1.025648	1.158446	1.079230
	H337	H	1.015080	1.180029	1.075489
	H338	H	1.038572	1.142569	1.074229
	O339	O	0.536879	0.502374	0.453017
	H340	H	0.530851	0.510522	0.451220
	H341	H	0.532062	0.496479	0.454496
	O342	O	1.126112	-0.147330	-0.106697
	H343	H	1.115075	-0.139063	-0.112042
	H344	H	1.123152	-0.127207	-0.112589
	O345	O	0.007071	1.015143	-0.099123
	H346	H	0.008813	1.015521	-0.090770
	H347	H	-0.004350	1.018620	-0.097831
	O348	O	1.010592	0.957713	1.003780
	H349	H	1.021648	0.947336	1.014512
	H350	H	1.008624	0.941846	1.004260
	O351	O	0.840974	1.047631	-0.026259
	H352	H	0.840999	1.051096	-0.021726
	H353	H	0.833942	1.047425	-0.026267
	O354	O	0.549924	0.382307	0.525542
	H355	H	0.536696	0.394683	0.539985
	H356	H	0.556700	0.372550	0.527914
	O357	O	0.364873	0.407702	0.581243
	H358	H	0.362097	0.404694	0.590504
	H359	H	0.364594	0.410632	0.582743
	O360	O	0.056028	-0.042307	-0.023235
	H361	H	0.052106	-0.041487	-0.026572
	H362	H	0.050706	-0.046268	-0.026767
	O363	O	0.557401	0.499645	0.610709
	H364	H	0.550638	0.500986	0.609920
	H365	H	0.562566	0.504687	0.614384
	O366	O	0.364027	0.571216	0.567910
	H367	H	0.359945	0.572735	0.567242
	H368	H	0.364048	0.565359	0.560026
	O369	O	0.532865	0.640702	0.618862
	H370	H	0.527524	0.640471	0.624973
	H371	H	0.519291	0.640219	0.622717
	O372	O	0.439890	0.372562	0.435770
	H373	H	0.447269	0.376345	0.426259
	H374	H	0.444162	0.360405	0.427906
	O375	O	0.611008	0.537791	0.406584
	H376	H	0.626117	0.534069	0.404537
	H377	H	0.616021	0.527519	0.410543
	O378	O	0.641284	0.510415	0.468548
	H379	H	0.647850	0.501755	0.469706
	H380	H	0.624739	0.510222	0.473534
	O381	O	0.569664	0.620024	0.443599
	H382	H	0.587454	0.620046	0.447672
	H383	H	0.572146	0.622266	0.451565
	O384	O	0.084720	1.170853	-0.003540
	H385	H	0.081415	1.177999	-0.007102
	H386	H	0.073334	1.164908	0.005102
	O387	O	1.163267	-0.012943	1.050943
	H388	H	1.179234	-0.021311	1.038401
	H389	H	1.163945	0.004040	1.060195
	O390	O	-0.052679	0.953146	0.102697
	H391	H	-0.055192	0.961978	0.100277
	H392	H	-0.048731	0.962357	0.099582
	O393	O	1.052316	1.041664	-0.161516
	H394	H	1.057054	1.054381	-0.152752
	H395	H	1.046456	1.049335	-0.154031
	O396	O	0.410769	0.316410	0.557926
	H397	H	0.418116	0.323690	0.546471
	H398	H	0.397218	0.308993	0.546704
	O399	O	0.124012	1.128505	1.081839
	H400	H	0.117044	1.121843	1.091433
	H401	H	0.127177	1.130285	1.079487
	O402	O	0.883565	0.914714	1.091491
	H403	H	0.876769	0.910998	1.092036
	H404	H	0.878705	0.922609	1.092645
	O405	O	0.399610	0.557932	0.347940
	H406	H	0.400202	0.563606	0.339217
	H407	H	0.407688	0.563394	0.351716
