data_Molecule from HDF5

_cell_length_a		16.251954
_cell_length_b		16.282893
_cell_length_c		16.336671
_cell_angle_alpha	90.134593
_cell_angle_beta	90.102171
_cell_angle_gamma	90.077907
_symmetry_space_group_name_H-M	'P 1'
_symmetry_Int_Tables_number		1

loop_
	_symmetry_equiv_pos_as_xyz
	x,y,z

loop_
	_atom_site_label
	_atom_site_type_symbol
	_atom_site_fract_x
	_atom_site_fract_y
	_atom_site_fract_z
	H0	H	0.405292	0.842241	0.717149
	H1	H	0.602347	0.169366	0.716848
	H2	H	0.602822	0.842276	0.287147
	H3	H	0.401651	0.168244	0.285394
	H4	H	0.715433	0.408599	0.837345
	H5	H	0.718196	0.604499	0.164607
	H6	H	0.288943	0.602920	0.838226
	H7	H	0.286226	0.406265	0.164619
	H8	H	0.840108	0.720843	0.404009
	H9	H	0.167670	0.720051	0.599954
	H10	H	0.839995	0.291262	0.599409
	H11	H	0.167264	0.290604	0.401621
	H12	H	0.838968	0.407967	0.714276
	H13	H	0.166123	0.607170	0.717994
	H14	H	0.838453	0.604845	0.287629
	H15	H	0.166616	0.407208	0.286234
	H16	H	0.404766	0.719578	0.838777
	H17	H	0.601227	0.719538	0.166027
	H18	H	0.600884	0.290803	0.837724
	H19	H	0.404024	0.290645	0.165023
	H20	H	0.717267	0.841694	0.404813
	H21	H	0.718343	0.169148	0.601336
	H22	H	0.288957	0.842022	0.601423
	H23	H	0.289278	0.169041	0.404438
	H24	H	0.902320	0.342891	0.217090
	H25	H	0.102627	0.669837	0.216649
	H26	H	0.101278	0.343414	0.785054
	H27	H	0.902283	0.669379	0.785744
	H28	H	0.219830	0.905825	0.340236
	H29	H	0.218537	0.104856	0.666529
	H30	H	0.787313	0.104533	0.340008
	H31	H	0.790583	0.908269	0.666116
	H32	H	0.338989	0.217824	0.903312
	H33	H	0.667266	0.219894	0.100380
	H34	H	0.338527	0.791827	0.099666
	H35	H	0.667126	0.791118	0.904878
	H36	H	0.340243	0.904600	0.218136
	H37	H	0.667230	0.104964	0.217557
	H38	H	0.340517	0.102586	0.786928
	H39	H	0.668078	0.907613	0.789604
	H40	H	0.904613	0.219783	0.339140
	H41	H	0.103658	0.222403	0.664642
	H42	H	0.102318	0.791238	0.339152
	H43	H	0.904492	0.790629	0.664722
	H44	H	0.217017	0.342214	0.901011
	H45	H	0.217227	0.669510	0.098673
	H46	H	0.789373	0.341329	0.097846
	H47	H	0.787963	0.669464	0.903272
	H48	H	0.415407	0.122155	0.599885
	H49	H	0.599713	0.887123	0.599814
	H50	H	0.598517	0.120896	0.416025
	H51	H	0.410740	0.887675	0.404880
	H52	H	0.598796	0.407727	0.118602
	H53	H	0.586142	0.595307	0.889529
	H54	H	0.409033	0.592439	0.116051
	H55	H	0.404354	0.415779	0.885734
	H56	H	0.118379	0.599978	0.416312
	H57	H	0.884652	0.610816	0.587839
	H58	H	0.118511	0.410966	0.586936
	H59	H	0.888668	0.415133	0.411780
	H60	H	0.117900	0.422854	0.594741
	H61	H	0.892612	0.588308	0.585764
	H62	H	0.118525	0.590985	0.405591
	H63	H	0.887200	0.415544	0.404522
	H64	H	0.415389	0.600442	0.116886
	H65	H	0.596394	0.608622	0.882695
	H66	H	0.600000	0.416131	0.117133
	H67	H	0.415322	0.412397	0.887831
	H68	H	0.599695	0.124638	0.404868
	H69	H	0.592665	0.889817	0.596530
	H70	H	0.413453	0.119720	0.591143
	H71	H	0.416124	0.891784	0.410870
	H72	H	0.910972	0.625416	0.107316
	H73	H	0.099086	0.387582	0.097714
	H74	H	0.103146	0.622048	0.916656
	H75	H	0.900690	0.384999	0.902970
	H76	H	0.094048	0.925422	0.613611
	H77	H	0.098338	0.105372	0.384679
	H78	H	0.910437	0.098512	0.618689
	H79	H	0.905702	0.906706	0.383536
	H80	H	0.620513	0.097313	0.909849
	H81	H	0.384701	0.100558	0.098989
	H82	H	0.619453	0.905899	0.088335
	H83	H	0.387568	0.915532	0.909147
	H84	H	0.616463	0.921440	0.094156
	H85	H	0.387832	0.098892	0.089675
	H86	H	0.621197	0.100187	0.907188
	H87	H	0.385718	0.911403	0.905452
	H88	H	0.912978	0.099966	0.618260
	H89	H	0.102237	0.092643	0.386475
	H90	H	0.087574	0.904092	0.618342
	H91	H	0.907093	0.921551	0.388146
	H92	H	0.096733	0.625978	0.898660
	H93	H	0.086772	0.391900	0.096917
	H94	H	0.920877	0.617185	0.088520
	H95	H	0.917653	0.390409	0.900938
	H96	H	0.406926	0.123430	0.596543
	H97	H	0.599138	0.889172	0.592214
	H98	H	0.588843	0.120071	0.408724
	H99	H	0.407495	0.889310	0.412833
	H100	H	0.592010	0.412292	0.116293
	H101	H	0.603272	0.592531	0.884719
	H102	H	0.405331	0.601808	0.120248
	H103	H	0.407352	0.404709	0.883489
	H104	H	0.122244	0.604148	0.403887
	H105	H	0.883401	0.596001	0.606737
	H106	H	0.122508	0.411314	0.600564
	H107	H	0.885683	0.409012	0.408790
	H108	H	0.899217	0.623692	0.088021
	H109	H	0.094211	0.391980	0.086697
	H110	H	0.084870	0.618437	0.912266
	H111	H	0.910086	0.392523	0.916192
	H112	H	0.109467	0.910055	0.623198
	H113	H	0.089773	0.096340	0.390018
	H114	H	0.910438	0.100966	0.618894
	H115	H	0.918812	0.912148	0.388065
	H116	H	0.620557	0.101041	0.911147
	H117	H	0.388592	0.091360	0.096666
	H118	H	0.623207	0.909689	0.104537
	H119	H	0.387497	0.909996	0.911302
	C120	C	0.383171	0.013811	0.624003
	C121	C	0.625795	0.996770	0.624552
	C122	C	0.624906	0.013856	0.381486
	C123	C	0.381913	0.997242	0.380605
	C124	C	0.624381	0.384034	0.009301
	C125	C	0.624385	0.627597	0.993659
	C126	C	0.381444	0.626747	0.009770
	C127	C	0.380375	0.382866	0.993505
	C128	C	0.011412	0.627512	0.380016
	C129	C	0.994831	0.628129	0.623049
	C130	C	0.011446	0.385568	0.622320
	C131	C	0.995029	0.384271	0.379476
	C132	C	0.881216	0.513972	0.122790
	C133	C	0.123441	0.497825	0.122968
	C134	C	0.123862	0.514405	0.879742
	C135	C	0.881068	0.497740	0.879115
	C136	C	0.125901	0.884334	0.510824
	C137	C	0.125725	0.127481	0.494583
	C138	C	0.881604	0.128058	0.511034
	C139	C	0.882052	0.884543	0.494253
	C140	C	0.511991	0.126643	0.881015
	C141	C	0.495012	0.126490	0.123694
	C142	C	0.511490	0.883716	0.123748
	C143	C	0.495379	0.884000	0.880904
	C144	C	0.385188	0.890730	0.678827
	C145	C	0.623124	0.120294	0.679522
	C146	C	0.622682	0.890734	0.325994
	C147	C	0.382687	0.119573	0.324209
	C148	C	0.678141	0.387180	0.886112
	C149	C	0.680036	0.624848	0.116157
	C150	C	0.326779	0.623514	0.886953
	C151	C	0.324292	0.385441	0.115870
	C152	C	0.888608	0.682975	0.382866
	C153	C	0.118347	0.683098	0.620852
	C154	C	0.888440	0.329805	0.619264
	C155	C	0.118393	0.329016	0.381856
	C156	C	0.888003	0.387596	0.676714
	C157	C	0.117502	0.626886	0.679455
	C158	C	0.887864	0.625101	0.325343
	C159	C	0.118052	0.386827	0.324342
	C160	C	0.384220	0.681543	0.887204
	C161	C	0.621912	0.682104	0.116857
	C162	C	0.621012	0.329016	0.886405
	C163	C	0.382901	0.328095	0.116142
	C164	C	0.679611	0.890440	0.384479
	C165	C	0.680555	0.120279	0.621802
	C166	C	0.327163	0.890887	0.621590
	C167	C	0.326669	0.120118	0.383405
	C168	C	0.882874	0.391203	0.178137
	C169	C	0.122825	0.620926	0.178660
	C170	C	0.121730	0.391794	0.823474
	C171	C	0.882548	0.620527	0.823931
	C172	C	0.181422	0.886064	0.388494
	C173	C	0.180958	0.125420	0.617372
	C174	C	0.825891	0.124806	0.388515
	C175	C	0.827620	0.887316	0.617014
	C176	C	0.388129	0.180442	0.883315
	C177	C	0.618453	0.182201	0.121269
	C178	C	0.387952	0.828613	0.121022
	C179	C	0.618362	0.828660	0.883838
	C180	C	0.388622	0.885212	0.179391
	C181	C	0.618387	0.125027	0.179410
	C182	C	0.388995	0.123752	0.825048
	C183	C	0.618949	0.886514	0.826527
	C184	C	0.884038	0.182192	0.387977
	C185	C	0.123996	0.183872	0.616657
	C186	C	0.122906	0.829026	0.388073
	C187	C	0.884462	0.828945	0.616532
	C188	C	0.179273	0.391479	0.881081
	C189	C	0.179443	0.620900	0.119829
	C190	C	0.826561	0.390582	0.119006
	C191	C	0.826001	0.620751	0.882583
	C192	C	0.405403	0.099624	0.602322
	C193	C	0.603472	0.910914	0.602684
	C194	C	0.602380	0.099615	0.403476
	C195	C	0.404869	0.911645	0.402923
	C196	C	0.603071	0.405674	0.095062
	C197	C	0.601880	0.605471	0.907843
	C198	C	0.403602	0.604750	0.095705
	C199	C	0.402507	0.404495	0.907797
	C200	C	0.097593	0.604803	0.402086
	C201	C	0.908895	0.605142	0.600131
	C202	C	0.097387	0.408334	0.600480
	C203	C	0.909358	0.406609	0.401818
	C204	C	0.903755	0.599872	0.101142
	C205	C	0.100211	0.412694	0.100487
	C206	C	0.101400	0.600053	0.902551
	C207	C	0.903154	0.411473	0.900442
	C208	C	0.103590	0.906575	0.596207
	C209	C	0.103332	0.104691	0.409239
	C210	C	0.904583	0.106366	0.596630
	C211	C	0.904124	0.906937	0.408609
	C212	C	0.598410	0.105524	0.902871
	C213	C	0.409391	0.103627	0.101579
	C214	C	0.597405	0.905788	0.101959
	C215	C	0.409072	0.906005	0.902190
	Zn216	Zn	0.504178	0.005415	0.752909
	Zn217	Zn	0.503715	0.005196	0.252394
	Zn218	Zn	0.752957	0.505859	0.000691
	Zn219	Zn	0.252256	0.505497	0.001218
	Zn220	Zn	0.003663	0.755914	0.502075
	Zn221	Zn	0.004034	0.256388	0.501614
	Zn222	Zn	0.002485	0.506696	0.750795
	Zn223	Zn	0.002551	0.506214	0.251504
	Zn224	Zn	0.502740	0.755716	0.002483
	Zn225	Zn	0.503078	0.254679	0.002134
	Zn226	Zn	0.753628	0.005851	0.503078
	Zn227	Zn	0.254245	0.006020	0.503098
	N228	N	0.419246	0.968023	0.680629
	N229	N	0.589631	0.042602	0.681218
	N230	N	0.589511	0.968257	0.323845
	N231	N	0.416220	0.042015	0.322301
	N232	N	0.680032	0.421078	0.963288
	N233	N	0.681768	0.591808	0.038578
	N234	N	0.325332	0.590032	0.964138
	N235	N	0.322741	0.418743	0.038532
	N236	N	0.966296	0.684524	0.416158
	N237	N	0.040984	0.683757	0.586453
	N238	N	0.966231	0.328532	0.586242
	N239	N	0.040706	0.327251	0.415348
	N240	N	0.965352	0.421703	0.678556
	N241	N	0.039746	0.593377	0.680836
	N242	N	0.965563	0.591687	0.323422
	N243	N	0.040542	0.420226	0.322637
	N244	N	0.417368	0.683710	0.964815
	N245	N	0.588234	0.684016	0.039534
	N246	N	0.588475	0.326640	0.964239
	N247	N	0.416850	0.326288	0.039135
	N248	N	0.681365	0.968123	0.418184
	N249	N	0.682315	0.042773	0.588332
	N250	N	0.326099	0.968382	0.588048
	N251	N	0.325984	0.043120	0.417786
	N252	N	0.915931	0.469109	0.180848
	N253	N	0.088452	0.543735	0.180471
	N254	N	0.088049	0.469316	0.822410
	N255	N	0.916128	0.542983	0.821777
	N256	N	0.183169	0.919913	0.465729
	N257	N	0.182186	0.091254	0.540182
	N258	N	0.824284	0.092108	0.465989
	N259	N	0.826331	0.921333	0.540036
	N260	N	0.465689	0.182327	0.917373
	N261	N	0.540842	0.183247	0.087521
	N262	N	0.465150	0.827803	0.087004
	N263	N	0.540744	0.827417	0.917224
	N264	N	0.466411	0.918834	0.181371
	N265	N	0.540823	0.091008	0.181072
	N266	N	0.466848	0.090860	0.823769
	N267	N	0.541314	0.920126	0.824520
	N268	N	0.918200	0.184189	0.465121
	N269	N	0.090246	0.185170	0.539460
	N270	N	0.089082	0.827947	0.465143
	N271	N	0.917744	0.827203	0.539149
	N272	N	0.180401	0.468601	0.915599
	N273	N	0.180412	0.543422	0.086219
	N274	N	0.825781	0.467830	0.085101
	N275	N	0.825040	0.543369	0.916101
	O276	O	0.523360	0.487947	0.452218
	H277	H	0.514464	0.488113	0.455611
	H278	H	0.527395	0.491857	0.451033
	O279	O	0.061399	0.035222	0.098686
	H280	H	0.054686	0.027301	0.106601
	H281	H	0.065443	0.035301	0.100186
	O282	O	0.511657	0.467332	0.496510
	H283	H	0.512007	0.460784	0.494427
	H284	H	0.510369	0.472418	0.489223
	O285	O	0.492560	0.461553	0.456151
	H286	H	0.494654	0.460447	0.455909
	H287	H	0.492143	0.457128	0.463108
	O288	O	1.104699	0.058781	0.087594
	H289	H	1.100415	0.055057	0.094606
	H290	H	1.105157	0.057111	0.095424
	O291	O	-0.491032	0.460879	-0.526002
	H292	H	-0.485856	0.458992	-0.516835
	H293	H	-0.491796	0.457263	-0.528349
	O294	O	0.499364	0.481752	0.417123
	H295	H	0.505505	0.478396	0.417504
	H296	H	0.496084	0.479394	0.413878
	O297	O	0.055241	1.016631	0.093414
	H298	H	0.058947	1.026756	0.101208
	H299	H	0.053161	1.016135	0.097260
	O300	O	1.035225	0.034744	1.095647
	H301	H	1.044365	0.042933	1.091248
	H302	H	1.031806	0.038143	1.092065
	O303	O	0.515471	0.448183	0.416391
	H304	H	0.516536	0.452520	0.413711
	H305	H	0.515456	0.458509	0.413010
	O306	O	0.022933	1.048479	1.105975
	H307	H	0.028632	1.049336	1.098995
	H308	H	0.018541	1.047558	1.106760
	O309	O	0.537932	0.502193	0.469060
	H310	H	0.529982	0.492305	0.472501
	H311	H	0.536033	0.498855	0.466207
