data_Molecule from HDF5

_cell_length_a		16.117020
_cell_length_b		16.353381
_cell_length_c		16.493614
_cell_angle_alpha	89.829208
_cell_angle_beta	89.602349
_cell_angle_gamma	89.987639
_symmetry_space_group_name_H-M	'P 1'
_symmetry_Int_Tables_number		1

loop_
	_symmetry_equiv_pos_as_xyz
	x,y,z

loop_
	_atom_site_label
	_atom_site_type_symbol
	_atom_site_fract_x
	_atom_site_fract_y
	_atom_site_fract_z
	H0	H	0.389232	0.836875	0.732783
	H1	H	0.603190	0.155537	0.728925
	H2	H	0.602264	0.834945	0.288972
	H3	H	0.393071	0.155643	0.288907
	H4	H	0.715627	0.396288	0.845117
	H5	H	0.717099	0.596408	0.166063
	H6	H	0.286529	0.593805	0.845667
	H7	H	0.276660	0.392313	0.166925
	H8	H	0.833902	0.710782	0.406323
	H9	H	0.160949	0.711629	0.606050
	H10	H	0.833296	0.281951	0.606418
	H11	H	0.162028	0.279833	0.404722
	H12	H	0.835291	0.392225	0.725332
	H13	H	0.160278	0.599781	0.722662
	H14	H	0.835846	0.598431	0.288326
	H15	H	0.161314	0.392743	0.287218
	H16	H	0.393634	0.718669	0.850585
	H17	H	0.602775	0.714445	0.167266
	H18	H	0.607473	0.271938	0.849925
	H19	H	0.395099	0.277678	0.169224
	H20	H	0.711351	0.831558	0.411132
	H21	H	0.713658	0.157452	0.607434
	H22	H	0.279126	0.834577	0.611457
	H23	H	0.285228	0.159407	0.412561
	H24	H	0.891675	0.336854	0.226902
	H25	H	0.107961	0.653917	0.227322
	H26	H	0.104389	0.334574	0.785243
	H27	H	0.894435	0.655457	0.785721
	H28	H	0.217763	0.897445	0.348017
	H29	H	0.213058	0.098443	0.669188
	H30	H	0.781786	0.092390	0.346569
	H31	H	0.777466	0.891723	0.668404
	H32	H	0.335553	0.214705	0.907735
	H33	H	0.662812	0.210312	0.107753
	H34	H	0.336506	0.775817	0.115425
	H35	H	0.661300	0.779013	0.907017
	H36	H	0.335869	0.892106	0.228874
	H37	H	0.661607	0.097461	0.224949
	H38	H	0.336933	0.103644	0.789515
	H39	H	0.658985	0.890563	0.788438
	H40	H	0.893459	0.214680	0.347532
	H41	H	0.099240	0.217063	0.666293
	H42	H	0.104916	0.776604	0.347596
	H43	H	0.889556	0.770856	0.665902
	H44	H	0.216078	0.332790	0.905381
	H45	H	0.214262	0.657343	0.103005
	H46	H	0.782866	0.334160	0.104622
	H47	H	0.781715	0.657048	0.903723
	H48	H	0.409350	0.113086	0.610335
	H49	H	0.583865	0.882503	0.597686
	H50	H	0.584148	0.106409	0.424420
	H51	H	0.404493	0.879927	0.418497
	H52	H	0.583885	0.399355	0.119949
	H53	H	0.586645	0.594485	0.892023
	H54	H	0.407892	0.582919	0.120858
	H55	H	0.410395	0.400683	0.893955
	H56	H	0.113495	0.582698	0.414526
	H57	H	0.882954	0.580286	0.593206
	H58	H	0.119310	0.395532	0.599273
	H59	H	0.881796	0.409561	0.412928
	H60	H	0.111302	0.405354	0.585563
	H61	H	0.880937	0.581406	0.600104
	H62	H	0.116516	0.586143	0.411784
	H63	H	0.879712	0.402847	0.413126
	H64	H	0.409035	0.588455	0.121949
	H65	H	0.594032	0.586054	0.892555
	H66	H	0.595612	0.399687	0.123726
	H67	H	0.408079	0.404111	0.894541
	H68	H	0.597480	0.113745	0.415687
	H69	H	0.586880	0.880150	0.601168
	H70	H	0.414592	0.106415	0.596894
	H71	H	0.411596	0.880640	0.415005
	H72	H	0.905969	0.612558	0.098378
	H73	H	0.078658	0.380618	0.104712
	H74	H	0.087690	0.614032	0.896654
	H75	H	0.907044	0.380911	0.917361
	H76	H	0.079242	0.906959	0.617408
	H77	H	0.082174	0.089156	0.395973
	H78	H	0.900973	0.084875	0.622305
	H79	H	0.904633	0.904412	0.393928
	H80	H	0.610428	0.079106	0.923851
	H81	H	0.380711	0.092043	0.097419
	H82	H	0.614809	0.903955	0.098338
	H83	H	0.384555	0.910293	0.927492
	H84	H	0.614671	0.906362	0.101254
	H85	H	0.385484	0.079996	0.098278
	H86	H	0.614691	0.080603	0.913934
	H87	H	0.382131	0.910601	0.917443
	H88	H	0.911158	0.086295	0.619866
	H89	H	0.094105	0.093908	0.390458
	H90	H	0.084092	0.893728	0.622999
	H91	H	0.909118	0.904942	0.395054
	H92	H	0.077004	0.603554	0.919429
	H93	H	0.082459	0.385395	0.087331
	H94	H	0.913620	0.610619	0.099103
	H95	H	0.906835	0.378377	0.910747
	H96	H	0.399257	0.112041	0.598540
	H97	H	0.582114	0.881816	0.602207
	H98	H	0.582368	0.109407	0.407942
	H99	H	0.410295	0.882790	0.422150
	H100	H	0.590516	0.409377	0.120156
	H101	H	0.583485	0.584692	0.896798
	H102	H	0.403891	0.585679	0.123349
	H103	H	0.411710	0.404248	0.894823
	H104	H	0.114008	0.587370	0.416610
	H105	H	0.880782	0.587209	0.595524
	H106	H	0.113909	0.413224	0.602317
	H107	H	0.882783	0.405278	0.418818
	H108	H	0.909908	0.609466	0.092427
	H109	H	0.095577	0.377516	0.097498
	H110	H	0.103760	0.611630	0.918555
	H111	H	0.912774	0.382415	0.912798
	H112	H	0.093404	0.905795	0.622934
	H113	H	0.093853	0.080269	0.395360
	H114	H	0.905101	0.094140	0.623369
	H115	H	0.907602	0.900287	0.394037
	H116	H	0.615228	0.089331	0.921223
	H117	H	0.379176	0.085643	0.108790
	H118	H	0.616756	0.903154	0.101619
	H119	H	0.380657	0.902126	0.922651
	C120	C	0.374709	0.004768	0.633278
	C121	C	0.617380	0.987472	0.630430
	C122	C	0.618732	0.003247	0.386848
	C123	C	0.377623	0.987585	0.388309
	C124	C	0.621550	0.372776	0.015792
	C125	C	0.620119	0.618247	0.998859
	C126	C	0.376909	0.616859	0.016354
	C127	C	0.377630	0.372638	0.999803
	C128	C	0.007071	0.616573	0.384507
	C129	C	0.989361	0.614739	0.626198
	C130	C	0.006759	0.374497	0.627052
	C131	C	0.989409	0.374755	0.384342
	C132	C	0.877516	0.504793	0.127292
	C133	C	0.118593	0.487151	0.126355
	C134	C	0.120779	0.503345	0.882275
	C135	C	0.877519	0.486812	0.883319
	C136	C	0.118963	0.873129	0.515729
	C137	C	0.118970	0.118418	0.499779
	C138	C	0.875335	0.117282	0.515615
	C139	C	0.874981	0.872021	0.499826
	C140	C	0.506702	0.116071	0.888599
	C141	C	0.489756	0.116305	0.130727
	C142	C	0.507321	0.873746	0.131174
	C143	C	0.489458	0.875672	0.889647
	C144	C	0.371687	0.884483	0.692363
	C145	C	0.620268	0.107921	0.688643
	C146	C	0.620371	0.882406	0.329084
	C147	C	0.375744	0.108026	0.329382
	C148	C	0.678280	0.374840	0.894184
	C149	C	0.677972	0.616127	0.118715
	C150	C	0.322856	0.614747	0.894721
	C151	C	0.317144	0.372940	0.119749
	C152	C	0.883498	0.673074	0.386063
	C153	C	0.112077	0.672702	0.625506
	C154	C	0.882787	0.318882	0.626580
	C155	C	0.112697	0.317446	0.384785
	C156	C	0.883954	0.373897	0.685626
	C157	C	0.111774	0.616848	0.683512
	C158	C	0.884449	0.617284	0.327221
	C159	C	0.112378	0.373572	0.326088
	C160	C	0.376411	0.676847	0.897225
	C161	C	0.621422	0.675159	0.119186
	C162	C	0.623786	0.313452	0.896401
	C163	C	0.376084	0.315882	0.120816
	C164	C	0.674543	0.880709	0.389796
	C165	C	0.675674	0.108678	0.628513
	C166	C	0.316528	0.883410	0.632118
	C167	C	0.321903	0.109909	0.390821
	C168	C	0.874583	0.384413	0.186513
	C169	C	0.123623	0.606764	0.186183
	C170	C	0.122501	0.382568	0.824724
	C171	C	0.875954	0.607518	0.824994
	C172	C	0.178720	0.876052	0.395875
	C173	C	0.175223	0.118196	0.620547
	C174	C	0.819168	0.114136	0.394825
	C175	C	0.816351	0.871820	0.620164
	C176	C	0.384364	0.175605	0.888458
	C177	C	0.613487	0.172602	0.128443
	C178	C	0.385027	0.815367	0.133140
	C179	C	0.612107	0.817329	0.887886
	C180	C	0.384857	0.873088	0.189774
	C181	C	0.612841	0.116374	0.186704
	C182	C	0.385119	0.120210	0.829560
	C183	C	0.610849	0.872875	0.828807
	C184	C	0.874988	0.174607	0.395213
	C185	C	0.118415	0.177338	0.618997
	C186	C	0.122222	0.816020	0.395623
	C187	C	0.872051	0.811496	0.618794
	C188	C	0.178426	0.381730	0.884271
	C189	C	0.176619	0.608599	0.124346
	C190	C	0.820368	0.383074	0.125729
	C191	C	0.820140	0.608521	0.883996
	C192	C	0.400281	0.088769	0.609054
	C193	C	0.591632	0.903404	0.607301
	C194	C	0.594907	0.087851	0.409511
	C195	C	0.401740	0.903164	0.411789
	C196	C	0.597175	0.396141	0.099382
	C197	C	0.595277	0.595320	0.915374
	C198	C	0.400183	0.592619	0.100255
	C199	C	0.402943	0.395990	0.916260
	C200	C	0.092544	0.592576	0.407529
	C201	C	0.903794	0.590100	0.603076
	C202	C	0.092484	0.398091	0.602842
	C203	C	0.903750	0.398807	0.408111
	C204	C	0.902497	0.589021	0.103496
	C205	C	0.092971	0.403198	0.103098
	C206	C	0.096519	0.587790	0.904850
	C207	C	0.901764	0.402468	0.906767
	C208	C	0.093008	0.895661	0.599515
	C209	C	0.096476	0.094683	0.415626
	C210	C	0.898874	0.094734	0.599849
	C211	C	0.899908	0.896251	0.416201
	C212	C	0.591390	0.090463	0.912589
	C213	C	0.403882	0.092908	0.108184
	C214	C	0.593121	0.897499	0.107252
	C215	C	0.404421	0.900664	0.914951
	Zn216	Zn	0.497440	-0.004027	0.761034
	Zn217	Zn	0.498463	-0.004574	0.258065
	Zn218	Zn	0.749375	0.496182	0.005590
	Zn219	Zn	0.247838	0.494802	0.006397
	Zn220	Zn	-0.002590	0.742906	0.506726
	Zn221	Zn	-0.002792	0.247704	0.506031
	Zn222	Zn	-0.001194	0.494903	0.754398
	Zn223	Zn	-0.001445	0.495585	0.256227
	Zn224	Zn	0.498514	0.746979	0.009476
	Zn225	Zn	0.499635	0.243661	0.009330
	Zn226	Zn	0.746204	-0.005441	0.508445
	Zn227	Zn	0.248059	-0.003650	0.509530
	N228	N	0.406859	0.961055	0.693410
	N229	N	0.584881	0.031391	0.689927
	N230	N	0.586646	0.959508	0.326973
	N231	N	0.409808	0.030915	0.327753
	N232	N	0.677129	0.410988	0.969326
	N233	N	0.677313	0.581496	0.042965
	N234	N	0.323079	0.577997	0.969838
	N235	N	0.317875	0.407519	0.043615
	N236	N	0.960749	0.672977	0.420768
	N237	N	0.034906	0.671618	0.590812
	N238	N	0.960159	0.319132	0.590770
	N239	N	0.035221	0.318073	0.420268
	N240	N	0.962079	0.407499	0.686207
	N241	N	0.034250	0.581559	0.684218
	N242	N	0.962267	0.582775	0.326241
	N243	N	0.034758	0.408417	0.325734
	N244	N	0.409050	0.678449	0.974091
	N245	N	0.586114	0.676506	0.043607
	N246	N	0.589377	0.311864	0.973006
	N247	N	0.412722	0.315287	0.045212
	N248	N	0.673749	0.956917	0.424853
	N249	N	0.673820	0.032845	0.592867
	N250	N	0.318106	0.959429	0.596338
	N251	N	0.322968	0.034073	0.426889
	N252	N	0.909273	0.461267	0.187775
	N253	N	0.088251	0.530192	0.187524
	N254	N	0.087493	0.459174	0.823395
	N255	N	0.910994	0.530992	0.824459
	N256	N	0.176799	0.910884	0.471737
	N257	N	0.175492	0.081925	0.545389
	N258	N	0.819226	0.079457	0.470758
	N259	N	0.817959	0.908534	0.545178
	N260	N	0.460974	0.173223	0.924552
	N261	N	0.535941	0.172746	0.094492
	N262	N	0.462400	0.815618	0.097439
	N263	N	0.535561	0.818875	0.924926
	N264	N	0.462019	0.908649	0.188716
	N265	N	0.534889	0.082074	0.188196
	N266	N	0.462045	0.083859	0.829716
	N267	N	0.533456	0.908323	0.829852
	N268	N	0.908979	0.176875	0.471489
	N269	N	0.084485	0.177655	0.542755
	N270	N	0.085658	0.814298	0.471111
	N271	N	0.908173	0.811736	0.542994
	N272	N	0.177771	0.457896	0.919343
	N273	N	0.173509	0.533286	0.087707
	N274	N	0.822076	0.458897	0.089573
	N275	N	0.820864	0.532480	0.919590
	O276	O	0.439704	0.544623	0.460276
	H277	H	0.433061	0.555599	0.461400
	H278	H	0.439386	0.546596	0.453246
	O279	O	0.418473	0.461950	0.630452
	H280	H	0.425838	0.460532	0.626111
	H281	H	0.414903	0.467706	0.631841
	O282	O	1.033691	-0.001143	0.920576
	H283	H	1.034436	-0.021677	0.920904
	H284	H	1.042657	-0.002051	0.911497
	O285	O	0.442443	0.437791	0.588872
	H286	H	0.452984	0.438809	0.591948
	H287	H	0.441052	0.455865	0.579445
	O288	O	0.888051	1.034853	1.109829
	H289	H	0.886361	1.044285	1.105887
	H290	H	0.898336	1.034302	1.112420
	O291	O	-0.440374	0.671474	0.356806
	H292	H	-0.428487	0.658382	0.350392
	H293	H	-0.424686	0.682602	0.341774
	O294	O	0.496109	0.434607	0.561471
	H295	H	0.480538	0.434517	0.554723
	H296	H	0.516155	0.425164	0.553287
	O297	O	0.610483	0.596400	0.368538
	H298	H	0.611521	0.600084	0.363324
	H299	H	0.614107	0.599177	0.377090
	O300	O	0.391745	0.400712	0.431321
	H301	H	0.386812	0.412946	0.432565
	H302	H	0.391793	0.384246	0.432354
	O303	O	0.856797	0.135703	0.206580
	H304	H	0.849108	0.128314	0.209009
	H305	H	0.873797	0.132669	0.200394
	O306	O	0.357150	0.504469	0.651882
	H307	H	0.359215	0.497118	0.633000
	H308	H	0.350042	0.516815	0.648762
	O309	O	0.468290	0.474230	0.598727
	H310	H	0.474181	0.470056	0.608521
	H311	H	0.465021	0.477057	0.605599
	O312	O	-0.044107	0.109692	-0.136929
	H313	H	-0.041792	0.107944	-0.125452
	H314	H	-0.025326	0.107463	-0.134689
	O315	O	0.515932	0.569922	0.442825
	H316	H	0.502835	0.556018	0.444731
	H317	H	0.500837	0.571169	0.438294
	O318	O	-0.151085	0.875599	1.104097
	H319	H	-0.167518	0.876156	1.114819
	H320	H	-0.146098	0.888280	1.109700
	O321	O	0.558025	0.589197	0.685814
	H322	H	0.572295	0.602852	0.682253
	H323	H	0.562156	0.592025	0.691688
	O324	O	-0.066153	0.861600	-0.089402
	H325	H	-0.067270	0.857822	-0.094876
	H326	H	-0.090568	0.865371	-0.081998
	O327	O	0.989753	0.824510	0.169045
	H328	H	0.993697	0.828725	0.165175
	H329	H	0.992440	0.827088	0.181797
	O330	O	-0.111921	0.011079	0.879996
	H331	H	-0.115631	0.014596	0.873462
	H332	H	-0.106650	0.019970	0.875964
	O333	O	-0.039262	-0.180565	0.848134
	H334	H	-0.064332	-0.156970	0.853206
	H335	H	-0.044375	-0.195644	0.829534
	O336	O	0.529008	0.348864	0.313794
	H337	H	0.544699	0.343215	0.313050
	H338	H	0.533675	0.343882	0.314811
	O339	O	0.970219	0.144413	-0.076892
	H340	H	0.978574	0.142697	-0.079906
	H341	H	0.966821	0.142187	-0.078839
	O342	O	0.135435	0.178367	0.179024
	H343	H	0.151454	0.181603	0.178418
	H344	H	0.150277	0.177076	0.171852
	O345	O	0.846647	-0.049740	0.942013
	H346	H	0.844664	-0.044203	0.943930
	H347	H	0.837955	-0.035689	0.946127
	O348	O	1.069216	1.038129	0.171685
	H349	H	1.078402	1.045847	0.165550
	H350	H	1.077011	1.026811	0.162720
	O351	O	0.452170	0.410566	0.586974
	H352	H	0.456511	0.400670	0.581701
	H353	H	0.451559	0.417134	0.586929
	O354	O	1.131064	-0.170180	1.036175
	H355	H	1.146805	-0.178027	1.024966
	H356	H	1.139930	-0.174475	1.052410
	O357	O	0.508538	0.380221	0.521512
	H358	H	0.504687	0.370907	0.508806
	H359	H	0.505794	0.384839	0.525919
	O360	O	0.506821	0.499910	0.501101
	H361	H	0.510165	0.501577	0.497333
	H362	H	0.502754	0.489641	0.502085
	O363	O	0.180192	1.021324	0.929505
	H364	H	0.184152	1.005938	0.930852
	H365	H	0.175009	1.023059	0.935777
	O366	O	0.648702	0.327635	0.415715
	H367	H	0.654466	0.327409	0.414002
	H368	H	0.643107	0.336162	0.419975
	O369	O	-0.020182	1.009952	0.013017
	H370	H	-0.017189	0.997410	0.008656
	H371	H	-0.024232	1.018145	0.004248
	O372	O	0.557319	0.378078	0.665231
	H373	H	0.539670	0.374773	0.667992
	H374	H	0.551800	0.359182	0.672210
	O375	O	0.403231	0.430481	0.393048
	H376	H	0.410596	0.428832	0.386510
	H377	H	0.413783	0.447306	0.397031
	O378	O	0.974034	0.955188	0.123861
	H379	H	0.965646	0.975292	0.109994
	H380	H	0.981406	0.966980	0.118293
	O381	O	1.032179	0.109780	0.054983
	H382	H	1.034265	0.088042	0.050264
	H383	H	1.051839	0.118485	0.055664
	O384	O	0.625420	1.548068	-0.464456
	H385	H	0.635301	1.521017	-0.480121
	H386	H	0.625782	1.551862	-0.459586
	O387	O	-0.010287	0.163660	0.153458
	H388	H	0.019484	0.175893	0.150195
	H389	H	0.006597	0.164874	0.156916
	O390	O	0.133796	0.810551	-0.148105
	H391	H	0.141132	0.820449	-0.149040
	H392	H	0.092751	0.800259	-0.160104
	O393	O	1.363584	0.642435	0.442050
	H394	H	1.365231	0.644172	0.438760
	H395	H	1.357760	0.643877	0.444737
	O396	O	0.604084	0.640255	0.533322
	H397	H	0.607117	0.647857	0.519715
	H398	H	0.601547	0.641333	0.532428
	O399	O	0.187676	0.958901	0.805077
	H400	H	0.218075	0.953188	0.782260
	H401	H	0.188259	0.946079	0.825909
	O402	O	0.497511	0.550715	0.403484
	H403	H	0.503201	0.548402	0.413228
	H404	H	0.497764	0.558948	0.391494
	O405	O	1.115703	0.862386	0.126170
	H406	H	1.111208	0.865824	0.108170
	H407	H	1.112501	0.860511	0.125204
	O408	O	1.004180	1.087721	-0.020124
	H409	H	0.995770	1.088329	-0.014098
	H410	H	1.008461	1.081706	-0.041409
	O411	O	1.096035	0.073319	1.080403
	H412	H	1.086039	0.059222	1.078534
	H413	H	1.100207	0.067458	1.061399
	O414	O	-0.175055	-0.059930	1.001585
	H415	H	-0.162744	-0.057260	1.010103
	H416	H	-0.185109	-0.039911	1.003037
	O417	O	0.460628	0.601796	0.517526
	H418	H	0.460096	0.619895	0.516202
	H419	H	0.468410	0.593552	0.531655
