data_Molecule from HDF5

_cell_length_a		16.572386
_cell_length_b		16.377098
_cell_length_c		16.536023
_cell_angle_alpha	90.106336
_cell_angle_beta	89.941369
_cell_angle_gamma	89.983922
_symmetry_space_group_name_H-M	'P 1'
_symmetry_Int_Tables_number		1

loop_
	_symmetry_equiv_pos_as_xyz
	x,y,z

loop_
	_atom_site_label
	_atom_site_type_symbol
	_atom_site_fract_x
	_atom_site_fract_y
	_atom_site_fract_z
	H0	H	0.383391	0.844944	0.712438
	H1	H	0.588128	0.164972	0.710987
	H2	H	0.594599	0.847011	0.270082
	H3	H	0.382268	0.162390	0.273708
	H4	H	0.710068	0.395890	0.837989
	H5	H	0.710874	0.612122	0.149995
	H6	H	0.266152	0.610185	0.835794
	H7	H	0.263932	0.400502	0.150499
	H8	H	0.828682	0.726134	0.387615
	H9	H	0.144356	0.724971	0.596057
	H10	H	0.828923	0.285087	0.595868
	H11	H	0.145315	0.286249	0.389338
	H12	H	0.830628	0.398013	0.715536
	H13	H	0.143395	0.611244	0.715402
	H14	H	0.831407	0.613640	0.268319
	H15	H	0.143194	0.399736	0.269630
	H16	H	0.384347	0.724308	0.835387
	H17	H	0.593317	0.727516	0.150400
	H18	H	0.586897	0.287043	0.834539
	H19	H	0.384201	0.287481	0.152485
	H20	H	0.708686	0.846324	0.387785
	H21	H	0.704900	0.164880	0.595281
	H22	H	0.266038	0.845511	0.597496
	H23	H	0.265684	0.162273	0.387902
	H24	H	0.880569	0.348054	0.216334
	H25	H	0.095207	0.663757	0.217124
	H26	H	0.087735	0.345857	0.774572
	H27	H	0.881362	0.663224	0.773918
	H28	H	0.212868	0.893977	0.336864
	H29	H	0.207812	0.110090	0.649901
	H30	H	0.764302	0.110910	0.336729
	H31	H	0.765351	0.899357	0.648826
	H32	H	0.327987	0.222960	0.892802
	H33	H	0.643780	0.225278	0.097089
	H34	H	0.330362	0.781530	0.100164
	H35	H	0.643239	0.784499	0.892707
	H36	H	0.331202	0.895669	0.218381
	H37	H	0.642075	0.112303	0.216493
	H38	H	0.329483	0.109683	0.771891
	H39	H	0.642459	0.898523	0.771604
	H40	H	0.884552	0.222877	0.333620
	H41	H	0.090572	0.226417	0.649411
	H42	H	0.094836	0.780065	0.335371
	H43	H	0.883913	0.784943	0.649587
	H44	H	0.205830	0.346484	0.889208
	H45	H	0.210516	0.663370	0.101480
	H46	H	0.764482	0.347113	0.100923
	H47	H	0.765116	0.662024	0.889588
	H48	H	0.400211	0.118933	0.588788
	H49	H	0.572922	0.892457	0.581245
	H50	H	0.580550	0.119559	0.403490
	H51	H	0.402500	0.892929	0.409045
	H52	H	0.570175	0.416823	0.104517
	H53	H	0.573550	0.595749	0.881660
	H54	H	0.400638	0.593471	0.104809
	H55	H	0.401241	0.416647	0.883818
	H56	H	0.100652	0.597335	0.401495
	H57	H	0.873988	0.595565	0.584065
	H58	H	0.096717	0.421968	0.584024
	H59	H	0.875615	0.421176	0.399760
	H60	H	0.101382	0.413619	0.586554
	H61	H	0.874123	0.594675	0.582233
	H62	H	0.095316	0.591880	0.411002
	H63	H	0.872416	0.412334	0.400852
	H64	H	0.395152	0.594293	0.106969
	H65	H	0.579782	0.590427	0.882093
	H66	H	0.578178	0.409158	0.109080
	H67	H	0.394171	0.407756	0.878006
	H68	H	0.569626	0.116454	0.401199
	H69	H	0.581479	0.890607	0.579351
	H70	H	0.398694	0.115519	0.578018
	H71	H	0.395870	0.890129	0.406371
	H72	H	0.899739	0.615993	0.076253
	H73	H	0.078077	0.390448	0.087591
	H74	H	0.076523	0.619824	0.902758
	H75	H	0.898370	0.389831	0.901029
	H76	H	0.077920	0.918615	0.603142
	H77	H	0.073384	0.096590	0.380563
	H78	H	0.896654	0.090070	0.603384
	H79	H	0.894866	0.920171	0.380163
	H80	H	0.595751	0.089431	0.906551
	H81	H	0.372558	0.098198	0.087356
	H82	H	0.600600	0.911926	0.083709
	H83	H	0.375393	0.919673	0.905887
	H84	H	0.595593	0.917042	0.076464
	H85	H	0.375165	0.094805	0.078133
	H86	H	0.601472	0.094109	0.894054
	H87	H	0.373154	0.916013	0.899955
	H88	H	0.901264	0.099113	0.605761
	H89	H	0.081931	0.095415	0.376991
	H90	H	0.073409	0.916788	0.601783
	H91	H	0.901450	0.919146	0.381476
	H92	H	0.076196	0.619891	0.904182
	H93	H	0.065912	0.397277	0.080093
	H94	H	0.896377	0.618720	0.079708
	H95	H	0.899903	0.391926	0.905330
	H96	H	0.390279	0.120833	0.583949
	H97	H	0.577972	0.888898	0.587285
	H98	H	0.574019	0.115057	0.411749
	H99	H	0.402052	0.890327	0.401612
	H100	H	0.581844	0.420740	0.106781
	H101	H	0.572635	0.588051	0.885370
	H102	H	0.396070	0.589021	0.104599
	H103	H	0.389198	0.419427	0.880052
	H104	H	0.096604	0.585480	0.400994
	H105	H	0.874709	0.593869	0.583940
	H106	H	0.097770	0.414740	0.578266
	H107	H	0.876884	0.416519	0.408196
	H108	H	0.901774	0.617335	0.081365
	H109	H	0.079321	0.394097	0.072090
	H110	H	0.077867	0.619858	0.903354
	H111	H	0.895171	0.389983	0.904912
	H112	H	0.076413	0.914260	0.604433
	H113	H	0.078125	0.088325	0.381672
	H114	H	0.891449	0.097164	0.608458
	H115	H	0.897786	0.914152	0.378380
	H116	H	0.600539	0.103021	0.905568
	H117	H	0.374879	0.088744	0.086337
	H118	H	0.598271	0.921725	0.085388
	H119	H	0.373316	0.912742	0.906265
	C120	C	0.364920	0.012936	0.614779
	C121	C	0.608175	0.996118	0.613953
	C122	C	0.607994	0.012802	0.372387
	C123	C	0.366689	0.995425	0.372879
	C124	C	0.608460	0.383022	0.002530
	C125	C	0.607682	0.624412	0.986430
	C126	C	0.365485	0.625652	0.001702
	C127	C	0.363833	0.383163	0.985040
	C128	C	-0.005457	0.626019	0.371293
	C129	C	0.978110	0.626798	0.614908
	C130	C	-0.004942	0.383878	0.614223
	C131	C	0.978698	0.384198	0.370673
	C132	C	0.866528	0.513123	0.113112
	C133	C	0.107691	0.498234	0.113465
	C134	C	0.107906	0.514524	0.871713
	C135	C	0.865198	0.495159	0.871840
	C136	C	0.109288	0.882093	0.500261
	C137	C	0.109141	0.126003	0.483824
	C138	C	0.865063	0.126961	0.501554
	C139	C	0.866144	0.884790	0.483588
	C140	C	0.494999	0.126801	0.871538
	C141	C	0.477783	0.126159	0.115376
	C142	C	0.495278	0.883097	0.115462
	C143	C	0.477677	0.883517	0.872362
	C144	C	0.364187	0.892920	0.673322
	C145	C	0.607592	0.116945	0.671904
	C146	C	0.611876	0.894220	0.310915
	C147	C	0.363477	0.114665	0.312798
	C148	C	0.668610	0.379219	0.884479
	C149	C	0.669498	0.628960	0.103477
	C150	C	0.306255	0.628139	0.883009
	C151	C	0.304511	0.382032	0.103520
	C152	C	0.876265	0.686526	0.368865
	C153	C	0.096944	0.685848	0.615480
	C154	C	0.876691	0.324180	0.615379
	C155	C	0.097617	0.325293	0.369924
	C156	C	0.877082	0.380690	0.674780
	C157	C	0.096287	0.629201	0.674942
	C158	C	0.877599	0.630447	0.309480
	C159	C	0.096645	0.381893	0.310481
	C160	C	0.364955	0.685010	0.882789
	C161	C	0.610806	0.686224	0.103820
	C162	C	0.607541	0.324866	0.882909
	C163	C	0.364296	0.325834	0.104634
	C164	C	0.668794	0.893912	0.369301
	C165	C	0.665649	0.116792	0.614446
	C166	C	0.305853	0.893183	0.616192
	C167	C	0.305811	0.114454	0.370052
	C168	C	0.862956	0.395140	0.175543
	C169	C	0.111727	0.616486	0.175767
	C170	C	0.107931	0.393957	0.813420
	C171	C	0.862744	0.615073	0.812998
	C172	C	0.171756	0.877032	0.383389
	C173	C	0.167910	0.128214	0.602423
	C174	C	0.805029	0.128936	0.383351
	C175	C	0.805814	0.881438	0.601788
	C176	C	0.375619	0.184572	0.872390
	C177	C	0.596091	0.185997	0.116365
	C178	C	0.377460	0.821630	0.118677
	C179	C	0.596125	0.823773	0.872003
	C180	C	0.377949	0.878524	0.177387
	C181	C	0.595304	0.129875	0.175985
	C182	C	0.376421	0.128216	0.812503
	C183	C	0.595857	0.880647	0.812602
	C184	C	0.864893	0.184593	0.381804
	C185	C	0.109752	0.186264	0.602307
	C186	C	0.112812	0.820303	0.382689
	C187	C	0.864846	0.824699	0.602153
	C188	C	0.166452	0.394385	0.870305
	C189	C	0.169678	0.616244	0.118447
	C190	C	0.805394	0.394420	0.117954
	C191	C	0.805164	0.614572	0.870706
	C192	C	0.389283	0.096715	0.590372
	C193	C	0.584304	0.912392	0.589790
	C194	C	0.581974	0.095574	0.398097
	C195	C	0.392722	0.912614	0.398316
	C196	C	0.583878	0.408299	0.085134
	C197	C	0.582243	0.598495	0.904233
	C198	C	0.390073	0.599863	0.083925
	C199	C	0.388062	0.407608	0.902168
	C200	C	0.076157	0.599488	0.397406
	C201	C	0.895816	0.601949	0.590592
	C202	C	0.077158	0.409471	0.589876
	C203	C	0.896372	0.409334	0.395630
	C204	C	0.891890	0.595666	0.086690
	C205	C	0.081789	0.415486	0.087392
	C206	C	0.083804	0.598165	0.896184
	C207	C	0.890548	0.412173	0.896592
	C208	C	0.083167	0.908853	0.581983
	C209	C	0.084930	0.100746	0.401262
	C210	C	0.889386	0.102491	0.584219
	C211	C	0.890942	0.910405	0.401380
	C212	C	0.577709	0.102481	0.895197
	C213	C	0.395393	0.100852	0.091024
	C214	C	0.576695	0.909291	0.089613
	C215	C	0.395455	0.908901	0.896936
	Zn216	Zn	0.486806	0.004417	0.742384
	Zn217	Zn	0.486915	0.004241	0.243855
	Zn218	Zn	0.737371	0.504023	-0.006329
	Zn219	Zn	0.236023	0.505751	-0.006962
	Zn220	Zn	-0.013242	0.754946	0.491638
	Zn221	Zn	-0.013256	0.255034	0.492172
	Zn222	Zn	-0.013750	0.505012	0.743767
	Zn223	Zn	-0.013084	0.506158	0.241753
	Zn224	Zn	0.486760	0.754265	-0.005929
	Zn225	Zn	0.486542	0.255324	-0.006175
	Zn226	Zn	0.736662	0.005218	0.492591
	Zn227	Zn	0.238049	0.003386	0.492473
	N228	N	0.399907	0.968657	0.672706
	N229	N	0.572900	0.040753	0.672100
	N230	N	0.574872	0.969396	0.312425
	N231	N	0.400627	0.039625	0.314392
	N232	N	0.669569	0.414340	0.959991
	N233	N	0.667484	0.591140	0.029350
	N234	N	0.306155	0.592322	0.957995
	N235	N	0.303901	0.416836	0.027897
	N236	N	0.950282	0.684159	0.406445
	N237	N	0.022510	0.684719	0.578994
	N238	N	0.950778	0.326103	0.578328
	N239	N	0.022989	0.326186	0.406326
	N240	N	0.951707	0.417296	0.674268
	N241	N	0.021281	0.593499	0.675056
	N242	N	0.952147	0.593912	0.310731
	N243	N	0.021721	0.417614	0.310743
	N244	N	0.400787	0.683808	0.957803
	N245	N	0.572846	0.683506	0.030046
	N246	N	0.570915	0.326971	0.957460
	N247	N	0.400291	0.326204	0.029752
	N248	N	0.666363	0.968689	0.406663
	N249	N	0.666300	0.040609	0.579377
	N250	N	0.305973	0.969069	0.580799
	N251	N	0.307628	0.039268	0.406695
	N252	N	0.900251	0.469821	0.172598
	N253	N	0.073683	0.541979	0.172669
	N254	N	0.072477	0.469799	0.813966
	N255	N	0.899249	0.539744	0.813459
	N256	N	0.169519	0.915101	0.457462
	N257	N	0.167861	0.091530	0.527752
	N258	N	0.804978	0.093934	0.458840
	N259	N	0.806299	0.917876	0.527128
	N260	N	0.450391	0.184004	0.908078
	N261	N	0.522015	0.183934	0.079402
	N262	N	0.451344	0.824015	0.081016
	N263	N	0.521711	0.825440	0.908377
	N264	N	0.452003	0.916087	0.175507
	N265	N	0.520701	0.093364	0.175565
	N266	N	0.451739	0.093047	0.811505
	N267	N	0.521087	0.916834	0.812534
	N268	N	0.901486	0.183662	0.456250
	N269	N	0.074107	0.185142	0.527372
	N270	N	0.074666	0.823441	0.456406
	N271	N	0.901591	0.826523	0.527687
	N272	N	0.166817	0.470387	0.905694
	N273	N	0.167125	0.541772	0.080305
	N274	N	0.807462	0.468746	0.079761
	N275	N	0.806373	0.538896	0.906380
	O276	O	0.833533	0.222249	-0.001682
	H277	H	0.836438	0.236185	0.017260
	H278	H	0.831310	0.212433	-0.011037
	O279	O	0.382387	0.320153	0.695462
	H280	H	0.390322	0.312403	0.712771
	H281	H	0.416889	0.326030	0.679727
	O282	O	0.779534	1.025060	-0.007337
	H283	H	0.793165	1.038044	0.000688
	H284	H	0.770666	1.030699	-0.025891
	O285	O	0.371062	0.543220	0.577002
	H286	H	0.381085	0.510709	0.565481
	H287	H	0.359497	0.538466	0.609023
	O288	O	-0.192642	0.003598	0.065656
	H289	H	-0.159587	-0.002698	0.085414
	H290	H	-0.207758	0.042194	0.071643
	O291	O	0.830703	1.129713	0.185540
	H292	H	0.831007	1.140002	0.186422
	H293	H	0.808283	1.128924	0.195748
	O294	O	-0.020790	0.788746	-0.145871
	H295	H	-0.014245	0.775767	-0.161172
	H296	H	0.002650	0.790508	-0.125135
	O297	O	0.575383	0.585149	0.698530
	H298	H	0.567925	0.586985	0.681389
	H299	H	0.569116	0.609656	0.704775
	O300	O	0.638181	0.361665	0.593986
	H301	H	0.638157	0.364977	0.590936
	H302	H	0.644022	0.378477	0.580610
	O303	O	0.335814	0.572572	0.424646
	H304	H	0.328872	0.590020	0.429585
	H305	H	0.326782	0.578037	0.417472
	O306	O	0.134396	0.986512	1.205406
	H307	H	0.135145	1.004067	1.219036
	H308	H	0.131707	0.986354	1.201291
	O309	O	0.973851	1.094174	0.980749
	H310	H	0.986819	1.084771	0.985796
	H311	H	0.968783	1.088724	0.985731
	O312	O	0.563259	0.568091	0.371995
	H313	H	0.545168	0.566064	0.367478
	H314	H	0.569640	0.567102	0.372137
	O315	O	-0.237464	0.038254	0.768153
	H316	H	-0.261302	0.044661	0.754596
	H317	H	-0.241220	0.059095	0.764502
	O318	O	0.015492	1.222956	0.209657
	H319	H	0.041345	1.221147	0.195967
	H320	H	0.017407	1.248845	0.235872
	O321	O	0.795449	-0.184692	0.802015
	H322	H	0.810957	-0.167004	0.825304
	H323	H	0.810961	-0.169777	0.826083
	O324	O	1.286801	0.466093	0.690453
	H325	H	1.328637	0.455252	0.687449
	H326	H	1.277797	0.434476	0.705834
	O327	O	1.099193	-0.081432	1.059741
	H328	H	1.095626	-0.076624	1.068862
	H329	H	1.116714	-0.091686	1.029104
	O330	O	1.097195	0.121210	-0.198261
	H331	H	1.087717	0.121735	-0.194721
	H332	H	1.067191	0.121447	-0.195129
	O333	O	1.105427	0.794256	0.781701
	H334	H	1.091671	0.823924	0.787652
	H335	H	1.118996	0.768963	0.750733
	O336	O	1.194844	0.134057	0.960617
	H337	H	1.184868	0.132410	0.977353
	H338	H	1.199197	0.136667	0.984693
	O339	O	0.573568	0.542977	0.391045
	H340	H	0.577724	0.533595	0.386110
	H341	H	0.562643	0.561677	0.396958
	O342	O	0.699884	0.536391	0.610059
	H343	H	0.709407	0.541044	0.618622
	H344	H	0.705062	0.564414	0.626002
	O345	O	0.186201	0.204306	-0.091305
	H346	H	0.164668	0.204849	-0.081649
	H347	H	0.183463	0.202016	-0.084111
	O348	O	1.131035	-0.135302	1.088038
	H349	H	1.128306	-0.115806	1.068999
	H350	H	1.138966	-0.156767	1.064702
	O351	O	0.787984	0.865750	0.099325
	H352	H	0.780863	0.861162	0.112995
	H353	H	0.798210	0.851012	0.106141
	O354	O	0.515142	0.525727	0.654938
	H355	H	0.521641	0.533841	0.662407
	H356	H	0.512023	0.534122	0.658742
	O357	O	0.968074	1.193376	0.810536
	H358	H	0.965416	1.193631	0.799141
	H359	H	0.955530	1.197564	0.823993
	O360	O	0.413818	0.704046	0.291888
	H361	H	0.417236	0.699895	0.314701
	H362	H	0.422749	0.730262	0.274849
	O363	O	0.456570	0.661862	0.639395
	H364	H	0.469640	0.665646	0.634142
	H365	H	0.468112	0.657453	0.644544
	O366	O	1.178867	0.198229	1.187468
	H367	H	1.196608	0.208309	1.185643
	H368	H	1.177216	0.162477	1.189478
	O369	O	0.610694	0.430545	0.592686
	H370	H	0.624316	0.425119	0.593388
	H371	H	0.618846	0.437581	0.581946
	O372	O	0.339027	0.482893	0.617629
	H373	H	0.350336	0.479974	0.628780
	H374	H	0.320947	0.468721	0.624494
	O375	O	0.202967	1.015586	1.110902
	H376	H	0.215316	1.007552	1.128334
	H377	H	0.204095	0.994669	1.106362
	O378	O	0.786118	0.027581	0.142580
	H379	H	0.793172	0.037668	0.134918
	H380	H	0.773128	0.026031	0.158504
	O381	O	1.034917	0.096872	-0.062425
	H382	H	1.020265	0.096014	-0.065375
	H383	H	1.022926	0.095790	-0.048812
	O384	O	-0.043722	0.135949	1.066807
	H385	H	-0.041465	0.139787	1.076664
	H386	H	-0.058440	0.131531	1.069330
	O387	O	0.031533	0.991094	0.981964
	H388	H	0.053553	1.003603	0.982400
	H389	H	0.035837	0.979218	0.985579
	O390	O	0.188726	-0.196845	0.896004
	H391	H	0.198736	-0.172750	0.876435
	H392	H	0.172887	-0.210561	0.874113
	O393	O	0.974533	1.001033	-0.230124
	H394	H	0.980883	0.999614	-0.227326
	H395	H	0.966956	0.989348	-0.235474
	O396	O	0.794489	0.200720	0.797097
	H397	H	0.778041	0.194954	0.806632
	H398	H	0.804809	0.213398	0.806324
	O399	O	0.080510	0.784541	0.967152
	H400	H	0.094333	0.766135	0.954917
	H401	H	0.077615	0.790555	0.937489
	O402	O	-0.108615	-0.203548	1.198767
	H403	H	-0.110069	-0.211452	1.205538
	H404	H	-0.082682	-0.196278	1.208895
	O405	O	-0.492117	0.321141	0.468984
	H406	H	-0.505603	0.324983	0.480266
	H407	H	-0.489858	0.337834	0.458733
	O408	O	0.406737	0.578474	0.421814
	H409	H	0.385075	0.576622	0.430269
	H410	H	0.410712	0.586455	0.416348
	O411	O	0.418246	0.327731	0.573303
	H412	H	0.422171	0.316643	0.551696
	H413	H	0.425102	0.322109	0.584097
	O414	O	0.695081	0.707427	0.697826
	H415	H	0.725477	0.741725	0.730393
	H416	H	0.666631	0.707607	0.686408
	O417	O	0.267566	0.290999	0.526865
	H418	H	0.242819	0.267318	0.539187
	H419	H	0.260573	0.295301	0.558554
	O420	O	0.434536	0.309367	0.422849
	H421	H	0.417647	0.311819	0.417544
	H422	H	0.437348	0.316270	0.419490
	O423	O	0.195853	0.979097	-0.228442
	H424	H	0.189579	0.995006	-0.237221
	H425	H	0.214480	0.989036	-0.240572
	O426	O	0.397443	1.552697	1.294763
	H427	H	0.394943	1.569966	1.291751
	H428	H	0.406380	1.562182	1.295776
	O429	O	0.699762	0.715421	0.525933
	H430	H	0.711229	0.734028	0.540567
	H431	H	0.693895	0.720418	0.531035
	O432	O	0.608832	0.301577	0.382084
	H433	H	0.598855	0.293501	0.388393
	H434	H	0.608429	0.299429	0.377281
	O435	O	0.464421	-0.597086	0.388666
	H436	H	0.456534	-0.604476	0.387429
	H437	H	0.461893	-0.602951	0.394675
	O438	O	0.919640	-0.197303	0.020647
	H439	H	0.916727	-0.195567	0.047888
	H440	H	0.938471	-0.187005	0.016989
	O441	O	0.491155	0.654169	0.310330
	H442	H	0.504056	0.655992	0.306145
	H443	H	0.492223	0.661098	0.334486
	O444	O	0.459577	0.559955	0.466746
	H445	H	0.466482	0.552983	0.462960
	H446	H	0.466451	0.556133	0.469105
	O447	O	0.702011	0.476661	0.288371
	H448	H	0.694541	0.471366	0.300767
	H449	H	0.715118	0.486127	0.266476
	O450	O	0.304129	0.618522	0.450445
	H451	H	0.283156	0.627403	0.453443
	H452	H	0.302467	0.609253	0.469710
	O453	O	0.685533	0.307562	0.290719
	H454	H	0.655656	0.304902	0.305130
	H455	H	0.673683	0.328227	0.294779
	O456	O	0.831127	-0.038936	-0.148619
	H457	H	0.818748	-0.025260	-0.141809
	H458	H	0.845340	-0.051723	-0.151088
	O459	O	0.474371	0.614210	0.579122
	H460	H	0.463490	0.608697	0.585744
	H461	H	0.472559	0.609001	0.577812
	O462	O	0.371984	0.483138	0.454340
	H463	H	0.388786	0.474164	0.443744
	H464	H	0.364572	0.478784	0.480414
	O465	O	1.015597	-0.003312	0.187393
	H466	H	1.011947	-0.015871	0.171735
	H467	H	1.002447	0.024439	0.194860
