data_Molecule from HDF5

_cell_length_a		16.257448
_cell_length_b		16.352806
_cell_length_c		16.264387
_cell_angle_alpha	90.057947
_cell_angle_beta	90.023969
_cell_angle_gamma	89.979077
_symmetry_space_group_name_H-M	'P 1'
_symmetry_Int_Tables_number		1

loop_
	_symmetry_equiv_pos_as_xyz
	x,y,z

loop_
	_atom_site_label
	_atom_site_type_symbol
	_atom_site_fract_x
	_atom_site_fract_y
	_atom_site_fract_z
	H0	H	0.402673	0.835766	0.713692
	H1	H	0.597227	0.163131	0.714552
	H2	H	0.597333	0.836222	0.286272
	H3	H	0.402522	0.163395	0.286382
	H4	H	0.714273	0.401038	0.836225
	H5	H	0.712960	0.596348	0.163738
	H6	H	0.285951	0.597484	0.836055
	H7	H	0.287234	0.403324	0.165008
	H8	H	0.836479	0.714073	0.401706
	H9	H	0.163569	0.715385	0.598760
	H10	H	0.836303	0.286237	0.597834
	H11	H	0.163947	0.286169	0.401473
	H12	H	0.835390	0.403730	0.712227
	H13	H	0.164907	0.598081	0.713705
	H14	H	0.835092	0.596600	0.287348
	H15	H	0.164127	0.402936	0.286536
	H16	H	0.399999	0.714699	0.836160
	H17	H	0.598943	0.713967	0.163301
	H18	H	0.599567	0.283283	0.836841
	H19	H	0.400194	0.284379	0.163220
	H20	H	0.714559	0.836443	0.402800
	H21	H	0.713216	0.163912	0.597151
	H22	H	0.285988	0.836400	0.597390
	H23	H	0.286884	0.164028	0.402970
	H24	H	0.901613	0.337197	0.214663
	H25	H	0.097076	0.663608	0.214034
	H26	H	0.097884	0.336398	0.785069
	H27	H	0.902632	0.663714	0.786138
	H28	H	0.214759	0.902465	0.336274
	H29	H	0.213371	0.097577	0.664147
	H30	H	0.787103	0.097464	0.335557
	H31	H	0.787739	0.905264	0.664505
	H32	H	0.335898	0.214038	0.901307
	H33	H	0.663169	0.215385	0.099714
	H34	H	0.335490	0.785619	0.098161
	H35	H	0.663682	0.784956	0.902524
	H36	H	0.335105	0.903537	0.212603
	H37	H	0.664774	0.095802	0.212496
	H38	H	0.335356	0.095981	0.787156
	H39	H	0.664904	0.902144	0.787424
	H40	H	0.902523	0.213723	0.336141
	H41	H	0.098206	0.214964	0.664082
	H42	H	0.099498	0.785211	0.336408
	H43	H	0.899884	0.785733	0.663557
	H44	H	0.214413	0.336376	0.902059
	H45	H	0.213306	0.663441	0.097178
	H46	H	0.785740	0.336545	0.097583
	H47	H	0.785046	0.663675	0.901732
	H48	H	0.414865	0.115616	0.601205
	H49	H	0.588203	0.885388	0.594542
	H50	H	0.589027	0.115371	0.404629
	H51	H	0.403744	0.881682	0.402104
	H52	H	0.595290	0.417184	0.113968
	H53	H	0.604304	0.588846	0.880173
	H54	H	0.400439	0.592541	0.118704
	H55	H	0.410699	0.399056	0.882665
	H56	H	0.110466	0.583732	0.418106
	H57	H	0.880878	0.596825	0.598652
	H58	H	0.119537	0.403676	0.597567
	H59	H	0.878863	0.397362	0.403792
	H60	H	0.115819	0.404010	0.587629
	H61	H	0.884096	0.597306	0.588057
	H62	H	0.120089	0.588579	0.391628
	H63	H	0.886852	0.408034	0.417344
	H64	H	0.410632	0.588734	0.114511
	H65	H	0.583234	0.585134	0.887576
	H66	H	0.583216	0.403339	0.114237
	H67	H	0.399013	0.405971	0.881055
	H68	H	0.595084	0.115248	0.410758
	H69	H	0.598171	0.883938	0.587785
	H70	H	0.407769	0.112425	0.584403
	H71	H	0.411547	0.885487	0.405546
	H72	H	0.889387	0.621682	0.095755
	H73	H	0.100770	0.380510	0.099507
	H74	H	0.092045	0.617970	0.897952
	H75	H	0.904478	0.384254	0.908140
	H76	H	0.091904	0.906126	0.616567
	H77	H	0.087884	0.099216	0.383268
	H78	H	0.910082	0.094105	0.615961
	H79	H	0.915955	0.915139	0.388393
	H80	H	0.615901	0.092572	0.909635
	H81	H	0.384226	0.090148	0.092618
	H82	H	0.615828	0.902360	0.088562
	H83	H	0.380381	0.908484	0.895188
	H84	H	0.614786	0.910651	0.093506
	H85	H	0.382257	0.094115	0.095790
	H86	H	0.615905	0.090658	0.906597
	H87	H	0.381351	0.895553	0.911535
	H88	H	0.905020	0.097274	0.617862
	H89	H	0.100752	0.097110	0.380477
	H90	H	0.094681	0.906761	0.617007
	H91	H	0.910934	0.894851	0.381146
	H92	H	0.086143	0.612345	0.911259
	H93	H	0.084967	0.384852	0.097557
	H94	H	0.916293	0.616470	0.107152
	H95	H	0.906499	0.383718	0.903012
	H96	H	0.396542	0.119756	0.597918
	H97	H	0.598365	0.881475	0.599904
	H98	H	0.596613	0.117756	0.403406
	H99	H	0.404184	0.884815	0.411194
	H100	H	0.599907	0.400707	0.120257
	H101	H	0.589223	0.605237	0.880275
	H102	H	0.409601	0.599761	0.117126
	H103	H	0.409977	0.412126	0.886325
	H104	H	0.120297	0.609636	0.410811
	H105	H	0.884905	0.588098	0.593680
	H106	H	0.115783	0.412629	0.593613
	H107	H	0.883839	0.414794	0.400199
	H108	H	0.910911	0.610381	0.079001
	H109	H	0.095601	0.386122	0.084359
	H110	H	0.100851	0.616696	0.910199
	H111	H	0.909590	0.385821	0.906749
	H112	H	0.092858	0.909283	0.615624
	H113	H	0.093423	0.087113	0.385222
	H114	H	0.904823	0.091079	0.616445
	H115	H	0.895452	0.910882	0.380732
	H116	H	0.616898	0.094073	0.906782
	H117	H	0.383865	0.094885	0.090563
	H118	H	0.618675	0.902696	0.097841
	H119	H	0.388403	0.914990	0.912936
	C120	C	0.378277	0.007894	0.621864
	C121	C	0.622578	0.991808	0.622176
	C122	C	0.621960	0.008280	0.378080
	C123	C	0.378608	0.992070	0.378574
	C124	C	0.621405	0.378001	0.008264
	C125	C	0.620720	0.620978	0.991325
	C126	C	0.378434	0.621569	0.008048
	C127	C	0.378795	0.378270	0.991976
	C128	C	0.008511	0.621824	0.378635
	C129	C	0.991717	0.622034	0.621568
	C130	C	0.008588	0.378964	0.621040
	C131	C	0.991498	0.378770	0.378465
	C132	C	0.877696	0.508262	0.121709
	C133	C	0.121453	0.491987	0.122012
	C134	C	0.121585	0.507702	0.878020
	C135	C	0.878244	0.492376	0.877920
	C136	C	0.121682	0.878800	0.508087
	C137	C	0.121692	0.122029	0.491584
	C138	C	0.878862	0.122027	0.508385
	C139	C	0.878572	0.878805	0.491790
	C140	C	0.507850	0.120711	0.878858
	C141	C	0.491673	0.121427	0.121593
	C142	C	0.508096	0.877737	0.121420
	C143	C	0.491721	0.877702	0.878550
	C144	C	0.381735	0.884677	0.675857
	C145	C	0.618497	0.114570	0.676931
	C146	C	0.618546	0.885009	0.324098
	C147	C	0.381820	0.114963	0.324160
	C148	C	0.676107	0.380477	0.884738
	C149	C	0.675393	0.617509	0.114702
	C150	C	0.323544	0.618094	0.884771
	C151	C	0.324717	0.382224	0.115791
	C152	C	0.885167	0.676279	0.381334
	C153	C	0.114976	0.677312	0.619070
	C154	C	0.885083	0.324123	0.618437
	C155	C	0.114995	0.324069	0.381143
	C156	C	0.884590	0.382865	0.674813
	C157	C	0.115489	0.618730	0.675719
	C158	C	0.884544	0.617990	0.324502
	C159	C	0.115333	0.382458	0.324280
	C160	C	0.379928	0.676577	0.885125
	C161	C	0.618411	0.675695	0.114616
	C162	C	0.619434	0.321976	0.885231
	C163	C	0.380947	0.323465	0.115225
	C164	C	0.676573	0.885010	0.382003
	C165	C	0.676104	0.115080	0.618701
	C166	C	0.323305	0.885127	0.618510
	C167	C	0.324649	0.115201	0.382186
	C168	C	0.880904	0.385592	0.176461
	C169	C	0.117654	0.614976	0.176007
	C170	C	0.118849	0.385219	0.822751
	C171	C	0.881595	0.614989	0.823604
	C172	C	0.176899	0.881483	0.384992
	C173	C	0.176290	0.118834	0.615373
	C174	C	0.824690	0.118580	0.384537
	C175	C	0.824629	0.883234	0.615410
	C176	C	0.384915	0.176129	0.881052
	C177	C	0.614754	0.176773	0.119793
	C178	C	0.384454	0.823243	0.118776
	C179	C	0.615147	0.822971	0.881883
	C180	C	0.384263	0.881868	0.175483
	C181	C	0.615407	0.117593	0.175952
	C182	C	0.384684	0.117762	0.824028
	C183	C	0.615691	0.880978	0.824638
	C184	C	0.881947	0.176059	0.384883
	C185	C	0.118919	0.176717	0.615004
	C186	C	0.119483	0.823468	0.385328
	C187	C	0.880615	0.824262	0.614928
	C188	C	0.176361	0.385019	0.881181
	C189	C	0.175836	0.614960	0.118364
	C190	C	0.823537	0.385307	0.118155
	C191	C	0.823279	0.615024	0.881093
	C192	C	0.400010	0.093737	0.600680
	C193	C	0.601384	0.905826	0.600600
	C194	C	0.600045	0.093931	0.399843
	C195	C	0.400161	0.906277	0.399893
	C196	C	0.599294	0.400201	0.094124
	C197	C	0.598666	0.599341	0.904895
	C198	C	0.400364	0.599917	0.094366
	C199	C	0.400111	0.399469	0.905794
	C200	C	0.094783	0.600386	0.400107
	C201	C	0.905562	0.600405	0.599813
	C202	C	0.094921	0.400441	0.599268
	C203	C	0.905367	0.400241	0.400362
	C204	C	0.899126	0.594207	0.100249
	C205	C	0.100038	0.405919	0.100260
	C206	C	0.099504	0.593655	0.900035
	C207	C	0.900322	0.406631	0.899734
	C208	C	0.099679	0.900939	0.594337
	C209	C	0.100350	0.100804	0.405411
	C210	C	0.900366	0.100360	0.594536
	C211	C	0.900954	0.900595	0.405581
	C212	C	0.594167	0.098738	0.901022
	C213	C	0.405419	0.099519	0.099495
	C214	C	0.594250	0.899055	0.099790
	C215	C	0.405667	0.899832	0.900182
	Zn216	Zn	0.500556	-0.000670	0.750439
	Zn217	Zn	0.499683	-0.000173	0.249715
	Zn218	Zn	0.749266	0.499877	-0.000730
	Zn219	Zn	0.250314	0.499984	0.000349
	Zn220	Zn	-0.000277	0.750242	0.500256
	Zn221	Zn	-0.000049	0.250175	0.499885
	Zn222	Zn	0.000282	0.500302	0.749163
	Zn223	Zn	-0.000222	0.500121	0.250568
	Zn224	Zn	0.499269	0.749445	-0.000092
	Zn225	Zn	0.500045	0.249638	0.000313
	Zn226	Zn	0.750842	0.000561	0.499867
	Zn227	Zn	0.249731	0.000460	0.499781
	N228	N	0.415126	0.961921	0.678347
	N229	N	0.585810	0.037010	0.678850
	N230	N	0.585366	0.962301	0.321624
	N231	N	0.414642	0.037407	0.321816
	N232	N	0.677446	0.414667	0.961960
	N233	N	0.676853	0.584183	0.036980
	N234	N	0.322615	0.584308	0.962278
	N235	N	0.323101	0.415630	0.038257
	N236	N	0.963011	0.678652	0.414368
	N237	N	0.036908	0.679380	0.586085
	N238	N	0.963004	0.321712	0.585538
	N239	N	0.037197	0.321759	0.414209
	N240	N	0.962289	0.416278	0.676443
	N241	N	0.037956	0.585265	0.677471
	N242	N	0.962222	0.584578	0.322790
	N243	N	0.037591	0.415842	0.322595
	N244	N	0.413367	0.678572	0.962841
	N245	N	0.585267	0.677933	0.036703
	N246	N	0.585984	0.320481	0.962978
	N247	N	0.413828	0.320790	0.037324
	N248	N	0.678898	0.962747	0.414833
	N249	N	0.678622	0.037809	0.585325
	N250	N	0.321279	0.962621	0.585524
	N251	N	0.322505	0.037926	0.415355
	N252	N	0.913758	0.463030	0.178925
	N253	N	0.084954	0.537361	0.178399
	N254	N	0.085622	0.462597	0.820831
	N255	N	0.915266	0.537803	0.821836
	N256	N	0.178128	0.915395	0.462378
	N257	N	0.178241	0.085583	0.537602
	N258	N	0.822743	0.085412	0.462281
	N259	N	0.823483	0.916550	0.537872
	N260	N	0.462712	0.178083	0.914451
	N261	N	0.537007	0.178868	0.086386
	N262	N	0.462313	0.820428	0.085985
	N263	N	0.537105	0.820793	0.914530
	N264	N	0.461887	0.915023	0.177170
	N265	N	0.537819	0.084004	0.177144
	N266	N	0.462117	0.083748	0.822862
	N267	N	0.538019	0.914336	0.822419
	N268	N	0.914865	0.178257	0.462659
	N269	N	0.085802	0.178845	0.537344
	N270	N	0.085717	0.821868	0.462960
	N271	N	0.913431	0.821442	0.536876
	N272	N	0.178379	0.462386	0.914590
	N273	N	0.178375	0.537459	0.085624
	N274	N	0.821615	0.462546	0.084600
	N275	N	0.821182	0.537661	0.914083
