data_Molecule from HDF5

_cell_length_a		16.510350
_cell_length_b		16.495417
_cell_length_c		16.612697
_cell_angle_alpha	89.950042
_cell_angle_beta	90.081371
_cell_angle_gamma	89.963269
_symmetry_space_group_name_H-M	'P 1'
_symmetry_Int_Tables_number		1

loop_
	_symmetry_equiv_pos_as_xyz
	x,y,z

loop_
	_atom_site_label
	_atom_site_type_symbol
	_atom_site_fract_x
	_atom_site_fract_y
	_atom_site_fract_z
	H0	H	0.401942	0.850034	0.728392
	H1	H	0.614995	0.161628	0.727713
	H2	H	0.616368	0.850506	0.281382
	H3	H	0.403150	0.163399	0.282498
	H4	H	0.728933	0.401590	0.849198
	H5	H	0.733355	0.613979	0.159964
	H6	H	0.287235	0.610607	0.848624
	H7	H	0.285716	0.399797	0.161164
	H8	H	0.852826	0.728582	0.397509
	H9	H	0.166898	0.725525	0.607919
	H10	H	0.851779	0.284479	0.610062
	H11	H	0.164982	0.282642	0.397740
	H12	H	0.852070	0.398295	0.727283
	H13	H	0.164510	0.612084	0.727857
	H14	H	0.852645	0.612671	0.281433
	H15	H	0.163728	0.396444	0.279779
	H16	H	0.401739	0.729428	0.850734
	H17	H	0.614733	0.727453	0.162103
	H18	H	0.611280	0.285597	0.848798
	H19	H	0.400689	0.281895	0.160457
	H20	H	0.731015	0.849352	0.399499
	H21	H	0.728644	0.163562	0.609358
	H22	H	0.287854	0.849349	0.609921
	H23	H	0.286658	0.162926	0.398614
	H24	H	0.900391	0.350101	0.228118
	H25	H	0.113364	0.661932	0.225795
	H26	H	0.113097	0.348504	0.784131
	H27	H	0.900787	0.661957	0.781542
	H28	H	0.232646	0.900241	0.349851
	H29	H	0.232241	0.112896	0.661451
	H30	H	0.786533	0.112568	0.349145
	H31	H	0.789720	0.901198	0.662560
	H32	H	0.350591	0.226053	0.899665
	H33	H	0.665761	0.226798	0.108354
	H34	H	0.351375	0.785866	0.110471
	H35	H	0.664936	0.781759	0.899930
	H36	H	0.352844	0.900501	0.228313
	H37	H	0.665961	0.112013	0.225380
	H38	H	0.352165	0.111586	0.782164
	H39	H	0.664948	0.897160	0.782984
	H40	H	0.903207	0.229229	0.349328
	H41	H	0.115154	0.229351	0.661381
	H42	H	0.115063	0.783537	0.349765
	H43	H	0.905739	0.784737	0.661362
	H44	H	0.227740	0.347718	0.901133
	H45	H	0.228017	0.662470	0.107941
	H46	H	0.786625	0.349295	0.109475
	H47	H	0.785282	0.662832	0.897526
	H48	H	0.418963	0.119315	0.593608
	H49	H	0.598654	0.893649	0.591345
	H50	H	0.600401	0.119443	0.416556
	H51	H	0.422755	0.892106	0.408357
	H52	H	0.598739	0.415542	0.118413
	H53	H	0.597551	0.594500	0.893592
	H54	H	0.419282	0.595262	0.117109
	H55	H	0.420022	0.417726	0.894691
	H56	H	0.120740	0.595344	0.416197
	H57	H	0.895303	0.595667	0.596128
	H58	H	0.119018	0.423862	0.594333
	H59	H	0.898155	0.420233	0.418059
	H60	H	0.122017	0.416166	0.598339
	H61	H	0.896291	0.596608	0.591796
	H62	H	0.120690	0.592124	0.416033
	H63	H	0.897333	0.419993	0.414864
	H64	H	0.416371	0.596529	0.118299
	H65	H	0.595701	0.592602	0.895373
	H66	H	0.597371	0.421103	0.115438
	H67	H	0.418160	0.412914	0.891495
	H68	H	0.596016	0.119430	0.412682
	H69	H	0.600713	0.891712	0.596060
	H70	H	0.423151	0.118156	0.596772
	H71	H	0.429107	0.898922	0.420254
	H72	H	0.918515	0.618625	0.090066
	H73	H	0.097029	0.390627	0.097579
	H74	H	0.098939	0.617226	0.922004
	H75	H	0.914349	0.391576	0.916078
	H76	H	0.099866	0.923411	0.614871
	H77	H	0.096461	0.089650	0.397448
	H78	H	0.923871	0.096532	0.616177
	H79	H	0.919141	0.914865	0.392404
	H80	H	0.619659	0.094009	0.918625
	H81	H	0.396954	0.093398	0.093158
	H82	H	0.621431	0.919621	0.096279
	H83	H	0.400416	0.919373	0.925776
	H84	H	0.622181	0.914019	0.094144
	H85	H	0.395625	0.094008	0.096441
	H86	H	0.620882	0.092841	0.914556
	H87	H	0.397734	0.925866	0.911084
	H88	H	0.917266	0.098473	0.618173
	H89	H	0.093472	0.097214	0.395245
	H90	H	0.092546	0.913732	0.615577
	H91	H	0.917146	0.918482	0.392420
	H92	H	0.101216	0.621722	0.911017
	H93	H	0.092655	0.394107	0.093472
	H94	H	0.921750	0.618320	0.095836
	H95	H	0.923421	0.393581	0.911271
	H96	H	0.423071	0.117242	0.591807
	H97	H	0.595493	0.893481	0.595926
	H98	H	0.595350	0.116849	0.417977
	H99	H	0.415150	0.894039	0.421260
	H100	H	0.592576	0.416314	0.115809
	H101	H	0.594502	0.595151	0.894289
	H102	H	0.416778	0.593363	0.117199
	H103	H	0.414574	0.417646	0.893084
	H104	H	0.121677	0.594211	0.413307
	H105	H	0.897211	0.592203	0.593989
	H106	H	0.119911	0.416523	0.589539
	H107	H	0.897134	0.417420	0.416739
	H108	H	0.924396	0.616136	0.089858
	H109	H	0.098993	0.392484	0.090979
	H110	H	0.090846	0.616713	0.913523
	H111	H	0.922117	0.396626	0.921278
	H112	H	0.103609	0.912795	0.619764
	H113	H	0.101311	0.094827	0.393113
	H114	H	0.918047	0.091257	0.615813
	H115	H	0.920958	0.918062	0.393789
	H116	H	0.621351	0.097077	0.916094
	H117	H	0.394970	0.095990	0.093642
	H118	H	0.619786	0.918537	0.090292
	H119	H	0.393860	0.910587	0.914280
	C120	C	0.388768	0.014548	0.626404
	C121	C	0.630309	0.996785	0.626591
	C122	C	0.630559	0.015192	0.383205
	C123	C	0.388670	0.998606	0.383836
	C124	C	0.628591	0.385147	0.013491
	C125	C	0.629661	0.627380	0.997020
	C126	C	0.385732	0.627542	0.014186
	C127	C	0.385332	0.383822	0.996620
	C128	C	0.017575	0.627026	0.382763
	C129	C	0.999935	0.627234	0.626094
	C130	C	0.016742	0.385794	0.626027
	C131	C	1.000474	0.385098	0.383400
	C132	C	0.887673	0.514357	0.125227
	C133	C	0.128927	0.496223	0.126057
	C134	C	0.129061	0.514265	0.883702
	C135	C	0.886609	0.497551	0.883107
	C136	C	0.131295	0.884244	0.513521
	C137	C	0.130562	0.127863	0.497602
	C138	C	0.887022	0.128182	0.513569
	C139	C	0.887685	0.884819	0.496609
	C140	C	0.517131	0.126910	0.883564
	C141	C	0.500082	0.127358	0.126065
	C142	C	0.517377	0.885204	0.126503
	C143	C	0.500460	0.884718	0.884614
	C144	C	0.384558	0.896770	0.687671
	C145	C	0.632993	0.114795	0.687179
	C146	C	0.634021	0.897229	0.322225
	C147	C	0.385231	0.116348	0.322845
	C148	C	0.688752	0.382899	0.895956
	C149	C	0.692292	0.631534	0.113579
	C150	C	0.326712	0.629487	0.896116
	C151	C	0.325448	0.381432	0.114186
	C152	C	0.899828	0.688344	0.379603
	C153	C	0.119039	0.686508	0.627533
	C154	C	0.899042	0.324524	0.628503
	C155	C	0.118022	0.323366	0.380266
	C156	C	0.899104	0.381330	0.686868
	C157	C	0.118084	0.629797	0.686766
	C158	C	0.899744	0.630975	0.321609
	C159	C	0.117344	0.379974	0.321387
	C160	C	0.383787	0.688474	0.897095
	C161	C	0.633019	0.687929	0.114626
	C162	C	0.630507	0.325230	0.895742
	C163	C	0.382728	0.322804	0.113887
	C164	C	0.691112	0.896754	0.380750
	C165	C	0.689557	0.115801	0.628325
	C166	C	0.327854	0.896367	0.628929
	C167	C	0.327623	0.116263	0.380800
	C168	C	0.883517	0.396807	0.186729
	C169	C	0.131646	0.614864	0.185739
	C170	C	0.131151	0.395796	0.824112
	C171	C	0.882759	0.615244	0.821928
	C172	C	0.191961	0.881853	0.396489
	C173	C	0.191670	0.130818	0.614745
	C174	C	0.826807	0.130792	0.396174
	C175	C	0.829198	0.883140	0.614975
	C176	C	0.398350	0.186644	0.881113
	C177	C	0.618320	0.187482	0.127365
	C178	C	0.398841	0.825572	0.128986
	C179	C	0.618024	0.822706	0.881839
	C180	C	0.399506	0.882859	0.187249
	C181	C	0.618690	0.129932	0.185242
	C182	C	0.399147	0.129591	0.822676
	C183	C	0.618087	0.880097	0.823551
	C184	C	0.885021	0.188740	0.396126
	C185	C	0.133553	0.188847	0.614704
	C186	C	0.133775	0.823900	0.396236
	C187	C	0.886784	0.824781	0.614409
	C188	C	0.188270	0.395309	0.882308
	C189	C	0.188623	0.615122	0.127435
	C190	C	0.826808	0.396374	0.127905
	C191	C	0.825273	0.615378	0.879743
	C192	C	0.414404	0.096682	0.601351
	C193	C	0.605408	0.914484	0.601600
	C194	C	0.604780	0.097155	0.408552
	C195	C	0.414836	0.916287	0.409269
	C196	C	0.603361	0.410411	0.095415
	C197	C	0.603433	0.601571	0.915718
	C198	C	0.410410	0.602175	0.096232
	C199	C	0.410412	0.408947	0.914448
	C200	C	0.099556	0.601104	0.407924
	C201	C	0.917832	0.602273	0.600951
	C202	C	0.099013	0.411850	0.601234
	C203	C	0.918874	0.411706	0.409246
	C204	C	0.913972	0.596475	0.099147
	C205	C	0.103670	0.413888	0.101067
	C206	C	0.104269	0.597088	0.908500
	C207	C	0.912659	0.415344	0.908896
	C208	C	0.105947	0.909145	0.595473
	C209	C	0.104405	0.101585	0.416243
	C210	C	0.912499	0.102716	0.595456
	C211	C	0.912221	0.909772	0.414357
	C212	C	0.599313	0.101950	0.909118
	C213	C	0.417453	0.101746	0.101554
	C214	C	0.599773	0.910363	0.101003
	C215	C	0.418799	0.910997	0.909861
	Zn216	Zn	0.509116	0.005049	0.755611
	Zn217	Zn	0.509444	0.006887	0.254748
	Zn218	Zn	0.758507	0.506057	0.004764
	Zn219	Zn	0.256933	0.505500	0.004764
	Zn220	Zn	0.009093	0.755459	0.504230
	Zn221	Zn	0.009319	0.257168	0.505587
	Zn222	Zn	0.008109	0.505726	0.755384
	Zn223	Zn	0.008234	0.505798	0.254427
	Zn224	Zn	0.508445	0.756043	0.006147
	Zn225	Zn	0.507672	0.255869	0.004673
	Zn226	Zn	0.758905	0.005944	0.505328
	Zn227	Zn	0.260032	0.006582	0.505182
	N228	N	0.421631	0.971060	0.686206
	N229	N	0.596976	0.039726	0.686385
	N230	N	0.597409	0.971971	0.323315
	N231	N	0.422611	0.041942	0.324748
	N232	N	0.687770	0.419361	0.970257
	N233	N	0.690485	0.594610	0.039520
	N234	N	0.327734	0.592271	0.969974
	N235	N	0.326870	0.418582	0.040126
	N236	N	0.974016	0.686249	0.416856
	N237	N	0.044586	0.685038	0.590555
	N238	N	0.973089	0.327305	0.591226
	N239	N	0.044106	0.326525	0.418238
	N240	N	0.973422	0.418853	0.685402
	N241	N	0.043058	0.593880	0.686288
	N242	N	0.973897	0.593506	0.323519
	N243	N	0.043281	0.417711	0.323181
	N244	N	0.419539	0.687473	0.971627
	N245	N	0.594704	0.685464	0.041162
	N246	N	0.593861	0.326649	0.969828
	N247	N	0.419089	0.324171	0.039656
	N248	N	0.689188	0.971039	0.417905
	N249	N	0.688166	0.041421	0.591375
	N250	N	0.330079	0.970693	0.591618
	N251	N	0.329933	0.042077	0.418238
	N252	N	0.920593	0.471342	0.185208
	N253	N	0.095655	0.539937	0.185315
	N254	N	0.095316	0.471018	0.824775
	N255	N	0.920117	0.540916	0.823957
	N256	N	0.190511	0.918455	0.470616
	N257	N	0.190026	0.093673	0.540761
	N258	N	0.828047	0.093989	0.470269
	N259	N	0.829506	0.919484	0.540568
	N260	N	0.472685	0.185223	0.918345
	N261	N	0.543437	0.186029	0.091369
	N262	N	0.473301	0.826681	0.092041
	N263	N	0.543854	0.825181	0.918994
	N264	N	0.474425	0.918865	0.185997
	N265	N	0.543914	0.093391	0.184616
	N266	N	0.474003	0.093290	0.823871
	N267	N	0.544052	0.917895	0.825171
	N268	N	0.921718	0.187386	0.470407
	N269	N	0.096446	0.187154	0.540815
	N270	N	0.096741	0.825256	0.470108
	N271	N	0.922228	0.825361	0.539636
	N272	N	0.187162	0.470085	0.918578
	N273	N	0.187205	0.540311	0.091267
	N274	N	0.829253	0.470578	0.090485
	N275	N	0.827577	0.541053	0.917221
	O276	O	0.977438	0.791786	-0.030614
	H277	H	0.990493	0.786388	-0.034059
	H278	H	0.976796	0.794870	-0.026880
	O279	O	0.015628	0.203925	0.806847
	H280	H	0.019778	0.204578	0.790963
	H281	H	0.009032	0.200604	0.817907
	O282	O	0.719596	0.451057	0.553242
	H283	H	0.726973	0.462980	0.526855
	H284	H	0.713569	0.450539	0.548312
	O285	O	0.366585	0.468479	0.460480
	H286	H	0.357079	0.454822	0.462562
	H287	H	0.373107	0.466002	0.455723
	O288	O	0.934737	-0.004469	0.895280
	H289	H	0.928523	-0.005061	0.908169
	H290	H	0.946846	-0.008237	0.900166
	O291	O	0.715899	0.490633	0.298458
	H292	H	0.725147	0.495333	0.300572
	H293	H	0.703903	0.501407	0.287823
	O294	O	0.014319	-0.156402	-0.208741
	H295	H	0.016329	-0.164870	-0.207960
	H296	H	0.026821	-0.156874	-0.220790
	O297	O	0.773815	0.255399	0.256253
	H298	H	0.783938	0.275037	0.244629
	H299	H	0.792114	0.235655	0.253239
	O300	O	0.059302	0.216314	0.218421
	H301	H	0.077311	0.242971	0.239837
	H302	H	0.054342	0.216943	0.199541
	O303	O	-0.109623	-0.122799	0.096625
	H304	H	-0.100503	-0.124598	0.100528
	H305	H	-0.106886	-0.128501	0.089199
	O306	O	0.799808	0.077258	0.019079
	H307	H	0.801139	0.074462	0.018413
	H308	H	0.799511	0.076635	0.019694
	O309	O	0.694466	0.550520	0.456011
	H310	H	0.698816	0.568349	0.460258
	H311	H	0.682467	0.551539	0.455402
	O312	O	0.518387	0.516555	0.287476
	H313	H	0.499461	0.532955	0.290631
	H314	H	0.515419	0.508479	0.285520
	O315	O	0.569933	0.537341	0.572007
	H316	H	0.562516	0.533546	0.571313
	H317	H	0.563516	0.533315	0.571440
	O318	O	0.967182	0.941505	-0.073567
	H319	H	0.976261	0.940631	-0.078444
	H320	H	0.965985	0.931496	-0.069502
	O321	O	-0.009049	0.971664	0.995425
	H322	H	-0.027781	0.982440	0.998225
	H323	H	0.005556	0.961579	0.995885
	O324	O	0.881397	-0.017505	1.172329
	H325	H	0.885557	-0.016290	1.171501
	H326	H	0.867855	-0.022671	1.177650
	O327	O	0.671630	0.508585	0.714141
	H328	H	0.675525	0.504331	0.712978
	H329	H	0.682940	0.495773	0.710619
	O330	O	0.220081	1.204573	0.020049
	H331	H	0.242257	1.230769	0.020611
	H332	H	0.214794	1.180268	-0.004510
	O333	O	0.296736	0.480678	0.723472
	H334	H	0.283082	0.483651	0.730718
	H335	H	0.289417	0.473305	0.721062
	O336	O	0.453738	0.608519	0.389752
	H337	H	0.443298	0.586859	0.378297
	H338	H	0.475021	0.616992	0.396921
	O339	O	0.086152	0.801984	0.209836
	H340	H	0.056331	0.818183	0.194661
	H341	H	0.071523	0.790654	0.211546
	O342	O	0.211053	0.871650	0.005947
	H343	H	0.216413	0.847737	-0.004416
	H344	H	0.215082	0.872869	-0.006738
	O345	O	0.313971	0.314556	0.698571
	H346	H	0.323518	0.321480	0.672361
	H347	H	0.314239	0.322895	0.714086
	O348	O	0.308379	0.704503	0.584916
	H349	H	0.312953	0.699571	0.579225
	H350	H	0.310185	0.698726	0.551388
	O351	O	0.215213	-0.198253	0.883080
	H352	H	0.234153	-0.210851	0.853583
	H353	H	0.213767	-0.193494	0.880326
	O354	O	1.217649	-0.104875	0.799680
	H355	H	1.237245	-0.120260	0.784324
	H356	H	1.206935	-0.087961	0.789222
	O357	O	0.468484	0.697997	0.315029
	H358	H	0.471644	0.692990	0.321994
	H359	H	0.480246	0.725459	0.305858
	O360	O	0.442507	0.456447	0.407323
	H361	H	0.439663	0.446998	0.396676
	H362	H	0.438551	0.459131	0.403132
	O363	O	0.549486	0.290874	0.286126
	H364	H	0.561758	0.299613	0.283078
	H365	H	0.559648	0.273085	0.266305
	O366	O	0.804164	0.180850	0.800511
	H367	H	0.775948	0.202075	0.786954
	H368	H	0.807928	0.163936	0.804432
	O369	O	0.018775	0.120284	0.961912
	H370	H	0.016888	0.121015	0.960731
	H371	H	0.019157	0.116798	0.967895
	O372	O	-0.000721	0.953742	0.831802
	H373	H	0.008163	0.962311	0.827446
	H374	H	0.001479	0.947522	0.834145
	O375	O	1.120476	-0.185802	0.123251
	H376	H	1.127277	-0.189358	0.124725
	H377	H	1.116008	-0.192951	0.131039
	O378	O	0.721701	0.303807	0.388147
	H379	H	0.746549	0.278443	0.363914
	H380	H	0.720196	0.316853	0.382488
	O381	O	-0.212285	1.021725	-0.181920
	H382	H	-0.221483	1.022450	-0.187946
	H383	H	-0.217208	1.028763	-0.182441
	O384	O	0.546731	0.729036	0.426004
	H385	H	0.547362	0.728687	0.446232
	H386	H	0.562888	0.731144	0.425344
	O387	O	0.046861	0.971272	1.221571
	H388	H	0.063023	0.974712	1.221557
	H389	H	0.047795	0.983269	1.219456
	O390	O	0.220324	1.031767	1.217854
	H391	H	0.225019	1.037334	1.192036
	H392	H	0.238027	1.033872	1.240775
	O393	O	0.967063	0.176040	0.033384
	H394	H	0.962398	0.172645	0.025553
	H395	H	0.962055	0.171762	0.034949
	O396	O	0.315859	0.293614	0.553916
	H397	H	0.320470	0.282315	0.571811
	H398	H	0.323011	0.271916	0.541428
	O399	O	0.525794	0.302783	0.671665
	H400	H	0.513308	0.301390	0.677232
	H401	H	0.524761	0.293434	0.662539
	O402	O	1.131468	0.001795	0.905613
	H403	H	1.115788	0.004970	0.899720
	H404	H	1.129982	-0.000112	0.905362
	O405	O	0.292748	0.533783	0.289077
	H406	H	0.276627	0.533469	0.286428
	H407	H	0.277344	0.539814	0.292796
	O408	O	0.704031	0.709569	0.698189
	H409	H	0.701752	0.687786	0.702714
	H410	H	0.694884	0.697551	0.712833
	O411	O	0.808485	0.807518	0.201446
	H412	H	0.801980	0.800006	0.184247
	H413	H	0.825552	0.831675	0.206245
	O414	O	-0.132669	0.151356	0.091287
	H415	H	-0.131621	0.152682	0.077040
	H416	H	-0.125518	0.143122	0.083345
	O417	O	0.677042	0.319775	0.675023
	H418	H	0.674481	0.344032	0.661867
	H419	H	0.657977	0.325691	0.652544
	O420	O	1.516458	-0.527180	0.708704
	H421	H	1.519124	-0.529688	0.697583
	H422	H	1.515312	-0.525345	0.701183
	O423	O	0.795396	0.802415	0.035780
	H424	H	0.790981	0.785206	0.027620
	H425	H	0.799920	0.790757	0.043561
	O426	O	0.726350	0.724920	0.534763
	H427	H	0.743750	0.742864	0.540341
	H428	H	0.728038	0.725627	0.567659
	O429	O	0.297267	0.714877	0.392494
	H430	H	0.314398	0.731926	0.381318
	H431	H	0.286598	0.733582	0.374201
	O432	O	0.857422	0.218094	0.965737
	H433	H	0.849637	0.235947	0.956629
	H434	H	0.860776	0.212755	0.937964
	O435	O	0.453561	0.368227	0.366968
	H436	H	0.433870	0.372191	0.349570
	H437	H	0.457405	0.369389	0.369745
	O438	O	0.363309	0.328411	0.397437
	H439	H	0.368236	0.318968	0.385470
	H440	H	0.387863	0.336229	0.407322
	O441	O	0.672962	0.678721	0.330750
	H442	H	0.663207	0.671135	0.344345
	H443	H	0.669796	0.685291	0.329120
	O444	O	0.512652	0.575424	0.479216
	H445	H	0.511748	0.557165	0.471177
	H446	H	0.504777	0.564516	0.474921
	O447	O	0.481624	0.716252	0.715796
	H448	H	0.500830	0.695352	0.714587
	H449	H	0.483053	0.727189	0.734145
	O450	O	1.222699	0.052677	-0.051046
	H451	H	1.222861	0.036307	-0.068990
	H452	H	1.217933	0.048776	-0.047121
	O453	O	0.593850	0.337396	0.455180
	H454	H	0.603138	0.324243	0.445269
	H455	H	0.599923	0.333478	0.444414
	O456	O	0.095045	1.158437	0.816566
	H457	H	0.082986	1.148401	0.824573
	H458	H	0.082199	1.153956	0.818864
	O459	O	0.445299	0.581427	0.726966
	H460	H	0.437879	0.574369	0.723732
	H461	H	0.449775	0.572476	0.719921
	O462	O	0.287227	0.561166	0.567632
	H463	H	0.288887	0.555051	0.549585
	H464	H	0.281158	0.560096	0.557847
	O465	O	0.480358	0.326457	0.546471
	H466	H	0.483427	0.326238	0.548760
	H467	H	0.483086	0.322825	0.540054
	O468	O	0.145361	1.156645	0.163004
	H469	H	0.147845	1.167104	0.127077
	H470	H	0.132799	1.131809	0.171954
	O471	O	0.476659	0.685764	0.546809
	H472	H	0.487090	0.688620	0.554273
	H473	H	0.470612	0.679091	0.556960
	O474	O	1.114753	0.864279	-0.026568
	H475	H	1.115048	0.864144	-0.021799
	H476	H	1.127929	0.864979	-0.022248
	O477	O	-0.086786	0.050361	1.209745
	H478	H	-0.085801	0.064484	1.221762
	H479	H	-0.084605	0.047642	1.212108
