data_Molecule from HDF5

_cell_length_a		16.489936
_cell_length_b		16.284003
_cell_length_c		16.193705
_cell_angle_alpha	90.271340
_cell_angle_beta	90.226576
_cell_angle_gamma	90.272612
_symmetry_space_group_name_H-M	'P 1'
_symmetry_Int_Tables_number		1

loop_
	_symmetry_equiv_pos_as_xyz
	x,y,z

loop_
	_atom_site_label
	_atom_site_type_symbol
	_atom_site_fract_x
	_atom_site_fract_y
	_atom_site_fract_z
	H0	H	0.392458	0.825649	0.718098
	H1	H	0.593096	0.151496	0.723024
	H2	H	0.592838	0.827810	0.288192
	H3	H	0.392337	0.151321	0.287910
	H4	H	0.708345	0.383319	0.842039
	H5	H	0.710028	0.594004	0.165270
	H6	H	0.268878	0.591244	0.843151
	H7	H	0.270423	0.381628	0.165497
	H8	H	0.832314	0.708988	0.404564
	H9	H	0.150376	0.712038	0.614909
	H10	H	0.832494	0.268557	0.608383
	H11	H	0.151530	0.270580	0.401289
	H12	H	0.828691	0.389445	0.719160
	H13	H	0.150411	0.592209	0.727348
	H14	H	0.831082	0.591256	0.287517
	H15	H	0.149388	0.385030	0.283929
	H16	H	0.387829	0.703278	0.840883
	H17	H	0.593603	0.707702	0.165636
	H18	H	0.587725	0.273189	0.840131
	H19	H	0.389558	0.271301	0.166823
	H20	H	0.712248	0.830236	0.399944
	H21	H	0.712890	0.150731	0.612080
	H22	H	0.268790	0.830355	0.612196
	H23	H	0.271206	0.149321	0.398225
	H24	H	0.891064	0.325797	0.220420
	H25	H	0.089740	0.652551	0.221874
	H26	H	0.084561	0.325470	0.790189
	H27	H	0.890375	0.652293	0.791992
	H28	H	0.208323	0.886557	0.342812
	H29	H	0.213760	0.095943	0.667171
	H30	H	0.773934	0.093718	0.343879
	H31	H	0.773842	0.888715	0.668233
	H32	H	0.330107	0.203593	0.901242
	H33	H	0.650508	0.209118	0.106129
	H34	H	0.330213	0.769805	0.104702
	H35	H	0.651912	0.769673	0.902743
	H36	H	0.330795	0.887448	0.222006
	H37	H	0.652663	0.091276	0.221575
	H38	H	0.330856	0.085877	0.785802
	H39	H	0.653401	0.888907	0.788527
	H40	H	0.893672	0.204077	0.342328
	H41	H	0.094035	0.207332	0.669529
	H42	H	0.091405	0.771878	0.344044
	H43	H	0.893439	0.778178	0.671358
	H44	H	0.207087	0.326843	0.898716
	H45	H	0.211916	0.649351	0.111079
	H46	H	0.771014	0.327087	0.107499
	H47	H	0.771964	0.650034	0.903358
	H48	H	0.395282	0.102823	0.585089
	H49	H	0.586022	0.872290	0.598109
	H50	H	0.584973	0.109018	0.405676
	H51	H	0.395277	0.873624	0.418239
	H52	H	0.580527	0.404179	0.117668
	H53	H	0.576004	0.579000	0.888482
	H54	H	0.402790	0.572627	0.117187
	H55	H	0.399828	0.401382	0.891027
	H56	H	0.103581	0.577660	0.416072
	H57	H	0.876918	0.591973	0.589182
	H58	H	0.106525	0.397532	0.602710
	H59	H	0.880291	0.395395	0.423842
	H60	H	0.104789	0.398134	0.593842
	H61	H	0.880825	0.572549	0.596406
	H62	H	0.105943	0.582813	0.415365
	H63	H	0.879586	0.405365	0.412425
	H64	H	0.404575	0.581772	0.119587
	H65	H	0.585145	0.579981	0.886353
	H66	H	0.577530	0.395830	0.119897
	H67	H	0.398161	0.391959	0.887117
	H68	H	0.576841	0.101484	0.419562
	H69	H	0.580880	0.875981	0.592672
	H70	H	0.398726	0.108172	0.604391
	H71	H	0.399931	0.872220	0.409289
	H72	H	0.900576	0.602589	0.093711
	H73	H	0.076350	0.375542	0.093620
	H74	H	0.077229	0.603098	0.916486
	H75	H	0.901064	0.376082	0.919590
	H76	H	0.089929	0.911236	0.620328
	H77	H	0.081676	0.076902	0.391958
	H78	H	0.894407	0.076947	0.622989
	H79	H	0.902908	0.891717	0.388103
	H80	H	0.607578	0.086504	0.910961
	H81	H	0.377599	0.081152	0.094628
	H82	H	0.604907	0.892379	0.090321
	H83	H	0.379430	0.903478	0.909256
	H84	H	0.602391	0.903366	0.093020
	H85	H	0.378077	0.078240	0.095615
	H86	H	0.603525	0.081388	0.920433
	H87	H	0.373954	0.890030	0.905217
	H88	H	0.907202	0.075708	0.618157
	H89	H	0.081517	0.082600	0.390365
	H90	H	0.073823	0.904759	0.618129
	H91	H	0.893657	0.903149	0.389337
	H92	H	0.080813	0.600921	0.923409
	H93	H	0.083056	0.374295	0.091245
	H94	H	0.894550	0.604606	0.094759
	H95	H	0.887210	0.370156	0.914662
	H96	H	0.413962	0.100784	0.592481
	H97	H	0.588659	0.874003	0.590498
	H98	H	0.593293	0.106624	0.421455
	H99	H	0.404494	0.877357	0.417078
	H100	H	0.585896	0.397491	0.122346
	H101	H	0.581850	0.571689	0.889505
	H102	H	0.395674	0.577503	0.121431
	H103	H	0.391512	0.399096	0.886297
	H104	H	0.104216	0.581508	0.420352
	H105	H	0.872828	0.586977	0.609451
	H106	H	0.103184	0.404722	0.599181
	H107	H	0.874822	0.390725	0.410989
	H108	H	0.899070	0.604826	0.099786
	H109	H	0.080790	0.372999	0.098119
	H110	H	0.084940	0.604737	0.917396
	H111	H	0.898887	0.371119	0.904812
	H112	H	0.086137	0.894021	0.625561
	H113	H	0.086303	0.079399	0.388823
	H114	H	0.904021	0.087392	0.624476
	H115	H	0.907737	0.903855	0.394554
	H116	H	0.604652	0.075838	0.909999
	H117	H	0.376703	0.079728	0.097814
	H118	H	0.606425	0.896293	0.101550
	H119	H	0.379239	0.892126	0.919158
	C120	C	0.371601	-0.002624	0.624993
	C121	C	0.615084	0.981078	0.626195
	C122	C	0.614649	-0.000814	0.383781
	C123	C	0.370081	0.980791	0.383668
	C124	C	0.610853	0.367909	0.012278
	C125	C	0.611720	0.608835	0.995065
	C126	C	0.369576	0.608033	0.012242
	C127	C	0.367278	0.365984	0.995296
	C128	C	-0.000770	0.611127	0.386063
	C129	C	0.982527	0.614004	0.630491
	C130	C	-0.000960	0.369004	0.627603
	C131	C	0.983200	0.366929	0.383838
	C132	C	0.868151	0.497001	0.126398
	C133	C	0.112021	0.480366	0.127124
	C134	C	0.109695	0.496167	0.886091
	C135	C	0.866834	0.480027	0.883564
	C136	C	0.113532	0.869952	0.514607
	C137	C	0.114475	0.111516	0.497582
	C138	C	0.871815	0.110391	0.514295
	C139	C	0.871401	0.869971	0.498105
	C140	C	0.499325	0.109930	0.882628
	C141	C	0.483141	0.110935	0.126414
	C142	C	0.499100	0.866415	0.125654
	C143	C	0.483566	0.865505	0.881579
	C144	C	0.371772	0.875194	0.681537
	C145	C	0.613225	0.102906	0.684427
	C146	C	0.613259	0.876899	0.326170
	C147	C	0.371465	0.102659	0.326063
	C148	C	0.668720	0.365732	0.890474
	C149	C	0.670730	0.611852	0.116755
	C150	C	0.309246	0.609449	0.891217
	C151	C	0.309687	0.363996	0.117164
	C152	C	0.879654	0.669456	0.385256
	C153	C	0.102534	0.672384	0.632883
	C154	C	0.879610	0.308860	0.627141
	C155	C	0.103329	0.309265	0.382364
	C156	C	0.877658	0.369040	0.682435
	C157	C	0.102346	0.612809	0.689204
	C158	C	0.879128	0.610910	0.327150
	C159	C	0.102232	0.366079	0.323739
	C160	C	0.368432	0.665443	0.890084
	C161	C	0.612578	0.668178	0.117153
	C162	C	0.608685	0.310751	0.889293
	C163	C	0.369060	0.308902	0.117606
	C164	C	0.672472	0.877952	0.381953
	C165	C	0.672827	0.102547	0.629014
	C166	C	0.310466	0.877475	0.628359
	C167	C	0.311635	0.101841	0.381449
	C168	C	0.869861	0.374809	0.182917
	C169	C	0.110687	0.603184	0.184141
	C170	C	0.106134	0.374184	0.828142
	C171	C	0.869370	0.602928	0.828636
	C172	C	0.170081	0.867713	0.391833
	C173	C	0.174040	0.114189	0.618973
	C174	C	0.813491	0.111482	0.392215
	C175	C	0.813674	0.870407	0.620269
	C176	C	0.378291	0.165280	0.882309
	C177	C	0.603182	0.169348	0.125367
	C178	C	0.378511	0.808772	0.124870
	C179	C	0.604043	0.808425	0.882682
	C180	C	0.378706	0.867360	0.183114
	C181	C	0.604051	0.110870	0.183185
	C182	C	0.378537	0.106638	0.825037
	C183	C	0.604806	0.867751	0.825982
	C184	C	0.873106	0.166759	0.391446
	C185	C	0.114382	0.169287	0.620311
	C186	C	0.112006	0.810492	0.392654
	C187	C	0.872781	0.814994	0.621702
	C188	C	0.166944	0.374908	0.882314
	C189	C	0.171419	0.601514	0.129113
	C190	C	0.810436	0.375360	0.126526
	C191	C	0.810537	0.601880	0.884247
	C192	C	0.395960	0.081967	0.600805
	C193	C	0.591971	0.896193	0.600953
	C194	C	0.591831	0.083562	0.408296
	C195	C	0.393088	0.896326	0.407943
	C196	C	0.588024	0.392272	0.097674
	C197	C	0.587659	0.584112	0.910157
	C198	C	0.394089	0.584160	0.097297
	C199	C	0.389927	0.390415	0.910181
	C200	C	0.082878	0.587513	0.410373
	C201	C	0.898698	0.590639	0.605493
	C202	C	0.083051	0.393260	0.605040
	C203	C	0.900046	0.390582	0.408535
	C204	C	0.891132	0.581894	0.102945
	C205	C	0.087321	0.396255	0.101613
	C206	C	0.087471	0.580998	0.911798
	C207	C	0.889340	0.394568	0.906347
	C208	C	0.090348	0.895829	0.599331
	C209	C	0.090473	0.086807	0.412614
	C210	C	0.895038	0.086805	0.599794
	C211	C	0.894550	0.892851	0.412858
	C212	C	0.583468	0.087673	0.906784
	C213	C	0.399133	0.086626	0.103109
	C214	C	0.582796	0.890427	0.101780
	C215	C	0.399417	0.888473	0.904561
	Zn216	Zn	0.492348	-0.011953	0.752845
	Zn217	Zn	0.492217	-0.011141	0.256042
	Zn218	Zn	0.739542	0.488180	0.004109
	Zn219	Zn	0.240216	0.487678	0.004914
	Zn220	Zn	-0.008341	0.741907	0.507713
	Zn221	Zn	-0.007413	0.239058	0.506198
	Zn222	Zn	-0.010900	0.489797	0.757256
	Zn223	Zn	-0.009472	0.489179	0.255468
	Zn224	Zn	0.491010	0.736331	0.003266
	Zn225	Zn	0.489887	0.239878	0.003769
	Zn226	Zn	0.743223	-0.009536	0.505009
	Zn227	Zn	0.242554	-0.009928	0.505041
	N228	N	0.409373	0.950679	0.679359
	N229	N	0.577965	0.026343	0.682742
	N230	N	0.577827	0.953064	0.327225
	N231	N	0.407187	0.026641	0.327399
	N232	N	0.670062	0.400589	0.968044
	N233	N	0.670159	0.575453	0.040035
	N234	N	0.309821	0.574524	0.968338
	N235	N	0.308181	0.398841	0.040052
	N236	N	0.955416	0.669878	0.421071
	N237	N	0.027029	0.673028	0.596904
	N238	N	0.956207	0.308541	0.593753
	N239	N	0.028398	0.309593	0.419203
	N240	N	0.952836	0.405867	0.682778
	N241	N	0.026481	0.577427	0.688042
	N242	N	0.954451	0.575333	0.327499
	N243	N	0.026683	0.401342	0.324680
	N244	N	0.405584	0.664427	0.966296
	N245	N	0.576517	0.666503	0.040600
	N246	N	0.573471	0.311825	0.966071
	N247	N	0.404187	0.310059	0.040867
	N248	N	0.673543	0.954860	0.417179
	N249	N	0.674144	0.025741	0.593407
	N250	N	0.310295	0.954467	0.593912
	N251	N	0.310652	0.025027	0.416485
	N252	N	0.904983	0.451458	0.183064
	N253	N	0.074706	0.526752	0.183179
	N254	N	0.071150	0.450542	0.830655
	N255	N	0.903534	0.526048	0.828076
	N256	N	0.171286	0.903715	0.468766
	N257	N	0.174200	0.078873	0.541670
	N258	N	0.812697	0.077247	0.469604
	N259	N	0.812434	0.903705	0.542369
	N260	N	0.454213	0.167159	0.917729
	N261	N	0.526877	0.169592	0.090901
	N262	N	0.454401	0.808070	0.090007
	N263	N	0.527491	0.806601	0.916041
	N264	N	0.454817	0.902203	0.183917
	N265	N	0.528305	0.075305	0.183854
	N266	N	0.454891	0.072980	0.825044
	N267	N	0.528915	0.902334	0.825090
	N268	N	0.908709	0.166177	0.468305
	N269	N	0.078090	0.167948	0.543750
	N270	N	0.077842	0.811804	0.469983
	N271	N	0.908028	0.814683	0.544856
	N272	N	0.169129	0.451850	0.917771
	N273	N	0.172662	0.524080	0.094682
	N274	N	0.809282	0.452435	0.092157
	N275	N	0.809064	0.524429	0.917613
	O276	O	0.089529	0.026207	-0.042798
	H277	H	0.097485	0.024347	-0.054535
	H278	H	0.081306	0.040023	-0.042464
	O279	O	0.622612	0.490207	0.426917
	H280	H	0.630911	0.491925	0.440841
	H281	H	0.631897	0.473493	0.417004
	O282	O	1.013904	0.038853	0.069468
	H283	H	1.009998	0.031116	0.072038
	H284	H	1.009532	0.029788	0.074442
	O285	O	0.035632	1.025262	0.073368
	H286	H	0.017956	1.029429	0.086787
	H287	H	0.029871	1.032600	0.054354
	O288	O	0.608884	0.633781	0.557797
	H289	H	0.609856	0.622095	0.540625
	H290	H	0.600198	0.635446	0.539655
	O291	O	0.980807	0.004918	0.958018
	H292	H	0.980995	0.006389	0.959153
	H293	H	0.994672	0.004208	0.961893
	O294	O	1.012397	1.125116	1.018856
	H295	H	1.004645	1.125965	1.031165
	H296	H	1.009609	1.117474	1.017967
	O297	O	0.082467	-0.050182	-0.054247
	H298	H	0.088325	-0.047741	-0.058213
	H299	H	0.080634	-0.050063	-0.051270
	O300	O	0.470807	0.412808	0.534685
	H301	H	0.479840	0.422337	0.512477
	H302	H	0.469189	0.411152	0.540722
	O303	O	-0.055771	0.983141	1.075966
	H304	H	-0.055534	0.981893	1.079746
	H305	H	-0.046518	0.978107	1.069370
	O306	O	0.554338	0.316764	0.397133
	H307	H	0.545438	0.331523	0.396309
	H308	H	0.546428	0.318761	0.384359
	O309	O	0.993379	-0.015195	-0.075561
	H310	H	1.002667	-0.020489	-0.076992
	H311	H	0.994970	-0.011872	-0.075231
	O312	O	-0.034343	-0.186063	1.007072
	H313	H	-0.026193	-0.191383	0.998502
	H314	H	-0.047574	-0.177636	1.006653
	O315	O	0.464184	0.401582	0.328096
	H316	H	0.476032	0.397711	0.337496
	H317	H	0.458781	0.392181	0.325727
	O318	O	0.619436	0.468049	0.681403
	H319	H	0.622821	0.454102	0.686919
	H320	H	0.629715	0.470839	0.676069
	O321	O	0.294914	0.652587	0.493075
	H322	H	0.289955	0.663032	0.501227
	H323	H	0.293760	0.656292	0.500217
	O324	O	0.606158	0.657931	0.618847
	H325	H	0.616457	0.654333	0.605937
	H326	H	0.607789	0.656161	0.630578
	O327	O	-0.044119	1.045171	1.016261
	H328	H	-0.044533	1.058778	1.024468
	H329	H	-0.053272	1.058498	1.024757
	O330	O	0.976871	1.000702	1.064523
	H331	H	0.979165	1.007165	1.053132
	H332	H	0.969751	1.010495	1.061323
	O333	O	-0.059143	0.940644	1.005187
	H334	H	-0.056276	0.943550	0.999629
	H335	H	-0.055563	0.931624	0.989970
	O336	O	0.953317	0.948267	1.090435
	H337	H	0.952582	0.949398	1.083166
	H338	H	0.953107	0.934254	1.089575
	O339	O	0.415263	0.566099	0.324397
	H340	H	0.406120	0.566836	0.335805
	H341	H	0.424737	0.576154	0.332567
	O342	O	1.424051	0.585851	-0.579954
	H343	H	1.420315	0.576238	-0.564131
	H344	H	1.422746	0.583313	-0.594895
	O345	O	-0.016531	0.961662	-0.046208
	H346	H	-0.023354	0.968525	-0.043437
	H347	H	-0.022080	0.960325	-0.050454
	O348	O	1.538768	1.368652	0.407144
	H349	H	1.542280	1.372577	0.425196
	H350	H	1.530500	1.371018	0.398712
	O351	O	1.009983	0.954143	0.017136
	H352	H	1.019353	0.952505	0.018849
	H353	H	1.014333	0.948570	0.009029
	O354	O	0.492451	0.511360	0.661761
	H355	H	0.492723	0.512841	0.655989
	H356	H	0.507883	0.524888	0.661475
	O357	O	0.662818	0.532657	0.567590
	H358	H	0.667806	0.545870	0.573715
	H359	H	0.651503	0.532175	0.549090
	O360	O	-0.119674	-0.028827	0.060128
	H361	H	-0.117528	-0.020366	0.067322
	H362	H	-0.127865	-0.025278	0.069200
	O363	O	0.347087	0.523547	0.490912
	H364	H	0.354698	0.516359	0.488398
	H365	H	0.346646	0.521307	0.514516
	O366	O	0.563281	0.624893	0.307831
	H367	H	0.568214	0.629355	0.286915
	H368	H	0.549180	0.622026	0.308234
	O369	O	0.417760	0.522134	0.603281
	H370	H	0.408659	0.520977	0.602231
	H371	H	0.437155	0.528816	0.618945
	O372	O	0.494115	0.608026	0.431520
	H373	H	0.481623	0.610035	0.418517
	H374	H	0.496710	0.608024	0.450205
	O375	O	0.494994	0.474054	0.631176
	H376	H	0.492319	0.488336	0.638060
	H377	H	0.494211	0.478246	0.625422
	O378	O	0.614815	0.424693	0.452644
	H379	H	0.605733	0.439256	0.454422
	H380	H	0.620096	0.428698	0.458185
	O381	O	0.363736	0.588619	0.300404
	H382	H	0.340547	0.598602	0.298157
	H383	H	0.359421	0.606110	0.289886
	O384	O	0.035340	1.011227	0.030666
	H385	H	0.045197	1.015792	0.018568
	H386	H	0.023356	1.007777	0.021275
	O387	O	0.439766	0.359033	1.682436
	H388	H	0.446006	0.338756	1.661882
	H389	H	0.453151	0.359016	1.679196
	O390	O	0.442011	0.509546	-0.565959
	H391	H	0.433600	0.513268	-0.570903
	H392	H	0.430424	0.499729	-0.572055
	O393	O	0.412005	1.452900	-0.534054
	H394	H	0.397624	1.469872	-0.533438
	H395	H	0.416416	1.452875	-0.548823
	O396	O	0.530772	0.414332	0.566486
	H397	H	0.534262	0.406977	0.580397
	H398	H	0.521575	0.407815	0.550311
	O399	O	0.409645	0.410478	0.675146
	H400	H	0.408602	0.404737	0.664129
	H401	H	0.407234	0.383654	0.684661
	O402	O	1.090248	0.995638	1.058508
	H403	H	1.102404	0.995515	1.060913
	H404	H	1.089652	0.992593	1.062295
	O405	O	0.350497	0.421655	0.528825
	H406	H	0.331723	0.419318	0.522019
	H407	H	0.353404	0.422755	0.525120
