data_Molecule from HDF5

_cell_length_a		16.464954
_cell_length_b		16.284173
_cell_length_c		16.237373
_cell_angle_alpha	89.838963
_cell_angle_beta	90.177306
_cell_angle_gamma	89.835713
_symmetry_space_group_name_H-M	'P 1'
_symmetry_Int_Tables_number		1

loop_
	_symmetry_equiv_pos_as_xyz
	x,y,z

loop_
	_atom_site_label
	_atom_site_type_symbol
	_atom_site_fract_x
	_atom_site_fract_y
	_atom_site_fract_z
	H0	H	0.396502	0.831061	0.723497
	H1	H	0.597621	0.155402	0.720445
	H2	H	0.596410	0.830307	0.290818
	H3	H	0.399428	0.156720	0.291422
	H4	H	0.714343	0.389402	0.843841
	H5	H	0.714333	0.598582	0.166224
	H6	H	0.275475	0.597373	0.843923
	H7	H	0.277452	0.389957	0.167920
	H8	H	0.836893	0.713690	0.400224
	H9	H	0.156535	0.709456	0.608668
	H10	H	0.836113	0.272349	0.607667
	H11	H	0.155778	0.273482	0.402353
	H12	H	0.835740	0.388779	0.724169
	H13	H	0.154765	0.594216	0.725833
	H14	H	0.834322	0.592816	0.288617
	H15	H	0.155311	0.389707	0.287430
	H16	H	0.389668	0.714357	0.845663
	H17	H	0.593308	0.708100	0.169925
	H18	H	0.596764	0.276093	0.842858
	H19	H	0.397913	0.277539	0.168842
	H20	H	0.714041	0.830768	0.402847
	H21	H	0.715793	0.153080	0.607807
	H22	H	0.278825	0.831255	0.609069
	H23	H	0.276236	0.153142	0.398948
	H24	H	0.894269	0.329517	0.221055
	H25	H	0.093751	0.654586	0.221511
	H26	H	0.096046	0.330813	0.789855
	H27	H	0.888898	0.653268	0.782609
	H28	H	0.216616	0.888016	0.343443
	H29	H	0.217882	0.097526	0.664918
	H30	H	0.777114	0.094938	0.343394
	H31	H	0.776635	0.883704	0.665918
	H32	H	0.336513	0.212237	0.902147
	H33	H	0.656900	0.211583	0.107792
	H34	H	0.335283	0.775913	0.111538
	H35	H	0.654383	0.771801	0.905421
	H36	H	0.335805	0.895330	0.223820
	H37	H	0.658280	0.094533	0.223023
	H38	H	0.338177	0.099433	0.783016
	H39	H	0.656779	0.888591	0.788303
	H40	H	0.893078	0.209756	0.342847
	H41	H	0.098026	0.208007	0.667269
	H42	H	0.098034	0.775298	0.341957
	H43	H	0.896916	0.773844	0.667490
	H44	H	0.216386	0.334173	0.900226
	H45	H	0.212903	0.654008	0.110272
	H46	H	0.773818	0.332527	0.110026
	H47	H	0.771472	0.653432	0.897600
	H48	H	0.408964	0.105941	0.592821
	H49	H	0.604598	0.872507	0.593434
	H50	H	0.589272	0.110156	0.410376
	H51	H	0.407327	0.879973	0.423303
	H52	H	0.587009	0.403615	0.119890
	H53	H	0.589613	0.581022	0.889985
	H54	H	0.404638	0.585791	0.121105
	H55	H	0.397609	0.395908	0.886419
	H56	H	0.108234	0.583384	0.421072
	H57	H	0.881178	0.584566	0.596325
	H58	H	0.109162	0.400731	0.596350
	H59	H	0.881789	0.400711	0.415886
	H60	H	0.109772	0.400416	0.598019
	H61	H	0.883637	0.584736	0.589549
	H62	H	0.109035	0.576579	0.409274
	H63	H	0.880897	0.400774	0.411959
	H64	H	0.399103	0.585010	0.123791
	H65	H	0.577985	0.576933	0.895204
	H66	H	0.584886	0.405175	0.119590
	H67	H	0.398637	0.412426	0.891058
	H68	H	0.585492	0.106240	0.417216
	H69	H	0.583236	0.873603	0.612186
	H70	H	0.404591	0.107079	0.590979
	H71	H	0.399778	0.874623	0.413299
	H72	H	0.907626	0.608261	0.098818
	H73	H	0.084056	0.377523	0.098190
	H74	H	0.084127	0.606584	0.921079
	H75	H	0.907488	0.379741	0.915625
	H76	H	0.084013	0.905367	0.617171
	H77	H	0.086879	0.083040	0.389230
	H78	H	0.906563	0.087841	0.622712
	H79	H	0.910684	0.894609	0.389293
	H80	H	0.613899	0.082903	0.903514
	H81	H	0.380441	0.094720	0.097164
	H82	H	0.608799	0.897641	0.089844
	H83	H	0.382244	0.902032	0.917334
	H84	H	0.608553	0.908299	0.100943
	H85	H	0.386531	0.081269	0.091285
	H86	H	0.611124	0.094680	0.922121
	H87	H	0.384764	0.908801	0.917302
	H88	H	0.900016	0.076463	0.620959
	H89	H	0.087816	0.080576	0.389521
	H90	H	0.087115	0.895909	0.621711
	H91	H	0.895905	0.903570	0.387877
	H92	H	0.087691	0.609517	0.915077
	H93	H	0.086637	0.378115	0.091470
	H94	H	0.903857	0.605217	0.089250
	H95	H	0.904527	0.380497	0.921566
	H96	H	0.405602	0.108090	0.595361
	H97	H	0.578758	0.883221	0.584932
	H98	H	0.593930	0.109272	0.418022
	H99	H	0.412993	0.877556	0.410411
	H100	H	0.584697	0.402527	0.120252
	H101	H	0.578753	0.589582	0.889733
	H102	H	0.402841	0.579900	0.121552
	H103	H	0.412394	0.401901	0.892380
	H104	H	0.112765	0.589163	0.409704
	H105	H	0.883941	0.578840	0.593678
	H106	H	0.110345	0.398658	0.596992
	H107	H	0.880438	0.397728	0.413721
	H108	H	0.897240	0.609478	0.096538
	H109	H	0.091012	0.375791	0.096989
	H110	H	0.080482	0.607626	0.913720
	H111	H	0.901038	0.377859	0.916190
	H112	H	0.094197	0.904120	0.620516
	H113	H	0.084860	0.081131	0.390440
	H114	H	0.912055	0.076676	0.616366
	H115	H	0.910028	0.911748	0.393948
	H116	H	0.605671	0.072878	0.921499
	H117	H	0.381088	0.081137	0.105686
	H118	H	0.613919	0.894131	0.103750
	H119	H	0.381487	0.905792	0.912014
	C120	C	0.375875	0.000907	0.625474
	C121	C	0.619167	0.983291	0.627298
	C122	C	0.618745	0.001265	0.384701
	C123	C	0.376140	0.984399	0.384416
	C124	C	0.616553	0.372382	0.013521
	C125	C	0.613809	0.613859	0.998103
	C126	C	0.371581	0.615366	0.015023
	C127	C	0.373478	0.372274	0.997220
	C128	C	0.004190	0.614221	0.382722
	C129	C	0.987891	0.613538	0.626050
	C130	C	0.003850	0.369589	0.627457
	C131	C	0.986820	0.369351	0.383065
	C132	C	0.872733	0.501205	0.126278
	C133	C	0.116428	0.484012	0.126764
	C134	C	0.115319	0.501722	0.885349
	C135	C	0.872043	0.485152	0.883996
	C136	C	0.118752	0.870624	0.513106
	C137	C	0.117809	0.113154	0.496150
	C138	C	0.875002	0.112200	0.513455
	C139	C	0.875414	0.870510	0.496799
	C140	C	0.505098	0.115403	0.883306
	C141	C	0.488629	0.115842	0.128247
	C142	C	0.504454	0.871231	0.128793
	C143	C	0.487839	0.872294	0.885232
	C144	C	0.376766	0.879214	0.684358
	C145	C	0.618091	0.105957	0.683159
	C146	C	0.616924	0.879146	0.328270
	C147	C	0.378363	0.107330	0.328519
	C148	C	0.674755	0.371083	0.891948
	C149	C	0.673581	0.615640	0.118849
	C150	C	0.314109	0.616451	0.892876
	C151	C	0.316825	0.371480	0.119391
	C152	C	0.884246	0.673270	0.382017
	C153	C	0.108262	0.670864	0.627363
	C154	C	0.883792	0.311464	0.627176
	C155	C	0.107461	0.311848	0.383164
	C156	C	0.883637	0.369541	0.685245
	C157	C	0.107374	0.613596	0.686010
	C158	C	0.882851	0.613103	0.326368
	C159	C	0.107556	0.370153	0.326151
	C160	C	0.371031	0.674521	0.893705
	C161	C	0.613470	0.670294	0.120628
	C162	C	0.616529	0.314421	0.891537
	C163	C	0.376365	0.315241	0.119894
	C164	C	0.675506	0.879302	0.384122
	C165	C	0.676857	0.104964	0.627015
	C166	C	0.317981	0.879583	0.627598
	C167	C	0.316953	0.105419	0.382093
	C168	C	0.873581	0.378858	0.183580
	C169	C	0.114406	0.605945	0.183812
	C170	C	0.115850	0.379822	0.827902
	C171	C	0.870032	0.605259	0.822771
	C172	C	0.177101	0.869355	0.391681
	C173	C	0.177495	0.115158	0.617176
	C174	C	0.816423	0.113530	0.391853
	C175	C	0.816695	0.866973	0.617996
	C176	C	0.384945	0.173617	0.882622
	C177	C	0.609090	0.172899	0.127479
	C178	C	0.383511	0.814941	0.129716
	C179	C	0.607185	0.811811	0.885505
	C180	C	0.383691	0.874145	0.185913
	C181	C	0.609738	0.114361	0.184650
	C182	C	0.385492	0.117031	0.823625
	C183	C	0.608282	0.870062	0.827482
	C184	C	0.874356	0.170568	0.391618
	C185	C	0.117856	0.170409	0.618151
	C186	C	0.118205	0.813121	0.390993
	C187	C	0.876624	0.812022	0.618746
	C188	C	0.175487	0.381280	0.883025
	C189	C	0.173803	0.605624	0.128464
	C190	C	0.813832	0.380245	0.127825
	C191	C	0.812028	0.605630	0.880268
	C192	C	0.399521	0.085140	0.600582
	C193	C	0.595755	0.898553	0.603841
	C194	C	0.596136	0.086469	0.408423
	C195	C	0.399681	0.899396	0.408800
	C196	C	0.592471	0.396619	0.097958
	C197	C	0.589116	0.589612	0.913480
	C198	C	0.395284	0.590696	0.100243
	C199	C	0.396277	0.396406	0.912080
	C200	C	0.088273	0.590122	0.406388
	C201	C	0.904595	0.589537	0.600589
	C202	C	0.087836	0.393202	0.603938
	C203	C	0.902845	0.393024	0.406743
	C204	C	0.896252	0.585751	0.101821
	C205	C	0.093892	0.399163	0.102583
	C206	C	0.090885	0.585987	0.909443
	C207	C	0.897133	0.401234	0.910149
	C208	C	0.095245	0.894804	0.597903
	C209	C	0.093708	0.088585	0.411570
	C210	C	0.899231	0.087496	0.598211
	C211	C	0.898847	0.896031	0.412336
	C212	C	0.588622	0.090601	0.908460
	C213	C	0.404445	0.092625	0.104801
	C214	C	0.588665	0.893486	0.104992
	C215	C	0.404577	0.897980	0.908755
	Zn216	Zn	0.497228	-0.006677	0.754738
	Zn217	Zn	0.498038	-0.006663	0.256865
	Zn218	Zn	0.743649	0.494109	0.005201
	Zn219	Zn	0.244758	0.493576	0.005804
	Zn220	Zn	-0.003144	0.743075	0.504712
	Zn221	Zn	-0.003992	0.240804	0.505045
	Zn222	Zn	-0.004941	0.492361	0.756385
	Zn223	Zn	-0.005132	0.491462	0.254506
	Zn224	Zn	0.493757	0.742468	0.007318
	Zn225	Zn	0.496123	0.243935	0.005466
	Zn226	Zn	0.746520	-0.008740	0.505631
	Zn227	Zn	0.246752	-0.007655	0.504309
	N228	N	0.411789	0.955890	0.683501
	N229	N	0.583061	0.029513	0.683573
	N230	N	0.582531	0.956154	0.328386
	N231	N	0.414378	0.031051	0.329784
	N232	N	0.674949	0.406114	0.968761
	N233	N	0.673867	0.581275	0.041596
	N234	N	0.314234	0.580691	0.969611
	N235	N	0.314929	0.406006	0.042049
	N236	N	0.960726	0.674107	0.416052
	N237	N	0.032876	0.670794	0.590920
	N238	N	0.959640	0.311280	0.592303
	N239	N	0.031420	0.311494	0.417917
	N240	N	0.959288	0.404944	0.685567
	N241	N	0.031388	0.578815	0.685505
	N242	N	0.958478	0.576957	0.326657
	N243	N	0.031392	0.404994	0.325661
	N244	N	0.405925	0.673998	0.970702
	N245	N	0.576754	0.668949	0.044530
	N246	N	0.580906	0.315137	0.968032
	N247	N	0.410687	0.315533	0.042844
	N248	N	0.676599	0.956264	0.418716
	N249	N	0.677921	0.027574	0.593329
	N250	N	0.317245	0.956106	0.591865
	N251	N	0.315732	0.028035	0.416261
	N252	N	0.909326	0.455061	0.183037
	N253	N	0.079558	0.529287	0.183229
	N254	N	0.079065	0.455751	0.829173
	N255	N	0.906763	0.529472	0.825064
	N256	N	0.177683	0.904245	0.468650
	N257	N	0.177850	0.080394	0.540188
	N258	N	0.816796	0.077714	0.468666
	N259	N	0.815662	0.902715	0.541095
	N260	N	0.460400	0.172685	0.919154
	N261	N	0.532696	0.173921	0.093043
	N262	N	0.459536	0.813064	0.095056
	N263	N	0.531348	0.813123	0.920598
	N264	N	0.459865	0.908431	0.185429
	N265	N	0.533810	0.079512	0.185162
	N266	N	0.461428	0.081759	0.823868
	N267	N	0.533111	0.907174	0.827051
	N268	N	0.910216	0.169729	0.468193
	N269	N	0.081389	0.169178	0.541967
	N270	N	0.082808	0.813609	0.467588
	N271	N	0.912285	0.814185	0.542416
	N272	N	0.175343	0.458026	0.917974
	N273	N	0.175073	0.528801	0.093588
	N274	N	0.812996	0.457372	0.093071
	N275	N	0.813167	0.529706	0.917362
	O276	O	0.606439	0.389858	0.387900
	H277	H	0.599119	0.389319	0.400770
	H278	H	0.588056	0.375684	0.387276
	O279	O	0.554796	0.644305	0.563159
	H280	H	0.565337	0.654181	0.570277
	H281	H	0.558253	0.644890	0.552555
	O282	O	1.130764	-0.193450	0.889910
	H283	H	1.133260	-0.170135	0.876444
	H284	H	1.118776	-0.201543	0.871849
	O285	O	0.373422	0.591773	0.514315
	H286	H	0.388086	0.577249	0.508741
	H287	H	0.365167	0.606009	0.519028
	O288	O	0.885354	0.965712	1.037127
	H289	H	0.891061	0.960961	1.043561
	H290	H	0.875975	0.955772	1.046415
	O291	O	-0.102797	1.118331	-0.121345
	H292	H	-0.101233	1.112087	-0.093826
	H293	H	-0.113016	1.138575	-0.122739
	O294	O	0.485826	0.475161	0.456748
	H295	H	0.487740	0.476231	0.471034
	H296	H	0.477315	0.476688	0.449062
	O297	O	0.458314	0.400658	0.683297
	H298	H	0.470414	0.397186	0.690341
	H299	H	0.455726	0.419845	0.684260
	O300	O	0.603160	0.528972	0.554681
	H301	H	0.612044	0.524748	0.536178
	H302	H	0.607592	0.522627	0.558387
	O303	O	0.345337	0.576562	0.402813
	H304	H	0.343944	0.588472	0.397620
	H305	H	0.351921	0.582138	0.410795
	O306	O	0.338855	0.428004	0.400009
	H307	H	0.334205	0.430978	0.405484
	H308	H	0.345529	0.426213	0.402514
	O309	O	0.517677	0.467791	0.628551
	H310	H	0.512418	0.468898	0.619496
	H311	H	0.535631	0.462060	0.618862
	O312	O	0.173496	0.096592	0.132297
	H313	H	0.174043	0.087451	0.126878
	H314	H	0.178633	0.100895	0.125005
	O315	O	0.390212	0.579689	0.349479
	H316	H	0.365720	0.592074	0.324636
	H317	H	0.396082	0.588343	0.360559
	O318	O	-0.039612	0.983962	0.828563
	H319	H	-0.050664	0.979467	0.827839
	H320	H	-0.044538	0.973946	0.828731
	O321	O	0.427168	0.494336	0.423797
	H322	H	0.420586	0.494417	0.431729
	H323	H	0.429124	0.508425	0.420188
	O324	O	-0.190815	0.981924	-0.137642
	H325	H	-0.190400	0.986072	-0.146413
	H326	H	-0.180851	0.979564	-0.129984
	O327	O	0.977494	1.022520	0.195368
	H328	H	0.990404	1.018144	0.205298
	H329	H	1.001795	1.032961	0.197838
	O330	O	0.143571	-0.131198	1.031962
	H331	H	0.139464	-0.149085	1.012150
	H332	H	0.157106	-0.132745	1.016012
	O333	O	0.099810	0.087309	1.050646
	H334	H	0.104527	0.082287	1.047114
	H335	H	0.094538	0.086291	1.039995
	O336	O	0.642764	0.339627	0.503905
	H337	H	0.641430	0.331392	0.503243
	H338	H	0.634903	0.339610	0.495559
	O339	O	1.065080	0.082248	-0.089034
	H340	H	1.040818	0.070854	-0.098578
	H341	H	1.048568	0.085646	-0.099781
	O342	O	0.037819	0.128276	-0.066382
	H343	H	0.044297	0.130095	-0.037027
	H344	H	0.037393	0.148601	-0.054664
	O345	O	0.978927	0.015285	1.094070
	H346	H	0.994001	0.015029	1.076954
	H347	H	0.971158	0.020252	1.111304
	O348	O	1.080847	0.958045	0.162015
	H349	H	1.076397	0.954770	0.162360
	H350	H	1.084165	0.966223	0.168877
	O351	O	0.557831	0.585652	0.594025
	H352	H	0.558765	0.575433	0.593827
	H353	H	0.569050	0.589616	0.591552
	O354	O	0.935351	-0.055264	1.180734
	H355	H	0.948057	-0.046055	1.186424
	H356	H	0.942817	-0.055721	1.173112
	O357	O	0.323195	0.331085	0.500895
	H358	H	0.307297	0.319127	0.498480
	H359	H	0.323699	0.340695	0.507587
	O360	O	0.360295	0.325336	0.621260
	H361	H	0.363773	0.341028	0.619133
	H362	H	0.363602	0.330138	0.619805
	O363	O	-0.067212	1.086389	1.041313
	H364	H	-0.085955	1.084447	1.029907
	H365	H	-0.067684	1.092898	1.046765
	O366	O	0.645548	0.547965	0.574603
	H367	H	0.639388	0.552797	0.574625
	H368	H	0.659073	0.549795	0.563450
	O369	O	0.096276	0.992326	0.096118
	H370	H	0.116313	0.996732	0.090753
	H371	H	0.091576	0.979600	0.085257
	O372	O	0.617827	0.593353	0.619360
	H373	H	0.631752	0.602465	0.617780
	H374	H	0.613760	0.586679	0.602588
	O375	O	0.560779	0.555056	0.404648
	H376	H	0.557888	0.544293	0.400003
	H377	H	0.562850	0.536025	0.402444
	O378	O	0.949700	0.876892	0.005793
	H379	H	0.962286	0.889404	0.010346
	H380	H	0.949921	0.886576	0.015856
	O381	O	0.952178	-0.010834	-0.081932
	H382	H	0.942907	-0.006985	-0.090907
	H383	H	0.959252	-0.025322	-0.088701
	O384	O	0.856745	1.073275	-0.067872
	H385	H	0.862296	1.087747	-0.061676
	H386	H	0.852997	1.065119	-0.071776
	O387	O	-0.100841	0.030807	-0.006458
	H388	H	-0.102914	0.041819	0.002584
	H389	H	-0.110225	0.036748	-0.013179
	O390	O	0.166895	0.991279	-0.145380
	H391	H	0.168480	1.003374	-0.129441
	H392	H	0.178703	0.990686	-0.162347
	O393	O	1.533961	0.419253	0.430602
	H394	H	1.517881	0.414529	0.443862
	H395	H	1.537575	0.427599	0.434755
	O396	O	0.367930	0.559068	0.652134
	H397	H	0.367788	0.564858	0.643714
	H398	H	0.379060	0.572227	0.663786
	O399	O	-0.027201	1.049424	0.946645
	H400	H	-0.024681	1.048699	0.948290
	H401	H	-0.020827	1.038064	0.944028
	O402	O	0.647239	0.504474	0.566020
	H403	H	0.654435	0.499487	0.563193
	H404	H	0.662619	0.502117	0.557148
	O405	O	0.855603	0.845797	0.065641
	H406	H	0.869152	0.837128	0.062144
	H407	H	0.857600	0.858599	0.065595
	O408	O	1.071687	0.856550	-0.154696
	H409	H	1.077123	0.860099	-0.167493
	H410	H	1.057454	0.854775	-0.154492
	O411	O	1.050137	0.030441	1.066791
	H412	H	1.046851	0.014492	1.077771
	H413	H	1.042976	0.031855	1.070388
	O414	O	-0.004080	-0.022820	1.056625
	H415	H	-0.002764	-0.022826	1.057851
	H416	H	-0.005682	-0.016540	1.055437
	O417	O	0.468766	0.462084	0.456505
	H418	H	0.469113	0.464426	0.479318
	H419	H	0.452218	0.434763	0.456994
