data_Molecule from HDF5

_cell_length_a		16.450270
_cell_length_b		16.284662
_cell_length_c		16.309119
_cell_angle_alpha	89.618616
_cell_angle_beta	90.025517
_cell_angle_gamma	89.726181
_symmetry_space_group_name_H-M	'P 1'
_symmetry_Int_Tables_number		1

loop_
	_symmetry_equiv_pos_as_xyz
	x,y,z

loop_
	_atom_site_label
	_atom_site_type_symbol
	_atom_site_fract_x
	_atom_site_fract_y
	_atom_site_fract_z
	H0	H	0.394238	0.840276	0.718409
	H1	H	0.603467	0.160494	0.722004
	H2	H	0.595332	0.838120	0.286891
	H3	H	0.389491	0.161189	0.275390
	H4	H	0.724163	0.392015	0.841614
	H5	H	0.716209	0.601759	0.160590
	H6	H	0.274593	0.612247	0.840376
	H7	H	0.277573	0.395247	0.158984
	H8	H	0.836327	0.722953	0.394875
	H9	H	0.156560	0.722589	0.600177
	H10	H	0.837943	0.282028	0.605225
	H11	H	0.153706	0.279185	0.391227
	H12	H	0.839517	0.396300	0.723428
	H13	H	0.155689	0.609775	0.720321
	H14	H	0.837936	0.609406	0.276545
	H15	H	0.156997	0.401292	0.281073
	H16	H	0.396924	0.721334	0.838347
	H17	H	0.597184	0.714194	0.162980
	H18	H	0.606199	0.279522	0.839565
	H19	H	0.395666	0.282131	0.159551
	H20	H	0.716502	0.842251	0.395339
	H21	H	0.716791	0.162471	0.605931
	H22	H	0.276757	0.840974	0.604084
	H23	H	0.272886	0.160791	0.389806
	H24	H	0.895226	0.342560	0.220259
	H25	H	0.096780	0.665358	0.212862
	H26	H	0.108143	0.344478	0.775555
	H27	H	0.892894	0.662122	0.777984
	H28	H	0.217102	0.895579	0.339535
	H29	H	0.218175	0.107768	0.656987
	H30	H	0.771796	0.112441	0.339517
	H31	H	0.776973	0.898830	0.659319
	H32	H	0.339713	0.226586	0.891434
	H33	H	0.656232	0.219879	0.103735
	H34	H	0.336348	0.782934	0.101306
	H35	H	0.657287	0.782946	0.898633
	H36	H	0.336410	0.897724	0.217905
	H37	H	0.655590	0.102073	0.218484
	H38	H	0.338781	0.108832	0.776989
	H39	H	0.656462	0.897412	0.778992
	H40	H	0.889250	0.226556	0.338599
	H41	H	0.101903	0.222993	0.658153
	H42	H	0.093923	0.790036	0.335092
	H43	H	0.891958	0.781616	0.657911
	H44	H	0.223380	0.344352	0.890652
	H45	H	0.216838	0.662573	0.102725
	H46	H	0.778976	0.341427	0.107121
	H47	H	0.776652	0.661489	0.893289
	H48	H	0.405330	0.115648	0.585804
	H49	H	0.583484	0.890706	0.584730
	H50	H	0.582157	0.117867	0.402312
	H51	H	0.419292	0.890152	0.406796
	H52	H	0.582476	0.416347	0.109459
	H53	H	0.584283	0.595717	0.884998
	H54	H	0.405047	0.592829	0.115030
	H55	H	0.408542	0.421649	0.886312
	H56	H	0.107879	0.588409	0.406116
	H57	H	0.886188	0.589381	0.584965
	H58	H	0.110916	0.411780	0.589229
	H59	H	0.883837	0.417847	0.407239
	H60	H	0.108512	0.411848	0.582799
	H61	H	0.882795	0.591376	0.591466
	H62	H	0.115405	0.599175	0.397284
	H63	H	0.882696	0.414826	0.409383
	H64	H	0.404292	0.587553	0.114343
	H65	H	0.593797	0.593479	0.883045
	H66	H	0.586211	0.403292	0.115535
	H67	H	0.415203	0.414615	0.886986
	H68	H	0.579892	0.114800	0.412036
	H69	H	0.590348	0.886956	0.585972
	H70	H	0.407424	0.115230	0.586610
	H71	H	0.399615	0.889533	0.423919
	H72	H	0.902029	0.617522	0.084444
	H73	H	0.088737	0.386935	0.089484
	H74	H	0.090763	0.618554	0.909625
	H75	H	0.903330	0.387081	0.918447
	H76	H	0.090576	0.911512	0.615315
	H77	H	0.085799	0.089396	0.384182
	H78	H	0.903215	0.097037	0.615439
	H79	H	0.901262	0.916479	0.383445
	H80	H	0.610925	0.084643	0.904273
	H81	H	0.385462	0.090330	0.081722
	H82	H	0.613057	0.908667	0.099924
	H83	H	0.386644	0.916068	0.915868
	H84	H	0.614095	0.899929	0.093660
	H85	H	0.384162	0.086130	0.088611
	H86	H	0.612411	0.095005	0.910147
	H87	H	0.382348	0.916801	0.902888
	H88	H	0.901946	0.086158	0.611587
	H89	H	0.081944	0.090223	0.385902
	H90	H	0.084512	0.917922	0.611031
	H91	H	0.905954	0.916243	0.384387
	H92	H	0.080270	0.615857	0.907458
	H93	H	0.088957	0.386942	0.090254
	H94	H	0.904777	0.618628	0.091171
	H95	H	0.912797	0.385579	0.903775
	H96	H	0.407074	0.115006	0.584865
	H97	H	0.584581	0.887251	0.591236
	H98	H	0.589016	0.117865	0.409866
	H99	H	0.396367	0.879871	0.399392
	H100	H	0.596011	0.413998	0.113968
	H101	H	0.587796	0.585893	0.886151
	H102	H	0.408734	0.589787	0.112625
	H103	H	0.406078	0.412525	0.882858
	H104	H	0.111052	0.602503	0.412001
	H105	H	0.883571	0.596101	0.585766
	H106	H	0.107577	0.417147	0.586584
	H107	H	0.883962	0.417429	0.411113
	H108	H	0.909311	0.616233	0.086778
	H109	H	0.088265	0.387358	0.089949
	H110	H	0.085493	0.613314	0.917250
	H111	H	0.920109	0.392745	0.918246
	H112	H	0.081394	0.908867	0.613153
	H113	H	0.084188	0.093128	0.383948
	H114	H	0.911647	0.091853	0.610131
	H115	H	0.903999	0.912750	0.382046
	H116	H	0.606611	0.086198	0.915727
	H117	H	0.382162	0.094461	0.088124
	H118	H	0.610104	0.909427	0.089387
	H119	H	0.381615	0.904676	0.909997
	C120	C	0.375020	0.009640	0.618975
	C121	C	0.617728	0.993901	0.619731
	C122	C	0.615953	0.010459	0.378217
	C123	C	0.372871	0.992170	0.376335
	C124	C	0.621066	0.378700	0.007871
	C125	C	0.618876	0.621628	0.991598
	C126	C	0.375315	0.623400	0.008099
	C127	C	0.377472	0.382200	0.990722
	C128	C	0.005385	0.627366	0.374324
	C129	C	0.989207	0.624268	0.618697
	C130	C	0.005184	0.380891	0.620476
	C131	C	0.988132	0.383164	0.377106
	C132	C	0.875691	0.511087	0.120766
	C133	C	0.118732	0.493890	0.120021
	C134	C	0.119867	0.511310	0.877373
	C135	C	0.877990	0.493573	0.879154
	C136	C	0.116186	0.882021	0.506778
	C137	C	0.117142	0.123459	0.489844
	C138	C	0.873125	0.125437	0.506919
	C139	C	0.873047	0.881992	0.489128
	C140	C	0.505962	0.123699	0.876381
	C141	C	0.488647	0.121354	0.119247
	C142	C	0.505625	0.877046	0.123286
	C143	C	0.489026	0.880881	0.878632
	C144	C	0.374771	0.888944	0.679275
	C145	C	0.620318	0.113362	0.680925
	C146	C	0.615814	0.887574	0.323501
	C147	C	0.370991	0.112829	0.315263
	C148	C	0.682792	0.375081	0.888834
	C149	C	0.677080	0.621177	0.112583
	C150	C	0.315759	0.628170	0.887772
	C151	C	0.317824	0.378444	0.110958
	C152	C	0.884755	0.684980	0.374631
	C153	C	0.108562	0.683823	0.619630
	C154	C	0.885505	0.321844	0.623379
	C155	C	0.106715	0.320785	0.374028
	C156	C	0.886659	0.378448	0.682679
	C157	C	0.108337	0.627209	0.679251
	C158	C	0.885443	0.628034	0.315975
	C159	C	0.108527	0.381677	0.319076
	C160	C	0.376130	0.682929	0.886873
	C161	C	0.617507	0.676964	0.113766
	C162	C	0.623806	0.318897	0.887769
	C163	C	0.376659	0.321809	0.111488
	C164	C	0.676116	0.889756	0.377604
	C165	C	0.677081	0.114106	0.623162
	C166	C	0.316256	0.889125	0.622283
	C167	C	0.312777	0.112770	0.372243
	C168	C	0.876311	0.390404	0.180654
	C169	C	0.117522	0.615980	0.175969
	C170	C	0.124738	0.392056	0.815908
	C171	C	0.874503	0.613965	0.818026
	C172	C	0.175916	0.879486	0.386535
	C173	C	0.177683	0.125673	0.609437
	C174	C	0.811932	0.130040	0.387411
	C175	C	0.815461	0.879741	0.610499
	C176	C	0.387246	0.185703	0.873498
	C177	C	0.608397	0.180191	0.122044
	C178	C	0.384497	0.820923	0.121454
	C179	C	0.609432	0.822284	0.878951
	C180	C	0.384636	0.878304	0.179476
	C181	C	0.608124	0.121455	0.179203
	C182	C	0.386624	0.127219	0.816097
	C183	C	0.609006	0.879311	0.819457
	C184	C	0.870841	0.186539	0.386782
	C185	C	0.119417	0.182766	0.609985
	C186	C	0.114782	0.826445	0.384366
	C187	C	0.872887	0.821554	0.609992
	C188	C	0.182208	0.391968	0.873550
	C189	C	0.177093	0.614774	0.121056
	C190	C	0.818280	0.389866	0.124290
	C191	C	0.816743	0.613533	0.875451
	C192	C	0.399442	0.093620	0.593090
	C193	C	0.593263	0.910150	0.594371
	C194	C	0.590953	0.094852	0.401325
	C195	C	0.397679	0.908466	0.402464
	C196	C	0.595452	0.403770	0.091358
	C197	C	0.595328	0.598368	0.906864
	C198	C	0.399090	0.597333	0.092140
	C199	C	0.402374	0.408715	0.907186
	C200	C	0.089518	0.603543	0.398423
	C201	C	0.905978	0.599280	0.594433
	C202	C	0.087387	0.406194	0.594012
	C203	C	0.905066	0.409121	0.402082
	C204	C	0.898529	0.595592	0.094956
	C205	C	0.095530	0.409247	0.096637
	C206	C	0.093011	0.594138	0.903744
	C207	C	0.904415	0.410076	0.905722
	C208	C	0.092358	0.905935	0.591161
	C209	C	0.091458	0.098148	0.406232
	C210	C	0.898401	0.099235	0.590598
	C211	C	0.896843	0.907860	0.405119
	C212	C	0.588524	0.096828	0.902459
	C213	C	0.405688	0.097343	0.093557
	C214	C	0.590180	0.899464	0.100944
	C215	C	0.405396	0.905422	0.902546
	Zn216	Zn	0.496775	0.001182	0.747840
	Zn217	Zn	0.496090	0.000471	0.249714
	Zn218	Zn	0.748362	0.500830	-0.000661
	Zn219	Zn	0.247361	0.502671	-0.000847
	Zn220	Zn	-0.003945	0.754524	0.497364
	Zn221	Zn	-0.004177	0.252905	0.498155
	Zn222	Zn	-0.001940	0.502952	0.749445
	Zn223	Zn	-0.002909	0.504145	0.247744
	Zn224	Zn	0.497690	0.750505	0.000112
	Zn225	Zn	0.497824	0.252139	-0.001041
	Zn226	Zn	0.744872	0.003733	0.498616
	Zn227	Zn	0.245316	0.001223	0.498636
	N228	N	0.410475	0.965043	0.677443
	N229	N	0.583845	0.037636	0.678873
	N230	N	0.579034	0.963586	0.323753
	N231	N	0.407352	0.036704	0.317328
	N232	N	0.681077	0.411672	0.964416
	N233	N	0.677976	0.587449	0.035443
	N234	N	0.315172	0.591991	0.964103
	N235	N	0.317776	0.414866	0.034661
	N236	N	0.960399	0.684657	0.410245
	N237	N	0.033361	0.682131	0.582698
	N238	N	0.959994	0.323045	0.585630
	N239	N	0.030795	0.321610	0.409342
	N240	N	0.962153	0.414487	0.681180
	N241	N	0.033146	0.590836	0.678844
	N242	N	0.961473	0.592928	0.315807
	N243	N	0.033758	0.419656	0.320824
	N244	N	0.412283	0.680264	0.962859
	N245	N	0.582094	0.677398	0.037346
	N246	N	0.585917	0.321082	0.962845
	N247	N	0.413243	0.324116	0.035763
	N248	N	0.676567	0.967254	0.410582
	N249	N	0.675357	0.038869	0.585780
	N250	N	0.316243	0.965363	0.585657
	N251	N	0.313767	0.036884	0.409486
	N252	N	0.911062	0.466935	0.178466
	N253	N	0.082062	0.539750	0.175463
	N254	N	0.086485	0.467261	0.818390
	N255	N	0.911859	0.538399	0.820212
	N256	N	0.176899	0.913329	0.463665
	N257	N	0.176312	0.089616	0.533631
	N258	N	0.813239	0.092791	0.463165
	N259	N	0.815521	0.916558	0.534421
	N260	N	0.462487	0.183703	0.910061
	N261	N	0.533278	0.180221	0.085468
	N262	N	0.461000	0.819575	0.087542
	N263	N	0.533992	0.823173	0.915116
	N264	N	0.460973	0.912135	0.180925
	N265	N	0.532584	0.085483	0.177730
	N266	N	0.461514	0.089300	0.817659
	N267	N	0.533218	0.914936	0.819298
	N268	N	0.908144	0.183858	0.462184
	N269	N	0.082446	0.181619	0.534460
	N270	N	0.078304	0.827884	0.460075
	N271	N	0.907972	0.822732	0.533407
	N272	N	0.179335	0.467130	0.911109
	N273	N	0.178251	0.537804	0.087060
	N274	N	0.817888	0.465969	0.087519
	N275	N	0.818759	0.537504	0.912656
	O276	O	0.532312	0.658678	0.588203
	H277	H	0.552859	0.661468	0.581159
	H278	H	0.535363	0.667425	0.596037
	O279	O	0.315443	0.321058	0.668099
	H280	H	0.361784	0.315166	0.682981
	H281	H	0.308921	0.366902	0.681564
	O282	O	0.672236	0.541683	0.585844
	H283	H	0.668191	0.533962	0.578382
	H284	H	0.670762	0.543871	0.594048
	O285	O	0.979706	0.212059	-0.160272
	H286	H	0.964765	0.223452	-0.176736
	H287	H	0.953232	0.217246	-0.169539
	O288	O	-0.180640	-0.022201	1.183688
	H289	H	-0.199613	-0.038389	1.197889
	H290	H	-0.174009	-0.058235	1.182221
	O291	O	0.674785	0.509361	0.390110
	H292	H	0.671277	0.499504	0.375498
	H293	H	0.674148	0.521753	0.391017
	O294	O	0.297539	0.591229	0.456982
	H295	H	0.283971	0.608954	0.467375
	H296	H	0.299534	0.582571	0.467001
	O297	O	0.964631	0.959847	1.162880
	H298	H	0.966565	0.942854	1.166243
	H299	H	0.968614	0.956075	1.147471
	O300	O	-0.109662	-0.179061	-0.124916
	H301	H	-0.081813	-0.182543	-0.122914
	H302	H	-0.103621	-0.195005	-0.134178
	O303	O	0.295734	0.362575	0.524172
	H304	H	0.293644	0.368649	0.551824
	H305	H	0.273583	0.333716	0.541545
	O306	O	1.167345	0.163222	0.029526
	H307	H	1.139202	0.157730	0.014045
	H308	H	1.181599	0.189287	0.028894
	O309	O	0.336062	0.474291	0.333131
	H310	H	0.322566	0.480169	0.340005
	H311	H	0.336669	0.463967	0.338769
	O312	O	0.903074	1.065331	0.110449
	H313	H	0.898110	1.064043	0.096179
	H314	H	0.901723	1.056110	0.137501
	O315	O	0.597260	0.481539	0.682313
	H316	H	0.593465	0.468324	0.659029
	H317	H	0.601957	0.484585	0.679405
	O318	O	0.639227	0.660175	0.447493
	H319	H	0.647070	0.676211	0.464514
	H320	H	0.642726	0.653743	0.466637
	O321	O	0.824955	0.207819	0.944543
	H322	H	0.828484	0.221123	0.952685
	H323	H	0.793555	0.211444	0.954444
	O324	O	-0.175000	0.050462	0.908783
	H325	H	-0.171109	0.023150	0.918050
	H326	H	-0.179929	0.042670	0.917863
	O327	O	0.432822	0.585242	0.408241
	H328	H	0.437483	0.588366	0.397578
	H329	H	0.415289	0.582143	0.396245
	O330	O	0.445567	0.410242	0.457290
	H331	H	0.439101	0.398148	0.440553
	H332	H	0.433175	0.420275	0.442563
	O333	O	0.948007	0.887844	1.101202
	H334	H	0.951730	0.883811	1.122826
	H335	H	0.949255	0.886804	1.078614
	O336	O	0.637142	0.644059	0.478827
	H337	H	0.651789	0.633934	0.474066
	H338	H	0.650116	0.638557	0.486604
	O339	O	1.030051	0.126509	0.946912
	H340	H	1.013939	0.125726	0.940532
	H341	H	1.021798	0.121380	0.926930
	O342	O	0.170422	0.854801	0.826335
	H343	H	0.177471	0.888967	0.809610
	H344	H	0.168718	0.863165	0.831946
	O345	O	0.172058	1.158434	1.138956
	H346	H	0.151458	1.171387	1.155075
	H347	H	0.170968	1.174633	1.115216
	O348	O	0.288249	0.481193	0.701159
	H349	H	0.324240	0.511824	0.700891
	H350	H	0.257915	0.486290	0.727302
	O351	O	0.159473	-0.053052	-0.203949
	H352	H	0.160397	-0.038211	-0.212500
	H353	H	0.164885	-0.035464	-0.212424
	O354	O	0.874252	0.940169	-0.114196
	H355	H	0.883164	0.923101	-0.114417
	H356	H	0.867554	0.931528	-0.120083
	O357	O	0.026818	1.145602	-0.023089
	H358	H	0.024041	1.150372	-0.015170
	H359	H	0.038212	1.157834	-0.007993
	O360	O	0.674729	0.598212	0.579838
	H361	H	0.666175	0.586191	0.583003
	H362	H	0.651206	0.587228	0.584889
	O363	O	0.351220	0.446618	0.388406
	H364	H	0.348357	0.443691	0.392949
	H365	H	0.349199	0.440033	0.397894
	O366	O	0.437474	0.617784	0.560901
	H367	H	0.452879	0.623208	0.557583
	H368	H	0.436801	0.626668	0.532405
	O369	O	0.413070	0.590417	0.314617
	H370	H	0.396621	0.583932	0.324123
	H371	H	0.403048	0.599696	0.302968
	O372	O	0.563031	0.307808	0.548073
	H373	H	0.566582	0.313864	0.534591
	H374	H	0.544887	0.305653	0.534585
	O375	O	0.474580	0.627869	0.594703
	H376	H	0.473298	0.636308	0.580951
	H377	H	0.465552	0.603945	0.592036
	O378	O	0.421156	0.577344	0.683844
	H379	H	0.430206	0.583878	0.664596
	H380	H	0.445249	0.572869	0.676538
	O381	O	0.697497	0.411245	0.494707
	H382	H	0.678353	0.411958	0.518730
	H383	H	0.706211	0.384810	0.486794
	O384	O	0.086797	0.891684	0.907703
	H385	H	0.082911	0.898524	0.921564
	H386	H	0.087674	0.901256	0.900593
	O387	O	1.197263	0.985105	0.165905
	H388	H	1.199724	1.005825	0.161331
	H389	H	1.219380	1.003405	0.176946
	O390	O	0.563048	0.414994	0.294459
	H391	H	0.550793	0.404706	0.294344
	H392	H	0.567695	0.414209	0.284678
	O393	O	0.976220	0.154439	1.189422
	H394	H	0.971191	0.127255	1.200735
	H395	H	0.973947	0.160738	1.216990
	O396	O	-0.106833	0.904302	0.964220
	H397	H	-0.097754	0.911889	0.968968
	H398	H	-0.098927	0.897194	0.955226
	O399	O	0.451806	0.353650	0.417301
	H400	H	0.429092	0.356245	0.415893
	H401	H	0.462229	0.343122	0.419632
	O402	O	1.128434	-0.006459	1.014836
	H403	H	1.137695	0.001517	1.023479
	H404	H	1.126126	-0.013815	1.018701
	O405	O	0.016895	-0.145772	0.004237
	H406	H	0.028027	-0.135112	-0.028516
	H407	H	0.021725	-0.153330	0.006637
	O408	O	0.910679	1.140230	0.863960
	H409	H	0.901006	1.144361	0.902854
	H410	H	0.901314	1.102675	0.853083
	O411	O	1.023136	0.935150	0.055302
	H412	H	1.031256	0.945033	0.063119
	H413	H	1.029711	0.946239	0.056538
	O414	O	-0.176670	-0.117844	1.047260
	H415	H	-0.149569	-0.130400	1.058926
	H416	H	-0.182182	-0.142199	1.027309
	O417	O	0.473857	0.291848	0.708284
	H418	H	0.493939	0.287028	0.700582
	H419	H	0.485642	0.276042	0.729054
	O420	O	0.098528	0.953705	-0.155019
	H421	H	0.100632	0.966100	-0.129303
	H422	H	0.090481	0.962287	-0.172926
	O423	O	1.672105	-0.626810	-0.540750
	H424	H	1.680548	-0.620972	-0.557557
	H425	H	1.671017	-0.638156	-0.537137
	O426	O	0.085551	-0.061402	1.078814
	H427	H	0.094953	-0.062943	1.050897
	H428	H	0.084460	-0.042252	1.066644
	O429	O	0.491727	0.573018	0.306570
	H430	H	0.479700	0.572475	0.314204
	H431	H	0.493814	0.585694	0.295758
