data_Molecule from HDF5

_cell_length_a		16.401600
_cell_length_b		16.344946
_cell_length_c		16.331321
_cell_angle_alpha	89.691544
_cell_angle_beta	90.122158
_cell_angle_gamma	89.898964
_symmetry_space_group_name_H-M	'P 1'
_symmetry_Int_Tables_number		1

loop_
	_symmetry_equiv_pos_as_xyz
	x,y,z

loop_
	_atom_site_label
	_atom_site_type_symbol
	_atom_site_fract_x
	_atom_site_fract_y
	_atom_site_fract_z
	H0	H	0.395687	0.841128	0.716467
	H1	H	0.602822	0.161543	0.718731
	H2	H	0.596958	0.840608	0.284233
	H3	H	0.394176	0.163027	0.277742
	H4	H	0.719374	0.395118	0.838693
	H5	H	0.715290	0.601990	0.158785
	H6	H	0.278135	0.604000	0.837769
	H7	H	0.279065	0.395001	0.158285
	H8	H	0.838281	0.721304	0.395957
	H9	H	0.157818	0.720767	0.602286
	H10	H	0.837256	0.281594	0.604841
	H11	H	0.157558	0.284186	0.398841
	H12	H	0.835397	0.400432	0.717772
	H13	H	0.156829	0.604728	0.718889
	H14	H	0.837174	0.604376	0.281055
	H15	H	0.157613	0.398257	0.282291
	H16	H	0.393606	0.720010	0.836895
	H17	H	0.598830	0.716417	0.159172
	H18	H	0.602504	0.281123	0.837329
	H19	H	0.395419	0.280136	0.157755
	H20	H	0.717667	0.843734	0.395215
	H21	H	0.716682	0.163024	0.601388
	H22	H	0.279060	0.841894	0.601658
	H23	H	0.276504	0.163139	0.392898
	H24	H	0.897192	0.339673	0.217304
	H25	H	0.098722	0.662636	0.214650
	H26	H	0.099367	0.341048	0.779904
	H27	H	0.893535	0.663612	0.780375
	H28	H	0.214363	0.900861	0.338688
	H29	H	0.218296	0.106360	0.659076
	H30	H	0.778510	0.108122	0.337672
	H31	H	0.777524	0.898412	0.658955
	H32	H	0.339406	0.223901	0.889502
	H33	H	0.656706	0.219922	0.101491
	H34	H	0.336067	0.784320	0.098292
	H35	H	0.657694	0.781123	0.895544
	H36	H	0.337048	0.899114	0.216573
	H37	H	0.657746	0.102503	0.216378
	H38	H	0.338717	0.105965	0.776156
	H39	H	0.658087	0.897077	0.778941
	H40	H	0.893600	0.224950	0.339318
	H41	H	0.101388	0.220830	0.661235
	H42	H	0.099733	0.785528	0.339367
	H43	H	0.894792	0.783110	0.659904
	H44	H	0.217146	0.341137	0.894798
	H45	H	0.215949	0.661539	0.099654
	H46	H	0.778085	0.340889	0.103446
	H47	H	0.775035	0.661346	0.892839
	H48	H	0.409267	0.118585	0.592998
	H49	H	0.587548	0.888323	0.587830
	H50	H	0.590040	0.117862	0.408039
	H51	H	0.409973	0.887473	0.403079
	H52	H	0.587345	0.408670	0.111944
	H53	H	0.589334	0.589498	0.882351
	H54	H	0.408244	0.595716	0.113595
	H55	H	0.406943	0.411362	0.883364
	H56	H	0.112336	0.592554	0.406866
	H57	H	0.883648	0.590797	0.589818
	H58	H	0.109554	0.416558	0.591124
	H59	H	0.883679	0.409751	0.414440
	H60	H	0.111274	0.409727	0.592015
	H61	H	0.882097	0.595067	0.589934
	H62	H	0.114253	0.595756	0.406153
	H63	H	0.885892	0.419632	0.410998
	H64	H	0.401848	0.591128	0.114374
	H65	H	0.584079	0.589148	0.884490
	H66	H	0.587515	0.412175	0.111369
	H67	H	0.406493	0.414085	0.882940
	H68	H	0.587419	0.119371	0.403903
	H69	H	0.587799	0.889054	0.585766
	H70	H	0.414783	0.112703	0.582397
	H71	H	0.406788	0.890752	0.415066
	H72	H	0.908143	0.614507	0.085050
	H73	H	0.085642	0.384722	0.100213
	H74	H	0.090374	0.613446	0.917433
	H75	H	0.907389	0.385151	0.902508
	H76	H	0.090568	0.910926	0.615999
	H77	H	0.087384	0.101369	0.382404
	H78	H	0.900764	0.094417	0.616290
	H79	H	0.908497	0.908278	0.384058
	H80	H	0.611581	0.088747	0.908035
	H81	H	0.382190	0.091029	0.088242
	H82	H	0.613190	0.905907	0.092250
	H83	H	0.382883	0.908561	0.906296
	H84	H	0.612288	0.907506	0.089443
	H85	H	0.384454	0.091343	0.084303
	H86	H	0.610940	0.091873	0.908830
	H87	H	0.384810	0.911720	0.909496
	H88	H	0.907037	0.086222	0.611001
	H89	H	0.092451	0.087839	0.385684
	H90	H	0.088570	0.914412	0.613951
	H91	H	0.903315	0.915267	0.383901
	H92	H	0.091541	0.618875	0.904161
	H93	H	0.082796	0.389258	0.084884
	H94	H	0.901636	0.616647	0.087630
	H95	H	0.914329	0.391431	0.912323
	H96	H	0.401643	0.116801	0.581748
	H97	H	0.589367	0.888046	0.586812
	H98	H	0.584982	0.117066	0.407383
	H99	H	0.398474	0.886137	0.406890
	H100	H	0.584476	0.410344	0.110536
	H101	H	0.586325	0.593939	0.882529
	H102	H	0.408419	0.588093	0.111722
	H103	H	0.408774	0.413135	0.884289
	H104	H	0.112881	0.595241	0.409381
	H105	H	0.884453	0.593762	0.586280
	H106	H	0.108067	0.412153	0.585899
	H107	H	0.881384	0.412413	0.404696
	H108	H	0.907949	0.616489	0.092762
	H109	H	0.097408	0.383384	0.089418
	H110	H	0.078980	0.613081	0.908109
	H111	H	0.901559	0.387455	0.914259
	H112	H	0.086377	0.910710	0.614290
	H113	H	0.078397	0.091643	0.389594
	H114	H	0.911289	0.096521	0.612317
	H115	H	0.911162	0.916075	0.386372
	H116	H	0.610742	0.088992	0.910058
	H117	H	0.385003	0.087883	0.086541
	H118	H	0.612168	0.909167	0.092548
	H119	H	0.383778	0.913304	0.905352
	C120	C	0.376872	0.010588	0.618414
	C121	C	0.619659	0.993889	0.618969
	C122	C	0.618413	0.011834	0.376879
	C123	C	0.374101	0.994120	0.376038
	C124	C	0.618978	0.378792	0.006003
	C125	C	0.617716	0.621364	0.989388
	C126	C	0.374748	0.622957	0.007047
	C127	C	0.376360	0.379783	0.989353
	C128	C	0.006808	0.624912	0.376894
	C129	C	0.988664	0.624286	0.620612
	C130	C	0.004689	0.380834	0.621506
	C131	C	0.988931	0.381704	0.379117
	C132	C	0.875591	0.509523	0.120143
	C133	C	0.119249	0.492146	0.121060
	C134	C	0.118043	0.509621	0.877585
	C135	C	0.875274	0.493746	0.877140
	C136	C	0.118887	0.881884	0.508471
	C137	C	0.118353	0.124349	0.491650
	C138	C	0.875272	0.124929	0.507195
	C139	C	0.876461	0.881579	0.490826
	C140	C	0.506390	0.122836	0.875673
	C141	C	0.489207	0.121456	0.118350
	C142	C	0.505997	0.878564	0.120331
	C143	C	0.489478	0.879638	0.876514
	C144	C	0.376628	0.889453	0.677234
	C145	C	0.621161	0.113719	0.678894
	C146	C	0.617616	0.889671	0.321365
	C147	C	0.374219	0.114760	0.316767
	C148	C	0.679273	0.376881	0.886192
	C149	C	0.676102	0.621048	0.110455
	C150	C	0.316785	0.623625	0.886022
	C151	C	0.318046	0.376901	0.109985
	C152	C	0.886264	0.682609	0.376815
	C153	C	0.109472	0.681817	0.621525
	C154	C	0.884714	0.321499	0.623157
	C155	C	0.109674	0.322961	0.379402
	C156	C	0.883807	0.380568	0.679179
	C157	C	0.109119	0.624097	0.679331
	C158	C	0.885685	0.624162	0.319637
	C159	C	0.109521	0.379976	0.321387
	C160	C	0.374552	0.681264	0.885700
	C161	C	0.618237	0.678307	0.110663
	C162	C	0.621116	0.319861	0.885568
	C163	C	0.375953	0.319748	0.109989
	C164	C	0.677426	0.891208	0.376709
	C165	C	0.678011	0.114633	0.620538
	C166	C	0.318274	0.889958	0.620127
	C167	C	0.315858	0.114993	0.374370
	C168	C	0.876647	0.388455	0.178748
	C169	C	0.118611	0.613986	0.176826
	C170	C	0.118566	0.389132	0.818799
	C171	C	0.874420	0.614852	0.818914
	C172	C	0.175757	0.881781	0.387080
	C173	C	0.178247	0.125079	0.611697
	C174	C	0.817311	0.126686	0.386264
	C175	C	0.817205	0.879800	0.611060
	C176	C	0.386926	0.183371	0.872243
	C177	C	0.609154	0.180162	0.119875
	C178	C	0.384420	0.822425	0.118930
	C179	C	0.609874	0.820614	0.876329
	C180	C	0.384979	0.879412	0.177721
	C181	C	0.609623	0.121892	0.177177
	C182	C	0.386686	0.124913	0.815419
	C183	C	0.610091	0.878396	0.818402
	C184	C	0.874627	0.184893	0.386950
	C185	C	0.119728	0.181920	0.612627
	C186	C	0.119076	0.824114	0.387509
	C187	C	0.875480	0.822322	0.611498
	C188	C	0.177292	0.389142	0.875867
	C189	C	0.176974	0.613341	0.119651
	C190	C	0.817867	0.388582	0.121598
	C191	C	0.815292	0.613774	0.874982
	C192	C	0.401530	0.094334	0.592965
	C193	C	0.595161	0.910119	0.594004
	C194	C	0.594429	0.096203	0.399627
	C195	C	0.398040	0.909949	0.401353
	C196	C	0.593752	0.403326	0.089557
	C197	C	0.593658	0.597742	0.904977
	C198	C	0.399147	0.598524	0.091552
	C199	C	0.400579	0.405381	0.905357
	C200	C	0.091206	0.601361	0.400445
	C201	C	0.905054	0.600247	0.595731
	C202	C	0.087843	0.405586	0.596876
	C203	C	0.905308	0.406614	0.403155
	C204	C	0.899025	0.593942	0.095420
	C205	C	0.095568	0.407856	0.098037
	C206	C	0.093869	0.593368	0.902424
	C207	C	0.900236	0.409726	0.902642
	C208	C	0.095374	0.905495	0.592953
	C209	C	0.093328	0.100476	0.407820
	C210	C	0.899530	0.099854	0.591457
	C211	C	0.900686	0.906145	0.406788
	C212	C	0.589341	0.097294	0.901519
	C213	C	0.405576	0.097038	0.093540
	C214	C	0.590596	0.900949	0.097848
	C215	C	0.405611	0.904107	0.900218
	Zn216	Zn	0.498332	0.001449	0.747437
	Zn217	Zn	0.497065	0.001791	0.248533
	Zn218	Zn	0.746825	0.500870	-0.001976
	Zn219	Zn	0.247523	0.500417	-0.001530
	Zn220	Zn	-0.001519	0.753192	0.499483
	Zn221	Zn	-0.002733	0.252906	0.500034
	Zn222	Zn	-0.003874	0.502620	0.749024
	Zn223	Zn	-0.002311	0.501588	0.249410
	Zn224	Zn	0.497265	0.750429	-0.001996
	Zn225	Zn	0.497353	0.251082	-0.002399
	Zn226	Zn	0.747349	0.003422	0.498035
	Zn227	Zn	0.246598	0.003024	0.498709
	N228	N	0.412389	0.965511	0.676315
	N229	N	0.585576	0.037622	0.678076
	N230	N	0.581663	0.965641	0.321186
	N231	N	0.409361	0.038387	0.317312
	N232	N	0.678258	0.412600	0.962099
	N233	N	0.675901	0.586270	0.033949
	N234	N	0.317040	0.588016	0.962387
	N235	N	0.318024	0.413372	0.033917
	N236	N	0.962682	0.683283	0.411516
	N237	N	0.033649	0.681780	0.585492
	N238	N	0.960782	0.321538	0.587987
	N239	N	0.033688	0.323700	0.414703
	N240	N	0.959319	0.416691	0.678400
	N241	N	0.032917	0.589344	0.679051
	N242	N	0.961914	0.589341	0.319178
	N243	N	0.033652	0.415764	0.321171
	N244	N	0.409908	0.681072	0.962230
	N245	N	0.582595	0.678465	0.034445
	N246	N	0.584425	0.320846	0.961199
	N247	N	0.411221	0.321212	0.033846
	N248	N	0.678167	0.968154	0.410275
	N249	N	0.676839	0.039183	0.583886
	N250	N	0.318361	0.966248	0.584219
	N251	N	0.315800	0.038850	0.410428
	N252	N	0.911818	0.464804	0.177894
	N253	N	0.083626	0.537770	0.177938
	N254	N	0.082435	0.465086	0.819742
	N255	N	0.910844	0.539109	0.820206
	N256	N	0.175836	0.916894	0.463322
	N257	N	0.177485	0.090071	0.535522
	N258	N	0.817675	0.090314	0.462186
	N259	N	0.817660	0.915933	0.534948
	N260	N	0.462470	0.182367	0.909012
	N261	N	0.533339	0.180023	0.083933
	N262	N	0.460553	0.821565	0.084309
	N263	N	0.533929	0.821171	0.911575
	N264	N	0.461464	0.913817	0.178789
	N265	N	0.533996	0.086202	0.176111
	N266	N	0.461994	0.088317	0.817295
	N267	N	0.534223	0.914329	0.818265
	N268	N	0.909878	0.184022	0.463293
	N269	N	0.083183	0.181646	0.536873
	N270	N	0.084519	0.823879	0.464136
	N271	N	0.911588	0.823175	0.535733
	N272	N	0.176994	0.464987	0.911680
	N273	N	0.177651	0.536515	0.085800
	N274	N	0.816924	0.464894	0.085892
	N275	N	0.815863	0.537233	0.910499
	O276	O	0.628778	0.443017	0.312005
	H277	H	0.632902	0.441654	0.304786
	H278	H	0.612420	0.433549	0.310002
	O279	O	0.403446	0.499441	0.686732
	H280	H	0.406949	0.502774	0.687242
	H281	H	0.388572	0.502167	0.685575
	O282	O	0.452102	0.644752	0.544440
	H283	H	0.463037	0.655909	0.549520
	H284	H	0.458605	0.642959	0.524534
	O285	O	1.073045	0.165761	0.175128
	H286	H	1.047552	0.171040	0.173142
	H287	H	1.070218	0.160644	0.156476
	O288	O	-0.046470	0.087493	0.938336
	H289	H	-0.050411	0.085328	0.940537
	H290	H	-0.029986	0.090347	0.940913
	O291	O	0.475934	0.449463	0.299042
	H292	H	0.479851	0.461091	0.295704
	H293	H	0.466929	0.443362	0.308498
	O294	O	0.689869	0.537303	0.482469
	H295	H	0.690328	0.528130	0.484975
	H296	H	0.697951	0.540784	0.483106
	O297	O	1.040629	0.919106	1.105349
	H298	H	1.030859	0.918486	1.104089
	H299	H	1.030589	0.932077	1.103363
	O300	O	0.181561	-0.089894	-0.172367
	H301	H	0.199329	-0.095699	-0.190895
	H302	H	0.165482	-0.082599	-0.164914
	O303	O	0.577439	0.602495	0.370650
	H304	H	0.574065	0.586096	0.360834
	H305	H	0.577017	0.605580	0.375688
	O306	O	0.888847	0.127744	0.014736
	H307	H	0.895872	0.134934	0.010322
	H308	H	0.879057	0.125786	0.004070
	O309	O	0.649657	0.354927	0.479587
	H310	H	0.655510	0.363514	0.474838
	H311	H	0.650480	0.354522	0.480849
	O312	O	0.843260	1.131108	0.009552
	H313	H	0.830938	1.147777	0.003397
	H314	H	0.844410	1.124632	0.003416
	O315	O	0.452795	0.401670	0.522733
	H316	H	0.460525	0.402611	0.523440
	H317	H	0.470187	0.403365	0.534438
	O318	O	0.469615	0.685687	0.406516
	H319	H	0.480339	0.685157	0.401205
	H320	H	0.458785	0.690667	0.399103
	O321	O	1.002565	-0.077472	1.113747
	H322	H	0.993952	-0.075803	1.113892
	H323	H	1.005471	-0.082034	1.110216
	O324	O	0.090157	0.158760	1.002553
	H325	H	0.076749	0.161318	1.011330
	H326	H	0.089039	0.163620	0.996916
	O327	O	0.594316	0.692149	0.627241
	H328	H	0.593906	0.691784	0.629248
	H329	H	0.597668	0.701968	0.630149
	O330	O	0.538309	0.474762	0.684148
	H331	H	0.530882	0.448207	0.686724
	H332	H	0.535172	0.487405	0.684446
	O333	O	1.110378	0.966043	0.898363
	H334	H	1.109218	0.960723	0.899945
	H335	H	1.118038	0.957386	0.889872
	O336	O	0.386078	0.680299	0.343428
	H337	H	0.388515	0.694377	0.353065
	H338	H	0.388528	0.686685	0.342325
	O339	O	1.032897	-0.151792	1.049579
	H340	H	1.020798	-0.142230	1.046295
	H341	H	1.040493	-0.159326	1.064200
	O342	O	-0.069839	1.039038	0.835558
	H343	H	-0.081837	1.036750	0.845669
	H344	H	-0.068221	1.031840	0.842328
	O345	O	-0.134996	0.943678	0.855084
	H346	H	-0.154391	0.943332	0.847430
	H347	H	-0.122947	0.925519	0.868087
	O348	O	0.449289	0.396032	0.502511
	H349	H	0.452796	0.393416	0.520098
	H350	H	0.462157	0.405182	0.496451
	O351	O	-0.118372	-0.013308	0.087281
	H352	H	-0.123071	-0.016441	0.091515
	H353	H	-0.115832	-0.022064	0.090161
	O354	O	0.834952	0.866809	0.201462
	H355	H	0.836417	0.888648	0.209130
	H356	H	0.834775	0.875091	0.180925
	O357	O	-0.019228	0.820787	-0.046595
	H358	H	-0.020943	0.835813	-0.044144
	H359	H	-0.026467	0.815974	-0.050031
	O360	O	0.431889	0.494476	0.572059
	H361	H	0.413025	0.493378	0.560137
	H362	H	0.436979	0.497659	0.568185
	O363	O	0.455189	0.478495	0.586984
	H364	H	0.469537	0.475811	0.601164
	H365	H	0.465303	0.479539	0.574018
	O366	O	0.329916	0.434980	0.544970
	H367	H	0.318327	0.424864	0.546482
	H368	H	0.338153	0.421677	0.532710
	O369	O	0.663490	0.380715	0.396703
	H370	H	0.670927	0.369571	0.416153
	H371	H	0.642249	0.383244	0.407001
	O372	O	0.436505	0.600081	0.473237
	H373	H	0.430029	0.596720	0.464492
	H374	H	0.442160	0.601761	0.475471
	O375	O	0.625597	0.437485	0.503802
	H376	H	0.629629	0.447711	0.490695
	H377	H	0.625448	0.435613	0.502027
	O378	O	0.668578	0.548079	0.686748
	H379	H	0.680139	0.541863	0.705028
	H380	H	0.657690	0.551605	0.685458
	O381	O	0.529190	0.669011	0.349508
	H382	H	0.535810	0.670037	0.352715
	H383	H	0.523088	0.663103	0.357963
	O384	O	0.064745	0.823909	0.955362
	H385	H	0.065051	0.816378	0.944372
	H386	H	0.069530	0.824035	0.964095
	O387	O	1.042100	1.072201	0.170835
	H388	H	1.040489	1.075879	0.170897
	H389	H	1.038543	1.059842	0.177774
	O390	O	0.364643	0.319723	0.617305
	H391	H	0.352388	0.334124	0.618313
	H392	H	0.352615	0.320859	0.609499
	O393	O	0.900747	0.185220	0.826537
	H394	H	0.910659	0.173155	0.813153
	H395	H	0.906931	0.182872	0.817676
	O396	O	-0.143189	1.007318	1.094213
	H397	H	-0.136902	1.005399	1.097356
	H398	H	-0.149936	1.013377	1.096247
	O399	O	0.482416	0.336726	0.354853
	H400	H	0.487351	0.335618	0.357126
	H401	H	0.479763	0.341876	0.355189
	O402	O	0.836363	-0.195654	1.084927
	H403	H	0.840579	-0.207945	1.089645
	H404	H	0.827358	-0.199809	1.074284
	O405	O	0.163782	0.070901	-0.039320
	H406	H	0.146387	0.074626	-0.027774
	H407	H	0.178033	0.076807	-0.020581
	O408	O	1.137481	0.918992	0.930493
	H409	H	1.148165	0.910394	0.936400
	H410	H	1.141203	0.914134	0.938455
	O411	O	1.115752	1.164208	-0.067076
	H412	H	1.118154	1.173320	-0.069019
	H413	H	1.131473	1.162927	-0.064190
	O414	O	-0.142416	-0.001792	1.001212
	H415	H	-0.121477	0.005686	0.993673
	H416	H	-0.140610	0.002289	1.022227
	O417	O	0.318450	0.578584	0.358879
	H418	H	0.308348	0.583978	0.350205
	H419	H	0.324622	0.588825	0.363857
	O420	O	0.192242	1.013772	0.191729
	H421	H	0.209080	1.018772	0.200374
	H422	H	0.169887	1.037224	0.179538
	O423	O	1.291723	-0.354259	-0.428033
	H424	H	1.280455	-0.359261	-0.439637
	H425	H	1.293150	-0.361539	-0.451802
	O426	O	0.030544	0.024228	0.925299
	H427	H	0.028645	0.023045	0.913984
	H428	H	0.030634	0.011843	0.905189
	O429	O	0.498299	0.354216	0.555393
	H430	H	0.489073	0.346761	0.549103
	H431	H	0.494196	0.340528	0.561251
