data_Molecule from HDF5

_cell_length_a		16.244032
_cell_length_b		16.287182
_cell_length_c		16.337403
_cell_angle_alpha	89.944851
_cell_angle_beta	90.045880
_cell_angle_gamma	90.071695
_symmetry_space_group_name_H-M	'P 1'
_symmetry_Int_Tables_number		1

loop_
	_symmetry_equiv_pos_as_xyz
	x,y,z

loop_
	_atom_site_label
	_atom_site_type_symbol
	_atom_site_fract_x
	_atom_site_fract_y
	_atom_site_fract_z
	H0	H	0.402573	0.844887	0.716749
	H1	H	0.601525	0.171248	0.716760
	H2	H	0.601623	0.844966	0.285366
	H3	H	0.401630	0.171326	0.286203
	H4	H	0.714873	0.410016	0.837337
	H5	H	0.716775	0.606636	0.163774
	H6	H	0.286712	0.606222	0.837155
	H7	H	0.287079	0.409386	0.164404
	H8	H	0.837988	0.722338	0.402784
	H9	H	0.167229	0.720059	0.597911
	H10	H	0.838200	0.293024	0.600131
	H11	H	0.165686	0.294095	0.403367
	H12	H	0.838087	0.408835	0.715551
	H13	H	0.165543	0.605520	0.715185
	H14	H	0.837540	0.606688	0.286018
	H15	H	0.164949	0.407993	0.285871
	H16	H	0.402658	0.723682	0.837719
	H17	H	0.601190	0.723170	0.163982
	H18	H	0.599474	0.293225	0.837878
	H19	H	0.402201	0.293309	0.163920
	H20	H	0.715226	0.843801	0.403413
	H21	H	0.716717	0.171735	0.599089
	H22	H	0.288530	0.843597	0.599198
	H23	H	0.287351	0.171654	0.403237
	H24	H	0.901778	0.344665	0.216437
	H25	H	0.100439	0.671428	0.215224
	H26	H	0.099473	0.344280	0.787335
	H27	H	0.901490	0.670751	0.785147
	H28	H	0.216063	0.910007	0.337209
	H29	H	0.216838	0.105735	0.664413
	H30	H	0.787126	0.105413	0.337714
	H31	H	0.788269	0.909905	0.664991
	H32	H	0.336142	0.221026	0.902547
	H33	H	0.664933	0.223132	0.099377
	H34	H	0.337707	0.793060	0.099610
	H35	H	0.665343	0.795109	0.903487
	H36	H	0.337536	0.909025	0.215236
	H37	H	0.665215	0.107594	0.215725
	H38	H	0.338154	0.107648	0.784688
	H39	H	0.664494	0.909065	0.786395
	H40	H	0.902498	0.222962	0.337902
	H41	H	0.101330	0.223394	0.663900
	H42	H	0.100304	0.793264	0.337593
	H43	H	0.904755	0.792585	0.664120
	H44	H	0.213824	0.343555	0.904900
	H45	H	0.215030	0.671741	0.098236
	H46	H	0.786534	0.343834	0.099429
	H47	H	0.787673	0.670895	0.902773
	H48	H	0.398548	0.127510	0.595852
	H49	H	0.599763	0.888397	0.601416
	H50	H	0.597848	0.125710	0.406664
	H51	H	0.406727	0.894239	0.417739
	H52	H	0.593056	0.423161	0.114127
	H53	H	0.601411	0.602550	0.882626
	H54	H	0.410693	0.597576	0.114802
	H55	H	0.412177	0.413180	0.885346
	H56	H	0.118929	0.597628	0.406532
	H57	H	0.888010	0.592789	0.590925
	H58	H	0.116499	0.419434	0.589605
	H59	H	0.886170	0.421609	0.407577
	H60	H	0.119889	0.417286	0.601406
	H61	H	0.882644	0.601096	0.600996
	H62	H	0.119336	0.602218	0.407072
	H63	H	0.882478	0.412088	0.403633
	H64	H	0.410541	0.604161	0.116297
	H65	H	0.591980	0.594721	0.887328
	H66	H	0.586624	0.410733	0.115407
	H67	H	0.404799	0.412094	0.883218
	H68	H	0.590456	0.123373	0.406008
	H69	H	0.584607	0.893159	0.596682
	H70	H	0.415997	0.124334	0.601495
	H71	H	0.401423	0.887501	0.401659
	H72	H	0.908904	0.622678	0.088236
	H73	H	0.091108	0.394764	0.085602
	H74	H	0.099324	0.627773	0.901925
	H75	H	0.917570	0.391839	0.902820
	H76	H	0.086805	0.905669	0.616480
	H77	H	0.094604	0.095877	0.387730
	H78	H	0.913980	0.102816	0.615979
	H79	H	0.911682	0.914643	0.386007
	H80	H	0.616802	0.101799	0.912010
	H81	H	0.382956	0.115324	0.085502
	H82	H	0.621092	0.907076	0.094729
	H83	H	0.383406	0.913053	0.907211
	H84	H	0.614620	0.919006	0.085309
	H85	H	0.390372	0.087548	0.088468
	H86	H	0.617023	0.098092	0.908627
	H87	H	0.385034	0.915826	0.911764
	H88	H	0.905346	0.104424	0.619276
	H89	H	0.089451	0.103821	0.385700
	H90	H	0.105893	0.910577	0.621583
	H91	H	0.907490	0.910398	0.383759
	H92	H	0.087973	0.623282	0.904779
	H93	H	0.103135	0.388205	0.094825
	H94	H	0.904414	0.626378	0.096248
	H95	H	0.906431	0.393009	0.917133
	H96	H	0.411301	0.120279	0.584657
	H97	H	0.597539	0.894016	0.585979
	H98	H	0.594601	0.122073	0.412568
	H99	H	0.418612	0.893846	0.403978
	H100	H	0.600879	0.412296	0.119597
	H101	H	0.589190	0.607937	0.884828
	H102	H	0.404890	0.600539	0.117391
	H103	H	0.406202	0.419319	0.885782
	H104	H	0.116916	0.599619	0.409921
	H105	H	0.885466	0.606532	0.588014
	H106	H	0.119977	0.408346	0.593567
	H107	H	0.886611	0.412521	0.413746
	H108	H	0.913351	0.623125	0.097413
	H109	H	0.087816	0.391513	0.102492
	H110	H	0.096761	0.623303	0.913289
	H111	H	0.900600	0.387027	0.901138
	H112	H	0.094063	0.924601	0.612977
	H113	H	0.098920	0.103466	0.383293
	H114	H	0.907629	0.096276	0.615993
	H115	H	0.905655	0.916725	0.385155
	H116	H	0.618915	0.103063	0.907205
	H117	H	0.379287	0.101594	0.110717
	H118	H	0.618067	0.922050	0.101444
	H119	H	0.385041	0.918770	0.906757
	C120	C	0.380270	0.015901	0.622444
	C121	C	0.623153	0.999783	0.623045
	C122	C	0.623139	0.016075	0.379334
	C123	C	0.380092	0.999849	0.379319
	C124	C	0.622263	0.386441	0.008952
	C125	C	0.623305	0.630198	0.992853
	C126	C	0.379603	0.629890	0.008599
	C127	C	0.379248	0.386264	0.992485
	C128	C	0.009792	0.628830	0.379347
	C129	C	0.993767	0.628723	0.621892
	C130	C	0.010574	0.386437	0.622679
	C131	C	0.993181	0.386520	0.379290
	C132	C	0.879961	0.515803	0.122395
	C133	C	0.122999	0.499530	0.122843
	C134	C	0.122775	0.516312	0.879315
	C135	C	0.879796	0.498943	0.879004
	C136	C	0.124048	0.885437	0.509234
	C137	C	0.123126	0.129380	0.492978
	C138	C	0.879965	0.129708	0.509250
	C139	C	0.880181	0.885542	0.492895
	C140	C	0.509281	0.129361	0.880240
	C141	C	0.492653	0.130224	0.123260
	C142	C	0.509589	0.887071	0.122439
	C143	C	0.492670	0.887419	0.880016
	C144	C	0.382565	0.893387	0.678203
	C145	C	0.621566	0.122634	0.678421
	C146	C	0.621475	0.893483	0.323655
	C147	C	0.381692	0.122382	0.323946
	C148	C	0.677152	0.389256	0.886137
	C149	C	0.679044	0.627613	0.115033
	C150	C	0.324333	0.627153	0.885899
	C151	C	0.324573	0.388848	0.115516
	C152	C	0.886646	0.684329	0.381818
	C153	C	0.117680	0.683367	0.619057
	C154	C	0.887058	0.331083	0.620129
	C155	C	0.116591	0.331485	0.382202
	C156	C	0.886924	0.388609	0.677465
	C157	C	0.117034	0.626485	0.677295
	C158	C	0.886546	0.626687	0.324089
	C159	C	0.116121	0.388223	0.323895
	C160	C	0.382012	0.685364	0.886176
	C161	C	0.621128	0.685255	0.115095
	C162	C	0.620001	0.330971	0.886430
	C163	C	0.381644	0.331079	0.115194
	C164	C	0.677934	0.892841	0.382227
	C165	C	0.678730	0.122786	0.620097
	C166	C	0.325745	0.892696	0.619850
	C167	C	0.324331	0.122469	0.381671
	C168	C	0.881442	0.393211	0.178171
	C169	C	0.120764	0.622664	0.177536
	C170	C	0.119963	0.393007	0.825024
	C171	C	0.881800	0.621839	0.823394
	C172	C	0.178664	0.889144	0.386111
	C173	C	0.178836	0.126587	0.615713
	C174	C	0.824961	0.126403	0.386371
	C175	C	0.825799	0.888870	0.615899
	C176	C	0.385746	0.184213	0.881962
	C177	C	0.616122	0.185030	0.120034
	C178	C	0.386441	0.831242	0.120116
	C179	C	0.616296	0.832599	0.882600
	C180	C	0.386406	0.888873	0.177547
	C181	C	0.616072	0.128132	0.178171
	C182	C	0.386512	0.127610	0.823564
	C183	C	0.615925	0.889494	0.824844
	C184	C	0.882056	0.184959	0.386679
	C185	C	0.121526	0.185049	0.615529
	C186	C	0.121272	0.831146	0.386217
	C187	C	0.883641	0.830792	0.615777
	C188	C	0.176511	0.392664	0.883553
	C189	C	0.177710	0.622836	0.119354
	C190	C	0.824104	0.392869	0.119953
	C191	C	0.825451	0.622203	0.882072
	C192	C	0.402313	0.102038	0.600527
	C193	C	0.600449	0.914050	0.601151
	C194	C	0.600827	0.101497	0.401834
	C195	C	0.402278	0.913969	0.401445
	C196	C	0.600084	0.408863	0.094326
	C197	C	0.600794	0.608280	0.907044
	C198	C	0.402034	0.607282	0.094083
	C199	C	0.401167	0.408339	0.906934
	C200	C	0.096015	0.606422	0.401449
	C201	C	0.907787	0.606630	0.599820
	C202	C	0.096492	0.408452	0.601089
	C203	C	0.907147	0.408785	0.401633
	C204	C	0.902351	0.602031	0.100368
	C205	C	0.100616	0.413592	0.100815
	C206	C	0.101245	0.602518	0.900462
	C207	C	0.901610	0.412808	0.900684
	C208	C	0.101939	0.906995	0.594941
	C209	C	0.100629	0.107673	0.407717
	C210	C	0.902449	0.107711	0.594912
	C211	C	0.901918	0.907307	0.406948
	C212	C	0.595431	0.107481	0.902750
	C213	C	0.406398	0.107881	0.101497
	C214	C	0.595730	0.909527	0.100370
	C215	C	0.406587	0.909371	0.902025
	Zn216	Zn	0.501828	0.008491	0.751910
	Zn217	Zn	0.501530	0.007850	0.251020
	Zn218	Zn	0.751583	0.507712	0.000648
	Zn219	Zn	0.250841	0.507668	0.001087
	Zn220	Zn	0.002514	0.757022	0.500815
	Zn221	Zn	0.001577	0.258416	0.500911
	Zn222	Zn	0.001371	0.507561	0.751031
	Zn223	Zn	0.001332	0.507969	0.251063
	Zn224	Zn	0.501462	0.759119	0.000807
	Zn225	Zn	0.500489	0.258005	0.000985
	Zn226	Zn	0.751578	0.007836	0.500974
	Zn227	Zn	0.252139	0.007508	0.501146
	N228	N	0.415712	0.971237	0.680087
	N229	N	0.587765	0.045093	0.680304
	N230	N	0.588081	0.971128	0.321675
	N231	N	0.415465	0.044892	0.322254
	N232	N	0.678571	0.423061	0.963331
	N233	N	0.680353	0.593983	0.037923
	N234	N	0.322934	0.593153	0.963148
	N235	N	0.322988	0.422538	0.038254
	N236	N	0.964412	0.685626	0.415504
	N237	N	0.039980	0.684938	0.585404
	N238	N	0.964705	0.329718	0.586692
	N239	N	0.039117	0.330284	0.415901
	N240	N	0.964671	0.422213	0.679365
	N241	N	0.039202	0.593123	0.679085
	N242	N	0.964193	0.593019	0.322607
	N243	N	0.038321	0.421804	0.322026
	N244	N	0.415598	0.687346	0.963483
	N245	N	0.587216	0.687022	0.037949
	N246	N	0.586616	0.329062	0.963779
	N247	N	0.414934	0.329275	0.037706
	N248	N	0.679175	0.969973	0.416281
	N249	N	0.679972	0.045482	0.586570
	N250	N	0.324228	0.969938	0.585877
	N251	N	0.323351	0.045135	0.415565
	N252	N	0.915330	0.470493	0.179715
	N253	N	0.087636	0.544840	0.179941
	N254	N	0.086904	0.470593	0.822698
	N255	N	0.915136	0.544126	0.821482
	N256	N	0.180519	0.922204	0.463703
	N257	N	0.180007	0.092676	0.538641
	N258	N	0.823521	0.092902	0.463544
	N259	N	0.823836	0.922504	0.538589
	N260	N	0.463051	0.185140	0.916657
	N261	N	0.538365	0.186570	0.086597
	N262	N	0.464058	0.829985	0.086697
	N263	N	0.538755	0.831410	0.916496
	N264	N	0.464071	0.922771	0.179126
	N265	N	0.538200	0.094698	0.180125
	N266	N	0.464380	0.094500	0.822290
	N267	N	0.538166	0.922736	0.823094
	N268	N	0.915463	0.187097	0.464130
	N269	N	0.087591	0.186895	0.538306
	N270	N	0.087980	0.828893	0.463531
	N271	N	0.916451	0.828455	0.538179
	N272	N	0.178399	0.470410	0.916574
	N273	N	0.179347	0.545271	0.086268
	N274	N	0.823124	0.470436	0.085971
	N275	N	0.824162	0.544778	0.915720
	O276	O	-0.512090	-0.484975	1.401311
	H277	H	-0.514441	-0.478357	1.401755
	H278	H	-0.516630	-0.486796	1.397113
	O279	O	0.504712	0.482742	0.466067
	H280	H	0.508543	0.486857	0.472534
	H281	H	0.513945	0.477709	0.465691
	O282	O	0.541872	0.523009	0.466109
	H283	H	0.537371	0.516974	0.455442
	H284	H	0.547496	0.518027	0.470457
	O285	O	0.482955	0.524279	0.422986
	H286	H	0.481774	0.522503	0.420616
	H287	H	0.473902	0.520677	0.421164
	O288	O	0.464719	0.510915	0.459230
	H289	H	0.475385	0.501866	0.455308
	H290	H	0.477252	0.511535	0.460658
	O291	O	-0.072094	1.011846	1.031046
	H292	H	-0.077554	1.012862	1.030532
	H293	H	-0.073311	1.011559	1.032061
	O294	O	0.509179	0.513252	0.445594
	H295	H	0.501367	0.519662	0.434533
	H296	H	0.514031	0.523069	0.449159
	O297	O	1.518148	-0.468908	-0.548490
	H298	H	1.510749	-0.468838	-0.539974
	H299	H	1.508693	-0.464503	-0.552026
