data_Molecule from HDF5

_cell_length_a		16.480360
_cell_length_b		16.653120
_cell_length_c		16.491524
_cell_angle_alpha	90.077134
_cell_angle_beta	89.971786
_cell_angle_gamma	89.719147
_symmetry_space_group_name_H-M	'P 1'
_symmetry_Int_Tables_number		1

loop_
	_symmetry_equiv_pos_as_xyz
	x,y,z

loop_
	_atom_site_label
	_atom_site_type_symbol
	_atom_site_fract_x
	_atom_site_fract_y
	_atom_site_fract_z
	H0	H	0.416356	0.832218	0.741968
	H1	H	0.621834	0.145308	0.744597
	H2	H	0.621406	0.831215	0.303819
	H3	H	0.412239	0.145027	0.301519
	H4	H	0.737232	0.384732	0.866721
	H5	H	0.736810	0.594749	0.182003
	H6	H	0.298585	0.588009	0.865213
	H7	H	0.296798	0.385391	0.182894
	H8	H	0.859974	0.711073	0.419223
	H9	H	0.174394	0.707935	0.630190
	H10	H	0.859935	0.267158	0.629515
	H11	H	0.174654	0.266970	0.418539
	H12	H	0.857632	0.386532	0.742297
	H13	H	0.174763	0.588112	0.743332
	H14	H	0.857883	0.590672	0.307769
	H15	H	0.174693	0.384915	0.304105
	H16	H	0.411669	0.707677	0.865547
	H17	H	0.622522	0.713179	0.179758
	H18	H	0.624218	0.266318	0.866600
	H19	H	0.409584	0.265398	0.180431
	H20	H	0.738601	0.831131	0.419683
	H21	H	0.737731	0.146074	0.626801
	H22	H	0.297722	0.833529	0.627262
	H23	H	0.294787	0.144992	0.418377
	H24	H	0.906673	0.336117	0.252209
	H25	H	0.123309	0.644054	0.248777
	H26	H	0.123544	0.332527	0.801583
	H27	H	0.909423	0.642013	0.802122
	H28	H	0.240966	0.882713	0.367244
	H29	H	0.240105	0.093674	0.681792
	H30	H	0.797918	0.092854	0.366680
	H31	H	0.797905	0.885805	0.680855
	H32	H	0.360956	0.213411	0.913918
	H33	H	0.672376	0.211644	0.130386
	H34	H	0.358911	0.769942	0.128401
	H35	H	0.671537	0.763882	0.915583
	H36	H	0.361107	0.883443	0.246813
	H37	H	0.674473	0.092897	0.243924
	H38	H	0.359615	0.094666	0.800916
	H39	H	0.674268	0.882638	0.801967
	H40	H	0.912612	0.209680	0.367570
	H41	H	0.126180	0.211842	0.680429
	H42	H	0.129749	0.762688	0.369097
	H43	H	0.913956	0.768369	0.680707
	H44	H	0.239723	0.332662	0.918721
	H45	H	0.239141	0.644548	0.131375
	H46	H	0.788912	0.336962	0.137030
	H47	H	0.794234	0.643064	0.920771
	H48	H	0.428875	0.100806	0.610861
	H49	H	0.609778	0.877084	0.612492
	H50	H	0.611085	0.100845	0.434048
	H51	H	0.430720	0.877157	0.431065
	H52	H	0.600876	0.404277	0.133394
	H53	H	0.604035	0.578994	0.911473
	H54	H	0.426053	0.579094	0.137209
	H55	H	0.433141	0.398815	0.913071
	H56	H	0.130808	0.578776	0.436433
	H57	H	0.903209	0.585159	0.610959
	H58	H	0.130980	0.393005	0.612201
	H59	H	0.903225	0.399422	0.435151
	H60	H	0.127551	0.401311	0.608853
	H61	H	0.905480	0.575844	0.610310
	H62	H	0.128655	0.575290	0.438655
	H63	H	0.903980	0.395998	0.439201
	H64	H	0.428813	0.581485	0.137454
	H65	H	0.605608	0.574738	0.911982
	H66	H	0.597574	0.397592	0.135084
	H67	H	0.425296	0.395380	0.909566
	H68	H	0.606521	0.100763	0.429839
	H69	H	0.609459	0.877082	0.614075
	H70	H	0.429592	0.100981	0.612196
	H71	H	0.432794	0.879578	0.436376
	H72	H	0.923603	0.600470	0.112037
	H73	H	0.106319	0.378288	0.111800
	H74	H	0.101241	0.600645	0.928474
	H75	H	0.932001	0.377600	0.936605
	H76	H	0.108783	0.899404	0.637292
	H77	H	0.111467	0.074666	0.411387
	H78	H	0.926531	0.077507	0.637806
	H79	H	0.929688	0.893359	0.408742
	H80	H	0.631565	0.082007	0.934205
	H81	H	0.404452	0.072915	0.116659
	H82	H	0.629250	0.896793	0.108666
	H83	H	0.402970	0.901782	0.928984
	H84	H	0.627129	0.901495	0.107798
	H85	H	0.402462	0.084138	0.111344
	H86	H	0.626267	0.075883	0.940248
	H87	H	0.402148	0.895068	0.932946
	H88	H	0.930560	0.075837	0.635613
	H89	H	0.101379	0.073540	0.414907
	H90	H	0.105632	0.900314	0.635153
	H91	H	0.925612	0.901944	0.409721
	H92	H	0.102317	0.596214	0.940948
	H93	H	0.104523	0.378495	0.114588
	H94	H	0.929580	0.599395	0.116952
	H95	H	0.923534	0.375765	0.938293
	H96	H	0.430067	0.099803	0.611310
	H97	H	0.608100	0.877249	0.612686
	H98	H	0.605639	0.099014	0.435650
	H99	H	0.426538	0.877490	0.436029
	H100	H	0.605387	0.398789	0.136670
	H101	H	0.601332	0.575722	0.912965
	H102	H	0.425204	0.582531	0.138682
	H103	H	0.425702	0.403877	0.912413
	H104	H	0.130129	0.574744	0.433693
	H105	H	0.902043	0.579184	0.618484
	H106	H	0.130587	0.400040	0.617910
	H107	H	0.906474	0.401399	0.439512
	H108	H	0.930145	0.596817	0.109299
	H109	H	0.102912	0.379451	0.112024
	H110	H	0.112508	0.601905	0.934653
	H111	H	0.927248	0.373821	0.930514
	H112	H	0.105857	0.896908	0.636795
	H113	H	0.104688	0.082503	0.410492
	H114	H	0.930176	0.080540	0.636946
	H115	H	0.934769	0.899962	0.413069
	H116	H	0.628239	0.073467	0.930762
	H117	H	0.407828	0.075036	0.104649
	H118	H	0.629660	0.900584	0.112800
	H119	H	0.404420	0.901486	0.936648
	C120	C	0.397513	-0.002646	0.643723
	C121	C	0.640580	0.980429	0.645407
	C122	C	0.639790	-0.003010	0.401313
	C123	C	0.396809	0.981020	0.402216
	C124	C	0.636482	0.367192	0.032015
	C125	C	0.636476	0.609743	1.016126
	C126	C	0.394856	0.610783	0.032590
	C127	C	0.395277	0.367084	1.015790
	C128	C	0.025554	0.608906	0.404415
	C129	C	1.008065	0.609909	0.645562
	C130	C	0.025349	0.366715	0.645232
	C131	C	1.008524	0.366746	0.403885
	C132	C	0.893970	0.497494	0.147200
	C133	C	0.137791	0.480911	0.146263
	C134	C	0.138599	0.496651	0.902147
	C135	C	0.894431	0.478435	0.902978
	C136	C	0.140429	0.866090	0.532728
	C137	C	0.139212	0.109541	0.515855
	C138	C	0.897491	0.109483	0.532573
	C139	C	0.897972	0.867583	0.515095
	C140	C	0.525054	0.109824	0.901863
	C141	C	0.508473	0.109973	0.144051
	C142	C	0.525153	0.868115	0.143160
	C143	C	0.507479	0.867020	0.901410
	C144	C	0.396784	0.879266	0.702536
	C145	C	0.640883	0.098459	0.704573
	C146	C	0.640382	0.878450	0.342863
	C147	C	0.393866	0.098322	0.341860
	C148	C	0.697365	0.365550	0.914049
	C149	C	0.696689	0.612709	0.134418
	C150	C	0.337220	0.608808	0.912758
	C151	C	0.336032	0.365820	0.134860
	C152	C	0.907089	0.669900	0.401772
	C153	C	0.127114	0.667970	0.648116
	C154	C	0.906787	0.307155	0.647668
	C155	C	0.127475	0.307233	0.401002
	C156	C	0.905647	0.366740	0.703604
	C157	C	0.127197	0.608992	0.704707
	C158	C	0.905773	0.610116	0.346170
	C159	C	0.127130	0.365734	0.343752
	C160	C	0.393232	0.668007	0.913060
	C161	C	0.640114	0.671997	0.133160
	C162	C	0.640826	0.306869	0.913896
	C163	C	0.392365	0.306353	0.133763
	C164	C	0.698833	0.878478	0.400559
	C165	C	0.698594	0.098689	0.646007
	C166	C	0.338171	0.879849	0.645541
	C167	C	0.335397	0.098431	0.399659
	C168	C	0.889319	0.382469	0.210903
	C169	C	0.141089	0.597495	0.208143
	C170	C	0.141546	0.379346	0.841987
	C171	C	0.891028	0.595576	0.842662
	C172	C	0.201201	0.863744	0.414848
	C173	C	0.200439	0.112413	0.634123
	C174	C	0.837715	0.111336	0.413872
	C175	C	0.837893	0.866528	0.633636
	C176	C	0.407582	0.171854	0.897323
	C177	C	0.625967	0.170797	0.147822
	C178	C	0.406476	0.809374	0.146431
	C179	C	0.625047	0.805081	0.898219
	C180	C	0.407639	0.865884	0.205305
	C181	C	0.626804	0.112055	0.204515
	C182	C	0.406893	0.112906	0.840803
	C183	C	0.626194	0.863990	0.841538
	C184	C	0.894533	0.169593	0.414716
	C185	C	0.143604	0.171247	0.633398
	C186	C	0.145884	0.803854	0.415866
	C187	C	0.895552	0.808192	0.633431
	C188	C	0.199178	0.379465	0.900457
	C189	C	0.198822	0.597526	0.149605
	C190	C	0.830655	0.382475	0.153510
	C191	C	0.833621	0.595904	0.901270
	C192	C	0.422327	0.079330	0.618611
	C193	C	0.616035	0.898496	0.620361
	C194	C	0.614853	0.078784	0.426060
	C195	C	0.422478	0.899519	0.427426
	C196	C	0.609181	0.392882	0.113738
	C197	C	0.610969	0.583990	0.933744
	C198	C	0.419472	0.587625	0.116037
	C199	C	0.420566	0.392070	0.933258
	C200	C	0.108223	0.583576	0.429094
	C201	C	0.925258	0.586542	0.620483
	C202	C	0.108004	0.391028	0.620045
	C203	C	0.926023	0.391759	0.430381
	C204	C	0.920289	0.577930	0.120203
	C205	C	0.111925	0.399790	0.120239
	C206	C	0.112722	0.578353	0.927443
	C207	C	0.920359	0.396881	0.927923
	C208	C	0.114142	0.891598	0.615147
	C209	C	0.113239	0.083935	0.433608
	C210	C	0.922092	0.084855	0.615364
	C211	C	0.922808	0.891800	0.432134
	C212	C	0.607281	0.084198	0.927716
	C213	C	0.426289	0.084590	0.118348
	C214	C	0.607365	0.892584	0.116947
	C215	C	0.424670	0.892319	0.926053
	Zn216	Zn	0.517344	-0.010989	0.773458
	Zn217	Zn	0.517870	-0.011440	0.272452
	Zn218	Zn	0.765077	0.488002	0.025079
	Zn219	Zn	0.267166	0.489205	0.024620
	Zn220	Zn	0.018944	0.738441	0.523872
	Zn221	Zn	0.018020	0.237793	0.524624
	Zn222	Zn	0.016443	0.487622	0.773598
	Zn223	Zn	0.016561	0.488737	0.275796
	Zn224	Zn	0.515364	0.739015	0.023315
	Zn225	Zn	0.516439	0.238299	0.022590
	Zn226	Zn	0.768935	-0.011110	0.522653
	Zn227	Zn	0.267697	-0.011309	0.523355
	N228	N	0.432896	0.953370	0.701499
	N229	N	0.605838	0.023648	0.704673
	N230	N	0.604595	0.953151	0.342921
	N231	N	0.431172	0.024493	0.343254
	N232	N	0.694831	0.402236	0.988571
	N233	N	0.694346	0.574402	0.060568
	N234	N	0.337728	0.574263	0.988329
	N235	N	0.337778	0.402909	0.060480
	N236	N	0.982823	0.669553	0.436746
	N237	N	0.052099	0.668741	0.612174
	N238	N	0.982333	0.306925	0.612239
	N239	N	0.052473	0.307679	0.437358
	N240	N	0.980389	0.402753	0.702379
	N241	N	0.051886	0.574016	0.703669
	N242	N	0.980522	0.573034	0.347631
	N243	N	0.051897	0.401566	0.345106
	N244	N	0.428065	0.669485	0.988717
	N245	N	0.603411	0.670227	0.058484
	N246	N	0.603955	0.307437	0.988671
	N247	N	0.428112	0.306678	0.058375
	N248	N	0.698790	0.953119	0.435969
	N249	N	0.698738	0.024106	0.610287
	N250	N	0.338348	0.954439	0.609994
	N251	N	0.337121	0.024507	0.436528
	N252	N	0.928145	0.454921	0.207025
	N253	N	0.103742	0.523901	0.206238
	N254	N	0.104210	0.453245	0.843128
	N255	N	0.928231	0.521695	0.843500
	N256	N	0.197932	0.901811	0.488757
	N257	N	0.197704	0.074777	0.559932
	N258	N	0.839330	0.074579	0.488456
	N259	N	0.839265	0.902689	0.558879
	N260	N	0.482081	0.170126	0.934513
	N261	N	0.551186	0.169659	0.111042
	N262	N	0.480556	0.810729	0.108381
	N263	N	0.550110	0.806770	0.934486
	N264	N	0.482476	0.901837	0.203318
	N265	N	0.552652	0.075020	0.202413
	N266	N	0.481061	0.075000	0.843556
	N267	N	0.552004	0.901875	0.843407
	N268	N	0.930842	0.168697	0.489607
	N269	N	0.106428	0.169709	0.558749
	N270	N	0.108770	0.805255	0.490434
	N271	N	0.931733	0.808383	0.558483
	N272	N	0.197276	0.453419	0.937390
	N273	N	0.197119	0.523867	0.112085
	N274	N	0.833522	0.455056	0.114478
	N275	N	0.835493	0.522083	0.938063
	O276	O	1.024055	0.944825	-0.134296
	H277	H	1.029409	0.944427	-0.128129
	H278	H	1.037005	0.953454	-0.134288
	O279	O	0.316042	0.691381	0.562762
	H280	H	0.324035	0.678478	0.540427
	H281	H	0.299406	0.709473	0.544515
	O282	O	1.047704	0.215219	0.244639
	H283	H	1.055418	0.246759	0.272556
	H284	H	1.032348	0.223225	0.222655
	O285	O	-0.168653	1.054059	0.037113
	H286	H	-0.172389	1.044233	0.070790
	H287	H	-0.162967	1.056752	0.030683
	O288	O	1.172012	0.145132	1.207780
	H289	H	1.161353	0.154833	1.204706
	H290	H	1.152260	0.138990	1.217894
	O291	O	0.237036	0.154327	0.070452
	H292	H	0.246209	0.167381	0.090235
	H293	H	0.250316	0.146826	0.062027
	O294	O	0.068896	-0.245130	0.087093
	H295	H	0.059647	-0.245136	0.091443
	H296	H	0.077818	-0.245378	0.095175
	O297	O	0.533498	0.491249	0.412511
	H298	H	0.540423	0.504010	0.408657
	H299	H	0.536200	0.489655	0.416484
	O300	O	0.033428	0.017460	0.015518
	H301	H	0.046124	0.014811	0.008222
	H302	H	0.034872	0.009866	0.012484
	O303	O	0.173312	0.126303	-0.006240
	H304	H	0.171426	0.112285	-0.003434
	H305	H	0.181761	0.138020	0.002381
	O306	O	0.666611	0.565518	-0.524038
	H307	H	0.680465	0.582827	-0.529141
	H308	H	0.664148	0.575892	-0.535394
	O309	O	1.099262	0.117204	0.032393
	H310	H	1.122932	0.110774	0.030433
	H311	H	1.104204	0.113158	0.040245
	O312	O	0.599846	0.358596	0.573562
	H313	H	0.595640	0.366162	0.582409
	H314	H	0.578350	0.356721	0.552302
	O315	O	0.507512	0.382265	0.582627
	H316	H	0.518025	0.369792	0.581687
	H317	H	0.507236	0.388463	0.566236
	O318	O	1.128999	0.854656	0.223927
	H319	H	1.130760	0.870170	0.237487
	H320	H	1.150723	0.847709	0.212619
	O321	O	-0.016096	0.766531	1.241191
	H322	H	0.004373	0.799720	1.252507
	H323	H	-0.010745	0.741369	1.266638
	O324	O	1.225229	0.007157	0.815958
	H325	H	1.223275	-0.007276	0.819936
	H326	H	1.229680	0.009388	0.809681
	O327	O	0.494459	0.338789	0.405227
	H328	H	0.503833	0.348650	0.424246
	H329	H	0.500208	0.330016	0.391843
	O330	O	-0.402291	1.326073	0.721737
	H331	H	-0.428113	1.328622	0.711748
	H332	H	-0.418010	1.323286	0.725285
	O333	O	0.089811	0.771137	0.809674
	H334	H	0.100580	0.768613	0.795180
	H335	H	0.110472	0.766756	0.815749
	O336	O	-0.157599	1.182397	-0.163263
	H337	H	-0.124661	1.175388	-0.157538
	H338	H	-0.185812	1.188536	-0.173751
	O339	O	-0.171720	0.793547	-0.164506
	H340	H	-0.149381	0.810335	-0.148175
	H341	H	-0.154526	0.810623	-0.143736
	O342	O	-0.191391	0.781205	0.046071
	H343	H	-0.190102	0.780435	0.028247
	H344	H	-0.203236	0.792015	0.029072
	O345	O	0.541415	0.270589	0.305228
	H346	H	0.552536	0.259811	0.301015
	H347	H	0.570900	0.260644	0.293610
	O348	O	0.488210	0.693005	0.320998
	H349	H	0.505608	0.693314	0.346740
	H350	H	0.498531	0.705634	0.305980
	O351	O	-0.015870	-0.233651	0.919719
	H352	H	-0.007612	-0.248085	0.919302
	H353	H	0.009300	-0.229473	0.917075
	O354	O	0.827674	0.179721	1.211281
	H355	H	0.845188	0.163681	1.196105
	H356	H	0.845883	0.164405	1.189113
	O357	O	-0.296432	0.499559	-0.289370
	H358	H	-0.305431	0.487864	-0.295593
	H359	H	-0.286906	0.495823	-0.292884
	O360	O	0.210142	-0.025194	1.001001
	H361	H	0.198667	-0.025885	0.994831
	H362	H	0.208670	-0.050030	0.993536
	O363	O	0.537600	0.655523	0.599745
	H364	H	0.524245	0.647791	0.610465
	H365	H	0.554987	0.659357	0.612736
	O366	O	0.786287	-0.072237	0.957001
	H367	H	0.782455	-0.057104	0.941700
	H368	H	0.785952	-0.047250	0.967212
	O369	O	0.051502	-0.020413	1.222675
	H370	H	0.063300	0.001365	1.214187
	H371	H	0.056593	-0.013678	1.223269
	O372	O	0.229795	0.824935	0.812811
	H373	H	0.261163	0.804454	0.780342
	H374	H	0.220778	0.848329	0.821165
	O375	O	0.721479	0.376990	-0.453114
	H376	H	0.733204	0.362927	-0.460163
	H377	H	0.723081	0.390821	-0.474599
	O378	O	0.316222	0.394642	0.396335
	H379	H	0.324025	0.402382	0.396278
	H380	H	0.328601	0.384118	0.406379
	O381	O	-0.057085	1.218534	0.076050
	H382	H	-0.046475	1.225301	0.065521
	H383	H	-0.062455	1.216535	0.046246
	O384	O	1.152304	1.001861	0.161574
	H385	H	1.166420	1.006222	0.185651
	H386	H	1.149655	1.008871	0.147015
	O387	O	-0.059949	1.080370	1.139249
	H388	H	-0.051827	1.092824	1.128921
	H389	H	-0.071401	1.063219	1.158438
	O390	O	0.071553	1.086523	0.968618
	H391	H	0.075865	1.083389	0.984756
	H392	H	0.050128	1.088700	0.964001
	O393	O	1.046339	0.020147	-0.191678
	H394	H	1.039891	0.017825	-0.183976
	H395	H	1.056586	0.024973	-0.184900
	O396	O	0.358301	0.468470	0.478646
	H397	H	0.364216	0.470171	0.457588
	H398	H	0.371207	0.467013	0.485023
	O399	O	0.707519	0.421442	0.489978
	H400	H	0.697335	0.419731	0.498586
	H401	H	0.700103	0.426295	0.507926
	O402	O	1.738032	0.708331	1.557038
	H403	H	1.750858	0.724768	1.578219
	H404	H	1.745657	0.717982	1.573742
	O405	O	0.719775	0.666653	0.726772
	H406	H	0.749616	0.684821	0.755650
	H407	H	0.722343	0.626139	0.724052
	O408	O	0.800584	0.214127	-0.001928
	H409	H	0.801517	0.200191	-0.017502
	H410	H	0.770669	0.239090	-0.012422
	O411	O	0.337684	1.628588	-0.293302
	H412	H	0.358514	1.608124	-0.299046
	H413	H	0.341701	1.631234	-0.322731
	O414	O	-0.002334	0.208197	-0.182211
	H415	H	-0.014653	0.218270	-0.186575
	H416	H	0.001357	0.205163	-0.196343
	O417	O	0.578545	0.690733	0.469864
	H418	H	0.589856	0.702895	0.492693
	H419	H	0.574827	0.695861	0.496249
	O420	O	1.712942	-0.712211	0.322679
	H421	H	1.725617	-0.716251	0.316617
	H422	H	1.732074	-0.722823	0.331825
	O423	O	1.015169	0.960263	0.078691
	H424	H	1.010340	0.951018	0.075971
	H425	H	1.016553	0.963680	0.080817
	O426	O	0.488787	0.449168	0.406349
	H427	H	0.508442	0.451566	0.405001
	H428	H	0.491814	0.436951	0.406619
	O429	O	0.499050	0.698286	0.648806
	H430	H	0.515091	0.699718	0.656175
	H431	H	0.493069	0.714742	0.669012
	O432	O	1.442778	0.578117	1.566732
	H433	H	1.451723	0.573867	1.544155
	H434	H	1.451370	0.586445	1.557405
	O435	O	-0.203004	-0.039472	0.241522
	H436	H	-0.202052	-0.065944	0.247118
	H437	H	-0.218735	-0.065988	0.259325
	O438	O	0.308194	0.290591	0.539247
	H439	H	0.303367	0.289700	0.538408
	H440	H	0.300411	0.279638	0.559600
	O441	O	0.721530	0.457630	0.319592
	H442	H	0.721414	0.439988	0.323883
	H443	H	0.734765	0.462849	0.303266
	O444	O	0.645979	0.424158	0.550586
	H445	H	0.643943	0.428134	0.545263
	H446	H	0.643107	0.420634	0.536081
	O447	O	0.311756	0.541224	0.315226
	H448	H	0.310169	0.518336	0.310448
	H449	H	0.309911	0.531900	0.304218
	O450	O	0.792985	0.017508	-0.196390
	H451	H	0.796170	0.023159	-0.207371
	H452	H	0.779977	0.030904	-0.215253
	O453	O	0.326916	0.674767	0.340404
	H454	H	0.332545	0.645695	0.333402
	H455	H	0.362747	0.667782	0.337707
	O456	O	-0.006265	0.972482	0.935191
	H457	H	-0.010036	0.954756	0.931653
	H458	H	-0.015982	0.976199	0.959271
	O459	O	0.463567	0.274137	0.658227
	H460	H	0.457847	0.251882	0.674973
	H461	H	0.435209	0.287187	0.658707
	O462	O	0.320087	0.475655	0.667121
	H463	H	0.327074	0.492546	0.643875
	H464	H	0.326711	0.487012	0.679056
	O465	O	0.324792	0.309447	0.719210
	H466	H	0.312645	0.332550	0.732682
	H467	H	0.316971	0.324200	0.706613
	O468	O	0.817180	1.788942	0.216982
	H469	H	0.810284	1.779991	0.165869
	H470	H	0.867049	1.778133	0.225328
	O471	O	0.499684	0.614213	0.734274
	H472	H	0.526766	0.621291	0.739939
	H473	H	0.512048	0.617200	0.739300
	O474	O	1.222643	0.913502	0.160302
	H475	H	1.227768	0.939219	0.149319
	H476	H	1.227149	0.909992	0.156357
	O477	O	0.233570	-0.233946	0.990469
	H478	H	0.243320	-0.244976	0.995443
	H479	H	0.237972	-0.241886	0.973378
