data_Molecule from HDF5

_cell_length_a		16.190643
_cell_length_b		16.240277
_cell_length_c		16.349337
_cell_angle_alpha	90.356238
_cell_angle_beta	90.017166
_cell_angle_gamma	90.073043
_symmetry_space_group_name_H-M	'P 1'
_symmetry_Int_Tables_number		1

loop_
	_symmetry_equiv_pos_as_xyz
	x,y,z

loop_
	_atom_site_label
	_atom_site_type_symbol
	_atom_site_fract_x
	_atom_site_fract_y
	_atom_site_fract_z
	H0	H	0.389042	0.836288	0.712062
	H1	H	0.589944	0.163817	0.712735
	H2	H	0.589646	0.837929	0.279052
	H3	H	0.388516	0.164660	0.282034
	H4	H	0.703576	0.402725	0.832311
	H5	H	0.706426	0.601067	0.160006
	H6	H	0.275937	0.599395	0.833880
	H7	H	0.274033	0.403520	0.160238
	H8	H	0.825080	0.712804	0.399378
	H9	H	0.154064	0.714510	0.595515
	H10	H	0.824143	0.288295	0.592861
	H11	H	0.154308	0.283099	0.396249
	H12	H	0.825960	0.401151	0.711318
	H13	H	0.153059	0.601705	0.712221
	H14	H	0.825539	0.597427	0.282859
	H15	H	0.154414	0.398361	0.279875
	H16	H	0.392370	0.714643	0.833529
	H17	H	0.590482	0.718500	0.159246
	H18	H	0.588626	0.285556	0.833616
	H19	H	0.391049	0.286475	0.160229
	H20	H	0.700592	0.834623	0.398722
	H21	H	0.703414	0.164039	0.595195
	H22	H	0.276907	0.834337	0.592404
	H23	H	0.273907	0.164011	0.399816
	H24	H	0.889040	0.336877	0.210784
	H25	H	0.092356	0.662947	0.216177
	H26	H	0.089391	0.337329	0.780354
	H27	H	0.891329	0.665063	0.783501
	H28	H	0.203565	0.899160	0.334285
	H29	H	0.205300	0.100059	0.660335
	H30	H	0.775870	0.095025	0.333467
	H31	H	0.774986	0.903381	0.660480
	H32	H	0.325529	0.213105	0.900094
	H33	H	0.656341	0.215504	0.095133
	H34	H	0.326059	0.787915	0.093277
	H35	H	0.655213	0.788198	0.899026
	H36	H	0.326166	0.901906	0.210117
	H37	H	0.654607	0.101368	0.213377
	H38	H	0.326071	0.098555	0.783434
	H39	H	0.654154	0.900301	0.780978
	H40	H	0.889201	0.213486	0.334333
	H41	H	0.088996	0.217162	0.659502
	H42	H	0.087146	0.783813	0.334700
	H43	H	0.890712	0.786619	0.660765
	H44	H	0.204212	0.337352	0.897900
	H45	H	0.203989	0.666462	0.096657
	H46	H	0.777920	0.336163	0.090687
	H47	H	0.779241	0.666259	0.902146
	H48	H	0.395699	0.116084	0.588674
	H49	H	0.587802	0.881098	0.589115
	H50	H	0.580513	0.118462	0.399269
	H51	H	0.391608	0.882551	0.401290
	H52	H	0.576680	0.406661	0.111524
	H53	H	0.581906	0.590390	0.882394
	H54	H	0.400203	0.587254	0.109314
	H55	H	0.394179	0.404053	0.880143
	H56	H	0.105535	0.592585	0.409784
	H57	H	0.868830	0.592273	0.600779
	H58	H	0.109753	0.399712	0.592717
	H59	H	0.875159	0.406790	0.408836
	H60	H	0.102700	0.409972	0.576839
	H61	H	0.870188	0.602060	0.587046
	H62	H	0.106128	0.586911	0.404337
	H63	H	0.874011	0.412041	0.398328
	H64	H	0.404473	0.601583	0.112593
	H65	H	0.582545	0.598964	0.880268
	H66	H	0.589307	0.404494	0.115540
	H67	H	0.395777	0.411556	0.881989
	H68	H	0.577300	0.114971	0.408586
	H69	H	0.578056	0.882449	0.595125
	H70	H	0.396626	0.117283	0.594084
	H71	H	0.400560	0.883407	0.396793
	H72	H	0.908678	0.614975	0.093397
	H73	H	0.081180	0.385337	0.087949
	H74	H	0.080913	0.617885	0.900406
	H75	H	0.886939	0.381597	0.903997
	H76	H	0.079116	0.913787	0.610452
	H77	H	0.074195	0.093028	0.383209
	H78	H	0.897114	0.092152	0.612435
	H79	H	0.892217	0.905090	0.379884
	H80	H	0.606612	0.088384	0.903893
	H81	H	0.372161	0.098112	0.093790
	H82	H	0.610091	0.904344	0.091294
	H83	H	0.372343	0.908068	0.900225
	H84	H	0.605370	0.911042	0.082832
	H85	H	0.375698	0.095397	0.084656
	H86	H	0.610134	0.095467	0.899890
	H87	H	0.371439	0.904803	0.904564
	H88	H	0.896727	0.098031	0.614527
	H89	H	0.085901	0.095546	0.379430
	H90	H	0.077959	0.900335	0.613898
	H91	H	0.896355	0.906621	0.381671
	H92	H	0.082295	0.617462	0.905226
	H93	H	0.081530	0.385562	0.086420
	H94	H	0.895512	0.615987	0.081212
	H95	H	0.900507	0.381195	0.890817
	H96	H	0.400911	0.115582	0.590501
	H97	H	0.578302	0.885444	0.584422
	H98	H	0.587999	0.117205	0.407610
	H99	H	0.399055	0.885542	0.406034
	H100	H	0.585766	0.416248	0.110558
	H101	H	0.589394	0.594088	0.879301
	H102	H	0.390179	0.597269	0.115978
	H103	H	0.401457	0.405791	0.882654
	H104	H	0.108647	0.594629	0.402769
	H105	H	0.875792	0.585689	0.586146
	H106	H	0.105369	0.418831	0.594310
	H107	H	0.871095	0.400929	0.399367
	H108	H	0.892379	0.621898	0.098457
	H109	H	0.082480	0.385233	0.087320
	H110	H	0.085624	0.619680	0.902701
	H111	H	0.903542	0.388210	0.909115
	H112	H	0.090508	0.907428	0.615935
	H113	H	0.082834	0.084048	0.383112
	H114	H	0.892189	0.093539	0.615191
	H115	H	0.895767	0.902594	0.380649
	H116	H	0.607159	0.096883	0.908678
	H117	H	0.375020	0.088958	0.091528
	H118	H	0.607905	0.914799	0.093759
	H119	H	0.373566	0.910149	0.904533
	C120	C	0.368445	0.007646	0.618384
	C121	C	0.610808	0.991234	0.618724
	C122	C	0.610694	0.008791	0.375574
	C123	C	0.367951	0.992192	0.373964
	C124	C	0.611914	0.380097	0.004653
	C125	C	0.613274	0.623809	0.988378
	C126	C	0.369428	0.623204	0.004950
	C127	C	0.368206	0.379305	0.989288
	C128	C	-0.001858	0.620033	0.376648
	C129	C	0.980392	0.622298	0.619064
	C130	C	-0.002429	0.380357	0.616565
	C131	C	0.981899	0.376948	0.373361
	C132	C	0.869421	0.509170	0.118065
	C133	C	0.111668	0.492943	0.118014
	C134	C	0.111550	0.509891	0.874350
	C135	C	0.868907	0.492619	0.874373
	C136	C	0.111127	0.877680	0.505889
	C137	C	0.110917	0.121604	0.488980
	C138	C	0.867506	0.121469	0.505771
	C139	C	0.866727	0.877382	0.488980
	C140	C	0.499019	0.121951	0.875827
	C141	C	0.482718	0.123278	0.118977
	C142	C	0.499141	0.880906	0.117394
	C143	C	0.481580	0.878992	0.874685
	C144	C	0.369952	0.884835	0.673353
	C145	C	0.609569	0.114965	0.674334
	C146	C	0.609207	0.886033	0.318365
	C147	C	0.369352	0.115612	0.319916
	C148	C	0.665950	0.382420	0.881282
	C149	C	0.668554	0.621784	0.111178
	C150	C	0.313911	0.620135	0.882478
	C151	C	0.312425	0.382552	0.111690
	C152	C	0.874241	0.674940	0.378846
	C153	C	0.104564	0.677473	0.616194
	C154	C	0.873781	0.325059	0.613965
	C155	C	0.105085	0.320937	0.375809
	C156	C	0.874563	0.381295	0.672514
	C157	C	0.104264	0.621145	0.674101
	C158	C	0.874498	0.617716	0.320918
	C159	C	0.105364	0.378207	0.317828
	C160	C	0.371760	0.677410	0.882273
	C161	C	0.610957	0.680012	0.110877
	C162	C	0.609218	0.323992	0.881992
	C163	C	0.370492	0.324379	0.111614
	C164	C	0.664532	0.884619	0.377777
	C165	C	0.665765	0.114973	0.615937
	C166	C	0.313703	0.883954	0.614206
	C167	C	0.312275	0.115278	0.378465
	C168	C	0.869959	0.385813	0.172551
	C169	C	0.111264	0.615215	0.176403
	C170	C	0.109502	0.386359	0.818535
	C171	C	0.871225	0.616017	0.820690
	C172	C	0.165952	0.879006	0.383097
	C173	C	0.167172	0.120377	0.611455
	C174	C	0.813099	0.116674	0.382417
	C175	C	0.812376	0.881811	0.611829
	C176	C	0.374946	0.176255	0.878997
	C177	C	0.606716	0.178279	0.116387
	C178	C	0.374922	0.825844	0.113936
	C179	C	0.605801	0.825007	0.877968
	C180	C	0.375236	0.882330	0.171997
	C181	C	0.606002	0.121684	0.174907
	C182	C	0.375067	0.119159	0.821119
	C183	C	0.605349	0.880950	0.819459
	C184	C	0.869499	0.175377	0.382809
	C185	C	0.109350	0.178373	0.611237
	C186	C	0.107868	0.821904	0.383246
	C187	C	0.869928	0.823932	0.611963
	C188	C	0.166811	0.386407	0.876601
	C189	C	0.166755	0.616810	0.117013
	C190	C	0.814295	0.385599	0.113228
	C191	C	0.815288	0.616645	0.879411
	C192	C	0.390996	0.093978	0.597161
	C193	C	0.588177	0.905271	0.596147
	C194	C	0.588472	0.094784	0.398402
	C195	C	0.390530	0.906062	0.394957
	C196	C	0.590445	0.402750	0.090321
	C197	C	0.591065	0.601263	0.902699
	C198	C	0.391743	0.601641	0.090544
	C199	C	0.390587	0.400768	0.903748
	C200	C	0.084368	0.597774	0.398830
	C201	C	0.894020	0.600016	0.597695
	C202	C	0.083800	0.402880	0.594438
	C203	C	0.895560	0.399844	0.395617
	C204	C	0.892274	0.595365	0.097210
	C205	C	0.088645	0.407611	0.094164
	C206	C	0.089454	0.596007	0.896398
	C207	C	0.890593	0.405933	0.895225
	C208	C	0.089105	0.900603	0.591305
	C209	C	0.087701	0.097898	0.404032
	C210	C	0.889111	0.100682	0.591772
	C211	C	0.888481	0.898398	0.403047
	C212	C	0.585650	0.099964	0.897573
	C213	C	0.396537	0.100714	0.096593
	C214	C	0.585483	0.903380	0.095681
	C215	C	0.394805	0.901156	0.896497
	Zn216	Zn	0.490102	0.000261	0.747383
	Zn217	Zn	0.490457	0.001129	0.246087
	Zn218	Zn	0.740974	0.501091	-0.003755
	Zn219	Zn	0.239691	0.502366	-0.003125
	Zn220	Zn	-0.010787	0.748963	0.497910
	Zn221	Zn	-0.010715	0.250435	0.496510
	Zn222	Zn	-0.010653	0.500926	0.746067
	Zn223	Zn	-0.009493	0.499971	0.246763
	Zn224	Zn	0.490571	0.752441	-0.003542
	Zn225	Zn	0.491090	0.250581	-0.002964
	Zn226	Zn	0.738771	-0.000274	0.496953
	Zn227	Zn	0.239823	-0.000634	0.497053
	N228	N	0.403238	0.962777	0.676100
	N229	N	0.575888	0.037101	0.676266
	N230	N	0.576346	0.964110	0.317000
	N231	N	0.402977	0.037768	0.316799
	N232	N	0.667832	0.416562	0.958637
	N233	N	0.669929	0.587295	0.034148
	N234	N	0.312390	0.587089	0.959748
	N235	N	0.310920	0.415950	0.034571
	N236	N	0.951860	0.676418	0.412876
	N237	N	0.026643	0.678258	0.582565
	N238	N	0.951425	0.324533	0.579526
	N239	N	0.027225	0.320059	0.409548
	N240	N	0.952537	0.415029	0.674225
	N241	N	0.026207	0.587574	0.676152
	N242	N	0.952514	0.584032	0.319553
	N243	N	0.027587	0.412173	0.316173
	N244	N	0.405765	0.679167	0.959409
	N245	N	0.577350	0.681368	0.033549
	N246	N	0.576166	0.322614	0.959433
	N247	N	0.404280	0.322231	0.034516
	N248	N	0.665688	0.962010	0.412704
	N249	N	0.666533	0.037348	0.581919
	N250	N	0.312870	0.961503	0.580630
	N251	N	0.311210	0.037565	0.411338
	N252	N	0.903711	0.463605	0.175578
	N253	N	0.077498	0.537363	0.177064
	N254	N	0.076136	0.464188	0.816814
	N255	N	0.903884	0.537807	0.817652
	N256	N	0.167924	0.913143	0.460269
	N257	N	0.168480	0.085921	0.534326
	N258	N	0.811685	0.084012	0.459872
	N259	N	0.810460	0.914357	0.534402
	N260	N	0.452993	0.178037	0.912394
	N261	N	0.528930	0.179439	0.082435
	N262	N	0.452911	0.824772	0.080650
	N263	N	0.527894	0.823947	0.911603
	N264	N	0.453325	0.915681	0.174276
	N265	N	0.527860	0.088379	0.176664
	N266	N	0.453210	0.085999	0.819205
	N267	N	0.526916	0.913752	0.817305
	N268	N	0.902655	0.178667	0.460365
	N269	N	0.075264	0.179316	0.534165
	N270	N	0.074114	0.821285	0.460438
	N271	N	0.902834	0.820882	0.534366
	N272	N	0.168101	0.464063	0.910777
	N273	N	0.167289	0.539803	0.081606
	N274	N	0.813622	0.463272	0.080229
	N275	N	0.813767	0.538884	0.912085
	O276	O	0.482297	0.444792	0.440410
	H277	H	0.483068	0.434983	0.449358
	H278	H	0.496810	0.443312	0.445714
	O279	O	0.441242	0.482213	0.438936
	H280	H	0.444178	0.480394	0.430952
	H281	H	0.455513	0.494696	0.430253
	O282	O	0.552114	0.432873	0.448119
	H283	H	0.547085	0.433739	0.436676
	H284	H	0.562740	0.435459	0.452053
	O285	O	0.127049	1.078923	1.103095
	H286	H	0.131508	1.082940	1.109139
	H287	H	0.118454	1.098250	1.095306
	O288	O	0.567993	0.528124	0.488399
	H289	H	0.559699	0.518300	0.504346
	H290	H	0.568060	0.535643	0.492248
	O291	O	0.440106	0.498532	1.605205
	H292	H	0.429908	0.502647	1.607375
	H293	H	0.442454	0.502417	1.600356
	O294	O	0.453942	0.480318	0.487418
	H295	H	0.450616	0.478816	0.497009
	H296	H	0.465331	0.470919	0.474484
	O297	O	0.403721	0.565827	0.555667
	H298	H	0.416073	0.567203	0.552050
	H299	H	0.388667	0.563349	0.559931
	O300	O	0.386361	0.404060	0.509266
	H301	H	0.378843	0.400246	0.515422
	H302	H	0.384196	0.412628	0.490774
	O303	O	0.470740	0.509618	0.382936
	H304	H	0.473096	0.514819	0.376880
	H305	H	0.464451	0.501811	0.379808
	O306	O	1.092164	0.064498	1.064411
	H307	H	1.098291	0.059976	1.072946
	H308	H	1.089856	0.062199	1.071429
	O309	O	0.507743	0.601745	0.469653
	H310	H	0.516730	0.607066	0.479762
	H311	H	0.509052	0.596471	0.465947
	O312	O	0.455957	0.483766	0.479963
	H313	H	0.469209	0.485392	0.487129
	H314	H	0.439614	0.476711	0.484494
	O315	O	1.058760	0.121085	1.039946
	H316	H	1.050548	0.115583	1.041841
	H317	H	1.051442	0.129995	1.041587
	O318	O	0.487708	-0.509210	-0.516353
	H319	H	0.484221	-0.500857	-0.521843
	H320	H	0.474555	-0.513110	-0.511882
	O321	O	0.399656	0.492498	0.557120
	H322	H	0.396264	0.503779	0.557724
	H323	H	0.402745	0.494185	0.568801
	O324	O	1.075084	0.083330	0.075761
	H325	H	1.089715	0.084812	0.087096
	H326	H	1.079022	0.070080	0.077556
	O327	O	1.105930	1.125747	0.110230
	H328	H	1.112205	1.140683	0.112291
	H329	H	1.121080	1.122091	0.109439
	O330	O	0.549171	0.445155	0.535237
	H331	H	0.550656	0.438190	0.543638
	H332	H	0.540404	0.441418	0.531890
	O333	O	0.524812	0.451968	0.471861
	H334	H	0.523673	0.454415	0.473332
	H335	H	0.534341	0.436182	0.459587
