data_Molecule from HDF5

_cell_length_a		16.309571
_cell_length_b		16.399226
_cell_length_c		16.246479
_cell_angle_alpha	89.963759
_cell_angle_beta	89.518510
_cell_angle_gamma	89.791830
_symmetry_space_group_name_H-M	'P 1'
_symmetry_Int_Tables_number		1

loop_
	_symmetry_equiv_pos_as_xyz
	x,y,z

loop_
	_atom_site_label
	_atom_site_type_symbol
	_atom_site_fract_x
	_atom_site_fract_y
	_atom_site_fract_z
	H0	H	0.389113	0.835425	0.726558
	H1	H	0.594839	0.155734	0.723016
	H2	H	0.600257	0.834512	0.286353
	H3	H	0.392092	0.156045	0.285731
	H4	H	0.721242	0.389571	0.843539
	H5	H	0.713811	0.595711	0.166610
	H6	H	0.280759	0.599905	0.841342
	H7	H	0.277094	0.393178	0.164833
	H8	H	0.835307	0.716201	0.396946
	H9	H	0.156447	0.716013	0.605539
	H10	H	0.835046	0.277498	0.610225
	H11	H	0.156496	0.272912	0.396991
	H12	H	0.836242	0.393943	0.725348
	H13	H	0.157441	0.600539	0.721019
	H14	H	0.834381	0.595442	0.287656
	H15	H	0.159435	0.394438	0.286499
	H16	H	0.393921	0.716427	0.844157
	H17	H	0.599455	0.712372	0.166063
	H18	H	0.605557	0.272925	0.843727
	H19	H	0.392066	0.277713	0.165890
	H20	H	0.717643	0.836140	0.399470
	H21	H	0.712263	0.155316	0.609212
	H22	H	0.275679	0.834412	0.608879
	H23	H	0.275666	0.156339	0.402515
	H24	H	0.897295	0.333690	0.221545
	H25	H	0.097576	0.656448	0.220116
	H26	H	0.102146	0.335553	0.782477
	H27	H	0.896484	0.656911	0.788015
	H28	H	0.215883	0.893879	0.343050
	H29	H	0.207259	0.094586	0.668925
	H30	H	0.779367	0.096193	0.341654
	H31	H	0.778181	0.895142	0.667385
	H32	H	0.336110	0.216952	0.901186
	H33	H	0.658197	0.212131	0.106754
	H34	H	0.334622	0.777003	0.108438
	H35	H	0.657368	0.776930	0.900724
	H36	H	0.333252	0.894914	0.222166
	H37	H	0.658664	0.092618	0.218911
	H38	H	0.332144	0.094798	0.792565
	H39	H	0.656642	0.893701	0.785916
	H40	H	0.893495	0.213360	0.341768
	H41	H	0.095133	0.213245	0.666174
	H42	H	0.098345	0.779776	0.340532
	H43	H	0.891196	0.776827	0.665387
	H44	H	0.216486	0.334332	0.900639
	H45	H	0.212344	0.657320	0.102548
	H46	H	0.779632	0.333983	0.106678
	H47	H	0.779088	0.655715	0.901868
	H48	H	0.397979	0.111830	0.601493
	H49	H	0.585300	0.880148	0.596836
	H50	H	0.583993	0.109285	0.412855
	H51	H	0.404806	0.884287	0.422648
	H52	H	0.587318	0.396223	0.122045
	H53	H	0.590048	0.588534	0.887159
	H54	H	0.400090	0.590629	0.122537
	H55	H	0.403765	0.405483	0.886863
	H56	H	0.112228	0.593083	0.415961
	H57	H	0.881788	0.582607	0.597185
	H58	H	0.111750	0.402309	0.590939
	H59	H	0.880250	0.400224	0.412764
	H60	H	0.110223	0.404422	0.588776
	H61	H	0.880183	0.590899	0.595778
	H62	H	0.108854	0.582607	0.415099
	H63	H	0.883500	0.406158	0.417666
	H64	H	0.401750	0.578401	0.118846
	H65	H	0.590110	0.582558	0.889078
	H66	H	0.594579	0.409696	0.119834
	H67	H	0.412636	0.410453	0.891225
	H68	H	0.585114	0.109167	0.414317
	H69	H	0.583129	0.881765	0.593637
	H70	H	0.406109	0.109321	0.599068
	H71	H	0.399771	0.879041	0.412322
	H72	H	0.912816	0.609906	0.101420
	H73	H	0.090262	0.382168	0.088810
	H74	H	0.102500	0.615019	0.908290
	H75	H	0.914487	0.383488	0.918165
	H76	H	0.083231	0.913876	0.615632
	H77	H	0.077011	0.083302	0.391955
	H78	H	0.913808	0.086427	0.616545
	H79	H	0.915377	0.905994	0.391757
	H80	H	0.608883	0.083520	0.917252
	H81	H	0.380357	0.084371	0.097928
	H82	H	0.606842	0.912995	0.090427
	H83	H	0.383747	0.904196	0.924189
	H84	H	0.615883	0.901664	0.107754
	H85	H	0.379911	0.091511	0.096020
	H86	H	0.610684	0.081983	0.911218
	H87	H	0.381198	0.909794	0.913423
	H88	H	0.898702	0.097147	0.623992
	H89	H	0.088374	0.093499	0.385501
	H90	H	0.075075	0.897836	0.618463
	H91	H	0.902266	0.898287	0.385086
	H92	H	0.078232	0.610167	0.901376
	H93	H	0.093915	0.378190	0.098294
	H94	H	0.906920	0.606501	0.086645
	H95	H	0.905331	0.381465	0.918018
	H96	H	0.399516	0.108967	0.592876
	H97	H	0.587499	0.881116	0.593573
	H98	H	0.586100	0.109653	0.412731
	H99	H	0.411758	0.882319	0.411864
	H100	H	0.579690	0.407525	0.114919
	H101	H	0.584906	0.586495	0.889511
	H102	H	0.411446	0.586725	0.117711
	H103	H	0.413201	0.400100	0.888318
	H104	H	0.113427	0.587497	0.406070
	H105	H	0.883257	0.585786	0.589692
	H106	H	0.110160	0.405345	0.591870
	H107	H	0.881490	0.407429	0.409836
	H108	H	0.896469	0.612662	0.097796
	H109	H	0.083104	0.381117	0.097333
	H110	H	0.085890	0.604793	0.924866
	H111	H	0.911023	0.380136	0.909818
	H112	H	0.091799	0.899768	0.623780
	H113	H	0.092166	0.078005	0.389593
	H114	H	0.896255	0.078381	0.618933
	H115	H	0.900381	0.913876	0.389046
	H116	H	0.612428	0.088068	0.913027
	H117	H	0.382614	0.086718	0.091425
	H118	H	0.612690	0.891538	0.087955
	H119	H	0.377071	0.898548	0.914956
	C120	C	0.371282	0.003760	0.628536
	C121	C	0.615070	0.987175	0.625788
	C122	C	0.617126	0.003651	0.382339
	C123	C	0.373712	0.987606	0.384206
	C124	C	0.619908	0.373002	0.012556
	C125	C	0.618417	0.615892	0.995840
	C126	C	0.374788	0.616979	0.012791
	C127	C	0.377305	0.374923	0.995586
	C128	C	0.004827	0.617912	0.381368
	C129	C	0.987995	0.617717	0.624415
	C130	C	0.004656	0.373975	0.624211
	C131	C	0.988444	0.373366	0.381872
	C132	C	0.875203	0.503337	0.126088
	C133	C	0.118711	0.487027	0.124358
	C134	C	0.120455	0.504177	0.880207
	C135	C	0.878066	0.487244	0.883820
	C136	C	0.115907	0.873867	0.512173
	C137	C	0.115292	0.115657	0.496263
	C138	C	0.873360	0.117652	0.512883
	C139	C	0.874174	0.874907	0.495558
	C140	C	0.504161	0.116205	0.884046
	C141	C	0.487995	0.116590	0.125858
	C142	C	0.504572	0.872898	0.126525
	C143	C	0.486959	0.873167	0.884201
	C144	C	0.370866	0.882992	0.686668
	C145	C	0.614321	0.107632	0.683827
	C146	C	0.618717	0.882824	0.324690
	C147	C	0.372905	0.108063	0.325074
	C148	C	0.680729	0.371032	0.891502
	C149	C	0.675340	0.615312	0.117861
	C150	C	0.318449	0.618536	0.890596
	C151	C	0.316856	0.374343	0.116743
	C152	C	0.883574	0.676456	0.379299
	C153	C	0.108570	0.676528	0.624275
	C154	C	0.883429	0.316976	0.627542
	C155	C	0.109065	0.313799	0.379710
	C156	C	0.884140	0.374653	0.685124
	C157	C	0.109169	0.618770	0.681895
	C158	C	0.883203	0.616456	0.324521
	C159	C	0.110598	0.374092	0.324489
	C160	C	0.374943	0.676590	0.891855
	C161	C	0.618449	0.673470	0.117595
	C162	C	0.623295	0.312997	0.891913
	C163	C	0.374322	0.316780	0.117258
	C164	C	0.677452	0.883987	0.381055
	C165	C	0.672825	0.107809	0.626963
	C166	C	0.314033	0.882762	0.628479
	C167	C	0.315019	0.108197	0.383444
	C168	C	0.876728	0.381961	0.183122
	C169	C	0.117423	0.608334	0.181508
	C170	C	0.121498	0.383414	0.821484
	C171	C	0.877443	0.608564	0.826322
	C172	C	0.176002	0.874222	0.391021
	C173	C	0.170291	0.114785	0.619404
	C174	C	0.817332	0.116420	0.390373
	C175	C	0.816608	0.875441	0.618120
	C176	C	0.383517	0.176125	0.883373
	C177	C	0.609616	0.173391	0.125915
	C178	C	0.382947	0.815739	0.127201
	C179	C	0.608726	0.815882	0.882036
	C180	C	0.382030	0.874652	0.183670
	C181	C	0.609810	0.114088	0.181801
	C182	C	0.381532	0.115590	0.829101
	C183	C	0.608272	0.873770	0.824693
	C184	C	0.874246	0.174729	0.390612
	C185	C	0.114375	0.173642	0.618217
	C186	C	0.117551	0.817618	0.389752
	C187	C	0.872830	0.816483	0.617193
	C188	C	0.178261	0.382866	0.880233
	C189	C	0.174538	0.608903	0.122992
	C190	C	0.818150	0.382294	0.126108
	C191	C	0.819111	0.607971	0.883215
	C192	C	0.394540	0.087984	0.604958
	C193	C	0.592001	0.902882	0.601624
	C194	C	0.592240	0.087578	0.406447
	C195	C	0.398407	0.903677	0.408523
	C196	C	0.594511	0.397535	0.097007
	C197	C	0.595142	0.592321	0.910816
	C198	C	0.397789	0.592386	0.097525
	C199	C	0.402566	0.398605	0.910816
	C200	C	0.089389	0.594547	0.405406
	C201	C	0.903731	0.593456	0.601013
	C202	C	0.088927	0.397366	0.598063
	C203	C	0.903722	0.397603	0.406434
	C204	C	0.898601	0.587772	0.102225
	C205	C	0.095925	0.402357	0.101407
	C206	C	0.096172	0.588045	0.904430
	C207	C	0.903019	0.403431	0.908144
	C208	C	0.090552	0.897050	0.597304
	C209	C	0.092622	0.091765	0.411261
	C210	C	0.896130	0.094310	0.597912
	C211	C	0.898824	0.898833	0.410623
	C212	C	0.588658	0.091712	0.906994
	C213	C	0.403012	0.094044	0.102090
	C214	C	0.589603	0.895487	0.102434
	C215	C	0.402545	0.897183	0.909901
	Zn216	Zn	0.493893	-0.005144	0.755606
	Zn217	Zn	0.495483	-0.004983	0.254469
	Zn218	Zn	0.747647	0.495094	0.004037
	Zn219	Zn	0.247741	0.495482	0.002785
	Zn220	Zn	-0.005108	0.745693	0.502459
	Zn221	Zn	-0.004283	0.245041	0.503597
	Zn222	Zn	-0.002734	0.495907	0.752857
	Zn223	Zn	-0.002629	0.495181	0.254089
	Zn224	Zn	0.496795	0.744265	0.005267
	Zn225	Zn	0.497168	0.245342	0.004715
	Zn226	Zn	0.744798	-0.003535	0.504894
	Zn227	Zn	0.244010	-0.004384	0.505886
	N228	N	0.405637	0.959191	0.687014
	N229	N	0.578896	0.031683	0.682926
	N230	N	0.581864	0.958415	0.325284
	N231	N	0.408553	0.031862	0.325286
	N232	N	0.678777	0.407703	0.967552
	N233	N	0.675325	0.580058	0.041103
	N234	N	0.318175	0.582158	0.966818
	N235	N	0.318443	0.409874	0.040027
	N236	N	0.960246	0.677614	0.413841
	N237	N	0.032078	0.676129	0.589365
	N238	N	0.959363	0.316375	0.590318
	N239	N	0.031819	0.313194	0.414531
	N240	N	0.960587	0.409634	0.683006
	N241	N	0.033285	0.582696	0.681909
	N242	N	0.959597	0.580805	0.325484
	N243	N	0.034490	0.410289	0.325703
	N244	N	0.409494	0.675634	0.968694
	N245	N	0.583808	0.673941	0.040838
	N246	N	0.586117	0.314277	0.968155
	N247	N	0.411413	0.317100	0.041007
	N248	N	0.676687	0.960136	0.416237
	N249	N	0.673610	0.031711	0.591714
	N250	N	0.314208	0.958740	0.592821
	N251	N	0.315573	0.032387	0.419532
	N252	N	0.911562	0.458177	0.183101
	N253	N	0.083493	0.531646	0.182495
	N254	N	0.086492	0.459849	0.820997
	N255	N	0.913559	0.532484	0.826823
	N256	N	0.175195	0.908276	0.468234
	N257	N	0.170927	0.079382	0.542609
	N258	N	0.816623	0.081557	0.467464
	N259	N	0.817125	0.910963	0.541451
	N260	N	0.460858	0.176799	0.916686
	N261	N	0.532750	0.175092	0.091879
	N262	N	0.460184	0.814462	0.092682
	N263	N	0.532269	0.815378	0.918233
	N264	N	0.458774	0.909111	0.183633
	N265	N	0.533073	0.079501	0.181778
	N266	N	0.457469	0.079083	0.829280
	N267	N	0.531465	0.908748	0.826031
	N268	N	0.908141	0.175648	0.467756
	N269	N	0.081059	0.174286	0.540677
	N270	N	0.080982	0.817199	0.466307
	N271	N	0.907926	0.816103	0.539906
	N272	N	0.177975	0.458943	0.915577
	N273	N	0.175292	0.532484	0.088160
	N274	N	0.817137	0.458809	0.091466
	N275	N	0.819426	0.531752	0.918227
	O276	O	-0.048894	0.111579	-0.081851
	H277	H	-0.060218	0.116414	-0.088910
	H278	H	-0.040617	0.116346	-0.097791
	O279	O	0.632379	0.489174	0.406907
	H280	H	0.631822	0.493206	0.405686
	H281	H	0.636508	0.498518	0.401123
	O282	O	1.065520	0.067115	0.013379
	H283	H	1.061877	0.060336	0.003625
	H284	H	1.064708	0.071824	0.021022
	O285	O	0.038426	0.998970	0.028694
	H286	H	0.031672	1.003794	0.013329
	H287	H	0.047772	0.997320	0.031064
	O288	O	0.592755	0.448719	0.465078
	H289	H	0.589079	0.455795	0.449197
	H290	H	0.603601	0.454208	0.482496
	O291	O	0.998271	0.060837	1.044146
	H292	H	0.992058	0.062633	1.037035
	H293	H	0.995596	0.047991	1.041162
	O294	O	1.056017	0.912857	0.859301
	H295	H	1.060033	0.896501	0.858886
	H296	H	1.053250	0.907470	0.858183
	O297	O	-0.018614	-0.052470	0.112238
	H298	H	-0.008260	-0.057932	0.116545
	H299	H	-0.019583	-0.039651	0.117774
	O300	O	0.693845	0.286734	0.452668
	H301	H	0.690986	0.286650	0.435778
	H302	H	0.712351	0.274880	0.446783
	O303	O	-0.021131	1.126188	1.050643
	H304	H	-0.021587	1.136677	1.049921
	H305	H	-0.020331	1.131670	1.047309
	O306	O	0.524112	0.687430	0.416808
	H307	H	0.524954	0.699064	0.414926
	H308	H	0.516665	0.682533	0.416923
	O309	O	1.117961	-0.024838	-0.023390
	H310	H	1.118202	-0.036297	-0.010817
	H311	H	1.113020	-0.026283	-0.027911
	O312	O	-0.087322	-0.105300	1.041884
	H313	H	-0.082256	-0.097298	1.046291
	H314	H	-0.094027	-0.100532	1.060150
	O315	O	0.510260	0.693976	0.690491
	H316	H	0.508224	0.685276	0.694158
	H317	H	0.503863	0.704848	0.690729
	O318	O	0.529150	0.410828	0.315888
	H319	H	0.526294	0.404875	0.309986
	H320	H	0.541399	0.415475	0.315582
	O321	O	0.404180	0.603272	0.376318
	H322	H	0.394592	0.612625	0.371520
	H323	H	0.400902	0.590872	0.367420
	O324	O	0.666989	0.660250	0.679983
	H325	H	0.651380	0.654316	0.668066
	H326	H	0.651095	0.650678	0.679103
	O327	O	-0.035548	1.041627	0.938681
	H328	H	-0.042343	1.034536	0.939559
	H329	H	-0.031642	1.035228	0.937028
	O330	O	0.539679	0.576578	0.384872
	H331	H	0.536613	0.562855	0.372418
	H332	H	0.538716	0.591975	0.382405
	O333	O	-0.068233	1.028087	1.043775
	H334	H	-0.053568	1.020175	1.046959
	H335	H	-0.068789	1.020096	1.045936
	O336	O	0.981001	0.891880	1.018757
	H337	H	0.968843	0.896933	1.016927
	H338	H	0.979099	0.886291	1.023857
	O339	O	0.385857	0.508841	0.714125
	H340	H	0.363194	0.503744	0.709479
	H341	H	0.377114	0.493356	0.720406
	O342	O	1.387741	0.397500	-0.499896
	H343	H	1.377304	0.424722	-0.498908
	H344	H	1.398309	0.392628	-0.487623
	O345	O	0.080621	0.919882	-0.002481
	H346	H	0.082416	0.926112	0.003367
	H347	H	0.074995	0.918100	0.006574
	O348	O	0.927201	0.956905	1.107079
	H349	H	0.933841	0.968130	1.107326
	H350	H	0.907390	0.958774	1.102801
	O351	O	1.007042	0.995987	0.029309
	H352	H	1.014420	0.993679	0.021311
	H353	H	1.008963	0.995871	0.032996
	O354	O	0.579769	0.439463	0.396695
	H355	H	0.593147	0.448724	0.403284
	H356	H	0.576648	0.432854	0.387215
	O357	O	0.710556	0.652682	0.594585
	H358	H	0.717389	0.669330	0.610047
	H359	H	0.719916	0.668282	0.605391
	O360	O	0.043974	-0.012805	-0.051269
	H361	H	0.055732	-0.015697	-0.051230
	H362	H	0.035833	-0.009788	-0.047894
	O363	O	0.563926	0.346995	0.460569
	H364	H	0.564492	0.343060	0.460204
	H365	H	0.564305	0.346526	0.451943
	O366	O	0.612599	0.397786	0.370833
	H367	H	0.608468	0.395294	0.360139
	H368	H	0.607630	0.392866	0.384371
	O369	O	0.410518	0.490186	0.509760
	H370	H	0.415161	0.509226	0.495386
	H371	H	0.411962	0.488738	0.498371
	O372	O	0.483023	0.557585	0.595810
	H373	H	0.487864	0.550921	0.615767
	H374	H	0.484532	0.552995	0.604051
	O375	O	0.406232	0.413079	0.572377
	H376	H	0.427109	0.399069	0.546769
	H377	H	0.394469	0.409825	0.568549
	O378	O	0.339907	0.425367	0.440008
	H379	H	0.336292	0.417796	0.450424
	H380	H	0.336447	0.422373	0.453175
	O381	O	0.416468	0.399390	0.701824
	H382	H	0.418174	0.409878	0.676195
	H383	H	0.400781	0.398019	0.712050
	O384	O	-0.044086	0.990416	0.059151
	H385	H	-0.046556	0.984907	0.065940
	H386	H	-0.037953	0.994357	0.051716
	O387	O	0.349303	0.615155	1.510427
	H388	H	0.359687	0.600942	1.501944
	H389	H	0.344619	0.617807	1.518508
	O390	O	0.347441	0.545873	-0.556384
	H391	H	0.335192	0.542597	-0.538265
	H392	H	0.332306	0.537437	-0.536075
	O393	O	0.506815	1.352595	-0.381787
	H394	H	0.496390	1.378521	-0.376075
	H395	H	0.533220	1.350521	-0.381373
	O396	O	0.423485	0.691745	0.308600
	H397	H	0.421975	0.710598	0.299143
	H398	H	0.408460	0.682020	0.318302
	O399	O	0.394152	0.303980	0.691656
	H400	H	0.410346	0.321903	0.695298
	H401	H	0.402425	0.289119	0.695437
	O402	O	0.904072	0.993126	1.028378
	H403	H	0.906098	1.015093	1.030968
	H404	H	0.898702	0.990282	1.028590
	O405	O	0.530432	0.475910	0.622971
	H406	H	0.515237	0.461976	0.625315
	H407	H	0.546600	0.473413	0.622951
