data_Molecule from HDF5

_cell_length_a		16.473082
_cell_length_b		16.644915
_cell_length_c		16.655762
_cell_angle_alpha	90.042050
_cell_angle_beta	90.081222
_cell_angle_gamma	90.063148
_symmetry_space_group_name_H-M	'P 1'
_symmetry_Int_Tables_number		1

loop_
	_symmetry_equiv_pos_as_xyz
	x,y,z

loop_
	_atom_site_label
	_atom_site_type_symbol
	_atom_site_fract_x
	_atom_site_fract_y
	_atom_site_fract_z
	H0	H	0.404933	0.846412	0.713993
	H1	H	0.615585	0.157649	0.715971
	H2	H	0.612001	0.847888	0.271909
	H3	H	0.399040	0.157787	0.269362
	H4	H	0.727809	0.401885	0.836006
	H5	H	0.726835	0.603128	0.151566
	H6	H	0.289487	0.606062	0.837584
	H7	H	0.286382	0.396349	0.148782
	H8	H	0.851293	0.721659	0.388739
	H9	H	0.166268	0.721933	0.596145
	H10	H	0.851223	0.282051	0.596855
	H11	H	0.166205	0.281349	0.388220
	H12	H	0.851168	0.398069	0.712842
	H13	H	0.166671	0.604928	0.711085
	H14	H	0.851423	0.606499	0.272243
	H15	H	0.165975	0.396150	0.272436
	H16	H	0.404798	0.723891	0.838353
	H17	H	0.610851	0.720736	0.151759
	H18	H	0.616517	0.281078	0.838069
	H19	H	0.400572	0.277967	0.147299
	H20	H	0.727325	0.846723	0.389353
	H21	H	0.730034	0.158634	0.597791
	H22	H	0.289519	0.845539	0.595309
	H23	H	0.287639	0.159224	0.390121
	H24	H	0.898881	0.347519	0.217146
	H25	H	0.114318	0.657072	0.215403
	H26	H	0.114340	0.346954	0.771350
	H27	H	0.907135	0.659617	0.774447
	H28	H	0.231433	0.895849	0.338115
	H29	H	0.227344	0.103884	0.650531
	H30	H	0.785936	0.107969	0.337898
	H31	H	0.783968	0.894091	0.646417
	H32	H	0.353088	0.224577	0.887331
	H33	H	0.666281	0.225154	0.100353
	H34	H	0.351927	0.782027	0.098408
	H35	H	0.667885	0.786497	0.892820
	H36	H	0.350869	0.899804	0.212801
	H37	H	0.664987	0.110525	0.216865
	H38	H	0.351564	0.106575	0.773491
	H39	H	0.666222	0.899481	0.774764
	H40	H	0.900776	0.225858	0.339268
	H41	H	0.113553	0.223263	0.649204
	H42	H	0.115325	0.779261	0.337619
	H43	H	0.899432	0.777372	0.646087
	H44	H	0.230265	0.346740	0.888383
	H45	H	0.228146	0.658530	0.096394
	H46	H	0.786826	0.346270	0.097381
	H47	H	0.793289	0.661203	0.893675
	H48	H	0.419565	0.115380	0.586331
	H49	H	0.594413	0.893200	0.579443
	H50	H	0.599037	0.115862	0.404804
	H51	H	0.416179	0.888847	0.397220
	H52	H	0.598561	0.418916	0.102652
	H53	H	0.600170	0.593407	0.882711
	H54	H	0.423195	0.604130	0.108841
	H55	H	0.415817	0.417265	0.881669
	H56	H	0.122133	0.592169	0.403894
	H57	H	0.894280	0.593267	0.583071
	H58	H	0.122882	0.408279	0.582011
	H59	H	0.897977	0.418320	0.402942
	H60	H	0.120034	0.415695	0.580388
	H61	H	0.895606	0.591410	0.581609
	H62	H	0.121203	0.591445	0.405855
	H63	H	0.894605	0.410243	0.402922
	H64	H	0.409098	0.588763	0.107791
	H65	H	0.598125	0.600088	0.880337
	H66	H	0.591899	0.412903	0.102552
	H67	H	0.426348	0.417537	0.886039
	H68	H	0.594468	0.114899	0.401578
	H69	H	0.601061	0.890073	0.583794
	H70	H	0.421642	0.112979	0.583542
	H71	H	0.427373	0.894519	0.400759
	H72	H	0.924128	0.612113	0.083663
	H73	H	0.095569	0.391396	0.079399
	H74	H	0.095878	0.613157	0.902852
	H75	H	0.919570	0.391661	0.904778
	H76	H	0.102731	0.914789	0.604555
	H77	H	0.100284	0.093766	0.379983
	H78	H	0.920649	0.091936	0.604536
	H79	H	0.922081	0.910815	0.380899
	H80	H	0.623793	0.098385	0.906616
	H81	H	0.400483	0.087044	0.076897
	H82	H	0.618666	0.913632	0.076329
	H83	H	0.395167	0.914882	0.902019
	H84	H	0.621693	0.920836	0.087491
	H85	H	0.396575	0.089772	0.085086
	H86	H	0.618441	0.087265	0.908979
	H87	H	0.394960	0.910616	0.902215
	H88	H	0.920052	0.091076	0.603865
	H89	H	0.096793	0.088847	0.382427
	H90	H	0.092402	0.914288	0.602071
	H91	H	0.916906	0.912935	0.381634
	H92	H	0.103302	0.615491	0.902877
	H93	H	0.097737	0.390147	0.082344
	H94	H	0.916957	0.613641	0.080837
	H95	H	0.914917	0.389271	0.901492
	H96	H	0.417713	0.114237	0.582259
	H97	H	0.593503	0.890758	0.587452
	H98	H	0.594429	0.112834	0.406796
	H99	H	0.417495	0.893104	0.409111
	H100	H	0.599485	0.410998	0.106356
	H101	H	0.604687	0.597421	0.878398
	H102	H	0.428363	0.586179	0.100140
	H103	H	0.422854	0.408228	0.881154
	H104	H	0.121523	0.589531	0.404129
	H105	H	0.895005	0.590790	0.583890
	H106	H	0.123017	0.413964	0.587483
	H107	H	0.898003	0.413475	0.409878
	H108	H	0.918840	0.615587	0.087955
	H109	H	0.094281	0.391049	0.083003
	H110	H	0.098804	0.616300	0.896663
	H111	H	0.920649	0.390360	0.898970
	H112	H	0.097662	0.905783	0.606215
	H113	H	0.094339	0.095107	0.381972
	H114	H	0.921301	0.091398	0.603724
	H115	H	0.921255	0.915825	0.383289
	H116	H	0.623892	0.089310	0.897845
	H117	H	0.396125	0.095459	0.078126
	H118	H	0.624454	0.907798	0.086865
	H119	H	0.395574	0.912479	0.905408
	C120	C	0.387825	0.010823	0.614849
	C121	C	0.629840	0.994337	0.615315
	C122	C	0.628376	0.011497	0.372367
	C123	C	0.387020	0.994836	0.370965
	C124	C	0.629486	0.382614	0.001106
	C125	C	0.631161	0.625945	0.985338
	C126	C	0.388258	0.624393	0.002443
	C127	C	0.387567	0.380976	0.984887
	C128	C	0.017229	0.622454	0.372573
	C129	C	0.999688	0.623390	0.613934
	C130	C	0.017473	0.380862	0.614886
	C131	C	1.000395	0.381102	0.372457
	C132	C	0.886644	0.510914	0.115574
	C133	C	0.128969	0.493703	0.114160
	C134	C	0.130623	0.511205	0.870549
	C135	C	0.887629	0.494427	0.871701
	C136	C	0.130056	0.879802	0.501371
	C137	C	0.129314	0.123617	0.484956
	C138	C	0.887293	0.123915	0.501589
	C139	C	0.886605	0.880423	0.483863
	C140	C	0.518330	0.123859	0.872080
	C141	C	0.501101	0.123960	0.113745
	C142	C	0.517189	0.882569	0.114590
	C143	C	0.500292	0.882037	0.873097
	C144	C	0.386153	0.893047	0.673867
	C145	C	0.633169	0.111187	0.675332
	C146	C	0.630643	0.894478	0.312187
	C147	C	0.382223	0.111594	0.310307
	C148	C	0.688749	0.382124	0.883256
	C149	C	0.687994	0.623569	0.104356
	C150	C	0.329016	0.625133	0.884632
	C151	C	0.326421	0.378081	0.101734
	C152	C	0.898531	0.681810	0.370318
	C153	C	0.118637	0.682347	0.615230
	C154	C	0.898639	0.321629	0.615939
	C155	C	0.118718	0.321013	0.370139
	C156	C	0.898597	0.379347	0.673393
	C157	C	0.118954	0.624008	0.672128
	C158	C	0.898683	0.624514	0.312551
	C159	C	0.118737	0.378152	0.312248
	C160	C	0.386194	0.683658	0.885025
	C161	C	0.630367	0.681857	0.104382
	C162	C	0.632938	0.322351	0.884068
	C163	C	0.383203	0.319060	0.100989
	C164	C	0.687691	0.893867	0.370743
	C165	C	0.689967	0.111526	0.616432
	C166	C	0.328950	0.892603	0.615030
	C167	C	0.326862	0.112088	0.370365
	C168	C	0.882172	0.394043	0.176018
	C169	C	0.132195	0.610542	0.174750
	C170	C	0.132523	0.393848	0.811407
	C171	C	0.887708	0.612865	0.813975
	C172	C	0.190708	0.877699	0.384544
	C173	C	0.187992	0.123573	0.603212
	C174	C	0.826215	0.126503	0.384816
	C175	C	0.824756	0.876654	0.599904
	C176	C	0.399910	0.183797	0.869702
	C177	C	0.619033	0.184759	0.117599
	C178	C	0.398723	0.822635	0.116437
	C179	C	0.619705	0.824746	0.873062
	C180	C	0.398293	0.880914	0.173345
	C181	C	0.618415	0.127802	0.175698
	C182	C	0.399208	0.125351	0.812937
	C183	C	0.619102	0.881032	0.814521
	C184	C	0.883382	0.185131	0.385278
	C185	C	0.131707	0.183103	0.602408
	C186	C	0.133119	0.819502	0.384295
	C187	C	0.882357	0.818647	0.599943
	C188	C	0.190077	0.393728	0.869791
	C189	C	0.188829	0.611392	0.115710
	C190	C	0.826191	0.393472	0.116479
	C191	C	0.831384	0.613541	0.873259
	C192	C	0.412583	0.092780	0.590930
	C193	C	0.603984	0.912623	0.590507
	C194	C	0.603158	0.093154	0.397189
	C195	C	0.412990	0.913344	0.395291
	C196	C	0.603787	0.407181	0.082581
	C197	C	0.607801	0.603460	0.902134
	C198	C	0.413168	0.599943	0.084231
	C199	C	0.414040	0.406877	0.903990
	C200	C	0.099955	0.597874	0.397412
	C201	C	0.916505	0.598753	0.589702
	C202	C	0.100400	0.405480	0.590176
	C203	C	0.918270	0.406797	0.397795
	C204	C	0.912631	0.592471	0.091211
	C205	C	0.103073	0.412252	0.088858
	C206	C	0.106343	0.593629	0.894217
	C207	C	0.911469	0.411881	0.895008
	C208	C	0.104743	0.904596	0.583062
	C209	C	0.104582	0.099383	0.403017
	C210	C	0.913457	0.098586	0.582926
	C211	C	0.912749	0.905922	0.402903
	C212	C	0.600656	0.098766	0.897216
	C213	C	0.419089	0.098073	0.087519
	C214	C	0.600040	0.907178	0.090311
	C215	C	0.416976	0.905865	0.896611
	Zn216	Zn	0.508872	0.002497	0.744408
	Zn217	Zn	0.507907	0.004201	0.242412
	Zn218	Zn	0.758963	0.503525	-0.006702
	Zn219	Zn	0.258994	0.502597	-0.006559
	Zn220	Zn	0.008052	0.751380	0.492284
	Zn221	Zn	0.008646	0.253162	0.493261
	Zn222	Zn	0.008240	0.502335	0.742188
	Zn223	Zn	0.008365	0.501155	0.244097
	Zn224	Zn	0.509148	0.754199	-0.005894
	Zn225	Zn	0.509695	0.252331	-0.006847
	Zn226	Zn	0.758037	0.002730	0.492841
	Zn227	Zn	0.258630	0.002228	0.492886
	N228	N	0.421773	0.967712	0.674212
	N229	N	0.596367	0.037138	0.674721
	N230	N	0.594738	0.968808	0.312776
	N231	N	0.419096	0.037729	0.310636
	N232	N	0.687046	0.418801	0.956983
	N233	N	0.688871	0.589895	0.029059
	N234	N	0.329922	0.588981	0.958717
	N235	N	0.328958	0.415777	0.028467
	N236	N	0.973358	0.680694	0.406824
	N237	N	0.043182	0.682329	0.579935
	N238	N	0.973766	0.322384	0.580277
	N239	N	0.044027	0.322612	0.406715
	N240	N	0.973677	0.415185	0.672989
	N241	N	0.043718	0.588334	0.671736
	N242	N	0.973627	0.588369	0.313597
	N243	N	0.044147	0.414829	0.313445
	N244	N	0.422245	0.683474	0.959292
	N245	N	0.596203	0.683696	0.029027
	N246	N	0.596894	0.322369	0.958430
	N247	N	0.420422	0.320502	0.027239
	N248	N	0.686498	0.967731	0.407359
	N249	N	0.687967	0.037634	0.579798
	N250	N	0.329881	0.966816	0.579141
	N251	N	0.329429	0.038418	0.407226
	N252	N	0.918949	0.468031	0.175909
	N253	N	0.095801	0.536413	0.173986
	N254	N	0.096349	0.468132	0.811683
	N255	N	0.921862	0.537639	0.812640
	N256	N	0.189016	0.914477	0.458384
	N257	N	0.186924	0.087466	0.529043
	N258	N	0.828619	0.089106	0.458139
	N259	N	0.827297	0.914588	0.526840
	N260	N	0.475010	0.183359	0.905499
	N261	N	0.545023	0.182546	0.079563
	N262	N	0.473912	0.823427	0.080838
	N263	N	0.544540	0.825048	0.908627
	N264	N	0.472811	0.917816	0.172080
	N265	N	0.544014	0.090782	0.173301
	N266	N	0.473960	0.088987	0.814079
	N267	N	0.543616	0.915871	0.814179
	N268	N	0.920801	0.183635	0.459031
	N269	N	0.095987	0.183283	0.527892
	N270	N	0.095944	0.820767	0.458015
	N271	N	0.920365	0.820910	0.526701
	N272	N	0.189232	0.467977	0.905681
	N273	N	0.187499	0.537383	0.079039
	N274	N	0.828869	0.467233	0.079641
	N275	N	0.831143	0.538910	0.908290
	O276	O	-0.093367	1.126903	0.180693
	H277	H	-0.105644	1.128679	0.202859
	H278	H	-0.084648	1.121079	0.185610
	O279	O	0.448372	0.437085	0.477943
	H280	H	0.455257	0.439347	0.475125
	H281	H	0.443556	0.436188	0.475698
	O282	O	0.698374	-0.361458	1.360001
	H283	H	0.694438	-0.355659	1.356730
	H284	H	0.682957	-0.371338	1.370097
	O285	O	0.506873	0.715883	0.624552
	H286	H	0.502690	0.710958	0.630387
	H287	H	0.500316	0.709238	0.629019
	O288	O	0.451483	0.664895	0.462396
	H289	H	0.445803	0.670190	0.463833
	H290	H	0.452521	0.659255	0.445287
	O291	O	0.577762	0.533878	0.576171
	H292	H	0.567157	0.520239	0.573283
	H293	H	0.590447	0.536478	0.570936
	O294	O	0.895637	0.202461	0.790666
	H295	H	0.913333	0.205707	0.805620
	H296	H	0.901022	0.206384	0.792464
	O297	O	0.306860	0.614099	0.408174
	H298	H	0.304007	0.622852	0.421755
	H299	H	0.300900	0.622804	0.414718
	O300	O	-0.183661	-0.190014	0.797217
	H301	H	-0.168287	-0.167209	0.812646
	H302	H	-0.166622	-0.171842	0.818367
	O303	O	0.714109	0.704064	0.472887
	H304	H	0.716488	0.712753	0.484944
	H305	H	0.710127	0.714798	0.488805
	O306	O	0.587541	0.561578	0.654559
	H307	H	0.613788	0.566145	0.659261
	H308	H	0.586607	0.553130	0.673067
	O309	O	0.513333	0.646060	0.387431
	H310	H	0.519711	0.644622	0.393183
	H311	H	0.515846	0.639616	0.377094
	O312	O	0.320169	0.689638	0.679667
	H313	H	0.354310	0.679943	0.670369
	H314	H	0.321704	0.658799	0.655713
	O315	O	1.035250	1.227694	0.943495
	H316	H	1.028432	1.223353	0.947610
	H317	H	1.040863	1.224488	0.958234
	O318	O	0.714830	0.707574	0.698364
	H319	H	0.693870	0.722136	0.703055
	H320	H	0.732151	0.724386	0.722273
	O321	O	0.034026	1.224278	1.214642
	H322	H	0.033615	1.246468	1.243345
	H323	H	0.036129	1.207300	1.207904
	O324	O	0.784006	0.777795	0.034338
	H325	H	0.784951	0.785780	0.074302
	H326	H	0.753173	0.749755	0.043170
	O327	O	-0.264743	0.273081	0.729874
	H328	H	-0.263037	0.275621	0.744460
	H329	H	-0.251151	0.273819	0.729987
	O330	O	0.518192	0.457795	0.531911
	H331	H	0.518240	0.450304	0.538804
	H332	H	0.521753	0.447098	0.529203
	O333	O	0.326060	0.342165	0.354314
	H334	H	0.340541	0.352724	0.360001
	H335	H	0.333089	0.346574	0.363773
	O336	O	0.797744	0.213529	0.006075
	H337	H	0.803625	0.223801	0.009278
	H338	H	0.786660	0.220435	0.018060
	O339	O	1.226405	-0.045101	1.046699
	H340	H	1.223290	-0.070528	1.031799
	H341	H	1.224598	-0.048801	1.033185
	O342	O	-0.203275	-0.203069	0.205655
	H343	H	-0.182209	-0.179236	0.204764
	H344	H	-0.192263	-0.225096	0.225048
	O345	O	-0.112154	0.855757	0.958637
	H346	H	-0.124401	0.847337	0.968809
	H347	H	-0.118834	0.885851	0.961447
	O348	O	0.247938	0.244323	0.753893
	H349	H	0.239131	0.238311	0.751854
	H350	H	0.237817	0.230322	0.773799
	O351	O	0.532883	0.288591	0.275198
	H352	H	0.541264	0.288330	0.283949
	H353	H	0.536106	0.282374	0.253363
	O354	O	-0.448836	0.390642	0.410535
	H355	H	-0.451123	0.379121	0.405689
	H356	H	-0.444787	0.384000	0.416125
	O357	O	0.202824	0.198488	0.187100
	H358	H	0.200841	0.203094	0.162913
	H359	H	0.184669	0.195111	0.199645
	O360	O	0.147614	-0.015964	0.960379
	H361	H	0.151790	-0.009261	0.960935
	H362	H	0.139746	-0.032718	0.949869
	O363	O	-0.000253	0.007384	0.018127
	H364	H	-0.005095	0.013355	0.015182
	H365	H	0.009802	0.002070	0.029641
	O366	O	0.601562	0.411320	0.594004
	H367	H	0.598187	0.408985	0.603080
	H368	H	0.593104	0.406247	0.611667
	O369	O	1.038235	-0.198523	-0.232051
	H370	H	1.019296	-0.181539	-0.242214
	H371	H	1.034565	-0.207810	-0.250802
	O372	O	1.014443	1.139851	0.082298
	H373	H	1.011437	1.141032	0.097314
	H374	H	1.023991	1.129813	0.089463
	O375	O	0.808994	0.065271	0.022262
	H376	H	0.806635	0.075822	0.044906
	H377	H	0.804105	0.072383	0.026603
	O378	O	0.729006	0.535815	0.713733
	H379	H	0.746105	0.546831	0.726481
	H380	H	0.736864	0.559468	0.716139
	O381	O	-0.030227	1.087219	1.001023
	H382	H	-0.023739	1.086638	1.000723
	H383	H	-0.040836	1.098800	1.003691
	O384	O	1.091682	0.202526	0.791051
	H385	H	1.079248	0.196820	0.814238
	H386	H	1.081005	0.199726	0.784727
	O387	O	1.181547	0.780876	-0.014726
	H388	H	1.198570	0.761867	-0.034343
	H389	H	1.163822	0.781909	-0.041397
	O390	O	0.454130	0.492051	0.351291
	H391	H	0.454278	0.489077	0.353732
	H392	H	0.456696	0.484320	0.353108
	O393	O	0.732951	0.515487	0.455635
	H394	H	0.730997	0.517903	0.465361
	H395	H	0.737330	0.536925	0.469744
	O396	O	-0.168288	0.975436	0.924835
	H397	H	-0.176930	0.994751	0.929501
	H398	H	-0.172784	0.975391	0.945810
	O399	O	0.225722	0.227107	1.020173
	H400	H	0.242341	0.228041	1.025229
	H401	H	0.244916	0.224170	1.021887
	O402	O	0.292065	0.596304	0.339539
	H403	H	0.273186	0.605022	0.319254
	H404	H	0.292375	0.616564	0.329054
	O405	O	0.974602	-0.171540	1.138393
	H406	H	0.982495	-0.195771	1.155922
	H407	H	0.991315	-0.160259	1.120849
	O408	O	0.218836	-0.207357	-0.218395
	H409	H	0.248041	-0.241034	-0.251698
	H410	H	0.175814	-0.214558	-0.214713
	O411	O	0.582446	0.463166	0.695117
	H412	H	0.592463	0.438652	0.709054
	H413	H	0.583542	0.472966	0.697080
	O414	O	0.496732	0.348933	0.708669
	H415	H	0.494518	0.328190	0.727757
	H416	H	0.484591	0.352750	0.704801
	O417	O	0.460159	0.574148	0.279577
	H418	H	0.454218	0.577972	0.287970
	H419	H	0.459186	0.583221	0.273688
	O420	O	0.306900	0.684418	0.285350
	H421	H	0.321236	0.690463	0.307190
	H422	H	0.301613	0.704441	0.273396
	O423	O	-0.202772	0.030827	0.772394
	H424	H	-0.204948	0.052622	0.771534
	H425	H	-0.223306	0.032492	0.767444
	O426	O	0.293152	0.467619	0.713440
	H427	H	0.289021	0.456302	0.716918
	H428	H	0.273386	0.450931	0.723858
	O429	O	0.792607	0.970142	1.208041
	H430	H	0.787738	0.970208	1.215462
	H431	H	0.791585	0.956915	1.217612
	O432	O	0.708960	0.461356	0.277876
	H433	H	0.730994	0.459958	0.267011
	H434	H	0.717153	0.456085	0.288829
	O435	O	0.015795	0.904858	0.139204
	H436	H	0.026064	0.909939	0.128985
	H437	H	0.022499	0.893613	0.143871
	O438	O	0.293416	0.287317	0.522298
	H439	H	0.279648	0.275196	0.516944
	H440	H	0.290611	0.294693	0.519710
	O441	O	0.001678	-0.070749	0.219752
	H442	H	0.022100	-0.070993	0.214296
	H443	H	0.012155	-0.079753	0.229406
	O444	O	0.708490	0.295165	0.455538
	H445	H	0.703503	0.287016	0.475787
	H446	H	0.709038	0.292137	0.469510
	O447	O	0.221258	1.030973	1.212846
	H448	H	0.242013	1.030265	1.208311
	H449	H	0.233032	1.050923	1.216197
	O450	O	0.128012	0.833021	0.933037
	H451	H	0.118036	0.832598	0.917426
	H452	H	0.125487	0.830076	0.922522
	O453	O	0.086218	0.043601	0.765792
	H454	H	0.108055	0.041004	0.759911
	H455	H	0.080747	0.047513	0.770319
	O456	O	-0.102560	0.172762	1.064105
	H457	H	-0.098507	0.165148	1.073655
	H458	H	-0.105105	0.179078	1.081841
	O459	O	0.967354	0.947683	-0.241045
	H460	H	0.977893	0.963918	-0.236207
	H461	H	0.953749	0.963327	-0.242598
	O462	O	0.211527	0.799230	0.199570
	H463	H	0.208126	0.799553	0.195145
	H464	H	0.212845	0.813982	0.176117
	O465	O	1.170828	0.072207	-0.032339
	H466	H	1.180679	0.069508	-0.044221
	H467	H	1.171175	0.061181	-0.028423
	O468	O	0.449323	0.520580	0.435223
	H469	H	0.450958	0.515076	0.420090
	H470	H	0.446801	0.536830	0.434096
	O471	O	0.333020	0.539047	0.563833
	H472	H	0.330581	0.531139	0.574654
	H473	H	0.334424	0.526942	0.543631
	O474	O	0.507527	0.629928	0.429361
	H475	H	0.508472	0.620225	0.421821
	H476	H	0.520384	0.641030	0.425668
	O477	O	0.531623	0.470687	1.567130
	H478	H	0.544115	0.470610	1.572378
	H479	H	0.529317	0.464963	1.561043
	O480	O	0.708143	0.300618	0.292409
	H481	H	0.705961	0.303205	0.329533
	H482	H	0.689558	0.317494	0.299246
	O483	O	0.390051	0.293230	0.592915
	H484	H	0.380331	0.296319	0.569284
	H485	H	0.376332	0.282121	0.605033
	O486	O	1.208453	-0.044236	0.779225
	H487	H	1.203395	-0.075600	0.783116
	H488	H	1.225189	-0.056667	0.755516
	O489	O	1.042461	0.783503	0.051503
	H490	H	1.035093	0.789193	0.028099
	H491	H	1.036082	0.785105	0.040528
