data_Molecule from HDF5

_cell_length_a		16.180139
_cell_length_b		16.205265
_cell_length_c		16.317782
_cell_angle_alpha	89.784752
_cell_angle_beta	89.823590
_cell_angle_gamma	89.897009
_symmetry_space_group_name_H-M	'P 1'
_symmetry_Int_Tables_number		1

loop_
	_symmetry_equiv_pos_as_xyz
	x,y,z

loop_
	_atom_site_label
	_atom_site_type_symbol
	_atom_site_fract_x
	_atom_site_fract_y
	_atom_site_fract_z
	H0	H	0.393772	0.836041	0.714182
	H1	H	0.593257	0.163756	0.713686
	H2	H	0.595112	0.835806	0.284032
	H3	H	0.392456	0.163172	0.282816
	H4	H	0.711511	0.399713	0.836543
	H5	H	0.708576	0.596745	0.163240
	H6	H	0.280049	0.601702	0.834635
	H7	H	0.279692	0.401448	0.161449
	H8	H	0.829598	0.715848	0.397856
	H9	H	0.159125	0.713956	0.593791
	H10	H	0.829559	0.289484	0.596824
	H11	H	0.158534	0.286699	0.400006
	H12	H	0.831858	0.400743	0.716188
	H13	H	0.158600	0.602814	0.712623
	H14	H	0.831352	0.603380	0.280648
	H15	H	0.159125	0.401478	0.284193
	H16	H	0.396803	0.716751	0.835173
	H17	H	0.593468	0.714004	0.162477
	H18	H	0.594569	0.284648	0.836146
	H19	H	0.392929	0.283085	0.161180
	H20	H	0.710332	0.836293	0.400342
	H21	H	0.706299	0.165742	0.597235
	H22	H	0.279668	0.835648	0.597610
	H23	H	0.281404	0.165493	0.401841
	H24	H	0.895102	0.337253	0.215157
	H25	H	0.095976	0.664012	0.213449
	H26	H	0.096927	0.337937	0.782526
	H27	H	0.893045	0.664074	0.782718
	H28	H	0.210595	0.901836	0.335630
	H29	H	0.206305	0.098358	0.663519
	H30	H	0.779361	0.101618	0.335632
	H31	H	0.779931	0.902927	0.663591
	H32	H	0.330091	0.214832	0.900463
	H33	H	0.658999	0.211323	0.095935
	H34	H	0.329543	0.785220	0.097530
	H35	H	0.660539	0.788859	0.902195
	H36	H	0.329504	0.898983	0.214828
	H37	H	0.656811	0.098395	0.213696
	H38	H	0.329150	0.098938	0.785474
	H39	H	0.657489	0.898841	0.781872
	H40	H	0.895544	0.217729	0.335968
	H41	H	0.090643	0.214483	0.662417
	H42	H	0.092977	0.786321	0.334804
	H43	H	0.892405	0.782634	0.661493
	H44	H	0.209671	0.336463	0.900136
	H45	H	0.207745	0.664860	0.095000
	H46	H	0.782208	0.335896	0.098982
	H47	H	0.780153	0.664280	0.900568
	H48	H	0.387764	0.118392	0.580348
	H49	H	0.583326	0.884849	0.589937
	H50	H	0.586417	0.117373	0.402204
	H51	H	0.400779	0.885070	0.414418
	H52	H	0.586478	0.407855	0.114673
	H53	H	0.589312	0.593409	0.883085
	H54	H	0.404882	0.586619	0.111425
	H55	H	0.406169	0.405236	0.882313
	H56	H	0.111525	0.594276	0.404383
	H57	H	0.878486	0.591233	0.586438
	H58	H	0.112518	0.407025	0.588168
	H59	H	0.876473	0.409626	0.403192
	H60	H	0.111651	0.411432	0.592485
	H61	H	0.877765	0.588064	0.595134
	H62	H	0.111191	0.593839	0.405745
	H63	H	0.877333	0.408428	0.407515
	H64	H	0.404860	0.598516	0.114397
	H65	H	0.588432	0.594157	0.882966
	H66	H	0.585724	0.402058	0.116477
	H67	H	0.399484	0.405581	0.880832
	H68	H	0.581548	0.115964	0.405665
	H69	H	0.588563	0.883403	0.589091
	H70	H	0.396441	0.123655	0.608750
	H71	H	0.396474	0.880053	0.403724
	H72	H	0.901765	0.619385	0.093562
	H73	H	0.090352	0.383018	0.090332
	H74	H	0.089150	0.620227	0.898667
	H75	H	0.897701	0.381645	0.907865
	H76	H	0.077732	0.904771	0.612694
	H77	H	0.077770	0.084764	0.388695
	H78	H	0.904018	0.091032	0.613915
	H79	H	0.906915	0.905735	0.383925
	H80	H	0.612630	0.087270	0.897228
	H81	H	0.375811	0.093887	0.090529
	H82	H	0.614864	0.899538	0.096300
	H83	H	0.383442	0.918672	0.914921
	H84	H	0.608563	0.906556	0.082284
	H85	H	0.376971	0.089822	0.091051
	H86	H	0.615284	0.100243	0.904532
	H87	H	0.373858	0.911293	0.892155
	H88	H	0.901556	0.101335	0.616109
	H89	H	0.083075	0.109266	0.379633
	H90	H	0.091394	0.901529	0.618140
	H91	H	0.895621	0.906944	0.380625
	H92	H	0.078964	0.615040	0.906504
	H93	H	0.088359	0.381797	0.095957
	H94	H	0.905436	0.615994	0.089885
	H95	H	0.906853	0.381972	0.900623
	H96	H	0.416255	0.111739	0.589151
	H97	H	0.586102	0.883577	0.594530
	H98	H	0.586580	0.117181	0.407682
	H99	H	0.408543	0.883818	0.403484
	H100	H	0.590801	0.404803	0.116706
	H101	H	0.588273	0.594191	0.882692
	H102	H	0.395491	0.592120	0.116552
	H103	H	0.402940	0.411018	0.882918
	H104	H	0.111900	0.592499	0.403768
	H105	H	0.876037	0.596817	0.593545
	H106	H	0.113801	0.405945	0.593470
	H107	H	0.877931	0.412688	0.405922
	H108	H	0.900249	0.616985	0.087680
	H109	H	0.084903	0.384330	0.091366
	H110	H	0.092111	0.618797	0.911666
	H111	H	0.908443	0.386289	0.911673
	H112	H	0.088836	0.915613	0.613227
	H113	H	0.102986	0.091024	0.379407
	H114	H	0.893185	0.093136	0.617018
	H115	H	0.902126	0.915980	0.385454
	H116	H	0.608393	0.088240	0.911444
	H117	H	0.375195	0.092063	0.093807
	H118	H	0.609765	0.915870	0.096880
	H119	H	0.373911	0.894794	0.911869
	C120	C	0.371336	0.009133	0.621400
	C121	C	0.614743	0.992185	0.620042
	C122	C	0.615003	0.008236	0.377116
	C123	C	0.372374	0.991474	0.377908
	C124	C	0.616891	0.376972	0.008004
	C125	C	0.616958	0.622009	0.991057
	C126	C	0.372892	0.622255	0.006354
	C127	C	0.373545	0.378435	0.990035
	C128	C	0.003295	0.623250	0.375180
	C129	C	0.985910	0.621752	0.619635
	C130	C	0.003891	0.379972	0.620346
	C131	C	0.985896	0.380705	0.377132
	C132	C	0.873573	0.509190	0.120452
	C133	C	0.116662	0.491595	0.120341
	C134	C	0.116320	0.509748	0.876970
	C135	C	0.874183	0.491706	0.877660
	C136	C	0.115456	0.878729	0.506763
	C137	C	0.115928	0.123235	0.490712
	C138	C	0.871595	0.124213	0.507743
	C139	C	0.871868	0.879336	0.490630
	C140	C	0.502872	0.120930	0.876712
	C141	C	0.484883	0.120474	0.120198
	C142	C	0.502441	0.877892	0.120933
	C143	C	0.485737	0.879023	0.877182
	C144	C	0.373180	0.885220	0.676733
	C145	C	0.612486	0.115383	0.675323
	C146	C	0.614592	0.885099	0.321834
	C147	C	0.373350	0.114622	0.321575
	C148	C	0.673215	0.379283	0.885303
	C149	C	0.671317	0.618142	0.114051
	C150	C	0.317706	0.621333	0.883721
	C151	C	0.317542	0.380706	0.112607
	C152	C	0.879382	0.678547	0.377577
	C153	C	0.109806	0.677347	0.615752
	C154	C	0.879353	0.325947	0.617964
	C155	C	0.109635	0.324801	0.379691
	C156	C	0.880404	0.381422	0.677128
	C157	C	0.109672	0.621699	0.674609
	C158	C	0.880178	0.622637	0.319091
	C159	C	0.110020	0.381789	0.322294
	C160	C	0.375766	0.678561	0.883884
	C161	C	0.613779	0.676387	0.113762
	C162	C	0.615309	0.321875	0.885101
	C163	C	0.374368	0.322220	0.112592
	C164	C	0.671936	0.885436	0.379663
	C165	C	0.668940	0.116306	0.617607
	C166	C	0.316619	0.884944	0.618544
	C167	C	0.318087	0.115701	0.380753
	C168	C	0.875378	0.386036	0.177006
	C169	C	0.115241	0.615183	0.175277
	C170	C	0.115577	0.386499	0.821210
	C171	C	0.874193	0.615124	0.821473
	C172	C	0.172038	0.881333	0.384177
	C173	C	0.169596	0.119284	0.614101
	C174	C	0.816735	0.122244	0.384563
	C175	C	0.816753	0.881532	0.614164
	C176	C	0.378994	0.176553	0.879600
	C177	C	0.609162	0.174553	0.116782
	C178	C	0.378800	0.822774	0.118320
	C179	C	0.610439	0.824951	0.880337
	C180	C	0.378653	0.879104	0.176661
	C181	C	0.608236	0.118363	0.175346
	C182	C	0.378799	0.119027	0.822562
	C183	C	0.609177	0.880029	0.820960
	C184	C	0.874553	0.179868	0.384716
	C185	C	0.112198	0.177402	0.613622
	C186	C	0.113464	0.824061	0.383759
	C187	C	0.872893	0.822123	0.613163
	C188	C	0.171875	0.385859	0.879581
	C189	C	0.170865	0.615660	0.116370
	C190	C	0.818591	0.385519	0.119616
	C191	C	0.817848	0.615155	0.880030
	C192	C	0.393603	0.095457	0.599338
	C193	C	0.592573	0.906207	0.597688
	C194	C	0.591617	0.094520	0.398891
	C195	C	0.395239	0.905173	0.400567
	C196	C	0.594401	0.398631	0.093648
	C197	C	0.595063	0.600320	0.905029
	C198	C	0.395169	0.599147	0.092154
	C199	C	0.396278	0.400738	0.904220
	C200	C	0.089256	0.600295	0.397942
	C201	C	0.899705	0.598864	0.598026
	C202	C	0.090187	0.401729	0.598045
	C203	C	0.899667	0.403561	0.399078
	C204	C	0.895963	0.595325	0.097355
	C205	C	0.094339	0.405376	0.098880
	C206	C	0.093368	0.595623	0.899171
	C207	C	0.897636	0.405652	0.900202
	C208	C	0.092633	0.900730	0.592458
	C209	C	0.094297	0.101427	0.404596
	C210	C	0.893143	0.101865	0.593318
	C211	C	0.894831	0.902523	0.405535
	C212	C	0.589767	0.098513	0.898126
	C213	C	0.398426	0.098356	0.098287
	C214	C	0.588787	0.900632	0.098446
	C215	C	0.399562	0.901521	0.899670
	Zn216	Zn	0.493753	-0.000217	0.748456
	Zn217	Zn	0.493083	-0.001069	0.248770
	Zn218	Zn	0.745786	0.499070	-0.000468
	Zn219	Zn	0.244497	0.500552	-0.001783
	Zn220	Zn	-0.006376	0.749732	0.498310
	Zn221	Zn	-0.005763	0.252604	0.498701
	Zn222	Zn	-0.004680	0.501516	0.748575
	Zn223	Zn	-0.004859	0.500958	0.248044
	Zn224	Zn	0.495059	0.751105	-0.001577
	Zn225	Zn	0.494568	0.248576	-0.001403
	Zn226	Zn	0.743095	0.001372	0.499184
	Zn227	Zn	0.244221	0.000633	0.499559
	N228	N	0.406502	0.963284	0.678295
	N229	N	0.579260	0.037355	0.676811
	N230	N	0.580025	0.962832	0.320011
	N231	N	0.406537	0.036227	0.319638
	N232	N	0.674339	0.412825	0.962667
	N233	N	0.673438	0.585039	0.036596
	N234	N	0.315732	0.587256	0.961167
	N235	N	0.317154	0.415303	0.035507
	N236	N	0.956950	0.679063	0.411751
	N237	N	0.031863	0.677550	0.582245
	N238	N	0.956904	0.324971	0.583235
	N239	N	0.031541	0.324022	0.413096
	N240	N	0.958749	0.414317	0.678826
	N241	N	0.031560	0.588087	0.677199
	N242	N	0.958221	0.588824	0.317467
	N243	N	0.032034	0.415719	0.320286
	N244	N	0.409436	0.679276	0.961211
	N245	N	0.580710	0.678782	0.036180
	N246	N	0.580948	0.320224	0.962426
	N247	N	0.408434	0.320599	0.035250
	N248	N	0.672469	0.963164	0.413135
	N249	N	0.670569	0.038621	0.583754
	N250	N	0.315222	0.962918	0.584953
	N251	N	0.317365	0.038085	0.415024
	N252	N	0.908632	0.464206	0.177957
	N253	N	0.082188	0.537059	0.177890
	N254	N	0.082095	0.464633	0.819281
	N255	N	0.908522	0.537438	0.820030
	N256	N	0.173342	0.914683	0.461746
	N257	N	0.171998	0.086362	0.536474
	N258	N	0.814571	0.088181	0.461930
	N259	N	0.816086	0.916592	0.537278
	N260	N	0.457101	0.177948	0.912567
	N261	N	0.531273	0.176179	0.083345
	N262	N	0.456730	0.821936	0.084589
	N263	N	0.532639	0.824167	0.914725
	N264	N	0.456589	0.912721	0.178426
	N265	N	0.530058	0.085466	0.177601
	N266	N	0.457078	0.085308	0.820521
	N267	N	0.530702	0.912581	0.818604
	N268	N	0.907882	0.181143	0.462158
	N269	N	0.079552	0.180024	0.535835
	N270	N	0.079139	0.822396	0.460868
	N271	N	0.906254	0.820405	0.535410
	N272	N	0.172567	0.463489	0.913545
	N273	N	0.172020	0.537948	0.082942
	N274	N	0.817543	0.463010	0.085015
	N275	N	0.817594	0.537287	0.914224
	O276	O	-0.035133	0.021837	0.039278
	H277	H	-0.039813	0.024733	0.028127
	H278	H	-0.035730	0.021974	0.038492
	O279	O	0.542791	0.485335	0.566445
	H280	H	0.553580	0.487868	0.572737
	H281	H	0.544970	0.488660	0.561927
	O282	O	0.560750	0.416809	0.354223
	H283	H	0.568784	0.399537	0.363579
	H284	H	0.554263	0.418522	0.344176
	O285	O	0.316544	1.332992	0.582156
	H286	H	0.312525	1.340644	0.605163
	H287	H	0.319286	1.322619	0.579251
	O288	O	0.467947	0.539781	0.573697
	H289	H	0.474921	0.545817	0.560558
	H290	H	0.471848	0.539152	0.586954
	O291	O	1.005095	0.985257	1.079374
	H292	H	1.011847	0.984312	1.075331
	H293	H	1.013207	0.985480	1.091853
	O294	O	1.004078	1.004195	0.975256
	H295	H	1.002906	1.000324	0.978469
	H296	H	0.996257	0.997840	0.975125
	O297	O	0.900554	-0.003070	1.006754
	H298	H	0.897770	-0.008497	1.004279
	H299	H	0.896097	0.001613	1.009495
	O300	O	0.485995	0.397649	0.441865
	H301	H	0.484629	0.408420	0.445497
	H302	H	0.484346	0.393714	0.448043
	O303	O	0.992076	0.067150	0.086038
	H304	H	0.992995	0.071544	0.090759
	H305	H	0.987376	0.063867	0.096130
	O306	O	0.100007	0.944409	0.985895
	H307	H	0.102039	0.939472	0.995805
	H308	H	0.098743	0.945926	0.979257
	O309	O	0.475649	0.497628	0.457858
	H310	H	0.460537	0.503757	0.443598
	H311	H	0.478053	0.501310	0.469345
	O312	O	1.079540	-0.000063	1.001961
	H313	H	1.082533	0.002406	0.998267
	H314	H	1.073343	0.002672	1.019212
	O315	O	0.555189	0.542428	0.497457
	H316	H	0.553662	0.548321	0.501767
	H317	H	0.553193	0.543864	0.502564
	O318	O	0.549782	0.477042	0.549293
	H319	H	0.560704	0.474907	0.555967
	H320	H	0.552017	0.474076	0.551611
	O321	O	0.938314	1.022353	0.946122
	H322	H	0.951868	1.007747	0.952140
	H323	H	0.943953	1.028518	0.938870
	O324	O	0.482746	0.524169	0.496409
	H325	H	0.481915	0.513322	0.491223
	H326	H	0.478363	0.514725	0.492560
	O327	O	0.603814	0.606575	0.517799
	H328	H	0.614557	0.603601	0.510488
	H329	H	0.613919	0.618615	0.520401
	O330	O	1.003407	-0.065279	1.025566
	H331	H	1.013275	-0.065885	1.022445
	H332	H	1.002611	-0.076609	1.029773
	O333	O	0.988039	0.955949	0.085059
	H334	H	0.984310	0.955162	0.084334
	H335	H	0.991662	0.955622	0.084355
	O336	O	0.383074	0.568600	0.524444
	H337	H	0.372924	0.561918	0.535273
	H338	H	0.391346	0.578871	0.523815
	O339	O	0.496945	0.504176	0.420452
	H340	H	0.495853	0.499736	0.417950
	H341	H	0.501149	0.491389	0.415150
	O342	O	-0.036797	0.945817	-0.000838
	H343	H	-0.040370	0.949594	0.007100
	H344	H	-0.037706	0.948761	0.007734
	O345	O	-0.002554	0.034098	-0.026861
	H346	H	-0.006519	0.039125	-0.017484
	H347	H	-0.003421	0.041035	-0.039423
	O348	O	0.545157	0.560038	0.512745
	H349	H	0.552109	0.551827	0.513225
	H350	H	0.537613	0.562652	0.505826
	O351	O	0.552437	0.382548	0.440431
	H352	H	0.546132	0.380845	0.436322
	H353	H	0.550288	0.376362	0.435452
	O354	O	0.408531	0.504940	0.588835
	H355	H	0.401476	0.514317	0.588914
	H356	H	0.409059	0.501206	0.583801
	O357	O	0.530387	0.515940	0.526320
	H358	H	0.531266	0.531020	0.523360
	H359	H	0.537247	0.522311	0.522464
	O360	O	0.052205	-0.024031	-0.031616
	H361	H	0.058622	-0.029924	-0.024853
	H362	H	0.047635	-0.034973	-0.044417
	O363	O	0.510338	0.552493	0.492462
	H364	H	0.505817	0.554257	0.492439
	H365	H	0.507295	0.553213	0.484497
	O366	O	-0.021403	-0.077108	0.932562
	H367	H	-0.025040	-0.082749	0.924580
	H368	H	-0.008820	-0.075048	0.926641
	O369	O	0.396147	0.541224	0.415493
	H370	H	0.396712	0.542871	0.416949
	H371	H	0.382007	0.537500	0.401611
