data_Molecule from HDF5

_cell_length_a		16.064093
_cell_length_b		16.536377
_cell_length_c		16.186316
_cell_angle_alpha	90.371281
_cell_angle_beta	90.302409
_cell_angle_gamma	90.172238
_symmetry_space_group_name_H-M	'P 1'
_symmetry_Int_Tables_number		1

loop_
	_symmetry_equiv_pos_as_xyz
	x,y,z

loop_
	_atom_site_label
	_atom_site_type_symbol
	_atom_site_fract_x
	_atom_site_fract_y
	_atom_site_fract_z
	H0	H	0.398807	0.836120	0.719597
	H1	H	0.601900	0.158237	0.722288
	H2	H	0.598271	0.836659	0.284303
	H3	H	0.398161	0.159144	0.288692
	H4	H	0.708871	0.403365	0.838901
	H5	H	0.712745	0.596142	0.169650
	H6	H	0.284923	0.593905	0.839197
	H7	H	0.288854	0.404546	0.170337
	H8	H	0.835119	0.710312	0.401741
	H9	H	0.162594	0.713809	0.610592
	H10	H	0.834069	0.279147	0.604690
	H11	H	0.162404	0.278571	0.402072
	H12	H	0.831816	0.399292	0.715304
	H13	H	0.163850	0.593459	0.719899
	H14	H	0.832997	0.589653	0.293297
	H15	H	0.164974	0.397465	0.292887
	H16	H	0.395034	0.715675	0.841186
	H17	H	0.604925	0.719581	0.166268
	H18	H	0.604046	0.278052	0.842951
	H19	H	0.394521	0.280977	0.166728
	H20	H	0.710898	0.834317	0.405427
	H21	H	0.717636	0.157653	0.604082
	H22	H	0.284510	0.834413	0.599401
	H23	H	0.282918	0.158325	0.406541
	H24	H	0.898542	0.334920	0.218308
	H25	H	0.100004	0.656903	0.225089
	H26	H	0.099152	0.336521	0.787746
	H27	H	0.895090	0.656692	0.785881
	H28	H	0.207397	0.899781	0.336830
	H29	H	0.212587	0.091857	0.669012
	H30	H	0.787580	0.087777	0.338362
	H31	H	0.786442	0.899737	0.669552
	H32	H	0.334340	0.213857	0.900640
	H33	H	0.663285	0.215829	0.107198
	H34	H	0.337071	0.780311	0.107872
	H35	H	0.662851	0.781259	0.900507
	H36	H	0.332833	0.904223	0.212026
	H37	H	0.664233	0.098507	0.219412
	H38	H	0.333442	0.094602	0.790177
	H39	H	0.665707	0.902222	0.791944
	H40	H	0.891511	0.213117	0.341777
	H41	H	0.104023	0.215485	0.666723
	H42	H	0.101377	0.775928	0.341721
	H43	H	0.896558	0.779410	0.667288
	H44	H	0.213864	0.336797	0.905987
	H45	H	0.215085	0.659067	0.106206
	H46	H	0.781535	0.336628	0.102340
	H47	H	0.784212	0.659303	0.906807
	H48	H	0.414405	0.109619	0.601284
	H49	H	0.590902	0.884452	0.592790
	H50	H	0.585506	0.107610	0.416562
	H51	H	0.410572	0.886154	0.412880
	H52	H	0.593785	0.409821	0.121759
	H53	H	0.597332	0.591302	0.884707
	H54	H	0.407529	0.597797	0.123215
	H55	H	0.406630	0.399031	0.886025
	H56	H	0.117543	0.588839	0.415703
	H57	H	0.879829	0.585796	0.601491
	H58	H	0.113977	0.403897	0.589669
	H59	H	0.884314	0.414225	0.410737
	H60	H	0.115552	0.408949	0.597565
	H61	H	0.878014	0.596381	0.594302
	H62	H	0.117351	0.588412	0.416185
	H63	H	0.875190	0.394912	0.401714
	H64	H	0.407574	0.588240	0.120094
	H65	H	0.584848	0.585018	0.890968
	H66	H	0.583707	0.407719	0.118917
	H67	H	0.405123	0.407842	0.887902
	H68	H	0.601041	0.112371	0.415994
	H69	H	0.595231	0.880232	0.598990
	H70	H	0.408086	0.108374	0.588140
	H71	H	0.394859	0.880042	0.408253
	H72	H	0.909332	0.610661	0.102196
	H73	H	0.092490	0.380107	0.107280
	H74	H	0.091616	0.612805	0.911188
	H75	H	0.907470	0.385305	0.916442
	H76	H	0.081044	0.905324	0.616771
	H77	H	0.086139	0.088293	0.388850
	H78	H	0.909805	0.089922	0.621607
	H79	H	0.907457	0.895286	0.386649
	H80	H	0.617846	0.094544	0.913441
	H81	H	0.379856	0.091852	0.097510
	H82	H	0.612986	0.917237	0.089024
	H83	H	0.384081	0.909293	0.915522
	H84	H	0.620807	0.908746	0.103693
	H85	H	0.379992	0.095697	0.093105
	H86	H	0.616021	0.091686	0.918724
	H87	H	0.379235	0.906282	0.906848
	H88	H	0.909563	0.088787	0.619536
	H89	H	0.087561	0.092537	0.385962
	H90	H	0.092366	0.893781	0.624107
	H91	H	0.903465	0.900615	0.385951
	H92	H	0.088220	0.611034	0.911703
	H93	H	0.086249	0.385812	0.094132
	H94	H	0.908642	0.611281	0.098328
	H95	H	0.897410	0.380976	0.910094
	H96	H	0.400552	0.114213	0.599829
	H97	H	0.587012	0.883663	0.600444
	H98	H	0.591569	0.113704	0.403596
	H99	H	0.407762	0.880270	0.396487
	H100	H	0.590710	0.399962	0.123324
	H101	H	0.584529	0.599190	0.886832
	H102	H	0.415776	0.593938	0.119041
	H103	H	0.413204	0.404914	0.889410
	H104	H	0.117461	0.588010	0.415785
	H105	H	0.883567	0.586009	0.588899
	H106	H	0.117834	0.399697	0.597953
	H107	H	0.882330	0.395144	0.423950
	H108	H	0.906086	0.611956	0.101522
	H109	H	0.101519	0.381116	0.094290
	H110	H	0.090810	0.611338	0.914962
	H111	H	0.907875	0.382084	0.903843
	H112	H	0.097768	0.910253	0.621159
	H113	H	0.090789	0.088721	0.386434
	H114	H	0.910495	0.089319	0.620719
	H115	H	0.909934	0.901277	0.388758
	H116	H	0.616101	0.088778	0.913037
	H117	H	0.382040	0.090217	0.092111
	H118	H	0.618704	0.898647	0.088322
	H119	H	0.381895	0.900176	0.915042
	C120	C	0.377705	0.004711	0.625413
	C121	C	0.622311	0.988722	0.627157
	C122	C	0.620844	0.004816	0.381582
	C123	C	0.375314	0.989011	0.379120
	C124	C	0.619455	0.377086	0.013180
	C125	C	0.620145	0.621139	0.995618
	C126	C	0.378445	0.621022	0.012861
	C127	C	0.378195	0.376464	0.995942
	C128	C	0.007913	0.615751	0.385530
	C129	C	0.989584	0.618027	0.626052
	C130	C	0.006889	0.375308	0.624487
	C131	C	0.989937	0.372991	0.382859
	C132	C	0.877455	0.505136	0.127750
	C133	C	0.122654	0.488687	0.128517
	C134	C	0.119879	0.505657	0.882760
	C135	C	0.875278	0.488829	0.881492
	C136	C	0.119490	0.874053	0.512266
	C137	C	0.119571	0.118520	0.495303
	C138	C	0.878528	0.116790	0.512309
	C139	C	0.877253	0.872269	0.495676
	C140	C	0.507678	0.119706	0.883773
	C141	C	0.489699	0.121314	0.125258
	C142	C	0.508472	0.879039	0.123225
	C143	C	0.490659	0.876942	0.883010
	C144	C	0.379072	0.883930	0.680917
	C145	C	0.621986	0.109849	0.683880
	C146	C	0.618428	0.884478	0.323755
	C147	C	0.377419	0.110560	0.325801
	C148	C	0.672971	0.381361	0.888788
	C149	C	0.676311	0.618226	0.119724
	C150	C	0.322159	0.616106	0.888775
	C151	C	0.324319	0.381665	0.120038
	C152	C	0.884020	0.671437	0.384095
	C153	C	0.113533	0.674721	0.628126
	C154	C	0.883010	0.318170	0.624138
	C155	C	0.113587	0.317211	0.383510
	C156	C	0.881978	0.377804	0.679012
	C157	C	0.114079	0.615203	0.682953
	C158	C	0.883142	0.611387	0.330107
	C159	C	0.114840	0.376219	0.329017
	C160	C	0.377026	0.676626	0.889796
	C161	C	0.622564	0.679421	0.118118
	C162	C	0.620505	0.319191	0.890791
	C163	C	0.377621	0.320549	0.118356
	C164	C	0.674196	0.882959	0.384156
	C165	C	0.679671	0.109466	0.625229
	C166	C	0.322443	0.882991	0.620942
	C167	C	0.319966	0.110073	0.384188
	C168	C	0.878331	0.383571	0.181387
	C169	C	0.120607	0.609310	0.186259
	C170	C	0.118980	0.384840	0.826083
	C171	C	0.876147	0.609040	0.824925
	C172	C	0.172185	0.877961	0.387314
	C173	C	0.175920	0.114621	0.619327
	C174	C	0.823664	0.110924	0.388065
	C175	C	0.822771	0.877538	0.619765
	C176	C	0.383695	0.175522	0.882359
	C177	C	0.613910	0.177489	0.126147
	C178	C	0.385251	0.820815	0.124767
	C179	C	0.614315	0.820427	0.882435
	C180	C	0.383325	0.882080	0.177163
	C181	C	0.614208	0.119236	0.182101
	C182	C	0.383048	0.116261	0.827430
	C183	C	0.615545	0.880363	0.828188
	C184	C	0.875565	0.173128	0.390059
	C185	C	0.121439	0.175536	0.618348
	C186	C	0.119440	0.816248	0.389751
	C187	C	0.877521	0.817604	0.618709
	C188	C	0.176218	0.384941	0.884758
	C189	C	0.177635	0.610437	0.126833
	C190	C	0.820032	0.384436	0.123524
	C191	C	0.820677	0.610362	0.885044
	C192	C	0.400951	0.088935	0.603148
	C193	C	0.598248	0.904747	0.604160
	C194	C	0.599095	0.089412	0.405109
	C195	C	0.397710	0.904069	0.399855
	C196	C	0.596380	0.399369	0.098994
	C197	C	0.596053	0.598482	0.909969
	C198	C	0.403049	0.599696	0.098462
	C199	C	0.401495	0.397773	0.909873
	C200	C	0.095007	0.594550	0.409115
	C201	C	0.903008	0.595914	0.601981
	C202	C	0.093237	0.397894	0.602000
	C203	C	0.903120	0.394945	0.405352
	C204	C	0.901069	0.589385	0.106814
	C205	C	0.100142	0.404362	0.105357
	C206	C	0.096982	0.590001	0.905791
	C207	C	0.897677	0.404535	0.903600
	C208	C	0.097022	0.896615	0.598262
	C209	C	0.095282	0.096401	0.409368
	C210	C	0.902843	0.095545	0.598426
	C211	C	0.900203	0.893066	0.409442
	C212	C	0.594023	0.098053	0.907798
	C213	C	0.403074	0.099158	0.101303
	C214	C	0.595085	0.901577	0.100255
	C215	C	0.404122	0.898769	0.905907
	Zn216	Zn	0.499392	-0.001952	0.756582
	Zn217	Zn	0.498834	-0.001271	0.251189
	Zn218	Zn	0.747267	0.498413	0.004801
	Zn219	Zn	0.250588	0.498393	0.004785
	Zn220	Zn	-0.000683	0.744845	0.504834
	Zn221	Zn	-0.001861	0.246481	0.504250
	Zn222	Zn	-0.002267	0.496388	0.753079
	Zn223	Zn	-0.000178	0.495232	0.257694
	Zn224	Zn	0.499652	0.749852	0.003991
	Zn225	Zn	0.498948	0.248078	0.004208
	Zn226	Zn	0.751211	-0.004480	0.504134
	Zn227	Zn	0.247173	-0.004072	0.502567
	N228	N	0.412846	0.960541	0.683690
	N229	N	0.587053	0.033880	0.685331
	N230	N	0.585913	0.961311	0.322155
	N231	N	0.411211	0.034311	0.322657
	N232	N	0.672448	0.416765	0.965946
	N233	N	0.674885	0.582519	0.042692
	N234	N	0.322804	0.582287	0.966280
	N235	N	0.324774	0.415881	0.043043
	N236	N	0.962902	0.674336	0.417900
	N237	N	0.035020	0.676847	0.593860
	N238	N	0.961533	0.316492	0.590864
	N239	N	0.034698	0.314878	0.416162
	N240	N	0.959901	0.412729	0.679432
	N241	N	0.036078	0.580583	0.681820
	N242	N	0.961180	0.577431	0.330951
	N243	N	0.036829	0.410106	0.328385
	N244	N	0.411330	0.679758	0.967889
	N245	N	0.588622	0.681555	0.039960
	N246	N	0.588072	0.316355	0.969129
	N247	N	0.410319	0.316937	0.039851
	N248	N	0.675895	0.958848	0.419459
	N249	N	0.679881	0.033262	0.590657
	N250	N	0.321310	0.959064	0.587194
	N251	N	0.318622	0.033370	0.416572
	N252	N	0.913370	0.459518	0.184133
	N253	N	0.087273	0.532654	0.187520
	N254	N	0.084557	0.460944	0.824709
	N255	N	0.909264	0.532533	0.822593
	N256	N	0.172438	0.913346	0.464600
	N257	N	0.174857	0.079818	0.541978
	N258	N	0.825363	0.076552	0.465148
	N259	N	0.822345	0.910712	0.542108
	N260	N	0.462227	0.177666	0.916770
	N261	N	0.535492	0.179131	0.091722
	N262	N	0.464101	0.818880	0.091939
	N263	N	0.535549	0.818125	0.915569
	N264	N	0.460901	0.917605	0.176323
	N265	N	0.535952	0.084856	0.181526
	N266	N	0.461071	0.082315	0.828111
	N267	N	0.537737	0.914788	0.828559
	N268	N	0.909235	0.176803	0.468407
	N269	N	0.087308	0.178199	0.540232
	N270	N	0.087444	0.813667	0.468334
	N271	N	0.910696	0.814181	0.540574
	N272	N	0.177086	0.461124	0.919162
	N273	N	0.179173	0.534419	0.091885
	N274	N	0.819205	0.460980	0.090799
	N275	N	0.819786	0.534543	0.919401
	O276	O	0.991372	-0.060435	1.077779
	H277	H	0.986961	-0.059604	1.075334
	H278	H	0.996863	-0.061815	1.072520
	O279	O	0.515083	0.374096	0.379489
	H280	H	0.525718	0.366756	0.373167
	H281	H	0.529585	0.375422	0.374420
	O282	O	0.516436	0.446241	0.535285
	H283	H	0.526355	0.453880	0.553780
	H284	H	0.500496	0.431841	0.548559
	O285	O	0.375360	0.546461	0.404149
	H286	H	0.366367	0.543221	0.400271
	H287	H	0.373976	0.541477	0.403406
	O288	O	0.579118	0.485655	0.639048
	H289	H	0.570102	0.476679	0.625417
	H290	H	0.583180	0.489562	0.658706
	O291	O	0.077633	-0.159818	0.985461
	H292	H	0.086465	-0.154286	0.976434
	H293	H	0.085599	-0.167505	0.973686
	O294	O	0.936775	0.851212	0.018604
	H295	H	0.936435	0.838569	0.020704
	H296	H	0.944016	0.843501	0.010464
	O297	O	0.964767	1.093802	-0.010322
	H298	H	0.962241	1.086350	-0.000807
	H299	H	0.968822	1.097531	-0.012076
	O300	O	0.503274	0.611434	0.432024
	H301	H	0.511752	0.615855	0.431044
	H302	H	0.489045	0.625033	0.418750
	O303	O	0.503108	0.431109	0.584472
	H304	H	0.497913	0.410682	0.587403
	H305	H	0.490828	0.423849	0.586132
	O306	O	0.475713	0.432153	0.597898
	H307	H	0.462011	0.434706	0.595269
	H308	H	0.484424	0.435605	0.606155
	O309	O	0.472665	0.496216	0.440955
	H310	H	0.471384	0.496872	0.448479
	H311	H	0.463744	0.498575	0.453698
	O312	O	1.017318	0.883483	0.860543
	H313	H	1.010773	0.900343	0.864478
	H314	H	1.024499	0.875613	0.850634
	O315	O	1.045478	1.102947	-0.003119
	H316	H	1.041886	1.099468	0.007998
	H317	H	1.042214	1.112419	-0.010039
	O318	O	0.415183	0.357563	0.485094
	H319	H	0.425381	0.356893	0.485031
	H320	H	0.412878	0.354918	0.473144
	O321	O	0.499722	0.528899	0.390911
	H322	H	0.512335	0.541127	0.376990
	H323	H	0.497337	0.525645	0.390566
	O324	O	-0.023805	0.966458	0.925373
	H325	H	-0.025974	0.969386	0.939461
	H326	H	-0.021336	0.966337	0.926687
	O327	O	-0.105391	1.053394	0.938711
	H328	H	-0.105436	1.053491	0.932968
	H329	H	-0.114041	1.055442	0.942735
	O330	O	0.043120	0.067142	0.022548
	H331	H	0.057510	0.074769	0.035338
	H332	H	0.028895	0.056953	0.022904
	O333	O	0.523926	0.482045	0.504683
	H334	H	0.527714	0.476460	0.513960
	H335	H	0.531595	0.479247	0.497506
	O336	O	0.074350	-0.027998	0.021404
	H337	H	0.055189	-0.032280	0.006838
	H338	H	0.076419	-0.013662	0.031394
	O339	O	0.005649	-0.122266	-0.071964
	H340	H	0.012589	-0.129469	-0.063693
	H341	H	0.002449	-0.110435	-0.077558
	O342	O	0.090964	1.151431	0.153456
	H343	H	0.094015	1.147343	0.150405
	H344	H	0.097614	1.158654	0.172227
	O345	O	-0.044433	1.018294	0.911846
	H346	H	-0.046219	1.011318	0.916935
	H347	H	-0.037516	1.023790	0.899453
	O348	O	0.502630	0.577776	0.493186
	H349	H	0.498913	0.568380	0.493434
	H350	H	0.492381	0.579863	0.474680
	O351	O	0.400224	0.502345	0.514009
	H352	H	0.397113	0.501217	0.519741
	H353	H	0.403299	0.507413	0.509523
	O354	O	-0.088515	0.979309	0.073740
	H355	H	-0.094360	0.967962	0.077611
	H356	H	-0.082528	0.986753	0.073262
	O357	O	0.556316	0.447396	0.475874
	H358	H	0.557628	0.450794	0.488728
	H359	H	0.555509	0.459362	0.475310
	O360	O	0.720582	0.296026	0.562463
	H361	H	0.720060	0.299644	0.569869
	H362	H	0.725080	0.297356	0.553613
	O363	O	0.452025	0.446667	0.573900
	H364	H	0.453944	0.442107	0.575284
	H365	H	0.448498	0.446227	0.581766
	O366	O	0.576610	0.689011	0.635084
	H367	H	0.573471	0.692947	0.641003
	H368	H	0.585150	0.692603	0.637004
	O369	O	0.988287	0.101560	0.077626
	H370	H	0.991752	0.115911	0.078481
	H371	H	0.992050	0.095127	0.087253
	O372	O	0.452245	0.444263	0.525148
	H373	H	0.458206	0.453374	0.535898
	H374	H	0.456205	0.443231	0.506192
	O375	O	0.928826	0.016818	1.065572
	H376	H	0.934807	0.006088	1.054596
	H377	H	0.926367	0.019660	1.064322
	O378	O	0.099199	0.979890	0.068366
	H379	H	0.087408	0.976192	0.078237
	H380	H	0.108335	0.974925	0.055682
	O381	O	0.493593	0.618805	0.632276
	H382	H	0.510232	0.628883	0.643545
	H383	H	0.504764	0.625415	0.633331
	O384	O	1.080418	1.019313	-0.046014
	H385	H	1.070506	1.036025	-0.043921
	H386	H	1.091085	1.032430	-0.042799
	O387	O	1.060282	0.050533	0.976472
	H388	H	1.066120	0.062363	0.977795
	H389	H	1.050523	0.041429	0.978242
	O390	O	1.013641	1.016019	0.002577
	H391	H	1.015956	1.009064	0.002538
	H392	H	1.026564	1.015476	0.002643
	O393	O	0.632738	0.626735	0.541243
	H394	H	0.633105	0.644868	0.536490
	H395	H	0.621680	0.620785	0.539401
