data_Molecule from HDF5

_cell_length_a		16.251330
_cell_length_b		16.245906
_cell_length_c		16.308549
_cell_angle_alpha	89.930605
_cell_angle_beta	90.271438
_cell_angle_gamma	90.066233
_symmetry_space_group_name_H-M	'P 1'
_symmetry_Int_Tables_number		1

loop_
	_symmetry_equiv_pos_as_xyz
	x,y,z

loop_
	_atom_site_label
	_atom_site_type_symbol
	_atom_site_fract_x
	_atom_site_fract_y
	_atom_site_fract_z
	H0	H	0.391938	0.837413	0.711097
	H1	H	0.592449	0.163978	0.710543
	H2	H	0.589598	0.837305	0.281185
	H3	H	0.390886	0.164253	0.279384
	H4	H	0.706285	0.404632	0.833833
	H5	H	0.707221	0.599689	0.159608
	H6	H	0.276152	0.600293	0.834157
	H7	H	0.279193	0.402747	0.160462
	H8	H	0.826580	0.713984	0.397744
	H9	H	0.154739	0.714706	0.595987
	H10	H	0.827373	0.287008	0.594283
	H11	H	0.155479	0.286523	0.401065
	H12	H	0.828075	0.400029	0.712375
	H13	H	0.155127	0.599243	0.712203
	H14	H	0.827585	0.599340	0.281327
	H15	H	0.155324	0.400813	0.282673
	H16	H	0.393195	0.714795	0.831959
	H17	H	0.593197	0.717516	0.159218
	H18	H	0.591638	0.288351	0.833044
	H19	H	0.393831	0.285117	0.159320
	H20	H	0.704070	0.836158	0.398611
	H21	H	0.705769	0.164299	0.593575
	H22	H	0.279104	0.835861	0.592759
	H23	H	0.275107	0.164075	0.394715
	H24	H	0.893448	0.336590	0.210360
	H25	H	0.092268	0.664395	0.213391
	H26	H	0.091053	0.336845	0.783528
	H27	H	0.893023	0.664118	0.781518
	H28	H	0.204793	0.900772	0.332620
	H29	H	0.208954	0.099073	0.659916
	H30	H	0.777177	0.097564	0.333517
	H31	H	0.776109	0.900427	0.659639
	H32	H	0.329124	0.217605	0.894027
	H33	H	0.656445	0.214291	0.093952
	H34	H	0.328207	0.786819	0.092391
	H35	H	0.656622	0.789508	0.899293
	H36	H	0.327418	0.901803	0.209042
	H37	H	0.654426	0.101775	0.212415
	H38	H	0.328632	0.100622	0.778762
	H39	H	0.656319	0.904780	0.783633
	H40	H	0.891239	0.216295	0.334438
	H41	H	0.091310	0.214732	0.661028
	H42	H	0.088806	0.785109	0.333189
	H43	H	0.892650	0.785229	0.660202
	H44	H	0.207738	0.338536	0.899189
	H45	H	0.207443	0.665274	0.097582
	H46	H	0.777095	0.338254	0.096527
	H47	H	0.779548	0.665928	0.899468
	H48	H	0.399933	0.120315	0.599698
	H49	H	0.596217	0.877403	0.598398
	H50	H	0.583357	0.117701	0.403837
	H51	H	0.385525	0.880621	0.403363
	H52	H	0.599059	0.413274	0.115295
	H53	H	0.582618	0.594122	0.880477
	H54	H	0.410358	0.601261	0.111677
	H55	H	0.394445	0.408560	0.878665
	H56	H	0.109981	0.601198	0.406194
	H57	H	0.871217	0.593745	0.596896
	H58	H	0.110808	0.403512	0.594795
	H59	H	0.873327	0.410138	0.395877
	H60	H	0.106533	0.407220	0.585779
	H61	H	0.874402	0.597689	0.584745
	H62	H	0.103457	0.588300	0.414074
	H63	H	0.873037	0.400486	0.404972
	H64	H	0.391824	0.599216	0.116488
	H65	H	0.586593	0.600531	0.878020
	H66	H	0.574186	0.416786	0.106730
	H67	H	0.400143	0.414770	0.882245
	H68	H	0.584304	0.117364	0.403588
	H69	H	0.569960	0.885566	0.597113
	H70	H	0.411549	0.111972	0.580948
	H71	H	0.403207	0.881627	0.389391
	H72	H	0.896323	0.619271	0.087187
	H73	H	0.085205	0.381524	0.100824
	H74	H	0.090265	0.620072	0.903130
	H75	H	0.896868	0.385046	0.911140
	H76	H	0.091257	0.908611	0.614186
	H77	H	0.088820	0.082035	0.382732
	H78	H	0.904100	0.095374	0.612915
	H79	H	0.898499	0.902283	0.379468
	H80	H	0.604079	0.082773	0.906459
	H81	H	0.376773	0.090385	0.086973
	H82	H	0.609146	0.912906	0.095000
	H83	H	0.373558	0.908412	0.897084
	H84	H	0.611632	0.902529	0.090639
	H85	H	0.373906	0.095119	0.089375
	H86	H	0.612716	0.095614	0.889230
	H87	H	0.374236	0.903567	0.903306
	H88	H	0.893561	0.098758	0.617055
	H89	H	0.071544	0.094492	0.385392
	H90	H	0.081401	0.911307	0.610316
	H91	H	0.892974	0.908213	0.379245
	H92	H	0.080494	0.618163	0.898990
	H93	H	0.077208	0.388961	0.086519
	H94	H	0.899971	0.619274	0.094934
	H95	H	0.893613	0.381506	0.900310
	H96	H	0.389096	0.118293	0.578959
	H97	H	0.585771	0.887254	0.574338
	H98	H	0.583864	0.117621	0.403099
	H99	H	0.405537	0.888616	0.411240
	H100	H	0.581956	0.393658	0.116580
	H101	H	0.590068	0.594008	0.878840
	H102	H	0.401432	0.584031	0.109189
	H103	H	0.402845	0.406353	0.881157
	H104	H	0.107442	0.586967	0.398294
	H105	H	0.876921	0.584990	0.588857
	H106	H	0.107464	0.413436	0.594316
	H107	H	0.877646	0.412788	0.407559
	H108	H	0.905053	0.616490	0.088595
	H109	H	0.094013	0.383779	0.085323
	H110	H	0.081967	0.616131	0.909237
	H111	H	0.904868	0.385913	0.902024
	H112	H	0.083403	0.901205	0.612965
	H113	H	0.089620	0.102905	0.376276
	H114	H	0.895229	0.087811	0.612600
	H115	H	0.900610	0.909379	0.381931
	H116	H	0.610167	0.105403	0.910396
	H117	H	0.375735	0.095663	0.083615
	H118	H	0.606655	0.911138	0.084200
	H119	H	0.376400	0.911615	0.903500
	C120	C	0.371226	0.008684	0.615891
	C121	C	0.613073	0.991689	0.617634
	C122	C	0.612637	0.009277	0.374740
	C123	C	0.368839	0.992100	0.372772
	C124	C	0.613746	0.380291	0.005191
	C125	C	0.614706	0.624115	0.987325
	C126	C	0.371559	0.623172	0.004557
	C127	C	0.370465	0.379850	0.988342
	C128	C	-0.000822	0.621575	0.375896
	C129	C	0.982647	0.621263	0.618866
	C130	C	0.000002	0.379201	0.619399
	C131	C	0.982900	0.378642	0.375367
	C132	C	0.871196	0.509848	0.118492
	C133	C	0.114329	0.492951	0.119942
	C134	C	0.113253	0.509759	0.875739
	C135	C	0.870065	0.492280	0.875436
	C136	C	0.113331	0.878334	0.504583
	C137	C	0.113149	0.121960	0.489072
	C138	C	0.869470	0.122142	0.505795
	C139	C	0.869325	0.878312	0.488317
	C140	C	0.500945	0.123977	0.872558
	C141	C	0.483628	0.122548	0.116457
	C142	C	0.500192	0.880423	0.117148
	C143	C	0.483452	0.880301	0.874283
	C144	C	0.372502	0.885781	0.672478
	C145	C	0.612039	0.115152	0.672580
	C146	C	0.610041	0.886086	0.319272
	C147	C	0.370322	0.115188	0.317043
	C148	C	0.668544	0.383763	0.882416
	C149	C	0.669842	0.621175	0.110733
	C150	C	0.314931	0.620612	0.882366
	C151	C	0.316223	0.381887	0.111346
	C152	C	0.875816	0.676451	0.377580
	C153	C	0.105861	0.676541	0.616116
	C154	C	0.876492	0.324029	0.615773
	C155	C	0.106567	0.324032	0.379663
	C156	C	0.876633	0.380441	0.674206
	C157	C	0.105971	0.619528	0.674434
	C158	C	0.876442	0.619647	0.319447
	C159	C	0.106514	0.380657	0.320704
	C160	C	0.373279	0.677245	0.881248
	C161	C	0.612603	0.679258	0.110488
	C162	C	0.611632	0.325841	0.882104
	C163	C	0.373259	0.323236	0.110627
	C164	C	0.666979	0.885553	0.377683
	C165	C	0.668431	0.115288	0.614710
	C166	C	0.316375	0.885080	0.613668
	C167	C	0.313389	0.115201	0.375051
	C168	C	0.873295	0.386088	0.172937
	C169	C	0.112462	0.615742	0.175722
	C170	C	0.111295	0.386111	0.821264
	C171	C	0.872935	0.615679	0.820140
	C172	C	0.167687	0.880518	0.381677
	C173	C	0.170184	0.119712	0.611542
	C174	C	0.814413	0.119262	0.382423
	C175	C	0.814054	0.880101	0.611076
	C176	C	0.377868	0.179407	0.874256
	C177	C	0.607172	0.177238	0.114337
	C178	C	0.376885	0.824724	0.113548
	C179	C	0.607349	0.826319	0.877966
	C180	C	0.376520	0.882150	0.171284
	C181	C	0.605967	0.121713	0.173750
	C182	C	0.377667	0.121393	0.816827
	C183	C	0.607232	0.883442	0.820341
	C184	C	0.871565	0.177859	0.383128
	C185	C	0.111699	0.176810	0.612220
	C186	C	0.110317	0.822319	0.382151
	C187	C	0.872159	0.823077	0.611403
	C188	C	0.168998	0.386793	0.878874
	C189	C	0.169800	0.616138	0.117968
	C190	C	0.815426	0.386835	0.116186
	C191	C	0.816519	0.616382	0.878585
	C192	C	0.393778	0.094700	0.593289
	C193	C	0.590618	0.905720	0.596150
	C194	C	0.590479	0.095419	0.396938
	C195	C	0.391512	0.905932	0.394856
	C196	C	0.591732	0.401525	0.090684
	C197	C	0.592978	0.602488	0.901537
	C198	C	0.394534	0.601264	0.090319
	C199	C	0.392434	0.403055	0.902763
	C200	C	0.084936	0.598681	0.399305
	C201	C	0.896350	0.598757	0.596484
	C202	C	0.086016	0.401577	0.598029
	C203	C	0.896977	0.401257	0.396483
	C204	C	0.893669	0.596068	0.096489
	C205	C	0.091982	0.406999	0.097454
	C206	C	0.090824	0.595954	0.897529
	C207	C	0.892006	0.406304	0.897854
	C208	C	0.091736	0.900527	0.590326
	C209	C	0.089991	0.099795	0.403788
	C210	C	0.891241	0.100326	0.591928
	C211	C	0.891127	0.900206	0.402371
	C212	C	0.586800	0.101395	0.895493
	C213	C	0.397503	0.100264	0.093396
	C214	C	0.586662	0.902698	0.096290
	C215	C	0.397068	0.901626	0.895091
	Zn216	Zn	0.491617	0.000812	0.745160
	Zn217	Zn	0.491055	0.001285	0.245767
	Zn218	Zn	0.742484	0.501831	-0.002973
	Zn219	Zn	0.241809	0.502117	-0.002271
	Zn220	Zn	-0.009293	0.749940	0.496944
	Zn221	Zn	-0.008509	0.251114	0.498061
	Zn222	Zn	-0.008700	0.500006	0.747486
	Zn223	Zn	-0.008280	0.500590	0.246890
	Zn224	Zn	0.492442	0.752084	-0.004896
	Zn225	Zn	0.492629	0.251453	-0.004607
	Zn226	Zn	0.740845	-0.000166	0.496734
	Zn227	Zn	0.242129	0.000156	0.495743
	N228	N	0.406015	0.963810	0.674018
	N229	N	0.578167	0.037562	0.674627
	N230	N	0.576942	0.964057	0.317552
	N231	N	0.404108	0.037588	0.315636
	N232	N	0.670163	0.416803	0.959937
	N233	N	0.671377	0.587645	0.033482
	N234	N	0.313802	0.587520	0.960023
	N235	N	0.314463	0.416347	0.034276
	N236	N	0.953236	0.677431	0.412138
	N237	N	0.028051	0.677762	0.582429
	N238	N	0.954126	0.323039	0.582401
	N239	N	0.028850	0.322666	0.412517
	N240	N	0.954405	0.413902	0.676580
	N241	N	0.028291	0.585839	0.676113
	N242	N	0.954305	0.586297	0.318173
	N243	N	0.028481	0.413670	0.317442
	N244	N	0.407783	0.678966	0.958314
	N245	N	0.579085	0.681261	0.032720
	N246	N	0.577870	0.323854	0.959169
	N247	N	0.406130	0.321752	0.032950
	N248	N	0.668573	0.963163	0.411481
	N249	N	0.669273	0.037582	0.581312
	N250	N	0.315676	0.962311	0.579327
	N251	N	0.312134	0.037440	0.408666
	N252	N	0.907253	0.463657	0.174412
	N253	N	0.078881	0.538042	0.177100
	N254	N	0.077200	0.463596	0.819420
	N255	N	0.905324	0.537612	0.818101
	N256	N	0.169594	0.914607	0.458921
	N257	N	0.171349	0.086447	0.534024
	N258	N	0.813074	0.085287	0.459715
	N259	N	0.812249	0.913808	0.533696
	N260	N	0.455673	0.181181	0.907928
	N261	N	0.529907	0.178014	0.079397
	N262	N	0.454627	0.823579	0.080533
	N263	N	0.529504	0.824118	0.910395
	N264	N	0.454295	0.915874	0.173719
	N265	N	0.528198	0.088343	0.174985
	N266	N	0.455150	0.087732	0.815644
	N267	N	0.529194	0.916499	0.817962
	N268	N	0.905239	0.179364	0.460668
	N269	N	0.076878	0.178347	0.535138
	N270	N	0.077097	0.820990	0.459513
	N271	N	0.905629	0.821854	0.534001
	N272	N	0.170288	0.464616	0.911893
	N273	N	0.171167	0.538656	0.084209
	N274	N	0.813900	0.464881	0.083150
	N275	N	0.814771	0.538817	0.912558
	O276	O	0.486873	0.450038	0.535495
	H277	H	0.488528	0.454221	0.536367
	H278	H	0.494805	0.452110	0.543684
	O279	O	0.467980	0.535590	0.463978
	H280	H	0.467199	0.530535	0.461155
	H281	H	0.470571	0.526225	0.455112
	O282	O	0.503020	0.498474	0.454812
	H283	H	0.499139	0.491992	0.451102
	H284	H	0.504988	0.491453	0.456186
	O285	O	0.042963	1.052310	1.090767
	H286	H	0.042249	1.055323	1.076180
	H287	H	0.043364	1.068504	1.100405
	O288	O	0.442754	0.494563	0.469049
	H289	H	0.445999	0.496721	0.456460
	H290	H	0.450786	0.503179	0.473561
	O291	O	0.375802	0.464298	1.520287
	H292	H	0.372058	0.461589	1.519179
	H293	H	0.367665	0.470978	1.526384
	O294	O	0.494332	0.583944	0.512378
	H295	H	0.500027	0.580928	0.520079
	H296	H	0.495165	0.586997	0.509569
	O297	O	0.454251	0.428992	0.545746
	H298	H	0.455064	0.428615	0.550619
	H299	H	0.428852	0.437659	0.553921
	O300	O	0.472209	0.459271	0.483354
	H301	H	0.471145	0.461981	0.471777
	H302	H	0.470707	0.453417	0.494058
	O303	O	0.370507	0.507852	0.421102
	H304	H	0.368550	0.501742	0.422614
	H305	H	0.372410	0.508832	0.422816
	O306	O	1.062906	0.032465	1.100305
	H307	H	1.066427	0.030135	1.105704
	H308	H	1.054648	0.036136	1.101401
	O309	O	0.423922	0.453598	0.503355
	H310	H	0.430676	0.456852	0.510314
	H311	H	0.418180	0.453080	0.506821
	O312	O	0.544831	0.430264	0.478730
	H313	H	0.542608	0.417803	0.479997
	H314	H	0.542840	0.433491	0.486010
	O315	O	1.061356	0.074697	1.036062
	H316	H	1.067194	0.080474	1.042078
	H317	H	1.066366	0.066066	1.031588
	O318	O	0.541200	-0.454681	-0.447978
	H319	H	0.533277	-0.462355	-0.446276
	H320	H	0.545394	-0.445003	-0.454650
	O321	O	0.430691	0.520571	0.557680
	H322	H	0.436459	0.526015	0.559092
	H323	H	0.430687	0.513885	0.558335
	O324	O	1.043819	0.082192	0.048628
	H325	H	1.050728	0.090656	0.033841
	H326	H	1.045136	0.080042	0.048472
	O327	O	1.071264	1.026544	0.055645
	H328	H	1.071001	1.018997	0.070804
	H329	H	1.076004	1.023820	0.064958
	O330	O	0.472901	0.564559	0.414628
	H331	H	0.475066	0.565931	0.402194
	H332	H	0.470051	0.567451	0.410139
	O333	O	0.541680	0.527727	0.545326
	H334	H	0.537946	0.527179	0.539623
	H335	H	0.547071	0.519688	0.536627
