data_Molecule from HDF5

_cell_length_a		16.302098
_cell_length_b		16.268872
_cell_length_c		16.169857
_cell_angle_alpha	89.799853
_cell_angle_beta	90.224632
_cell_angle_gamma	90.117632
_symmetry_space_group_name_H-M	'P 1'
_symmetry_Int_Tables_number		1

loop_
	_symmetry_equiv_pos_as_xyz
	x,y,z

loop_
	_atom_site_label
	_atom_site_type_symbol
	_atom_site_fract_x
	_atom_site_fract_y
	_atom_site_fract_z
	H0	H	0.409474	0.844598	0.702533
	H1	H	0.605964	0.173026	0.699958
	H2	H	0.603126	0.843718	0.275343
	H3	H	0.408560	0.172774	0.272198
	H4	H	0.721690	0.411128	0.824504
	H5	H	0.721037	0.605816	0.154841
	H6	H	0.292451	0.607556	0.825506
	H7	H	0.297880	0.410047	0.155527
	H8	H	0.843516	0.721555	0.389945
	H9	H	0.170804	0.723785	0.590854
	H10	H	0.843557	0.291608	0.589593
	H11	H	0.170939	0.293964	0.392841
	H12	H	0.843313	0.408217	0.706033
	H13	H	0.172194	0.604781	0.704306
	H14	H	0.844416	0.605662	0.274540
	H15	H	0.172269	0.410874	0.278279
	H16	H	0.410099	0.721040	0.823502
	H17	H	0.606668	0.722326	0.153901
	H18	H	0.605828	0.296463	0.823297
	H19	H	0.410285	0.291716	0.152363
	H20	H	0.720735	0.844435	0.387712
	H21	H	0.723057	0.171397	0.585058
	H22	H	0.292090	0.844277	0.587686
	H23	H	0.290800	0.171991	0.386654
	H24	H	0.913288	0.343444	0.202778
	H25	H	0.106633	0.672739	0.203422
	H26	H	0.104701	0.343014	0.778524
	H27	H	0.911236	0.672268	0.775748
	H28	H	0.218686	0.910309	0.323073
	H29	H	0.223214	0.106774	0.652547
	H30	H	0.793876	0.106146	0.322735
	H31	H	0.791695	0.907368	0.651731
	H32	H	0.344431	0.223983	0.887500
	H33	H	0.671310	0.222401	0.085915
	H34	H	0.345067	0.792164	0.086978
	H35	H	0.670960	0.794399	0.890058
	H36	H	0.343446	0.910257	0.200703
	H37	H	0.671094	0.106920	0.202926
	H38	H	0.343119	0.106896	0.773391
	H39	H	0.672046	0.913014	0.775765
	H40	H	0.907035	0.224363	0.324934
	H41	H	0.105776	0.219525	0.654946
	H42	H	0.104305	0.793448	0.324035
	H43	H	0.908289	0.793495	0.653309
	H44	H	0.223108	0.344355	0.892342
	H45	H	0.224882	0.671465	0.090995
	H46	H	0.792617	0.344596	0.090555
	H47	H	0.793992	0.672536	0.890655
	H48	H	0.413329	0.128286	0.589466
	H49	H	0.605449	0.890697	0.578154
	H50	H	0.598191	0.123249	0.397086
	H51	H	0.411641	0.890987	0.392257
	H52	H	0.598621	0.416582	0.105273
	H53	H	0.590405	0.592145	0.877681
	H54	H	0.403471	0.597593	0.109922
	H55	H	0.405900	0.418045	0.869554
	H56	H	0.123373	0.604103	0.403979
	H57	H	0.889810	0.604900	0.583038
	H58	H	0.122438	0.423837	0.594509
	H59	H	0.894521	0.420001	0.403720
	H60	H	0.129231	0.399905	0.590175
	H61	H	0.893656	0.598092	0.578083
	H62	H	0.122273	0.595458	0.397137
	H63	H	0.889827	0.418250	0.387855
	H64	H	0.424690	0.592690	0.101195
	H65	H	0.597682	0.616046	0.868689
	H66	H	0.599567	0.411731	0.106919
	H67	H	0.417402	0.422875	0.873987
	H68	H	0.603082	0.125742	0.395694
	H69	H	0.600492	0.889813	0.588363
	H70	H	0.423753	0.120676	0.576255
	H71	H	0.414478	0.892689	0.394961
	H72	H	0.917474	0.625773	0.086674
	H73	H	0.099594	0.390013	0.091153
	H74	H	0.108426	0.626319	0.898498
	H75	H	0.913854	0.391566	0.897909
	H76	H	0.096012	0.922447	0.602746
	H77	H	0.108692	0.098278	0.369801
	H78	H	0.907635	0.094000	0.606037
	H79	H	0.915964	0.915425	0.371797
	H80	H	0.622592	0.105005	0.899569
	H81	H	0.392992	0.100372	0.075856
	H82	H	0.625220	0.910779	0.081778
	H83	H	0.391887	0.915738	0.895911
	H84	H	0.622579	0.917078	0.077310
	H85	H	0.390734	0.098593	0.080778
	H86	H	0.623676	0.098288	0.890202
	H87	H	0.391390	0.915264	0.893310
	H88	H	0.921471	0.096065	0.602194
	H89	H	0.091091	0.096302	0.376007
	H90	H	0.095675	0.908351	0.605411
	H91	H	0.914086	0.911374	0.369975
	H92	H	0.097496	0.624732	0.891630
	H93	H	0.099722	0.393832	0.078522
	H94	H	0.916594	0.623303	0.078505
	H95	H	0.914257	0.391778	0.899011
	H96	H	0.406265	0.124849	0.572535
	H97	H	0.595570	0.893343	0.579586
	H98	H	0.599326	0.125351	0.391998
	H99	H	0.410968	0.892257	0.395174
	H100	H	0.603062	0.414805	0.107141
	H101	H	0.614521	0.596413	0.869525
	H102	H	0.419661	0.613929	0.109658
	H103	H	0.416437	0.410496	0.871113
	H104	H	0.126398	0.605182	0.393399
	H105	H	0.891160	0.597170	0.587183
	H106	H	0.119744	0.414693	0.571509
	H107	H	0.889244	0.405289	0.397847
	H108	H	0.909452	0.626591	0.082861
	H109	H	0.110583	0.389614	0.084526
	H110	H	0.098068	0.621792	0.903449
	H111	H	0.913558	0.391540	0.898930
	H112	H	0.108008	0.915497	0.608441
	H113	H	0.096612	0.112672	0.368610
	H114	H	0.914156	0.106967	0.608292
	H115	H	0.911380	0.914892	0.369856
	H116	H	0.627066	0.108728	0.890050
	H117	H	0.391284	0.103600	0.079709
	H118	H	0.624474	0.918046	0.085040
	H119	H	0.390665	0.913891	0.894990
	C120	C	0.385586	0.016571	0.608857
	C121	C	0.629877	0.999858	0.609616
	C122	C	0.628010	0.016634	0.366223
	C123	C	0.383971	1.000079	0.365012
	C124	C	0.628932	0.386922	-0.002668
	C125	C	0.629178	0.629745	0.981096
	C126	C	0.386779	0.630032	-0.001766
	C127	C	0.386146	0.387369	0.980520
	C128	C	0.015830	0.629444	0.368743
	C129	C	0.999628	0.628956	0.611839
	C130	C	0.015437	0.384718	0.613410
	C131	C	0.999415	0.386401	0.368685
	C132	C	0.886569	0.516653	0.111866
	C133	C	0.131123	0.499740	0.112815
	C134	C	0.129889	0.516312	0.869447
	C135	C	0.886371	0.499931	0.869214
	C136	C	0.127800	0.886618	0.496616
	C137	C	0.128440	0.130149	0.480262
	C138	C	0.885778	0.128357	0.496822
	C139	C	0.884997	0.885222	0.479641
	C140	C	0.515837	0.131727	0.864860
	C141	C	0.499539	0.129631	0.108616
	C142	C	0.515995	0.886763	0.109553
	C143	C	0.499517	0.887105	0.866649
	C144	C	0.388385	0.893260	0.664525
	C145	C	0.626700	0.123423	0.663133
	C146	C	0.624548	0.893045	0.311927
	C147	C	0.387288	0.123649	0.309521
	C148	C	0.684108	0.390582	0.873592
	C149	C	0.683944	0.626867	0.105380
	C150	C	0.330747	0.627995	0.874279
	C151	C	0.333802	0.389103	0.105450
	C152	C	0.892488	0.683783	0.370394
	C153	C	0.122188	0.685036	0.610589
	C154	C	0.892351	0.329625	0.610307
	C155	C	0.122418	0.331979	0.372302
	C156	C	0.892204	0.387664	0.668066
	C157	C	0.122926	0.625884	0.667130
	C158	C	0.892978	0.626174	0.312839
	C159	C	0.122726	0.389816	0.315070
	C160	C	0.389116	0.684212	0.873366
	C161	C	0.627282	0.684891	0.104824
	C162	C	0.626318	0.333428	0.872785
	C163	C	0.389857	0.330457	0.103998
	C164	C	0.682991	0.893344	0.367825
	C165	C	0.685201	0.122714	0.606227
	C166	C	0.330244	0.893220	0.607288
	C167	C	0.328841	0.123383	0.366577
	C168	C	0.891105	0.392769	0.166078
	C169	C	0.127707	0.623399	0.166660
	C170	C	0.126333	0.392367	0.815261
	C171	C	0.890043	0.623382	0.813571
	C172	C	0.181791	0.889323	0.372613
	C173	C	0.184776	0.127379	0.603766
	C174	C	0.830831	0.127006	0.372463
	C175	C	0.829668	0.887354	0.603047
	C176	C	0.393021	0.186003	0.867335
	C177	C	0.622397	0.184802	0.106522
	C178	C	0.393374	0.830841	0.107032
	C179	C	0.622393	0.832333	0.869480
	C180	C	0.392798	0.889478	0.163596
	C181	C	0.622361	0.127301	0.164568
	C182	C	0.392412	0.127656	0.810653
	C183	C	0.622948	0.891448	0.813014
	C184	C	0.887423	0.185276	0.373512
	C185	C	0.126376	0.183253	0.604889
	C186	C	0.124597	0.831587	0.372916
	C187	C	0.887676	0.830562	0.603776
	C188	C	0.185049	0.393148	0.871825
	C189	C	0.186365	0.622790	0.110657
	C190	C	0.831119	0.393411	0.110439
	C191	C	0.831912	0.623509	0.870792
	C192	C	0.407825	0.102166	0.585975
	C193	C	0.607361	0.913630	0.588128
	C194	C	0.606567	0.102399	0.388438
	C195	C	0.405813	0.914302	0.387460
	C196	C	0.606828	0.408005	0.084061
	C197	C	0.607265	0.607984	0.894475
	C198	C	0.409265	0.608071	0.084446
	C199	C	0.407027	0.410321	0.894118
	C200	C	0.101852	0.607904	0.391438
	C201	C	0.913739	0.606685	0.589330
	C202	C	0.101444	0.406427	0.591801
	C203	C	0.913328	0.407955	0.390237
	C204	C	0.908073	0.602894	0.089272
	C205	C	0.109591	0.413446	0.091042
	C206	C	0.107873	0.602170	0.891381
	C207	C	0.907655	0.413934	0.891897
	C208	C	0.106251	0.908934	0.583222
	C209	C	0.105559	0.108641	0.393994
	C210	C	0.907796	0.105686	0.583169
	C211	C	0.907154	0.907406	0.392806
	C212	C	0.602190	0.110237	0.886676
	C213	C	0.413800	0.107437	0.085610
	C214	C	0.601913	0.908768	0.087734
	C215	C	0.413513	0.908562	0.888416
	Zn216	Zn	0.507062	0.008988	0.737629
	Zn217	Zn	0.507497	0.008488	0.237802
	Zn218	Zn	0.757397	0.508542	-0.009700
	Zn219	Zn	0.258723	0.508488	-0.009076
	Zn220	Zn	0.007095	0.757912	0.489621
	Zn221	Zn	0.006928	0.256910	0.489864
	Zn222	Zn	0.007634	0.507159	0.741273
	Zn223	Zn	0.008869	0.508223	0.240132
	Zn224	Zn	0.508432	0.757979	-0.011450
	Zn225	Zn	0.507472	0.259237	-0.012634
	Zn226	Zn	0.757419	0.007071	0.486776
	Zn227	Zn	0.256044	0.008524	0.487786
	N228	N	0.422308	0.970648	0.665622
	N229	N	0.592907	0.045704	0.665532
	N230	N	0.590732	0.970514	0.310846
	N231	N	0.420570	0.046126	0.308126
	N232	N	0.685838	0.423022	0.952135
	N233	N	0.685198	0.593369	0.027370
	N234	N	0.329068	0.594967	0.952673
	N235	N	0.331308	0.423667	0.027841
	N236	N	0.969935	0.685840	0.404517
	N237	N	0.044620	0.686975	0.576858
	N238	N	0.970142	0.327344	0.577379
	N239	N	0.044607	0.329840	0.405108
	N240	N	0.969726	0.421076	0.670134
	N241	N	0.045600	0.591785	0.668120
	N242	N	0.970597	0.593177	0.311832
	N243	N	0.045221	0.422900	0.312886
	N244	N	0.423330	0.685749	0.951203
	N245	N	0.593801	0.686794	0.026545
	N246	N	0.592551	0.331189	0.950706
	N247	N	0.421696	0.329273	0.025274
	N248	N	0.685316	0.970998	0.400955
	N249	N	0.687177	0.044765	0.573761
	N250	N	0.328507	0.970898	0.573305
	N251	N	0.326535	0.045567	0.400282
	N252	N	0.924758	0.470372	0.167082
	N253	N	0.094195	0.545753	0.168252
	N254	N	0.092574	0.469842	0.813726
	N255	N	0.923161	0.545566	0.812660
	N256	N	0.183930	0.922935	0.450672
	N257	N	0.186145	0.095112	0.525361
	N258	N	0.829882	0.092112	0.450119
	N259	N	0.827605	0.920208	0.524649
	N260	N	0.470845	0.188600	0.900103
	N261	N	0.544941	0.186193	0.072253
	N262	N	0.470936	0.829166	0.073962
	N263	N	0.544629	0.829633	0.902097
	N264	N	0.469997	0.923642	0.165045
	N265	N	0.544908	0.093876	0.165943
	N266	N	0.469995	0.094613	0.809034
	N267	N	0.545436	0.924721	0.811122
	N268	N	0.920845	0.186251	0.451699
	N269	N	0.091684	0.184911	0.527047
	N270	N	0.091934	0.829682	0.451203
	N271	N	0.921569	0.829472	0.525986
	N272	N	0.187281	0.471070	0.904788
	N273	N	0.188678	0.544865	0.077963
	N274	N	0.828173	0.471540	0.077499
	N275	N	0.829401	0.545805	0.904371
	O276	O	1.107815	1.001226	-0.070139
	H277	H	1.114060	1.001108	-0.069415
	H278	H	1.108787	0.993885	-0.065275
	O279	O	-0.005493	0.047247	0.974470
	H280	H	-0.003081	0.053497	0.968892
	H281	H	-0.008926	0.042317	0.970331
	O282	O	0.546772	-0.423982	0.595143
	H283	H	0.550096	-0.418908	0.605634
	H284	H	0.552916	-0.428516	0.591318
	O285	O	0.438325	0.542157	0.497614
	H286	H	0.443149	0.541629	0.499042
	H287	H	0.441659	0.543484	0.496982
	O288	O	-0.035438	0.045942	0.009428
	H289	H	-0.033556	0.052102	0.006958
	H290	H	-0.037407	0.046993	0.011347
	O291	O	0.042516	1.016937	-0.001543
	H292	H	0.038558	1.021653	0.000152
	H293	H	0.035025	1.006960	-0.005630
	O294	O	-0.499773	0.561999	-0.495511
	H295	H	-0.500430	0.560847	-0.491339
	H296	H	-0.487758	0.567485	-0.498469
	O297	O	0.539484	0.485376	0.540162
	H298	H	0.529816	0.475467	0.545110
	H299	H	0.540849	0.486577	0.541811
	O300	O	0.559777	0.452559	0.457448
	H301	H	0.563411	0.454336	0.452765
	H302	H	0.558488	0.454758	0.462756
	O303	O	0.985646	-0.001540	0.926155
	H304	H	0.981796	-0.003516	0.926714
	H305	H	0.995144	-0.008439	0.924336
	O306	O	0.029793	1.114978	1.024105
	H307	H	0.028035	1.121956	1.016968
	H308	H	0.021520	1.116363	1.023853
	O309	O	-0.542508	0.529863	1.445296
	H310	H	-0.538159	0.533764	1.439061
	H311	H	-0.538001	0.531779	1.443926
	O312	O	0.073427	0.060105	0.951823
	H313	H	0.068642	0.061545	0.952324
	H314	H	0.074214	0.064625	0.960396
	O315	O	0.443441	0.400246	0.514615
	H316	H	0.448078	0.398542	0.509985
	H317	H	0.442185	0.403820	0.518867
	O318	O	0.011716	-0.026755	0.954335
	H319	H	0.021855	-0.020475	0.950302
	H320	H	0.010895	-0.029690	0.964030
	O321	O	1.047883	0.987332	0.944446
	H322	H	1.061555	0.979312	0.941706
	H323	H	1.053889	0.998710	0.948175
	O324	O	0.012419	-0.988234	1.007897
	H325	H	0.006211	-0.986091	0.993605
	H326	H	0.013436	-0.983829	1.009330
	O327	O	1.033094	1.075299	0.989783
	H328	H	1.029628	1.075379	0.996677
	H329	H	1.041759	1.079177	0.991047
	O330	O	0.439585	0.523977	0.466410
	H331	H	0.435856	0.524478	0.477271
	H332	H	0.435665	0.521573	0.458102
	O333	O	0.522873	0.514898	0.477721
	H334	H	0.522432	0.517407	0.475469
	H335	H	0.521690	0.511297	0.480309
	O336	O	0.525667	0.540911	0.515716
	H337	H	0.524911	0.538372	0.513052
	H338	H	0.523402	0.538674	0.517807
	O339	O	0.455071	0.547974	0.462831
	H340	H	0.451272	0.554769	0.465806
	H341	H	0.455873	0.560859	0.472742
	O342	O	0.568668	0.514513	0.579832
	H343	H	0.562412	0.509865	0.577456
	H344	H	0.564312	0.513614	0.575075
	O345	O	0.580745	0.409011	0.495303
	H346	H	0.590690	0.405830	0.498409
	H347	H	0.568098	0.407781	0.486141
