data_Molecule from HDF5

_cell_length_a		16.645872
_cell_length_b		16.548374
_cell_length_c		16.588727
_cell_angle_alpha	89.969894
_cell_angle_beta	89.949680
_cell_angle_gamma	90.011125
_symmetry_space_group_name_H-M	'P 1'
_symmetry_Int_Tables_number		1

loop_
	_symmetry_equiv_pos_as_xyz
	x,y,z

loop_
	_atom_site_label
	_atom_site_type_symbol
	_atom_site_fract_x
	_atom_site_fract_y
	_atom_site_fract_z
	H0	H	0.413402	0.866389	0.703553
	H1	H	0.621053	0.179380	0.701934
	H2	H	0.621864	0.866915	0.261834
	H3	H	0.413073	0.179401	0.261936
	H4	H	0.739160	0.417584	0.827718
	H5	H	0.737364	0.628129	0.138244
	H6	H	0.295239	0.628719	0.827650
	H7	H	0.297202	0.420214	0.140303
	H8	H	0.862324	0.745377	0.377760
	H9	H	0.173126	0.742501	0.586681
	H10	H	0.861150	0.303555	0.585802
	H11	H	0.174172	0.303855	0.380667
	H12	H	0.861758	0.417868	0.704283
	H13	H	0.172976	0.626816	0.704073
	H14	H	0.863052	0.630320	0.259528
	H15	H	0.173648	0.419173	0.262448
	H16	H	0.413478	0.743704	0.826310
	H17	H	0.620114	0.743519	0.138537
	H18	H	0.620456	0.303911	0.826067
	H19	H	0.414132	0.304510	0.140777
	H20	H	0.738564	0.867060	0.377928
	H21	H	0.739411	0.177976	0.588086
	H22	H	0.296500	0.866802	0.588086
	H23	H	0.296647	0.179235	0.377088
	H24	H	0.910529	0.365918	0.204320
	H25	H	0.119239	0.680412	0.202481
	H26	H	0.121169	0.366206	0.763628
	H27	H	0.911574	0.679075	0.761478
	H28	H	0.238700	0.917405	0.326879
	H29	H	0.239233	0.128883	0.638043
	H30	H	0.796448	0.127943	0.326713
	H31	H	0.794169	0.915124	0.638447
	H32	H	0.360612	0.241403	0.881775
	H33	H	0.673862	0.244987	0.087990
	H34	H	0.362833	0.801539	0.087613
	H35	H	0.674071	0.802408	0.877628
	H36	H	0.362425	0.917692	0.204211
	H37	H	0.674319	0.127095	0.202951
	H38	H	0.361430	0.126412	0.763367
	H39	H	0.674029	0.918352	0.761777
	H40	H	0.913155	0.243125	0.326153
	H41	H	0.121752	0.243672	0.639009
	H42	H	0.122853	0.800832	0.326950
	H43	H	0.910103	0.799602	0.639494
	H44	H	0.238722	0.367530	0.878097
	H45	H	0.237945	0.679737	0.088841
	H46	H	0.792817	0.367342	0.090867
	H47	H	0.794876	0.679009	0.876923
	H48	H	0.429039	0.133807	0.568976
	H49	H	0.613369	0.908412	0.568306
	H50	H	0.607220	0.134171	0.398177
	H51	H	0.426613	0.909912	0.391900
	H52	H	0.603892	0.429596	0.095094
	H53	H	0.605373	0.611028	0.871020
	H54	H	0.426948	0.614937	0.096156
	H55	H	0.424747	0.432714	0.869582
	H56	H	0.128680	0.610771	0.391709
	H57	H	0.907458	0.608330	0.570877
	H58	H	0.128848	0.431978	0.573177
	H59	H	0.903725	0.431275	0.391273
	H60	H	0.130046	0.434383	0.573108
	H61	H	0.904630	0.610372	0.575267
	H62	H	0.129609	0.613392	0.394081
	H63	H	0.905957	0.433134	0.395001
	H64	H	0.425745	0.609604	0.094390
	H65	H	0.607358	0.614494	0.869201
	H66	H	0.610754	0.436886	0.096683
	H67	H	0.427071	0.434812	0.871553
	H68	H	0.610469	0.137329	0.392434
	H69	H	0.604852	0.908508	0.578610
	H70	H	0.424436	0.136009	0.573015
	H71	H	0.430025	0.910777	0.392655
	H72	H	0.929230	0.633720	0.070674
	H73	H	0.109048	0.410500	0.071941
	H74	H	0.106488	0.634805	0.898002
	H75	H	0.929096	0.412005	0.895704
	H76	H	0.103015	0.933415	0.593615
	H77	H	0.107902	0.113987	0.370094
	H78	H	0.928934	0.115324	0.595142
	H79	H	0.933598	0.935488	0.374397
	H80	H	0.630297	0.114940	0.892304
	H81	H	0.405972	0.114496	0.073629
	H82	H	0.628962	0.932465	0.067383
	H83	H	0.404944	0.925603	0.894537
	H84	H	0.626864	0.939359	0.071230
	H85	H	0.406293	0.112957	0.072683
	H86	H	0.628964	0.112835	0.894392
	H87	H	0.410132	0.937872	0.899018
	H88	H	0.925187	0.108821	0.595046
	H89	H	0.109133	0.110857	0.371234
	H90	H	0.108419	0.930854	0.596305
	H91	H	0.928625	0.929096	0.369976
	H92	H	0.109642	0.637040	0.892349
	H93	H	0.104336	0.411450	0.074072
	H94	H	0.927245	0.633831	0.070198
	H95	H	0.927385	0.411355	0.896233
	H96	H	0.430725	0.135753	0.574779
	H97	H	0.601516	0.914238	0.567088
	H98	H	0.604065	0.135170	0.392114
	H99	H	0.427757	0.910972	0.395579
	H100	H	0.602457	0.439189	0.092744
	H101	H	0.609611	0.611316	0.869526
	H102	H	0.430935	0.611667	0.093010
	H103	H	0.427392	0.431005	0.870836
	H104	H	0.128316	0.609989	0.395394
	H105	H	0.905325	0.613736	0.570525
	H106	H	0.130503	0.433204	0.574295
	H107	H	0.906341	0.435667	0.390752
	H108	H	0.927776	0.634229	0.071945
	H109	H	0.105233	0.412720	0.069237
	H110	H	0.103075	0.635122	0.892187
	H111	H	0.928381	0.411159	0.894428
	H112	H	0.108666	0.936790	0.594410
	H113	H	0.105046	0.111578	0.370907
	H114	H	0.932350	0.108670	0.592777
	H115	H	0.924967	0.937145	0.371934
	H116	H	0.629783	0.111824	0.891637
	H117	H	0.406244	0.113253	0.074329
	H118	H	0.630562	0.933729	0.075417
	H119	H	0.405206	0.937373	0.886028
	C120	C	0.396255	0.031645	0.604288
	C121	C	0.638705	1.013614	0.603900
	C122	C	0.638902	0.031886	0.361901
	C123	C	0.396315	1.014211	0.361477
	C124	C	0.638057	0.402559	-0.008491
	C125	C	0.638619	0.644401	0.973259
	C126	C	0.396562	0.644333	-0.008778
	C127	C	0.395405	0.401904	0.975005
	C128	C	0.026104	0.644227	0.361403
	C129	C	1.008717	0.643435	0.604423
	C130	C	0.026178	0.401313	0.604785
	C131	C	1.008715	0.401427	0.360971
	C132	C	0.894707	0.531199	0.104700
	C133	C	0.137934	0.514942	0.103680
	C134	C	0.138261	0.531746	0.862471
	C135	C	0.896231	0.514811	0.862652
	C136	C	0.138620	0.901779	0.491354
	C137	C	0.139136	0.144371	0.474000
	C138	C	0.896782	0.143201	0.490927
	C139	C	0.896287	0.900980	0.475195
	C140	C	0.525941	0.144386	0.861815
	C141	C	0.509446	0.145308	0.105156
	C142	C	0.526399	0.902483	0.103946
	C143	C	0.509625	0.901616	0.860851
	C144	C	0.394716	0.913460	0.663684
	C145	C	0.640438	0.131774	0.663024
	C146	C	0.640516	0.913886	0.301926
	C147	C	0.394232	0.132266	0.301670
	C148	C	0.698781	0.399513	0.874429
	C149	C	0.697540	0.646453	0.091586
	C150	C	0.336126	0.646740	0.873997
	C151	C	0.337212	0.401501	0.093335
	C152	C	0.909022	0.704853	0.359310
	C153	C	0.126367	0.702875	0.605779
	C154	C	0.908138	0.342893	0.605156
	C155	C	0.127015	0.343141	0.360949
	C156	C	0.908604	0.399458	0.664185
	C157	C	0.126102	0.645575	0.664128
	C158	C	0.909211	0.647508	0.300732
	C159	C	0.126904	0.400379	0.302352
	C160	C	0.394811	0.703856	0.873444
	C161	C	0.639381	0.703843	0.091416
	C162	C	0.639786	0.343018	0.873570
	C163	C	0.395335	0.344021	0.093567
	C164	C	0.698405	0.913796	0.359449
	C165	C	0.699064	0.131409	0.606510
	C166	C	0.336499	0.913781	0.606416
	C167	C	0.336412	0.131996	0.359178
	C168	C	0.892126	0.413503	0.165127
	C169	C	0.138779	0.633293	0.163164
	C170	C	0.139939	0.413643	0.803361
	C171	C	0.893568	0.632319	0.801878
	C172	C	0.198515	0.899293	0.373825
	C173	C	0.198922	0.146688	0.591433
	C174	C	0.836579	0.145942	0.373646
	C175	C	0.835088	0.897653	0.592062
	C176	C	0.407719	0.202413	0.862073
	C177	C	0.627021	0.204760	0.106342
	C178	C	0.409395	0.841947	0.106115
	C179	C	0.627151	0.842166	0.858985
	C180	C	0.409217	0.899599	0.164099
	C181	C	0.627470	0.146062	0.163536
	C182	C	0.408175	0.145292	0.803348
	C183	C	0.626968	0.899902	0.801172
	C184	C	0.894755	0.203225	0.373284
	C185	C	0.140529	0.203883	0.591751
	C186	C	0.140602	0.841456	0.373960
	C187	C	0.892654	0.839708	0.592137
	C188	C	0.198471	0.414230	0.860060
	C189	C	0.197321	0.632989	0.106273
	C190	C	0.833513	0.414140	0.108386
	C191	C	0.835715	0.632248	0.859360
	C192	C	0.421112	0.113851	0.579570
	C193	C	0.613645	0.931590	0.578607
	C194	C	0.614370	0.114060	0.387031
	C195	C	0.421167	0.931887	0.386167
	C196	C	0.613000	0.427853	0.073523
	C197	C	0.614510	0.619286	0.891364
	C198	C	0.420979	0.619461	0.073275
	C199	C	0.419367	0.426074	0.892201
	C200	C	0.107678	0.618572	0.386414
	C201	C	0.927080	0.618312	0.579569
	C202	C	0.108410	0.426117	0.580582
	C203	C	0.926647	0.426190	0.385318
	C204	C	0.920593	0.612752	0.078449
	C205	C	0.113126	0.433013	0.078882
	C206	C	0.113329	0.614300	0.887168
	C207	C	0.921206	0.432835	0.888148
	C208	C	0.113908	0.926582	0.573501
	C209	C	0.114396	0.119300	0.392116
	C210	C	0.921692	0.117997	0.572947
	C211	C	0.921747	0.926687	0.393342
	C212	C	0.608309	0.120190	0.885618
	C213	C	0.427536	0.120496	0.080619
	C214	C	0.607739	0.927969	0.078731
	C215	C	0.427918	0.926635	0.885884
	Zn216	Zn	0.518197	0.023254	0.732312
	Zn217	Zn	0.517770	0.023252	0.233497
	Zn218	Zn	0.766863	0.523136	-0.016868
	Zn219	Zn	0.267101	0.523604	-0.016537
	Zn220	Zn	0.017378	0.772417	0.483382
	Zn221	Zn	0.017300	0.272836	0.482810
	Zn222	Zn	0.016977	0.522717	0.733763
	Zn223	Zn	0.017139	0.522474	0.232143
	Zn224	Zn	0.517988	0.773295	-0.017992
	Zn225	Zn	0.517578	0.273650	-0.016747
	Zn226	Zn	0.767280	0.022504	0.483343
	Zn227	Zn	0.267925	0.022919	0.482700
	N228	N	0.431067	0.987966	0.662762
	N229	N	0.604002	0.057460	0.661680
	N230	N	0.604299	0.988384	0.303440
	N231	N	0.430919	0.057984	0.302892
	N232	N	0.698050	0.435492	0.948849
	N233	N	0.697511	0.610476	0.017134
	N234	N	0.336861	0.610418	0.948388
	N235	N	0.336924	0.436505	0.018276
	N236	N	0.982655	0.702849	0.396352
	N237	N	0.052231	0.701917	0.569669
	N238	N	0.982479	0.343756	0.569059
	N239	N	0.052469	0.343574	0.396469
	N240	N	0.983167	0.434958	0.664195
	N241	N	0.051957	0.609430	0.663542
	N242	N	0.983014	0.610621	0.301811
	N243	N	0.052108	0.435686	0.301996
	N244	N	0.431585	0.702349	0.947226
	N245	N	0.603864	0.703009	0.016856
	N246	N	0.603040	0.344432	0.947779
	N247	N	0.430758	0.343967	0.018750
	N248	N	0.697815	0.988290	0.395984
	N249	N	0.698465	0.056649	0.570603
	N250	N	0.337238	0.988319	0.570265
	N251	N	0.337635	0.057552	0.395752
	N252	N	0.929447	0.487573	0.163214
	N253	N	0.102377	0.559003	0.161752
	N254	N	0.103220	0.487852	0.804594
	N255	N	0.930535	0.558430	0.803958
	N256	N	0.197574	0.935903	0.447966
	N257	N	0.198410	0.110589	0.517047
	N258	N	0.837567	0.109157	0.447819
	N259	N	0.836892	0.935004	0.518044
	N260	N	0.482183	0.202252	0.897564
	N261	N	0.552723	0.204260	0.070624
	N262	N	0.483194	0.843483	0.069255
	N263	N	0.553055	0.843013	0.895400
	N264	N	0.482903	0.936673	0.162860
	N265	N	0.553223	0.110044	0.163193
	N266	N	0.482826	0.110184	0.802888
	N267	N	0.552740	0.935987	0.802176
	N268	N	0.931440	0.201724	0.447352
	N269	N	0.104109	0.202794	0.517635
	N270	N	0.104049	0.842647	0.448283
	N271	N	0.929846	0.841633	0.518262
	N272	N	0.197604	0.488974	0.896090
	N273	N	0.197287	0.558416	0.070366
	N274	N	0.835101	0.488416	0.071510
	N275	N	0.837157	0.558075	0.896668
	O276	O	-0.135925	0.884000	-0.199416
	H277	H	-0.138077	0.893818	-0.183315
	H278	H	-0.121656	0.891487	-0.190062
	O279	O	0.704533	0.713945	0.295259
	H280	H	0.693596	0.696668	0.322157
	H281	H	0.679193	0.691345	0.302878
	O282	O	0.548231	-0.265365	1.693640
	H283	H	0.557990	-0.245781	1.691708
	H284	H	0.554385	-0.249119	1.693408
	O285	O	0.673895	0.319116	0.629677
	H286	H	0.679032	0.302595	0.649601
	H287	H	0.671507	0.320220	0.640391
	O288	O	0.331281	0.482716	0.695169
	H289	H	0.332159	0.495297	0.703505
	H290	H	0.331992	0.485529	0.697411
	O291	O	0.330752	0.340909	0.300419
	H292	H	0.341937	0.361885	0.316426
	H293	H	0.351951	0.354501	0.317543
	O294	O	0.801160	0.050099	0.770402
	H295	H	0.805108	0.040523	0.760601
	H296	H	0.792754	0.038701	0.768805
	O297	O	0.306148	0.549742	0.275919
	H298	H	0.316217	0.549477	0.276699
	H299	H	0.288715	0.556256	0.264027
	O300	O	-0.259898	-0.498846	0.518194
	H301	H	-0.257128	-0.504661	0.535450
	H302	H	-0.261611	-0.507910	0.520904
	O303	O	0.017703	0.024184	-0.038260
	H304	H	0.025918	0.030847	-0.035859
	H305	H	0.017997	0.013592	-0.043342
	O306	O	0.323274	0.712506	0.673277
	H307	H	0.351605	0.700255	0.656393
	H308	H	0.331167	0.685985	0.653236
	O309	O	0.722195	0.312243	0.454789
	H310	H	0.728153	0.306221	0.463235
	H311	H	0.704871	0.303580	0.474980
	O312	O	0.227930	0.816498	0.778201
	H313	H	0.256419	0.783572	0.743496
	H314	H	0.192860	0.827470	0.768523
	O315	O	1.226972	1.059807	1.191956
	H316	H	1.244038	1.046474	1.194668
	H317	H	1.204043	1.039040	1.192906
	O318	O	0.573523	0.738398	0.433355
	H319	H	0.602412	0.745433	0.445652
	H320	H	0.556871	0.728470	0.427642
	O321	O	0.207279	1.208963	0.798646
	H322	H	0.198318	1.187339	0.819416
	H323	H	0.187976	1.193127	0.815229
	O324	O	1.012235	0.949392	-0.159537
	H325	H	1.022154	0.944117	-0.164431
	H326	H	1.002794	0.945997	-0.148670
	O327	O	-0.429587	0.579605	0.265834
	H328	H	-0.427368	0.573666	0.269515
	H329	H	-0.427337	0.575043	0.258945
	O330	O	0.019322	0.231082	0.835863
	H331	H	0.030252	0.235803	0.835015
	H332	H	0.028364	0.230947	0.860696
	O333	O	0.304594	0.307954	0.696527
	H334	H	0.270052	0.279846	0.727336
	H335	H	0.297511	0.341534	0.684602
	O336	O	1.121342	0.154014	-0.045128
	H337	H	1.123272	0.139847	-0.039717
	H338	H	1.138620	0.145007	-0.029638
	O339	O	0.809863	-0.024931	1.093841
	H340	H	0.824631	-0.016341	1.102294
	H341	H	0.793959	-0.013207	1.117355
	O342	O	-0.504138	-0.524739	0.264812
	H343	H	-0.508299	-0.543102	0.265343
	H344	H	-0.492526	-0.529288	0.260344
	O345	O	-0.012735	0.807443	1.188279
	H346	H	-0.044980	0.801408	1.193533
	H347	H	-0.027718	0.791514	1.204304
	O348	O	-0.204665	-0.198744	1.012572
	H349	H	-0.213254	-0.206055	1.030438
	H350	H	-0.219175	-0.215964	1.044064
	O351	O	0.475589	0.474258	0.525523
	H352	H	0.476920	0.482607	0.528206
	H353	H	0.473225	0.473216	0.530290
	O354	O	-0.526691	0.556644	0.459069
	H355	H	-0.514306	0.554496	0.469048
	H356	H	-0.521607	0.540626	0.447984
	O357	O	0.234915	0.245037	0.019402
	H358	H	0.233005	0.240545	0.061679
	H359	H	0.264453	0.270228	0.028063
	O360	O	-0.190414	-0.186838	1.192140
	H361	H	-0.225345	-0.213823	1.227091
	H362	H	-0.196490	-0.133513	1.198404
	O363	O	-0.232408	0.261493	0.235845
	H364	H	-0.246090	0.262959	0.244621
	H365	H	-0.206211	0.238284	0.237071
	O366	O	0.494863	0.307234	0.345192
	H367	H	0.503384	0.289601	0.343416
	H368	H	0.512062	0.306335	0.353626
	O369	O	1.049614	0.243855	0.207041
	H370	H	1.062902	0.265444	0.222310
	H371	H	1.073159	0.254574	0.205545
	O372	O	1.030367	1.002562	0.208024
	H373	H	1.027446	0.992756	0.209898
	H374	H	1.022589	1.013562	0.209730
	O375	O	0.803223	0.098521	0.022148
	H376	H	0.795305	0.109646	0.007063
	H377	H	0.813187	0.094434	0.016286
	O378	O	0.820545	-0.040152	0.061568
	H379	H	0.816623	-0.016230	0.060124
	H380	H	0.822282	-0.037664	0.076140
	O381	O	0.234468	0.809015	0.958912
	H382	H	0.237073	0.796877	0.931029
	H383	H	0.238227	0.789847	0.943663
	O384	O	0.773534	0.265526	0.746245
	H385	H	0.805452	0.270518	0.757671
	H386	H	0.773747	0.245465	0.765599
	O387	O	0.956148	0.799732	-0.044108
	H388	H	0.952968	0.786135	-0.037109
	H389	H	0.937033	0.802794	-0.033479
	O390	O	0.045342	0.897596	1.045025
	H391	H	0.040483	0.883376	1.043789
	H392	H	0.034056	0.888106	1.041241
	O393	O	0.729723	0.494768	0.277466
	H394	H	0.733082	0.467962	0.272045
	H395	H	0.747820	0.485924	0.266735
	O396	O	0.299977	0.464671	0.452938
	H397	H	0.309082	0.466983	0.459948
	H398	H	0.312224	0.463537	0.466359
	O399	O	0.349022	-0.295609	1.321891
	H400	H	0.368018	-0.302476	1.310884
	H401	H	0.336419	-0.284739	1.309103
	O402	O	0.582684	0.463116	0.672137
	H403	H	0.590342	0.463016	0.669023
	H404	H	0.564036	0.437843	0.672967
	O405	O	0.993821	0.153933	1.046977
	H406	H	1.005772	0.137020	1.044803
	H407	H	1.006724	0.163303	1.042286
	O408	O	-0.290392	-0.289401	-0.322696
	H409	H	-0.286058	-0.288700	-0.308312
	H410	H	-0.289086	-0.300363	-0.343173
	O411	O	0.434474	0.734675	0.519847
	H412	H	0.435041	0.732680	0.500585
	H413	H	0.416748	0.736749	0.510444
	O414	O	0.518499	0.608943	0.583724
	H415	H	0.528656	0.616118	0.574378
	H416	H	0.535625	0.612359	0.593434
	O417	O	0.734146	0.737394	0.509237
	H418	H	0.755101	0.728615	0.496835
	H419	H	0.749110	0.742341	0.526813
	O420	O	0.746322	0.555828	0.443243
	H421	H	0.744014	0.535072	0.446998
	H422	H	0.740576	0.544744	0.432651
	O423	O	0.017371	0.131748	1.012285
	H424	H	0.040998	0.129475	1.000123
	H425	H	0.018573	0.142261	1.008651
	O426	O	0.615428	0.316811	0.271229
	H427	H	0.629244	0.300351	0.248300
	H428	H	0.631893	0.320040	0.301151
	O429	O	1.490195	0.735634	1.269134
	H430	H	1.486249	0.743241	1.258446
	H431	H	1.488248	0.737285	1.269587
	O432	O	0.521130	0.307209	0.525618
	H433	H	0.515535	0.309463	0.543068
	H434	H	0.500728	0.306294	0.537287
	O435	O	0.221813	1.229971	0.189367
	H436	H	0.249523	1.253117	0.221374
	H437	H	0.222859	1.182240	0.196999
	O438	O	0.483488	0.302465	0.702861
	H439	H	0.448811	0.310416	0.700345
	H440	H	0.472998	0.272157	0.731557
	O441	O	0.072565	0.054473	0.054838
	H442	H	0.078308	0.063052	0.045190
	H443	H	0.072299	0.051862	0.047305
	O444	O	0.293863	0.580077	0.562373
	H445	H	0.292431	0.572263	0.560384
	H446	H	0.298589	0.584432	0.542714
	O447	O	0.302361	1.735383	1.441740
	H448	H	0.290406	1.739752	1.427661
	H449	H	0.288914	1.747346	1.419616
	O450	O	0.009055	0.923815	1.050525
	H451	H	0.001749	0.921951	1.055148
	H452	H	0.007845	0.930509	1.057455
	O453	O	0.202973	0.017685	1.016054
	H454	H	0.209601	0.031839	1.012768
	H455	H	0.203850	0.005534	1.013993
	O456	O	-0.075502	0.186924	1.007671
	H457	H	-0.077766	0.185738	1.014356
	H458	H	-0.076501	0.189427	0.992712
	O459	O	1.199327	0.843124	0.211489
	H460	H	1.173405	0.864218	0.191244
	H461	H	1.196414	0.829680	0.199783
	O462	O	0.731399	0.543854	0.698281
	H463	H	0.740503	0.539168	0.703763
	H464	H	0.717619	0.547977	0.707582
	O465	O	1.141822	-0.083008	-0.011057
	H466	H	1.144084	-0.089094	-0.016100
	H467	H	1.130417	-0.093016	-0.016893
	O468	O	0.541817	0.422369	0.406918
	H469	H	0.544358	0.427390	0.401993
	H470	H	0.530844	0.420778	0.412082
	O471	O	0.469722	0.548013	0.704269
	H472	H	0.475193	0.545675	0.702583
	H473	H	0.480037	0.563742	0.707826
	O474	O	0.799644	0.240267	-0.034604
	H475	H	0.800133	0.255593	-0.050254
	H476	H	0.789490	0.240845	-0.051638
	O477	O	0.301602	0.305298	1.517311
	H478	H	0.294891	0.313628	1.540934
	H479	H	0.283936	0.289477	1.518681
	O480	O	0.235988	-0.004968	0.761432
	H481	H	0.248945	-0.019590	0.758051
	H482	H	0.246392	-0.011638	0.750907
	O483	O	0.096134	0.060249	0.788053
	H484	H	0.110523	0.051817	0.786182
	H485	H	0.096317	0.051247	0.792212
	O486	O	0.912096	0.184518	0.800291
	H487	H	0.916284	0.158659	0.805789
	H488	H	0.937511	0.196729	0.794359
	O489	O	1.055265	0.805375	-0.235808
	H490	H	1.049807	0.803938	-0.221938
	H491	H	1.050021	0.785933	-0.255550
