data_Molecule from HDF5

_cell_length_a		16.225509
_cell_length_b		16.278903
_cell_length_c		16.352964
_cell_angle_alpha	90.043698
_cell_angle_beta	90.273435
_cell_angle_gamma	90.075890
_symmetry_space_group_name_H-M	'P 1'
_symmetry_Int_Tables_number		1

loop_
	_symmetry_equiv_pos_as_xyz
	x,y,z

loop_
	_atom_site_label
	_atom_site_type_symbol
	_atom_site_fract_x
	_atom_site_fract_y
	_atom_site_fract_z
	H0	H	0.401130	0.841180	0.714070
	H1	H	0.600542	0.168378	0.714187
	H2	H	0.600922	0.841215	0.284097
	H3	H	0.400566	0.168007	0.282096
	H4	H	0.713059	0.407715	0.834071
	H5	H	0.718858	0.603490	0.160685
	H6	H	0.286006	0.602515	0.835287
	H7	H	0.286490	0.405916	0.161979
	H8	H	0.836983	0.718126	0.399327
	H9	H	0.164925	0.718988	0.597541
	H10	H	0.837324	0.290148	0.595612
	H11	H	0.166012	0.290844	0.400418
	H12	H	0.837355	0.403825	0.713343
	H13	H	0.163965	0.605826	0.714735
	H14	H	0.837567	0.603955	0.282050
	H15	H	0.165005	0.405854	0.282974
	H16	H	0.402250	0.719425	0.835803
	H17	H	0.603294	0.720326	0.160981
	H18	H	0.598746	0.288984	0.835499
	H19	H	0.403068	0.289224	0.161973
	H20	H	0.714103	0.840799	0.402518
	H21	H	0.715253	0.168808	0.596620
	H22	H	0.286772	0.840881	0.597047
	H23	H	0.287540	0.169320	0.401308
	H24	H	0.900598	0.342026	0.213462
	H25	H	0.102857	0.668719	0.214413
	H26	H	0.100835	0.341582	0.782434
	H27	H	0.902013	0.668258	0.782604
	H28	H	0.215117	0.906514	0.335662
	H29	H	0.217314	0.104320	0.662518
	H30	H	0.784990	0.103216	0.336002
	H31	H	0.788892	0.907664	0.662713
	H32	H	0.337082	0.217727	0.900597
	H33	H	0.665938	0.218737	0.097652
	H34	H	0.337684	0.790060	0.096029
	H35	H	0.665778	0.791474	0.902615
	H36	H	0.337941	0.904244	0.214080
	H37	H	0.665200	0.103927	0.214822
	H38	H	0.337093	0.102781	0.784014
	H39	H	0.665263	0.905815	0.785615
	H40	H	0.900939	0.219946	0.335679
	H41	H	0.102085	0.221980	0.661727
	H42	H	0.098369	0.790142	0.335199
	H43	H	0.902595	0.788817	0.661582
	H44	H	0.215226	0.341337	0.901054
	H45	H	0.216713	0.668269	0.096914
	H46	H	0.789383	0.340839	0.093506
	H47	H	0.787034	0.668854	0.899441
	H48	H	0.406314	0.123448	0.598968
	H49	H	0.593425	0.889674	0.589932
	H50	H	0.595131	0.119016	0.414470
	H51	H	0.411279	0.887863	0.398954
	H52	H	0.595067	0.412228	0.114132
	H53	H	0.597191	0.597443	0.882136
	H54	H	0.415497	0.598095	0.112764
	H55	H	0.404758	0.419457	0.884851
	H56	H	0.117883	0.599447	0.408528
	H57	H	0.879005	0.608378	0.595946
	H58	H	0.118884	0.408154	0.587659
	H59	H	0.886846	0.419710	0.404348
	H60	H	0.114712	0.419305	0.588016
	H61	H	0.887809	0.596800	0.577266
	H62	H	0.116768	0.594280	0.406651
	H63	H	0.881834	0.409265	0.398012
	H64	H	0.406012	0.601309	0.116746
	H65	H	0.590915	0.595512	0.883668
	H66	H	0.595425	0.408932	0.115130
	H67	H	0.416916	0.408946	0.885739
	H68	H	0.599382	0.124816	0.400666
	H69	H	0.596507	0.886745	0.594499
	H70	H	0.417258	0.118892	0.593008
	H71	H	0.414183	0.891921	0.411172
	H72	H	0.916780	0.621792	0.101442
	H73	H	0.086917	0.388225	0.099972
	H74	H	0.094979	0.621519	0.905309
	H75	H	0.907949	0.387644	0.900495
	H76	H	0.094825	0.905670	0.615791
	H77	H	0.099262	0.104256	0.380002
	H78	H	0.905384	0.099594	0.615711
	H79	H	0.901035	0.910552	0.381202
	H80	H	0.621794	0.107218	0.902107
	H81	H	0.386734	0.091249	0.091214
	H82	H	0.618398	0.909872	0.089632
	H83	H	0.384638	0.918379	0.901354
	H84	H	0.617247	0.916140	0.093021
	H85	H	0.382462	0.099355	0.095574
	H86	H	0.615693	0.096732	0.915557
	H87	H	0.381192	0.905156	0.902387
	H88	H	0.909812	0.095308	0.613462
	H89	H	0.096909	0.089242	0.385187
	H90	H	0.098482	0.914789	0.614612
	H91	H	0.909129	0.915013	0.384865
	H92	H	0.092167	0.621635	0.903749
	H93	H	0.088571	0.393296	0.081907
	H94	H	0.914970	0.617282	0.080724
	H95	H	0.910292	0.389171	0.904581
	H96	H	0.405651	0.120461	0.586142
	H97	H	0.590653	0.888807	0.595487
	H98	H	0.585196	0.119992	0.403057
	H99	H	0.401674	0.887706	0.407625
	H100	H	0.598202	0.411489	0.114678
	H101	H	0.592127	0.601946	0.881797
	H102	H	0.407447	0.591604	0.112844
	H103	H	0.402677	0.404411	0.879662
	H104	H	0.119512	0.598539	0.402511
	H105	H	0.885223	0.585400	0.598236
	H106	H	0.119208	0.414350	0.597562
	H107	H	0.885621	0.408365	0.410796
	H108	H	0.898360	0.625224	0.091656
	H109	H	0.103824	0.385665	0.090738
	H110	H	0.092567	0.620964	0.906908
	H111	H	0.904859	0.388045	0.904822
	H112	H	0.089310	0.913243	0.613168
	H113	H	0.085447	0.099899	0.385586
	H114	H	0.912350	0.101280	0.615119
	H115	H	0.909721	0.905880	0.381636
	H116	H	0.618284	0.090146	0.899147
	H117	H	0.385336	0.099509	0.086049
	H118	H	0.620314	0.910937	0.096528
	H119	H	0.386329	0.911514	0.912638
	C120	C	0.380174	0.012863	0.620689
	C121	C	0.622890	0.996418	0.621712
	C122	C	0.622171	0.013101	0.378166
	C123	C	0.379811	0.997146	0.377211
	C124	C	0.623471	0.382813	0.006634
	C125	C	0.623533	0.626527	0.990152
	C126	C	0.380389	0.625626	0.006454
	C127	C	0.379403	0.382335	0.991061
	C128	C	0.009626	0.626155	0.376714
	C129	C	0.992587	0.625791	0.619344
	C130	C	0.009360	0.384002	0.619709
	C131	C	0.993183	0.383766	0.376403
	C132	C	0.880851	0.513358	0.119176
	C133	C	0.122614	0.496931	0.119941
	C134	C	0.122026	0.513309	0.876799
	C135	C	0.879240	0.496374	0.875378
	C136	C	0.122590	0.882857	0.506841
	C137	C	0.123204	0.126949	0.491004
	C138	C	0.879996	0.126898	0.507059
	C139	C	0.878970	0.882359	0.490409
	C140	C	0.509824	0.125799	0.877396
	C141	C	0.493167	0.125963	0.120299
	C142	C	0.510270	0.882794	0.121245
	C143	C	0.492850	0.883162	0.877753
	C144	C	0.381325	0.889930	0.675986
	C145	C	0.621018	0.119609	0.676449
	C146	C	0.620628	0.890039	0.322706
	C147	C	0.381152	0.119682	0.321006
	C148	C	0.676148	0.386527	0.883075
	C149	C	0.680111	0.623741	0.112445
	C150	C	0.324121	0.623546	0.883993
	C151	C	0.324395	0.385290	0.113289
	C152	C	0.885972	0.680692	0.378930
	C153	C	0.115819	0.681423	0.617662
	C154	C	0.886163	0.328265	0.616496
	C155	C	0.116678	0.328433	0.379272
	C156	C	0.886065	0.384688	0.674905
	C157	C	0.115353	0.625106	0.675988
	C158	C	0.886476	0.624253	0.320408
	C159	C	0.116357	0.385472	0.321066
	C160	C	0.382052	0.681267	0.884180
	C161	C	0.622465	0.681645	0.112771
	C162	C	0.619263	0.327724	0.883911
	C163	C	0.382222	0.327084	0.113223
	C164	C	0.676519	0.889566	0.381756
	C165	C	0.678212	0.119707	0.618163
	C166	C	0.324431	0.889834	0.617711
	C167	C	0.324608	0.120101	0.380034
	C168	C	0.881864	0.390478	0.174551
	C169	C	0.122179	0.619698	0.176285
	C170	C	0.121053	0.390390	0.820636
	C171	C	0.881486	0.619644	0.820542
	C172	C	0.177183	0.886147	0.384219
	C173	C	0.179000	0.124530	0.613780
	C174	C	0.823432	0.124119	0.384507
	C175	C	0.825402	0.885973	0.613571
	C176	C	0.386110	0.180253	0.879951
	C177	C	0.616808	0.180708	0.117952
	C178	C	0.386806	0.827496	0.117578
	C179	C	0.616788	0.829122	0.881534
	C180	C	0.386860	0.884540	0.175848
	C181	C	0.616479	0.124111	0.176393
	C182	C	0.386154	0.123030	0.822263
	C183	C	0.616336	0.885711	0.823204
	C184	C	0.881179	0.181943	0.384338
	C185	C	0.121857	0.183142	0.613337
	C186	C	0.118958	0.828389	0.383847
	C187	C	0.882070	0.827208	0.613109
	C188	C	0.177380	0.389971	0.879861
	C189	C	0.178736	0.619712	0.117866
	C190	C	0.826004	0.390011	0.115464
	C191	C	0.824329	0.619933	0.878441
	C192	C	0.402993	0.098888	0.599001
	C193	C	0.600054	0.910501	0.599929
	C194	C	0.599786	0.099020	0.399881
	C195	C	0.402607	0.911324	0.399284
	C196	C	0.602564	0.404555	0.092449
	C197	C	0.600318	0.604722	0.904700
	C198	C	0.402991	0.603479	0.091961
	C199	C	0.401544	0.404390	0.905374
	C200	C	0.095856	0.604027	0.399373
	C201	C	0.906313	0.603353	0.596895
	C202	C	0.095286	0.407275	0.597612
	C203	C	0.907085	0.405923	0.398019
	C204	C	0.903314	0.599185	0.097532
	C205	C	0.099712	0.411198	0.097648
	C206	C	0.099777	0.599066	0.898852
	C207	C	0.901252	0.410578	0.897030
	C208	C	0.100664	0.904710	0.592472
	C209	C	0.100443	0.104463	0.405639
	C210	C	0.902495	0.105193	0.592580
	C211	C	0.900323	0.903878	0.404772
	C212	C	0.596261	0.104316	0.899177
	C213	C	0.407129	0.103376	0.097585
	C214	C	0.596559	0.905607	0.099447
	C215	C	0.406375	0.904886	0.899151
	Zn216	Zn	0.500990	0.004256	0.749817
	Zn217	Zn	0.501428	0.004922	0.248952
	Zn218	Zn	0.752208	0.504941	-0.002173
	Zn219	Zn	0.250543	0.504668	-0.001546
	Zn220	Zn	0.000499	0.753818	0.498510
	Zn221	Zn	0.001638	0.255852	0.498576
	Zn222	Zn	0.000747	0.505173	0.747763
	Zn223	Zn	0.001589	0.505396	0.248407
	Zn224	Zn	0.501720	0.755285	-0.001328
	Zn225	Zn	0.501548	0.253709	-0.001146
	Zn226	Zn	0.750945	0.004806	0.499240
	Zn227	Zn	0.251733	0.005120	0.499363
	N228	N	0.415301	0.967492	0.677974
	N229	N	0.587148	0.042108	0.678552
	N230	N	0.587684	0.967918	0.320080
	N231	N	0.414360	0.041903	0.318963
	N232	N	0.678904	0.420148	0.960315
	N233	N	0.680538	0.590106	0.035258
	N234	N	0.323132	0.589628	0.961117
	N235	N	0.322580	0.418968	0.036087
	N236	N	0.963620	0.681842	0.413255
	N237	N	0.038452	0.681695	0.582925
	N238	N	0.963764	0.327815	0.582929
	N239	N	0.038993	0.327059	0.412787
	N240	N	0.963711	0.418677	0.676959
	N241	N	0.037650	0.591181	0.677035
	N242	N	0.964430	0.590958	0.319025
	N243	N	0.038673	0.418974	0.319147
	N244	N	0.416240	0.682754	0.961321
	N245	N	0.587984	0.683505	0.035759
	N246	N	0.587139	0.325453	0.961676
	N247	N	0.415505	0.325269	0.036160
	N248	N	0.677562	0.967015	0.415456
	N249	N	0.679543	0.041979	0.584848
	N250	N	0.323737	0.967347	0.584089
	N251	N	0.323925	0.043013	0.414437
	N252	N	0.915329	0.468171	0.176985
	N253	N	0.088015	0.542206	0.177541
	N254	N	0.087125	0.467895	0.818923
	N255	N	0.914789	0.541979	0.818427
	N256	N	0.179546	0.919129	0.461725
	N257	N	0.180082	0.090276	0.536674
	N258	N	0.822649	0.090443	0.461657
	N259	N	0.823421	0.919488	0.536356
	N260	N	0.463946	0.182103	0.913603
	N261	N	0.539203	0.181766	0.083823
	N262	N	0.464745	0.826271	0.084462
	N263	N	0.538931	0.827297	0.914432
	N264	N	0.464730	0.918098	0.178150
	N265	N	0.538536	0.090614	0.177871
	N266	N	0.464138	0.090019	0.820673
	N267	N	0.538250	0.918730	0.820995
	N268	N	0.915729	0.183762	0.461413
	N269	N	0.087831	0.184543	0.536165
	N270	N	0.085813	0.826076	0.461170
	N271	N	0.914700	0.824820	0.535606
	N272	N	0.178035	0.467230	0.914091
	N273	N	0.179234	0.542485	0.083611
	N274	N	0.825247	0.467386	0.081801
	N275	N	0.822703	0.542360	0.911677
	O276	O	0.467387	0.561813	0.496208
	H277	H	0.459847	0.566742	0.498470
	H278	H	0.473308	0.554677	0.491362
	O279	O	0.036187	0.072857	0.032500
	H280	H	0.036660	0.062154	0.026086
	H281	H	0.032006	0.076977	0.030653
	O282	O	1.046579	0.058062	1.027827
	H283	H	1.041385	0.067309	1.027484
	H284	H	1.062947	0.069458	1.034496
	O285	O	0.452556	0.553491	0.498550
	H286	H	0.454905	0.546522	0.500136
	H287	H	0.443044	0.553580	0.504639
	O288	O	1.032016	0.097275	0.026282
	H289	H	1.028732	0.101990	0.022315
	H290	H	1.031571	0.097780	0.029778
	O291	O	-0.518365	0.526753	-0.499793
	H292	H	-0.509262	0.530094	-0.515067
	H293	H	-0.513872	0.523003	-0.494422
	O294	O	0.483437	0.540495	0.486679
	H295	H	0.477993	0.544815	0.488703
	H296	H	0.485698	0.540154	0.493697
	O297	O	0.061958	1.042319	0.042044
	H298	H	0.061795	1.038099	0.037456
	H299	H	0.062173	1.042131	0.052163
	O300	O	1.019041	0.028779	1.061021
	H301	H	1.016077	0.030642	1.052214
	H302	H	1.019338	0.034614	1.064560
	O303	O	0.497189	0.506288	0.473718
	H304	H	0.505994	0.511730	0.467889
	H305	H	0.493197	0.508580	0.473482
	O306	O	0.068327	1.095838	1.055997
	H307	H	0.065967	1.094320	1.060917
	H308	H	0.077021	1.096867	1.062509
	O309	O	0.515892	0.563783	0.459784
	H310	H	0.513817	0.566211	0.462790
	H311	H	0.508959	0.570578	0.453814
