data_Molecule from HDF5

_cell_length_a		16.337674
_cell_length_b		16.305165
_cell_length_c		16.232048
_cell_angle_alpha	89.967451
_cell_angle_beta	89.955182
_cell_angle_gamma	89.927103
_symmetry_space_group_name_H-M	'P 1'
_symmetry_Int_Tables_number		1

loop_
	_symmetry_equiv_pos_as_xyz
	x,y,z

loop_
	_atom_site_label
	_atom_site_type_symbol
	_atom_site_fract_x
	_atom_site_fract_y
	_atom_site_fract_z
	H0	H	0.400699	0.837774	0.715354
	H1	H	0.593416	0.165692	0.713537
	H2	H	0.596068	0.837223	0.286436
	H3	H	0.399876	0.165645	0.287219
	H4	H	0.712024	0.401904	0.837303
	H5	H	0.711028	0.598593	0.165016
	H6	H	0.283502	0.599890	0.836763
	H7	H	0.282940	0.403461	0.165487
	H8	H	0.833855	0.716767	0.402728
	H9	H	0.160847	0.715481	0.599133
	H10	H	0.833906	0.287110	0.599861
	H11	H	0.160685	0.286354	0.402150
	H12	H	0.834192	0.404461	0.715577
	H13	H	0.161187	0.598131	0.714027
	H14	H	0.833261	0.598902	0.287314
	H15	H	0.161548	0.404879	0.288239
	H16	H	0.399947	0.715452	0.836948
	H17	H	0.593806	0.713649	0.165981
	H18	H	0.596659	0.286613	0.838142
	H19	H	0.399662	0.288243	0.165836
	H20	H	0.712588	0.837818	0.402649
	H21	H	0.711995	0.164434	0.600191
	H22	H	0.282166	0.838056	0.601109
	H23	H	0.282106	0.164908	0.402056
	H24	H	0.901019	0.337016	0.214492
	H25	H	0.093520	0.665022	0.214567
	H26	H	0.094768	0.337872	0.787076
	H27	H	0.900756	0.665689	0.787636
	H28	H	0.212240	0.902611	0.336627
	H29	H	0.210287	0.098279	0.665769
	H30	H	0.782365	0.100264	0.337195
	H31	H	0.782178	0.901677	0.665267
	H32	H	0.334129	0.217008	0.903399
	H33	H	0.661432	0.215977	0.100318
	H34	H	0.334011	0.786937	0.100349
	H35	H	0.660635	0.786567	0.902427
	H36	H	0.333543	0.904543	0.214758
	H37	H	0.660806	0.097853	0.215557
	H38	H	0.333368	0.098783	0.788325
	H39	H	0.661746	0.905452	0.787982
	H40	H	0.901415	0.213621	0.336140
	H41	H	0.094892	0.215037	0.665492
	H42	H	0.095604	0.787778	0.336112
	H43	H	0.900107	0.787739	0.665571
	H44	H	0.212774	0.338255	0.901588
	H45	H	0.210856	0.665414	0.098919
	H46	H	0.782141	0.337899	0.100388
	H47	H	0.781471	0.664413	0.901185
	H48	H	0.400187	0.117130	0.589782
	H49	H	0.583513	0.888888	0.586308
	H50	H	0.584184	0.113385	0.414488
	H51	H	0.401040	0.885766	0.410458
	H52	H	0.601288	0.418887	0.119220
	H53	H	0.591613	0.593813	0.884348
	H54	H	0.401350	0.594477	0.117769
	H55	H	0.404684	0.397236	0.881511
	H56	H	0.117555	0.601191	0.399368
	H57	H	0.879230	0.594516	0.601902
	H58	H	0.113363	0.410841	0.595048
	H59	H	0.881324	0.405717	0.410412
	H60	H	0.114984	0.404433	0.595201
	H61	H	0.880884	0.602148	0.590957
	H62	H	0.111828	0.599105	0.416684
	H63	H	0.881921	0.410350	0.406980
	H64	H	0.405287	0.592985	0.117353
	H65	H	0.588288	0.593718	0.884935
	H66	H	0.576498	0.413519	0.113504
	H67	H	0.393985	0.413899	0.883001
	H68	H	0.599008	0.118814	0.412035
	H69	H	0.602497	0.882727	0.591344
	H70	H	0.399761	0.120489	0.598984
	H71	H	0.404381	0.884639	0.405755
	H72	H	0.898498	0.619339	0.095698
	H73	H	0.093825	0.387783	0.081864
	H74	H	0.092528	0.619875	0.902886
	H75	H	0.899586	0.385786	0.913154
	H76	H	0.084410	0.910012	0.615100
	H77	H	0.090382	0.090516	0.385285
	H78	H	0.904821	0.100186	0.619562
	H79	H	0.900955	0.914420	0.384819
	H80	H	0.615759	0.098225	0.905304
	H81	H	0.382034	0.094768	0.094667
	H82	H	0.615574	0.900021	0.094594
	H83	H	0.385532	0.910672	0.919978
	H84	H	0.610389	0.911218	0.087363
	H85	H	0.380881	0.097288	0.094691
	H86	H	0.611982	0.096263	0.911678
	H87	H	0.381544	0.916401	0.899927
	H88	H	0.898515	0.092292	0.619285
	H89	H	0.087580	0.097378	0.384080
	H90	H	0.091904	0.901837	0.620038
	H91	H	0.910507	0.909537	0.386391
	H92	H	0.087413	0.616870	0.907814
	H93	H	0.101836	0.380220	0.101173
	H94	H	0.908454	0.617147	0.097442
	H95	H	0.902508	0.382930	0.902630
	H96	H	0.408174	0.116840	0.595315
	H97	H	0.587325	0.882487	0.606071
	H98	H	0.588873	0.118590	0.399841
	H99	H	0.406289	0.886680	0.410551
	H100	H	0.592675	0.395652	0.122389
	H101	H	0.590167	0.596223	0.883438
	H102	H	0.404234	0.596883	0.118320
	H103	H	0.412922	0.414026	0.888906
	H104	H	0.110682	0.585019	0.405457
	H105	H	0.883921	0.589343	0.589930
	H106	H	0.111898	0.407854	0.590506
	H107	H	0.880380	0.405956	0.404842
	H108	H	0.904252	0.614903	0.087910
	H109	H	0.080544	0.386554	0.099647
	H110	H	0.094602	0.618163	0.909832
	H111	H	0.910362	0.387774	0.909941
	H112	H	0.096220	0.912963	0.617894
	H113	H	0.094407	0.096289	0.382687
	H114	H	0.907567	0.091037	0.615928
	H115	H	0.902726	0.903912	0.382667
	H116	H	0.612927	0.091704	0.906554
	H117	H	0.381748	0.096148	0.092393
	H118	H	0.613786	0.912805	0.101283
	H119	H	0.377855	0.897151	0.905999
	C120	C	0.374902	0.009985	0.623230
	C121	C	0.618976	0.992961	0.622725
	C122	C	0.619097	0.008830	0.379924
	C123	C	0.375614	0.993559	0.379948
	C124	C	0.618561	0.380680	0.009877
	C125	C	0.618582	0.622994	0.992500
	C126	C	0.375350	0.623426	0.009524
	C127	C	0.375690	0.380303	0.993163
	C128	C	0.005094	0.623623	0.378901
	C129	C	0.989227	0.623206	0.622425
	C130	C	0.005606	0.379793	0.622288
	C131	C	0.989217	0.379182	0.378943
	C132	C	0.875472	0.509301	0.122523
	C133	C	0.119132	0.493115	0.122413
	C134	C	0.119366	0.509756	0.879078
	C135	C	0.875722	0.493190	0.879480
	C136	C	0.118979	0.880189	0.508935
	C137	C	0.118574	0.122578	0.492932
	C138	C	0.875576	0.123156	0.509543
	C139	C	0.876476	0.880421	0.493214
	C140	C	0.505425	0.123491	0.879737
	C141	C	0.489280	0.123703	0.123009
	C142	C	0.505381	0.879865	0.123044
	C143	C	0.489520	0.880026	0.879876
	C144	C	0.378987	0.886449	0.677683
	C145	C	0.614853	0.116562	0.676688
	C146	C	0.616050	0.885818	0.324819
	C147	C	0.378782	0.116694	0.324849
	C148	C	0.673812	0.382416	0.886289
	C149	C	0.673244	0.619662	0.116086
	C150	C	0.320993	0.620597	0.885868
	C151	C	0.320867	0.382862	0.116615
	C152	C	0.882364	0.678349	0.382464
	C153	C	0.112069	0.677845	0.619644
	C154	C	0.882723	0.324739	0.620376
	C155	C	0.112073	0.324575	0.381677
	C156	C	0.882685	0.383208	0.677716
	C157	C	0.112280	0.619978	0.677225
	C158	C	0.882031	0.619945	0.325059
	C159	C	0.112420	0.383347	0.325031
	C160	C	0.378650	0.678131	0.886064
	C161	C	0.615152	0.676640	0.116555
	C162	C	0.616605	0.325099	0.886686
	C163	C	0.378974	0.325716	0.116868
	C164	C	0.674577	0.886255	0.382144
	C165	C	0.673433	0.116013	0.620281
	C166	C	0.320183	0.886791	0.620942
	C167	C	0.320562	0.116423	0.382068
	C168	C	0.879368	0.385834	0.177087
	C169	C	0.115281	0.616323	0.177168
	C170	C	0.115965	0.386689	0.824539
	C171	C	0.879361	0.616494	0.824899
	C172	C	0.174275	0.882369	0.385543
	C173	C	0.172662	0.119173	0.616737
	C174	C	0.820654	0.120426	0.385964
	C175	C	0.820724	0.881920	0.616561
	C176	C	0.382715	0.178825	0.882660
	C177	C	0.612472	0.178145	0.120806
	C178	C	0.382632	0.825001	0.120315
	C179	C	0.612157	0.824973	0.882021
	C180	C	0.382312	0.883459	0.177361
	C181	C	0.612234	0.119415	0.177756
	C182	C	0.382208	0.119879	0.825791
	C183	C	0.612661	0.883704	0.824853
	C184	C	0.879293	0.176969	0.385485
	C185	C	0.115180	0.176947	0.616668
	C186	C	0.116140	0.825353	0.385331
	C187	C	0.879088	0.825133	0.616602
	C188	C	0.174624	0.386927	0.881206
	C189	C	0.173213	0.616418	0.119715
	C190	C	0.820293	0.386390	0.120506
	C191	C	0.820329	0.616004	0.881435
	C192	C	0.396292	0.095861	0.601265
	C193	C	0.597507	0.906801	0.600855
	C194	C	0.597221	0.094819	0.402222
	C195	C	0.397615	0.907801	0.402127
	C196	C	0.596755	0.402957	0.096060
	C197	C	0.596531	0.601153	0.906510
	C198	C	0.396972	0.601296	0.095709
	C199	C	0.397429	0.401976	0.906657
	C200	C	0.091227	0.601664	0.400679
	C201	C	0.903513	0.601777	0.600661
	C202	C	0.091083	0.401314	0.600204
	C203	C	0.903202	0.400909	0.401044
	C204	C	0.897168	0.594957	0.100241
	C205	C	0.098281	0.406970	0.100791
	C206	C	0.097918	0.596111	0.900744
	C207	C	0.897674	0.407460	0.901943
	C208	C	0.097278	0.901907	0.595400
	C209	C	0.097129	0.101049	0.406373
	C210	C	0.897125	0.101006	0.595831
	C211	C	0.898184	0.902688	0.406905
	C212	C	0.591134	0.101750	0.901289
	C213	C	0.403749	0.102398	0.100677
	C214	C	0.591128	0.901524	0.100814
	C215	C	0.403791	0.901763	0.902166
	Zn216	Zn	0.497582	0.001441	0.750482
	Zn217	Zn	0.496817	0.001209	0.251465
	Zn218	Zn	0.746607	0.501389	0.000911
	Zn219	Zn	0.247373	0.501477	0.000860
	Zn220	Zn	-0.002357	0.752214	0.500940
	Zn221	Zn	-0.002858	0.250912	0.500731
	Zn222	Zn	-0.002318	0.501707	0.750906
	Zn223	Zn	-0.003082	0.501148	0.250949
	Zn224	Zn	0.497322	0.751217	0.001674
	Zn225	Zn	0.497791	0.252648	0.001793
	Zn226	Zn	0.748042	0.001236	0.501880
	Zn227	Zn	0.246972	0.001367	0.501036
	N228	N	0.412103	0.963879	0.679244
	N229	N	0.581647	0.039015	0.678142
	N230	N	0.582208	0.963191	0.323410
	N231	N	0.412251	0.039203	0.323423
	N232	N	0.675201	0.416155	0.964064
	N233	N	0.675523	0.587051	0.038072
	N234	N	0.319047	0.587174	0.963551
	N235	N	0.318837	0.416113	0.038817
	N236	N	0.960034	0.680512	0.415262
	N237	N	0.034710	0.680054	0.586368
	N238	N	0.959891	0.322950	0.586351
	N239	N	0.034469	0.322305	0.414757
	N240	N	0.959954	0.416822	0.679005
	N241	N	0.034976	0.586500	0.678746
	N242	N	0.959385	0.586530	0.322956
	N243	N	0.035018	0.416838	0.323431
	N244	N	0.411712	0.680000	0.964023
	N245	N	0.582025	0.678868	0.038690
	N246	N	0.582706	0.324064	0.964268
	N247	N	0.412355	0.324022	0.038925
	N248	N	0.676758	0.963861	0.415340
	N249	N	0.676095	0.038229	0.587558
	N250	N	0.317669	0.964600	0.587675
	N251	N	0.318528	0.039102	0.415619
	N252	N	0.912909	0.463117	0.178428
	N253	N	0.082229	0.538752	0.178918
	N254	N	0.082388	0.464088	0.823016
	N255	N	0.913069	0.539111	0.823619
	N256	N	0.176116	0.915620	0.463406
	N257	N	0.174951	0.086122	0.538810
	N258	N	0.818431	0.087590	0.464065
	N259	N	0.819186	0.915695	0.538829
	N260	N	0.460284	0.181230	0.915508
	N261	N	0.535058	0.180993	0.087392
	N262	N	0.460320	0.822728	0.087223
	N263	N	0.534843	0.822581	0.915209
	N264	N	0.459519	0.916665	0.179162
	N265	N	0.534703	0.086524	0.179379
	N266	N	0.459492	0.086113	0.823826
	N267	N	0.535247	0.917346	0.823323
	N268	N	0.912683	0.178681	0.463150
	N269	N	0.082249	0.179033	0.538635
	N270	N	0.082387	0.823865	0.462951
	N271	N	0.913003	0.824226	0.538942
	N272	N	0.176689	0.464594	0.914408
	N273	N	0.175739	0.538826	0.086520
	N274	N	0.817897	0.464106	0.087299
	N275	N	0.817865	0.538357	0.914720
	O276	O	0.964455	-0.112140	1.036852
	H277	H	0.957322	-0.122763	1.041003
	H278	H	0.961815	-0.113040	1.036271
	O279	O	0.498147	0.488440	0.446978
	H280	H	0.494501	0.490984	0.448243
	H281	H	0.497581	0.482393	0.441721
	O282	O	0.983783	0.892248	0.046296
	H283	H	0.980262	0.890576	0.048058
	H284	H	0.978245	0.888882	0.040640
	O285	O	0.473888	0.455947	0.443169
	H286	H	0.471449	0.453065	0.439400
	H287	H	0.473897	0.453301	0.441743
