data_Molecule from HDF5

_cell_length_a		16.295414
_cell_length_b		16.262989
_cell_length_c		16.327812
_cell_angle_alpha	89.878940
_cell_angle_beta	90.032446
_cell_angle_gamma	90.004726
_symmetry_space_group_name_H-M	'P 1'
_symmetry_Int_Tables_number		1

loop_
	_symmetry_equiv_pos_as_xyz
	x,y,z

loop_
	_atom_site_label
	_atom_site_type_symbol
	_atom_site_fract_x
	_atom_site_fract_y
	_atom_site_fract_z
	H0	H	0.400951	0.835475	0.716344
	H1	H	0.598799	0.162461	0.716841
	H2	H	0.597794	0.835727	0.287390
	H3	H	0.400501	0.162717	0.286681
	H4	H	0.712817	0.401654	0.838838
	H5	H	0.713349	0.597793	0.166009
	H6	H	0.283515	0.598486	0.839305
	H7	H	0.283954	0.400866	0.165767
	H8	H	0.835239	0.714683	0.403163
	H9	H	0.162027	0.713502	0.600115
	H10	H	0.835280	0.283730	0.600317
	H11	H	0.163246	0.286763	0.405835
	H12	H	0.834708	0.399451	0.716399
	H13	H	0.161513	0.597764	0.716569
	H14	H	0.834894	0.597624	0.287619
	H15	H	0.161785	0.400118	0.287133
	H16	H	0.400955	0.712874	0.838982
	H17	H	0.595213	0.711974	0.166484
	H18	H	0.595337	0.286184	0.838430
	H19	H	0.401171	0.285159	0.165915
	H20	H	0.711947	0.835189	0.403912
	H21	H	0.713763	0.162743	0.599187
	H22	H	0.285329	0.835140	0.599998
	H23	H	0.285466	0.163519	0.403120
	H24	H	0.900570	0.335282	0.217157
	H25	H	0.096541	0.662909	0.217028
	H26	H	0.097317	0.335338	0.788524
	H27	H	0.898669	0.662445	0.786524
	H28	H	0.212247	0.902205	0.337975
	H29	H	0.213944	0.096847	0.664913
	H30	H	0.783900	0.099148	0.338129
	H31	H	0.783848	0.900490	0.664357
	H32	H	0.334634	0.213303	0.903812
	H33	H	0.662461	0.212493	0.099065
	H34	H	0.334518	0.786501	0.099229
	H35	H	0.662437	0.786820	0.906575
	H36	H	0.335797	0.899655	0.218033
	H37	H	0.662566	0.095952	0.214966
	H38	H	0.335373	0.098616	0.786354
	H39	H	0.661861	0.900605	0.788269
	H40	H	0.900582	0.215215	0.338678
	H41	H	0.096590	0.211908	0.665995
	H42	H	0.096312	0.785263	0.338384
	H43	H	0.900616	0.785272	0.664909
	H44	H	0.212199	0.335411	0.905308
	H45	H	0.211627	0.663686	0.099813
	H46	H	0.783943	0.335372	0.101157
	H47	H	0.784135	0.663541	0.903866
	H48	H	0.409102	0.113960	0.593264
	H49	H	0.594073	0.879174	0.603354
	H50	H	0.600169	0.118929	0.406504
	H51	H	0.407964	0.881900	0.404784
	H52	H	0.598357	0.399176	0.122203
	H53	H	0.593811	0.590892	0.886216
	H54	H	0.407486	0.592140	0.117477
	H55	H	0.405834	0.407648	0.886657
	H56	H	0.114028	0.594968	0.415695
	H57	H	0.879095	0.601156	0.593996
	H58	H	0.113342	0.402754	0.585530
	H59	H	0.885000	0.409210	0.415104
	H60	H	0.112324	0.417413	0.600869
	H61	H	0.885900	0.587824	0.586960
	H62	H	0.112616	0.584725	0.407570
	H63	H	0.881916	0.410212	0.404541
	H64	H	0.403898	0.594734	0.119289
	H65	H	0.588867	0.593264	0.886917
	H66	H	0.595772	0.413821	0.116930
	H67	H	0.405201	0.405261	0.885849
	H68	H	0.586084	0.116560	0.400734
	H69	H	0.583714	0.885045	0.594250
	H70	H	0.403073	0.116442	0.592999
	H71	H	0.407629	0.884729	0.413356
	H72	H	0.893304	0.617271	0.089239
	H73	H	0.091871	0.382872	0.095639
	H74	H	0.097814	0.618966	0.903912
	H75	H	0.905081	0.382923	0.909830
	H76	H	0.089126	0.899143	0.619232
	H77	H	0.097518	0.091281	0.384777
	H78	H	0.898191	0.094309	0.620483
	H79	H	0.900800	0.899171	0.381682
	H80	H	0.612986	0.090592	0.913729
	H81	H	0.380587	0.095952	0.097298
	H82	H	0.613571	0.909199	0.093720
	H83	H	0.383183	0.910863	0.908706
	H84	H	0.616632	0.905457	0.101120
	H85	H	0.383441	0.092469	0.090683
	H86	H	0.615229	0.089497	0.905306
	H87	H	0.379832	0.904977	0.904392
	H88	H	0.906628	0.081936	0.614476
	H89	H	0.088142	0.089869	0.387720
	H90	H	0.100317	0.906627	0.619814
	H91	H	0.901242	0.914604	0.386417
	H92	H	0.080934	0.614157	0.904849
	H93	H	0.091094	0.382529	0.096404
	H94	H	0.906008	0.619871	0.109015
	H95	H	0.904604	0.382879	0.909258
	H96	H	0.406598	0.117087	0.598746
	H97	H	0.597809	0.882692	0.589207
	H98	H	0.588688	0.112942	0.416175
	H99	H	0.400317	0.881291	0.409639
	H100	H	0.584194	0.403098	0.116751
	H101	H	0.593268	0.596345	0.884659
	H102	H	0.402869	0.590129	0.118778
	H103	H	0.403500	0.407146	0.886716
	H104	H	0.117900	0.595901	0.403461
	H105	H	0.881400	0.587259	0.602850
	H106	H	0.119549	0.398517	0.604714
	H107	H	0.880897	0.400691	0.409685
	H108	H	0.915677	0.611094	0.089330
	H109	H	0.091055	0.383390	0.095323
	H110	H	0.091874	0.613189	0.919353
	H111	H	0.905001	0.382684	0.908953
	H112	H	0.088714	0.912618	0.614612
	H113	H	0.091011	0.099069	0.384719
	H114	H	0.913775	0.097150	0.616033
	H115	H	0.914457	0.905745	0.387459
	H116	H	0.616271	0.097240	0.908356
	H117	H	0.382062	0.087990	0.097687
	H118	H	0.616453	0.900833	0.093957
	H119	H	0.382631	0.903149	0.911928
	C120	C	0.377712	0.007576	0.623251
	C121	C	0.620908	0.990427	0.624107
	C122	C	0.620145	0.007796	0.379800
	C123	C	0.377023	0.990842	0.380174
	C124	C	0.620197	0.377334	0.010670
	C125	C	0.619834	0.621143	0.994529
	C126	C	0.376472	0.621034	0.010627
	C127	C	0.376895	0.378292	0.994140
	C128	C	0.006871	0.620613	0.380413
	C129	C	0.990103	0.620812	0.623649
	C130	C	0.006920	0.377156	0.624637
	C131	C	0.990648	0.378315	0.381254
	C132	C	0.876845	0.507708	0.124182
	C133	C	0.119881	0.490867	0.124308
	C134	C	0.119336	0.507491	0.880863
	C135	C	0.876443	0.491162	0.880916
	C136	C	0.120585	0.877806	0.510045
	C137	C	0.121010	0.121319	0.493574
	C138	C	0.877204	0.120671	0.509412
	C139	C	0.876571	0.877303	0.493075
	C140	C	0.506507	0.120666	0.880448
	C141	C	0.490152	0.120487	0.123569
	C142	C	0.506983	0.877444	0.124082
	C143	C	0.489910	0.877830	0.880628
	C144	C	0.380307	0.884449	0.678571
	C145	C	0.618515	0.113756	0.678792
	C146	C	0.617424	0.884308	0.325563
	C147	C	0.380421	0.114158	0.325137
	C148	C	0.674647	0.380891	0.887407
	C149	C	0.674955	0.617750	0.117326
	C150	C	0.321074	0.618940	0.888217
	C151	C	0.321884	0.380592	0.116999
	C152	C	0.883878	0.676152	0.382968
	C153	C	0.113304	0.675261	0.620349
	C154	C	0.884028	0.321665	0.621137
	C155	C	0.114062	0.324020	0.384224
	C156	C	0.883521	0.379434	0.678541
	C157	C	0.112695	0.618333	0.678943
	C158	C	0.883734	0.618493	0.325254
	C159	C	0.113373	0.380440	0.325672
	C160	C	0.379606	0.675715	0.887899
	C161	C	0.616606	0.674994	0.117527
	C162	C	0.616794	0.323131	0.887346
	C163	C	0.379864	0.322893	0.116925
	C164	C	0.674496	0.884224	0.383084
	C165	C	0.675910	0.113823	0.620574
	C166	C	0.322813	0.884161	0.620785
	C167	C	0.322737	0.114394	0.382657
	C168	C	0.879857	0.384016	0.179060
	C169	C	0.116770	0.614543	0.178733
	C170	C	0.117398	0.384236	0.826111
	C171	C	0.878849	0.614017	0.825262
	C172	C	0.175064	0.880993	0.386947
	C173	C	0.176011	0.117835	0.616298
	C174	C	0.822076	0.118983	0.386812
	C175	C	0.821758	0.879808	0.615650
	C176	C	0.383422	0.175502	0.883282
	C177	C	0.613470	0.174865	0.120128
	C178	C	0.383745	0.823186	0.120864
	C179	C	0.613390	0.823757	0.884662
	C180	C	0.384150	0.879949	0.179312
	C181	C	0.613589	0.117132	0.177682
	C182	C	0.383829	0.118390	0.824799
	C183	C	0.613089	0.880456	0.826310
	C184	C	0.880096	0.176684	0.387150
	C185	C	0.117794	0.175033	0.616872
	C186	C	0.117465	0.822976	0.387110
	C187	C	0.879542	0.822371	0.615779
	C188	C	0.174401	0.384159	0.884241
	C189	C	0.174171	0.614733	0.120859
	C190	C	0.821856	0.384123	0.121553
	C191	C	0.822111	0.614616	0.883889
	C192	C	0.399575	0.093721	0.601184
	C193	C	0.598546	0.904659	0.602240
	C194	C	0.598264	0.093882	0.401356
	C195	C	0.398854	0.904608	0.402635
	C196	C	0.599009	0.398666	0.096400
	C197	C	0.598375	0.599818	0.908193
	C198	C	0.398381	0.598825	0.096686
	C199	C	0.398476	0.400297	0.908512
	C200	C	0.092584	0.598336	0.402418
	C201	C	0.904191	0.598474	0.601271
	C202	C	0.092921	0.399503	0.603356
	C203	C	0.904889	0.400405	0.403092
	C204	C	0.898509	0.593852	0.102449
	C205	C	0.097724	0.405113	0.102393
	C206	C	0.096889	0.593339	0.902771
	C207	C	0.898334	0.404946	0.902843
	C208	C	0.098947	0.899643	0.595717
	C209	C	0.098807	0.099786	0.407887
	C210	C	0.899489	0.097633	0.594961
	C211	C	0.899023	0.899871	0.407230
	C212	C	0.592695	0.098814	0.902593
	C213	C	0.404149	0.098576	0.101804
	C214	C	0.593220	0.898709	0.102574
	C215	C	0.403921	0.899705	0.902202
	Zn216	Zn	0.498554	-0.000604	0.752176
	Zn217	Zn	0.498963	-0.000998	0.252418
	Zn218	Zn	0.748342	0.499557	0.002585
	Zn219	Zn	0.247453	0.499476	0.002496
	Zn220	Zn	-0.001482	0.749244	0.501649
	Zn221	Zn	-0.000949	0.249641	0.502234
	Zn222	Zn	-0.001923	0.498978	0.752362
	Zn223	Zn	-0.001424	0.499167	0.252140
	Zn224	Zn	0.498177	0.749447	0.002364
	Zn225	Zn	0.498228	0.248784	0.002212
	Zn226	Zn	0.748138	-0.000969	0.500952
	Zn227	Zn	0.249434	-0.000650	0.501467
	N228	N	0.413640	0.962041	0.680184
	N229	N	0.585303	0.036071	0.681108
	N230	N	0.584450	0.962071	0.323564
	N231	N	0.413451	0.036300	0.323520
	N232	N	0.676680	0.414140	0.964773
	N233	N	0.676788	0.584932	0.039752
	N234	N	0.319278	0.585431	0.965591
	N235	N	0.320053	0.414548	0.039732
	N236	N	0.961430	0.677521	0.416426
	N237	N	0.036078	0.676857	0.586723
	N238	N	0.961750	0.320188	0.588268
	N239	N	0.036821	0.322409	0.418115
	N240	N	0.960966	0.412973	0.680994
	N241	N	0.034979	0.585161	0.680906
	N242	N	0.961144	0.584849	0.323372
	N243	N	0.035682	0.413455	0.323593
	N244	N	0.413278	0.677095	0.965124
	N245	N	0.583198	0.677200	0.040141
	N246	N	0.583645	0.320801	0.964837
	N247	N	0.413361	0.321249	0.039733
	N248	N	0.676286	0.961875	0.416181
	N249	N	0.677376	0.036499	0.586993
	N250	N	0.321414	0.961716	0.586833
	N251	N	0.321008	0.036894	0.416364
	N252	N	0.913321	0.461669	0.180822
	N253	N	0.083960	0.536639	0.180989
	N254	N	0.083937	0.461931	0.823919
	N255	N	0.912042	0.536286	0.823436
	N256	N	0.177199	0.914227	0.464297
	N257	N	0.178118	0.085297	0.538684
	N258	N	0.820189	0.084913	0.463962
	N259	N	0.819862	0.913289	0.538200
	N260	N	0.460828	0.177208	0.916915
	N261	N	0.535913	0.176773	0.087062
	N262	N	0.460896	0.821708	0.087214
	N263	N	0.535783	0.822127	0.917963
	N264	N	0.461940	0.912927	0.181624
	N265	N	0.535997	0.083909	0.179817
	N266	N	0.461493	0.085292	0.822994
	N267	N	0.535377	0.913286	0.823535
	N268	N	0.913861	0.177637	0.464412
	N269	N	0.084081	0.177229	0.539591
	N270	N	0.084568	0.820655	0.464604
	N271	N	0.912965	0.820938	0.538428
	N272	N	0.175457	0.461671	0.917674
	N273	N	0.176447	0.536990	0.087890
	N274	N	0.820083	0.461725	0.087982
	N275	N	0.820587	0.537056	0.917589
	O276	O	0.929734	0.043968	0.939527
	H277	H	0.927902	0.048697	0.940998
	H278	H	0.924161	0.042990	0.937329
	O279	O	0.429663	0.501562	0.476112
	H280	H	0.427663	0.502126	0.473328
	H281	H	0.430497	0.505938	0.476481
	O282	O	0.948927	1.013818	-0.088816
	H283	H	0.947840	1.010245	-0.093269
	H284	H	0.948267	1.017411	-0.089926
	O285	O	0.424493	0.503296	0.497307
	H286	H	0.423773	0.503436	0.495676
	H287	H	0.423345	0.511128	0.500397
