data_Molecule from HDF5

_cell_length_a		16.384179
_cell_length_b		16.330675
_cell_length_c		16.263117
_cell_angle_alpha	89.885891
_cell_angle_beta	89.803086
_cell_angle_gamma	90.456741
_symmetry_space_group_name_H-M	'P 1'
_symmetry_Int_Tables_number		1

loop_
	_symmetry_equiv_pos_as_xyz
	x,y,z

loop_
	_atom_site_label
	_atom_site_type_symbol
	_atom_site_fract_x
	_atom_site_fract_y
	_atom_site_fract_z
	H0	H	0.394376	0.839579	0.718415
	H1	H	0.601179	0.161942	0.718674
	H2	H	0.597996	0.838335	0.284788
	H3	H	0.399936	0.162203	0.284116
	H4	H	0.716239	0.398729	0.840871
	H5	H	0.716783	0.605753	0.164104
	H6	H	0.279202	0.602309	0.841159
	H7	H	0.277789	0.397334	0.163649
	H8	H	0.836445	0.718384	0.401300
	H9	H	0.157344	0.720325	0.605512
	H10	H	0.837935	0.277651	0.608110
	H11	H	0.158573	0.286834	0.400840
	H12	H	0.835659	0.395925	0.721086
	H13	H	0.158171	0.602458	0.718980
	H14	H	0.836733	0.602781	0.284396
	H15	H	0.157642	0.401622	0.284375
	H16	H	0.395628	0.716354	0.840326
	H17	H	0.601030	0.720677	0.164227
	H18	H	0.598951	0.284116	0.839514
	H19	H	0.393997	0.282035	0.163814
	H20	H	0.715910	0.839657	0.398105
	H21	H	0.718449	0.160928	0.603837
	H22	H	0.277125	0.840451	0.605181
	H23	H	0.280472	0.161291	0.396416
	H24	H	0.891765	0.339191	0.222214
	H25	H	0.099304	0.661584	0.219536
	H26	H	0.094833	0.338463	0.785131
	H27	H	0.894780	0.661308	0.784237
	H28	H	0.215302	0.898194	0.340000
	H29	H	0.216919	0.103814	0.663192
	H30	H	0.781151	0.104412	0.340631
	H31	H	0.775987	0.896343	0.662652
	H32	H	0.337238	0.218292	0.896884
	H33	H	0.656556	0.222159	0.104392
	H34	H	0.337275	0.779661	0.106800
	H35	H	0.657082	0.781820	0.897874
	H36	H	0.337492	0.895407	0.222186
	H37	H	0.659074	0.104593	0.218065
	H38	H	0.336159	0.102056	0.782602
	H39	H	0.657614	0.899755	0.782597
	H40	H	0.896797	0.219134	0.340734
	H41	H	0.100112	0.218177	0.664164
	H42	H	0.098419	0.783318	0.340215
	H43	H	0.892633	0.781580	0.664435
	H44	H	0.214523	0.339262	0.897489
	H45	H	0.217057	0.660438	0.105640
	H46	H	0.775673	0.339982	0.106762
	H47	H	0.779150	0.661324	0.899872
	H48	H	0.406392	0.115434	0.588967
	H49	H	0.582428	0.886844	0.593156
	H50	H	0.598680	0.118161	0.410525
	H51	H	0.407552	0.886370	0.411485
	H52	H	0.581210	0.413316	0.114097
	H53	H	0.593072	0.581690	0.890251
	H54	H	0.403431	0.585801	0.117367
	H55	H	0.401643	0.409963	0.886097
	H56	H	0.114221	0.598228	0.407972
	H57	H	0.883028	0.589446	0.591020
	H58	H	0.113035	0.408878	0.597518
	H59	H	0.883590	0.412113	0.415435
	H60	H	0.111292	0.407746	0.590790
	H61	H	0.881843	0.588822	0.595317
	H62	H	0.109426	0.593232	0.418971
	H63	H	0.881130	0.409268	0.409356
	H64	H	0.411321	0.589245	0.116974
	H65	H	0.577217	0.590542	0.891948
	H66	H	0.584161	0.406010	0.117658
	H67	H	0.407170	0.411495	0.886487
	H68	H	0.586897	0.116548	0.403079
	H69	H	0.587168	0.887331	0.587000
	H70	H	0.405472	0.117003	0.592554
	H71	H	0.405646	0.885861	0.413827
	H72	H	0.911741	0.613185	0.092795
	H73	H	0.084686	0.386724	0.090037
	H74	H	0.086883	0.615591	0.908065
	H75	H	0.904111	0.386009	0.914252
	H76	H	0.081874	0.913331	0.614816
	H77	H	0.085437	0.097731	0.386285
	H78	H	0.906254	0.088466	0.617251
	H79	H	0.907436	0.910435	0.388001
	H80	H	0.612122	0.088272	0.903335
	H81	H	0.386195	0.081584	0.091917
	H82	H	0.611249	0.905851	0.084694
	H83	H	0.381143	0.902203	0.912839
	H84	H	0.608188	0.917266	0.089302
	H85	H	0.379299	0.092267	0.100968
	H86	H	0.613985	0.100304	0.910856
	H87	H	0.384537	0.912584	0.914298
	H88	H	0.909383	0.086338	0.615294
	H89	H	0.095569	0.094577	0.383348
	H90	H	0.088296	0.904873	0.618692
	H91	H	0.908523	0.908645	0.387313
	H92	H	0.085605	0.613531	0.914921
	H93	H	0.089168	0.383712	0.093232
	H94	H	0.903128	0.614117	0.088500
	H95	H	0.903342	0.384898	0.911775
	H96	H	0.409407	0.115935	0.591766
	H97	H	0.589636	0.883883	0.592537
	H98	H	0.587207	0.111936	0.416147
	H99	H	0.405082	0.884984	0.411190
	H100	H	0.589216	0.413159	0.117499
	H101	H	0.591886	0.598863	0.883553
	H102	H	0.404390	0.594051	0.120111
	H103	H	0.405465	0.406291	0.884568
	H104	H	0.111110	0.586055	0.408012
	H105	H	0.881808	0.593001	0.593101
	H106	H	0.110608	0.413711	0.593356
	H107	H	0.881356	0.405417	0.415304
	H108	H	0.904971	0.617441	0.097614
	H109	H	0.083709	0.384693	0.096008
	H110	H	0.092600	0.616061	0.912920
	H111	H	0.905952	0.385717	0.912445
	H112	H	0.092664	0.915381	0.617759
	H113	H	0.088982	0.087978	0.388216
	H114	H	0.910307	0.090223	0.617093
	H115	H	0.906215	0.909506	0.386618
	H116	H	0.607795	0.088169	0.917472
	H117	H	0.382904	0.095893	0.086135
	H118	H	0.614474	0.908685	0.097579
	H119	H	0.381072	0.909298	0.904683
	C120	C	0.375488	0.010037	0.622838
	C121	C	0.618635	0.992313	0.622120
	C122	C	0.620534	0.009017	0.379065
	C123	C	0.376995	0.992133	0.380403
	C124	C	0.616948	0.379826	0.010047
	C125	C	0.618678	0.622172	0.994887
	C126	C	0.375744	0.620642	0.011198
	C127	C	0.373991	0.377956	0.992770
	C128	C	0.005453	0.622533	0.381055
	C129	C	0.988484	0.621773	0.623765
	C130	C	0.005783	0.378171	0.624819
	C131	C	0.988482	0.379680	0.381809
	C132	C	0.874543	0.508932	0.124888
	C133	C	0.117366	0.491588	0.123848
	C134	C	0.117887	0.508341	0.880938
	C135	C	0.874710	0.491882	0.881242
	C136	C	0.118281	0.880155	0.510256
	C137	C	0.120455	0.123304	0.493193
	C138	C	0.878202	0.120647	0.510309
	C139	C	0.875483	0.878478	0.493719
	C140	C	0.505519	0.122167	0.879279
	C141	C	0.489163	0.121572	0.122942
	C142	C	0.505900	0.878497	0.123079
	C143	C	0.488466	0.878329	0.879713
	C144	C	0.374597	0.888326	0.680380
	C145	C	0.619986	0.113461	0.679778
	C146	C	0.618401	0.887190	0.322658
	C147	C	0.379267	0.113662	0.322426
	C148	C	0.676513	0.379728	0.888949
	C149	C	0.677289	0.623945	0.115880
	C150	C	0.318248	0.621008	0.889547
	C151	C	0.316572	0.378017	0.115081
	C152	C	0.884611	0.679789	0.381355
	C153	C	0.109449	0.680685	0.624140
	C154	C	0.885588	0.317707	0.626606
	C155	C	0.110100	0.324295	0.381261
	C156	C	0.884351	0.376925	0.682523
	C157	C	0.109773	0.622056	0.680721
	C158	C	0.884718	0.622242	0.323205
	C159	C	0.109666	0.381672	0.323706
	C160	C	0.376245	0.677861	0.889018
	C161	C	0.619722	0.681537	0.115709
	C162	C	0.618087	0.322716	0.888188
	C163	C	0.373943	0.320185	0.114909
	C164	C	0.677026	0.887808	0.379203
	C165	C	0.678319	0.113122	0.622652
	C166	C	0.316234	0.888788	0.623899
	C167	C	0.319841	0.113284	0.378380
	C168	C	0.872973	0.387855	0.183435
	C169	C	0.118529	0.612854	0.181440
	C170	C	0.115650	0.387046	0.823327
	C171	C	0.875131	0.613020	0.822783
	C172	C	0.176038	0.879408	0.388447
	C173	C	0.177623	0.122805	0.614880
	C174	C	0.820474	0.122359	0.388819
	C175	C	0.815810	0.877351	0.614832
	C176	C	0.385094	0.179493	0.878112
	C177	C	0.609172	0.181989	0.123115
	C178	C	0.385329	0.819159	0.125435
	C179	C	0.609225	0.821287	0.879165
	C180	C	0.385414	0.877116	0.182646
	C181	C	0.610554	0.123132	0.179498
	C182	C	0.384728	0.121513	0.821176
	C183	C	0.609476	0.879785	0.821557
	C184	C	0.877904	0.179608	0.388875
	C185	C	0.119543	0.179924	0.615406
	C186	C	0.117656	0.822400	0.388579
	C187	C	0.873647	0.820100	0.615510
	C188	C	0.175179	0.387354	0.879377
	C189	C	0.177211	0.612414	0.124636
	C190	C	0.815307	0.387965	0.125885
	C191	C	0.817877	0.613163	0.880819
	C192	C	0.399946	0.094317	0.598314
	C193	C	0.593662	0.908073	0.597802
	C194	C	0.597812	0.093751	0.402795
	C195	C	0.399424	0.907569	0.405089
	C196	C	0.591990	0.403833	0.094587
	C197	C	0.594449	0.597389	0.910500
	C198	C	0.399414	0.596683	0.096118
	C199	C	0.397812	0.402259	0.907760
	C200	C	0.089689	0.599219	0.404628
	C201	C	0.904187	0.597558	0.600105
	C202	C	0.089826	0.402922	0.600987
	C203	C	0.904042	0.402106	0.406324
	C204	C	0.899343	0.593000	0.100176
	C205	C	0.092969	0.407024	0.099955
	C206	C	0.095270	0.593110	0.905014
	C207	C	0.897815	0.407450	0.905792
	C208	C	0.094393	0.904309	0.595070
	C209	C	0.096743	0.100044	0.408018
	C210	C	0.901889	0.095564	0.594518
	C211	C	0.900257	0.902664	0.409331
	C212	C	0.589358	0.098917	0.903561
	C213	C	0.404932	0.096893	0.099758
	C214	C	0.589588	0.903468	0.097847
	C215	C	0.404214	0.901171	0.903683
	Zn216	Zn	0.496964	0.000868	0.750678
	Zn217	Zn	0.498523	-0.000175	0.251755
	Zn218	Zn	0.746529	0.500703	0.002874
	Zn219	Zn	0.246582	0.499903	0.002357
	Zn220	Zn	-0.002426	0.750656	0.503356
	Zn221	Zn	-0.001932	0.250600	0.502366
	Zn222	Zn	-0.003571	0.500616	0.752472
	Zn223	Zn	-0.003456	0.500134	0.252786
	Zn224	Zn	0.496505	0.749548	0.002463
	Zn225	Zn	0.495986	0.250257	0.001367
	Zn226	Zn	0.748433	0.000811	0.501507
	Zn227	Zn	0.247318	0.001258	0.500910
	N228	N	0.410681	0.964590	0.679745
	N229	N	0.583555	0.037340	0.679528
	N230	N	0.583990	0.963592	0.322668
	N231	N	0.413835	0.037242	0.323418
	N232	N	0.676020	0.414467	0.965910
	N233	N	0.676595	0.587636	0.039653
	N234	N	0.317934	0.586117	0.966636
	N235	N	0.316297	0.412892	0.038031
	N236	N	0.960783	0.680132	0.416411
	N237	N	0.032944	0.680653	0.589643
	N238	N	0.962050	0.318263	0.591411
	N239	N	0.033636	0.322901	0.416592
	N240	N	0.959953	0.413988	0.681426
	N241	N	0.033510	0.586185	0.680760
	N242	N	0.960776	0.587453	0.322795
	N243	N	0.032931	0.415153	0.323803
	N244	N	0.411046	0.677963	0.965818
	N245	N	0.584021	0.680687	0.039321
	N246	N	0.581693	0.322817	0.964412
	N247	N	0.408818	0.320007	0.037759
	N248	N	0.678685	0.964737	0.413367
	N249	N	0.677840	0.036512	0.587756
	N250	N	0.316410	0.965590	0.588845
	N251	N	0.318438	0.036650	0.413769
	N252	N	0.908965	0.464107	0.183048
	N253	N	0.081853	0.536845	0.180723
	N254	N	0.080779	0.463304	0.824335
	N255	N	0.909719	0.536577	0.823018
	N256	N	0.176260	0.914899	0.465015
	N257	N	0.178404	0.088773	0.537703
	N258	N	0.820397	0.086356	0.465290
	N259	N	0.816748	0.912783	0.538179
	N260	N	0.461162	0.180340	0.913426
	N261	N	0.532736	0.181055	0.088390
	N262	N	0.460986	0.820193	0.088936
	N263	N	0.532969	0.819966	0.914540
	N264	N	0.461592	0.913197	0.181541
	N265	N	0.534984	0.086089	0.179537
	N266	N	0.460621	0.086614	0.821739
	N267	N	0.533312	0.914390	0.821681
	N268	N	0.913252	0.178573	0.465284
	N269	N	0.084825	0.180406	0.538485
	N270	N	0.082487	0.822754	0.465445
	N271	N	0.910059	0.820543	0.539233
	N272	N	0.176673	0.463861	0.914559
	N273	N	0.176460	0.535974	0.089257
	N274	N	0.815687	0.464442	0.090475
	N275	N	0.817532	0.536760	0.916478
	O276	O	0.618122	0.396444	0.493255
	H277	H	0.621680	0.399706	0.499379
	H278	H	0.608816	0.401517	0.494022
	O279	O	0.492758	0.368014	0.487362
	H280	H	0.484632	0.366704	0.492234
	H281	H	0.482045	0.366686	0.498521
	O282	O	0.887760	-0.141793	1.198454
	H283	H	0.885686	-0.145243	1.206424
	H284	H	0.896258	-0.133939	1.199257
	O285	O	0.545290	0.534292	0.597509
	H286	H	0.551570	0.535751	0.598749
	H287	H	0.553509	0.535447	0.595289
	O288	O	1.163535	1.108901	1.055853
	H289	H	1.159263	1.100246	1.067078
	H290	H	1.166690	1.112880	1.059722
	O291	O	-0.164356	-0.039992	1.136868
	H292	H	-0.160182	-0.055016	1.125484
	H293	H	-0.160899	-0.049839	1.135215
	O294	O	0.464212	0.601339	0.591911
	H295	H	0.468943	0.604192	0.586204
	H296	H	0.470311	0.610029	0.600106
	O297	O	0.482512	0.444807	0.379257
	H298	H	0.490411	0.454475	0.383185
	H299	H	0.472378	0.445188	0.371164
	O300	O	0.494401	0.529738	0.568719
	H301	H	0.496854	0.531172	0.573355
	H302	H	0.494975	0.534905	0.583128
	O303	O	1.143977	0.187319	0.040329
	H304	H	1.152261	0.198518	0.033174
	H305	H	1.138733	0.175485	0.041585
	O306	O	0.511748	0.523583	0.374110
	H307	H	0.515045	0.516127	0.365723
	H308	H	0.509065	0.516317	0.372369
	O309	O	0.450021	0.398386	0.462710
	H310	H	0.454750	0.398308	0.475761
	H311	H	0.448769	0.376177	0.471074
	O312	O	-0.133329	0.164254	-0.163175
	H313	H	-0.117030	0.165718	-0.159636
	H314	H	-0.136136	0.171611	-0.157787
	O315	O	0.553521	0.434790	0.477972
	H316	H	0.558553	0.438680	0.467461
	H317	H	0.551965	0.409749	0.481704
	O318	O	-0.062400	1.031519	1.147808
	H319	H	-0.055227	1.027865	1.154783
	H320	H	-0.067020	1.043227	1.146741
	O321	O	0.398066	0.389828	0.573108
	H322	H	0.396665	0.395520	0.579790
	H323	H	0.400036	0.397445	0.570436
	O324	O	-0.074610	1.129005	0.032584
	H325	H	-0.077062	1.126671	0.031277
	H326	H	-0.069915	1.121936	0.033876
	O327	O	1.059681	0.875129	-0.068154
	H328	H	1.061453	0.874841	-0.065847
	H329	H	1.055942	0.879364	-0.081937
	O330	O	0.125286	-0.087456	0.940951
	H331	H	0.132443	-0.080566	0.936139
	H332	H	0.132959	-0.102580	0.943613
	O333	O	0.023787	0.115005	1.040490
	H334	H	0.031000	0.105853	1.045126
	H335	H	0.018667	0.121772	1.050825
	O336	O	0.500410	0.611359	0.555075
	H337	H	0.508972	0.617128	0.556450
	H338	H	0.498230	0.604505	0.525666
	O339	O	0.860909	-0.084878	-0.146508
	H340	H	0.854977	-0.084286	-0.152037
	H341	H	0.856589	-0.071321	-0.130033
	O342	O	0.152044	-0.062152	-0.117900
	H343	H	0.146561	-0.067723	-0.110774
	H344	H	0.142596	-0.053981	-0.113953
	O345	O	1.097130	-0.160688	0.822200
	H346	H	1.098011	-0.165833	0.827041
	H347	H	1.109735	-0.162941	0.809554
	O348	O	1.024884	1.112644	0.103389
	H349	H	1.008242	1.119019	0.097177
	H350	H	1.022008	1.108295	0.101381
	O351	O	0.466472	0.353500	0.614741
	H352	H	0.456282	0.378005	0.632782
	H353	H	0.465617	0.349773	0.612806
	O354	O	1.189827	0.109252	1.194293
	H355	H	1.182311	0.111308	1.198879
	H356	H	1.193884	0.096144	1.184317
	O357	O	0.498200	0.398725	0.633978
	H358	H	0.486640	0.402953	0.644876
	H359	H	0.494074	0.398153	0.634682
	O360	O	0.412948	0.486510	0.411447
	H361	H	0.418970	0.498475	0.414796
	H362	H	0.416175	0.475165	0.420288
	O363	O	-0.050194	0.976988	1.062364
	H364	H	-0.054785	0.987375	1.061714
	H365	H	-0.044404	0.954542	1.067941
	O366	O	0.522658	0.595008	0.673643
	H367	H	0.512374	0.598695	0.680739
	H368	H	0.521543	0.587035	0.671163
	O369	O	-0.574385	0.674858	0.446212
	H370	H	-0.578453	0.670011	0.451505
	H371	H	-0.578632	0.675642	0.446427
	O372	O	0.434760	0.498218	0.461918
	H373	H	0.438411	0.501388	0.469745
	H374	H	0.428937	0.493227	0.456431
	O375	O	0.600102	0.642199	0.564562
	H376	H	0.595048	0.631065	0.548810
	H377	H	0.601442	0.643405	0.556420
	O378	O	1.113556	1.016482	-0.190093
	H379	H	1.109098	1.013759	-0.200589
	H380	H	1.112970	1.023982	-0.185060
	O381	O	0.941595	0.028173	-0.097212
	H382	H	0.929161	0.035736	-0.101734
	H383	H	0.923445	0.021417	-0.102069
	O384	O	0.521611	1.479640	-0.539002
	H385	H	0.513833	1.464326	-0.534747
	H386	H	0.529243	1.475311	-0.550769
	O387	O	0.001867	-0.180388	0.056601
	H388	H	0.009847	-0.183567	0.038846
	H389	H	-0.003901	-0.177520	0.062492
	O390	O	0.082186	0.900359	0.062304
	H391	H	0.089215	0.900295	0.066329
	H392	H	0.071088	0.898641	0.053554
	O393	O	1.399547	0.611919	0.410787
	H394	H	1.407180	0.605787	0.412914
	H395	H	1.401203	0.609891	0.405735
	O396	O	0.501697	0.388777	0.490422
	H397	H	0.494340	0.404948	0.481266
	H398	H	0.509382	0.383739	0.498029
	O399	O	-0.148170	0.888301	0.966458
	H400	H	-0.151583	0.908456	0.979799
	H401	H	-0.160312	0.879196	0.957504
	O402	O	0.666946	0.547917	0.444321
	H403	H	0.658988	0.542643	0.445603
	H404	H	0.671825	0.539234	0.451564
	O405	O	0.904991	1.033163	-0.056458
	H406	H	0.912893	1.023761	-0.048561
	H407	H	0.893967	1.040307	-0.061656
	O408	O	1.007089	0.919129	0.144468
	H409	H	1.019814	0.923513	0.145235
	H410	H	1.001932	0.901589	0.149785
	O411	O	0.851639	0.077151	0.953147
	H412	H	0.852645	0.085243	0.938646
	H413	H	0.838758	0.086126	0.961768
	O414	O	0.057615	0.050226	1.020243
	H415	H	0.063446	0.051872	1.016301
	H416	H	0.054983	0.045916	1.038828
	O417	O	0.584511	0.606931	0.505251
	H418	H	0.594160	0.606852	0.490430
	H419	H	0.586480	0.611867	0.517373
