data_Molecule from HDF5

_cell_length_a		16.788747
_cell_length_b		16.567847
_cell_length_c		16.588088
_cell_angle_alpha	89.839123
_cell_angle_beta	89.945232
_cell_angle_gamma	90.013585
_symmetry_space_group_name_H-M	'P 1'
_symmetry_Int_Tables_number		1

loop_
	_symmetry_equiv_pos_as_xyz
	x,y,z

loop_
	_atom_site_label
	_atom_site_type_symbol
	_atom_site_fract_x
	_atom_site_fract_y
	_atom_site_fract_z
	H0	H	0.397638	0.840667	0.730032
	H1	H	0.605891	0.151864	0.734268
	H2	H	0.599916	0.840112	0.295493
	H3	H	0.400843	0.156624	0.295748
	H4	H	0.721897	0.391023	0.855894
	H5	H	0.722261	0.604716	0.164988
	H6	H	0.276635	0.605243	0.857797
	H7	H	0.277558	0.391222	0.166659
	H8	H	0.845228	0.719589	0.406488
	H9	H	0.156594	0.715006	0.610218
	H10	H	0.845746	0.276599	0.617183
	H11	H	0.153388	0.276309	0.406923
	H12	H	0.844601	0.395434	0.731449
	H13	H	0.156417	0.598928	0.727797
	H14	H	0.843703	0.600309	0.292832
	H15	H	0.153618	0.393408	0.290129
	H16	H	0.393697	0.720079	0.856986
	H17	H	0.602408	0.716003	0.167329
	H18	H	0.604444	0.277341	0.855148
	H19	H	0.395909	0.277550	0.167212
	H20	H	0.718704	0.841327	0.407511
	H21	H	0.724334	0.150326	0.621062
	H22	H	0.281271	0.840464	0.614112
	H23	H	0.281638	0.155199	0.408755
	H24	H	0.894628	0.341805	0.231971
	H25	H	0.102092	0.653342	0.231949
	H26	H	0.106356	0.343585	0.789681
	H27	H	0.896251	0.654964	0.791845
	H28	H	0.217876	0.895984	0.353353
	H29	H	0.219195	0.101646	0.667435
	H30	H	0.773977	0.108106	0.358265
	H31	H	0.780831	0.894276	0.667762
	H32	H	0.346321	0.221425	0.905079
	H33	H	0.652152	0.220602	0.117323
	H34	H	0.345344	0.778134	0.115242
	H35	H	0.650899	0.772066	0.902760
	H36	H	0.344839	0.894611	0.231834
	H37	H	0.653776	0.101770	0.232078
	H38	H	0.344495	0.103266	0.790430
	H39	H	0.649873	0.886171	0.783738
	H40	H	0.893107	0.221036	0.356868
	H41	H	0.100849	0.214889	0.669158
	H42	H	0.100468	0.781200	0.352907
	H43	H	0.899513	0.781187	0.668671
	H44	H	0.223106	0.344861	0.904590
	H45	H	0.220137	0.652966	0.117987
	H46	H	0.775722	0.344014	0.119653
	H47	H	0.778911	0.653834	0.906004
	H48	H	0.407646	0.109739	0.598623
	H49	H	0.586975	0.887574	0.595774
	H50	H	0.589230	0.110720	0.419937
	H51	H	0.407845	0.884864	0.422440
	H52	H	0.591645	0.412607	0.122678
	H53	H	0.583888	0.580163	0.902501
	H54	H	0.405461	0.584422	0.124258
	H55	H	0.408901	0.406115	0.897830
	H56	H	0.110517	0.588557	0.420213
	H57	H	0.889547	0.589325	0.599275
	H58	H	0.109376	0.410599	0.599866
	H59	H	0.889874	0.409054	0.423958
	H60	H	0.111983	0.407742	0.605526
	H61	H	0.888172	0.586914	0.604698
	H62	H	0.109760	0.588601	0.420712
	H63	H	0.889794	0.409602	0.422493
	H64	H	0.411572	0.585778	0.123199
	H65	H	0.585767	0.591165	0.898347
	H66	H	0.585344	0.413628	0.119981
	H67	H	0.405811	0.414681	0.900158
	H68	H	0.586574	0.109170	0.425233
	H69	H	0.587344	0.886634	0.598272
	H70	H	0.406892	0.111402	0.601379
	H71	H	0.404034	0.883048	0.420785
	H72	H	0.913443	0.611281	0.105996
	H73	H	0.090679	0.383767	0.103954
	H74	H	0.085884	0.608835	0.924149
	H75	H	0.916416	0.387912	0.921722
	H76	H	0.088455	0.907302	0.622971
	H77	H	0.089833	0.083435	0.400565
	H78	H	0.909361	0.085060	0.622804
	H79	H	0.908774	0.915532	0.401586
	H80	H	0.606507	0.083140	0.928063
	H81	H	0.386819	0.089858	0.104722
	H82	H	0.612084	0.905358	0.104201
	H83	H	0.392288	0.910663	0.930883
	H84	H	0.611443	0.906136	0.101705
	H85	H	0.388734	0.089207	0.098760
	H86	H	0.608395	0.082023	0.919287
	H87	H	0.390346	0.915388	0.918622
	H88	H	0.910037	0.083084	0.621604
	H89	H	0.086473	0.090208	0.399805
	H90	H	0.091974	0.903405	0.625352
	H91	H	0.913025	0.905142	0.398865
	H92	H	0.092153	0.611404	0.924078
	H93	H	0.083516	0.388098	0.099855
	H94	H	0.911493	0.606535	0.093702
	H95	H	0.908491	0.387679	0.928812
	H96	H	0.409409	0.109999	0.601340
	H97	H	0.584953	0.887290	0.597339
	H98	H	0.592205	0.110288	0.425125
	H99	H	0.407666	0.883454	0.417682
	H100	H	0.587057	0.406847	0.123022
	H101	H	0.594880	0.582743	0.898240
	H102	H	0.407687	0.590209	0.125763
	H103	H	0.414514	0.412517	0.901825
	H104	H	0.109712	0.588041	0.420243
	H105	H	0.886877	0.592437	0.603142
	H106	H	0.110706	0.404327	0.600084
	H107	H	0.888513	0.408318	0.423029
	H108	H	0.902199	0.612900	0.099945
	H109	H	0.091411	0.386656	0.095114
	H110	H	0.088614	0.611433	0.918681
	H111	H	0.906865	0.384139	0.919144
	H112	H	0.094339	0.908486	0.623434
	H113	H	0.093473	0.089724	0.397701
	H114	H	0.911594	0.085080	0.621956
	H115	H	0.901908	0.907565	0.396007
	H116	H	0.609416	0.090178	0.923042
	H117	H	0.388925	0.084383	0.103078
	H118	H	0.611009	0.907792	0.103816
	H119	H	0.387282	0.902805	0.921209
	C120	C	0.377742	0.006153	0.631715
	C121	C	0.619964	0.988789	0.631945
	C122	C	0.620283	0.006276	0.391675
	C123	C	0.377451	0.988852	0.389824
	C124	C	0.620839	0.377464	0.019462
	C125	C	0.620022	0.617532	1.002616
	C126	C	0.376700	0.619649	0.021304
	C127	C	0.378421	0.377906	1.003063
	C128	C	0.007592	0.619736	0.389154
	C129	C	0.991615	0.619508	0.631892
	C130	C	0.008229	0.376452	0.633457
	C131	C	0.991084	0.376448	0.390556
	C132	C	0.877200	0.506988	0.132549
	C133	C	0.119499	0.489289	0.131934
	C134	C	0.121091	0.507550	0.890216
	C135	C	0.878663	0.489739	0.890575
	C136	C	0.121114	0.876762	0.519385
	C137	C	0.120549	0.118879	0.503153
	C138	C	0.877667	0.118591	0.520034
	C139	C	0.878354	0.877762	0.502879
	C140	C	0.507163	0.118711	0.890107
	C141	C	0.490318	0.119663	0.133678
	C142	C	0.508961	0.875469	0.134376
	C143	C	0.490592	0.875451	0.889695
	C144	C	0.377858	0.887906	0.690513
	C145	C	0.623804	0.105171	0.693927
	C146	C	0.619683	0.887567	0.334159
	C147	C	0.379976	0.108666	0.333617
	C148	C	0.681389	0.373904	0.902632
	C149	C	0.680913	0.621629	0.119054
	C150	C	0.316876	0.623135	0.904269
	C151	C	0.318098	0.373646	0.119939
	C152	C	0.891284	0.679017	0.388159
	C153	C	0.109437	0.676397	0.630497
	C154	C	0.891910	0.317074	0.635391
	C155	C	0.107281	0.316874	0.388713
	C156	C	0.891522	0.375682	0.692535
	C157	C	0.109440	0.618638	0.688769
	C158	C	0.890592	0.619902	0.331543
	C159	C	0.107198	0.374661	0.330364
	C160	C	0.375252	0.679866	0.903974
	C161	C	0.621209	0.676803	0.120267
	C162	C	0.622959	0.317230	0.902297
	C163	C	0.376981	0.317366	0.120289
	C164	C	0.678872	0.888422	0.389719
	C165	C	0.682591	0.104392	0.637626
	C166	C	0.319901	0.887812	0.633158
	C167	C	0.321037	0.108030	0.389910
	C168	C	0.875636	0.389199	0.192496
	C169	C	0.121279	0.606635	0.192361
	C170	C	0.124354	0.390544	0.829603
	C171	C	0.877473	0.607669	0.831228
	C172	C	0.178454	0.877102	0.400538
	C173	C	0.179277	0.119928	0.620665
	C174	C	0.815666	0.124342	0.404017
	C175	C	0.820425	0.875934	0.620637
	C176	C	0.391842	0.180271	0.887097
	C177	C	0.606376	0.179736	0.135183
	C178	C	0.391750	0.817608	0.134425
	C179	C	0.605091	0.812949	0.885176
	C180	C	0.391539	0.875463	0.192322
	C181	C	0.607318	0.120834	0.192243
	C182	C	0.391298	0.121826	0.829859
	C183	C	0.604399	0.869914	0.826063
	C184	C	0.874702	0.180489	0.403550
	C185	C	0.120433	0.176319	0.621578
	C186	C	0.120479	0.819929	0.400122
	C187	C	0.879520	0.819798	0.621207
	C188	C	0.182374	0.390992	0.886472
	C189	C	0.179541	0.606432	0.135483
	C190	C	0.816690	0.390079	0.136480
	C191	C	0.819151	0.607122	0.888028
	C192	C	0.401442	0.088997	0.607438
	C193	C	0.593834	0.908118	0.604888
	C194	C	0.596225	0.088617	0.416389
	C195	C	0.399838	0.905544	0.413415
	C196	C	0.595205	0.403519	0.100830
	C197	C	0.595105	0.591998	0.921064
	C198	C	0.401226	0.594129	0.103090
	C199	C	0.402774	0.403624	0.921055
	C200	C	0.088930	0.595414	0.413382
	C201	C	0.909672	0.596301	0.608986
	C202	C	0.089593	0.400707	0.608837
	C203	C	0.910359	0.401764	0.415901
	C204	C	0.901938	0.588954	0.107054
	C205	C	0.095256	0.407458	0.106812
	C206	C	0.096076	0.589244	0.915389
	C207	C	0.903597	0.407879	0.916019
	C208	C	0.098046	0.899696	0.602159
	C209	C	0.096688	0.094670	0.420664
	C210	C	0.903065	0.091944	0.600878
	C211	C	0.901528	0.902387	0.420163
	C212	C	0.587343	0.092627	0.915982
	C213	C	0.409179	0.094713	0.109208
	C214	C	0.590291	0.899557	0.110119
	C215	C	0.410641	0.902109	0.916193
	Zn216	Zn	0.498630	-0.002049	0.760618
	Zn217	Zn	0.499844	-0.002098	0.262615
	Zn218	Zn	0.749668	0.497931	0.010966
	Zn219	Zn	0.248969	0.497913	0.012184
	Zn220	Zn	-0.000296	0.748842	0.510172
	Zn221	Zn	-0.001019	0.246853	0.511987
	Zn222	Zn	0.000086	0.498445	0.762335
	Zn223	Zn	-0.001573	0.497666	0.260435
	Zn224	Zn	0.499624	0.746478	0.012035
	Zn225	Zn	0.499406	0.248650	0.011125
	Zn226	Zn	0.749057	-0.002319	0.511455
	Zn227	Zn	0.249113	-0.002253	0.511223
	N228	N	0.412940	0.962709	0.689900
	N229	N	0.585564	0.032109	0.690773
	N230	N	0.583960	0.962076	0.334952
	N231	N	0.414056	0.033299	0.333182
	N232	N	0.680393	0.410445	0.976741
	N233	N	0.680312	0.585467	0.044825
	N234	N	0.317335	0.586418	0.978536
	N235	N	0.318754	0.410628	0.045821
	N236	N	0.965239	0.679408	0.423153
	N237	N	0.035125	0.677320	0.596124
	N238	N	0.965589	0.317319	0.599589
	N239	N	0.034073	0.317874	0.425197
	N240	N	0.965097	0.411834	0.691787
	N241	N	0.035047	0.584009	0.690139
	N242	N	0.963973	0.583813	0.331959
	N243	N	0.033707	0.411088	0.331197
	N244	N	0.411613	0.678005	0.977919
	N245	N	0.583924	0.674530	0.046800
	N246	N	0.586014	0.318997	0.976200
	N247	N	0.413842	0.319796	0.046506
	N248	N	0.679667	0.963588	0.424465
	N249	N	0.680291	0.031062	0.599647
	N250	N	0.319515	0.962589	0.597585
	N251	N	0.318901	0.032235	0.423771
	N252	N	0.912878	0.462960	0.190122
	N253	N	0.084485	0.532721	0.190424
	N254	N	0.086869	0.464079	0.831784
	N255	N	0.913753	0.533461	0.832451
	N256	N	0.179281	0.911339	0.475780
	N257	N	0.179850	0.085141	0.545689
	N258	N	0.817124	0.086478	0.477702
	N259	N	0.819356	0.910899	0.545773
	N260	N	0.465060	0.178683	0.923735
	N261	N	0.532690	0.179206	0.099385
	N262	N	0.465818	0.817158	0.099238
	N263	N	0.533177	0.816235	0.924106
	N264	N	0.465507	0.910469	0.192819
	N265	N	0.534083	0.084181	0.191461
	N266	N	0.464149	0.084368	0.831308
	N267	N	0.532083	0.908160	0.828662
	N268	N	0.912598	0.177030	0.476551
	N269	N	0.084684	0.175826	0.547303
	N270	N	0.085548	0.819271	0.475010
	N271	N	0.914698	0.820517	0.546510
	N272	N	0.180591	0.464850	0.923650
	N273	N	0.178578	0.532493	0.098745
	N274	N	0.817539	0.464464	0.099915
	N275	N	0.819500	0.532532	0.924083
	O276	O	-0.215349	1.210153	-0.202652
	H277	H	-0.205943	1.186025	-0.187317
	H278	H	-0.235414	1.217711	-0.211031
	O279	O	-0.228724	0.216562	-0.017295
	H280	H	-0.245766	0.225303	-0.025021
	H281	H	-0.223486	0.230130	-0.024901
	O282	O	0.941694	0.063168	1.217977
	H283	H	0.931516	0.065023	1.214097
	H284	H	0.946946	0.064278	1.213878
	O285	O	0.686432	0.683919	0.320514
	H286	H	0.687811	0.686294	0.332336
	H287	H	0.712228	0.707476	0.315625
	O288	O	0.283584	0.535146	0.301676
	H289	H	0.279972	0.524223	0.304709
	H290	H	0.271219	0.527508	0.301997
	O291	O	0.545508	0.282660	0.301874
	H292	H	0.540875	0.271260	0.302282
	H293	H	0.527075	0.282549	0.295944
	O294	O	0.800752	-0.213491	1.034660
	H295	H	0.804042	-0.218571	1.026193
	H296	H	0.814479	-0.226480	1.025282
	O297	O	0.445047	0.559463	0.736383
	H298	H	0.468458	0.546081	0.740503
	H299	H	0.455991	0.566537	0.740350
	O300	O	0.136272	0.107050	1.168462
	H301	H	0.137741	0.121212	1.183266
	H302	H	0.136107	0.124188	1.158664
	O303	O	0.681797	0.430552	0.425011
	H304	H	0.667066	0.439573	0.413036
	H305	H	0.671476	0.454567	0.423973
	O306	O	0.894313	0.148902	0.154293
	H307	H	0.912202	0.142646	0.156163
	H308	H	0.872254	0.171659	0.180910
	O309	O	0.527889	0.704805	0.727547
	H310	H	0.543647	0.723338	0.734160
	H311	H	0.528504	0.707545	0.725650
	O312	O	0.450391	0.333783	0.533321
	H313	H	0.459686	0.331732	0.540748
	H314	H	0.431939	0.336220	0.542907
	O315	O	1.151734	1.131955	0.850854
	H316	H	1.143609	1.117777	0.860738
	H317	H	1.146834	1.120588	0.862102
	O318	O	1.221105	1.154724	0.009805
	H319	H	1.217909	1.145062	0.017647
	H320	H	1.219186	1.163901	0.008043
	O321	O	0.709696	0.709190	0.723987
	H322	H	0.696234	0.674807	0.728719
	H323	H	0.728899	0.718202	0.749620
	O324	O	0.911849	0.805184	0.193946
	H325	H	0.904433	0.819436	0.189176
	H326	H	0.917831	0.786514	0.206585
	O327	O	-0.058968	-0.217778	0.963872
	H328	H	-0.053965	-0.215508	0.949212
	H329	H	-0.049396	-0.203957	0.961644
	O330	O	0.750185	0.242689	0.256339
	H331	H	0.719961	0.254579	0.281998
	H332	H	0.749522	0.261509	0.254146
	O333	O	0.359624	0.525351	0.586674
	H334	H	0.365202	0.520406	0.576594
	H335	H	0.368588	0.545612	0.588945
	O336	O	0.403857	0.319807	0.573270
	H337	H	0.386418	0.313781	0.586386
	H338	H	0.398212	0.337087	0.577419
	O339	O	1.031481	-0.190516	1.169808
	H340	H	1.027795	-0.188785	1.163281
	H341	H	1.013712	-0.173973	1.171129
	O342	O	-0.221982	-0.033323	0.236110
	H343	H	-0.240959	-0.028367	0.255711
	H344	H	-0.209553	-0.038737	0.244203
	O345	O	0.221136	0.781441	0.980067
	H346	H	0.240050	0.767293	0.983219
	H347	H	0.211073	0.781758	0.992174
	O348	O	0.088190	-0.112773	-0.023998
	H349	H	0.085484	-0.105048	-0.030007
	H350	H	0.093082	-0.123094	-0.021486
	O351	O	0.518098	0.372652	0.554532
	H352	H	0.513275	0.372129	0.561154
	H353	H	0.520956	0.378829	0.563697
	O354	O	-0.081163	-0.025663	1.076468
	H355	H	-0.083440	-0.021058	1.075002
	H356	H	-0.087369	-0.015719	1.068110
	O357	O	0.211639	0.786102	0.798521
	H358	H	0.221818	0.775971	0.807838
	H359	H	0.233540	0.764323	0.797545
	O360	O	0.652189	0.520957	0.459143
	H361	H	0.648183	0.535038	0.440478
	H362	H	0.638117	0.522242	0.466102
	O363	O	0.017976	-0.167899	-0.154698
	H364	H	0.029423	-0.176031	-0.173835
	H365	H	0.031177	-0.165208	-0.167207
	O366	O	0.275248	0.277334	0.542139
	H367	H	0.253762	0.247997	0.547355
	H368	H	0.281360	0.283938	0.582333
	O369	O	0.706154	0.460096	0.301141
	H370	H	0.710566	0.472206	0.283686
	H371	H	0.688777	0.472818	0.298255
	O372	O	1.237341	1.009756	0.005579
	H373	H	1.240067	1.008240	0.011484
	H374	H	1.230270	1.021721	0.012573
	O375	O	1.223773	0.217614	0.157594
	H376	H	1.250310	0.233176	0.168115
	H377	H	1.221081	0.219175	0.149565
	O378	O	0.242167	0.245376	-0.232830
	H379	H	0.231537	0.241579	-0.219122
	H380	H	0.215240	0.237625	-0.209326
	O381	O	-0.032776	1.227152	0.791281
	H382	H	-0.034992	1.251288	0.763984
	H383	H	-0.055225	1.218972	0.788244
	O384	O	0.971601	0.061110	0.973416
	H385	H	0.966371	0.067963	0.961734
	H386	H	0.972570	0.056985	0.962665
	O387	O	0.769518	0.933783	-0.034524
	H388	H	0.762476	0.936878	-0.024787
	H389	H	0.773793	0.944310	-0.016839
	O390	O	0.311558	0.682909	0.701848
	H391	H	0.335066	0.669864	0.686155
	H392	H	0.331362	0.663395	0.685667
	O393	O	0.386368	0.482205	0.487127
	H394	H	0.389405	0.476825	0.488419
	H395	H	0.383329	0.476465	0.501576
	O396	O	-0.224415	1.028403	0.797398
	H397	H	-0.226575	1.016270	0.799689
	H398	H	-0.243550	1.028393	0.782588
	O399	O	-0.104150	0.183960	1.013997
	H400	H	-0.106120	0.182537	1.023314
	H401	H	-0.093981	0.180335	1.010738
	O402	O	0.718422	0.280948	0.489841
	H403	H	0.711025	0.276469	0.480533
	H404	H	0.728168	0.274043	0.480881
	O405	O	1.196797	-0.198245	1.201685
	H406	H	1.168319	-0.189425	1.183854
	H407	H	1.189738	-0.172187	1.176863
	O408	O	0.488444	0.447141	-0.463800
	H409	H	0.488260	0.449727	-0.484976
	H410	H	0.488512	0.455168	-0.457347
	O411	O	0.732001	0.722667	0.544681
	H412	H	0.745978	0.748865	0.554770
	H413	H	0.734692	0.730420	0.587039
	O414	O	0.315443	0.313809	0.332407
	H415	H	0.330822	0.334586	0.350011
	H416	H	0.331121	0.330934	0.349175
	O417	O	0.700072	0.520337	0.539622
	H418	H	0.711280	0.520156	0.524253
	H419	H	0.704309	0.511427	0.543510
	O420	O	0.601170	0.451284	0.574718
	H421	H	0.601341	0.446228	0.584748
	H422	H	0.590569	0.457799	0.578798
	O423	O	0.028966	0.216746	1.234091
	H424	H	0.036647	0.214304	1.235169
	H425	H	0.041277	0.241403	1.249683
	O426	O	0.556070	0.589859	0.334011
	H427	H	0.560446	0.605763	0.337873
	H428	H	0.552893	0.612013	0.329519
	O429	O	0.781002	0.789020	1.221943
	H430	H	0.787447	0.814181	1.205572
	H431	H	0.797994	0.787370	1.197456
	O432	O	0.586754	0.484753	0.603987
	H433	H	0.590969	0.481046	0.607623
	H434	H	0.594725	0.473810	0.599221
	O435	O	0.227924	1.033802	0.237169
	H436	H	0.260962	1.038146	0.271913
	H437	H	0.211435	1.071180	0.234176
	O438	O	-0.028067	-0.082519	-0.155290
	H439	H	-0.025857	-0.078049	-0.153793
	H440	H	-0.019468	-0.079567	-0.162906
	O441	O	0.063538	0.208599	-0.036118
	H442	H	0.047631	0.211482	-0.021185
	H443	H	0.057479	0.212040	-0.048346
	O444	O	0.473302	0.659798	0.526246
	H445	H	0.482016	0.662664	0.525477
	H446	H	0.488762	0.660217	0.511970
	O447	O	0.018808	0.825454	0.953758
	H448	H	0.032874	0.808025	0.951022
	H449	H	0.023063	0.846320	0.959350
	O450	O	-0.537934	0.720175	1.286619
	H451	H	-0.571419	0.726709	1.283752
	H452	H	-0.555688	0.743891	1.263196
	O453	O	0.362208	0.512666	0.403172
	H454	H	0.369798	0.537092	0.399626
	H455	H	0.363959	0.516193	0.402915
	O456	O	0.677894	0.514672	0.734028
	H457	H	0.704213	0.502824	0.736801
	H458	H	0.680713	0.496215	0.723288
	O459	O	1.041036	1.041100	-0.215061
	H460	H	1.042379	1.030287	-0.210184
	H461	H	1.058434	1.032581	-0.218762
	O462	O	1.037665	0.081333	0.187927
	H463	H	1.048401	0.104621	0.187790
	H464	H	1.025293	0.067558	0.192457
	O465	O	1.170073	-0.045806	0.139378
	H466	H	1.186410	-0.024581	0.172726
	H467	H	1.158577	-0.026875	0.105991
	O468	O	0.278364	0.715632	0.473188
	H469	H	0.277650	0.727215	0.458360
	H470	H	0.269932	0.727404	0.465594
	O471	O	0.470685	0.275001	0.732100
	H472	H	0.440739	0.269894	0.739588
	H473	H	0.456504	0.265114	0.749829
	O474	O	0.480489	0.699282	0.471763
	H475	H	0.482667	0.700189	0.454131
	H476	H	0.483139	0.699594	0.448982
	O477	O	0.469978	0.462937	1.308582
	H478	H	0.470026	0.484326	1.310446
	H479	H	0.482961	0.480819	1.303579
	O480	O	0.292896	0.704773	0.304318
	H481	H	0.283519	0.668313	0.315606
	H482	H	0.259288	0.735346	0.271168
	O483	O	0.431505	0.422651	0.563918
	H484	H	0.437673	0.411383	0.572087
	H485	H	0.420040	0.414215	0.567985
	O486	O	0.687569	0.310827	0.697209
	H487	H	0.698255	0.306484	0.691242
	H488	H	0.676358	0.321292	0.672093
	O489	O	0.808910	0.812950	-0.174807
	H490	H	0.821054	0.818683	-0.172387
	H491	H	0.810023	0.832103	-0.152155
	O492	O	-0.235995	0.055140	0.064675
	H493	H	-0.239537	0.066430	0.079787
	H494	H	-0.231019	0.065529	0.072992
	O495	O	0.225964	0.966819	0.786458
	H496	H	0.257479	0.963297	0.760500
	H497	H	0.219437	0.926669	0.793286
	O498	O	1.001268	0.997347	0.839063
	H499	H	1.007504	0.991130	0.831815
	H500	H	0.973332	0.996839	0.832970
	O501	O	0.287663	0.468525	0.725083
	H502	H	0.297082	0.478800	0.714335
	H503	H	0.275702	0.475313	0.738575
