data_Molecule from HDF5

_cell_length_a		16.352433
_cell_length_b		16.493425
_cell_length_c		16.492014
_cell_angle_alpha	90.008637
_cell_angle_beta	90.057925
_cell_angle_gamma	90.015603
_symmetry_space_group_name_H-M	'P 1'
_symmetry_Int_Tables_number		1

loop_
	_symmetry_equiv_pos_as_xyz
	x,y,z

loop_
	_atom_site_label
	_atom_site_type_symbol
	_atom_site_fract_x
	_atom_site_fract_y
	_atom_site_fract_z
	H0	H	0.393179	0.844324	0.730006
	H1	H	0.610327	0.158224	0.730018
	H2	H	0.612971	0.845456	0.278902
	H3	H	0.395523	0.157720	0.283063
	H4	H	0.723073	0.395585	0.847273
	H5	H	0.727250	0.610837	0.160433
	H6	H	0.276876	0.610834	0.847768
	H7	H	0.281030	0.399287	0.162741
	H8	H	0.840606	0.722777	0.398898
	H9	H	0.157764	0.725138	0.613411
	H10	H	0.842598	0.277669	0.612818
	H11	H	0.157496	0.278224	0.397241
	H12	H	0.842571	0.392560	0.729291
	H13	H	0.158413	0.610085	0.728934
	H14	H	0.841322	0.609312	0.281931
	H15	H	0.157722	0.394524	0.282463
	H16	H	0.391744	0.727776	0.848371
	H17	H	0.611953	0.726960	0.160543
	H18	H	0.609615	0.276762	0.848516
	H19	H	0.393070	0.278900	0.160877
	H20	H	0.722681	0.842261	0.401387
	H21	H	0.724375	0.159383	0.612026
	H22	H	0.275745	0.843901	0.614569
	H23	H	0.280610	0.158184	0.401226
	H24	H	0.893206	0.345557	0.228818
	H25	H	0.109957	0.658130	0.231219
	H26	H	0.108647	0.345558	0.782335
	H27	H	0.888304	0.655531	0.776266
	H28	H	0.221444	0.895648	0.347304
	H29	H	0.225570	0.109688	0.660627
	H30	H	0.778708	0.106679	0.347488
	H31	H	0.778877	0.896917	0.664260
	H32	H	0.342380	0.223135	0.899470
	H33	H	0.658730	0.225322	0.112009
	H34	H	0.343340	0.779281	0.111537
	H35	H	0.659044	0.777773	0.896412
	H36	H	0.343681	0.893653	0.228161
	H37	H	0.659616	0.109557	0.227895
	H38	H	0.342455	0.107656	0.783601
	H39	H	0.658382	0.892297	0.780406
	H40	H	0.890700	0.226126	0.348889
	H41	H	0.111390	0.228727	0.659292
	H42	H	0.107313	0.777925	0.348138
	H43	H	0.892427	0.778280	0.663136
	H44	H	0.222006	0.344592	0.900939
	H45	H	0.222661	0.661051	0.111423
	H46	H	0.777211	0.344963	0.112601
	H47	H	0.775450	0.657851	0.895399
	H48	H	0.404287	0.116673	0.597032
	H49	H	0.585869	0.889776	0.595456
	H50	H	0.591018	0.113116	0.419205
	H51	H	0.411239	0.888159	0.417246
	H52	H	0.587912	0.411163	0.117199
	H53	H	0.586158	0.585013	0.895214
	H54	H	0.414572	0.588863	0.114687
	H55	H	0.415600	0.408768	0.891690
	H56	H	0.113973	0.589212	0.413635
	H57	H	0.887248	0.590758	0.591333
	H58	H	0.110962	0.416324	0.589843
	H59	H	0.886663	0.414436	0.417032
	H60	H	0.113188	0.416467	0.595045
	H61	H	0.889949	0.587133	0.589446
	H62	H	0.113347	0.594753	0.418339
	H63	H	0.887385	0.413848	0.419217
	H64	H	0.414777	0.594788	0.116938
	H65	H	0.582802	0.591510	0.893871
	H66	H	0.590461	0.415886	0.117117
	H67	H	0.407353	0.412742	0.889729
	H68	H	0.590730	0.114599	0.412785
	H69	H	0.586674	0.892366	0.590747
	H70	H	0.421703	0.111611	0.600108
	H71	H	0.413053	0.887172	0.414422
	H72	H	0.907293	0.614118	0.086547
	H73	H	0.089808	0.388594	0.097602
	H74	H	0.089251	0.613692	0.921135
	H75	H	0.919086	0.394925	0.923944
	H76	H	0.086886	0.909553	0.617945
	H77	H	0.086265	0.085980	0.393851
	H78	H	0.907102	0.084084	0.617721
	H79	H	0.907696	0.909581	0.390864
	H80	H	0.611475	0.083400	0.921202
	H81	H	0.386316	0.089883	0.098218
	H82	H	0.613049	0.914565	0.089020
	H83	H	0.385985	0.911333	0.914872
	H84	H	0.613576	0.917748	0.092806
	H85	H	0.386738	0.093626	0.092155
	H86	H	0.616448	0.088314	0.910158
	H87	H	0.391805	0.913851	0.924591
	H88	H	0.922348	0.085599	0.612921
	H89	H	0.086216	0.094158	0.391739
	H90	H	0.090492	0.913982	0.617352
	H91	H	0.911537	0.915719	0.395101
	H92	H	0.089273	0.615588	0.912758
	H93	H	0.087176	0.391548	0.094053
	H94	H	0.912702	0.617076	0.100910
	H95	H	0.904367	0.387338	0.919743
	H96	H	0.414109	0.108130	0.584467
	H97	H	0.591250	0.889557	0.592664
	H98	H	0.585878	0.111622	0.416343
	H99	H	0.414961	0.889068	0.417082
	H100	H	0.585610	0.415459	0.115220
	H101	H	0.590346	0.590251	0.892182
	H102	H	0.409350	0.591177	0.118241
	H103	H	0.413980	0.417520	0.893833
	H104	H	0.111130	0.587776	0.420307
	H105	H	0.887499	0.586357	0.593991
	H106	H	0.113461	0.411275	0.591966
	H107	H	0.888424	0.416004	0.418072
	H108	H	0.922499	0.610578	0.089959
	H109	H	0.092237	0.389621	0.092675
	H110	H	0.081871	0.613136	0.916407
	H111	H	0.916796	0.387968	0.908838
	H112	H	0.084950	0.915148	0.615683
	H113	H	0.093017	0.089457	0.390723
	H114	H	0.914851	0.098327	0.619589
	H115	H	0.915305	0.908779	0.393311
	H116	H	0.615466	0.096247	0.921179
	H117	H	0.389370	0.087437	0.092326
	H118	H	0.615738	0.912763	0.093486
	H119	H	0.390274	0.922191	0.916398
	C120	C	0.378909	0.008974	0.627529
	C121	C	0.622284	0.993685	0.627146
	C122	C	0.623130	0.009431	0.383268
	C123	C	0.380376	0.992051	0.383791
	C124	C	0.622076	0.380337	0.013177
	C125	C	0.622044	0.623456	0.996447
	C126	C	0.379064	0.624964	0.013064
	C127	C	0.379576	0.380952	0.995922
	C128	C	0.008001	0.623208	0.383857
	C129	C	0.992213	0.621976	0.625925
	C130	C	0.008504	0.380003	0.626251
	C131	C	0.991877	0.381367	0.384605
	C132	C	0.879685	0.510551	0.126052
	C133	C	0.122844	0.493825	0.127566
	C134	C	0.121370	0.510621	0.883883
	C135	C	0.878638	0.492693	0.882620
	C136	C	0.121098	0.879577	0.513299
	C137	C	0.122198	0.123316	0.495906
	C138	C	0.879982	0.122653	0.513107
	C139	C	0.878293	0.879063	0.497339
	C140	C	0.509827	0.122643	0.884274
	C141	C	0.492424	0.123545	0.126587
	C142	C	0.510172	0.880730	0.125956
	C143	C	0.492963	0.880898	0.884021
	C144	C	0.375238	0.891309	0.689208
	C145	C	0.627253	0.111187	0.689233
	C146	C	0.628786	0.891884	0.320790
	C147	C	0.377824	0.110610	0.323710
	C148	C	0.683391	0.377096	0.894861
	C149	C	0.686068	0.628328	0.113279
	C150	C	0.317245	0.628548	0.895113
	C151	C	0.320101	0.379800	0.114967
	C152	C	0.888358	0.683319	0.380771
	C153	C	0.110619	0.684140	0.630114
	C154	C	0.890239	0.317809	0.630706
	C155	C	0.110248	0.319262	0.380183
	C156	C	0.890432	0.374970	0.688962
	C157	C	0.110890	0.626744	0.687906
	C158	C	0.888996	0.626392	0.322452
	C159	C	0.110248	0.376984	0.322872
	C160	C	0.374618	0.686908	0.895478
	C161	C	0.628191	0.686093	0.113634
	C162	C	0.626680	0.318043	0.895557
	C163	C	0.375913	0.319908	0.113992
	C164	C	0.683793	0.890470	0.381659
	C165	C	0.683884	0.111862	0.630154
	C166	C	0.316653	0.891217	0.631710
	C167	C	0.320463	0.110869	0.382395
	C168	C	0.875186	0.392726	0.188297
	C169	C	0.127206	0.611652	0.189711
	C170	C	0.125485	0.392295	0.823197
	C171	C	0.872131	0.609189	0.818383
	C172	C	0.181752	0.876901	0.394900
	C173	C	0.185011	0.127554	0.613557
	C174	C	0.818538	0.125151	0.394999
	C175	C	0.818407	0.877732	0.616537
	C176	C	0.390316	0.183241	0.881234
	C177	C	0.611387	0.184775	0.129764
	C178	C	0.391092	0.819329	0.129625
	C179	C	0.611515	0.818678	0.879346
	C180	C	0.391278	0.876365	0.187808
	C181	C	0.611811	0.126688	0.187242
	C182	C	0.390240	0.125649	0.823538
	C183	C	0.611125	0.875513	0.821130
	C184	C	0.874616	0.184729	0.395615
	C185	C	0.127989	0.186613	0.612848
	C186	C	0.124782	0.818226	0.395424
	C187	C	0.875042	0.818723	0.616060
	C188	C	0.182347	0.392242	0.881939
	C189	C	0.183561	0.612748	0.130068
	C190	C	0.817363	0.392534	0.130458
	C191	C	0.815809	0.610263	0.877731
	C192	C	0.405644	0.090892	0.601390
	C193	C	0.595535	0.911902	0.600697
	C194	C	0.596816	0.091628	0.408953
	C195	C	0.405996	0.909540	0.409084
	C196	C	0.595717	0.406612	0.095022
	C197	C	0.594363	0.596629	0.915110
	C198	C	0.405465	0.599071	0.095212
	C199	C	0.405022	0.405902	0.913098
	C200	C	0.091156	0.597807	0.409852
	C201	C	0.909657	0.595336	0.599369
	C202	C	0.091022	0.406850	0.599829
	C203	C	0.909110	0.407517	0.410764
	C204	C	0.906360	0.592362	0.100024
	C205	C	0.097065	0.411651	0.102167
	C206	C	0.094519	0.592712	0.909404
	C207	C	0.905721	0.411351	0.909786
	C208	C	0.095064	0.905491	0.595554
	C209	C	0.095932	0.097338	0.413807
	C210	C	0.907116	0.096686	0.595322
	C211	C	0.904099	0.904162	0.414764
	C212	C	0.592794	0.096668	0.909974
	C213	C	0.409291	0.097877	0.101362
	C214	C	0.592672	0.907263	0.099433
	C215	C	0.410819	0.907993	0.910936
	Zn216	Zn	0.501321	0.001691	0.755967
	Zn217	Zn	0.502059	0.001049	0.254503
	Zn218	Zn	0.751019	0.501553	0.004785
	Zn219	Zn	0.250633	0.503049	0.004459
	Zn220	Zn	-0.000727	0.751088	0.505646
	Zn221	Zn	0.000141	0.252165	0.504292
	Zn222	Zn	0.000940	0.501448	0.754729
	Zn223	Zn	0.000372	0.501924	0.255784
	Zn224	Zn	0.501317	0.752667	0.004768
	Zn225	Zn	0.500958	0.251467	0.004586
	Zn226	Zn	0.751254	0.001442	0.505573
	Zn227	Zn	0.250460	0.000246	0.504882
	N228	N	0.413031	0.965561	0.686770
	N229	N	0.589783	0.036609	0.687448
	N230	N	0.592060	0.966879	0.321521
	N231	N	0.414313	0.035565	0.324401
	N232	N	0.680659	0.415080	0.969105
	N233	N	0.682375	0.589931	0.039417
	N234	N	0.319896	0.590710	0.969260
	N235	N	0.322139	0.416842	0.040442
	N236	N	0.963531	0.681738	0.417982
	N237	N	0.035726	0.681290	0.592320
	N238	N	0.964879	0.320708	0.592510
	N239	N	0.035443	0.321838	0.417844
	N240	N	0.965184	0.412935	0.686253
	N241	N	0.036081	0.588859	0.685443
	N242	N	0.964583	0.589865	0.324128
	N243	N	0.035592	0.415016	0.325659
	N244	N	0.412216	0.684817	0.969964
	N245	N	0.589280	0.683291	0.039886
	N246	N	0.589522	0.319874	0.970124
	N247	N	0.412196	0.320464	0.038843
	N248	N	0.680338	0.964553	0.419904
	N249	N	0.681042	0.037755	0.592231
	N250	N	0.318768	0.965615	0.594006
	N251	N	0.322073	0.036198	0.419133
	N252	N	0.913201	0.467071	0.185875
	N253	N	0.090280	0.536870	0.188525
	N254	N	0.088010	0.466714	0.824665
	N255	N	0.910498	0.535118	0.821240
	N256	N	0.179692	0.914188	0.469353
	N257	N	0.181581	0.088954	0.539721
	N258	N	0.821882	0.087244	0.469164
	N259	N	0.820404	0.914390	0.541785
	N260	N	0.465653	0.181432	0.918141
	N261	N	0.536183	0.182925	0.092881
	N262	N	0.466042	0.821743	0.092168
	N263	N	0.537120	0.821971	0.917667
	N264	N	0.466577	0.913589	0.185831
	N265	N	0.536741	0.089191	0.185486
	N266	N	0.465697	0.088827	0.825082
	N267	N	0.536367	0.913640	0.823973
	N268	N	0.911953	0.183228	0.470320
	N269	N	0.089833	0.184152	0.538686
	N270	N	0.087988	0.819507	0.470313
	N271	N	0.911100	0.819202	0.540673
	N272	N	0.179921	0.466803	0.918889
	N273	N	0.181044	0.538541	0.092097
	N274	N	0.820041	0.466773	0.092614
	N275	N	0.819546	0.536758	0.916854
	O276	O	0.442399	0.502079	0.490942
	H277	H	0.454098	0.501778	0.473214
	H278	H	0.442640	0.506935	0.482492
	O279	O	0.991042	0.218017	0.800142
	H280	H	0.954614	0.207241	0.820309
	H281	H	0.980846	0.254002	0.771355
	O282	O	0.491872	0.375477	0.513713
	H283	H	0.483509	0.373207	0.511071
	H284	H	0.492973	0.380347	0.502378
	O285	O	0.488667	0.490633	0.283052
	H286	H	0.483444	0.467703	0.281081
	H287	H	0.480900	0.479186	0.284628
	O288	O	0.955773	1.174028	0.050887
	H289	H	0.974522	1.166695	0.050287
	H290	H	0.978028	1.163206	0.067460
	O291	O	0.671734	0.549656	0.480053
	H292	H	0.669269	0.567332	0.465411
	H293	H	0.672010	0.563840	0.470333
	O294	O	-0.208130	-0.021444	1.217016
	H295	H	-0.230709	-0.015479	1.236082
	H296	H	-0.214286	0.003067	1.187436
	O297	O	0.431437	0.548656	0.681187
	H298	H	0.454210	0.545767	0.665692
	H299	H	0.447935	0.569074	0.677964
	O300	O	1.037085	0.967134	0.034346
	H301	H	1.045582	0.977814	0.034596
	H302	H	1.032052	0.953629	0.032500
	O303	O	0.597204	0.547057	0.526279
	H304	H	0.592020	0.566186	0.508222
	H305	H	0.609847	0.551135	0.533586
	O306	O	0.342873	0.537205	0.625055
	H307	H	0.351896	0.525799	0.618895
	H308	H	0.352866	0.519294	0.645428
	O309	O	0.388938	0.337955	0.466855
	H310	H	0.387818	0.324258	0.473535
	H311	H	0.385867	0.321964	0.493620
	O312	O	0.119740	0.981771	0.788543
	H313	H	0.107703	0.986166	0.784480
	H314	H	0.101177	0.997091	0.773043
	O315	O	0.416415	0.406569	0.464848
	H316	H	0.431962	0.407203	0.467650
	H317	H	0.432653	0.416529	0.468494
	O318	O	0.934614	-0.219187	-0.053608
	H319	H	0.958375	-0.223359	-0.098752
	H320	H	0.969109	-0.211958	-0.026340
	O321	O	-0.125061	0.033720	0.075051
	H322	H	-0.110985	0.015888	0.068365
	H323	H	-0.114305	0.055249	0.072613
	O324	O	0.522395	0.289281	0.305661
	H325	H	0.538899	0.278714	0.301821
	H326	H	0.531947	0.286996	0.296574
	O327	O	0.713281	0.429926	0.343552
	H328	H	0.703311	0.438124	0.341469
	H329	H	0.721676	0.430872	0.326890
	O330	O	0.026067	0.969905	0.223665
	H331	H	0.036577	0.972814	0.228278
	H332	H	0.030566	0.944066	0.228872
	O333	O	0.579943	0.697960	0.588033
	H334	H	0.582451	0.714551	0.571064
	H335	H	0.560248	0.703330	0.560746
	O336	O	0.157203	0.090738	-0.041387
	H337	H	0.134771	0.077794	-0.034764
	H338	H	0.167898	0.091087	-0.066886
	O339	O	0.193780	0.802729	0.918021
	H340	H	0.212901	0.814097	0.918914
	H341	H	0.203297	0.810163	0.950428
	O342	O	0.105039	0.796620	1.043225
	H343	H	0.106527	0.781815	1.070164
	H344	H	0.107725	0.799579	1.054533
	O345	O	1.016872	0.782118	-0.206126
	H346	H	1.063293	0.785423	-0.201379
	H347	H	1.026892	0.765173	-0.233813
	O348	O	0.323578	0.683573	0.318291
	H349	H	0.317957	0.675873	0.316631
	H350	H	0.312638	0.670176	0.349112
	O351	O	0.194807	0.884377	0.808265
	H352	H	0.182639	0.926665	0.797057
	H353	H	0.216762	0.878296	0.818798
	O354	O	-0.175663	0.818827	0.187075
	H355	H	-0.186843	0.872264	0.198787
	H356	H	-0.190015	0.811345	0.134094
	O357	O	0.093673	0.084827	0.786810
	H358	H	0.053366	0.056377	0.792300
	H359	H	0.074158	0.115803	0.788726
	O360	O	0.302353	0.481809	0.714144
	H361	H	0.297347	0.497346	0.737032
	H362	H	0.328251	0.491953	0.722799
	O363	O	0.216481	-0.054162	1.047439
	H364	H	0.220571	-0.055834	1.041877
	H365	H	0.216552	-0.038673	1.056340
	O366	O	0.312202	0.424584	0.303420
	H367	H	0.299230	0.434777	0.303964
	H368	H	0.326925	0.433322	0.321299
	O369	O	0.310160	0.312203	0.694311
	H370	H	0.331260	0.331869	0.702507
	H371	H	0.298956	0.330672	0.691812
	O372	O	1.006678	-0.101515	1.024547
	H373	H	1.011868	-0.124810	1.052100
	H374	H	0.991238	-0.080861	1.032547
	O375	O	0.607313	0.308876	0.369430
	H376	H	0.630693	0.295773	0.389947
	H377	H	0.608839	0.347699	0.365481
	O378	O	0.563399	0.684322	0.710803
	H379	H	0.566120	0.684146	0.694786
	H380	H	0.575630	0.691934	0.734472
	O381	O	0.687992	0.488143	0.626095
	H382	H	0.703217	0.488862	0.637656
	H383	H	0.679838	0.485875	0.618419
	O384	O	0.619393	0.328235	0.477368
	H385	H	0.621299	0.324490	0.472084
	H386	H	0.615435	0.317556	0.462798
	O387	O	0.213212	0.022043	1.215616
	H388	H	0.220407	0.054766	1.218787
	H389	H	0.221777	0.034532	1.234195
	O390	O	0.208197	0.210760	0.035381
	H391	H	0.221340	0.212027	0.015419
	H392	H	0.204791	0.209942	0.015761
	O393	O	0.836133	1.172708	0.829040
	H394	H	0.839718	1.136874	0.827442
	H395	H	0.819776	1.186735	0.876381
	O396	O	1.070716	0.201031	0.199385
	H397	H	1.078219	0.193051	0.193710
	H398	H	1.085221	0.206424	0.216605
	O399	O	0.792951	0.209687	0.979958
	H400	H	0.801731	0.217703	0.999445
	H401	H	0.788965	0.230256	0.992740
	O402	O	0.938046	1.089370	1.173433
	H403	H	0.964587	1.088101	1.175991
	H404	H	0.919012	1.080124	1.166553
	O405	O	0.785658	0.987439	-0.002604
	H406	H	0.797542	0.989820	-0.029746
	H407	H	0.776291	0.972931	-0.001080
	O408	O	0.908437	-0.033269	-0.198217
	H409	H	0.895660	-0.038990	-0.162756
	H410	H	0.900019	-0.066664	-0.215514
	O411	O	0.981114	0.779419	0.221945
	H412	H	0.964599	0.763204	0.244906
	H413	H	0.940545	0.778664	0.223792
	O414	O	0.483714	0.721882	0.286899
	H415	H	0.471870	0.745045	0.257673
	H416	H	0.455956	0.711444	0.284161
	O417	O	0.319400	0.474519	0.442424
	H418	H	0.320689	0.459456	0.468805
	H419	H	0.321746	0.472740	0.448788
	O420	O	0.139684	0.194660	0.201487
	H421	H	0.153610	0.204854	0.173563
	H422	H	0.145047	0.212378	0.213350
	O423	O	0.614598	0.454255	0.714857
	H424	H	0.607203	0.448466	0.705447
	H425	H	0.621221	0.447787	0.711577
	O426	O	0.299502	0.613114	0.391783
	H427	H	0.297664	0.614979	0.403885
	H428	H	0.281876	0.596981	0.413268
	O429	O	0.367035	0.720531	0.522171
	H430	H	0.351385	0.702993	0.530759
	H431	H	0.355013	0.733111	0.537843
	O432	O	0.585244	0.329374	0.517035
	H433	H	0.598188	0.331289	0.517817
	H434	H	0.599467	0.330799	0.512664
	O435	O	0.583173	0.681408	0.544309
	H436	H	0.568918	0.682829	0.520286
	H437	H	0.556342	0.680772	0.552667
	O438	O	-0.212346	-0.207818	0.007759
	H439	H	-0.243315	-0.246712	0.007305
	H440	H	-0.168363	-0.219649	-0.016054
	O441	O	1.105134	0.187216	-0.084613
	H442	H	1.094723	0.195756	-0.125989
	H443	H	1.103854	0.162373	-0.080517
	O444	O	-0.209991	0.998037	0.847673
	H445	H	-0.221272	0.984398	0.834021
	H446	H	-0.189037	1.006633	0.863652
	O447	O	0.563875	0.573896	0.347836
	H448	H	0.546939	0.552630	0.346092
	H449	H	0.550578	0.604921	0.335773
	O450	O	0.701988	0.704795	0.599305
	H451	H	0.704574	0.686083	0.624059
	H452	H	0.720050	0.722724	0.585336
	O453	O	0.473267	0.291748	0.687090
	H454	H	0.463451	0.258919	0.717729
	H455	H	0.469725	0.300562	0.670019
