data_Molecule from HDF5

_cell_length_a		16.377381
_cell_length_b		16.472697
_cell_length_c		16.466259
_cell_angle_alpha	90.050017
_cell_angle_beta	89.968209
_cell_angle_gamma	90.005056
_symmetry_space_group_name_H-M	'P 1'
_symmetry_Int_Tables_number		1

loop_
	_symmetry_equiv_pos_as_xyz
	x,y,z

loop_
	_atom_site_label
	_atom_site_type_symbol
	_atom_site_fract_x
	_atom_site_fract_y
	_atom_site_fract_z
	H0	H	0.395992	0.859284	0.732976
	H1	H	0.618984	0.169275	0.739531
	H2	H	0.616513	0.860149	0.284365
	H3	H	0.397248	0.171654	0.283680
	H4	H	0.727169	0.407705	0.851538
	H5	H	0.729563	0.623843	0.165531
	H6	H	0.278593	0.625553	0.853358
	H7	H	0.277102	0.404813	0.164785
	H8	H	0.849095	0.742466	0.399545
	H9	H	0.162069	0.741417	0.620020
	H10	H	0.849441	0.291461	0.618232
	H11	H	0.163534	0.293654	0.399946
	H12	H	0.846358	0.409412	0.729805
	H13	H	0.161496	0.624993	0.734136
	H14	H	0.847122	0.625653	0.286023
	H15	H	0.159465	0.405483	0.280457
	H16	H	0.393050	0.742117	0.853849
	H17	H	0.614148	0.740150	0.166340
	H18	H	0.616026	0.286971	0.855224
	H19	H	0.391917	0.288301	0.164170
	H20	H	0.733017	0.860761	0.399435
	H21	H	0.730442	0.172779	0.619526
	H22	H	0.281089	0.859697	0.616758
	H23	H	0.282132	0.173154	0.399817
	H24	H	0.891208	0.361784	0.235601
	H25	H	0.115237	0.671021	0.235946
	H26	H	0.112810	0.359898	0.783452
	H27	H	0.894418	0.672580	0.783972
	H28	H	0.229224	0.908610	0.352254
	H29	H	0.231092	0.125153	0.665653
	H30	H	0.779858	0.127696	0.353755
	H31	H	0.781139	0.908557	0.665671
	H32	H	0.347210	0.237674	0.902422
	H33	H	0.661129	0.242556	0.121995
	H34	H	0.347367	0.792206	0.118521
	H35	H	0.660173	0.788234	0.898598
	H36	H	0.348962	0.906098	0.234547
	H37	H	0.663187	0.123401	0.232972
	H38	H	0.348667	0.123995	0.784758
	H39	H	0.661721	0.902486	0.782112
	H40	H	0.898192	0.240845	0.352936
	H41	H	0.117755	0.243499	0.664797
	H42	H	0.118355	0.788251	0.353634
	H43	H	0.895321	0.791065	0.665047
	H44	H	0.230210	0.359623	0.897923
	H45	H	0.230510	0.671276	0.119361
	H46	H	0.780726	0.359302	0.114720
	H47	H	0.777396	0.671452	0.898646
	H48	H	0.417850	0.128105	0.596550
	H49	H	0.595365	0.906217	0.589446
	H50	H	0.590081	0.128252	0.418733
	H51	H	0.417338	0.903027	0.420500
	H52	H	0.589088	0.423609	0.122305
	H53	H	0.587269	0.605063	0.898833
	H54	H	0.412887	0.600642	0.121820
	H55	H	0.418719	0.429102	0.898367
	H56	H	0.116493	0.602869	0.424390
	H57	H	0.888403	0.612126	0.597375
	H58	H	0.119507	0.428794	0.597720
	H59	H	0.892837	0.430730	0.422322
	H60	H	0.117846	0.430288	0.593977
	H61	H	0.895748	0.602145	0.588667
	H62	H	0.115706	0.599663	0.423386
	H63	H	0.891781	0.427248	0.421705
	H64	H	0.421247	0.598991	0.118211
	H65	H	0.593919	0.604218	0.895954
	H66	H	0.596640	0.431822	0.121970
	H67	H	0.419727	0.427961	0.898605
	H68	H	0.590471	0.125567	0.425059
	H69	H	0.596619	0.901683	0.599563
	H70	H	0.420916	0.128355	0.599748
	H71	H	0.422089	0.905656	0.421731
	H72	H	0.917327	0.629240	0.098491
	H73	H	0.092805	0.402121	0.097361
	H74	H	0.084466	0.625111	0.921307
	H75	H	0.915291	0.404662	0.923826
	H76	H	0.090105	0.927662	0.620520
	H77	H	0.095451	0.105254	0.396258
	H78	H	0.916515	0.101589	0.621510
	H79	H	0.925073	0.931206	0.399791
	H80	H	0.617800	0.103308	0.924402
	H81	H	0.390694	0.109267	0.093600
	H82	H	0.617396	0.926366	0.092347
	H83	H	0.393510	0.932554	0.920397
	H84	H	0.616571	0.931665	0.097167
	H85	H	0.397220	0.096320	0.091686
	H86	H	0.616373	0.099773	0.927004
	H87	H	0.391381	0.926229	0.920572
	H88	H	0.923740	0.102129	0.619198
	H89	H	0.093106	0.103309	0.397348
	H90	H	0.094781	0.927670	0.621782
	H91	H	0.920009	0.925765	0.395841
	H92	H	0.093538	0.626002	0.928705
	H93	H	0.084594	0.406497	0.096318
	H94	H	0.920813	0.627009	0.094743
	H95	H	0.912101	0.401125	0.917203
	H96	H	0.422116	0.126472	0.595972
	H97	H	0.587078	0.906027	0.597001
	H98	H	0.596006	0.129248	0.422097
	H99	H	0.418073	0.905329	0.425469
	H100	H	0.586393	0.433201	0.117817
	H101	H	0.590594	0.598460	0.899115
	H102	H	0.419483	0.606923	0.122046
	H103	H	0.418024	0.428103	0.897382
	H104	H	0.118052	0.601496	0.421755
	H105	H	0.892456	0.598569	0.602548
	H106	H	0.117559	0.432828	0.597798
	H107	H	0.893187	0.428448	0.425008
	H108	H	0.915880	0.628598	0.093385
	H109	H	0.091453	0.406166	0.090041
	H110	H	0.094746	0.630060	0.917757
	H111	H	0.919981	0.404266	0.917369
	H112	H	0.093121	0.931794	0.619327
	H113	H	0.092225	0.107024	0.397166
	H114	H	0.919979	0.108082	0.622772
	H115	H	0.916734	0.933173	0.398255
	H116	H	0.617366	0.099215	0.922798
	H117	H	0.391439	0.099648	0.104808
	H118	H	0.619980	0.925861	0.099191
	H119	H	0.393983	0.928369	0.926089
	C120	C	0.384933	0.024550	0.631099
	C121	C	0.627615	1.007616	0.631028
	C122	C	0.628144	0.025102	0.387210
	C123	C	0.385037	1.007731	0.387800
	C124	C	0.625212	0.394610	0.017643
	C125	C	0.625801	0.637344	1.000978
	C126	C	0.382798	0.636996	0.017823
	C127	C	0.383169	0.393905	1.001073
	C128	C	0.013436	0.636955	0.388272
	C129	C	0.995861	0.638431	0.630994
	C130	C	0.014054	0.396079	0.629983
	C131	C	0.996164	0.394829	0.387656
	C132	C	0.882884	0.525178	0.129624
	C133	C	0.125193	0.507427	0.130397
	C134	C	0.125921	0.524224	0.887337
	C135	C	0.881614	0.507111	0.886280
	C136	C	0.127374	0.894370	0.517405
	C137	C	0.128806	0.139490	0.500275
	C138	C	0.885219	0.138248	0.518045
	C139	C	0.885372	0.895843	0.500834
	C140	C	0.513637	0.135444	0.889563
	C141	C	0.496988	0.136643	0.131313
	C142	C	0.514245	0.894025	0.130878
	C143	C	0.496233	0.893630	0.887653
	C144	C	0.379537	0.906531	0.692540
	C145	C	0.634408	0.123215	0.696559
	C146	C	0.633633	0.907452	0.324856
	C147	C	0.380231	0.124930	0.324519
	C148	C	0.687155	0.390153	0.899400
	C149	C	0.688577	0.641695	0.118630
	C150	C	0.319642	0.642237	0.900436
	C151	C	0.318778	0.388326	0.117761
	C152	C	0.896053	0.700988	0.382889
	C153	C	0.114288	0.700515	0.636425
	C154	C	0.896240	0.332746	0.634754
	C155	C	0.115270	0.333716	0.382724
	C156	C	0.894794	0.391742	0.690413
	C157	C	0.114016	0.642524	0.693687
	C158	C	0.894952	0.642479	0.326242
	C159	C	0.113236	0.388876	0.322580
	C160	C	0.376967	0.700500	0.900818
	C161	C	0.630643	0.699446	0.119017
	C162	C	0.631879	0.329719	0.901150
	C163	C	0.376596	0.330279	0.117756
	C164	C	0.692088	0.908037	0.382097
	C165	C	0.690128	0.125085	0.636561
	C166	C	0.321904	0.906926	0.634591
	C167	C	0.322896	0.125733	0.382767
	C168	C	0.876222	0.408158	0.193229
	C169	C	0.131336	0.624231	0.194265
	C170	C	0.130453	0.407033	0.824245
	C171	C	0.876942	0.625118	0.824489
	C172	C	0.189604	0.890273	0.399725
	C173	C	0.191095	0.143199	0.618053
	C174	C	0.821841	0.143625	0.400586
	C175	C	0.822146	0.891204	0.618591
	C176	C	0.395196	0.197624	0.884688
	C177	C	0.614224	0.200700	0.137459
	C178	C	0.395335	0.832438	0.135843
	C179	C	0.613745	0.829722	0.881850
	C180	C	0.396036	0.889294	0.193841
	C181	C	0.615477	0.141082	0.192873
	C182	C	0.396046	0.140957	0.825917
	C183	C	0.614033	0.886786	0.823748
	C184	C	0.880578	0.200700	0.400428
	C185	C	0.134639	0.202480	0.617654
	C186	C	0.133844	0.830279	0.400651
	C187	C	0.879312	0.832582	0.618215
	C188	C	0.188809	0.406730	0.881645
	C189	C	0.188936	0.624358	0.135926
	C190	C	0.820572	0.407065	0.133269
	C191	C	0.818771	0.624564	0.881891
	C192	C	0.412291	0.106347	0.604977
	C193	C	0.600644	0.925831	0.603341
	C194	C	0.600202	0.106457	0.414328
	C195	C	0.411605	0.926063	0.414841
	C196	C	0.598230	0.421608	0.099140
	C197	C	0.598401	0.610472	0.919301
	C198	C	0.410067	0.609968	0.099216
	C199	C	0.410735	0.420892	0.919334
	C200	C	0.095423	0.609305	0.415311
	C201	C	0.913497	0.611932	0.603951
	C202	C	0.096572	0.422954	0.603883
	C203	C	0.914173	0.421329	0.415077
	C204	C	0.910236	0.606714	0.103126
	C205	C	0.097518	0.426109	0.102667
	C206	C	0.098809	0.605786	0.914875
	C207	C	0.908232	0.424881	0.912066
	C208	C	0.100301	0.921266	0.599085
	C209	C	0.101413	0.112797	0.418357
	C210	C	0.912236	0.111457	0.599743
	C211	C	0.912653	0.922588	0.419512
	C212	C	0.595672	0.108478	0.916909
	C213	C	0.414642	0.109484	0.104502
	C214	C	0.596366	0.920310	0.103913
	C215	C	0.414617	0.921199	0.914719
	Zn216	Zn	0.505934	0.014964	0.760204
	Zn217	Zn	0.505823	0.015442	0.258966
	Zn218	Zn	0.754020	0.516028	0.008652
	Zn219	Zn	0.254544	0.515417	0.009246
	Zn220	Zn	0.005904	0.765543	0.508835
	Zn221	Zn	0.006213	0.267468	0.509971
	Zn222	Zn	0.004021	0.516267	0.758609
	Zn223	Zn	0.003417	0.516426	0.259427
	Zn224	Zn	0.504378	0.766081	0.009718
	Zn225	Zn	0.504902	0.264694	0.010002
	Zn226	Zn	0.755921	0.017009	0.509442
	Zn227	Zn	0.256277	0.016301	0.508686
	N228	N	0.417823	0.980690	0.690584
	N229	N	0.596386	0.048877	0.693291
	N230	N	0.594664	0.981324	0.327733
	N231	N	0.417892	0.050395	0.327490
	N232	N	0.683121	0.429828	0.972836
	N233	N	0.685856	0.604188	0.044220
	N234	N	0.322985	0.603440	0.974237
	N235	N	0.322653	0.427061	0.043904
	N236	N	0.970751	0.697633	0.420720
	N237	N	0.039575	0.698367	0.598477
	N238	N	0.971478	0.335298	0.597940
	N239	N	0.041258	0.337067	0.422405
	N240	N	0.969026	0.430436	0.687644
	N241	N	0.039289	0.604605	0.690377
	N242	N	0.969084	0.603365	0.329429
	N243	N	0.038217	0.425986	0.325441
	N244	N	0.415503	0.697407	0.974849
	N245	N	0.592424	0.696977	0.044640
	N246	N	0.593995	0.332288	0.975613
	N247	N	0.416140	0.333762	0.044225
	N248	N	0.689247	0.982451	0.419723
	N249	N	0.685967	0.051912	0.596555
	N250	N	0.324914	0.981421	0.597159
	N251	N	0.325863	0.051991	0.421519
	N252	N	0.914213	0.482570	0.191329
	N253	N	0.092498	0.550345	0.190715
	N254	N	0.092156	0.481103	0.827721
	N255	N	0.915266	0.550910	0.826989
	N256	N	0.185815	0.929506	0.473273
	N257	N	0.187797	0.105104	0.543832
	N258	N	0.824438	0.105518	0.474805
	N259	N	0.825637	0.929802	0.544696
	N260	N	0.469561	0.194496	0.923308
	N261	N	0.539166	0.198316	0.100184
	N262	N	0.469896	0.834903	0.097641
	N263	N	0.539697	0.833696	0.920842
	N264	N	0.471112	0.926506	0.191335
	N265	N	0.541481	0.101999	0.189080
	N266	N	0.470763	0.103054	0.828598
	N267	N	0.539968	0.925876	0.827168
	N268	N	0.919243	0.197430	0.474339
	N269	N	0.096676	0.200439	0.543134
	N270	N	0.095898	0.832566	0.475094
	N271	N	0.917747	0.835129	0.544019
	N272	N	0.186230	0.480926	0.920108
	N273	N	0.185262	0.550548	0.096844
	N274	N	0.824692	0.480695	0.094404
	N275	N	0.821694	0.550292	0.919582
	O276	O	0.325876	0.686553	0.332092
	H277	H	0.377914	0.702961	0.318294
	H278	H	0.317762	0.701800	0.385344
	O279	O	0.791063	0.042091	1.039516
	H280	H	0.777422	0.021682	1.072242
	H281	H	0.824462	0.030463	1.038512
	O282	O	0.686963	0.695580	0.686624
	H283	H	0.633057	0.705596	0.698850
	H284	H	0.695373	0.641852	0.696547
	O285	O	0.332715	0.339212	0.686642
	H286	H	0.325367	0.328622	0.639381
	H287	H	0.328677	0.376027	0.693574
	O288	O	0.793055	1.037011	-0.204704
	H289	H	0.770244	1.023568	-0.197605
	H290	H	0.779541	1.021783	-0.210326
	O291	O	0.717503	0.526284	0.497988
	H292	H	0.727984	0.542699	0.508582
	H293	H	0.717522	0.513430	0.512567
	O294	O	-0.010381	-0.196888	1.223384
	H295	H	-0.001224	-0.184947	1.244727
	H296	H	-0.022798	-0.203923	1.238023
	O297	O	0.829669	0.196155	-0.165678
	H298	H	0.849939	0.206836	-0.147357
	H299	H	0.817699	0.143757	-0.179370
	O300	O	1.028762	1.030485	-0.205107
	H301	H	1.026072	1.008779	-0.195628
	H302	H	1.010879	1.028491	-0.199479
	O303	O	0.497426	0.715440	0.516815
	H304	H	0.494996	0.718426	0.531231
	H305	H	0.499742	0.690850	0.510827
	O306	O	0.446987	0.379517	0.460008
	H307	H	0.466479	0.364647	0.468280
	H308	H	0.460692	0.389741	0.420796
	O309	O	0.489103	0.298838	0.729621
	H310	H	0.460285	0.305589	0.704543
	H311	H	0.479297	0.260195	0.763397
	O312	O	0.024107	1.001519	1.232851
	H313	H	0.035870	1.010325	1.227682
	H314	H	0.037813	1.034328	1.235093
	O315	O	0.300737	0.726858	0.492043
	H316	H	0.286705	0.741923	0.501552
	H317	H	0.284530	0.693633	0.517082
	O318	O	0.822521	-0.046560	-0.094283
	H319	H	0.825964	-0.064984	-0.077194
	H320	H	0.814543	-0.053334	-0.072728
	O321	O	-0.200517	0.219371	-0.003000
	H322	H	-0.229059	0.239743	-0.021145
	H323	H	-0.208041	0.181582	0.002020
	O324	O	0.558223	0.685218	0.403625
	H325	H	0.568880	0.690943	0.420923
	H326	H	0.570875	0.684261	0.419147
	O327	O	0.441965	0.451062	0.286690
	H328	H	0.455896	0.484729	0.288706
	H329	H	0.414223	0.478378	0.280794
	O330	O	-0.034157	1.049642	0.045544
	H331	H	-0.020146	1.057600	0.051601
	H332	H	-0.027851	1.028465	0.035615
	O333	O	0.218949	0.800288	0.992774
	H334	H	0.243508	0.768344	0.990382
	H335	H	0.201497	0.806668	0.983542
	O336	O	0.060998	-0.199743	0.064218
	H337	H	0.046563	-0.203963	0.107946
	H338	H	0.062579	-0.203857	0.039546
	O339	O	-0.206162	0.995618	1.224536
	H340	H	-0.203358	1.004903	1.250968
	H341	H	-0.201068	1.011059	1.239881
	O342	O	0.215146	1.062714	0.972756
	H343	H	0.217658	1.032735	1.001413
	H344	H	0.221749	1.071477	0.969044
	O345	O	1.486085	0.725081	-0.707015
	H346	H	1.499943	0.743044	-0.716925
	H347	H	1.504723	0.739436	-0.702619
	O348	O	0.180429	0.188682	0.190627
	H349	H	0.183875	0.198899	0.151747
	H350	H	0.133733	0.200366	0.193576
	O351	O	0.184058	1.203488	1.021335
	H352	H	0.150547	1.204146	1.011926
	H353	H	0.208548	1.216018	1.019723
	O354	O	-0.477358	0.301707	0.295183
	H355	H	-0.500415	0.333607	0.283131
	H356	H	-0.480020	0.285774	0.262065
	O357	O	-0.505932	-0.404450	0.546018
	H358	H	-0.492473	-0.404582	0.530011
	H359	H	-0.531112	-0.425029	0.523744
	O360	O	0.719388	0.302395	0.491445
	H361	H	0.714434	0.293936	0.496010
	H362	H	0.730009	0.285644	0.475711
	O363	O	-0.379234	-0.497945	1.534614
	H364	H	-0.365217	-0.491349	1.545413
	H365	H	-0.382471	-0.514609	1.521783
	O366	O	1.212643	0.029146	1.227012
	H367	H	1.211724	0.064187	1.224426
	H368	H	1.235809	0.049330	1.248560
	O369	O	0.632403	0.585116	0.375289
	H370	H	0.643558	0.601325	0.396188
	H371	H	0.644318	0.582111	0.357526
	O372	O	0.941345	0.035443	1.187471
	H373	H	0.948368	0.036175	1.183508
	H374	H	0.957012	0.049706	1.168132
	O375	O	0.036782	-0.012864	0.000240
	H376	H	0.047503	-0.024414	0.006342
	H377	H	0.049349	-0.028666	-0.008247
	O378	O	0.721707	0.735636	0.527278
	H379	H	0.752078	0.762311	0.534647
	H380	H	0.713944	0.726747	0.576578
	O381	O	0.291542	0.302304	0.527400
	H382	H	0.270025	0.274845	0.524234
	H383	H	0.297033	0.310435	0.506127
	O384	O	0.524315	0.725755	0.722214
	H385	H	0.517853	0.750675	0.745214
	H386	H	0.503063	0.723740	0.707902
	O387	O	0.211271	-0.048816	1.064280
	H388	H	0.219865	-0.042136	1.093689
	H389	H	0.198557	-0.081690	1.063036
	O390	O	-0.484705	-0.708663	0.519437
	H391	H	-0.511706	-0.703660	0.534572
	H392	H	-0.492702	-0.711610	0.513683
	O393	O	0.785079	0.800755	1.026138
	H394	H	0.780188	0.770812	1.020646
	H395	H	0.785152	0.792986	1.061319
	O396	O	1.538957	0.425436	-0.503646
	H397	H	1.558342	0.434840	-0.506993
	H398	H	1.535876	0.423188	-0.515846
	O399	O	0.936913	-0.197779	0.946270
	H400	H	0.947240	-0.201533	0.915392
	H401	H	0.929577	-0.204783	0.954720
	O402	O	1.182096	0.833891	0.832114
	H403	H	1.194752	0.854412	0.850502
	H404	H	1.163690	0.854282	0.819442
	O405	O	0.992438	1.218843	-0.198586
	H406	H	1.006289	1.190385	-0.198794
	H407	H	0.967813	1.239340	-0.223135
	O408	O	1.023311	-0.203776	-0.206501
	H409	H	1.042865	-0.195753	-0.214057
	H410	H	1.021666	-0.217814	-0.235589
	O411	O	1.066908	1.239837	-0.039259
	H412	H	1.055772	1.239111	-0.056562
	H413	H	1.068228	1.226582	-0.051871
	O414	O	0.442722	0.573774	0.736295
	H415	H	0.464198	0.562028	0.727158
	H416	H	0.458064	0.575279	0.730932
	O417	O	0.286044	0.531562	0.291633
	H418	H	0.301266	0.583845	0.307656
	H419	H	0.246922	0.539701	0.254059
	O420	O	-0.049270	0.241449	0.074452
	H421	H	-0.060665	0.235721	0.053599
	H422	H	-0.057775	0.241727	0.041548
	O423	O	0.562715	0.455488	0.726581
	H424	H	0.548824	0.418762	0.725554
	H425	H	0.561602	0.450356	0.700530
	O426	O	0.830357	0.836066	0.182736
	H427	H	0.817645	0.888159	0.197684
	H428	H	0.859511	0.826343	0.173232
	O429	O	0.285130	0.579405	0.570985
	H430	H	0.290498	0.548948	0.568862
	H431	H	0.279832	0.550730	0.587426
	O432	O	0.707585	0.534589	0.712476
	H433	H	0.682052	0.509325	0.714108
	H434	H	0.725432	0.527600	0.732966
	O435	O	0.290129	0.496557	0.724320
	H436	H	0.331006	0.504392	0.729033
	H437	H	0.256373	0.493369	0.767763
	O438	O	0.213027	-0.005875	-0.206162
	H439	H	0.231403	0.006256	-0.216960
	H440	H	0.206918	0.013278	-0.209624
	O441	O	1.024127	0.022910	-0.173575
	H442	H	1.005940	0.026352	-0.166432
	H443	H	1.026130	0.016873	-0.146660
	O444	O	0.011745	1.219425	1.219754
	H445	H	-0.010361	1.229234	1.179787
	H446	H	0.011075	1.257250	1.240108
	O447	O	0.715876	0.495730	0.299221
	H448	H	0.730676	0.497676	0.305280
	H449	H	0.728592	0.481371	0.288962
	O450	O	0.289424	0.460597	0.453831
	H451	H	0.289051	0.463758	0.419369
	H452	H	0.304578	0.449520	0.445860
	O453	O	0.684003	0.335894	0.332225
	H454	H	0.634206	0.326520	0.322728
	H455	H	0.691853	0.352210	0.352039
