data_Molecule from HDF5

_cell_length_a		16.502892
_cell_length_b		16.591417
_cell_length_c		16.388015
_cell_angle_alpha	89.997226
_cell_angle_beta	89.954853
_cell_angle_gamma	90.024429
_symmetry_space_group_name_H-M	'P 1'
_symmetry_Int_Tables_number		1

loop_
	_symmetry_equiv_pos_as_xyz
	x,y,z

loop_
	_atom_site_label
	_atom_site_type_symbol
	_atom_site_fract_x
	_atom_site_fract_y
	_atom_site_fract_z
	H0	H	0.386971	0.856151	0.709606
	H1	H	0.591318	0.173064	0.711661
	H2	H	0.589022	0.856469	0.272924
	H3	H	0.384642	0.172145	0.270990
	H4	H	0.711596	0.408381	0.833523
	H5	H	0.708614	0.619931	0.150104
	H6	H	0.266719	0.620096	0.831797
	H7	H	0.270281	0.414373	0.150378
	H8	H	0.831079	0.736123	0.385540
	H9	H	0.144629	0.736250	0.597406
	H10	H	0.831101	0.291705	0.598933
	H11	H	0.146336	0.295653	0.387172
	H12	H	0.830097	0.408599	0.714426
	H13	H	0.145584	0.617694	0.711952
	H14	H	0.829348	0.616300	0.272875
	H15	H	0.147967	0.414695	0.274551
	H16	H	0.382525	0.736622	0.832140
	H17	H	0.593159	0.737071	0.148548
	H18	H	0.596912	0.291533	0.833529
	H19	H	0.383722	0.295634	0.149562
	H20	H	0.708473	0.857935	0.388193
	H21	H	0.710637	0.171729	0.598153
	H22	H	0.268054	0.857010	0.594859
	H23	H	0.265728	0.171814	0.385901
	H24	H	0.884907	0.357895	0.211776
	H25	H	0.089942	0.673844	0.209500
	H26	H	0.094367	0.358529	0.768419
	H27	H	0.881005	0.670933	0.767527
	H28	H	0.207159	0.911881	0.332160
	H29	H	0.207770	0.118245	0.651608
	H30	H	0.769722	0.116172	0.332444
	H31	H	0.764518	0.906958	0.649428
	H32	H	0.330798	0.238082	0.883585
	H33	H	0.644640	0.235884	0.095815
	H34	H	0.330692	0.793017	0.096495
	H35	H	0.645489	0.793507	0.884560
	H36	H	0.329822	0.909650	0.211903
	H37	H	0.646128	0.115898	0.209421
	H38	H	0.329279	0.118707	0.770778
	H39	H	0.647043	0.912733	0.771354
	H40	H	0.884177	0.234281	0.333391
	H41	H	0.094278	0.236629	0.650530
	H42	H	0.092583	0.793634	0.333222
	H43	H	0.878895	0.789182	0.648300
	H44	H	0.212166	0.359122	0.883858
	H45	H	0.207190	0.673904	0.092683
	H46	H	0.762973	0.360340	0.099264
	H47	H	0.763429	0.670665	0.882618
	H48	H	0.391777	0.127648	0.576842
	H49	H	0.576231	0.904009	0.579896
	H50	H	0.575391	0.127873	0.397198
	H51	H	0.395909	0.900650	0.398288
	H52	H	0.573747	0.421233	0.104552
	H53	H	0.573382	0.603795	0.878714
	H54	H	0.396185	0.601507	0.102926
	H55	H	0.401228	0.427318	0.878256
	H56	H	0.103633	0.607211	0.395340
	H57	H	0.877342	0.599493	0.576418
	H58	H	0.102368	0.423492	0.583651
	H59	H	0.873895	0.426037	0.397422
	H60	H	0.098707	0.423285	0.574174
	H61	H	0.874282	0.601878	0.581962
	H62	H	0.102377	0.610628	0.403709
	H63	H	0.872932	0.418142	0.401265
	H64	H	0.402778	0.604724	0.102459
	H65	H	0.577521	0.603646	0.877382
	H66	H	0.579657	0.427764	0.104440
	H67	H	0.400583	0.424069	0.876675
	H68	H	0.577924	0.125844	0.406126
	H69	H	0.578836	0.903508	0.579469
	H70	H	0.397649	0.128865	0.586568
	H71	H	0.400727	0.903749	0.402643
	H72	H	0.901367	0.627651	0.083116
	H73	H	0.081019	0.402563	0.080186
	H74	H	0.081675	0.627468	0.901358
	H75	H	0.902904	0.405037	0.903103
	H76	H	0.076206	0.927940	0.604205
	H77	H	0.082001	0.109447	0.375517
	H78	H	0.902611	0.101126	0.603158
	H79	H	0.898330	0.922872	0.377216
	H80	H	0.600953	0.106616	0.901476
	H81	H	0.374787	0.105317	0.080434
	H82	H	0.599091	0.928874	0.080428
	H83	H	0.376361	0.920513	0.909530
	H84	H	0.602690	0.923201	0.083700
	H85	H	0.373857	0.106175	0.081011
	H86	H	0.598899	0.104706	0.905014
	H87	H	0.378207	0.932464	0.901997
	H88	H	0.901568	0.106435	0.605710
	H89	H	0.078198	0.098184	0.380788
	H90	H	0.073930	0.923048	0.604661
	H91	H	0.899075	0.928704	0.380083
	H92	H	0.074049	0.627175	0.899255
	H93	H	0.083043	0.401055	0.084110
	H94	H	0.898818	0.626183	0.076835
	H95	H	0.900234	0.406266	0.908550
	H96	H	0.402492	0.124258	0.577212
	H97	H	0.577792	0.902688	0.582101
	H98	H	0.584334	0.129219	0.399973
	H99	H	0.394332	0.903084	0.404735
	H100	H	0.571600	0.429011	0.101124
	H101	H	0.575456	0.599952	0.879512
	H102	H	0.397236	0.608493	0.105220
	H103	H	0.397782	0.426543	0.877312
	H104	H	0.100288	0.601733	0.402531
	H105	H	0.875457	0.605562	0.576156
	H106	H	0.097532	0.431727	0.579606
	H107	H	0.876324	0.425356	0.405982
	H108	H	0.894751	0.628257	0.081939
	H109	H	0.078394	0.402363	0.084473
	H110	H	0.076633	0.624788	0.906505
	H111	H	0.897300	0.403332	0.904242
	H112	H	0.079276	0.923723	0.605984
	H113	H	0.070204	0.107780	0.380539
	H114	H	0.897516	0.101883	0.606548
	H115	H	0.903480	0.924488	0.380605
	H116	H	0.599284	0.102504	0.901277
	H117	H	0.374061	0.106450	0.079577
	H118	H	0.600334	0.922148	0.076666
	H119	H	0.371948	0.921254	0.896006
	C120	C	0.366299	0.022796	0.612435
	C121	C	0.610133	1.006938	0.613415
	C122	C	0.609551	0.023354	0.370301
	C123	C	0.365496	1.006242	0.369471
	C124	C	0.609198	0.393498	-0.000576
	C125	C	0.608209	0.635619	0.982911
	C126	C	0.366675	0.636812	-0.001093
	C127	C	0.367708	0.394689	0.982349
	C128	C	-0.002919	0.636789	0.369480
	C129	C	0.979294	0.635046	0.612088
	C130	C	-0.004004	0.393289	0.612945
	C131	C	0.979855	0.393522	0.370629
	C132	C	0.866453	0.523745	0.113139
	C133	C	0.110650	0.507058	0.113135
	C134	C	0.109811	0.522920	0.869571
	C135	C	0.866454	0.507314	0.870742
	C136	C	0.108495	0.893154	0.500093
	C137	C	0.109295	0.136727	0.483955
	C138	C	0.868215	0.135007	0.500331
	C139	C	0.866659	0.892388	0.483341
	C140	C	0.496081	0.136951	0.869597
	C141	C	0.479081	0.136590	0.112093
	C142	C	0.496163	0.893143	0.112015
	C143	C	0.479877	0.893495	0.869787
	C144	C	0.366912	0.903794	0.670862
	C145	C	0.611087	0.125366	0.672740
	C146	C	0.608807	0.903943	0.312454
	C147	C	0.365154	0.125033	0.310542
	C148	C	0.670854	0.390831	0.880791
	C149	C	0.668546	0.638340	0.102308
	C150	C	0.306946	0.638471	0.879247
	C151	C	0.309090	0.394393	0.102437
	C152	C	0.878106	0.695794	0.367457
	C153	C	0.097633	0.695634	0.615616
	C154	C	0.877800	0.332407	0.616805
	C155	C	0.099025	0.335482	0.369304
	C156	C	0.877378	0.390708	0.673992
	C157	C	0.098003	0.636664	0.672444
	C158	C	0.877265	0.636419	0.311436
	C159	C	0.099660	0.394444	0.312766
	C160	C	0.364393	0.696493	0.879620
	C161	C	0.611326	0.696531	0.101680
	C162	C	0.613646	0.332507	0.880674
	C163	C	0.365760	0.335729	0.102006
	C164	C	0.668324	0.904686	0.369288
	C165	C	0.670500	0.124711	0.616034
	C166	C	0.308137	0.903897	0.613474
	C167	C	0.306101	0.124684	0.367741
	C168	C	0.865171	0.405328	0.172598
	C169	C	0.109833	0.626382	0.170615
	C170	C	0.112586	0.405391	0.808669
	C171	C	0.863254	0.624218	0.808465
	C172	C	0.167592	0.892521	0.380104
	C173	C	0.168340	0.137326	0.603675
	C174	C	0.809123	0.135712	0.380343
	C175	C	0.805125	0.888979	0.601881
	C176	C	0.377543	0.197208	0.866369
	C177	C	0.597864	0.195636	0.114230
	C178	C	0.377687	0.833304	0.114483
	C179	C	0.598580	0.833836	0.866939
	C180	C	0.377399	0.891380	0.172037
	C181	C	0.598276	0.136141	0.170661
	C182	C	0.376846	0.138073	0.810035
	C183	C	0.599290	0.893211	0.810668
	C184	C	0.866075	0.194246	0.380751
	C185	C	0.111568	0.195992	0.603343
	C186	C	0.110821	0.833844	0.380543
	C187	C	0.862241	0.830532	0.601524
	C188	C	0.171079	0.405717	0.866206
	C189	C	0.168020	0.626367	0.112671
	C190	C	0.804867	0.406476	0.116652
	C191	C	0.804386	0.624009	0.865503
	C192	C	0.390205	0.105320	0.587572
	C193	C	0.584938	0.924703	0.587713
	C194	C	0.586102	0.106117	0.394114
	C195	C	0.389957	0.924024	0.394421
	C196	C	0.582670	0.418749	0.081931
	C197	C	0.582819	0.609829	0.900160
	C198	C	0.391630	0.611829	0.081908
	C199	C	0.392744	0.418997	0.899053
	C200	C	0.080380	0.613327	0.393744
	C201	C	0.896959	0.609927	0.585690
	C202	C	0.078106	0.418742	0.586720
	C203	C	0.896208	0.416523	0.394632
	C204	C	0.891182	0.605916	0.087917
	C205	C	0.087392	0.423723	0.089583
	C206	C	0.084777	0.605062	0.895090
	C207	C	0.892569	0.425913	0.897828
	C208	C	0.083618	0.917736	0.583087
	C209	C	0.084103	0.112080	0.400651
	C210	C	0.893484	0.110361	0.583406
	C211	C	0.892854	0.918003	0.400796
	C212	C	0.578146	0.111970	0.895179
	C213	C	0.395919	0.113055	0.087237
	C214	C	0.579102	0.917629	0.087267
	C215	C	0.397178	0.917719	0.895110
	Zn216	Zn	0.488003	0.015175	0.741756
	Zn217	Zn	0.487528	0.014374	0.240735
	Zn218	Zn	0.736941	0.515421	-0.008302
	Zn219	Zn	0.238734	0.515328	-0.009240
	Zn220	Zn	-0.012220	0.764384	0.491413
	Zn221	Zn	-0.012065	0.264686	0.492017
	Zn222	Zn	-0.012498	0.514003	0.741375
	Zn223	Zn	-0.011617	0.515510	0.242048
	Zn224	Zn	0.487891	0.764668	-0.009670
	Zn225	Zn	0.487802	0.265237	-0.009570
	Zn226	Zn	0.739295	0.014882	0.492027
	Zn227	Zn	0.236729	0.014512	0.491766
	N228	N	0.402255	0.978821	0.670284
	N229	N	0.574390	0.051035	0.671134
	N230	N	0.573134	0.978688	0.312708
	N231	N	0.401034	0.050415	0.311287
	N232	N	0.667946	0.428171	0.955593
	N233	N	0.666587	0.601036	0.027517
	N234	N	0.308107	0.601987	0.954520
	N235	N	0.310345	0.430637	0.027170
	N236	N	0.953672	0.696203	0.402683
	N237	N	0.022714	0.694758	0.578870
	N238	N	0.952447	0.333655	0.579806
	N239	N	0.023385	0.334629	0.404439
	N240	N	0.951738	0.427775	0.671603
	N241	N	0.023266	0.600104	0.670648
	N242	N	0.952119	0.600567	0.312601
	N243	N	0.024218	0.429641	0.313200
	N244	N	0.400928	0.695343	0.954756
	N245	N	0.574627	0.694957	0.026526
	N246	N	0.575951	0.333900	0.955392
	N247	N	0.401424	0.335688	0.026209
	N248	N	0.668955	0.979842	0.404478
	N249	N	0.670278	0.049670	0.580280
	N250	N	0.307304	0.978898	0.578192
	N251	N	0.306163	0.049786	0.403694
	N252	N	0.902774	0.479114	0.170471
	N253	N	0.075104	0.551004	0.171242
	N254	N	0.074996	0.479180	0.810957
	N255	N	0.901031	0.550485	0.811511
	N256	N	0.166352	0.928786	0.455392
	N257	N	0.167298	0.101416	0.528217
	N258	N	0.810402	0.099422	0.455612
	N259	N	0.808090	0.927130	0.527558
	N260	N	0.452765	0.197022	0.902422
	N261	N	0.522546	0.196135	0.078719
	N262	N	0.452727	0.833979	0.078157
	N263	N	0.523264	0.833868	0.902749
	N264	N	0.452003	0.928094	0.170481
	N265	N	0.523246	0.100173	0.169595
	N266	N	0.451361	0.101327	0.811825
	N267	N	0.524439	0.929460	0.812261
	N268	N	0.901889	0.193979	0.456384
	N269	N	0.075767	0.195947	0.527718
	N270	N	0.074926	0.834060	0.456214
	N271	N	0.899897	0.832549	0.526780
	N272	N	0.169606	0.479955	0.903208
	N273	N	0.168683	0.551056	0.077802
	N274	N	0.805474	0.481231	0.080566
	N275	N	0.806382	0.550329	0.903645
	O276	O	0.954926	-0.200705	0.204360
	H277	H	0.932237	-0.214490	0.220635
	H278	H	0.932616	-0.201346	0.212502
	O279	O	0.576278	0.304401	0.568650
	H280	H	0.593367	0.297396	0.563154
	H281	H	0.584352	0.301449	0.555808
	O282	O	0.605739	1.367706	0.305688
	H283	H	0.608509	1.398436	0.311262
	H284	H	0.585458	1.348342	0.294753
	O285	O	0.353778	0.671944	0.652357
	H286	H	0.359393	0.684279	0.629081
	H287	H	0.373516	0.667046	0.647853
	O288	O	-0.166877	0.026822	-0.132406
	H289	H	-0.162380	0.020537	-0.138372
	H290	H	-0.173432	0.034137	-0.140598
	O291	O	1.119687	0.835596	0.114310
	H292	H	1.101235	0.844413	0.111699
	H293	H	1.105979	0.853152	0.098736
	O294	O	-0.317032	0.705683	-0.402868
	H295	H	-0.313682	0.686484	-0.411920
	H296	H	-0.308078	0.712471	-0.412191
	O297	O	0.284886	0.411862	0.624031
	H298	H	0.270432	0.407520	0.629702
	H299	H	0.294106	0.425336	0.636681
	O300	O	0.384732	0.430246	0.696016
	H301	H	0.404516	0.432467	0.702328
	H302	H	0.370894	0.446474	0.713689
	O303	O	0.485052	0.686018	0.611354
	H304	H	0.474353	0.699429	0.607726
	H305	H	0.489711	0.685813	0.603588
	O306	O	0.040744	1.229765	1.037200
	H307	H	0.045287	1.209708	1.027794
	H308	H	0.040277	1.239462	1.033171
	O309	O	1.030924	1.071761	0.981199
	H310	H	1.027129	1.075467	0.968298
	H311	H	1.028908	1.072974	0.972688
	O312	O	0.284547	0.548339	0.578799
	H313	H	0.289691	0.539095	0.572803
	H314	H	0.285915	0.558356	0.582721
	O315	O	-0.013907	0.219559	0.782125
	H316	H	-0.022067	0.219849	0.783252
	H317	H	-0.020260	0.227092	0.769724
	O318	O	-0.107451	1.218684	0.088161
	H319	H	-0.098741	1.206234	0.082318
	H320	H	-0.102795	1.210730	0.072525
	O321	O	1.009277	0.207823	1.191678
	H322	H	0.997765	0.205710	1.178130
	H323	H	0.998436	0.219443	1.202473
	O324	O	1.693498	0.575580	0.526337
	H325	H	1.691959	0.556745	0.516747
	H326	H	1.690040	0.578209	0.524395
	O327	O	0.913444	-0.146897	0.918620
	H328	H	0.917318	-0.134750	0.904405
	H329	H	0.901171	-0.152891	0.931901
	O330	O	0.738523	-0.290838	0.298263
	H331	H	0.725380	-0.272242	0.298674
	H332	H	0.720341	-0.315944	0.313023
	O333	O	1.507607	0.502406	0.545417
	H334	H	1.494261	0.527596	0.545369
	H335	H	1.507911	0.492480	0.525166
	O336	O	1.210649	-0.020068	0.772910
	H337	H	1.213267	-0.059822	0.771204
	H338	H	1.231728	-0.031881	0.747235
	O339	O	0.687057	0.533379	0.692339
	H340	H	0.702759	0.534495	0.716415
	H341	H	0.674121	0.521326	0.687646
	O342	O	0.918225	-0.038349	0.774887
	H343	H	0.937605	-0.053335	0.775614
	H344	H	0.946033	-0.030506	0.777104
	O345	O	0.189360	-0.181859	-0.042698
	H346	H	0.193190	-0.182310	-0.026352
	H347	H	0.170568	-0.181045	-0.018435
	O348	O	1.191157	-0.055468	1.051837
	H349	H	1.182352	-0.041702	1.067483
	H350	H	1.187312	-0.047333	1.048758
	O351	O	0.775321	0.806686	0.013501
	H352	H	0.788697	0.817567	0.032497
	H353	H	0.748925	0.785458	0.021239
	O354	O	0.637073	0.706302	0.336666
	H355	H	0.621837	0.694360	0.352974
	H356	H	0.631364	0.694316	0.360932
	O357	O	1.128594	1.120544	1.095493
	H358	H	1.141990	1.127669	1.090035
	H359	H	1.111825	1.113489	1.105293
	O360	O	0.519281	0.717289	0.537816
	H361	H	0.512122	0.707190	0.540885
	H362	H	0.520939	0.718076	0.542767
	O363	O	0.544033	0.434052	0.423883
	H364	H	0.533059	0.422449	0.435743
	H365	H	0.558921	0.421041	0.425814
	O366	O	0.787687	0.102987	1.071810
	H367	H	0.793442	0.099100	1.063477
	H368	H	0.778836	0.112750	1.076941
	O369	O	0.799209	0.208442	0.803091
	H370	H	0.789635	0.192567	0.810643
	H371	H	0.817858	0.182655	0.792590
	O372	O	0.403045	0.359569	0.346117
	H373	H	0.390541	0.348150	0.345939
	H374	H	0.397284	0.347223	0.352005
	O375	O	0.052861	1.214961	0.888949
	H376	H	0.047042	1.218066	0.890983
	H377	H	0.067858	1.208080	0.903406
	O378	O	0.973274	0.008225	0.049624
	H379	H	0.982926	0.028303	0.030668
	H380	H	0.969670	0.007820	0.065374
	O381	O	1.016116	-0.197240	-0.222050
	H382	H	1.006151	-0.203238	-0.203459
	H383	H	1.026109	-0.220073	-0.239071
	O384	O	0.170355	0.216587	1.189798
	H385	H	0.184893	0.234788	1.172098
	H386	H	0.130144	0.209180	1.195248
	O387	O	0.184607	0.815830	0.792726
	H388	H	0.190235	0.811613	0.843819
	H389	H	0.166581	0.797125	0.778852
	O390	O	-0.054420	0.041310	1.182179
	H391	H	-0.041169	0.051011	1.194300
	H392	H	-0.043574	0.026098	1.173341
	O393	O	1.063726	1.041217	-0.188076
	H394	H	1.077680	1.057653	-0.189916
	H395	H	1.090757	1.035221	-0.196883
	O396	O	0.801059	0.033620	0.805454
	H397	H	0.819664	0.016930	0.786617
	H398	H	0.787307	0.020908	0.787087
	O399	O	-0.101279	1.008210	1.095060
	H400	H	-0.101576	1.020701	1.105025
	H401	H	-0.095719	1.015932	1.076093
	O402	O	0.204031	0.047036	1.205247
	H403	H	0.224746	0.051150	1.230426
	H404	H	0.200260	0.071221	1.194753
	O405	O	-0.712125	0.393020	0.605827
	H406	H	-0.705154	0.396562	0.610030
	H407	H	-0.694759	0.394793	0.623162
	O408	O	0.284018	0.537962	0.291695
	H409	H	0.263863	0.538908	0.283538
	H410	H	0.291106	0.562577	0.292219
	O411	O	0.449255	0.440345	0.425528
	H412	H	0.437601	0.434738	0.416249
	H413	H	0.441010	0.424549	0.421339
	O414	O	0.334226	0.656476	0.434547
	H415	H	0.324920	0.656525	0.432946
	H416	H	0.342760	0.647287	0.432427
	O417	O	0.415187	0.444617	0.298307
	H418	H	0.400668	0.456553	0.309259
	H419	H	0.418923	0.459122	0.292617
	O420	O	0.589391	0.336823	0.588951
	H421	H	0.590434	0.341067	0.597079
	H422	H	0.581071	0.337099	0.575673
	O423	O	-0.167282	0.842569	0.040506
	H424	H	-0.174515	0.854604	0.036790
	H425	H	-0.176391	0.835624	0.063032
	O426	O	0.692758	1.483155	1.285942
	H427	H	0.687047	1.478124	1.278047
	H428	H	0.698958	1.472887	1.268065
	O429	O	0.493491	0.656285	0.290296
	H430	H	0.477002	0.676650	0.289552
	H431	H	0.493563	0.655488	0.279288
	O432	O	0.382622	0.541523	0.483686
	H433	H	0.374963	0.538867	0.474126
	H434	H	0.389559	0.526262	0.481235
	O435	O	0.532238	-0.346391	0.691032
	H436	H	0.555855	-0.340384	0.685130
	H437	H	0.540973	-0.321084	0.697190
	O438	O	1.033737	-0.171800	0.023076
	H439	H	1.025014	-0.165729	0.017178
	H440	H	1.020714	-0.176001	0.035142
	O441	O	0.486684	0.324678	0.469274
	H442	H	0.482543	0.326645	0.477822
	H443	H	0.483104	0.320811	0.465808
	O444	O	0.374342	0.298244	0.512790
	H445	H	0.380100	0.305895	0.554882
	H446	H	0.371674	0.279590	0.511725
	O447	O	0.482116	0.656758	0.457239
	H448	H	0.483370	0.646960	0.448578
	H449	H	0.485620	0.651122	0.466611
	O450	O	0.698223	0.307479	0.382132
	H451	H	0.670590	0.307777	0.369640
	H452	H	0.722609	0.290977	0.373801
	O453	O	0.189288	0.128732	-0.105935
	H454	H	0.194666	0.124247	-0.117807
	H455	H	0.188367	0.117308	-0.096225
	O456	O	0.782751	-0.017705	0.198122
	H457	H	0.766463	-0.009723	0.223061
	H458	H	0.803247	-0.005834	0.179982
	O459	O	0.366870	0.718535	0.280119
	H460	H	0.369178	0.733076	0.311491
	H461	H	0.342941	0.744596	0.258964
	O462	O	0.557417	0.469505	0.643030
	H463	H	0.554871	0.468792	0.635191
	H464	H	0.562893	0.479801	0.655385
	O465	O	0.802080	0.230838	-0.018365
	H466	H	0.812121	0.237771	-0.029152
	H467	H	0.781624	0.236907	-0.031475
