data_Molecule from HDF5

_cell_length_a		16.300324
_cell_length_b		16.261783
_cell_length_c		16.329709
_cell_angle_alpha	89.929858
_cell_angle_beta	90.065752
_cell_angle_gamma	90.004912
_symmetry_space_group_name_H-M	'P 1'
_symmetry_Int_Tables_number		1

loop_
	_symmetry_equiv_pos_as_xyz
	x,y,z

loop_
	_atom_site_label
	_atom_site_type_symbol
	_atom_site_fract_x
	_atom_site_fract_y
	_atom_site_fract_z
	H0	H	0.401642	0.835899	0.714420
	H1	H	0.598076	0.163300	0.713919
	H2	H	0.596864	0.835493	0.287016
	H3	H	0.400951	0.163867	0.285245
	H4	H	0.714598	0.402073	0.836391
	H5	H	0.715318	0.598559	0.162779
	H6	H	0.285568	0.597787	0.836036
	H7	H	0.286036	0.402714	0.163305
	H8	H	0.835883	0.713541	0.402865
	H9	H	0.164487	0.712768	0.596385
	H10	H	0.835731	0.286355	0.596832
	H11	H	0.164234	0.286938	0.403751
	H12	H	0.836156	0.400477	0.715272
	H13	H	0.163911	0.596718	0.713119
	H14	H	0.836416	0.597572	0.285563
	H15	H	0.163603	0.400392	0.284535
	H16	H	0.402657	0.714223	0.835940
	H17	H	0.597514	0.713583	0.163810
	H18	H	0.597721	0.285943	0.836146
	H19	H	0.403223	0.286287	0.163905
	H20	H	0.714057	0.835922	0.403107
	H21	H	0.714127	0.163423	0.598339
	H22	H	0.286180	0.835662	0.597257
	H23	H	0.286919	0.164298	0.404092
	H24	H	0.902069	0.335740	0.213809
	H25	H	0.098214	0.664021	0.214550
	H26	H	0.096981	0.335664	0.786911
	H27	H	0.901165	0.664225	0.785544
	H28	H	0.214975	0.901985	0.336655
	H29	H	0.214399	0.096537	0.663549
	H30	H	0.784988	0.099121	0.336884
	H31	H	0.786648	0.901522	0.663488
	H32	H	0.336152	0.213679	0.903344
	H33	H	0.664221	0.213130	0.097703
	H34	H	0.335487	0.786485	0.097348
	H35	H	0.664266	0.787086	0.903980
	H36	H	0.336028	0.902383	0.213861
	H37	H	0.663402	0.097811	0.214718
	H38	H	0.336763	0.099284	0.784811
	H39	H	0.663907	0.902726	0.786270
	H40	H	0.902165	0.214495	0.336810
	H41	H	0.097753	0.213432	0.664030
	H42	H	0.096520	0.787008	0.335932
	H43	H	0.904219	0.786036	0.663755
	H44	H	0.213277	0.335572	0.903604
	H45	H	0.213599	0.664610	0.097237
	H46	H	0.785534	0.336421	0.098011
	H47	H	0.785511	0.663948	0.902365
	H48	H	0.406667	0.117600	0.596548
	H49	H	0.590469	0.882014	0.599255
	H50	H	0.593252	0.119102	0.397677
	H51	H	0.411634	0.884331	0.405552
	H52	H	0.586318	0.407049	0.113694
	H53	H	0.595006	0.593851	0.884028
	H54	H	0.401412	0.590179	0.116268
	H55	H	0.412424	0.399141	0.882700
	H56	H	0.117667	0.590835	0.400041
	H57	H	0.884025	0.589475	0.593798
	H58	H	0.118920	0.399793	0.596885
	H59	H	0.884901	0.416051	0.400418
	H60	H	0.114137	0.408139	0.587829
	H61	H	0.882304	0.595351	0.596364
	H62	H	0.117785	0.599990	0.408108
	H63	H	0.879740	0.399331	0.401916
	H64	H	0.410805	0.591075	0.114469
	H65	H	0.592682	0.591617	0.884561
	H66	H	0.596618	0.399487	0.118416
	H67	H	0.396503	0.405436	0.880804
	H68	H	0.586345	0.113819	0.410178
	H69	H	0.591236	0.884487	0.588090
	H70	H	0.410504	0.115058	0.591876
	H71	H	0.404625	0.883565	0.411745
	H72	H	0.912406	0.617810	0.102093
	H73	H	0.096814	0.382395	0.091899
	H74	H	0.085088	0.615374	0.902660
	H75	H	0.905385	0.382960	0.905329
	H76	H	0.093534	0.914633	0.613143
	H77	H	0.095633	0.087777	0.385332
	H78	H	0.910494	0.096779	0.616117
	H79	H	0.906572	0.908390	0.384692
	H80	H	0.617275	0.096003	0.903846
	H81	H	0.384371	0.093785	0.088275
	H82	H	0.614789	0.912619	0.095754
	H83	H	0.380078	0.911719	0.890998
	H84	H	0.618267	0.902432	0.098761
	H85	H	0.383961	0.089654	0.095292
	H86	H	0.615878	0.093993	0.909651
	H87	H	0.380804	0.891344	0.911688
	H88	H	0.902002	0.095511	0.618809
	H89	H	0.087275	0.095235	0.385413
	H90	H	0.086483	0.900548	0.615597
	H91	H	0.907857	0.906911	0.384005
	H92	H	0.096677	0.615732	0.914254
	H93	H	0.091771	0.382880	0.096876
	H94	H	0.911967	0.613162	0.084466
	H95	H	0.907567	0.384004	0.905977
	H96	H	0.404198	0.116619	0.590481
	H97	H	0.600449	0.880964	0.593663
	H98	H	0.600919	0.117570	0.410435
	H99	H	0.403071	0.880799	0.402691
	H100	H	0.598804	0.412894	0.115567
	H101	H	0.591626	0.594348	0.883609
	H102	H	0.405658	0.598952	0.117739
	H103	H	0.408974	0.415637	0.887756
	H104	H	0.114253	0.588858	0.410968
	H105	H	0.884058	0.594835	0.589857
	H106	H	0.116044	0.411945	0.599546
	H107	H	0.887397	0.407637	0.415406
	H108	H	0.896635	0.619522	0.092650
	H109	H	0.090932	0.385491	0.090049
	H110	H	0.100019	0.620399	0.899388
	H111	H	0.905910	0.383375	0.907923
	H112	H	0.101985	0.902429	0.619187
	H113	H	0.097095	0.098276	0.381219
	H114	H	0.906777	0.088868	0.614796
	H115	H	0.905685	0.906150	0.383601
	H116	H	0.616744	0.090144	0.905219
	H117	H	0.382007	0.097385	0.094557
	H118	H	0.614987	0.904882	0.088255
	H119	H	0.390260	0.918224	0.917674
	C120	C	0.378681	0.008001	0.621291
	C121	C	0.621826	0.991074	0.621623
	C122	C	0.621577	0.008202	0.378448
	C123	C	0.378176	0.991373	0.378618
	C124	C	0.622042	0.378321	0.007867
	C125	C	0.621479	0.621914	0.991716
	C126	C	0.378089	0.621651	0.008034
	C127	C	0.378368	0.378543	0.991852
	C128	C	0.008339	0.621865	0.378208
	C129	C	0.991767	0.621446	0.621497
	C130	C	0.007963	0.378382	0.622047
	C131	C	0.992248	0.379045	0.378380
	C132	C	0.878518	0.508361	0.121354
	C133	C	0.121324	0.492153	0.121107
	C134	C	0.121724	0.508405	0.878057
	C135	C	0.878045	0.492034	0.878085
	C136	C	0.122021	0.877841	0.508142
	C137	C	0.121623	0.121609	0.491975
	C138	C	0.878096	0.121867	0.508417
	C139	C	0.878649	0.878366	0.492026
	C140	C	0.508196	0.121558	0.878209
	C141	C	0.491742	0.121904	0.121783
	C142	C	0.508007	0.877920	0.122104
	C143	C	0.491752	0.878494	0.878633
	C144	C	0.381820	0.884419	0.675981
	C145	C	0.618665	0.114479	0.676030
	C146	C	0.618524	0.884729	0.324000
	C147	C	0.380497	0.115004	0.323395
	C148	C	0.676672	0.381421	0.884933
	C149	C	0.676785	0.618852	0.114520
	C150	C	0.323689	0.618506	0.884572
	C151	C	0.323796	0.381605	0.114714
	C152	C	0.884921	0.676278	0.381339
	C153	C	0.115341	0.675447	0.617816
	C154	C	0.884668	0.323615	0.618081
	C155	C	0.115544	0.324396	0.382085
	C156	C	0.884729	0.380611	0.676645
	C157	C	0.115332	0.617650	0.675493
	C158	C	0.885060	0.618539	0.323409
	C159	C	0.115199	0.380896	0.323200
	C160	C	0.381462	0.676494	0.884729
	C161	C	0.618481	0.675987	0.114918
	C162	C	0.618690	0.323881	0.884756
	C163	C	0.382093	0.324155	0.115185
	C164	C	0.676130	0.884616	0.381962
	C165	C	0.676204	0.114698	0.618565
	C166	C	0.324022	0.884486	0.618442
	C167	C	0.323980	0.115273	0.382084
	C168	C	0.881288	0.384956	0.176189
	C169	C	0.118635	0.615458	0.176193
	C170	C	0.117767	0.384599	0.824516
	C171	C	0.881206	0.615510	0.823683
	C172	C	0.176701	0.881406	0.385166
	C173	C	0.176180	0.117867	0.615025
	C174	C	0.823177	0.119448	0.385617
	C175	C	0.824192	0.880774	0.614941
	C176	C	0.385025	0.176153	0.881959
	C177	C	0.615247	0.175686	0.118561
	C178	C	0.384725	0.823731	0.118377
	C179	C	0.615406	0.824391	0.882489
	C180	C	0.384806	0.880970	0.176533
	C181	C	0.614601	0.118314	0.176602
	C182	C	0.385340	0.119262	0.823241
	C183	C	0.615379	0.881758	0.824327
	C184	C	0.881376	0.176653	0.385383
	C185	C	0.118451	0.175748	0.615198
	C186	C	0.118478	0.823786	0.384865
	C187	C	0.882487	0.823584	0.614959
	C188	C	0.175804	0.384573	0.882068
	C189	C	0.176061	0.615661	0.118372
	C190	C	0.823968	0.384922	0.118138
	C191	C	0.823860	0.615460	0.881553
	C192	C	0.400633	0.094221	0.599381
	C193	C	0.600199	0.904785	0.600021
	C194	C	0.599801	0.094560	0.399787
	C195	C	0.399948	0.905160	0.400303
	C196	C	0.600320	0.399934	0.093787
	C197	C	0.599430	0.599833	0.906135
	C198	C	0.399577	0.599907	0.093920
	C199	C	0.399941	0.400246	0.905893
	C200	C	0.094202	0.599732	0.400058
	C201	C	0.905729	0.599676	0.599830
	C202	C	0.094151	0.400231	0.600989
	C203	C	0.906256	0.401159	0.399782
	C204	C	0.900383	0.594686	0.099468
	C205	C	0.099690	0.405965	0.099328
	C206	C	0.100358	0.594830	0.899185
	C207	C	0.899794	0.405760	0.900100
	C208	C	0.100498	0.899437	0.593934
	C209	C	0.099674	0.100101	0.406091
	C210	C	0.899919	0.100095	0.594385
	C211	C	0.900224	0.900700	0.406329
	C212	C	0.594418	0.099747	0.899906
	C213	C	0.405599	0.100194	0.099341
	C214	C	0.594001	0.900051	0.100564
	C215	C	0.405845	0.900611	0.900424
	Zn216	Zn	0.500164	-0.000673	0.749872
	Zn217	Zn	0.499462	0.000127	0.250236
	Zn218	Zn	0.750063	0.500126	-0.000162
	Zn219	Zn	0.249509	0.500306	-0.000279
	Zn220	Zn	0.000080	0.749622	0.499788
	Zn221	Zn	-0.000049	0.250179	0.499945
	Zn222	Zn	-0.000623	0.500216	0.750530
	Zn223	Zn	0.000138	0.500142	0.249470
	Zn224	Zn	0.499947	0.750347	0.000154
	Zn225	Zn	0.500264	0.250230	0.000119
	Zn226	Zn	0.750001	-0.000039	0.500473
	Zn227	Zn	0.250119	-0.000244	0.500119
	N228	N	0.415021	0.962241	0.677792
	N229	N	0.585466	0.036622	0.677971
	N230	N	0.585125	0.962478	0.321894
	N231	N	0.413830	0.037173	0.321477
	N232	N	0.678816	0.414516	0.962515
	N233	N	0.678780	0.585777	0.036899
	N234	N	0.321554	0.585198	0.962100
	N235	N	0.321543	0.414845	0.037086
	N236	N	0.962479	0.678144	0.414789
	N237	N	0.037510	0.677834	0.584840
	N238	N	0.962248	0.322246	0.584823
	N239	N	0.038106	0.323124	0.415639
	N240	N	0.962368	0.413892	0.679305
	N241	N	0.037477	0.584983	0.677994
	N242	N	0.962690	0.585275	0.321339
	N243	N	0.037439	0.413818	0.320541
	N244	N	0.414616	0.678585	0.962300
	N245	N	0.584873	0.677818	0.037642
	N246	N	0.585333	0.322044	0.962115
	N247	N	0.415280	0.322193	0.037698
	N248	N	0.678141	0.962395	0.414948
	N249	N	0.678124	0.036919	0.585328
	N250	N	0.322187	0.962205	0.584904
	N251	N	0.322083	0.037390	0.415488
	N252	N	0.914612	0.462693	0.178178
	N253	N	0.085264	0.537704	0.177924
	N254	N	0.084807	0.462509	0.822170
	N255	N	0.914307	0.537645	0.821722
	N256	N	0.178988	0.914264	0.462704
	N257	N	0.178375	0.085048	0.537435
	N258	N	0.821338	0.085908	0.463124
	N259	N	0.822102	0.914489	0.537588
	N260	N	0.462506	0.177574	0.915682
	N261	N	0.537719	0.177960	0.085119
	N262	N	0.462369	0.821916	0.085312
	N263	N	0.537626	0.822431	0.915577
	N264	N	0.462438	0.914286	0.178749
	N265	N	0.536663	0.085439	0.178454
	N266	N	0.462968	0.085831	0.820998
	N267	N	0.537589	0.914584	0.821817
	N268	N	0.914627	0.178490	0.462859
	N269	N	0.085303	0.178286	0.537629
	N270	N	0.085222	0.821686	0.462300
	N271	N	0.915441	0.821897	0.537455
	N272	N	0.178158	0.462574	0.914717
	N273	N	0.177771	0.537984	0.084799
	N274	N	0.822135	0.462844	0.084957
	N275	N	0.821798	0.537702	0.914744
