data_Molecule from HDF5

_cell_length_a		16.251411
_cell_length_b		16.299135
_cell_length_c		16.207391
_cell_angle_alpha	89.972347
_cell_angle_beta	90.040379
_cell_angle_gamma	89.752324
_symmetry_space_group_name_H-M	'P 1'
_symmetry_Int_Tables_number		1

loop_
	_symmetry_equiv_pos_as_xyz
	x,y,z

loop_
	_atom_site_label
	_atom_site_type_symbol
	_atom_site_fract_x
	_atom_site_fract_y
	_atom_site_fract_z
	H0	H	0.415947	0.847680	0.703214
	H1	H	0.611249	0.175238	0.702836
	H2	H	0.613324	0.847917	0.273053
	H3	H	0.413523	0.176089	0.273328
	H4	H	0.725475	0.412749	0.823200
	H5	H	0.726737	0.608645	0.151897
	H6	H	0.297584	0.609856	0.823749
	H7	H	0.298917	0.411169	0.152339
	H8	H	0.849963	0.728541	0.389357
	H9	H	0.176404	0.725827	0.590328
	H10	H	0.848360	0.297002	0.587907
	H11	H	0.175220	0.295482	0.387473
	H12	H	0.847167	0.415597	0.700433
	H13	H	0.175794	0.609151	0.703235
	H14	H	0.848184	0.610824	0.274583
	H15	H	0.175587	0.411217	0.273156
	H16	H	0.412279	0.726639	0.823862
	H17	H	0.612809	0.725228	0.151472
	H18	H	0.612472	0.295492	0.824825
	H19	H	0.415260	0.297157	0.152552
	H20	H	0.729231	0.848170	0.389850
	H21	H	0.726012	0.175723	0.585972
	H22	H	0.298853	0.847775	0.588792
	H23	H	0.296764	0.175656	0.389177
	H24	H	0.913163	0.348227	0.204590
	H25	H	0.111162	0.673496	0.204207
	H26	H	0.110733	0.347938	0.773149
	H27	H	0.912321	0.674713	0.773797
	H28	H	0.227703	0.912856	0.324712
	H29	H	0.227868	0.110438	0.653239
	H30	H	0.798159	0.111857	0.324669
	H31	H	0.800373	0.914049	0.653075
	H32	H	0.349392	0.227924	0.888180
	H33	H	0.676414	0.224837	0.087674
	H34	H	0.349327	0.797195	0.088448
	H35	H	0.675927	0.794809	0.888337
	H36	H	0.348716	0.915044	0.202143
	H37	H	0.676515	0.108859	0.201650
	H38	H	0.348625	0.109765	0.774017
	H39	H	0.677581	0.912934	0.775805
	H40	H	0.913625	0.226522	0.325008
	H41	H	0.113379	0.227620	0.652706
	H42	H	0.115691	0.794635	0.326030
	H43	H	0.914018	0.796914	0.652793
	H44	H	0.227374	0.347123	0.888904
	H45	H	0.228806	0.673084	0.089311
	H46	H	0.799720	0.347191	0.086194
	H47	H	0.796342	0.673924	0.888096
	H48	H	0.422789	0.127905	0.582547
	H49	H	0.615828	0.894556	0.576950
	H50	H	0.601025	0.125830	0.397083
	H51	H	0.421457	0.894714	0.389799
	H52	H	0.601027	0.410771	0.105982
	H53	H	0.608839	0.601500	0.870193
	H54	H	0.418116	0.609507	0.107456
	H55	H	0.423031	0.416940	0.871569
	H56	H	0.127056	0.599117	0.399874
	H57	H	0.894362	0.602121	0.587970
	H58	H	0.127961	0.424174	0.585855
	H59	H	0.895297	0.419854	0.394025
	H60	H	0.130775	0.411195	0.581298
	H61	H	0.892957	0.614812	0.578917
	H62	H	0.131137	0.602144	0.389622
	H63	H	0.894816	0.416848	0.396987
	H64	H	0.417136	0.598560	0.104023
	H65	H	0.600783	0.601771	0.872185
	H66	H	0.615355	0.416601	0.108487
	H67	H	0.417345	0.416814	0.869609
	H68	H	0.611388	0.128185	0.397917
	H69	H	0.608564	0.892159	0.591108
	H70	H	0.421301	0.125043	0.576109
	H71	H	0.425177	0.899235	0.399302
	H72	H	0.922058	0.627029	0.082763
	H73	H	0.104981	0.396158	0.074791
	H74	H	0.105572	0.628558	0.893115
	H75	H	0.923384	0.396448	0.897992
	H76	H	0.102508	0.912489	0.606723
	H77	H	0.104748	0.094955	0.375648
	H78	H	0.926206	0.100436	0.603285
	H79	H	0.920968	0.923785	0.372774
	H80	H	0.632770	0.110034	0.891218
	H81	H	0.395238	0.105762	0.083762
	H82	H	0.629064	0.919389	0.077390
	H83	H	0.394118	0.914769	0.892927
	H84	H	0.630010	0.919084	0.083557
	H85	H	0.394987	0.107888	0.079008
	H86	H	0.627662	0.105431	0.903328
	H87	H	0.397156	0.917949	0.900670
	H88	H	0.920908	0.113467	0.608411
	H89	H	0.096711	0.110845	0.372896
	H90	H	0.112956	0.919448	0.607928
	H91	H	0.926544	0.919236	0.372802
	H92	H	0.102672	0.626546	0.896765
	H93	H	0.111984	0.391827	0.082665
	H94	H	0.919750	0.625695	0.077470
	H95	H	0.912708	0.392079	0.895332
	H96	H	0.417224	0.128581	0.580806
	H97	H	0.600085	0.897789	0.577717
	H98	H	0.605981	0.129723	0.388793
	H99	H	0.414861	0.894515	0.398511
	H100	H	0.604816	0.424840	0.103754
	H101	H	0.604501	0.608339	0.869172
	H102	H	0.426824	0.604032	0.101854
	H103	H	0.420435	0.421103	0.871713
	H104	H	0.130738	0.609707	0.398402
	H105	H	0.899205	0.601422	0.573718
	H106	H	0.125813	0.421107	0.572318
	H107	H	0.896827	0.420527	0.399040
	H108	H	0.916199	0.628398	0.081400
	H109	H	0.101548	0.394208	0.085061
	H110	H	0.107401	0.627322	0.897059
	H111	H	0.920771	0.392764	0.887423
	H112	H	0.102343	0.924812	0.603442
	H113	H	0.113764	0.107960	0.368465
	H114	H	0.911818	0.102144	0.607538
	H115	H	0.920234	0.916858	0.370874
	H116	H	0.628281	0.097006	0.892217
	H117	H	0.396315	0.102876	0.079083
	H118	H	0.630415	0.914011	0.080000
	H119	H	0.396878	0.924036	0.893822
	C120	C	0.391791	0.019439	0.609566
	C121	C	0.635593	1.003229	0.610280
	C122	C	0.635585	0.019890	0.365951
	C123	C	0.391315	1.004062	0.366882
	C124	C	0.635045	0.389065	-0.002882
	C125	C	0.634341	0.632312	0.978826
	C126	C	0.390938	0.632800	-0.003937
	C127	C	0.391933	0.389710	0.979684
	C128	C	0.021285	0.633306	0.366888
	C129	C	1.003998	0.633522	0.609688
	C130	C	0.020189	0.390318	0.609483
	C131	C	1.003531	0.389760	0.367138
	C132	C	0.891136	0.519317	0.109392
	C133	C	0.134602	0.501928	0.110253
	C134	C	0.134422	0.519534	0.866058
	C135	C	0.889943	0.502082	0.865324
	C136	C	0.135385	0.889847	0.497657
	C137	C	0.134368	0.133324	0.480440
	C138	C	0.891387	0.133879	0.497546
	C139	C	0.892907	0.890596	0.480393
	C140	C	0.521396	0.133218	0.866419
	C141	C	0.503970	0.133102	0.109307
	C142	C	0.521454	0.889587	0.109694
	C143	C	0.504095	0.890099	0.866914
	C144	C	0.394604	0.896648	0.665532
	C145	C	0.632007	0.126480	0.665042
	C146	C	0.633440	0.896802	0.311179
	C147	C	0.393083	0.127024	0.311267
	C148	C	0.688843	0.391864	0.872743
	C149	C	0.689592	0.629553	0.102560
	C150	C	0.335687	0.630192	0.872826
	C151	C	0.336547	0.391256	0.103251
	C152	C	0.898616	0.690274	0.368612
	C153	C	0.127240	0.688198	0.609414
	C154	C	0.897094	0.335442	0.607550
	C155	C	0.126381	0.333609	0.368061
	C156	C	0.896497	0.394158	0.663574
	C157	C	0.126983	0.630115	0.665619
	C158	C	0.897699	0.631370	0.311938
	C159	C	0.126615	0.391185	0.311186
	C160	C	0.392451	0.688523	0.872871
	C161	C	0.632711	0.687492	0.102472
	C162	C	0.632398	0.333782	0.873664
	C163	C	0.394499	0.334727	0.103474
	C164	C	0.691535	0.897009	0.368907
	C165	C	0.688877	0.126918	0.606724
	C166	C	0.336695	0.896735	0.608314
	C167	C	0.335151	0.126764	0.368973
	C168	C	0.893260	0.396573	0.165780
	C169	C	0.131843	0.624873	0.166039
	C170	C	0.131828	0.396623	0.810796
	C171	C	0.892356	0.625680	0.811309
	C172	C	0.190440	0.892103	0.374093
	C173	C	0.189597	0.130564	0.604443
	C174	C	0.835917	0.132047	0.373730
	C175	C	0.837829	0.893460	0.603928
	C176	C	0.398216	0.189132	0.868437
	C177	C	0.627513	0.187027	0.107106
	C178	C	0.398103	0.834974	0.108306
	C179	C	0.627417	0.833641	0.868797
	C180	C	0.398067	0.893418	0.165029
	C181	C	0.627523	0.129539	0.164022
	C182	C	0.397765	0.130661	0.811465
	C183	C	0.628073	0.892375	0.812797
	C184	C	0.893235	0.188982	0.373810
	C185	C	0.132824	0.188843	0.604012
	C186	C	0.134531	0.833458	0.374584
	C187	C	0.894590	0.835382	0.603806
	C188	C	0.189792	0.396291	0.868372
	C189	C	0.190252	0.624558	0.108857
	C190	C	0.836600	0.396254	0.107143
	C191	C	0.834458	0.625209	0.867941
	C192	C	0.413880	0.105033	0.586538
	C193	C	0.614509	0.917044	0.588461
	C194	C	0.612744	0.105761	0.388087
	C195	C	0.413927	0.918225	0.389143
	C196	C	0.613410	0.410986	0.083769
	C197	C	0.611623	0.610315	0.892668
	C198	C	0.414023	0.610625	0.082308
	C199	C	0.413805	0.411653	0.893307
	C200	C	0.107269	0.610244	0.389211
	C201	C	0.917876	0.612301	0.586849
	C202	C	0.106042	0.412480	0.586697
	C203	C	0.917764	0.412512	0.389981
	C204	C	0.912994	0.604911	0.087147
	C205	C	0.112550	0.416308	0.087661
	C206	C	0.111765	0.605404	0.888882
	C207	C	0.912314	0.415953	0.887074
	C208	C	0.112539	0.912358	0.583723
	C209	C	0.111830	0.111125	0.394599
	C210	C	0.913233	0.111764	0.583856
	C211	C	0.915816	0.913339	0.394313
	C212	C	0.607484	0.110708	0.888845
	C213	C	0.417714	0.111811	0.087138
	C214	C	0.607436	0.911146	0.087081
	C215	C	0.418269	0.912428	0.889193
	Zn216	Zn	0.513437	0.011350	0.738377
	Zn217	Zn	0.513071	0.011792	0.237957
	Zn218	Zn	0.762652	0.510679	-0.012782
	Zn219	Zn	0.263151	0.510417	-0.012072
	Zn220	Zn	0.013910	0.761934	0.489090
	Zn221	Zn	0.012102	0.261359	0.488674
	Zn222	Zn	0.012025	0.512017	0.737872
	Zn223	Zn	0.012217	0.511186	0.239077
	Zn224	Zn	0.512538	0.760984	-0.012117
	Zn225	Zn	0.512933	0.261530	-0.011697
	Zn226	Zn	0.764529	0.012131	0.488826
	Zn227	Zn	0.262561	0.011696	0.489193
	N228	N	0.428506	0.973880	0.666165
	N229	N	0.599532	0.048634	0.667282
	N230	N	0.599351	0.974223	0.309328
	N231	N	0.427413	0.049652	0.309853
	N232	N	0.690720	0.425608	0.950592
	N233	N	0.690670	0.596095	0.024634
	N234	N	0.334877	0.596188	0.950528
	N235	N	0.335083	0.424967	0.025244
	N236	N	0.976439	0.691480	0.402025
	N237	N	0.049794	0.690354	0.575302
	N238	N	0.975046	0.332902	0.574513
	N239	N	0.048923	0.332672	0.402392
	N240	N	0.974063	0.427557	0.664973
	N241	N	0.049351	0.596678	0.666035
	N242	N	0.975181	0.596969	0.310649
	N243	N	0.049205	0.425543	0.310532
	N244	N	0.426368	0.690111	0.950666
	N245	N	0.598956	0.689516	0.024596
	N246	N	0.599741	0.331944	0.951908
	N247	N	0.428291	0.333650	0.025739
	N248	N	0.693013	0.974716	0.402143
	N249	N	0.691125	0.049252	0.573454
	N250	N	0.334866	0.974129	0.574341
	N251	N	0.333856	0.049302	0.402749
	N252	N	0.926493	0.474079	0.167360
	N253	N	0.098117	0.547624	0.167088
	N254	N	0.098138	0.474130	0.809372
	N255	N	0.926479	0.548276	0.809904
	N256	N	0.191045	0.926451	0.451595
	N257	N	0.190546	0.096692	0.526840
	N258	N	0.834678	0.098500	0.451638
	N259	N	0.836803	0.927265	0.526087
	N260	N	0.476032	0.190945	0.901652
	N261	N	0.549755	0.189286	0.073658
	N262	N	0.475875	0.832220	0.074721
	N263	N	0.549450	0.832062	0.901973
	N264	N	0.475907	0.926523	0.165981
	N265	N	0.549787	0.096603	0.165593
	N266	N	0.475502	0.096734	0.810057
	N267	N	0.550629	0.926642	0.811401
	N268	N	0.927150	0.190053	0.451641
	N269	N	0.099170	0.190876	0.526020
	N270	N	0.100856	0.832045	0.452458
	N271	N	0.927988	0.833507	0.525843
	N272	N	0.191700	0.473930	0.901867
	N273	N	0.192199	0.547071	0.075068
	N274	N	0.835303	0.473314	0.072728
	N275	N	0.832715	0.547303	0.900786
	O276	O	1.002539	0.979595	-0.026768
	H277	H	1.011033	0.982801	-0.030192
	H278	H	1.005148	0.988250	-0.022806
	O279	O	-0.065643	-0.066923	1.051037
	H280	H	-0.072168	-0.069208	1.046223
	H281	H	-0.066743	-0.074345	1.040644
	O282	O	0.553801	-0.490821	0.472376
	H283	H	0.549684	-0.484621	0.474403
	H284	H	0.550763	-0.505719	0.477333
	O285	O	0.461108	0.599179	0.526803
	H286	H	0.452908	0.605655	0.520239
	H287	H	0.472617	0.597065	0.524275
	O288	O	-0.022005	-0.012628	0.072212
	H289	H	-0.028096	-0.025222	0.062582
	H290	H	-0.024087	-0.014022	0.078581
	O291	O	0.072588	0.965595	-0.074274
	H292	H	0.081707	0.966138	-0.078795
	H293	H	0.076434	0.966289	-0.068858
	O294	O	-0.507636	0.500024	-0.446017
	H295	H	-0.499760	0.495645	-0.446164
	H296	H	-0.514385	0.503954	-0.447515
	O297	O	0.499756	0.468853	0.475071
	H298	H	0.498524	0.470260	0.483247
	H299	H	0.488819	0.462755	0.475708
	O300	O	0.470759	0.433850	0.502353
	H301	H	0.459769	0.433663	0.499914
	H302	H	0.477941	0.432815	0.506632
	O303	O	1.034817	0.010633	1.021316
	H304	H	1.033518	0.001584	1.025513
	H305	H	1.033875	0.010027	1.017605
	O306	O	-0.015055	1.016941	0.979433
	H307	H	-0.011277	1.014890	0.987998
	H308	H	-0.021742	1.011706	0.988524
	O309	O	-0.601267	0.530098	1.461753
	H310	H	-0.598205	0.541806	1.457017
	H311	H	-0.602267	0.523087	1.452268
	O312	O	0.009789	-0.000297	1.017169
	H313	H	0.005999	-0.004649	1.024183
	H314	H	0.014534	0.000545	1.025977
	O315	O	0.451856	0.537193	0.545568
	H316	H	0.453619	0.542069	0.551504
	H317	H	0.461985	0.537003	0.546454
	O318	O	0.002772	0.014531	0.930155
	H319	H	0.000622	0.020023	0.942379
	H320	H	0.006106	0.010903	0.936968
	O321	O	0.974012	0.953112	1.040506
	H322	H	0.961787	0.946652	1.043930
	H323	H	0.974844	0.953487	1.039335
	O324	O	-0.008205	-1.083935	1.062029
	H325	H	-0.013422	-1.083459	1.045755
	H326	H	-0.008104	-1.084561	1.067280
	O327	O	0.933120	0.975188	0.929011
	H328	H	0.935996	0.977525	0.915437
	H329	H	0.933884	0.982794	0.931930
	O330	O	0.445766	0.618727	0.424717
	H331	H	0.447280	0.616576	0.423432
	H332	H	0.443597	0.624159	0.420362
	O333	O	0.548027	0.479064	0.548285
	H334	H	0.557154	0.477241	0.554442
	H335	H	0.542488	0.482615	0.550685
	O336	O	0.394697	0.456381	0.534047
	H337	H	0.377641	0.464647	0.527692
	H338	H	0.380216	0.461650	0.533654
	O339	O	0.411297	0.504969	0.414636
	H340	H	0.418448	0.503256	0.401445
	H341	H	0.396412	0.507069	0.420620
	O342	O	0.492382	0.518147	0.417253
	H343	H	0.496946	0.510093	0.413136
	H344	H	0.495105	0.510421	0.427435
	O345	O	0.529246	0.526257	0.489496
	H346	H	0.529399	0.523120	0.483922
	H347	H	0.523886	0.517308	0.499990
