data_Molecule from HDF5

_cell_length_a		16.212480
_cell_length_b		16.293615
_cell_length_c		16.240276
_cell_angle_alpha	90.156900
_cell_angle_beta	89.907528
_cell_angle_gamma	89.711364
_symmetry_space_group_name_H-M	'P 1'
_symmetry_Int_Tables_number		1

loop_
	_symmetry_equiv_pos_as_xyz
	x,y,z

loop_
	_atom_site_label
	_atom_site_type_symbol
	_atom_site_fract_x
	_atom_site_fract_y
	_atom_site_fract_z
	H0	H	0.401981	0.835783	0.710959
	H1	H	0.600188	0.162721	0.712559
	H2	H	0.601324	0.835658	0.280901
	H3	H	0.399420	0.162104	0.280723
	H4	H	0.718103	0.397863	0.832096
	H5	H	0.713646	0.597982	0.160049
	H6	H	0.286321	0.599129	0.832402
	H7	H	0.286316	0.402453	0.159255
	H8	H	0.836227	0.715207	0.398310
	H9	H	0.163740	0.715434	0.597332
	H10	H	0.836804	0.285863	0.597707
	H11	H	0.163913	0.281922	0.394084
	H12	H	0.837354	0.402778	0.712600
	H13	H	0.164458	0.600395	0.711007
	H14	H	0.837653	0.599930	0.282421
	H15	H	0.165275	0.400061	0.281922
	H16	H	0.400869	0.715190	0.832726
	H17	H	0.601667	0.715885	0.158443
	H18	H	0.603921	0.280731	0.833136
	H19	H	0.400960	0.285913	0.159497
	H20	H	0.717308	0.836290	0.394735
	H21	H	0.714860	0.163288	0.594814
	H22	H	0.285089	0.836518	0.596224
	H23	H	0.283486	0.162314	0.396493
	H24	H	0.902343	0.336808	0.211545
	H25	H	0.098710	0.663836	0.211091
	H26	H	0.103226	0.338659	0.779070
	H27	H	0.900851	0.664121	0.782922
	H28	H	0.215853	0.899526	0.332856
	H29	H	0.215335	0.098780	0.660295
	H30	H	0.785791	0.098097	0.331048
	H31	H	0.786396	0.902928	0.659481
	H32	H	0.337452	0.216042	0.895001
	H33	H	0.665159	0.214324	0.096298
	H34	H	0.337530	0.786114	0.094968
	H35	H	0.665245	0.783458	0.895377
	H36	H	0.337299	0.901114	0.210556
	H37	H	0.665633	0.097397	0.210448
	H38	H	0.337014	0.099332	0.781529
	H39	H	0.665398	0.899939	0.781229
	H40	H	0.899467	0.216728	0.332084
	H41	H	0.100565	0.216141	0.659419
	H42	H	0.101189	0.783544	0.333200
	H43	H	0.900149	0.786508	0.659703
	H44	H	0.217660	0.337552	0.895851
	H45	H	0.214612	0.663985	0.096003
	H46	H	0.786756	0.336837	0.095093
	H47	H	0.785331	0.663562	0.898262
	H48	H	0.404922	0.118967	0.596094
	H49	H	0.601524	0.880204	0.592012
	H50	H	0.593125	0.115917	0.402113
	H51	H	0.402906	0.881029	0.402856
	H52	H	0.593726	0.414662	0.110005
	H53	H	0.590582	0.592045	0.879451
	H54	H	0.404146	0.597092	0.114878
	H55	H	0.407831	0.405275	0.878191
	H56	H	0.121669	0.602497	0.400989
	H57	H	0.882234	0.601414	0.586703
	H58	H	0.118801	0.398905	0.582690
	H59	H	0.884608	0.404329	0.410354
	H60	H	0.113240	0.416388	0.581113
	H61	H	0.886630	0.588021	0.584836
	H62	H	0.115563	0.592237	0.414700
	H63	H	0.885897	0.415927	0.403595
	H64	H	0.407224	0.588554	0.111960
	H65	H	0.595273	0.593984	0.877677
	H66	H	0.586366	0.403245	0.111113
	H67	H	0.408856	0.410013	0.879143
	H68	H	0.590621	0.115297	0.403144
	H69	H	0.587606	0.884132	0.593138
	H70	H	0.415654	0.112386	0.587784
	H71	H	0.412596	0.882860	0.397671
	H72	H	0.909151	0.617665	0.095984
	H73	H	0.091201	0.384918	0.089505
	H74	H	0.098292	0.618395	0.907088
	H75	H	0.912239	0.383527	0.896911
	H76	H	0.090273	0.910257	0.611558
	H77	H	0.095400	0.086716	0.380236
	H78	H	0.904313	0.094359	0.612920
	H79	H	0.901269	0.901734	0.374925
	H80	H	0.620537	0.094507	0.898651
	H81	H	0.385551	0.093903	0.086208
	H82	H	0.622807	0.902555	0.096992
	H83	H	0.386134	0.901963	0.917112
	H84	H	0.617547	0.900076	0.079376
	H85	H	0.384981	0.091047	0.088696
	H86	H	0.616502	0.093736	0.911486
	H87	H	0.386987	0.920530	0.899181
	H88	H	0.908764	0.090139	0.610573
	H89	H	0.086218	0.091007	0.381540
	H90	H	0.091450	0.903060	0.613723
	H91	H	0.908150	0.915724	0.381189
	H92	H	0.093206	0.618242	0.898079
	H93	H	0.095500	0.384305	0.084570
	H94	H	0.909579	0.614497	0.085748
	H95	H	0.915718	0.387168	0.909084
	H96	H	0.402891	0.114947	0.582005
	H97	H	0.594976	0.885451	0.580680
	H98	H	0.593347	0.115297	0.404903
	H99	H	0.412083	0.885555	0.408906
	H100	H	0.600101	0.403947	0.114680
	H101	H	0.595412	0.588706	0.879125
	H102	H	0.412970	0.595781	0.113084
	H103	H	0.412530	0.406318	0.879455
	H104	H	0.118088	0.585096	0.397989
	H105	H	0.881808	0.592575	0.596783
	H106	H	0.119971	0.410091	0.596815
	H107	H	0.881410	0.405037	0.397530
	H108	H	0.900879	0.618969	0.090690
	H109	H	0.096834	0.382478	0.091682
	H110	H	0.089133	0.615490	0.907470
	H111	H	0.903419	0.383225	0.907229
	H112	H	0.097043	0.908771	0.614839
	H113	H	0.094399	0.096002	0.377733
	H114	H	0.910153	0.096066	0.612226
	H115	H	0.917138	0.901464	0.379434
	H116	H	0.615227	0.082786	0.903184
	H117	H	0.383272	0.094700	0.089773
	H118	H	0.615315	0.916607	0.087622
	H119	H	0.378110	0.896597	0.893135
	C120	C	0.379472	0.007498	0.617645
	C121	C	0.622986	0.991354	0.617640
	C122	C	0.622239	0.007419	0.374041
	C123	C	0.379040	0.990637	0.374077
	C124	C	0.623557	0.377189	0.004190
	C125	C	0.622387	0.620803	0.986792
	C126	C	0.379299	0.621967	0.004948
	C127	C	0.380214	0.378735	0.986919
	C128	C	0.009852	0.622227	0.375716
	C129	C	0.991630	0.622956	0.618493
	C130	C	0.009243	0.379489	0.617302
	C131	C	0.992339	0.378622	0.374370
	C132	C	0.878318	0.508979	0.119244
	C133	C	0.123102	0.492020	0.117825
	C134	C	0.123235	0.509490	0.874433
	C135	C	0.880247	0.492172	0.875469
	C136	C	0.122419	0.878034	0.505350
	C137	C	0.121716	0.120734	0.487926
	C138	C	0.878405	0.122285	0.503760
	C139	C	0.879589	0.878720	0.486906
	C140	C	0.509162	0.120488	0.874770
	C141	C	0.492859	0.121699	0.118261
	C142	C	0.510191	0.878206	0.116686
	C143	C	0.492506	0.877452	0.873950
	C144	C	0.381648	0.884703	0.673102
	C145	C	0.620359	0.113936	0.674013
	C146	C	0.620897	0.884745	0.318588
	C147	C	0.379705	0.113464	0.318462
	C148	C	0.680104	0.378203	0.880962
	C149	C	0.676668	0.618740	0.110626
	C150	C	0.323993	0.619588	0.881399
	C151	C	0.324007	0.381262	0.110208
	C152	C	0.885865	0.677475	0.378138
	C153	C	0.114937	0.677982	0.617108
	C154	C	0.886028	0.323734	0.616979
	C155	C	0.115390	0.321287	0.375352
	C156	C	0.886193	0.381970	0.674022
	C157	C	0.115225	0.620705	0.673704
	C158	C	0.886309	0.620075	0.320565
	C159	C	0.116163	0.379996	0.319442
	C160	C	0.381200	0.676915	0.881413
	C161	C	0.620886	0.677187	0.109893
	C162	C	0.623330	0.319926	0.881486
	C163	C	0.381299	0.323812	0.110347
	C164	C	0.678741	0.884957	0.375391
	C165	C	0.677461	0.114446	0.615660
	C166	C	0.323650	0.885030	0.616036
	C167	C	0.322324	0.113602	0.376346
	C168	C	0.881910	0.385711	0.173621
	C169	C	0.119868	0.614950	0.173230
	C170	C	0.122522	0.387086	0.817786
	C171	C	0.880942	0.615165	0.820587
	C172	C	0.177903	0.879574	0.381722
	C173	C	0.177346	0.118822	0.611211
	C174	C	0.823186	0.119453	0.380254
	C175	C	0.824132	0.882121	0.610656
	C176	C	0.386489	0.177341	0.875793
	C177	C	0.616017	0.176599	0.116453
	C178	C	0.386501	0.823621	0.115220
	C179	C	0.616327	0.822017	0.875784
	C180	C	0.386515	0.880805	0.172636
	C181	C	0.616290	0.118487	0.173289
	C182	C	0.386132	0.119047	0.819321
	C183	C	0.616232	0.879842	0.818870
	C184	C	0.879738	0.178242	0.380805
	C185	C	0.120629	0.177478	0.610751
	C186	C	0.121088	0.821976	0.381903
	C187	C	0.880544	0.824148	0.610626
	C188	C	0.179336	0.386417	0.876196
	C189	C	0.177722	0.614825	0.116132
	C190	C	0.824215	0.385761	0.115759
	C191	C	0.823366	0.614768	0.877678
	C192	C	0.401419	0.093188	0.595306
	C193	C	0.601104	0.905448	0.595112
	C194	C	0.599032	0.093426	0.396735
	C195	C	0.402270	0.905245	0.396482
	C196	C	0.600256	0.400503	0.089696
	C197	C	0.600217	0.598104	0.900929
	C198	C	0.401639	0.600202	0.090870
	C199	C	0.403060	0.400699	0.901347
	C200	C	0.096249	0.599770	0.397835
	C201	C	0.905738	0.600689	0.596007
	C202	C	0.094923	0.401784	0.593913
	C203	C	0.906323	0.401655	0.397148
	C204	C	0.900080	0.594792	0.097304
	C205	C	0.101075	0.406074	0.095233
	C206	C	0.100278	0.595376	0.897428
	C207	C	0.903652	0.406659	0.897801
	C208	C	0.099808	0.900702	0.590939
	C209	C	0.098773	0.097942	0.402127
	C210	C	0.901152	0.100005	0.589514
	C211	C	0.902085	0.900207	0.400833
	C212	C	0.595445	0.097262	0.897867
	C213	C	0.406860	0.099568	0.095104
	C214	C	0.596257	0.899929	0.094430
	C215	C	0.406152	0.899779	0.896533
	Zn216	Zn	0.500592	-0.000946	0.746436
	Zn217	Zn	0.501223	-0.000789	0.245711
	Zn218	Zn	0.751105	0.499817	-0.004386
	Zn219	Zn	0.251701	0.500603	-0.004109
	Zn220	Zn	0.000915	0.750550	0.497148
	Zn221	Zn	0.000597	0.250556	0.496006
	Zn222	Zn	0.001415	0.501469	0.746118
	Zn223	Zn	0.001643	0.500461	0.247041
	Zn224	Zn	0.501158	0.749387	-0.004511
	Zn225	Zn	0.501038	0.249764	-0.004270
	Zn226	Zn	0.750805	-0.000410	0.495072
	Zn227	Zn	0.250461	-0.001070	0.495986
	N228	N	0.415788	0.961892	0.674107
	N229	N	0.587398	0.036196	0.675532
	N230	N	0.586566	0.962298	0.317589
	N231	N	0.414263	0.036086	0.317020
	N232	N	0.680633	0.412887	0.958530
	N233	N	0.677708	0.584124	0.033319
	N234	N	0.322645	0.586167	0.959109
	N235	N	0.323114	0.414750	0.032622
	N236	N	0.963772	0.678769	0.411655
	N237	N	0.037247	0.679664	0.583565
	N238	N	0.963612	0.321984	0.582476
	N239	N	0.037385	0.320262	0.408783
	N240	N	0.963681	0.415864	0.674631
	N241	N	0.037471	0.587043	0.674859
	N242	N	0.964238	0.586192	0.318950
	N243	N	0.038555	0.414788	0.318622
	N244	N	0.414679	0.678697	0.959193
	N245	N	0.587617	0.678653	0.031885
	N246	N	0.589077	0.319123	0.958900
	N247	N	0.415394	0.321952	0.032656
	N248	N	0.679470	0.962359	0.409452
	N249	N	0.679442	0.037164	0.581566
	N250	N	0.321990	0.962379	0.582350
	N251	N	0.321496	0.036197	0.409993
	N252	N	0.914558	0.463402	0.176145
	N253	N	0.086710	0.537380	0.174592
	N254	N	0.088420	0.464621	0.816762
	N255	N	0.915748	0.537942	0.819153
	N256	N	0.178937	0.913776	0.459226
	N257	N	0.178294	0.084648	0.533656
	N258	N	0.822038	0.085524	0.457778
	N259	N	0.823417	0.915510	0.532800
	N260	N	0.464209	0.178183	0.909783
	N261	N	0.538110	0.178933	0.082827
	N262	N	0.464351	0.821788	0.081179
	N263	N	0.538262	0.820181	0.909103
	N264	N	0.464393	0.914033	0.173783
	N265	N	0.538602	0.085148	0.174397
	N266	N	0.463741	0.084531	0.818584
	N267	N	0.538341	0.913703	0.817775
	N268	N	0.913192	0.180212	0.458706
	N269	N	0.086559	0.178728	0.533247
	N270	N	0.087167	0.820976	0.459630
	N271	N	0.914214	0.821860	0.532840
	N272	N	0.179796	0.463668	0.910717
	N273	N	0.179760	0.537306	0.082416
	N274	N	0.821896	0.463408	0.082818
	N275	N	0.822793	0.537253	0.911109
	O276	O	0.007823	0.032080	-0.039571
	H277	H	0.006866	0.025626	-0.038038
	H278	H	0.018861	0.042395	-0.032989
	O279	O	0.473780	0.567267	0.469870
	H280	H	0.468350	0.573234	0.461098
	H281	H	0.478531	0.558099	0.483893
	O282	O	0.399746	0.475022	0.503040
	H283	H	0.402387	0.479908	0.489695
	H284	H	0.400983	0.456339	0.511419
	O285	O	1.043815	-0.029168	1.025799
	H286	H	1.045374	-0.022368	1.032337
	H287	H	1.041505	-0.023389	1.027408
	O288	O	0.934411	0.087781	-0.002544
	H289	H	0.953333	0.081782	-0.011687
	H290	H	0.937558	0.091881	-0.004557
	O291	O	0.538106	0.577597	0.537161
	H292	H	0.529827	0.586128	0.530860
	H293	H	0.540232	0.571431	0.539946
	O294	O	1.051825	0.050114	1.025987
	H295	H	1.049485	0.050669	1.024382
	H296	H	1.036454	0.054136	1.028302
	O297	O	0.020077	0.086752	0.038750
	H298	H	0.031473	0.081084	0.029638
	H299	H	0.024179	0.087916	0.034374
	O300	O	0.536464	0.516151	0.480822
	H301	H	0.529373	0.516279	0.490199
	H302	H	0.529446	0.520274	0.480213
	O303	O	0.527435	0.433020	0.418876
	H304	H	0.536070	0.434218	0.409892
	H305	H	0.521650	0.433291	0.417831
	O306	O	0.997034	0.018959	-0.082250
	H307	H	0.985727	0.016330	-0.072789
	H308	H	0.997247	0.021401	-0.080460
	O309	O	-0.032202	0.106882	0.932214
	H310	H	-0.034337	0.101104	0.930265
	H311	H	-0.033718	0.117929	0.929840
	O312	O	1.065997	1.001877	1.014231
	H313	H	1.061485	1.001616	1.011084
	H314	H	1.060373	0.998226	1.012750
	O315	O	0.479244	0.406714	0.440961
	H316	H	0.481684	0.401319	0.437437
	H317	H	0.489378	0.403292	0.444158
	O318	O	0.523017	0.407798	0.491134
	H319	H	0.535739	0.410370	0.494146
	H320	H	0.516208	0.409239	0.484712
	O321	O	0.380936	1.432545	1.547915
	H322	H	0.381164	1.421221	1.536999
	H323	H	0.375054	1.430587	1.554700
	O324	O	0.462530	0.456915	0.413454
	H325	H	0.465386	0.451150	0.394478
	H326	H	0.462981	0.451056	0.422511
	O327	O	0.602407	0.465360	0.440016
	H328	H	0.606950	0.454253	0.438044
	H329	H	0.602043	0.475810	0.434371
	O330	O	0.478756	0.404143	0.463415
	H331	H	0.487864	0.410241	0.464826
	H332	H	0.486364	0.402485	0.460322
	O333	O	0.515083	0.534159	0.501762
	H334	H	0.521630	0.528666	0.490510
	H335	H	0.503855	0.540996	0.512431
	O336	O	0.546606	0.515693	0.486299
	H337	H	0.547171	0.517458	0.487176
	H338	H	0.544058	0.518712	0.487376
	O339	O	0.962042	1.052549	-0.067274
	H340	H	0.966805	1.061715	-0.073650
	H341	H	0.951918	1.048753	-0.078860
	O342	O	0.538675	0.503286	0.534263
	H343	H	0.532086	0.498387	0.549802
	H344	H	0.555440	0.509206	0.536327
	O345	O	0.573172	0.590561	0.497206
	H346	H	0.568932	0.592647	0.490486
	H347	H	0.581985	0.589045	0.503369
	O348	O	-0.060836	0.067987	0.031279
	H349	H	-0.060029	0.065080	0.031276
	H350	H	-0.062573	0.071983	0.033312
	O351	O	0.045469	1.094602	0.975274
	H352	H	0.035378	1.092272	0.983072
	H353	H	0.046708	1.096974	0.977154
	O354	O	0.497745	0.475134	0.535373
	H355	H	0.504203	0.482573	0.526551
	H356	H	0.496871	0.470690	0.522753
	O357	O	0.092848	0.995556	0.933129
	H358	H	0.093946	0.994365	0.927693
	H359	H	0.106165	0.991123	0.930148
