data_Molecule from HDF5

_cell_length_a		16.057412
_cell_length_b		16.323036
_cell_length_c		16.321587
_cell_angle_alpha	89.632472
_cell_angle_beta	90.139850
_cell_angle_gamma	89.711419
_symmetry_space_group_name_H-M	'P 1'
_symmetry_Int_Tables_number		1

loop_
	_symmetry_equiv_pos_as_xyz
	x,y,z

loop_
	_atom_site_label
	_atom_site_type_symbol
	_atom_site_fract_x
	_atom_site_fract_y
	_atom_site_fract_z
	H0	H	0.403832	0.838618	0.713180
	H1	H	0.604896	0.163853	0.711875
	H2	H	0.606158	0.838771	0.279278
	H3	H	0.400400	0.162863	0.276331
	H4	H	0.717616	0.405458	0.830899
	H5	H	0.717571	0.595651	0.159390
	H6	H	0.289302	0.601544	0.831882
	H7	H	0.293965	0.405517	0.160243
	H8	H	0.838446	0.717278	0.394529
	H9	H	0.169680	0.713900	0.595026
	H10	H	0.838523	0.288258	0.595080
	H11	H	0.169282	0.287044	0.397151
	H12	H	0.839062	0.401728	0.709971
	H13	H	0.169801	0.598159	0.708643
	H14	H	0.839924	0.603197	0.278769
	H15	H	0.169826	0.402547	0.283854
	H16	H	0.403112	0.719929	0.832969
	H17	H	0.607137	0.717031	0.157623
	H18	H	0.606758	0.284763	0.832462
	H19	H	0.404464	0.284067	0.157289
	H20	H	0.718807	0.837922	0.399201
	H21	H	0.716186	0.165638	0.591213
	H22	H	0.292723	0.836695	0.592220
	H23	H	0.291056	0.165140	0.397648
	H24	H	0.905072	0.338564	0.213146
	H25	H	0.104995	0.664159	0.211514
	H26	H	0.106468	0.338844	0.781184
	H27	H	0.900851	0.663598	0.776378
	H28	H	0.216413	0.905939	0.330281
	H29	H	0.217126	0.095734	0.659795
	H30	H	0.788042	0.102038	0.331928
	H31	H	0.792455	0.904387	0.659535
	H32	H	0.339375	0.216182	0.895659
	H33	H	0.670189	0.212476	0.093503
	H34	H	0.339429	0.785969	0.095463
	H35	H	0.669425	0.788445	0.897611
	H36	H	0.338000	0.903088	0.207516
	H37	H	0.668539	0.099420	0.210228
	H38	H	0.339474	0.102010	0.780320
	H39	H	0.669363	0.901797	0.783233
	H40	H	0.900870	0.221591	0.333928
	H41	H	0.105345	0.216364	0.658563
	H42	H	0.104409	0.785949	0.332443
	H43	H	0.904066	0.785121	0.657491
	H44	H	0.217785	0.337657	0.901458
	H45	H	0.216261	0.666077	0.090649
	H46	H	0.793702	0.336965	0.092370
	H47	H	0.791232	0.665773	0.897911
	H48	H	0.400552	0.121414	0.590907
	H49	H	0.593832	0.884593	0.596365
	H50	H	0.605928	0.119997	0.404159
	H51	H	0.412920	0.886247	0.406799
	H52	H	0.593458	0.409332	0.109085
	H53	H	0.588934	0.594803	0.881798
	H54	H	0.420302	0.600541	0.111419
	H55	H	0.417883	0.413210	0.882079
	H56	H	0.119860	0.594219	0.415251
	H57	H	0.887283	0.585499	0.588082
	H58	H	0.121267	0.413230	0.589555
	H59	H	0.884184	0.410009	0.398612
	H60	H	0.125075	0.405626	0.593084
	H61	H	0.882669	0.597922	0.592888
	H62	H	0.120597	0.584615	0.398172
	H63	H	0.884649	0.406707	0.407314
	H64	H	0.404175	0.597901	0.114379
	H65	H	0.598017	0.603957	0.876651
	H66	H	0.597410	0.398345	0.112780
	H67	H	0.414529	0.400669	0.876426
	H68	H	0.590784	0.119606	0.388541
	H69	H	0.593377	0.887702	0.585468
	H70	H	0.419298	0.117230	0.595988
	H71	H	0.404751	0.881806	0.398924
	H72	H	0.916288	0.615976	0.087145
	H73	H	0.094811	0.380511	0.110248
	H74	H	0.094646	0.616300	0.904458
	H75	H	0.915914	0.388869	0.912747
	H76	H	0.096295	0.911290	0.610104
	H77	H	0.086197	0.103575	0.380349
	H78	H	0.912162	0.089332	0.609887
	H79	H	0.904423	0.909586	0.376613
	H80	H	0.623859	0.096977	0.905890
	H81	H	0.382740	0.100744	0.087732
	H82	H	0.624309	0.910399	0.096137
	H83	H	0.386797	0.911645	0.906534
	H84	H	0.623370	0.900404	0.085245
	H85	H	0.388762	0.092656	0.078369
	H86	H	0.621416	0.088783	0.904607
	H87	H	0.385641	0.912912	0.901258
	H88	H	0.916832	0.099648	0.611241
	H89	H	0.104664	0.101089	0.375655
	H90	H	0.094395	0.901197	0.612141
	H91	H	0.915591	0.915958	0.381955
	H92	H	0.100475	0.620436	0.899298
	H93	H	0.085339	0.392974	0.079666
	H94	H	0.910097	0.617370	0.084516
	H95	H	0.902254	0.381012	0.899253
	H96	H	0.413714	0.113439	0.577836
	H97	H	0.603256	0.883224	0.589806
	H98	H	0.586177	0.113063	0.408890
	H99	H	0.416425	0.883798	0.395435
	H100	H	0.605178	0.407730	0.112796
	H101	H	0.601413	0.590824	0.878764
	H102	H	0.413476	0.585605	0.108658
	H103	H	0.404052	0.411067	0.876632
	H104	H	0.125852	0.602512	0.398933
	H105	H	0.887056	0.597724	0.579102
	H106	H	0.122428	0.404892	0.585231
	H107	H	0.888163	0.415133	0.404851
	H108	H	0.911432	0.618242	0.091339
	H109	H	0.117200	0.381209	0.085107
	H110	H	0.091845	0.617951	0.896590
	H111	H	0.921817	0.385280	0.893292
	H112	H	0.103970	0.905441	0.613791
	H113	H	0.094785	0.086506	0.382679
	H114	H	0.905989	0.097478	0.614839
	H115	H	0.916379	0.902747	0.377953
	H116	H	0.624559	0.094078	0.898229
	H117	H	0.385783	0.088475	0.090655
	H118	H	0.619255	0.914026	0.083280
	H119	H	0.384400	0.908041	0.903227
	C120	C	0.382328	0.009557	0.617474
	C121	C	0.625932	0.993033	0.618063
	C122	C	0.624759	0.009835	0.373192
	C123	C	0.381669	0.991963	0.371882
	C124	C	0.627434	0.378155	0.003512
	C125	C	0.626132	0.623683	0.986817
	C126	C	0.382956	0.624141	0.003761
	C127	C	0.383540	0.379903	0.986577
	C128	C	0.013022	0.623185	0.374180
	C129	C	0.994996	0.621948	0.615954
	C130	C	0.013146	0.379766	0.617598
	C131	C	0.995129	0.381211	0.375701
	C132	C	0.883934	0.509551	0.116844
	C133	C	0.127436	0.493053	0.118995
	C134	C	0.125760	0.510093	0.873168
	C135	C	0.883167	0.493039	0.873008
	C136	C	0.126628	0.878465	0.503613
	C137	C	0.125264	0.123917	0.487401
	C138	C	0.881620	0.124914	0.504169
	C139	C	0.883254	0.880305	0.486816
	C140	C	0.513828	0.123307	0.873376
	C141	C	0.495002	0.121789	0.115318
	C142	C	0.512932	0.879588	0.116974
	C143	C	0.495511	0.881692	0.875519
	C144	C	0.384325	0.887106	0.674300
	C145	C	0.624164	0.115427	0.673198
	C146	C	0.624731	0.887233	0.318058
	C147	C	0.381636	0.114686	0.315320
	C148	C	0.681359	0.383045	0.880083
	C149	C	0.680978	0.617895	0.110030
	C150	C	0.326790	0.622333	0.880914
	C151	C	0.329678	0.383528	0.110391
	C152	C	0.888269	0.679225	0.375032
	C153	C	0.120151	0.676392	0.614756
	C154	C	0.888363	0.325236	0.615300
	C155	C	0.119792	0.325096	0.377475
	C156	C	0.888442	0.382136	0.672115
	C157	C	0.120166	0.618880	0.671337
	C158	C	0.888703	0.622260	0.317733
	C159	C	0.120301	0.382555	0.321277
	C160	C	0.383529	0.680798	0.881257
	C161	C	0.625949	0.678199	0.109292
	C162	C	0.625852	0.323487	0.880901
	C163	C	0.384988	0.323188	0.109024
	C164	C	0.681020	0.886790	0.377499
	C165	C	0.679775	0.116316	0.613587
	C166	C	0.328881	0.886153	0.614087
	C167	C	0.327027	0.115603	0.375319
	C168	C	0.885577	0.386827	0.173801
	C169	C	0.125042	0.615761	0.173443
	C170	C	0.125248	0.387409	0.819233
	C171	C	0.882630	0.615382	0.815885
	C172	C	0.180307	0.883540	0.379920
	C173	C	0.180207	0.118252	0.610444
	C174	C	0.825498	0.122925	0.381194
	C175	C	0.828964	0.883185	0.610170
	C176	C	0.389110	0.179094	0.875080
	C177	C	0.620253	0.175814	0.113883
	C178	C	0.388735	0.823926	0.115452
	C179	C	0.619657	0.825660	0.877262
	C180	C	0.388145	0.881848	0.171449
	C181	C	0.619579	0.119318	0.171618
	C182	C	0.388822	0.122110	0.818092
	C183	C	0.619825	0.882446	0.820810
	C184	C	0.881826	0.182225	0.382086
	C185	C	0.124542	0.178210	0.609986
	C186	C	0.124628	0.823860	0.381024
	C187	C	0.884694	0.823847	0.609241
	C188	C	0.180658	0.386801	0.878988
	C189	C	0.180305	0.616730	0.113334
	C190	C	0.829839	0.386285	0.114115
	C191	C	0.827845	0.616485	0.876031
	C192	C	0.404693	0.095185	0.594972
	C193	C	0.603543	0.907485	0.596833
	C194	C	0.601300	0.095315	0.394285
	C195	C	0.404631	0.906201	0.393862
	C196	C	0.605322	0.398965	0.089373
	C197	C	0.603055	0.602548	0.901161
	C198	C	0.406018	0.601519	0.089203
	C199	C	0.405719	0.402049	0.900749
	C200	C	0.099622	0.600402	0.397311
	C201	C	0.908279	0.600234	0.593381
	C202	C	0.100376	0.401480	0.595658
	C203	C	0.908225	0.404056	0.397270
	C204	C	0.906220	0.595071	0.094289
	C205	C	0.105476	0.407081	0.097931
	C206	C	0.102435	0.596143	0.893916
	C207	C	0.906432	0.407345	0.895276
	C208	C	0.104665	0.899693	0.589825
	C209	C	0.102050	0.103059	0.401836
	C210	C	0.904764	0.102213	0.589685
	C211	C	0.905634	0.902832	0.400986
	C212	C	0.600804	0.100102	0.896060
	C213	C	0.408147	0.100201	0.092346
	C214	C	0.599906	0.901750	0.094628
	C215	C	0.408133	0.904319	0.897545
	Zn216	Zn	0.504176	0.001496	0.747362
	Zn217	Zn	0.503041	0.001180	0.243857
	Zn218	Zn	0.755293	0.501099	-0.005338
	Zn219	Zn	0.254584	0.502452	-0.004566
	Zn220	Zn	0.004182	0.750314	0.495548
	Zn221	Zn	0.003808	0.253449	0.496414
	Zn222	Zn	0.004259	0.501319	0.744423
	Zn223	Zn	0.004722	0.501677	0.247313
	Zn224	Zn	0.504374	0.753186	-0.004536
	Zn225	Zn	0.505451	0.250029	-0.005368
	Zn226	Zn	0.754104	0.001782	0.495444
	Zn227	Zn	0.254311	0.000866	0.494539
	N228	N	0.416911	0.965006	0.676617
	N229	N	0.591734	0.037575	0.676504
	N230	N	0.590538	0.964763	0.315328
	N231	N	0.414704	0.036828	0.312936
	N232	N	0.682657	0.416296	0.957307
	N233	N	0.681184	0.584647	0.032667
	N234	N	0.326286	0.587815	0.958057
	N235	N	0.328736	0.418323	0.033373
	N236	N	0.966630	0.679976	0.409457
	N237	N	0.041568	0.678482	0.580930
	N238	N	0.966929	0.323920	0.582029
	N239	N	0.041036	0.324063	0.410593
	N240	N	0.967092	0.415201	0.673898
	N241	N	0.041621	0.585622	0.672204
	N242	N	0.967099	0.588234	0.316987
	N243	N	0.041798	0.416742	0.319699
	N244	N	0.417622	0.682195	0.958650
	N245	N	0.592582	0.682002	0.031764
	N246	N	0.592979	0.320356	0.958711
	N247	N	0.417782	0.320876	0.031173
	N248	N	0.681154	0.963974	0.411099
	N249	N	0.680805	0.039402	0.579996
	N250	N	0.327670	0.963068	0.579398
	N251	N	0.326914	0.038375	0.409871
	N252	N	0.918433	0.464526	0.175822
	N253	N	0.092960	0.537811	0.177119
	N254	N	0.092008	0.465227	0.815490
	N255	N	0.916305	0.537561	0.813890
	N256	N	0.181558	0.916767	0.457283
	N257	N	0.180737	0.085128	0.533122
	N258	N	0.825522	0.087679	0.457962
	N259	N	0.827975	0.917673	0.532917
	N260	N	0.467878	0.179939	0.908910
	N261	N	0.541927	0.177410	0.079517
	N262	N	0.467570	0.822076	0.082523
	N263	N	0.540996	0.825138	0.910662
	N264	N	0.466347	0.915868	0.172424
	N265	N	0.540906	0.086394	0.172713
	N266	N	0.467317	0.088276	0.816881
	N267	N	0.541450	0.916571	0.819596
	N268	N	0.915884	0.183581	0.459555
	N269	N	0.090935	0.181682	0.532466
	N270	N	0.092233	0.820485	0.459039
	N271	N	0.917806	0.822111	0.531651
	N272	N	0.181101	0.464288	0.911765
	N273	N	0.182068	0.539499	0.080427
	N274	N	0.828697	0.463378	0.079538
	N275	N	0.827935	0.539421	0.910736
	O276	O	0.007320	0.083011	-0.054325
	H277	H	-0.003313	0.089012	-0.052353
	H278	H	0.005738	0.088467	-0.062026
	O279	O	0.525799	0.494398	0.437941
	H280	H	0.518099	0.507731	0.436323
	H281	H	0.522310	0.490654	0.447512
	O282	O	0.459112	0.468971	0.490904
	H283	H	0.449536	0.464029	0.480944
	H284	H	0.455419	0.457634	0.495110
	O285	O	0.964972	-0.030798	0.969437
	H286	H	0.958846	-0.022631	0.962549
	H287	H	0.964009	-0.028071	0.960386
	O288	O	1.045271	0.004158	0.000448
	H289	H	1.043774	-0.000177	-0.003297
	H290	H	1.048263	0.008551	-0.004270
	O291	O	0.430642	0.450064	0.622826
	H292	H	0.431060	0.452653	0.611129
	H293	H	0.430030	0.444147	0.636066
	O294	O	0.929891	0.051307	0.994411
	H295	H	0.923268	0.046814	0.990459
	H296	H	0.928510	0.041704	0.995457
	O297	O	0.036018	-0.045901	0.000185
	H298	H	0.037220	-0.037089	0.001375
	H299	H	0.044866	-0.040320	-0.014010
	O300	O	0.374155	0.580551	0.372232
	H301	H	0.369244	0.580048	0.361431
	H302	H	0.376898	0.583684	0.366954
	O303	O	0.475407	0.528408	0.495817
	H304	H	0.472906	0.530623	0.500535
	H305	H	0.475155	0.528656	0.507902
	O306	O	1.021178	0.000420	0.053832
	H307	H	1.014673	0.005598	0.057607
	H308	H	1.026594	0.004541	0.058333
	O309	O	-0.064138	-0.081739	1.036898
	H310	H	-0.066398	-0.077345	1.034557
	H311	H	-0.048703	-0.075200	1.032958
	O312	O	1.073077	0.985443	0.973919
	H313	H	1.076227	0.983181	0.974435
	H314	H	1.079427	0.992195	0.974142
	O315	O	0.522167	0.495321	0.570157
	H316	H	0.514289	0.501756	0.573581
	H317	H	0.515798	0.501834	0.576613
	O318	O	0.540085	0.512614	0.503969
	H319	H	0.535814	0.521886	0.506369
	H320	H	0.534750	0.510618	0.497415
	O321	O	0.465527	1.391873	1.498797
	H322	H	0.463031	1.382568	1.502586
	H323	H	0.466694	1.384742	1.500490
	O324	O	0.450812	0.472422	0.495908
	H325	H	0.441680	0.467779	0.486908
	H326	H	0.452295	0.475499	0.487017
	O327	O	0.403304	0.502720	0.401433
	H328	H	0.425425	0.501290	0.395725
	H329	H	0.401133	0.504061	0.402902
	O330	O	0.503596	0.522328	0.481477
	H331	H	0.510291	0.521960	0.480390
	H332	H	0.501685	0.512309	0.478562
	O333	O	0.568478	0.496650	0.455532
	H334	H	0.569441	0.504949	0.458150
	H335	H	0.575128	0.489519	0.453009
	O336	O	0.473523	0.580382	0.341749
	H337	H	0.473246	0.587319	0.348107
	H338	H	0.482394	0.575527	0.335595
	O339	O	0.918821	1.123405	-0.017286
	H340	H	0.909172	1.133112	-0.021592
	H341	H	0.925349	1.125279	-0.005110
	O342	O	0.521779	0.375105	0.449177
	H343	H	0.524564	0.375043	0.447070
	H344	H	0.529603	0.365170	0.445804
	O345	O	0.560531	0.500264	0.491730
	H346	H	0.565410	0.505532	0.493830
	H347	H	0.552599	0.511438	0.485966
	O348	O	-0.078506	0.056817	0.037523
	H349	H	-0.080261	0.057357	0.041857
	H350	H	-0.080046	0.036721	0.043872
	O351	O	0.036165	0.987194	0.970474
	H352	H	0.028675	0.988601	0.975046
	H353	H	0.039142	0.981939	0.978835
	O354	O	0.542051	0.554464	0.554298
	H355	H	0.538445	0.558610	0.556347
	H356	H	0.539307	0.565550	0.545416
	O357	O	-0.009848	1.029065	1.020864
	H358	H	-0.015667	1.023581	1.026812
	H359	H	-0.013309	1.019039	1.017552
