data_Molecule from HDF5

_cell_length_a		16.609720
_cell_length_b		16.455868
_cell_length_c		16.568377
_cell_angle_alpha	90.083092
_cell_angle_beta	89.948893
_cell_angle_gamma	89.986041
_symmetry_space_group_name_H-M	'P 1'
_symmetry_Int_Tables_number		1

loop_
	_symmetry_equiv_pos_as_xyz
	x,y,z

loop_
	_atom_site_label
	_atom_site_type_symbol
	_atom_site_fract_x
	_atom_site_fract_y
	_atom_site_fract_z
	H0	H	0.391443	0.825030	0.731881
	H1	H	0.601366	0.140622	0.731410
	H2	H	0.605074	0.827047	0.286103
	H3	H	0.391922	0.139606	0.289952
	H4	H	0.720187	0.374714	0.856182
	H5	H	0.720271	0.590848	0.167404
	H6	H	0.271557	0.592559	0.856465
	H7	H	0.275507	0.379404	0.167654
	H8	H	0.837341	0.701578	0.408552
	H9	H	0.152278	0.703300	0.615322
	H10	H	0.839926	0.260549	0.615818
	H11	H	0.154213	0.265267	0.409961
	H12	H	0.839556	0.376112	0.733394
	H13	H	0.150611	0.589553	0.734097
	H14	H	0.837679	0.585896	0.291292
	H15	H	0.153184	0.380519	0.291295
	H16	H	0.390857	0.705629	0.855411
	H17	H	0.602081	0.705567	0.168265
	H18	H	0.600651	0.262549	0.852865
	H19	H	0.391785	0.262301	0.166941
	H20	H	0.720458	0.826389	0.401895
	H21	H	0.717337	0.140037	0.615846
	H22	H	0.274459	0.825680	0.617263
	H23	H	0.274080	0.138779	0.404462
	H24	H	0.891756	0.324077	0.231335
	H25	H	0.100917	0.640385	0.232736
	H26	H	0.101490	0.325793	0.789539
	H27	H	0.890253	0.639019	0.790284
	H28	H	0.219394	0.875541	0.354687
	H29	H	0.219464	0.089052	0.666488
	H30	H	0.772020	0.093131	0.355601
	H31	H	0.774311	0.877983	0.666246
	H32	H	0.338958	0.202180	0.908151
	H33	H	0.652372	0.205538	0.115468
	H34	H	0.341283	0.760339	0.118379
	H35	H	0.651869	0.761104	0.905961
	H36	H	0.341260	0.877218	0.233920
	H37	H	0.651133	0.092282	0.235072
	H38	H	0.340001	0.088110	0.789443
	H39	H	0.651322	0.877221	0.787828
	H40	H	0.892111	0.204048	0.353663
	H41	H	0.102713	0.205540	0.667297
	H42	H	0.102322	0.760276	0.353900
	H43	H	0.893583	0.763261	0.667689
	H44	H	0.217709	0.326434	0.905799
	H45	H	0.217178	0.640255	0.117922
	H46	H	0.775656	0.323708	0.115863
	H47	H	0.773381	0.638430	0.905211
	H48	H	0.401020	0.096736	0.597684
	H49	H	0.587421	0.869569	0.600114
	H50	H	0.588537	0.094232	0.427855
	H51	H	0.406669	0.869822	0.422426
	H52	H	0.587524	0.398862	0.122371
	H53	H	0.588920	0.569578	0.900180
	H54	H	0.399921	0.572051	0.125557
	H55	H	0.407169	0.398402	0.899713
	H56	H	0.106385	0.572303	0.424332
	H57	H	0.882905	0.569190	0.605758
	H58	H	0.104704	0.397972	0.596695
	H59	H	0.883167	0.395908	0.416031
	H60	H	0.108217	0.396853	0.606214
	H61	H	0.883242	0.576949	0.599018
	H62	H	0.106247	0.567969	0.419427
	H63	H	0.881422	0.386586	0.421014
	H64	H	0.407981	0.566574	0.120571
	H65	H	0.582407	0.567066	0.902384
	H66	H	0.579532	0.394997	0.120677
	H67	H	0.408523	0.390693	0.897784
	H68	H	0.585295	0.097008	0.418953
	H69	H	0.583874	0.870163	0.599936
	H70	H	0.410218	0.096485	0.605918
	H71	H	0.411247	0.870004	0.421116
	H72	H	0.904898	0.596437	0.103967
	H73	H	0.088180	0.367898	0.104511
	H74	H	0.086418	0.596517	0.922336
	H75	H	0.906786	0.368642	0.922252
	H76	H	0.087972	0.893250	0.622578
	H77	H	0.086897	0.066872	0.399542
	H78	H	0.908307	0.072760	0.622029
	H79	H	0.905355	0.896253	0.398178
	H80	H	0.610465	0.077448	0.919899
	H81	H	0.385921	0.065892	0.104150
	H82	H	0.605684	0.900529	0.097449
	H83	H	0.381770	0.888123	0.920401
	H84	H	0.609290	0.895549	0.101841
	H85	H	0.382830	0.077392	0.102700
	H86	H	0.607097	0.070807	0.924297
	H87	H	0.386776	0.896695	0.928344
	H88	H	0.905017	0.070176	0.622852
	H89	H	0.082325	0.073057	0.400797
	H90	H	0.086029	0.896642	0.621737
	H91	H	0.909873	0.895124	0.399683
	H92	H	0.080849	0.595105	0.921313
	H93	H	0.080771	0.371459	0.101405
	H94	H	0.910283	0.593368	0.100519
	H95	H	0.909425	0.370406	0.923007
	H96	H	0.411726	0.092039	0.594700
	H97	H	0.585750	0.870358	0.596808
	H98	H	0.579141	0.092327	0.425110
	H99	H	0.409969	0.871509	0.425769
	H100	H	0.586265	0.390167	0.124212
	H101	H	0.583320	0.574053	0.900490
	H102	H	0.409926	0.577208	0.124437
	H103	H	0.401338	0.393926	0.896907
	H104	H	0.108982	0.573923	0.418829
	H105	H	0.886788	0.567323	0.596496
	H106	H	0.108839	0.388798	0.599464
	H107	H	0.886365	0.395296	0.426215
	H108	H	0.903950	0.594982	0.097291
	H109	H	0.087916	0.370282	0.095512
	H110	H	0.083433	0.594098	0.926522
	H111	H	0.907408	0.370061	0.925216
	H112	H	0.083469	0.893001	0.622345
	H113	H	0.089192	0.074114	0.396893
	H114	H	0.908274	0.068509	0.620239
	H115	H	0.907065	0.891808	0.397416
	H116	H	0.608950	0.069788	0.915232
	H117	H	0.387532	0.071565	0.093779
	H118	H	0.606914	0.893533	0.095119
	H119	H	0.384650	0.900038	0.916047
	C120	C	0.374849	-0.008730	0.632294
	C121	C	0.617256	0.974450	0.631307
	C122	C	0.618345	-0.008526	0.389448
	C123	C	0.376202	0.974174	0.390362
	C124	C	0.617317	0.361211	0.019194
	C125	C	0.618101	0.604132	1.003811
	C126	C	0.374079	0.605049	0.020145
	C127	C	0.374450	0.362355	1.001992
	C128	C	0.003387	0.603662	0.389392
	C129	C	0.987444	0.604127	0.632596
	C130	C	0.004187	0.361284	0.632990
	C131	C	0.987576	0.361242	0.389728
	C132	C	0.874537	0.490349	0.132563
	C133	C	0.117193	0.474230	0.132513
	C134	C	0.116456	0.491419	0.890433
	C135	C	0.874923	0.473311	0.890889
	C136	C	0.118451	0.860872	0.519036
	C137	C	0.118307	0.104001	0.502489
	C138	C	0.874745	0.104009	0.518854
	C139	C	0.875282	0.862069	0.501936
	C140	C	0.504616	0.103936	0.889002
	C141	C	0.488533	0.104788	0.132528
	C142	C	0.504800	0.863033	0.131602
	C143	C	0.487660	0.861851	0.889285
	C144	C	0.372674	0.872733	0.692393
	C145	C	0.619719	0.092935	0.691702
	C146	C	0.622734	0.874102	0.326569
	C147	C	0.373567	0.092494	0.330110
	C148	C	0.678886	0.357573	0.902185
	C149	C	0.679197	0.608105	0.120863
	C150	C	0.313181	0.609088	0.902939
	C151	C	0.315151	0.360589	0.120501
	C152	C	0.884885	0.662617	0.389008
	C153	C	0.105041	0.663911	0.634131
	C154	C	0.886821	0.300572	0.634811
	C155	C	0.106707	0.303820	0.389709
	C156	C	0.886723	0.357842	0.693424
	C157	C	0.104243	0.607216	0.693232
	C158	C	0.884931	0.604788	0.330912
	C159	C	0.105946	0.360907	0.330811
	C160	C	0.372368	0.665612	0.902311
	C161	C	0.620444	0.665393	0.121202
	C162	C	0.619423	0.301589	0.900808
	C163	C	0.373192	0.302549	0.120015
	C164	C	0.680122	0.873735	0.384169
	C165	C	0.677301	0.092877	0.633869
	C166	C	0.314662	0.872888	0.635188
	C167	C	0.315226	0.092065	0.387191
	C168	C	0.873061	0.371422	0.191643
	C169	C	0.118914	0.593102	0.192526
	C170	C	0.119687	0.373146	0.829745
	C171	C	0.871653	0.591540	0.830194
	C172	C	0.179329	0.857359	0.401729
	C173	C	0.178912	0.107289	0.619772
	C174	C	0.813756	0.108816	0.402001
	C175	C	0.815288	0.859831	0.619956
	C176	C	0.386266	0.162742	0.888682
	C177	C	0.605350	0.165857	0.134544
	C178	C	0.387816	0.801538	0.135332
	C179	C	0.605284	0.801625	0.887529
	C180	C	0.387835	0.859403	0.193192
	C181	C	0.604890	0.109226	0.193881
	C182	C	0.386589	0.105817	0.829868
	C183	C	0.604807	0.858863	0.828583
	C184	C	0.873465	0.164446	0.401120
	C185	C	0.120885	0.165127	0.620117
	C186	C	0.121010	0.799912	0.401467
	C187	C	0.874097	0.802690	0.620477
	C188	C	0.177516	0.373394	0.887392
	C189	C	0.176846	0.592976	0.135202
	C190	C	0.814961	0.371553	0.134491
	C191	C	0.813551	0.591209	0.887327
	C192	C	0.400204	0.073539	0.606586
	C193	C	0.592667	0.891664	0.606102
	C194	C	0.592018	0.073170	0.416294
	C195	C	0.402031	0.891996	0.415762
	C196	C	0.591814	0.387212	0.101099
	C197	C	0.592291	0.577652	0.922158
	C198	C	0.398942	0.579575	0.102017
	C199	C	0.398758	0.387210	0.919504
	C200	C	0.085625	0.578633	0.413691
	C201	C	0.905574	0.578448	0.607558
	C202	C	0.085978	0.387169	0.608082
	C203	C	0.905200	0.385431	0.414181
	C204	C	0.899408	0.573268	0.107717
	C205	C	0.092686	0.391484	0.107643
	C206	C	0.090832	0.573808	0.916070
	C207	C	0.900632	0.391050	0.916278
	C208	C	0.093044	0.887016	0.601008
	C209	C	0.093223	0.078518	0.420472
	C210	C	0.900065	0.077860	0.600512
	C211	C	0.900178	0.887371	0.419885
	C212	C	0.587162	0.079625	0.912898
	C213	C	0.406717	0.078904	0.107386
	C214	C	0.586118	0.889219	0.105660
	C215	C	0.405833	0.887455	0.914557
	Zn216	Zn	0.496288	-0.016789	0.759888
	Zn217	Zn	0.497154	-0.016909	0.261823
	Zn218	Zn	0.746218	0.482044	0.012001
	Zn219	Zn	0.245216	0.483642	0.011094
	Zn220	Zn	-0.004122	0.732773	0.510272
	Zn221	Zn	-0.003512	0.232441	0.511156
	Zn222	Zn	-0.004579	0.482741	0.762227
	Zn223	Zn	-0.004465	0.482552	0.260356
	Zn224	Zn	0.496394	0.733116	0.011456
	Zn225	Zn	0.496370	0.233202	0.010036
	Zn226	Zn	0.745867	-0.017039	0.510331
	Zn227	Zn	0.247325	-0.017871	0.510656
	N228	N	0.409463	0.947432	0.690711
	N229	N	0.583175	0.018241	0.690307
	N230	N	0.585087	0.948525	0.329519
	N231	N	0.410962	0.018277	0.332121
	N232	N	0.677873	0.393899	0.976963
	N233	N	0.677812	0.570683	0.046755
	N234	N	0.313936	0.572291	0.977179
	N235	N	0.315484	0.396699	0.045801
	N236	N	0.959804	0.662354	0.424305
	N237	N	0.031211	0.662030	0.596948
	N238	N	0.960911	0.302355	0.597981
	N239	N	0.032082	0.303836	0.425492
	N240	N	0.960886	0.394699	0.692584
	N241	N	0.029988	0.570795	0.692502
	N242	N	0.959874	0.569301	0.330735
	N243	N	0.030738	0.395529	0.330416
	N244	N	0.409504	0.663415	0.976314
	N245	N	0.583023	0.662802	0.047287
	N246	N	0.581982	0.303706	0.974635
	N247	N	0.409076	0.303282	0.045332
	N248	N	0.677729	0.947754	0.422347
	N249	N	0.675973	0.018025	0.597039
	N250	N	0.315980	0.947643	0.598423
	N251	N	0.316694	0.017366	0.423870
	N252	N	0.909221	0.446312	0.190640
	N253	N	0.082444	0.518180	0.191142
	N254	N	0.082642	0.447608	0.831542
	N255	N	0.908959	0.517064	0.832174
	N256	N	0.178033	0.894287	0.476172
	N257	N	0.177603	0.070065	0.545597
	N258	N	0.814523	0.071846	0.476223
	N259	N	0.815762	0.895823	0.545341
	N260	N	0.460666	0.161856	0.924745
	N261	N	0.531651	0.163424	0.097301
	N262	N	0.461539	0.803544	0.097943
	N263	N	0.531240	0.803130	0.924126
	N264	N	0.461739	0.896868	0.191119
	N265	N	0.531081	0.071928	0.192735
	N266	N	0.461305	0.070190	0.829952
	N267	N	0.530573	0.895475	0.829412
	N268	N	0.911152	0.161546	0.474868
	N269	N	0.083924	0.163207	0.546087
	N270	N	0.083742	0.801947	0.475402
	N271	N	0.910849	0.804149	0.546149
	N272	N	0.175750	0.448103	0.924456
	N273	N	0.175863	0.518061	0.098525
	N274	N	0.815770	0.446759	0.098447
	N275	N	0.815269	0.516620	0.924244
	O276	O	1.122752	0.969239	-0.205389
	H277	H	1.097994	0.942264	-0.209099
	H278	H	1.142195	0.964196	-0.219170
	O279	O	0.532443	0.609758	0.324888
	H280	H	0.520442	0.615702	0.315285
	H281	H	0.537673	0.607552	0.327264
	O282	O	1.486003	0.274187	0.503525
	H283	H	1.486330	0.285485	0.517827
	H284	H	1.491223	0.259555	0.508199
	O285	O	0.189363	1.139600	-0.150356
	H286	H	0.172221	1.118543	-0.150272
	H287	H	0.183735	1.126069	-0.138875
	O288	O	0.889237	0.165556	1.108832
	H289	H	0.876371	0.167241	1.115551
	H290	H	0.909637	0.163598	1.098562
	O291	O	-0.190894	-0.035768	0.188856
	H292	H	-0.194368	-0.032884	0.190043
	H293	H	-0.194764	-0.033288	0.197862
	O294	O	-0.217341	0.005417	-0.145504
	H295	H	-0.213727	-0.011807	-0.123818
	H296	H	-0.222787	-0.009691	-0.150392
	O297	O	0.425130	0.487297	0.383454
	H298	H	0.436255	0.498367	0.390339
	H299	H	0.446350	0.480102	0.379503
	O300	O	-0.092980	-0.029919	0.177270
	H301	H	-0.082646	-0.013951	0.179166
	H302	H	-0.099068	-0.026726	0.178294
	O303	O	-0.181767	-0.195205	0.050733
	H304	H	-0.174863	-0.208301	0.071721
	H305	H	-0.192285	-0.207600	0.068428
	O306	O	0.114196	0.028203	0.141126
	H307	H	0.121456	0.037868	0.151390
	H308	H	0.110860	0.031598	0.134322
	O309	O	1.058899	-0.067034	-0.157184
	H310	H	1.058302	-0.069800	-0.144731
	H311	H	1.061232	-0.059744	-0.163031
	O312	O	0.532890	0.409526	0.486757
	H313	H	0.534023	0.408236	0.473667
	H314	H	0.546387	0.423630	0.487610
	O315	O	0.704113	0.608856	0.721868
	H316	H	0.711827	0.610347	0.739265
	H317	H	0.697338	0.596020	0.695150
	O318	O	1.510741	1.464599	0.534562
	H319	H	1.516325	1.454264	0.534575
	H320	H	1.518410	1.462611	0.526672
	O321	O	-0.037705	0.766959	1.236299
	H322	H	-0.052749	0.745393	1.260275
	H323	H	-0.028063	0.774085	1.236508
	O324	O	1.137306	-0.011245	1.127640
	H325	H	1.149496	-0.009497	1.138343
	H326	H	1.145162	-0.002789	1.138972
	O327	O	0.419261	0.476703	0.354105
	H328	H	0.429926	0.466138	0.349528
	H329	H	0.425279	0.489871	0.353409
	O330	O	-0.661617	1.552897	0.576491
	H331	H	-0.642367	1.547875	0.578079
	H332	H	-0.652657	1.537871	0.574917
	O333	O	0.008870	0.852037	0.926056
	H334	H	0.026933	0.841213	0.918295
	H335	H	0.012086	0.839691	0.928300
	O336	O	0.520572	1.265972	0.292136
	H337	H	0.543866	1.263797	0.294647
	H338	H	0.545317	1.245807	0.274364
	O339	O	-0.032084	1.198482	-0.204624
	H340	H	-0.035805	1.203728	-0.220601
	H341	H	-0.021328	1.207235	-0.207613
	O342	O	0.308784	0.279006	-0.278676
	H343	H	0.299628	0.289985	-0.292903
	H344	H	0.290237	0.270130	-0.268094
	O345	O	0.510843	0.615401	0.438712
	H346	H	0.501256	0.619747	0.414249
	H347	H	0.502253	0.609914	0.461398
	O348	O	0.585687	0.648941	0.542128
	H349	H	0.597119	0.641336	0.543781
	H350	H	0.581286	0.649640	0.566472
	O351	O	0.010952	-0.168438	0.997981
	H352	H	0.014958	-0.174862	1.005742
	H353	H	0.025422	-0.164508	0.995099
	O354	O	1.492326	0.414169	1.621130
	H355	H	1.495032	0.406725	1.625486
	H356	H	1.475746	0.402542	1.631738
	O357	O	-0.210504	0.181807	-0.198489
	H358	H	-0.194667	0.161244	-0.193058
	H359	H	-0.202541	0.167556	-0.182135
	O360	O	0.201233	-0.216090	0.888065
	H361	H	0.203063	-0.198961	0.882930
	H362	H	0.224400	-0.240138	0.889077
	O363	O	1.073379	0.005855	0.069787
	H364	H	1.094744	0.005959	0.067737
	H365	H	1.078098	0.008681	0.070535
	O366	O	0.997659	-0.030723	0.873213
	H367	H	0.988066	-0.025419	0.865997
	H368	H	0.999741	-0.036211	0.888797
	O369	O	-0.208452	0.129407	1.088476
	H370	H	-0.187502	0.135417	1.086201
	H371	H	-0.210382	0.116807	1.072329
	O372	O	0.086659	0.942868	1.086534
	H373	H	0.097273	0.942209	1.091038
	H374	H	0.088266	0.943814	1.097349
	O375	O	0.688316	0.284020	-0.676790
	H376	H	0.708668	0.275804	-0.673323
	H377	H	0.692749	0.307855	-0.662775
	O378	O	-0.227632	0.919089	-0.015363
	H379	H	-0.224767	0.919970	-0.007466
	H380	H	-0.221973	0.912584	-0.005173
	O381	O	0.700750	1.467427	0.303422
	H382	H	0.714737	1.474506	0.301864
	H383	H	0.693402	1.468643	0.304092
	O384	O	1.106271	1.093195	0.990149
	H385	H	1.103047	1.088177	0.994651
	H386	H	1.115026	1.093907	0.981214
	O387	O	0.020636	1.202469	1.198864
	H388	H	0.044702	1.204808	1.189274
	H389	H	0.024147	1.230239	1.216349
	O390	O	-0.073618	0.775439	0.952877
	H391	H	-0.080567	0.753057	0.949495
	H392	H	-0.083787	0.776570	0.957987
	O393	O	0.706849	0.390623	-0.396896
	H394	H	0.717077	0.386858	-0.392286
	H395	H	0.705748	0.392748	-0.388405
	O396	O	0.807005	0.798703	0.822932
	H397	H	0.817773	0.805658	0.835262
	H398	H	0.818457	0.813175	0.848401
	O399	O	0.282529	0.462510	0.724884
	H400	H	0.270056	0.454257	0.745097
	H401	H	0.285053	0.455028	0.705064
	O402	O	1.491240	0.496759	1.738361
	H403	H	1.496408	0.493229	1.735242
	H404	H	1.486597	0.486917	1.740373
	O405	O	0.573235	0.620531	0.431349
	H406	H	0.556460	0.609832	0.447048
	H407	H	0.572608	0.620722	0.436437
	O408	O	1.032729	0.142747	0.051257
	H409	H	1.029655	0.140141	0.058410
	H410	H	1.025660	0.136988	0.055406
	O411	O	0.456343	1.369008	-0.275833
	H412	H	0.437962	1.364150	-0.259931
	H413	H	0.439236	1.364561	-0.272856
	O414	O	0.128851	-0.196062	-0.023440
	H415	H	0.159058	-0.196876	-0.022061
	H416	H	0.135969	-0.198368	-0.041953
	O417	O	0.959117	0.033936	0.007115
	H418	H	0.954193	0.028472	0.003271
	H419	H	0.963349	0.028563	-0.001717
	O420	O	1.602665	-0.624097	0.704463
	H421	H	1.610178	-0.647100	0.715586
	H422	H	1.609463	-0.620592	0.698338
	O423	O	1.350082	0.634476	0.339205
	H424	H	1.356628	0.629761	0.333881
	H425	H	1.345800	0.631146	0.359596
	O426	O	0.282659	0.267078	0.543210
	H427	H	0.289306	0.257669	0.530693
	H428	H	0.271471	0.255980	0.549168
	O429	O	0.341143	0.510241	0.295181
	H430	H	0.336756	0.515887	0.298534
	H431	H	0.337117	0.516079	0.283834
	O432	O	1.585155	0.695381	1.537128
	H433	H	1.576808	0.704558	1.529824
	H434	H	1.594179	0.703743	1.533794
	O435	O	0.179146	0.138967	0.131166
	H436	H	0.184276	0.151577	0.154012
	H437	H	0.177328	0.142715	0.128980
	O438	O	0.594161	0.282327	0.508507
	H439	H	0.606005	0.278588	0.506144
	H440	H	0.604055	0.284377	0.527296
	O441	O	0.914551	0.814154	0.183205
	H442	H	0.905059	0.832960	0.177408
	H443	H	0.947845	0.822335	0.190428
	O444	O	0.704743	0.423457	0.479760
	H445	H	0.711093	0.413651	0.497153
	H446	H	0.690572	0.448576	0.486989
	O447	O	0.284405	0.690678	0.481878
	H448	H	0.274869	0.707722	0.480316
	H449	H	0.285726	0.688172	0.497408
	O450	O	1.124062	-0.173423	0.092990
	H451	H	1.113662	-0.168170	0.108596
	H452	H	1.137996	-0.164014	0.080062
	O453	O	0.390476	0.591173	0.640145
	H454	H	0.395471	0.574910	0.634683
	H455	H	0.397121	0.573674	0.635464
	O456	O	-0.474178	0.699610	0.730084
	H457	H	-0.446089	0.693742	0.726970
	H458	H	-0.469871	0.721205	0.758010
	O459	O	0.787036	1.156590	0.988787
	H460	H	0.790116	1.157626	0.984919
	H461	H	0.777997	1.166915	0.992610
	O462	O	0.707678	0.596282	0.719749
	H463	H	0.725109	0.618134	0.739823
	H464	H	0.716901	0.584701	0.732149
	O465	O	0.282777	0.499935	0.468295
	H466	H	0.296485	0.498504	0.467317
	H467	H	0.282403	0.501088	0.462791
	O468	O	1.061698	1.998218	-0.207856
	H469	H	1.054863	1.993677	-0.209803
	H470	H	1.057093	1.988044	-0.208425
	O471	O	0.372148	0.346121	0.313514
	H472	H	0.394775	0.341630	0.319272
	H473	H	0.393150	0.369658	0.317842
	O474	O	1.179450	0.781598	0.241926
	H475	H	1.192180	0.763075	0.252632
	H476	H	1.167506	0.789844	0.236255
	O477	O	0.201241	0.187555	1.217764
	H478	H	0.194769	0.188459	1.213477
	H479	H	0.220994	0.208294	1.222977
