data_Molecule from HDF5

_cell_length_a		16.292418
_cell_length_b		16.290314
_cell_length_c		16.277577
_cell_angle_alpha	89.907247
_cell_angle_beta	89.991553
_cell_angle_gamma	89.828553
_symmetry_space_group_name_H-M	'P 1'
_symmetry_Int_Tables_number		1

loop_
	_symmetry_equiv_pos_as_xyz
	x,y,z

loop_
	_atom_site_label
	_atom_site_type_symbol
	_atom_site_fract_x
	_atom_site_fract_y
	_atom_site_fract_z
	H0	H	0.399470	0.840474	0.710197
	H1	H	0.596273	0.167424	0.708110
	H2	H	0.596724	0.839872	0.281452
	H3	H	0.399487	0.168533	0.280312
	H4	H	0.713353	0.404850	0.832468
	H5	H	0.712270	0.602593	0.159448
	H6	H	0.284613	0.602635	0.830747
	H7	H	0.284258	0.405435	0.158515
	H8	H	0.835174	0.719739	0.395792
	H9	H	0.161740	0.717720	0.594392
	H10	H	0.835133	0.289402	0.593844
	H11	H	0.161981	0.288489	0.396731
	H12	H	0.834372	0.406110	0.709285
	H13	H	0.161284	0.602416	0.710697
	H14	H	0.834641	0.602752	0.281418
	H15	H	0.162085	0.404157	0.281011
	H16	H	0.398536	0.719862	0.831928
	H17	H	0.596293	0.717928	0.158903
	H18	H	0.598126	0.289852	0.831748
	H19	H	0.400607	0.289909	0.158658
	H20	H	0.714061	0.840624	0.395991
	H21	H	0.711935	0.167535	0.593021
	H22	H	0.284388	0.839691	0.593249
	H23	H	0.282817	0.167868	0.395268
	H24	H	0.900415	0.340007	0.210123
	H25	H	0.096318	0.667298	0.209955
	H26	H	0.095651	0.340163	0.782832
	H27	H	0.899285	0.667726	0.780986
	H28	H	0.211852	0.906231	0.330663
	H29	H	0.212014	0.100982	0.658590
	H30	H	0.783922	0.102418	0.331923
	H31	H	0.784190	0.905724	0.658705
	H32	H	0.335481	0.220151	0.895869
	H33	H	0.662309	0.217053	0.092749
	H34	H	0.334166	0.790077	0.093456
	H35	H	0.662226	0.790309	0.898234
	H36	H	0.334293	0.906870	0.209198
	H37	H	0.662309	0.101024	0.208260
	H38	H	0.334751	0.103119	0.780583
	H39	H	0.662268	0.905464	0.780815
	H40	H	0.900076	0.218893	0.331811
	H41	H	0.097333	0.217786	0.658635
	H42	H	0.096805	0.788785	0.331491
	H43	H	0.899772	0.789356	0.658675
	H44	H	0.213843	0.340900	0.896516
	H45	H	0.212838	0.667595	0.093851
	H46	H	0.784669	0.339888	0.093481
	H47	H	0.783551	0.667495	0.898116
	H48	H	0.404256	0.121527	0.590799
	H49	H	0.587402	0.888456	0.589027
	H50	H	0.597410	0.121281	0.403888
	H51	H	0.404335	0.889723	0.409414
	H52	H	0.584839	0.411973	0.110078
	H53	H	0.587238	0.602088	0.878162
	H54	H	0.406782	0.596025	0.110173
	H55	H	0.411329	0.414119	0.881287
	H56	H	0.111700	0.590517	0.405823
	H57	H	0.883428	0.594072	0.587316
	H58	H	0.109821	0.417113	0.577700
	H59	H	0.881599	0.414142	0.398083
	H60	H	0.116407	0.415985	0.601078
	H61	H	0.880686	0.597962	0.590903
	H62	H	0.115582	0.595118	0.397507
	H63	H	0.881100	0.405557	0.402685
	H64	H	0.404806	0.599423	0.112166
	H65	H	0.596900	0.596007	0.877342
	H66	H	0.592615	0.403754	0.114422
	H67	H	0.405359	0.405367	0.876494
	H68	H	0.591296	0.122172	0.395329
	H69	H	0.592122	0.888212	0.583865
	H70	H	0.407700	0.118787	0.586264
	H71	H	0.399489	0.885070	0.397952
	H72	H	0.894039	0.623389	0.087517
	H73	H	0.082473	0.392247	0.083124
	H74	H	0.098850	0.623750	0.899947
	H75	H	0.911433	0.388059	0.898715
	H76	H	0.093409	0.899299	0.615445
	H77	H	0.098112	0.090287	0.378955
	H78	H	0.902772	0.109828	0.616012
	H79	H	0.913580	0.918511	0.382939
	H80	H	0.616948	0.098247	0.895242
	H81	H	0.383637	0.096378	0.083014
	H82	H	0.615861	0.901803	0.085278
	H83	H	0.382194	0.908787	0.904274
	H84	H	0.612063	0.916614	0.084628
	H85	H	0.381852	0.093941	0.091779
	H86	H	0.615108	0.100980	0.907268
	H87	H	0.383108	0.914813	0.904649
	H88	H	0.894889	0.087370	0.612666
	H89	H	0.082193	0.095692	0.380449
	H90	H	0.099730	0.917362	0.611558
	H91	H	0.909587	0.899854	0.376226
	H92	H	0.084104	0.620259	0.896164
	H93	H	0.103239	0.385691	0.083084
	H94	H	0.911234	0.620811	0.097691
	H95	H	0.903936	0.389117	0.908686
	H96	H	0.401185	0.119492	0.585343
	H97	H	0.594446	0.885999	0.590001
	H98	H	0.587414	0.118590	0.404088
	H99	H	0.412246	0.889315	0.398729
	H100	H	0.596487	0.415416	0.112242
	H101	H	0.587775	0.591359	0.882221
	H102	H	0.401814	0.595949	0.111574
	H103	H	0.400077	0.415851	0.877448
	H104	H	0.115093	0.600282	0.406065
	H105	H	0.881623	0.599053	0.585412
	H106	H	0.118534	0.396376	0.587383
	H107	H	0.884377	0.413476	0.406999
	H108	H	0.909947	0.614936	0.077907
	H109	H	0.092191	0.383986	0.101111
	H110	H	0.089270	0.618169	0.910858
	H111	H	0.899743	0.384298	0.897717
	H112	H	0.081041	0.913014	0.607231
	H113	H	0.094049	0.105719	0.374411
	H114	H	0.917446	0.092953	0.607575
	H115	H	0.895151	0.914179	0.376095
	H116	H	0.612157	0.090087	0.903052
	H117	H	0.379705	0.102337	0.088429
	H118	H	0.617209	0.910567	0.097777
	H119	H	0.380993	0.912006	0.898766
	C120	C	0.375963	0.011942	0.616397
	C121	C	0.619372	0.995657	0.616072
	C122	C	0.620411	0.012249	0.372958
	C123	C	0.376470	0.996196	0.372908
	C124	C	0.619975	0.382205	0.003832
	C125	C	0.619605	0.625187	0.987057
	C126	C	0.375671	0.625906	0.003456
	C127	C	0.376840	0.382731	0.986221
	C128	C	0.006526	0.625046	0.374000
	C129	C	0.989993	0.624731	0.616265
	C130	C	0.006817	0.381772	0.617084
	C131	C	0.990326	0.382116	0.374016
	C132	C	0.876936	0.511829	0.116657
	C133	C	0.120622	0.495635	0.117224
	C134	C	0.119799	0.512539	0.873794
	C135	C	0.876082	0.495295	0.873372
	C136	C	0.120319	0.881451	0.503160
	C137	C	0.119626	0.125128	0.486606
	C138	C	0.876568	0.125350	0.504042
	C139	C	0.877300	0.882085	0.486401
	C140	C	0.506972	0.125697	0.873166
	C141	C	0.489936	0.125629	0.116157
	C142	C	0.506621	0.882113	0.117395
	C143	C	0.490098	0.882729	0.873728
	C144	C	0.378890	0.889278	0.672088
	C145	C	0.616759	0.118513	0.670681
	C146	C	0.617195	0.889196	0.318605
	C147	C	0.378918	0.119358	0.317846
	C148	C	0.675198	0.384774	0.880992
	C149	C	0.674915	0.623085	0.110251
	C150	C	0.321625	0.623340	0.879993
	C151	C	0.322299	0.385391	0.109807
	C152	C	0.883777	0.681126	0.376030
	C153	C	0.112889	0.680056	0.614567
	C154	C	0.883560	0.327392	0.614480
	C155	C	0.113219	0.326585	0.376491
	C156	C	0.883428	0.385210	0.671994
	C157	C	0.112745	0.622720	0.672351
	C158	C	0.883556	0.622987	0.319132
	C159	C	0.112987	0.383632	0.318466
	C160	C	0.378576	0.681294	0.880399
	C161	C	0.616962	0.680200	0.110200
	C162	C	0.618035	0.327361	0.880820
	C163	C	0.379798	0.327688	0.109622
	C164	C	0.675672	0.889394	0.375608
	C165	C	0.674197	0.118547	0.613146
	C166	C	0.321324	0.889060	0.614144
	C167	C	0.320340	0.118834	0.374707
	C168	C	0.879804	0.388837	0.172075
	C169	C	0.117361	0.618517	0.172180
	C170	C	0.116929	0.389246	0.819645
	C171	C	0.878608	0.618625	0.818625
	C172	C	0.174741	0.884781	0.379994
	C173	C	0.174537	0.122112	0.609760
	C174	C	0.821787	0.122989	0.380528
	C175	C	0.821998	0.884870	0.609748
	C176	C	0.383962	0.181656	0.875540
	C177	C	0.613347	0.179682	0.113453
	C178	C	0.383186	0.827358	0.114321
	C179	C	0.613361	0.827583	0.876644
	C180	C	0.383054	0.885354	0.171716
	C181	C	0.613437	0.121508	0.170406
	C182	C	0.383634	0.123474	0.818464
	C183	C	0.613408	0.885224	0.818652
	C184	C	0.879338	0.180749	0.380639
	C185	C	0.117298	0.179724	0.609899
	C186	C	0.117499	0.826819	0.380059
	C187	C	0.879504	0.827265	0.609858
	C188	C	0.175408	0.389594	0.876479
	C189	C	0.174985	0.618787	0.114347
	C190	C	0.821782	0.388884	0.114797
	C191	C	0.821147	0.618538	0.876622
	C192	C	0.397893	0.097827	0.593964
	C193	C	0.597595	0.909710	0.593908
	C194	C	0.598464	0.098545	0.394750
	C195	C	0.398801	0.910159	0.395476
	C196	C	0.597775	0.403977	0.089830
	C197	C	0.597227	0.603065	0.901400
	C198	C	0.397894	0.603507	0.089034
	C199	C	0.399056	0.405115	0.900469
	C200	C	0.092040	0.602076	0.396495
	C201	C	0.904208	0.603324	0.594293
	C202	C	0.092607	0.403306	0.595103
	C203	C	0.904511	0.404460	0.396114
	C204	C	0.898761	0.597687	0.094143
	C205	C	0.099084	0.409585	0.095191
	C206	C	0.097152	0.598538	0.895798
	C207	C	0.898460	0.409428	0.895278
	C208	C	0.098114	0.903399	0.589106
	C209	C	0.097622	0.103635	0.400250
	C210	C	0.898495	0.103255	0.589906
	C211	C	0.899709	0.904204	0.400638
	C212	C	0.592570	0.103067	0.895301
	C213	C	0.403985	0.104017	0.094077
	C214	C	0.592602	0.903483	0.095901
	C215	C	0.404332	0.905305	0.895956
	Zn216	Zn	0.498086	0.003931	0.744793
	Zn217	Zn	0.498020	0.004328	0.244867
	Zn218	Zn	0.748065	0.503456	-0.004195
	Zn219	Zn	0.248269	0.504287	-0.004862
	Zn220	Zn	-0.001498	0.753485	0.495231
	Zn221	Zn	-0.001638	0.253317	0.495614
	Zn222	Zn	-0.001824	0.503784	0.744815
	Zn223	Zn	-0.001539	0.503881	0.245337
	Zn224	Zn	0.498277	0.753595	-0.004985
	Zn225	Zn	0.498749	0.254297	-0.004953
	Zn226	Zn	0.748537	0.003606	0.495179
	Zn227	Zn	0.247723	0.004072	0.494757
	N228	N	0.411907	0.966913	0.673789
	N229	N	0.583337	0.041074	0.672606
	N230	N	0.583412	0.966773	0.317161
	N231	N	0.413082	0.041939	0.316786
	N232	N	0.676421	0.418211	0.958459
	N233	N	0.676898	0.589585	0.032595
	N234	N	0.319653	0.589581	0.957561
	N235	N	0.320238	0.418876	0.032067
	N236	N	0.961287	0.682559	0.409580
	N237	N	0.035675	0.681288	0.580319
	N238	N	0.961117	0.324913	0.581283
	N239	N	0.035893	0.325359	0.410411
	N240	N	0.961110	0.418307	0.673624
	N241	N	0.035487	0.589003	0.673419
	N242	N	0.960816	0.588889	0.317682
	N243	N	0.035636	0.417599	0.317043
	N244	N	0.411727	0.683044	0.958003
	N245	N	0.583358	0.681712	0.032718
	N246	N	0.584329	0.325672	0.958341
	N247	N	0.413102	0.325894	0.031967
	N248	N	0.677625	0.966905	0.408738
	N249	N	0.675980	0.040911	0.579968
	N250	N	0.319672	0.966431	0.580017
	N251	N	0.318834	0.041205	0.408464
	N252	N	0.913151	0.466385	0.173347
	N253	N	0.084222	0.540906	0.174030
	N254	N	0.082927	0.466702	0.817946
	N255	N	0.912084	0.541081	0.816508
	N256	N	0.176540	0.917914	0.457582
	N257	N	0.175924	0.088929	0.532119
	N258	N	0.819953	0.089431	0.458065
	N259	N	0.820604	0.918321	0.532050
	N260	N	0.461497	0.183143	0.908914
	N261	N	0.535645	0.182247	0.080429
	N262	N	0.461122	0.825111	0.081205
	N263	N	0.535852	0.825881	0.909993
	N264	N	0.460451	0.918516	0.173765
	N265	N	0.535707	0.088680	0.172354
	N266	N	0.461093	0.089562	0.816675
	N267	N	0.535665	0.918536	0.816562
	N268	N	0.912854	0.182202	0.458261
	N269	N	0.083971	0.181603	0.532157
	N270	N	0.084274	0.824606	0.457731
	N271	N	0.913325	0.825512	0.532390
	N272	N	0.177169	0.467312	0.909349
	N273	N	0.177065	0.541212	0.080999
	N274	N	0.820186	0.466244	0.080786
	N275	N	0.819309	0.540711	0.909827
	O276	O	-0.530776	-0.444037	1.545378
	H277	H	-0.531440	-0.439094	1.553487
	H278	H	-0.532559	-0.449847	1.539748
	O279	O	0.459338	0.557071	0.477247
	H280	H	0.462893	0.562516	0.468458
	H281	H	0.458304	0.563790	0.469924
	O282	O	0.474151	0.543960	0.478646
	H283	H	0.473422	0.547138	0.486152
	H284	H	0.473019	0.540363	0.478537
	O285	O	0.548335	0.494609	0.467831
	H286	H	0.544637	0.495200	0.470299
	H287	H	0.550024	0.500307	0.473882
	O288	O	0.408581	0.509634	0.496164
	H289	H	0.406183	0.501934	0.492733
	H290	H	0.410143	0.516459	0.497880
	O291	O	0.559348	1.526342	1.487490
	H292	H	0.564204	1.535009	1.486422
	H293	H	0.558812	1.528962	1.502907
	O294	O	0.460370	0.537799	0.505265
	H295	H	0.459508	0.541090	0.502135
	H296	H	0.463650	0.538245	0.510324
	O297	O	1.545498	-0.496201	-0.423520
	H298	H	1.552162	-0.505634	-0.416007
	H299	H	1.545675	-0.502454	-0.434784
