data_Molecule from HDF5

_cell_length_a		16.213826
_cell_length_b		16.328563
_cell_length_c		16.306077
_cell_angle_alpha	89.836629
_cell_angle_beta	90.123893
_cell_angle_gamma	89.975607
_symmetry_space_group_name_H-M	'P 1'
_symmetry_Int_Tables_number		1

loop_
	_symmetry_equiv_pos_as_xyz
	x,y,z

loop_
	_atom_site_label
	_atom_site_type_symbol
	_atom_site_fract_x
	_atom_site_fract_y
	_atom_site_fract_z
	H0	H	0.397944	0.841885	0.709958
	H1	H	0.597710	0.166937	0.708380
	H2	H	0.594968	0.840876	0.280018
	H3	H	0.397285	0.167553	0.276939
	H4	H	0.711002	0.407375	0.830242
	H5	H	0.712294	0.600813	0.158131
	H6	H	0.283274	0.603470	0.830331
	H7	H	0.284825	0.406458	0.158291
	H8	H	0.833765	0.717489	0.394916
	H9	H	0.162614	0.717651	0.592539
	H10	H	0.833831	0.288742	0.591648
	H11	H	0.161985	0.289050	0.394548
	H12	H	0.833971	0.403784	0.707852
	H13	H	0.163115	0.601652	0.707762
	H14	H	0.833647	0.601417	0.279152
	H15	H	0.162887	0.405818	0.280022
	H16	H	0.397654	0.720158	0.831204
	H17	H	0.597677	0.718812	0.157809
	H18	H	0.598445	0.289578	0.830993
	H19	H	0.399768	0.288883	0.157597
	H20	H	0.711109	0.840780	0.396026
	H21	H	0.713420	0.167179	0.592741
	H22	H	0.283565	0.840531	0.592221
	H23	H	0.282270	0.167880	0.394081
	H24	H	0.900502	0.340492	0.207659
	H25	H	0.098083	0.667213	0.208735
	H26	H	0.096510	0.340302	0.779976
	H27	H	0.898814	0.666855	0.777605
	H28	H	0.211560	0.906503	0.328790
	H29	H	0.210286	0.098904	0.657079
	H30	H	0.783964	0.100180	0.329383
	H31	H	0.784431	0.906691	0.657567
	H32	H	0.333736	0.218733	0.895269
	H33	H	0.662417	0.217828	0.092105
	H34	H	0.333951	0.789380	0.093277
	H35	H	0.662309	0.790472	0.896104
	H36	H	0.333105	0.907575	0.206779
	H37	H	0.662181	0.103513	0.209205
	H38	H	0.333543	0.103078	0.779145
	H39	H	0.662142	0.906530	0.779818
	H40	H	0.897756	0.219266	0.329915
	H41	H	0.097850	0.218105	0.656376
	H42	H	0.096640	0.788818	0.329846
	H43	H	0.899185	0.788329	0.657407
	H44	H	0.212375	0.340079	0.897450
	H45	H	0.212596	0.668092	0.090724
	H46	H	0.785401	0.340224	0.089792
	H47	H	0.784104	0.668091	0.895798
	H48	H	0.399545	0.121932	0.586388
	H49	H	0.592799	0.885988	0.591794
	H50	H	0.586658	0.118173	0.404780
	H51	H	0.401045	0.889287	0.405411
	H52	H	0.585465	0.405004	0.110634
	H53	H	0.588053	0.601153	0.878117
	H54	H	0.404676	0.594462	0.109427
	H55	H	0.402991	0.414328	0.878158
	H56	H	0.116487	0.597387	0.398824
	H57	H	0.882467	0.590414	0.589138
	H58	H	0.114138	0.410167	0.585510
	H59	H	0.879660	0.410405	0.395687
	H60	H	0.114752	0.411292	0.585769
	H61	H	0.879173	0.602269	0.588275
	H62	H	0.115148	0.597229	0.402635
	H63	H	0.881057	0.407305	0.402882
	H64	H	0.408797	0.597850	0.109309
	H65	H	0.593681	0.597791	0.877201
	H66	H	0.598992	0.407603	0.113784
	H67	H	0.409600	0.411340	0.879023
	H68	H	0.596211	0.121210	0.401927
	H69	H	0.584289	0.890141	0.587579
	H70	H	0.406884	0.120257	0.590447
	H71	H	0.401748	0.886230	0.394710
	H72	H	0.909205	0.617329	0.080487
	H73	H	0.085545	0.387437	0.095714
	H74	H	0.095043	0.622745	0.895177
	H75	H	0.896980	0.386933	0.905687
	H76	H	0.097040	0.911125	0.610245
	H77	H	0.092116	0.088472	0.378767
	H78	H	0.914149	0.098929	0.606523
	H79	H	0.909739	0.910490	0.379327
	H80	H	0.614229	0.099167	0.904610
	H81	H	0.381215	0.098639	0.085081
	H82	H	0.612145	0.917223	0.084177
	H83	H	0.380679	0.910401	0.902112
	H84	H	0.616264	0.911527	0.094613
	H85	H	0.380873	0.096509	0.085128
	H86	H	0.613563	0.092854	0.899937
	H87	H	0.381456	0.912942	0.902518
	H88	H	0.900406	0.103341	0.612841
	H89	H	0.080101	0.099396	0.378327
	H90	H	0.086644	0.913719	0.606650
	H91	H	0.903084	0.905384	0.375928
	H92	H	0.084402	0.617900	0.898218
	H93	H	0.087542	0.391598	0.078615
	H94	H	0.896345	0.622167	0.085383
	H95	H	0.905527	0.385287	0.890997
	H96	H	0.406023	0.118824	0.582331
	H97	H	0.593104	0.888615	0.582052
	H98	H	0.587979	0.121056	0.395261
	H99	H	0.410957	0.890391	0.400097
	H100	H	0.590174	0.417602	0.107709
	H101	H	0.589135	0.594252	0.879986
	H102	H	0.404030	0.599630	0.111326
	H103	H	0.403408	0.407358	0.876736
	H104	H	0.114324	0.593695	0.400735
	H105	H	0.883901	0.596190	0.578308
	H106	H	0.114881	0.410631	0.586395
	H107	H	0.882549	0.414473	0.401681
	H108	H	0.908250	0.622554	0.093850
	H109	H	0.101114	0.385442	0.088025
	H110	H	0.093246	0.618599	0.906142
	H111	H	0.913830	0.391398	0.904739
	H112	H	0.089139	0.902799	0.611175
	H113	H	0.095130	0.103604	0.373240
	H114	H	0.902388	0.088387	0.608096
	H115	H	0.901417	0.914187	0.377836
	H116	H	0.616790	0.099963	0.897078
	H117	H	0.380720	0.098045	0.087112
	H118	H	0.615755	0.904581	0.083720
	H119	H	0.380616	0.912447	0.900003
	C120	C	0.375789	0.012560	0.615094
	C121	C	0.618920	0.996339	0.614826
	C122	C	0.618921	0.012434	0.372063
	C123	C	0.375539	0.996275	0.371145
	C124	C	0.619969	0.382465	0.002514
	C125	C	0.619681	0.625955	0.986247
	C126	C	0.376705	0.626269	0.002325
	C127	C	0.376666	0.382575	0.986099
	C128	C	0.006666	0.624975	0.371987
	C129	C	0.990477	0.624703	0.614325
	C130	C	0.006283	0.381803	0.614558
	C131	C	0.989450	0.382080	0.371625
	C132	C	0.876595	0.512610	0.114991
	C133	C	0.119968	0.496017	0.115394
	C134	C	0.119869	0.512161	0.871756
	C135	C	0.876377	0.495855	0.871542
	C136	C	0.119574	0.881509	0.501184
	C137	C	0.118578	0.125280	0.484788
	C138	C	0.876242	0.125421	0.501377
	C139	C	0.875814	0.881335	0.485382
	C140	C	0.506297	0.126188	0.872130
	C141	C	0.489546	0.125885	0.114850
	C142	C	0.505957	0.883462	0.115669
	C143	C	0.489736	0.883296	0.872620
	C144	C	0.377721	0.890311	0.671674
	C145	C	0.617880	0.118473	0.670468
	C146	C	0.615790	0.889601	0.317485
	C147	C	0.377631	0.119042	0.315840
	C148	C	0.674204	0.386153	0.879371
	C149	C	0.674983	0.622385	0.109107
	C150	C	0.321004	0.623978	0.879416
	C151	C	0.322569	0.385782	0.109392
	C152	C	0.882996	0.680164	0.374102
	C153	C	0.113948	0.679854	0.612590
	C154	C	0.882774	0.326868	0.611803
	C155	C	0.113321	0.327105	0.374141
	C156	C	0.882901	0.383643	0.669772
	C157	C	0.113906	0.622496	0.670232
	C158	C	0.882812	0.622468	0.316927
	C159	C	0.113593	0.385330	0.317300
	C160	C	0.377471	0.682702	0.880086
	C161	C	0.618087	0.680911	0.109091
	C162	C	0.617893	0.327781	0.879725
	C163	C	0.379468	0.327320	0.109064
	C164	C	0.673707	0.889516	0.374893
	C165	C	0.675156	0.118523	0.612634
	C166	C	0.320918	0.889740	0.612772
	C167	C	0.320411	0.119221	0.373996
	C168	C	0.880009	0.389229	0.169692
	C169	C	0.118075	0.618710	0.170588
	C170	C	0.117218	0.388972	0.817747
	C171	C	0.878511	0.618602	0.815897
	C172	C	0.174266	0.885194	0.377933
	C173	C	0.173606	0.120999	0.607937
	C174	C	0.821108	0.122085	0.378167
	C175	C	0.821670	0.885024	0.608643
	C176	C	0.382839	0.181122	0.874692
	C177	C	0.613613	0.180047	0.112395
	C178	C	0.382682	0.827952	0.113058
	C179	C	0.613347	0.828401	0.875347
	C180	C	0.382188	0.886400	0.169702
	C181	C	0.613225	0.123427	0.170582
	C182	C	0.382697	0.123649	0.816933
	C183	C	0.613120	0.885899	0.817576
	C184	C	0.877779	0.180870	0.378623
	C185	C	0.117361	0.179908	0.607753
	C186	C	0.117401	0.826682	0.378410
	C187	C	0.878781	0.826369	0.608543
	C188	C	0.174723	0.388760	0.875879
	C189	C	0.174694	0.619281	0.111908
	C190	C	0.822661	0.389056	0.111361
	C191	C	0.821444	0.619058	0.874517
	C192	C	0.397620	0.098389	0.592952
	C193	C	0.596472	0.910486	0.593435
	C194	C	0.596769	0.098069	0.394100
	C195	C	0.397931	0.910599	0.393363
	C196	C	0.597896	0.403837	0.088626
	C197	C	0.596947	0.604187	0.900595
	C198	C	0.399120	0.603780	0.087949
	C199	C	0.398819	0.404520	0.900266
	C200	C	0.092895	0.602781	0.394396
	C201	C	0.904182	0.602699	0.591829
	C202	C	0.092245	0.404185	0.592578
	C203	C	0.903406	0.404209	0.393460
	C204	C	0.898391	0.598449	0.093128
	C205	C	0.098095	0.410335	0.093684
	C206	C	0.097510	0.597558	0.893458
	C207	C	0.898844	0.410109	0.893937
	C208	C	0.097419	0.902906	0.587226
	C209	C	0.095641	0.103630	0.399007
	C210	C	0.898796	0.103236	0.587207
	C211	C	0.898177	0.903362	0.399742
	C212	C	0.592737	0.103928	0.894111
	C213	C	0.403277	0.104116	0.092527
	C214	C	0.592536	0.905040	0.093902
	C215	C	0.403238	0.905594	0.894891
	Zn216	Zn	0.498033	0.004643	0.743963
	Zn217	Zn	0.497679	0.005035	0.242819
	Zn218	Zn	0.747938	0.503867	-0.006439
	Zn219	Zn	0.248412	0.504489	-0.005952
	Zn220	Zn	-0.001571	0.752909	0.493507
	Zn221	Zn	-0.001996	0.254405	0.493355
	Zn222	Zn	-0.001971	0.503354	0.742658
	Zn223	Zn	-0.001595	0.504176	0.243857
	Zn224	Zn	0.498303	0.755013	-0.005723
	Zn225	Zn	0.498654	0.254169	-0.005867
	Zn226	Zn	0.747320	0.004009	0.493736
	Zn227	Zn	0.247219	0.004141	0.492813
	N228	N	0.411053	0.967768	0.673164
	N229	N	0.583546	0.041429	0.671880
	N230	N	0.582137	0.967069	0.315776
	N231	N	0.411461	0.041746	0.314312
	N232	N	0.675609	0.419307	0.956652
	N233	N	0.675991	0.588840	0.031739
	N234	N	0.320509	0.589565	0.956356
	N235	N	0.320794	0.419540	0.031985
	N236	N	0.960986	0.681674	0.407779
	N237	N	0.036287	0.681097	0.578501
	N238	N	0.960533	0.325526	0.578324
	N239	N	0.035431	0.325153	0.407293
	N240	N	0.960539	0.417527	0.671345
	N241	N	0.036025	0.588668	0.671168
	N242	N	0.960455	0.588740	0.315636
	N243	N	0.035670	0.418824	0.315551
	N244	N	0.411439	0.684199	0.957596
	N245	N	0.584316	0.683131	0.031694
	N246	N	0.584741	0.325362	0.957352
	N247	N	0.412524	0.325377	0.031406
	N248	N	0.675615	0.966801	0.408131
	N249	N	0.675759	0.041450	0.578769
	N250	N	0.319771	0.966653	0.578267
	N251	N	0.318967	0.041906	0.407728
	N252	N	0.912693	0.467044	0.172034
	N253	N	0.084626	0.541218	0.172694
	N254	N	0.083957	0.466485	0.815010
	N255	N	0.911632	0.541020	0.813864
	N256	N	0.175723	0.918549	0.455378
	N257	N	0.174215	0.087547	0.530597
	N258	N	0.820240	0.088196	0.455496
	N259	N	0.819851	0.918705	0.531270
	N260	N	0.460769	0.182782	0.908214
	N261	N	0.535821	0.181596	0.078455
	N262	N	0.460744	0.826092	0.080020
	N263	N	0.535419	0.826571	0.908675
	N264	N	0.459789	0.919902	0.171391
	N265	N	0.535220	0.090322	0.171961
	N266	N	0.460638	0.090344	0.815154
	N267	N	0.535082	0.919258	0.816008
	N268	N	0.911280	0.183060	0.456238
	N269	N	0.084280	0.182819	0.530089
	N270	N	0.084241	0.824396	0.455893
	N271	N	0.911616	0.824029	0.530724
	N272	N	0.176568	0.466282	0.908824
	N273	N	0.175940	0.541989	0.078278
	N274	N	0.820812	0.466464	0.077907
	N275	N	0.820151	0.541723	0.908396
	O276	O	-0.518982	-0.490230	1.543210
	H277	H	-0.530704	-0.483964	1.539849
	H278	H	-0.524210	-0.492473	1.547829
	O279	O	0.445260	0.547587	0.552100
	H280	H	0.440813	0.549175	0.557116
	H281	H	0.455840	0.546145	0.564044
	O282	O	0.544190	0.542950	0.555987
	H283	H	0.553334	0.532617	0.554700
	H284	H	0.547973	0.547620	0.551821
	O285	O	0.472602	0.543482	0.520899
	H286	H	0.473792	0.548468	0.516877
	H287	H	0.487449	0.544872	0.519459
	O288	O	0.522432	0.543460	0.485818
	H289	H	0.527897	0.544810	0.485681
	H290	H	0.509546	0.545197	0.486045
	O291	O	0.522618	1.458882	1.583537
	H292	H	0.522922	1.458407	1.578331
	H293	H	0.521980	1.446260	1.583495
	O294	O	0.483779	0.517949	0.529272
	H295	H	0.481894	0.517923	0.530183
	H296	H	0.489197	0.528953	0.532041
	O297	O	1.499132	-0.471590	-0.502830
	H298	H	1.494806	-0.471757	-0.504142
	H299	H	1.503778	-0.465421	-0.499392
