data_Molecule from HDF5

_cell_length_a		16.311731
_cell_length_b		16.611778
_cell_length_c		16.408558
_cell_angle_alpha	90.145548
_cell_angle_beta	89.933430
_cell_angle_gamma	90.006697
_symmetry_space_group_name_H-M	'P 1'
_symmetry_Int_Tables_number		1

loop_
	_symmetry_equiv_pos_as_xyz
	x,y,z

loop_
	_atom_site_label
	_atom_site_type_symbol
	_atom_site_fract_x
	_atom_site_fract_y
	_atom_site_fract_z
	H0	H	0.393342	0.852976	0.726344
	H1	H	0.609605	0.164257	0.727657
	H2	H	0.607869	0.851719	0.279860
	H3	H	0.397615	0.165187	0.281145
	H4	H	0.724008	0.403822	0.842718
	H5	H	0.724838	0.614644	0.159913
	H6	H	0.282118	0.611646	0.843331
	H7	H	0.283026	0.404637	0.161704
	H8	H	0.843243	0.731350	0.395926
	H9	H	0.158489	0.734545	0.612659
	H10	H	0.842820	0.286672	0.613428
	H11	H	0.159683	0.287480	0.398429
	H12	H	0.841407	0.406326	0.724534
	H13	H	0.160783	0.615669	0.724029
	H14	H	0.841479	0.613488	0.283333
	H15	H	0.161470	0.405572	0.284823
	H16	H	0.392627	0.732107	0.846455
	H17	H	0.615711	0.736670	0.156342
	H18	H	0.613183	0.283229	0.844807
	H19	H	0.397278	0.286246	0.159062
	H20	H	0.724237	0.852211	0.396462
	H21	H	0.722249	0.166945	0.607743
	H22	H	0.277939	0.852496	0.608064
	H23	H	0.280259	0.165465	0.398115
	H24	H	0.894470	0.352684	0.226827
	H25	H	0.107637	0.665581	0.225479
	H26	H	0.108024	0.353446	0.778575
	H27	H	0.893106	0.665096	0.779730
	H28	H	0.220854	0.904497	0.342470
	H29	H	0.220152	0.110273	0.662698
	H30	H	0.782896	0.111255	0.343296
	H31	H	0.779896	0.905559	0.660917
	H32	H	0.344751	0.230302	0.895197
	H33	H	0.660643	0.229523	0.109416
	H34	H	0.345284	0.782595	0.112520
	H35	H	0.659160	0.783507	0.892956
	H36	H	0.342223	0.901981	0.223529
	H37	H	0.661819	0.111250	0.222072
	H38	H	0.342920	0.111512	0.782970
	H39	H	0.661451	0.902276	0.780198
	H40	H	0.895402	0.231183	0.345548
	H41	H	0.108828	0.231900	0.661317
	H42	H	0.111205	0.783467	0.346015
	H43	H	0.892720	0.786970	0.660013
	H44	H	0.222031	0.350735	0.898524
	H45	H	0.223499	0.665575	0.107691
	H46	H	0.780159	0.351736	0.107996
	H47	H	0.777876	0.664946	0.897492
	H48	H	0.417333	0.120952	0.602092
	H49	H	0.593969	0.898856	0.583675
	H50	H	0.589472	0.118772	0.415667
	H51	H	0.408713	0.895837	0.413399
	H52	H	0.588157	0.413460	0.115207
	H53	H	0.586805	0.594704	0.890779
	H54	H	0.417645	0.596340	0.114940
	H55	H	0.416840	0.418926	0.889465
	H56	H	0.112195	0.593730	0.419454
	H57	H	0.884180	0.603597	0.594949
	H58	H	0.117430	0.417725	0.596906
	H59	H	0.887214	0.419762	0.414184
	H60	H	0.114399	0.416188	0.584331
	H61	H	0.888782	0.600861	0.585463
	H62	H	0.116957	0.596145	0.411014
	H63	H	0.886411	0.418971	0.416438
	H64	H	0.415480	0.598565	0.115624
	H65	H	0.587414	0.595617	0.890342
	H66	H	0.593848	0.418545	0.116030
	H67	H	0.413896	0.413755	0.887155
	H68	H	0.592971	0.121911	0.411416
	H69	H	0.592057	0.894794	0.596649
	H70	H	0.419401	0.115310	0.584185
	H71	H	0.412986	0.895008	0.408472
	H72	H	0.920805	0.619025	0.096127
	H73	H	0.096275	0.394162	0.094912
	H74	H	0.091125	0.621070	0.914120
	H75	H	0.914408	0.397722	0.913241
	H76	H	0.092086	0.918519	0.617176
	H77	H	0.088329	0.099554	0.390166
	H78	H	0.916276	0.094271	0.613874
	H79	H	0.910799	0.919652	0.388510
	H80	H	0.614994	0.094034	0.914250
	H81	H	0.389612	0.095098	0.087367
	H82	H	0.615006	0.920476	0.088016
	H83	H	0.389360	0.920105	0.915448
	H84	H	0.614106	0.922154	0.087378
	H85	H	0.386672	0.096554	0.095382
	H86	H	0.617585	0.097405	0.914334
	H87	H	0.389141	0.919366	0.915597
	H88	H	0.915945	0.106347	0.618003
	H89	H	0.089079	0.100454	0.389662
	H90	H	0.088511	0.925805	0.613453
	H91	H	0.916063	0.923394	0.390748
	H92	H	0.091503	0.620954	0.914941
	H93	H	0.088940	0.396151	0.097319
	H94	H	0.912587	0.618319	0.084816
	H95	H	0.915170	0.397759	0.914294
	H96	H	0.402674	0.122688	0.589831
	H97	H	0.582184	0.900437	0.589793
	H98	H	0.587421	0.119735	0.409876
	H99	H	0.414724	0.897715	0.413902
	H100	H	0.587024	0.420524	0.112898
	H101	H	0.587725	0.595015	0.890489
	H102	H	0.413698	0.595369	0.115340
	H103	H	0.410205	0.419389	0.887930
	H104	H	0.115663	0.602826	0.418559
	H105	H	0.888166	0.593590	0.592686
	H106	H	0.111884	0.427510	0.590742
	H107	H	0.887080	0.420627	0.415890
	H108	H	0.907423	0.622675	0.096421
	H109	H	0.091474	0.397919	0.090070
	H110	H	0.092263	0.620709	0.914026
	H111	H	0.914145	0.398404	0.914163
	H112	H	0.083843	0.917971	0.613965
	H113	H	0.089632	0.098873	0.390113
	H114	H	0.905115	0.098921	0.618950
	H115	H	0.916771	0.916916	0.389953
	H116	H	0.615632	0.096035	0.917702
	H117	H	0.387156	0.103155	0.089656
	H118	H	0.614303	0.921596	0.089553
	H119	H	0.389741	0.919928	0.915866
	C120	C	0.379956	0.016773	0.624469
	C121	C	0.622595	1.000965	0.623858
	C122	C	0.623294	0.016852	0.379642
	C123	C	0.379610	0.999765	0.379781
	C124	C	0.623871	0.385483	0.010247
	C125	C	0.622518	0.629338	0.994035
	C126	C	0.381440	0.629490	0.011336
	C127	C	0.381308	0.385864	0.993046
	C128	C	0.009598	0.629569	0.383174
	C129	C	0.992114	0.631816	0.624536
	C130	C	0.009414	0.388434	0.624325
	C131	C	0.992567	0.388201	0.383115
	C132	C	0.880564	0.516695	0.124855
	C133	C	0.124291	0.499851	0.125835
	C134	C	0.123540	0.517298	0.881358
	C135	C	0.880438	0.500900	0.881326
	C136	C	0.122300	0.887317	0.510802
	C137	C	0.122102	0.130844	0.494655
	C138	C	0.879975	0.131226	0.511995
	C139	C	0.880474	0.887840	0.493955
	C140	C	0.511593	0.128868	0.881641
	C141	C	0.492989	0.130005	0.123704
	C142	C	0.509878	0.887847	0.122118
	C143	C	0.493707	0.886397	0.881023
	C144	C	0.375822	0.899806	0.685851
	C145	C	0.626298	0.118095	0.685958
	C146	C	0.626017	0.898914	0.319839
	C147	C	0.378373	0.118262	0.320715
	C148	C	0.684815	0.384204	0.890939
	C149	C	0.684811	0.633190	0.112165
	C150	C	0.321168	0.630932	0.891768
	C151	C	0.321912	0.385081	0.113103
	C152	C	0.890423	0.690549	0.379077
	C153	C	0.111074	0.693462	0.629217
	C154	C	0.890195	0.327435	0.629676
	C155	C	0.112172	0.327911	0.380381
	C156	C	0.889436	0.387431	0.684762
	C157	C	0.112258	0.634140	0.684825
	C158	C	0.889684	0.631758	0.323076
	C159	C	0.113060	0.386837	0.323922
	C160	C	0.376487	0.690798	0.893192
	C161	C	0.630224	0.693764	0.110543
	C162	C	0.629445	0.324234	0.891799
	C163	C	0.378438	0.326056	0.112090
	C164	C	0.684231	0.899320	0.377685
	C165	C	0.682716	0.119182	0.626355
	C166	C	0.318576	0.899322	0.626691
	C167	C	0.320187	0.118250	0.378917
	C168	C	0.877167	0.399300	0.185989
	C169	C	0.126369	0.618141	0.185982
	C170	C	0.125864	0.399799	0.819791
	C171	C	0.875848	0.618301	0.820566
	C172	C	0.181932	0.885625	0.390831
	C173	C	0.181432	0.130609	0.614673
	C174	C	0.821595	0.131278	0.391494
	C175	C	0.819990	0.886828	0.613394
	C176	C	0.392085	0.189725	0.877727
	C177	C	0.612841	0.189660	0.127082
	C178	C	0.391889	0.824658	0.128158
	C179	C	0.612261	0.824614	0.875962
	C180	C	0.390530	0.884062	0.183698
	C181	C	0.613531	0.130371	0.182965
	C182	C	0.391086	0.130833	0.821819
	C183	C	0.612998	0.883341	0.819451
	C184	C	0.877481	0.190830	0.392717
	C185	C	0.125956	0.190962	0.613968
	C186	C	0.127253	0.825158	0.392731
	C187	C	0.876066	0.827533	0.612741
	C188	C	0.182701	0.398439	0.879424
	C189	C	0.183941	0.618260	0.127109
	C190	C	0.819998	0.398801	0.126959
	C191	C	0.818090	0.618096	0.878834
	C192	C	0.405745	0.098481	0.599349
	C193	C	0.596852	0.919350	0.597715
	C194	C	0.597517	0.098782	0.404963
	C195	C	0.404886	0.917657	0.404811
	C196	C	0.597409	0.410366	0.092989
	C197	C	0.595164	0.602554	0.911955
	C198	C	0.408005	0.604044	0.093778
	C199	C	0.406645	0.410300	0.909957
	C200	C	0.093140	0.604726	0.408983
	C201	C	0.908808	0.606583	0.598579
	C202	C	0.092922	0.413105	0.597989
	C203	C	0.908794	0.412764	0.408335
	C204	C	0.906131	0.598568	0.099712
	C205	C	0.099482	0.417508	0.101115
	C206	C	0.098765	0.599444	0.907003
	C207	C	0.906831	0.419322	0.906660
	C208	C	0.095836	0.913248	0.593419
	C209	C	0.096394	0.106666	0.411561
	C210	C	0.905179	0.106831	0.595178
	C211	C	0.907096	0.912894	0.411459
	C212	C	0.594288	0.103236	0.907754
	C213	C	0.409487	0.105355	0.098078
	C214	C	0.592877	0.913927	0.095799
	C215	C	0.410954	0.912336	0.907914
	Zn216	Zn	0.502025	0.008035	0.753834
	Zn217	Zn	0.501991	0.007969	0.250520
	Zn218	Zn	0.751077	0.508103	0.002418
	Zn219	Zn	0.253420	0.508342	0.003041
	Zn220	Zn	0.001009	0.758826	0.502721
	Zn221	Zn	0.000702	0.259654	0.504506
	Zn222	Zn	0.001204	0.509889	0.751648
	Zn223	Zn	0.001392	0.509327	0.254625
	Zn224	Zn	0.502179	0.758276	0.002419
	Zn225	Zn	0.502867	0.257352	0.001312
	Zn226	Zn	0.752055	0.009168	0.502400
	Zn227	Zn	0.250566	0.008657	0.501968
	N228	N	0.413408	0.973713	0.684276
	N229	N	0.589652	0.043679	0.684476
	N230	N	0.588985	0.972951	0.321103
	N231	N	0.414220	0.043416	0.320870
	N232	N	0.681448	0.421672	0.965574
	N233	N	0.679963	0.593576	0.038726
	N234	N	0.324166	0.593378	0.966275
	N235	N	0.323265	0.421308	0.037929
	N236	N	0.966262	0.689503	0.415681
	N237	N	0.035365	0.692193	0.592523
	N238	N	0.965954	0.328082	0.592697
	N239	N	0.036255	0.328654	0.416489
	N240	N	0.964678	0.424649	0.681507
	N241	N	0.037146	0.596623	0.682256
	N242	N	0.964787	0.594485	0.325556
	N243	N	0.037345	0.423199	0.325088
	N244	N	0.413185	0.690039	0.968533
	N245	N	0.592269	0.691361	0.035951
	N246	N	0.592463	0.324724	0.967169
	N247	N	0.414384	0.326284	0.036286
	N248	N	0.682809	0.973866	0.414345
	N249	N	0.680573	0.045398	0.588324
	N250	N	0.320937	0.972974	0.588923
	N251	N	0.320721	0.043574	0.414758
	N252	N	0.913765	0.473704	0.184883
	N253	N	0.090169	0.543426	0.185303
	N254	N	0.090180	0.474675	0.820632
	N255	N	0.913917	0.544534	0.822121
	N256	N	0.179183	0.923394	0.465463
	N257	N	0.179290	0.094068	0.539474
	N258	N	0.822843	0.095065	0.466711
	N259	N	0.822486	0.923688	0.538659
	N260	N	0.467959	0.188681	0.913981
	N261	N	0.537044	0.189287	0.090569
	N262	N	0.467227	0.826824	0.090554
	N263	N	0.537044	0.826291	0.913509
	N264	N	0.464873	0.922850	0.179821
	N265	N	0.537712	0.094227	0.181265
	N266	N	0.466401	0.093908	0.823807
	N267	N	0.538009	0.920947	0.822343
	N268	N	0.912789	0.191053	0.468683
	N269	N	0.089997	0.191341	0.538276
	N270	N	0.091123	0.825917	0.468425
	N271	N	0.913142	0.828238	0.537441
	N272	N	0.181614	0.472543	0.916890
	N273	N	0.183139	0.543723	0.090580
	N274	N	0.821654	0.472863	0.089764
	N275	N	0.820787	0.544053	0.915833
	O276	O	0.290376	0.536049	0.289329
	H277	H	0.293022	0.541626	0.296097
	H278	H	0.275530	0.527440	0.271633
	O279	O	0.885590	0.206679	1.091191
	H280	H	0.878504	0.196811	1.083177
	H281	H	0.896729	0.204590	1.070524
	O282	O	0.679521	0.629271	0.570077
	H283	H	0.663067	0.627932	0.566591
	H284	H	0.679950	0.630002	0.571567
	O285	O	0.320379	0.696759	0.317965
	H286	H	0.350785	0.706392	0.332056
	H287	H	0.333065	0.667297	0.307345
	O288	O	0.903874	1.169923	-0.175740
	H289	H	0.918803	1.161262	-0.181169
	H290	H	0.915392	1.164343	-0.159152
	O291	O	0.310491	0.396125	0.702722
	H292	H	0.322899	0.388031	0.706195
	H293	H	0.307318	0.392661	0.728430
	O294	O	-0.179338	-0.119403	1.197842
	H295	H	-0.144016	-0.118773	1.189369
	H296	H	-0.189122	-0.094525	1.191989
	O297	O	0.815927	0.162472	0.251065
	H298	H	0.821667	0.155044	0.256490
	H299	H	0.830213	0.152587	0.244993
	O300	O	1.076426	1.097098	0.046782
	H301	H	1.090408	1.089030	0.046931
	H302	H	1.074256	1.092841	0.068176
	O303	O	0.435657	0.589900	0.683552
	H304	H	0.415671	0.597346	0.676166
	H305	H	0.435590	0.609867	0.705443
	O306	O	0.388560	0.673917	0.656372
	H307	H	0.381587	0.667455	0.636765
	H308	H	0.401412	0.671194	0.657071
	O309	O	0.312009	0.338501	0.385386
	H310	H	0.319658	0.343533	0.385839
	H311	H	0.317804	0.349855	0.395229
	O312	O	0.208760	1.025205	0.874120
	H313	H	0.222852	1.018438	0.859629
	H314	H	0.213081	1.010178	0.905587
	O315	O	0.314320	0.558019	0.524391
	H316	H	0.306050	0.560273	0.539535
	H317	H	0.332479	0.558727	0.504011
	O318	O	1.180120	0.219206	0.019215
	H319	H	1.187023	0.222338	0.011941
	H320	H	1.179837	0.209656	0.020660
	O321	O	-0.178624	-0.097248	0.100992
	H322	H	-0.193911	-0.107457	0.086139
	H323	H	-0.184430	-0.099465	0.135125
	O324	O	0.355466	0.386066	0.528585
	H325	H	0.355593	0.377810	0.524771
	H326	H	0.359640	0.384057	0.529364
	O327	O	0.533216	0.301789	0.433800
	H328	H	0.517837	0.315777	0.438976
	H329	H	0.533653	0.290293	0.431803
	O330	O	-0.151208	0.918205	-0.054774
	H331	H	-0.141021	0.922943	-0.052197
	H332	H	-0.174321	0.927108	-0.059987
	O333	O	0.600619	0.672025	0.702187
	H334	H	0.612951	0.696285	0.698893
	H335	H	0.585648	0.686727	0.684891
	O336	O	-0.047088	-0.109134	0.088167
	H337	H	-0.044714	-0.115827	0.075197
	H338	H	-0.029288	-0.096859	0.076951
	O339	O	-0.167918	0.991990	0.865082
	H340	H	-0.173058	1.005079	0.835504
	H341	H	-0.168831	1.008064	0.865789
	O342	O	0.056442	0.816020	1.138840
	H343	H	0.073420	0.818662	1.141768
	H344	H	0.043595	0.812465	1.154988
	O345	O	1.043788	0.873713	-0.146312
	H346	H	1.004904	0.878210	-0.164841
	H347	H	1.059576	0.867175	-0.143419
	O348	O	0.464523	0.509021	0.661133
	H349	H	0.471920	0.495814	0.661493
	H350	H	0.460725	0.517397	0.664692
	O351	O	0.196459	0.814255	0.925883
	H352	H	0.206606	0.828759	0.931015
	H353	H	0.217441	0.813868	0.923520
	O354	O	-0.292274	0.482477	0.292165
	H355	H	-0.295467	0.455648	0.305076
	H356	H	-0.262954	0.475153	0.277386
	O357	O	-0.303910	-0.358142	0.663237
	H358	H	-0.289489	-0.357359	0.663174
	H359	H	-0.316763	-0.351288	0.665533
	O360	O	0.537763	0.500386	0.341394
	H361	H	0.555475	0.499118	0.338800
	H362	H	0.545450	0.514331	0.333503
	O363	O	0.031670	-0.083655	1.083199
	H364	H	0.019409	-0.098671	1.066943
	H365	H	0.019869	-0.083406	1.083450
	O366	O	0.803932	-0.000615	0.916455
	H367	H	0.834875	0.007625	0.909322
	H368	H	0.781237	-0.014957	0.936267
	O369	O	0.295701	0.299908	0.632054
	H370	H	0.268757	0.272233	0.637639
	H371	H	0.325632	0.299267	0.652570
	O372	O	1.010094	-0.092834	0.954407
	H373	H	1.034804	-0.110811	0.952736
	H374	H	1.004331	-0.088979	0.974747
	O375	O	0.710871	0.296797	0.443892
	H376	H	0.729437	0.275323	0.438711
	H377	H	0.708511	0.306030	0.432250
	O378	O	0.619902	0.576088	0.678008
	H379	H	0.612941	0.577236	0.686205
	H380	H	0.628459	0.558583	0.683838
	O381	O	0.510249	0.723435	0.490275
	H382	H	0.513069	0.712736	0.474081
	H383	H	0.488845	0.731986	0.487851
	O384	O	0.491697	0.511947	0.392583
	H385	H	0.497372	0.508285	0.407334
	H386	H	0.482952	0.506129	0.406841
	O387	O	-0.072890	0.144438	0.995823
	H388	H	-0.052109	0.130813	0.989522
	H389	H	-0.102499	0.156596	0.992591
	O390	O	0.202448	0.209414	0.170762
	H391	H	0.226884	0.240470	0.179313
	H392	H	0.164267	0.219179	0.156160
	O393	O	1.049309	0.945947	0.789586
	H394	H	1.083416	0.933532	0.796766
	H395	H	1.064137	0.952757	0.768244
	O396	O	1.015319	0.222138	0.190541
	H397	H	1.014370	0.224165	0.187715
	H398	H	1.016030	0.232974	0.196868
	O399	O	0.908144	0.187566	1.049434
	H400	H	0.914705	0.169495	1.063343
	H401	H	0.894770	0.185346	1.041081
	O402	O	1.030527	0.877153	0.852955
	H403	H	1.019810	0.849517	0.824788
	H404	H	1.017211	0.886032	0.866946
	O405	O	1.093834	0.925461	-0.044076
	H406	H	1.088569	0.936838	-0.034325
	H407	H	1.090361	0.929108	-0.048746
	O408	O	1.209531	0.063377	0.212094
	H409	H	1.224350	0.072952	0.224822
	H410	H	1.221776	0.091179	0.210122
	O411	O	0.980457	1.131229	-0.012437
	H412	H	0.972329	1.125638	-0.016600
	H413	H	0.994713	1.122975	-0.013227
	O414	O	0.583242	0.630276	0.342989
	H415	H	0.616106	0.632045	0.331064
	H416	H	0.596870	0.630078	0.342236
	O417	O	0.490439	0.459768	0.494817
	H418	H	0.491516	0.446902	0.498281
	H419	H	0.496351	0.471116	0.485716
	O420	O	-0.082774	-0.111731	0.019294
	H421	H	-0.050412	-0.115492	0.013128
	H422	H	-0.093739	-0.111792	0.041836
	O423	O	0.562169	0.476159	0.613696
	H424	H	0.543879	0.497494	0.627194
	H425	H	0.572108	0.487664	0.610447
	O426	O	0.439261	0.463464	0.656231
	H427	H	0.434826	0.458647	0.671888
	H428	H	0.440800	0.464524	0.642487
	O429	O	0.285919	0.728320	0.478544
	H430	H	0.253185	0.755070	0.464517
	H431	H	0.286940	0.711084	0.467627
	O432	O	0.568717	0.335906	0.647724
	H433	H	0.568830	0.342171	0.638401
	H434	H	0.585257	0.331664	0.638272
	O435	O	0.477311	0.344942	0.334046
	H436	H	0.469936	0.336607	0.350235
	H437	H	0.474287	0.358334	0.338890
	O438	O	-0.100983	-0.001667	0.214978
	H439	H	-0.122094	-0.008591	0.232798
	H440	H	-0.066920	0.011154	0.225562
	O441	O	1.139928	-0.014313	-0.097291
	H442	H	1.144317	-0.031072	-0.084865
	H443	H	1.145146	-0.001806	-0.075902
	O444	O	0.072134	1.208530	0.812220
	H445	H	0.085050	1.194096	0.834208
	H446	H	0.060921	1.217930	0.799187
	O447	O	0.672458	0.564714	0.506881
	H448	H	0.677846	0.558556	0.516878
	H449	H	0.674845	0.557544	0.509706
	O450	O	0.485537	0.712777	0.300179
	H451	H	0.498455	0.704247	0.296387
	H452	H	0.505452	0.706070	0.282904
	O453	O	0.675050	0.347897	0.430610
	H454	H	0.657356	0.347548	0.440789
	H455	H	0.663172	0.344913	0.421983
