data_Molecule from HDF5

_cell_length_a		16.255555
_cell_length_b		16.251129
_cell_length_c		16.340311
_cell_angle_alpha	90.073996
_cell_angle_beta	89.943309
_cell_angle_gamma	89.783883
_symmetry_space_group_name_H-M	'P 1'
_symmetry_Int_Tables_number		1

loop_
	_symmetry_equiv_pos_as_xyz
	x,y,z

loop_
	_atom_site_label
	_atom_site_type_symbol
	_atom_site_fract_x
	_atom_site_fract_y
	_atom_site_fract_z
	H0	H	0.402299	0.848335	0.715119
	H1	H	0.601941	0.175285	0.714374
	H2	H	0.604994	0.848147	0.282540
	H3	H	0.403500	0.175240	0.285076
	H4	H	0.717130	0.412584	0.835857
	H5	H	0.717626	0.609491	0.163042
	H6	H	0.288119	0.609182	0.836167
	H7	H	0.288977	0.413581	0.162571
	H8	H	0.839365	0.726985	0.402657
	H9	H	0.168322	0.724266	0.597537
	H10	H	0.838856	0.298391	0.597725
	H11	H	0.166573	0.296904	0.402321
	H12	H	0.838945	0.413008	0.713898
	H13	H	0.166496	0.612063	0.716671
	H14	H	0.840286	0.612955	0.283700
	H15	H	0.166552	0.410525	0.285432
	H16	H	0.403960	0.725824	0.836006
	H17	H	0.600533	0.725298	0.163422
	H18	H	0.601483	0.296810	0.836123
	H19	H	0.404681	0.297473	0.162525
	H20	H	0.719972	0.848151	0.399927
	H21	H	0.716329	0.175590	0.598044
	H22	H	0.290031	0.847659	0.596953
	H23	H	0.287853	0.175297	0.401033
	H24	H	0.903431	0.348391	0.216605
	H25	H	0.101743	0.675021	0.213873
	H26	H	0.104363	0.348458	0.783628
	H27	H	0.903018	0.675135	0.785333
	H28	H	0.217876	0.913791	0.336584
	H29	H	0.218067	0.111951	0.663076
	H30	H	0.788273	0.111103	0.336903
	H31	H	0.787835	0.912968	0.663415
	H32	H	0.338412	0.224550	0.903033
	H33	H	0.667195	0.224129	0.096252
	H34	H	0.337865	0.798378	0.098497
	H35	H	0.666586	0.796709	0.901506
	H36	H	0.339679	0.912709	0.216094
	H37	H	0.666562	0.110656	0.213850
	H38	H	0.339141	0.110581	0.785761
	H39	H	0.666328	0.911485	0.784604
	H40	H	0.904370	0.227067	0.336726
	H41	H	0.100751	0.226781	0.662738
	H42	H	0.103197	0.795869	0.336857
	H43	H	0.904366	0.796254	0.663429
	H44	H	0.218045	0.347534	0.901819
	H45	H	0.216591	0.675255	0.098147
	H46	H	0.790626	0.346207	0.097094
	H47	H	0.786931	0.674383	0.900434
	H48	H	0.410702	0.129490	0.596797
	H49	H	0.592988	0.895336	0.595753
	H50	H	0.586808	0.126631	0.401069
	H51	H	0.415935	0.895103	0.402520
	H52	H	0.609194	0.424120	0.117025
	H53	H	0.594147	0.603429	0.884529
	H54	H	0.411251	0.598171	0.112833
	H55	H	0.412298	0.415249	0.883004
	H56	H	0.121363	0.606506	0.402822
	H57	H	0.886949	0.604230	0.594359
	H58	H	0.118980	0.416071	0.588536
	H59	H	0.888854	0.423581	0.410749
	H60	H	0.118196	0.423618	0.592944
	H61	H	0.887692	0.606425	0.591869
	H62	H	0.118367	0.604885	0.410752
	H63	H	0.884702	0.422409	0.401174
	H64	H	0.414835	0.610729	0.115363
	H65	H	0.595077	0.604805	0.883887
	H66	H	0.585814	0.424091	0.110788
	H67	H	0.406659	0.416262	0.881553
	H68	H	0.596575	0.125189	0.415832
	H69	H	0.593587	0.896768	0.587992
	H70	H	0.411461	0.127914	0.591010
	H71	H	0.412221	0.897293	0.412447
	H72	H	0.910749	0.625172	0.084833
	H73	H	0.095560	0.393499	0.096117
	H74	H	0.088120	0.626582	0.904317
	H75	H	0.904318	0.392081	0.905168
	H76	H	0.093077	0.916827	0.615736
	H77	H	0.101963	0.102453	0.383086
	H78	H	0.915402	0.107672	0.614235
	H79	H	0.912158	0.909472	0.382459
	H80	H	0.618663	0.097542	0.904315
	H81	H	0.386975	0.100022	0.095774
	H82	H	0.621140	0.917239	0.097109
	H83	H	0.387166	0.921011	0.909416
	H84	H	0.618557	0.914421	0.087775
	H85	H	0.384115	0.109644	0.095235
	H86	H	0.622320	0.108483	0.900772
	H87	H	0.385816	0.921966	0.903930
	H88	H	0.905358	0.108780	0.618098
	H89	H	0.092439	0.101221	0.385748
	H90	H	0.099237	0.914860	0.617586
	H91	H	0.903083	0.926095	0.384574
	H92	H	0.095356	0.625846	0.914525
	H93	H	0.095332	0.395105	0.091162
	H94	H	0.905426	0.630048	0.095067
	H95	H	0.914375	0.393737	0.899852
	H96	H	0.405893	0.129553	0.592896
	H97	H	0.600012	0.893669	0.591891
	H98	H	0.604089	0.132278	0.401030
	H99	H	0.405251	0.892334	0.405471
	H100	H	0.596103	0.403909	0.119289
	H101	H	0.596251	0.602990	0.884439
	H102	H	0.401934	0.606722	0.118038
	H103	H	0.409412	0.420745	0.883612
	H104	H	0.119323	0.599099	0.405351
	H105	H	0.887816	0.603412	0.591459
	H106	H	0.121152	0.417001	0.596780
	H107	H	0.885334	0.414364	0.407935
	H108	H	0.916188	0.626973	0.095710
	H109	H	0.099645	0.392838	0.093252
	H110	H	0.100149	0.631101	0.903567
	H111	H	0.913420	0.396318	0.910927
	H112	H	0.098283	0.921585	0.615527
	H113	H	0.094984	0.109674	0.382808
	H114	H	0.908161	0.099129	0.614312
	H115	H	0.921318	0.924667	0.389499
	H116	H	0.619837	0.106605	0.911743
	H117	H	0.387559	0.104394	0.087408
	H118	H	0.616752	0.923730	0.090582
	H119	H	0.385409	0.916897	0.906311
	C120	C	0.381019	0.020535	0.621728
	C121	C	0.624104	1.003521	0.620637
	C122	C	0.625261	0.019802	0.377200
	C123	C	0.382050	1.003168	0.378268
	C124	C	0.624949	0.389136	0.007544
	C125	C	0.624216	0.632721	0.991753
	C126	C	0.380457	0.633535	0.007704
	C127	C	0.381480	0.389628	0.990821
	C128	C	0.011833	0.633522	0.377963
	C129	C	0.995463	0.633253	0.621742
	C130	C	0.011083	0.390396	0.621376
	C131	C	0.994534	0.390519	0.378423
	C132	C	0.882197	0.519536	0.120930
	C133	C	0.124937	0.502632	0.121507
	C134	C	0.124367	0.519733	0.878258
	C135	C	0.881516	0.502400	0.877461
	C136	C	0.125498	0.889543	0.508078
	C137	C	0.124251	0.133088	0.491657
	C138	C	0.880990	0.134060	0.508225
	C139	C	0.882410	0.890602	0.492685
	C140	C	0.511409	0.132765	0.878048
	C141	C	0.494515	0.133023	0.120942
	C142	C	0.510823	0.890304	0.121149
	C143	C	0.494437	0.890187	0.877736
	C144	C	0.383092	0.897149	0.676724
	C145	C	0.621506	0.126696	0.675868
	C146	C	0.624379	0.896899	0.321275
	C147	C	0.383834	0.126348	0.323267
	C148	C	0.679455	0.392267	0.884533
	C149	C	0.679956	0.630293	0.114287
	C150	C	0.325628	0.630325	0.884770
	C151	C	0.326771	0.393057	0.113909
	C152	C	0.888545	0.689481	0.381027
	C153	C	0.119134	0.686961	0.618620
	C154	C	0.887969	0.335838	0.618469
	C155	C	0.117634	0.334638	0.381514
	C156	C	0.888005	0.392973	0.676271
	C157	C	0.118230	0.631008	0.677683
	C158	C	0.888987	0.632662	0.322114
	C159	C	0.117698	0.391222	0.323348
	C160	C	0.382838	0.688432	0.884896
	C161	C	0.621573	0.687684	0.114581
	C162	C	0.621823	0.334729	0.884649
	C163	C	0.384170	0.335155	0.113798
	C164	C	0.681421	0.896781	0.379653
	C165	C	0.678384	0.126763	0.617977
	C166	C	0.327336	0.896629	0.617936
	C167	C	0.326394	0.126550	0.380952
	C168	C	0.883733	0.396468	0.177326
	C169	C	0.121993	0.626037	0.176239
	C170	C	0.123370	0.396962	0.822605
	C171	C	0.883163	0.626150	0.823178
	C172	C	0.180500	0.892433	0.385353
	C173	C	0.179595	0.131069	0.614443
	C174	C	0.825941	0.131679	0.385696
	C175	C	0.826355	0.892502	0.614839
	C176	C	0.387561	0.187158	0.882128
	C177	C	0.618059	0.187381	0.117972
	C178	C	0.387299	0.835649	0.118883
	C179	C	0.617553	0.834360	0.880491
	C180	C	0.388060	0.892261	0.177398
	C181	C	0.617536	0.131036	0.176470
	C182	C	0.388120	0.130885	0.823376
	C183	C	0.617358	0.891492	0.822440
	C184	C	0.883897	0.188794	0.385343
	C185	C	0.121367	0.188322	0.614461
	C186	C	0.123296	0.834088	0.385377
	C187	C	0.884199	0.834639	0.614938
	C188	C	0.179610	0.396246	0.881566
	C189	C	0.178936	0.626326	0.118388
	C190	C	0.827712	0.395633	0.118310
	C191	C	0.825584	0.625774	0.880446
	C192	C	0.402876	0.106762	0.599850
	C193	C	0.601997	0.917402	0.598319
	C194	C	0.602326	0.105973	0.399305
	C195	C	0.404549	0.917135	0.400360
	C196	C	0.603317	0.410863	0.093486
	C197	C	0.601685	0.610430	0.906465
	C198	C	0.402659	0.611498	0.093358
	C199	C	0.403048	0.410950	0.904836
	C200	C	0.097436	0.610232	0.399816
	C201	C	0.909585	0.611298	0.599149
	C202	C	0.097265	0.412526	0.599425
	C203	C	0.908452	0.413500	0.400255
	C204	C	0.904371	0.604996	0.098587
	C205	C	0.103310	0.416033	0.099853
	C206	C	0.101408	0.605746	0.900884
	C207	C	0.904032	0.416299	0.898948
	C208	C	0.103277	0.911339	0.593886
	C209	C	0.102835	0.111072	0.406059
	C210	C	0.903114	0.111829	0.593482
	C211	C	0.905349	0.913484	0.407337
	C212	C	0.597884	0.110648	0.899253
	C213	C	0.408394	0.111143	0.099391
	C214	C	0.596572	0.912099	0.098388
	C215	C	0.408393	0.913143	0.899951
	Zn216	Zn	0.502653	0.011882	0.749076
	Zn217	Zn	0.502941	0.011626	0.249587
	Zn218	Zn	0.754097	0.510440	-0.000231
	Zn219	Zn	0.252698	0.511517	-0.000119
	Zn220	Zn	0.003894	0.761364	0.500538
	Zn221	Zn	0.002707	0.262280	0.499778
	Zn222	Zn	0.002790	0.511757	0.749869
	Zn223	Zn	0.003556	0.510769	0.249763
	Zn224	Zn	0.502281	0.761891	-0.000316
	Zn225	Zn	0.503063	0.260846	-0.000185
	Zn226	Zn	0.752842	0.012015	0.499872
	Zn227	Zn	0.253884	0.011851	0.500111
	N228	N	0.416028	0.975115	0.678870
	N229	N	0.588309	0.048895	0.677620
	N230	N	0.590106	0.974442	0.319876
	N231	N	0.417686	0.048650	0.321584
	N232	N	0.681518	0.425512	0.961944
	N233	N	0.681525	0.596625	0.036967
	N234	N	0.324007	0.597033	0.962256
	N235	N	0.324956	0.426261	0.036467
	N236	N	0.965944	0.690083	0.414953
	N237	N	0.041837	0.688411	0.584554
	N238	N	0.965453	0.334256	0.584904
	N239	N	0.040056	0.334210	0.415052
	N240	N	0.965759	0.426147	0.678233
	N241	N	0.040258	0.598300	0.679562
	N242	N	0.966678	0.598682	0.319907
	N243	N	0.040215	0.425575	0.321769
	N244	N	0.416215	0.690471	0.962222
	N245	N	0.587631	0.689497	0.037496
	N246	N	0.588728	0.332728	0.962193
	N247	N	0.417561	0.333103	0.036358
	N248	N	0.682153	0.974294	0.413569
	N249	N	0.679787	0.049197	0.584161
	N250	N	0.325810	0.974251	0.584612
	N251	N	0.325222	0.048936	0.414485
	N252	N	0.916930	0.474169	0.179151
	N253	N	0.088984	0.548075	0.178059
	N254	N	0.089525	0.474682	0.820794
	N255	N	0.917135	0.548551	0.821297
	N256	N	0.182375	0.925800	0.462748
	N257	N	0.181539	0.097413	0.537082
	N258	N	0.824061	0.098093	0.462823
	N259	N	0.825225	0.926765	0.537794
	N260	N	0.465283	0.188514	0.915209
	N261	N	0.540610	0.188702	0.084322
	N262	N	0.464790	0.834247	0.084704
	N263	N	0.540095	0.833636	0.914353
	N264	N	0.465623	0.925613	0.178906
	N265	N	0.539694	0.097809	0.178453
	N266	N	0.466106	0.097799	0.820677
	N267	N	0.539790	0.925544	0.820540
	N268	N	0.917339	0.190443	0.462662
	N269	N	0.087787	0.189802	0.537288
	N270	N	0.089669	0.832485	0.462778
	N271	N	0.918282	0.833248	0.537864
	N272	N	0.180343	0.473882	0.915483
	N273	N	0.180820	0.548637	0.085231
	N274	N	0.826688	0.472898	0.083766
	N275	N	0.824575	0.547982	0.913579
	O276	O	0.502182	0.537211	0.438000
	H277	H	0.493169	0.549059	0.448287
	H278	H	0.503782	0.544225	0.439696
	O279	O	-0.002366	-0.087210	-0.012995
	H280	H	-0.001692	-0.097021	-0.013589
	H281	H	-0.008274	-0.092137	-0.019671
	O282	O	0.973922	-0.105862	1.043948
	H283	H	0.969665	-0.110485	1.053532
	H284	H	0.960366	-0.102301	1.036878
	O285	O	0.490740	0.486211	0.444591
	H286	H	0.495395	0.494969	0.445477
	H287	H	0.498772	0.480537	0.434356
	O288	O	1.023390	-0.054425	0.020043
	H289	H	1.030240	-0.048116	0.022142
	H290	H	1.029093	-0.046896	0.013944
	O291	O	-0.484865	0.561711	-0.503962
	H292	H	-0.491612	0.561593	-0.503084
	H293	H	-0.488251	0.552304	-0.501300
	O294	O	0.516092	0.511989	0.429441
	H295	H	0.515434	0.515708	0.420410
	H296	H	0.527558	0.522675	0.432747
	O297	O	0.030086	0.938226	0.023346
	H298	H	0.040762	0.938007	0.021818
	H299	H	0.030905	0.927073	0.025775
	O300	O	0.932935	-0.088603	1.034306
	H301	H	0.927012	-0.081608	1.045778
	H302	H	0.937058	-0.087905	1.028397
	O303	O	0.488139	0.517305	0.520220
	H304	H	0.488730	0.511522	0.524498
	H305	H	0.476419	0.510975	0.514851
	O306	O	-0.049155	0.889275	1.041600
	H307	H	-0.052143	0.877169	1.041576
	H308	H	-0.050381	0.888495	1.048522
	O309	O	0.474067	0.517821	0.521166
	H310	H	0.475043	0.509817	0.512618
	H311	H	0.476614	0.515582	0.519907
