data_Molecule from HDF5

_cell_length_a		16.255150
_cell_length_b		16.169218
_cell_length_c		16.296225
_cell_angle_alpha	89.883005
_cell_angle_beta	89.864063
_cell_angle_gamma	90.032244
_symmetry_space_group_name_H-M	'P 1'
_symmetry_Int_Tables_number		1

loop_
	_symmetry_equiv_pos_as_xyz
	x,y,z

loop_
	_atom_site_label
	_atom_site_type_symbol
	_atom_site_fract_x
	_atom_site_fract_y
	_atom_site_fract_z
	H0	H	0.402479	0.838686	0.710714
	H1	H	0.602265	0.166977	0.709104
	H2	H	0.602434	0.838528	0.280220
	H3	H	0.402912	0.166892	0.280072
	H4	H	0.717320	0.403828	0.830911
	H5	H	0.716798	0.602458	0.158418
	H6	H	0.287340	0.603527	0.831438
	H7	H	0.285473	0.403824	0.158504
	H8	H	0.839348	0.717765	0.395125
	H9	H	0.167994	0.714418	0.590665
	H10	H	0.838285	0.288169	0.593093
	H11	H	0.168332	0.289864	0.396676
	H12	H	0.839232	0.401646	0.710057
	H13	H	0.165715	0.602013	0.709800
	H14	H	0.838659	0.601766	0.280205
	H15	H	0.165767	0.402826	0.277678
	H16	H	0.403710	0.718303	0.831487
	H17	H	0.599505	0.716719	0.159284
	H18	H	0.599401	0.289269	0.830611
	H19	H	0.400976	0.287202	0.158410
	H20	H	0.716699	0.837920	0.395895
	H21	H	0.717140	0.167043	0.592755
	H22	H	0.288059	0.838177	0.595640
	H23	H	0.288418	0.166990	0.396130
	H24	H	0.901501	0.338343	0.209431
	H25	H	0.101054	0.667079	0.208447
	H26	H	0.101599	0.338009	0.780363
	H27	H	0.902140	0.666517	0.778437
	H28	H	0.219680	0.903397	0.331487
	H29	H	0.218249	0.102442	0.657966
	H30	H	0.789071	0.102010	0.331317
	H31	H	0.787621	0.902064	0.657757
	H32	H	0.336859	0.215023	0.899248
	H33	H	0.665841	0.217123	0.091770
	H34	H	0.337341	0.788816	0.095224
	H35	H	0.666032	0.790362	0.898509
	H36	H	0.339096	0.902172	0.212895
	H37	H	0.666251	0.102653	0.209027
	H38	H	0.338299	0.102455	0.780260
	H39	H	0.665027	0.902759	0.779948
	H40	H	0.906187	0.216047	0.330600
	H41	H	0.101670	0.216893	0.658128
	H42	H	0.102301	0.789331	0.330637
	H43	H	0.905329	0.787385	0.657802
	H44	H	0.216943	0.338436	0.895053
	H45	H	0.215129	0.667934	0.092204
	H46	H	0.787857	0.337677	0.092325
	H47	H	0.788638	0.667795	0.895406
	H48	H	0.411516	0.117571	0.576119
	H49	H	0.591179	0.886742	0.586160
	H50	H	0.601182	0.122753	0.397902
	H51	H	0.412968	0.883497	0.393571
	H52	H	0.595348	0.405207	0.112063
	H53	H	0.587947	0.595039	0.881747
	H54	H	0.406624	0.589322	0.109380
	H55	H	0.412078	0.418052	0.880819
	H56	H	0.120789	0.593175	0.395968
	H57	H	0.888021	0.582333	0.593970
	H58	H	0.119450	0.410290	0.589361
	H59	H	0.892340	0.416656	0.411187
	H60	H	0.119810	0.408597	0.587767
	H61	H	0.880971	0.606725	0.594377
	H62	H	0.120919	0.599197	0.400681
	H63	H	0.884530	0.415327	0.389612
	H64	H	0.412128	0.598329	0.110892
	H65	H	0.597427	0.604408	0.875056
	H66	H	0.598940	0.413111	0.111290
	H67	H	0.413955	0.404246	0.878648
	H68	H	0.592131	0.119309	0.399742
	H69	H	0.598321	0.885416	0.584596
	H70	H	0.400788	0.123897	0.591560
	H71	H	0.419709	0.888886	0.409042
	H72	H	0.911440	0.618458	0.082175
	H73	H	0.091262	0.385967	0.089021
	H74	H	0.098158	0.621019	0.901793
	H75	H	0.911858	0.387507	0.906829
	H76	H	0.095231	0.895816	0.614598
	H77	H	0.097552	0.097372	0.377454
	H78	H	0.898175	0.094040	0.614206
	H79	H	0.902212	0.917257	0.378928
	H80	H	0.618976	0.089969	0.894795
	H81	H	0.385089	0.100385	0.084577
	H82	H	0.616909	0.915419	0.088722
	H83	H	0.381757	0.911115	0.892946
	H84	H	0.620450	0.907670	0.091445
	H85	H	0.387888	0.088319	0.086315
	H86	H	0.621482	0.103854	0.899881
	H87	H	0.383058	0.902963	0.905420
	H88	H	0.915650	0.085849	0.606870
	H89	H	0.099018	0.094639	0.377005
	H90	H	0.107431	0.914438	0.613181
	H91	H	0.919979	0.913221	0.381046
	H92	H	0.093373	0.620924	0.896427
	H93	H	0.094236	0.386403	0.083619
	H94	H	0.902390	0.622143	0.088455
	H95	H	0.904558	0.384022	0.902365
	H96	H	0.419325	0.119000	0.594207
	H97	H	0.596142	0.883762	0.592054
	H98	H	0.599133	0.119274	0.406608
	H99	H	0.403101	0.884361	0.407647
	H100	H	0.590981	0.411981	0.109191
	H101	H	0.601627	0.590286	0.879000
	H102	H	0.403073	0.598181	0.114307
	H103	H	0.400834	0.410621	0.876016
	H104	H	0.117959	0.592317	0.402982
	H105	H	0.889589	0.595585	0.573046
	H106	H	0.118904	0.410117	0.586685
	H107	H	0.883057	0.397095	0.403601
	H108	H	0.913169	0.620580	0.092513
	H109	H	0.096612	0.384039	0.087640
	H110	H	0.091237	0.618328	0.903004
	H111	H	0.912056	0.384658	0.897367
	H112	H	0.086374	0.914107	0.606573
	H113	H	0.095873	0.093717	0.378784
	H114	H	0.915214	0.105091	0.613144
	H115	H	0.907616	0.900476	0.373529
	H116	H	0.616378	0.093431	0.908397
	H117	H	0.382926	0.095254	0.095626
	H118	H	0.617657	0.908223	0.082275
	H119	H	0.387745	0.917245	0.905394
	C120	C	0.381404	0.011439	0.616773
	C121	C	0.624388	0.993978	0.616195
	C122	C	0.625176	0.011636	0.372933
	C123	C	0.382657	0.994199	0.374644
	C124	C	0.623679	0.381130	0.002907
	C125	C	0.624006	0.625325	0.986636
	C126	C	0.379411	0.624770	0.003380
	C127	C	0.379787	0.381603	0.986799
	C128	C	0.011285	0.623705	0.371951
	C129	C	0.994618	0.623197	0.615271
	C130	C	0.011184	0.380270	0.616496
	C131	C	0.994565	0.380557	0.372212
	C132	C	0.879884	0.511412	0.116526
	C133	C	0.123145	0.494197	0.115268
	C134	C	0.123626	0.511534	0.872256
	C135	C	0.880677	0.494174	0.873076
	C136	C	0.125239	0.880615	0.503261
	C137	C	0.125275	0.124135	0.486233
	C138	C	0.881803	0.123873	0.503004
	C139	C	0.881399	0.880696	0.485663
	C140	C	0.510398	0.124672	0.872930
	C141	C	0.493587	0.124150	0.116901
	C142	C	0.510199	0.881112	0.117344
	C143	C	0.492936	0.881590	0.873271
	C144	C	0.382735	0.887835	0.672634
	C145	C	0.622178	0.117849	0.671241
	C146	C	0.622731	0.887837	0.317848
	C147	C	0.383612	0.117910	0.318345
	C148	C	0.679119	0.383562	0.879717
	C149	C	0.678951	0.622811	0.109645
	C150	C	0.325068	0.623335	0.880163
	C151	C	0.323456	0.383204	0.109553
	C152	C	0.888245	0.679528	0.375011
	C153	C	0.118454	0.677683	0.612161
	C154	C	0.887597	0.325383	0.613856
	C155	C	0.118486	0.326593	0.375575
	C156	C	0.887954	0.381965	0.672001
	C157	C	0.117260	0.621644	0.671205
	C158	C	0.887817	0.621674	0.317825
	C159	C	0.117512	0.382927	0.316408
	C160	C	0.383014	0.680408	0.880288
	C161	C	0.621024	0.680193	0.109945
	C162	C	0.620126	0.326799	0.879519
	C163	C	0.381073	0.325508	0.109577
	C164	C	0.679610	0.887567	0.375386
	C165	C	0.679560	0.117910	0.613487
	C166	C	0.325798	0.887630	0.615417
	C167	C	0.326870	0.118011	0.376301
	C168	C	0.881794	0.387255	0.171232
	C169	C	0.121503	0.617924	0.170836
	C170	C	0.121637	0.387330	0.817947
	C171	C	0.882184	0.617501	0.816534
	C172	C	0.181293	0.883282	0.380162
	C173	C	0.180331	0.122067	0.609162
	C174	C	0.827191	0.121825	0.380110
	C175	C	0.825864	0.882326	0.608917
	C176	C	0.386364	0.178725	0.877134
	C177	C	0.617021	0.179426	0.113112
	C178	C	0.386798	0.826291	0.115444
	C179	C	0.616739	0.827126	0.877003
	C180	C	0.387501	0.883073	0.173829
	C181	C	0.617214	0.122461	0.171312
	C182	C	0.387293	0.122993	0.817853
	C183	C	0.616308	0.883107	0.818137
	C184	C	0.885258	0.178538	0.379798
	C185	C	0.121951	0.178879	0.609287
	C186	C	0.122941	0.826619	0.379707
	C187	C	0.884327	0.825246	0.609028
	C188	C	0.179165	0.387591	0.874947
	C189	C	0.177625	0.618653	0.112545
	C190	C	0.825181	0.387099	0.113200
	C191	C	0.825932	0.618280	0.874857
	C192	C	0.403934	0.097754	0.594003
	C193	C	0.601848	0.907632	0.594049
	C194	C	0.603695	0.098107	0.395049
	C195	C	0.405285	0.907874	0.396997
	C196	C	0.601496	0.403349	0.088750
	C197	C	0.602080	0.603137	0.900882
	C198	C	0.400884	0.602048	0.089309
	C199	C	0.402370	0.404237	0.900691
	C200	C	0.097578	0.601464	0.393530
	C201	C	0.908477	0.601227	0.593418
	C202	C	0.097196	0.402878	0.594445
	C203	C	0.908601	0.403044	0.394858
	C204	C	0.902358	0.598014	0.094333
	C205	C	0.100690	0.407850	0.093299
	C206	C	0.101152	0.597844	0.893991
	C207	C	0.902868	0.407905	0.895562
	C208	C	0.102966	0.901836	0.589158
	C209	C	0.103780	0.101968	0.399974
	C210	C	0.903227	0.101580	0.589280
	C211	C	0.903500	0.903417	0.399859
	C212	C	0.596463	0.102365	0.894645
	C213	C	0.407519	0.101565	0.095225
	C214	C	0.596170	0.903766	0.094245
	C215	C	0.406550	0.903843	0.894968
	Zn216	Zn	0.502227	0.002752	0.744623
	Zn217	Zn	0.503039	0.002672	0.245682
	Zn218	Zn	0.752624	0.503536	-0.005190
	Zn219	Zn	0.251150	0.503279	-0.005661
	Zn220	Zn	0.003714	0.752153	0.493853
	Zn221	Zn	0.003078	0.252421	0.494835
	Zn222	Zn	0.002248	0.501904	0.744605
	Zn223	Zn	0.002139	0.502435	0.243438
	Zn224	Zn	0.501359	0.753227	-0.004599
	Zn225	Zn	0.501298	0.252604	-0.005119
	Zn226	Zn	0.753313	0.002662	0.494504
	Zn227	Zn	0.253920	0.002428	0.495157
	N228	N	0.416705	0.965774	0.673378
	N229	N	0.588494	0.039698	0.672975
	N230	N	0.589756	0.966119	0.316133
	N231	N	0.417663	0.039978	0.317320
	N232	N	0.681224	0.417038	0.957278
	N233	N	0.681186	0.589763	0.031902
	N234	N	0.322761	0.589574	0.957644
	N235	N	0.322417	0.417172	0.032001
	N236	N	0.966129	0.680895	0.407946
	N237	N	0.041073	0.678760	0.578022
	N238	N	0.965097	0.324307	0.580018
	N239	N	0.040918	0.325127	0.409628
	N240	N	0.965872	0.415435	0.673896
	N241	N	0.039295	0.588473	0.673244
	N242	N	0.965417	0.587925	0.315647
	N243	N	0.039293	0.415620	0.314131
	N244	N	0.415921	0.681570	0.957993
	N245	N	0.587393	0.681739	0.032533
	N246	N	0.586469	0.325123	0.957083
	N247	N	0.415349	0.324418	0.032134
	N248	N	0.681250	0.965493	0.409076
	N249	N	0.681155	0.039943	0.580060
	N250	N	0.324987	0.965517	0.580998
	N251	N	0.326179	0.040195	0.410594
	N252	N	0.914949	0.465574	0.173433
	N253	N	0.088040	0.539736	0.172406
	N254	N	0.087991	0.465227	0.815938
	N255	N	0.915720	0.539369	0.815378
	N256	N	0.182828	0.916267	0.458019
	N257	N	0.182592	0.088834	0.531469
	N258	N	0.824871	0.088613	0.457909
	N259	N	0.823827	0.915765	0.531226
	N260	N	0.463992	0.180009	0.910575
	N261	N	0.539195	0.180664	0.080116
	N262	N	0.464099	0.825213	0.080873
	N263	N	0.538935	0.826123	0.910622
	N264	N	0.465484	0.916201	0.175109
	N265	N	0.539430	0.088931	0.173761
	N266	N	0.465377	0.090113	0.815104
	N267	N	0.538257	0.916092	0.815705
	N268	N	0.918622	0.179680	0.457283
	N269	N	0.088722	0.180399	0.531763
	N270	N	0.089037	0.824620	0.457086
	N271	N	0.918104	0.823968	0.531412
	N272	N	0.180497	0.465887	0.908132
	N273	N	0.178565	0.540847	0.078549
	N274	N	0.823708	0.465514	0.080174
	N275	N	0.824830	0.540701	0.909322
	O276	O	0.046919	-0.007020	0.001737
	H277	H	0.048583	-0.015485	0.001993
	H278	H	0.045427	-0.005393	0.008184
	O279	O	0.458426	0.552248	0.440715
	H280	H	0.454199	0.560331	0.447438
	H281	H	0.458412	0.564206	0.436606
	O282	O	0.668723	0.469449	0.519212
	H283	H	0.667060	0.473474	0.509220
	H284	H	0.672892	0.466285	0.525089
	O285	O	1.017689	-0.031461	0.958063
	H286	H	1.016817	-0.028970	0.954271
	H287	H	1.014136	-0.041983	0.963989
	O288	O	0.969850	-0.013103	0.064408
	H289	H	0.966247	-0.018124	0.062610
	H290	H	0.973072	-0.004610	0.061978
	O291	O	0.479455	0.475735	0.423033
	H292	H	0.471069	0.484673	0.419176
	H293	H	0.487721	0.473956	0.426323
	O294	O	1.036066	-0.070015	0.968738
	H295	H	1.033676	-0.070710	0.957709
	H296	H	1.034806	-0.076461	0.962408
	O297	O	-0.051355	-0.046061	0.012839
	H298	H	-0.064652	-0.056906	0.020626
	H299	H	-0.057953	-0.044831	0.004545
	O300	O	0.542371	0.421245	0.475897
	H301	H	0.543950	0.417134	0.471962
	H302	H	0.535455	0.413255	0.465443
	O303	O	0.515110	0.422116	0.522376
	H304	H	0.517399	0.424123	0.519408
	H305	H	0.504109	0.419406	0.526526
	O306	O	0.925154	-0.008298	0.015195
	H307	H	0.929033	-0.000816	0.024641
	H308	H	0.917958	-0.008862	0.026578
	O309	O	-0.016208	0.043038	0.948187
	H310	H	-0.008925	0.045878	0.946006
	H311	H	-0.019971	0.035208	0.949806
	O312	O	0.989589	1.034763	0.910451
	H313	H	0.989687	1.030104	0.906907
	H314	H	0.985873	1.045497	0.919246
	O315	O	0.537644	0.567810	0.530885
	H316	H	0.547093	0.566634	0.537160
	H317	H	0.525968	0.555749	0.539154
	O318	O	0.557936	0.487516	0.399622
	H319	H	0.563946	0.483538	0.397478
	H320	H	0.553421	0.490069	0.406601
	O321	O	0.480343	1.579859	1.461854
	H322	H	0.470061	1.581904	1.457627
	H323	H	0.476417	1.573712	1.475738
	O324	O	0.567755	0.526332	0.466971
	H325	H	0.571876	0.523234	0.463217
	H326	H	0.577068	0.528904	0.468252
	O327	O	0.451436	0.503015	0.483092
	H328	H	0.448599	0.498518	0.493174
	H329	H	0.453485	0.496492	0.482764
	O330	O	0.547612	0.510933	0.564077
	H331	H	0.548420	0.504742	0.558605
	H332	H	0.553210	0.509458	0.566668
	O333	O	0.419738	0.453424	0.531327
	H334	H	0.421166	0.451424	0.539600
	H335	H	0.410395	0.458071	0.525903
	O336	O	0.466616	0.495811	0.586084
	H337	H	0.465869	0.498018	0.598477
	H338	H	0.473734	0.501898	0.583592
	O339	O	0.948955	1.048841	-0.072930
	H340	H	0.944106	1.053441	-0.077350
	H341	H	0.944773	1.051109	-0.072556
	O342	O	0.437536	0.457698	0.531083
	H343	H	0.426850	0.453079	0.522777
	H344	H	0.441022	0.462316	0.524769
	O345	O	0.530196	0.565686	0.458178
	H346	H	0.532655	0.558101	0.455590
	H347	H	0.530278	0.556703	0.465354
	O348	O	-0.021384	-0.037065	0.066979
	H349	H	-0.015477	-0.040440	0.080902
	H350	H	-0.023646	-0.029341	0.070247
	O351	O	0.032862	0.984206	0.954824
	H352	H	0.041323	0.988293	0.949007
	H353	H	0.039223	0.973989	0.950975
	O354	O	0.444258	0.539488	0.528947
	H355	H	0.447069	0.550088	0.520277
	H356	H	0.447882	0.538118	0.529978
	O357	O	-0.003376	0.988250	1.010542
	H358	H	0.006698	0.981843	1.002169
	H359	H	-0.008264	1.000314	1.002948
