data_Molecule from HDF5

_cell_length_a		16.360889
_cell_length_b		16.195665
_cell_length_c		16.184481
_cell_angle_alpha	90.128373
_cell_angle_beta	89.650520
_cell_angle_gamma	89.786781
_symmetry_space_group_name_H-M	'P 1'
_symmetry_Int_Tables_number		1

loop_
	_symmetry_equiv_pos_as_xyz
	x,y,z

loop_
	_atom_site_label
	_atom_site_type_symbol
	_atom_site_fract_x
	_atom_site_fract_y
	_atom_site_fract_z
	H0	H	0.410853	0.843545	0.701060
	H1	H	0.604067	0.173102	0.700796
	H2	H	0.608133	0.844229	0.273610
	H3	H	0.410888	0.174400	0.274950
	H4	H	0.726629	0.407946	0.825990
	H5	H	0.719142	0.609722	0.153959
	H6	H	0.293976	0.608644	0.824072
	H7	H	0.292993	0.410958	0.153077
	H8	H	0.844957	0.724962	0.393356
	H9	H	0.171550	0.725238	0.588392
	H10	H	0.843994	0.296009	0.588500
	H11	H	0.171097	0.294179	0.389045
	H12	H	0.845208	0.413616	0.704984
	H13	H	0.172467	0.607042	0.701956
	H14	H	0.843945	0.607423	0.278240
	H15	H	0.169463	0.409452	0.271550
	H16	H	0.412335	0.720562	0.822437
	H17	H	0.601688	0.722187	0.152997
	H18	H	0.607931	0.295860	0.823380
	H19	H	0.410099	0.296801	0.153211
	H20	H	0.725373	0.845563	0.386407
	H21	H	0.721533	0.173043	0.587651
	H22	H	0.292421	0.845324	0.589359
	H23	H	0.292056	0.172396	0.387153
	H24	H	0.909399	0.344614	0.202467
	H25	H	0.102093	0.675124	0.201807
	H26	H	0.106908	0.345158	0.775310
	H27	H	0.910985	0.675422	0.777568
	H28	H	0.226254	0.907200	0.325131
	H29	H	0.223670	0.110469	0.652350
	H30	H	0.795423	0.107858	0.323790
	H31	H	0.791889	0.909360	0.651879
	H32	H	0.344635	0.225975	0.888445
	H33	H	0.671449	0.222969	0.084530
	H34	H	0.344704	0.795851	0.086410
	H35	H	0.670701	0.792837	0.887638
	H36	H	0.345494	0.910492	0.204043
	H37	H	0.671927	0.105060	0.200090
	H38	H	0.344337	0.107536	0.773395
	H39	H	0.671094	0.910872	0.773169
	H40	H	0.910537	0.222581	0.324093
	H41	H	0.104003	0.222218	0.653589
	H42	H	0.107515	0.795016	0.324232
	H43	H	0.911431	0.799040	0.654472
	H44	H	0.223207	0.345089	0.888521
	H45	H	0.221891	0.673521	0.089839
	H46	H	0.791727	0.345969	0.089733
	H47	H	0.793202	0.673917	0.891747
	H48	H	0.408932	0.128546	0.583486
	H49	H	0.606116	0.888410	0.585582
	H50	H	0.611979	0.129054	0.394065
	H51	H	0.420831	0.895442	0.402201
	H52	H	0.600060	0.425916	0.103835
	H53	H	0.609618	0.601395	0.868902
	H54	H	0.418010	0.612301	0.107260
	H55	H	0.422161	0.419420	0.873849
	H56	H	0.123588	0.599195	0.393831
	H57	H	0.892393	0.606042	0.581273
	H58	H	0.124364	0.416766	0.584842
	H59	H	0.895039	0.421506	0.402361
	H60	H	0.125051	0.412101	0.582216
	H61	H	0.893077	0.601013	0.585075
	H62	H	0.124914	0.603249	0.394571
	H63	H	0.889801	0.418287	0.389233
	H64	H	0.402123	0.601023	0.108023
	H65	H	0.600709	0.593722	0.873866
	H66	H	0.592979	0.411956	0.106117
	H67	H	0.414009	0.410435	0.868293
	H68	H	0.597846	0.127652	0.386552
	H69	H	0.595688	0.892194	0.579572
	H70	H	0.420390	0.124984	0.583207
	H71	H	0.410001	0.890079	0.398085
	H72	H	0.915838	0.623725	0.075014
	H73	H	0.105040	0.391829	0.078826
	H74	H	0.098164	0.623964	0.903846
	H75	H	0.917830	0.394905	0.901277
	H76	H	0.106878	0.916607	0.607280
	H77	H	0.097220	0.103631	0.371517
	H78	H	0.910275	0.102167	0.607675
	H79	H	0.912275	0.928005	0.372984
	H80	H	0.622632	0.105432	0.899704
	H81	H	0.390590	0.107846	0.083184
	H82	H	0.620746	0.919350	0.073325
	H83	H	0.391533	0.911042	0.898028
	H84	H	0.625665	0.918098	0.088742
	H85	H	0.394098	0.101981	0.076075
	H86	H	0.621493	0.094928	0.893371
	H87	H	0.392175	0.919794	0.895856
	H88	H	0.914062	0.099179	0.604612
	H89	H	0.105957	0.101562	0.369244
	H90	H	0.100233	0.924221	0.603787
	H91	H	0.927284	0.913026	0.373723
	H92	H	0.110638	0.630107	0.896486
	H93	H	0.100081	0.391472	0.084270
	H94	H	0.902259	0.630805	0.084390
	H95	H	0.912682	0.391597	0.897627
	H96	H	0.413925	0.123819	0.573216
	H97	H	0.606729	0.891899	0.573546
	H98	H	0.599013	0.123630	0.402304
	H99	H	0.419817	0.891518	0.389702
	H100	H	0.608380	0.413015	0.109041
	H101	H	0.597679	0.604898	0.870175
	H102	H	0.419053	0.593589	0.101771
	H103	H	0.409800	0.422550	0.870378
	H104	H	0.122812	0.601539	0.398175
	H105	H	0.890990	0.607103	0.587394
	H106	H	0.123070	0.415532	0.579513
	H107	H	0.889918	0.407467	0.399553
	H108	H	0.917587	0.627878	0.091828
	H109	H	0.097575	0.394560	0.078065
	H110	H	0.097909	0.628209	0.888962
	H111	H	0.918424	0.392968	0.894341
	H112	H	0.096250	0.913929	0.605391
	H113	H	0.100633	0.094641	0.373794
	H114	H	0.915158	0.104717	0.606943
	H115	H	0.907986	0.907667	0.366250
	H116	H	0.625485	0.105269	0.887303
	H117	H	0.391909	0.098667	0.085539
	H118	H	0.626574	0.905879	0.079121
	H119	H	0.389591	0.913755	0.889527
	C120	C	0.386856	0.017283	0.609154
	C121	C	0.629525	0.999848	0.608320
	C122	C	0.630945	0.017668	0.365780
	C123	C	0.387828	1.001219	0.367326
	C124	C	0.629694	0.387831	-0.002653
	C125	C	0.629061	0.629867	0.979770
	C126	C	0.385596	0.631103	-0.003193
	C127	C	0.386475	0.388530	0.979755
	C128	C	0.016093	0.630875	0.368105
	C129	C	1.000288	0.632215	0.612025
	C130	C	0.016325	0.386978	0.611566
	C131	C	0.998932	0.386705	0.366828
	C132	C	0.884153	0.518446	0.111835
	C133	C	0.128488	0.501346	0.110060
	C134	C	0.130703	0.518369	0.867383
	C135	C	0.887537	0.501695	0.869265
	C136	C	0.130688	0.887879	0.497358
	C137	C	0.129546	0.129826	0.480082
	C138	C	0.885602	0.130531	0.497280
	C139	C	0.887208	0.888350	0.480032
	C140	C	0.515740	0.131127	0.865231
	C141	C	0.499972	0.130613	0.109357
	C142	C	0.516668	0.886662	0.109668
	C143	C	0.499218	0.886412	0.865543
	C144	C	0.390030	0.893020	0.663911
	C145	C	0.625273	0.123934	0.663484
	C146	C	0.628136	0.893599	0.311105
	C147	C	0.390289	0.124768	0.312134
	C148	C	0.686896	0.388921	0.874284
	C149	C	0.682138	0.628983	0.104318
	C150	C	0.331482	0.628764	0.873054
	C151	C	0.330900	0.390642	0.103734
	C152	C	0.893492	0.686589	0.372442
	C153	C	0.123063	0.686964	0.608649
	C154	C	0.893309	0.333261	0.609176
	C155	C	0.121746	0.331418	0.368251
	C156	C	0.893761	0.391532	0.667169
	C157	C	0.123352	0.628703	0.665674
	C158	C	0.892877	0.628154	0.315157
	C159	C	0.121285	0.389042	0.310166
	C160	C	0.390261	0.684686	0.872403
	C161	C	0.623722	0.684802	0.103929
	C162	C	0.627962	0.333031	0.873191
	C163	C	0.389254	0.334362	0.104053
	C164	C	0.686577	0.894201	0.367323
	C165	C	0.683722	0.123900	0.607129
	C166	C	0.331176	0.893836	0.608283
	C167	C	0.330793	0.123831	0.367608
	C168	C	0.888141	0.394128	0.165722
	C169	C	0.123886	0.625405	0.164958
	C170	C	0.127589	0.394512	0.812651
	C171	C	0.890488	0.626002	0.814996
	C172	C	0.187474	0.887966	0.373883
	C173	C	0.184836	0.129275	0.603587
	C174	C	0.832143	0.128313	0.373096
	C175	C	0.831134	0.890452	0.603398
	C176	C	0.393287	0.187250	0.868019
	C177	C	0.622761	0.185238	0.105644
	C178	C	0.393609	0.832993	0.107361
	C179	C	0.622021	0.830981	0.867450
	C180	C	0.394167	0.889800	0.165895
	C181	C	0.623011	0.126603	0.162852
	C182	C	0.393143	0.128610	0.810779
	C183	C	0.622203	0.889587	0.810662
	C184	C	0.889588	0.185348	0.373438
	C185	C	0.125319	0.184704	0.604158
	C186	C	0.128650	0.832161	0.373581
	C187	C	0.890761	0.835838	0.604899
	C188	C	0.185961	0.394653	0.868533
	C189	C	0.183329	0.624773	0.108865
	C190	C	0.829704	0.394745	0.109466
	C191	C	0.831406	0.625076	0.871039
	C192	C	0.408309	0.103427	0.586651
	C193	C	0.608897	0.913285	0.586133
	C194	C	0.609257	0.104469	0.387844
	C195	C	0.410236	0.914604	0.390142
	C196	C	0.607075	0.410223	0.083867
	C197	C	0.608677	0.606829	0.893213
	C198	C	0.406896	0.609053	0.083431
	C199	C	0.408593	0.410698	0.893296
	C200	C	0.101683	0.608259	0.389327
	C201	C	0.914549	0.610852	0.590799
	C202	C	0.102012	0.408448	0.588761
	C203	C	0.913517	0.409357	0.389978
	C204	C	0.905525	0.605111	0.090315
	C205	C	0.107217	0.414736	0.087079
	C206	C	0.108747	0.605050	0.889768
	C207	C	0.909757	0.415567	0.891345
	C208	C	0.107933	0.911369	0.583333
	C209	C	0.107734	0.106630	0.393822
	C210	C	0.906656	0.108441	0.584094
	C211	C	0.909331	0.909831	0.393296
	C212	C	0.601189	0.108593	0.887023
	C213	C	0.414360	0.109291	0.087931
	C214	C	0.602259	0.908023	0.086870
	C215	C	0.413451	0.908295	0.887915
	Zn216	Zn	0.507815	0.008315	0.736733
	Zn217	Zn	0.508516	0.008820	0.238629
	Zn218	Zn	0.757166	0.509717	-0.010409
	Zn219	Zn	0.258000	0.509707	-0.011385
	Zn220	Zn	0.008846	0.760510	0.489691
	Zn221	Zn	0.007655	0.257757	0.488758
	Zn222	Zn	0.008731	0.510297	0.740179
	Zn223	Zn	0.006570	0.508934	0.238569
	Zn224	Zn	0.507634	0.758085	-0.012351
	Zn225	Zn	0.507572	0.260270	-0.011973
	Zn226	Zn	0.758566	0.009063	0.487496
	Zn227	Zn	0.258913	0.009419	0.488403
	N228	N	0.423908	0.970700	0.664629
	N229	N	0.592504	0.045892	0.664559
	N230	N	0.594229	0.971478	0.309991
	N231	N	0.424779	0.047136	0.311930
	N232	N	0.688178	0.422038	0.952617
	N233	N	0.685235	0.595207	0.026064
	N234	N	0.328484	0.596276	0.951542
	N235	N	0.329184	0.423643	0.025429
	N236	N	0.971084	0.688214	0.404714
	N237	N	0.045613	0.689491	0.576153
	N238	N	0.970648	0.330357	0.575296
	N239	N	0.044769	0.330085	0.402984
	N240	N	0.971320	0.423839	0.668939
	N241	N	0.046112	0.595306	0.667797
	N242	N	0.969976	0.594063	0.312435
	N243	N	0.043841	0.422359	0.309106
	N244	N	0.423227	0.686041	0.950436
	N245	N	0.591769	0.685851	0.025682
	N246	N	0.592922	0.332443	0.950770
	N247	N	0.423008	0.332699	0.026060
	N248	N	0.688534	0.972406	0.400486
	N249	N	0.686481	0.045851	0.573446
	N250	N	0.328861	0.972081	0.575072
	N251	N	0.329334	0.045852	0.401365
	N252	N	0.921359	0.472149	0.167319
	N253	N	0.090621	0.547457	0.165734
	N254	N	0.093973	0.472492	0.811717
	N255	N	0.924767	0.548256	0.813626
	N256	N	0.188736	0.922113	0.451760
	N257	N	0.187703	0.095838	0.525295
	N258	N	0.829712	0.094941	0.451228
	N259	N	0.828699	0.922344	0.524641
	N260	N	0.470451	0.189029	0.901217
	N261	N	0.545237	0.187762	0.072943
	N262	N	0.470741	0.830847	0.073158
	N263	N	0.544547	0.828988	0.900871
	N264	N	0.471617	0.922357	0.167537
	N265	N	0.545918	0.093402	0.165271
	N266	N	0.470410	0.094578	0.808715
	N267	N	0.544887	0.923536	0.809492
	N268	N	0.921908	0.186985	0.451796
	N269	N	0.091965	0.185300	0.526362
	N270	N	0.094138	0.832026	0.451248
	N271	N	0.924785	0.834176	0.527070
	N272	N	0.187949	0.472752	0.901965
	N273	N	0.186243	0.546543	0.075371
	N274	N	0.827316	0.472969	0.076761
	N275	N	0.829609	0.547002	0.904244
	O276	O	1.087546	0.967110	-0.042916
	H277	H	1.087432	0.963997	-0.043200
	H278	H	1.090456	0.968528	-0.041755
	O279	O	0.008816	0.113225	0.964810
	H280	H	0.021696	0.120320	0.967273
	H281	H	0.000889	0.104547	0.983806
	O282	O	0.533195	-0.437822	0.506584
	H283	H	0.530028	-0.447332	0.506148
	H284	H	0.520670	-0.436468	0.509614
	O285	O	0.493301	0.402924	0.423420
	H286	H	0.487905	0.398664	0.442540
	H287	H	0.494533	0.384750	0.423596
	O288	O	0.024106	-0.038858	-0.063942
	H289	H	0.016215	-0.039549	-0.069703
	H290	H	0.027938	-0.047624	-0.070732
	O291	O	0.054948	1.013628	-0.063698
	H292	H	0.057158	1.008788	-0.067338
	H293	H	0.056444	1.020380	-0.067454
	O294	O	-0.515444	0.489103	-0.459733
	H295	H	-0.517394	0.484214	-0.455652
	H296	H	-0.518279	0.491449	-0.458248
	O297	O	0.441318	0.494518	0.537186
	H298	H	0.444338	0.506378	0.526852
	H299	H	0.451670	0.493178	0.536791
	O300	O	0.545357	0.412494	0.528248
	H301	H	0.544126	0.418727	0.530887
	H302	H	0.549501	0.416590	0.528527
	O303	O	0.972220	0.091894	0.946142
	H304	H	0.971361	0.089681	0.943982
	H305	H	0.982154	0.094518	0.952904
	O306	O	0.032376	1.012903	0.985215
	H307	H	0.032237	1.012549	0.984725
	H308	H	0.032285	1.014392	0.997828
	O309	O	-0.447742	0.448216	1.442794
	H310	H	-0.444844	0.450212	1.442198
	H311	H	-0.439533	0.439952	1.433053
	O312	O	0.003347	0.100740	1.074911
	H313	H	0.000877	0.088775	1.078358
	H314	H	-0.006138	0.107500	1.074967
	O315	O	0.512541	0.473319	0.556006
	H316	H	0.505057	0.471703	0.567044
	H317	H	0.521325	0.477871	0.549176
	O318	O	-0.035912	0.086770	1.038458
	H319	H	-0.039846	0.077340	1.040560
	H320	H	-0.037246	0.090166	1.031575
	O321	O	1.003171	1.038402	1.054688
	H322	H	0.994732	1.039198	1.044035
	H323	H	1.003679	1.042622	1.051339
	O324	O	0.040446	-1.040645	0.953466
	H325	H	0.049865	-1.039475	0.950266
	H326	H	0.047496	-1.050920	0.954332
	O327	O	0.985775	1.018823	0.979678
	H328	H	0.984941	1.027247	0.972427
	H329	H	0.979078	1.026027	0.977357
	O330	O	0.512556	0.521259	0.499806
	H331	H	0.518273	0.520353	0.498892
	H332	H	0.504933	0.518282	0.490752
	O333	O	0.555624	0.530467	0.470109
	H334	H	0.551152	0.529945	0.469510
	H335	H	0.558292	0.540461	0.470952
	O336	O	0.470935	0.480094	0.461867
	H337	H	0.472714	0.476314	0.469130
	H338	H	0.482789	0.475363	0.459708
	O339	O	0.519353	0.515114	0.525734
	H340	H	0.517469	0.506316	0.525118
	H341	H	0.518817	0.524720	0.518873
	O342	O	0.487448	0.592536	0.469202
	H343	H	0.482785	0.581894	0.460726
	H344	H	0.486813	0.589775	0.469718
	O345	O	0.521512	0.478278	0.540624
	H346	H	0.516794	0.481076	0.535259
	H347	H	0.514806	0.479775	0.545129
