data_Molecule from HDF5

_cell_length_a		16.309815
_cell_length_b		16.142375
_cell_length_c		16.285771
_cell_angle_alpha	89.742951
_cell_angle_beta	89.829680
_cell_angle_gamma	90.280020
_symmetry_space_group_name_H-M	'P 1'
_symmetry_Int_Tables_number		1

loop_
	_symmetry_equiv_pos_as_xyz
	x,y,z

loop_
	_atom_site_label
	_atom_site_type_symbol
	_atom_site_fract_x
	_atom_site_fract_y
	_atom_site_fract_z
	H0	H	0.399177	0.846005	0.712708
	H1	H	0.602584	0.172764	0.708872
	H2	H	0.599471	0.843127	0.282623
	H3	H	0.404530	0.173587	0.279310
	H4	H	0.723209	0.410804	0.835494
	H5	H	0.720439	0.609309	0.162222
	H6	H	0.288300	0.612090	0.835699
	H7	H	0.288783	0.406940	0.160475
	H8	H	0.838319	0.720284	0.402279
	H9	H	0.165565	0.726944	0.596218
	H10	H	0.840267	0.292668	0.599736
	H11	H	0.167220	0.294872	0.400649
	H12	H	0.841519	0.409064	0.716119
	H13	H	0.168295	0.610646	0.711435
	H14	H	0.840845	0.608513	0.282808
	H15	H	0.167215	0.410092	0.283541
	H16	H	0.410724	0.720143	0.832588
	H17	H	0.603123	0.724405	0.160906
	H18	H	0.603578	0.297497	0.832518
	H19	H	0.406190	0.292629	0.160244
	H20	H	0.717368	0.844159	0.394697
	H21	H	0.717398	0.172718	0.592917
	H22	H	0.287191	0.844790	0.594811
	H23	H	0.289742	0.174358	0.394559
	H24	H	0.905399	0.344218	0.213270
	H25	H	0.104221	0.674160	0.212113
	H26	H	0.105151	0.344948	0.783705
	H27	H	0.908669	0.673949	0.784057
	H28	H	0.218711	0.909431	0.333352
	H29	H	0.221465	0.111583	0.657753
	H30	H	0.790460	0.109108	0.332040
	H31	H	0.782971	0.906986	0.658636
	H32	H	0.340782	0.226651	0.895998
	H33	H	0.668655	0.221711	0.090863
	H34	H	0.341072	0.791324	0.096050
	H35	H	0.667868	0.797899	0.898144
	H36	H	0.339596	0.908039	0.210627
	H37	H	0.666056	0.110917	0.211600
	H38	H	0.339802	0.110124	0.779647
	H39	H	0.664742	0.909607	0.777972
	H40	H	0.907111	0.224810	0.333955
	H41	H	0.099602	0.219006	0.662814
	H42	H	0.100228	0.796221	0.333684
	H43	H	0.903987	0.796072	0.661911
	H44	H	0.219565	0.345101	0.899319
	H45	H	0.220054	0.674107	0.096412
	H46	H	0.789669	0.345136	0.099702
	H47	H	0.794334	0.674881	0.900691
	H48	H	0.411489	0.125159	0.582052
	H49	H	0.597292	0.891452	0.581867
	H50	H	0.598638	0.127662	0.397638
	H51	H	0.416391	0.894799	0.403719
	H52	H	0.599513	0.412071	0.115513
	H53	H	0.605124	0.603144	0.881114
	H54	H	0.410460	0.596729	0.113452
	H55	H	0.413538	0.417579	0.881050
	H56	H	0.119574	0.600525	0.402032
	H57	H	0.884836	0.598375	0.606012
	H58	H	0.115926	0.417580	0.579256
	H59	H	0.883830	0.415946	0.396319
	H60	H	0.120749	0.425264	0.602824
	H61	H	0.885629	0.611851	0.588383
	H62	H	0.120900	0.606768	0.403193
	H63	H	0.888118	0.409180	0.415734
	H64	H	0.416410	0.599091	0.112660
	H65	H	0.599944	0.601171	0.881607
	H66	H	0.599661	0.419253	0.113914
	H67	H	0.410366	0.418174	0.880190
	H68	H	0.591823	0.124738	0.401834
	H69	H	0.593100	0.888826	0.593814
	H70	H	0.405275	0.128608	0.588756
	H71	H	0.404188	0.892227	0.409529
	H72	H	0.918699	0.623873	0.086183
	H73	H	0.089134	0.396073	0.083498
	H74	H	0.096091	0.623481	0.915760
	H75	H	0.912576	0.391140	0.906227
	H76	H	0.093648	0.917764	0.612832
	H77	H	0.101820	0.099403	0.379888
	H78	H	0.908522	0.099388	0.612865
	H79	H	0.914613	0.912029	0.380631
	H80	H	0.615785	0.095677	0.902181
	H81	H	0.387531	0.103905	0.085138
	H82	H	0.621098	0.913568	0.090631
	H83	H	0.385826	0.917193	0.899189
	H84	H	0.618084	0.918505	0.085665
	H85	H	0.390229	0.096567	0.084667
	H86	H	0.622259	0.104640	0.892917
	H87	H	0.385265	0.909212	0.903925
	H88	H	0.906960	0.100085	0.613861
	H89	H	0.090743	0.099000	0.382966
	H90	H	0.097462	0.917042	0.613346
	H91	H	0.904277	0.912790	0.377346
	H92	H	0.108436	0.629621	0.902770
	H93	H	0.108642	0.389561	0.088239
	H94	H	0.904196	0.628931	0.088961
	H95	H	0.916422	0.393415	0.908097
	H96	H	0.415023	0.127961	0.591438
	H97	H	0.585088	0.894091	0.584944
	H98	H	0.599017	0.125990	0.405887
	H99	H	0.406018	0.888512	0.396340
	H100	H	0.593300	0.415477	0.112471
	H101	H	0.601132	0.606006	0.880561
	H102	H	0.411804	0.602681	0.114827
	H103	H	0.412274	0.420526	0.881861
	H104	H	0.119062	0.602786	0.408896
	H105	H	0.891800	0.590962	0.587260
	H106	H	0.125178	0.401115	0.595897
	H107	H	0.893121	0.429057	0.410749
	H108	H	0.915041	0.629377	0.101116
	H109	H	0.092823	0.389686	0.103479
	H110	H	0.090938	0.627643	0.898043
	H111	H	0.912725	0.392130	0.910479
	H112	H	0.096411	0.921118	0.612358
	H113	H	0.095065	0.108827	0.378293
	H114	H	0.906896	0.098071	0.613670
	H115	H	0.908801	0.921805	0.382199
	H116	H	0.620203	0.109179	0.906066
	H117	H	0.387032	0.099719	0.091672
	H118	H	0.619801	0.920696	0.092275
	H119	H	0.389081	0.917090	0.907381
	C120	C	0.380808	0.018189	0.616982
	C121	C	0.622207	0.999957	0.615313
	C122	C	0.624454	0.017180	0.373251
	C123	C	0.381057	1.000799	0.373743
	C124	C	0.627116	0.387565	0.005861
	C125	C	0.629050	0.631879	0.989426
	C126	C	0.384305	0.629688	0.006092
	C127	C	0.382967	0.387950	0.988823
	C128	C	0.011813	0.631400	0.376274
	C129	C	0.995474	0.630857	0.620431
	C130	C	0.012686	0.385780	0.621849
	C131	C	0.995623	0.388350	0.378158
	C132	C	0.883192	0.518308	0.121315
	C133	C	0.126074	0.500749	0.119865
	C134	C	0.127115	0.518226	0.876577
	C135	C	0.885548	0.500960	0.878785
	C136	C	0.124460	0.888900	0.505146
	C137	C	0.124818	0.130807	0.488355
	C138	C	0.880288	0.129902	0.505362
	C139	C	0.879501	0.886386	0.488147
	C140	C	0.511638	0.132193	0.872450
	C141	C	0.495739	0.130058	0.116159
	C142	C	0.511895	0.886977	0.118357
	C143	C	0.494657	0.887134	0.874208
	C144	C	0.380300	0.894943	0.674038
	C145	C	0.622114	0.123651	0.670676
	C146	C	0.620940	0.892735	0.319050
	C147	C	0.384297	0.124601	0.317663
	C148	C	0.684087	0.390405	0.883587
	C149	C	0.682955	0.629623	0.112831
	C150	C	0.327841	0.630070	0.883628
	C151	C	0.327103	0.387750	0.111619
	C152	C	0.887967	0.684299	0.380371
	C153	C	0.117644	0.687869	0.616623
	C154	C	0.889321	0.330504	0.619962
	C155	C	0.118603	0.332920	0.380345
	C156	C	0.890009	0.388409	0.677756
	C157	C	0.118813	0.630229	0.674073
	C158	C	0.889176	0.628801	0.321004
	C159	C	0.118421	0.389866	0.321719
	C160	C	0.388420	0.683997	0.882092
	C161	C	0.624576	0.686877	0.112167
	C162	C	0.624402	0.334476	0.881966
	C163	C	0.385619	0.330938	0.111458
	C164	C	0.679347	0.893253	0.374893
	C165	C	0.679187	0.123745	0.613181
	C166	C	0.324502	0.894398	0.615477
	C167	C	0.327210	0.125026	0.374955
	C168	C	0.885211	0.393866	0.176325
	C169	C	0.124055	0.624976	0.174134
	C170	C	0.125084	0.394256	0.821221
	C171	C	0.888093	0.625024	0.822615
	C172	C	0.180174	0.889801	0.382190
	C173	C	0.181905	0.130045	0.610121
	C174	C	0.827036	0.129149	0.381759
	C175	C	0.822263	0.887551	0.610456
	C176	C	0.389273	0.188286	0.875277
	C177	C	0.619191	0.184924	0.112711
	C178	C	0.389517	0.829903	0.115931
	C179	C	0.618265	0.834044	0.876715
	C180	C	0.388764	0.887664	0.173368
	C181	C	0.617812	0.129457	0.172543
	C182	C	0.388744	0.130223	0.817453
	C183	C	0.616842	0.890198	0.817421
	C184	C	0.885046	0.186863	0.382709
	C185	C	0.121026	0.183417	0.612587
	C186	C	0.121217	0.833425	0.382408
	C187	C	0.882295	0.832316	0.612020
	C188	C	0.182161	0.394373	0.878628
	C189	C	0.181957	0.624829	0.117140
	C190	C	0.827701	0.394227	0.119779
	C191	C	0.831556	0.625300	0.880675
	C192	C	0.403739	0.104773	0.594000
	C193	C	0.598721	0.913816	0.593172
	C194	C	0.602797	0.103697	0.395152
	C195	C	0.402562	0.914196	0.396478
	C196	C	0.604213	0.409205	0.091770
	C197	C	0.608271	0.609789	0.903389
	C198	C	0.406371	0.606269	0.091413
	C199	C	0.405440	0.411754	0.903039
	C200	C	0.097550	0.609761	0.398197
	C201	C	0.909535	0.607552	0.599876
	C202	C	0.098370	0.408041	0.599295
	C203	C	0.910575	0.411295	0.400929
	C204	C	0.906043	0.605045	0.098751
	C205	C	0.103666	0.414318	0.098105
	C206	C	0.104812	0.604505	0.898826
	C207	C	0.907439	0.414538	0.901651
	C208	C	0.102329	0.911824	0.590661
	C209	C	0.102594	0.108764	0.402598
	C210	C	0.901357	0.106235	0.591316
	C211	C	0.902435	0.908981	0.402269
	C212	C	0.597312	0.109730	0.893997
	C213	C	0.410399	0.106848	0.093825
	C214	C	0.597476	0.910744	0.096085
	C215	C	0.408854	0.908349	0.896831
	Zn216	Zn	0.501877	0.009005	0.744488
	Zn217	Zn	0.502874	0.008815	0.246238
	Zn218	Zn	0.756814	0.509021	-0.000694
	Zn219	Zn	0.254585	0.509447	-0.001816
	Zn220	Zn	0.002516	0.759566	0.498481
	Zn221	Zn	0.003079	0.258211	0.498824
	Zn222	Zn	0.005591	0.509300	0.749607
	Zn223	Zn	0.004431	0.509386	0.248137
	Zn224	Zn	0.504964	0.758746	-0.003526
	Zn225	Zn	0.504582	0.259676	-0.004323
	Zn226	Zn	0.751264	0.008121	0.495042
	Zn227	Zn	0.253633	0.010400	0.495396
	N228	N	0.414266	0.972985	0.675171
	N229	N	0.587344	0.045885	0.672074
	N230	N	0.587356	0.970892	0.317859
	N231	N	0.417142	0.046281	0.316865
	N232	N	0.686054	0.422432	0.961713
	N233	N	0.685859	0.596145	0.035331
	N234	N	0.325200	0.597008	0.961568
	N235	N	0.325172	0.422276	0.034193
	N236	N	0.965199	0.686146	0.414199
	N237	N	0.040006	0.688118	0.583820
	N238	N	0.966621	0.328774	0.585857
	N239	N	0.041371	0.331715	0.414590
	N240	N	0.967656	0.421968	0.679112
	N241	N	0.041898	0.594887	0.676288
	N242	N	0.967088	0.596680	0.318298
	N243	N	0.041080	0.423648	0.320116
	N244	N	0.422790	0.684057	0.959211
	N245	N	0.592103	0.688634	0.034347
	N246	N	0.589897	0.332687	0.959129
	N247	N	0.419247	0.330817	0.033953
	N248	N	0.681677	0.971525	0.407735
	N249	N	0.679090	0.045881	0.579198
	N250	N	0.324809	0.972319	0.580639
	N251	N	0.324959	0.046881	0.409005
	N252	N	0.918815	0.472318	0.177420
	N253	N	0.090071	0.546849	0.176207
	N254	N	0.091815	0.472410	0.819630
	N255	N	0.920886	0.546796	0.821279
	N256	N	0.182544	0.923428	0.459568
	N257	N	0.184384	0.097961	0.531945
	N258	N	0.824060	0.094488	0.459169
	N259	N	0.820362	0.920254	0.532353
	N260	N	0.466608	0.189663	0.908617
	N261	N	0.542314	0.185405	0.078322
	N262	N	0.467174	0.829115	0.082671
	N263	N	0.541349	0.832104	0.911538
	N264	N	0.465939	0.922541	0.174886
	N265	N	0.540065	0.095825	0.174787
	N266	N	0.465872	0.096037	0.815587
	N267	N	0.538976	0.922443	0.815635
	N268	N	0.917388	0.187323	0.460574
	N269	N	0.086298	0.184126	0.535804
	N270	N	0.087385	0.832523	0.459761
	N271	N	0.916972	0.831209	0.534878
	N272	N	0.183623	0.472381	0.912182
	N273	N	0.183386	0.546501	0.084091
	N274	N	0.826250	0.472593	0.086534
	N275	N	0.829762	0.547138	0.914984
	O276	O	0.535585	0.533184	0.472720
	H277	H	0.542633	0.536616	0.484049
	H278	H	0.528027	0.543003	0.472497
	O279	O	0.480011	0.516738	0.492895
	H280	H	0.477360	0.513134	0.507208
	H281	H	0.490070	0.518751	0.485199
	O282	O	0.921250	0.958582	-0.051443
	H283	H	0.938145	0.964191	-0.052198
	H284	H	0.907569	0.960388	-0.039096
	O285	O	1.097035	0.114260	0.907482
	H286	H	1.092293	0.125523	0.914331
	H287	H	1.099298	0.109159	0.904305
	O288	O	0.442069	0.544304	0.522301
	H289	H	0.446353	0.539134	0.521657
	H290	H	0.444491	0.544090	0.510957
	O291	O	0.514560	0.496544	0.545511
	H292	H	0.507600	0.509722	0.540809
	H293	H	0.511250	0.490625	0.547797
	O294	O	0.602115	0.525228	0.590124
	H295	H	0.607576	0.514594	0.595273
	H296	H	0.596754	0.534744	0.590245
	O297	O	-0.406998	-0.566917	1.470684
	H298	H	-0.404368	-0.570665	1.458049
	H299	H	-0.402282	-0.576592	1.468127
	O300	O	0.002696	-0.017783	-0.125818
	H301	H	0.000368	-0.014332	-0.122415
	H302	H	0.002407	-0.010535	-0.137678
	O303	O	0.948830	1.015105	-0.073444
	H304	H	0.958486	1.015048	-0.073461
	H305	H	0.943424	1.014400	-0.085262
	O306	O	-0.083410	1.042200	1.053579
	H307	H	-0.078376	1.041669	1.071088
	H308	H	-0.083105	1.045704	1.048362
	O309	O	0.524160	0.585257	0.418205
	H310	H	0.524762	0.591142	0.413569
	H311	H	0.515030	0.582588	0.425274
	O312	O	-0.053580	0.016477	0.073927
	H313	H	-0.059214	0.006628	0.081109
	H314	H	-0.057292	0.017218	0.074782
	O315	O	0.972676	-0.022850	0.041414
	H316	H	0.979167	-0.033214	0.039052
	H317	H	0.976459	-0.013961	0.028258
	O318	O	0.975180	0.960123	1.129284
	H319	H	0.976053	0.962724	1.133060
	H320	H	0.977145	0.945522	1.132577
	O321	O	0.402104	-0.591942	1.409131
	H322	H	0.395590	-0.593397	1.408956
	H323	H	0.400984	-0.594153	1.404758
	O324	O	0.422801	0.570387	0.449553
	H325	H	0.431786	0.556975	0.465144
	H326	H	0.428877	0.563523	0.447642
	O327	O	0.117105	0.051933	-0.043052
	H328	H	0.120038	0.055861	-0.045787
	H329	H	0.110321	0.043808	-0.035541
	O330	O	0.485725	0.496424	0.568665
	H331	H	0.480491	0.496096	0.569318
	H332	H	0.481279	0.484121	0.568047
	O333	O	0.112744	0.884472	1.025836
	H334	H	0.116243	0.888059	1.013498
	H335	H	0.115369	0.882718	1.031901
	O336	O	-0.062915	0.013159	0.123430
	H337	H	-0.056750	0.015708	0.118729
	H338	H	-0.083258	0.002460	0.141177
	O339	O	0.432154	0.476984	0.515976
	H340	H	0.428499	0.469979	0.519104
	H341	H	0.440473	0.477234	0.524812
	O342	O	1.085759	0.980906	0.894420
	H343	H	1.092248	0.981262	0.914913
	H344	H	1.084540	0.991413	0.879026
	O345	O	0.925434	0.958079	-0.065425
	H346	H	0.931870	0.960936	-0.063384
	H347	H	0.922319	0.951468	-0.069940
	O348	O	0.564274	0.536787	0.456258
	H349	H	0.574396	0.550923	0.458382
	H350	H	0.567809	0.534147	0.463161
	O351	O	0.440791	0.553434	0.607503
	H352	H	0.454482	0.561737	0.609480
	H353	H	0.444650	0.544144	0.602629
	O354	O	0.983641	0.032951	1.023184
	H355	H	0.969411	0.021351	1.024861
	H356	H	0.982712	0.035512	1.011268
	O357	O	1.048774	0.028476	1.055739
	H358	H	1.039000	0.037443	1.055071
	H359	H	1.050395	0.020951	1.060136
	O360	O	0.485716	0.442459	0.410379
	H361	H	0.486245	0.445746	0.401958
	H362	H	0.494187	0.445841	0.405879
	O363	O	0.532945	0.398354	0.410613
	H364	H	0.533558	0.411752	0.413784
	H365	H	0.521391	0.394160	0.412792
	O366	O	0.477332	1.540523	0.457198
	H367	H	0.495396	1.542397	0.458595
	H368	H	0.466722	1.547281	0.464287
	O369	O	1.053265	0.132115	0.943035
	H370	H	1.050116	0.137756	0.958948
	H371	H	1.064131	0.134778	0.942679
	O372	O	-0.035866	-0.019251	0.061331
	H373	H	-0.036405	-0.019797	0.052898
	H374	H	-0.023807	-0.015677	0.063346
	O375	O	1.022716	0.067288	0.064836
	H376	H	1.019311	0.054931	0.064990
	H377	H	1.018993	0.068570	0.063207
	O378	O	0.617201	0.471845	0.442063
	H379	H	0.618104	0.475109	0.424473
	H380	H	0.607434	0.463250	0.447041
	O381	O	0.431119	0.507722	0.576802
	H382	H	0.419805	0.506028	0.571389
	H383	H	0.420063	0.507548	0.576026
