data_Molecule from HDF5

_cell_length_a		16.459934
_cell_length_b		16.434328
_cell_length_c		16.417212
_cell_angle_alpha	90.139351
_cell_angle_beta	90.123073
_cell_angle_gamma	89.885900
_symmetry_space_group_name_H-M	'P 1'
_symmetry_Int_Tables_number		1

loop_
	_symmetry_equiv_pos_as_xyz
	x,y,z

loop_
	_atom_site_label
	_atom_site_type_symbol
	_atom_site_fract_x
	_atom_site_fract_y
	_atom_site_fract_z
	H0	H	0.398439	0.859898	0.733236
	H1	H	0.613003	0.175150	0.738320
	H2	H	0.608403	0.859907	0.291139
	H3	H	0.398269	0.176974	0.290087
	H4	H	0.728335	0.407761	0.856018
	H5	H	0.725789	0.627154	0.168173
	H6	H	0.279316	0.624138	0.852982
	H7	H	0.282514	0.412790	0.170036
	H8	H	0.844339	0.739206	0.409013
	H9	H	0.159384	0.743775	0.622933
	H10	H	0.845968	0.295637	0.619198
	H11	H	0.159389	0.293598	0.403944
	H12	H	0.845527	0.410593	0.735553
	H13	H	0.159800	0.626460	0.738012
	H14	H	0.844132	0.623421	0.291717
	H15	H	0.158894	0.408061	0.287608
	H16	H	0.395000	0.740447	0.852301
	H17	H	0.606422	0.739857	0.169691
	H18	H	0.614205	0.291386	0.856000
	H19	H	0.395878	0.295876	0.168729
	H20	H	0.724862	0.860099	0.405834
	H21	H	0.726781	0.176086	0.620005
	H22	H	0.281718	0.860800	0.618637
	H23	H	0.280130	0.176141	0.404470
	H24	H	0.895561	0.359547	0.233589
	H25	H	0.104977	0.674815	0.233850
	H26	H	0.113557	0.361933	0.785810
	H27	H	0.893465	0.674122	0.787645
	H28	H	0.222367	0.913365	0.354035
	H29	H	0.230123	0.129281	0.668932
	H30	H	0.779225	0.126500	0.355575
	H31	H	0.778634	0.910234	0.668777
	H32	H	0.345431	0.243593	0.901495
	H33	H	0.657846	0.244770	0.122418
	H34	H	0.345763	0.796292	0.117500
	H35	H	0.659810	0.794665	0.904593
	H36	H	0.346349	0.912983	0.234318
	H37	H	0.659788	0.127353	0.236631
	H38	H	0.346400	0.128306	0.784935
	H39	H	0.660713	0.911515	0.789591
	H40	H	0.897544	0.239770	0.354538
	H41	H	0.114593	0.245732	0.669302
	H42	H	0.106183	0.797331	0.354644
	H43	H	0.893831	0.794135	0.668310
	H44	H	0.228256	0.360829	0.902254
	H45	H	0.220436	0.676402	0.116477
	H46	H	0.777394	0.361485	0.121010
	H47	H	0.775897	0.673602	0.901811
	H48	H	0.412696	0.128453	0.592599
	H49	H	0.583076	0.907737	0.604791
	H50	H	0.597743	0.132635	0.428727
	H51	H	0.415910	0.906386	0.424607
	H52	H	0.591098	0.440117	0.122089
	H53	H	0.593790	0.600166	0.898889
	H54	H	0.417615	0.606463	0.121423
	H55	H	0.412564	0.430941	0.897708
	H56	H	0.114957	0.603498	0.422611
	H57	H	0.893322	0.607190	0.592210
	H58	H	0.113984	0.436458	0.602022
	H59	H	0.888230	0.426468	0.421712
	H60	H	0.116005	0.427773	0.599256
	H61	H	0.892557	0.599698	0.603281
	H62	H	0.116045	0.608502	0.422772
	H63	H	0.890321	0.428484	0.427660
	H64	H	0.411550	0.616763	0.128239
	H65	H	0.583802	0.604392	0.900780
	H66	H	0.581134	0.431735	0.120099
	H67	H	0.415708	0.433222	0.899415
	H68	H	0.591825	0.134121	0.417723
	H69	H	0.593211	0.909375	0.589861
	H70	H	0.414485	0.133361	0.603719
	H71	H	0.409678	0.904191	0.423145
	H72	H	0.923002	0.628198	0.102741
	H73	H	0.088879	0.404626	0.098306
	H74	H	0.102944	0.634685	0.922970
	H75	H	0.914833	0.404129	0.921705
	H76	H	0.089746	0.926663	0.626509
	H77	H	0.086929	0.110964	0.401049
	H78	H	0.919559	0.107305	0.624373
	H79	H	0.922651	0.928409	0.401170
	H80	H	0.609849	0.099371	0.929593
	H81	H	0.390043	0.104303	0.103990
	H82	H	0.621487	0.920438	0.105675
	H83	H	0.388476	0.926791	0.921227
	H84	H	0.612804	0.927534	0.089279
	H85	H	0.390982	0.110090	0.096744
	H86	H	0.615493	0.103859	0.919144
	H87	H	0.391820	0.930236	0.926594
	H88	H	0.913541	0.108239	0.626730
	H89	H	0.096992	0.107001	0.398156
	H90	H	0.097255	0.931264	0.627911
	H91	H	0.910954	0.924550	0.396094
	H92	H	0.078300	0.629534	0.915052
	H93	H	0.096394	0.403298	0.097838
	H94	H	0.908931	0.629682	0.093582
	H95	H	0.919923	0.407379	0.925913
	H96	H	0.423533	0.127460	0.597967
	H97	H	0.600094	0.902127	0.604584
	H98	H	0.585843	0.127918	0.427473
	H99	H	0.414310	0.904611	0.418548
	H100	H	0.592135	0.428148	0.126281
	H101	H	0.591491	0.610584	0.895499
	H102	H	0.405079	0.605196	0.125204
	H103	H	0.415696	0.429202	0.898518
	H104	H	0.114379	0.606295	0.426790
	H105	H	0.887922	0.612118	0.603923
	H106	H	0.111503	0.433471	0.593112
	H107	H	0.890264	0.432669	0.422676
	H108	H	0.909030	0.635073	0.109635
	H109	H	0.092939	0.402258	0.104206
	H110	H	0.086598	0.622933	0.939742
	H111	H	0.912946	0.406238	0.929092
	H112	H	0.090033	0.934976	0.623676
	H113	H	0.089436	0.100383	0.403664
	H114	H	0.915566	0.102224	0.623919
	H115	H	0.912182	0.936638	0.401182
	H116	H	0.614227	0.111103	0.929390
	H117	H	0.393770	0.101215	0.096352
	H118	H	0.614542	0.938561	0.105738
	H119	H	0.389974	0.933661	0.920264
	C120	C	0.383487	0.026215	0.632166
	C121	C	0.626056	1.010008	0.634218
	C122	C	0.624356	0.026817	0.391605
	C123	C	0.381187	1.009872	0.389646
	C124	C	0.623748	0.396989	0.020073
	C125	C	0.623205	0.639432	1.002395
	C126	C	0.379363	0.641056	0.020018
	C127	C	0.381774	0.397813	1.002934
	C128	C	0.010416	0.637772	0.392785
	C129	C	0.994397	0.640681	0.634894
	C130	C	0.011037	0.397538	0.632910
	C131	C	0.993605	0.395374	0.389988
	C132	C	0.880767	0.526555	0.133885
	C133	C	0.124047	0.508246	0.133621
	C134	C	0.124064	0.525911	0.890980
	C135	C	0.881578	0.509547	0.891407
	C136	C	0.123925	0.897639	0.521576
	C137	C	0.125720	0.140730	0.504268
	C138	C	0.882990	0.138939	0.520859
	C139	C	0.881862	0.897371	0.503456
	C140	C	0.510271	0.139463	0.890594
	C141	C	0.494551	0.139767	0.133249
	C142	C	0.512212	0.896664	0.132964
	C143	C	0.494283	0.897166	0.890190
	C144	C	0.380143	0.907544	0.693171
	C145	C	0.629964	0.128053	0.696648
	C146	C	0.627029	0.907710	0.330949
	C147	C	0.379372	0.129081	0.329641
	C148	C	0.687206	0.390794	0.902995
	C149	C	0.684961	0.644220	0.121052
	C150	C	0.319127	0.642902	0.900361
	C151	C	0.321694	0.394713	0.121945
	C152	C	0.891511	0.698542	0.390533
	C153	C	0.112273	0.702942	0.640162
	C154	C	0.892964	0.335845	0.636790
	C155	C	0.112059	0.334046	0.386543
	C156	C	0.893082	0.393233	0.694772
	C157	C	0.112248	0.644685	0.697614
	C158	C	0.891350	0.640766	0.332462
	C159	C	0.111651	0.391233	0.328377
	C160	C	0.376961	0.700502	0.900034
	C161	C	0.625415	0.700298	0.121696
	C162	C	0.630143	0.332489	0.903147
	C163	C	0.378325	0.336234	0.121402
	C164	C	0.684799	0.907705	0.388533
	C165	C	0.687027	0.128624	0.637999
	C166	C	0.322098	0.907833	0.635895
	C167	C	0.320520	0.128653	0.386740
	C168	C	0.877617	0.407217	0.193744
	C169	C	0.124863	0.627381	0.194229
	C170	C	0.130177	0.408608	0.827388
	C171	C	0.876635	0.627019	0.828767
	C172	C	0.182967	0.895058	0.401914
	C173	C	0.189124	0.146400	0.621792
	C174	C	0.820441	0.143544	0.402787
	C175	C	0.819931	0.893311	0.621745
	C176	C	0.392732	0.202256	0.884846
	C177	C	0.611490	0.203020	0.138436
	C178	C	0.393068	0.836753	0.135441
	C179	C	0.612682	0.835414	0.886949
	C180	C	0.393462	0.894580	0.193770
	C181	C	0.612438	0.144375	0.195478
	C182	C	0.393114	0.144773	0.826445
	C183	C	0.613266	0.893571	0.829696
	C184	C	0.879631	0.199825	0.402051
	C185	C	0.131193	0.204178	0.622142
	C186	C	0.125187	0.837219	0.402179
	C187	C	0.877504	0.835566	0.621758
	C188	C	0.187147	0.408134	0.885835
	C189	C	0.182286	0.627964	0.135874
	C190	C	0.818687	0.408404	0.137496
	C191	C	0.817814	0.626723	0.885556
	C192	C	0.409426	0.108304	0.605797
	C193	C	0.599591	0.927885	0.607488
	C194	C	0.598966	0.109957	0.417409
	C195	C	0.406283	0.926729	0.414852
	C196	C	0.596084	0.425099	0.101689
	C197	C	0.597163	0.612795	0.919963
	C198	C	0.404273	0.616537	0.103040
	C199	C	0.407416	0.423610	0.920164
	C200	C	0.093450	0.613074	0.417198
	C201	C	0.912694	0.613902	0.607745
	C202	C	0.092573	0.424853	0.605964
	C203	C	0.911246	0.421667	0.416381
	C204	C	0.906292	0.609388	0.108999
	C205	C	0.099835	0.425078	0.107854
	C206	C	0.096838	0.607696	0.918184
	C207	C	0.908401	0.427460	0.918023
	C208	C	0.099356	0.923552	0.604508
	C209	C	0.098895	0.113929	0.422306
	C210	C	0.909127	0.113289	0.603406
	C211	C	0.907849	0.922889	0.421178
	C212	C	0.592047	0.112425	0.918000
	C213	C	0.412755	0.112720	0.106490
	C214	C	0.594807	0.921777	0.107576
	C215	C	0.411737	0.922980	0.915316
	Zn216	Zn	0.503373	0.018163	0.761484
	Zn217	Zn	0.503847	0.018541	0.262439
	Zn218	Zn	0.752139	0.518183	0.012284
	Zn219	Zn	0.252710	0.518325	0.011461
	Zn220	Zn	0.003142	0.768584	0.512645
	Zn221	Zn	0.003121	0.268524	0.512684
	Zn222	Zn	0.003144	0.517513	0.762124
	Zn223	Zn	0.001743	0.517134	0.262299
	Zn224	Zn	0.501950	0.767628	0.010174
	Zn225	Zn	0.502152	0.268938	0.011610
	Zn226	Zn	0.753634	0.018423	0.512056
	Zn227	Zn	0.253254	0.018368	0.512535
	N228	N	0.417568	0.982075	0.690987
	N229	N	0.592949	0.053219	0.694563
	N230	N	0.590224	0.982878	0.332645
	N231	N	0.416182	0.053965	0.331288
	N232	N	0.683220	0.430269	0.976670
	N233	N	0.683807	0.607135	0.045911
	N234	N	0.320398	0.606928	0.975807
	N235	N	0.323596	0.432018	0.047195
	N236	N	0.966394	0.696752	0.427403
	N237	N	0.037837	0.700823	0.602122
	N238	N	0.967470	0.338191	0.599373
	N239	N	0.037447	0.336388	0.423916
	N240	N	0.967492	0.431062	0.692323
	N241	N	0.038035	0.606658	0.694398
	N242	N	0.966180	0.603272	0.333733
	N243	N	0.036810	0.428579	0.330326
	N244	N	0.413457	0.699911	0.975553
	N245	N	0.587936	0.697413	0.046956
	N246	N	0.591325	0.336287	0.977267
	N247	N	0.414795	0.337916	0.046186
	N248	N	0.683381	0.983011	0.425279
	N249	N	0.684728	0.053986	0.600063
	N250	N	0.323787	0.982820	0.598862
	N251	N	0.321363	0.053389	0.423076
	N252	N	0.915279	0.481725	0.191845
	N253	N	0.089783	0.551591	0.193304
	N254	N	0.091737	0.482771	0.830259
	N255	N	0.915525	0.553068	0.832237
	N256	N	0.182478	0.931669	0.477245
	N257	N	0.186078	0.108020	0.547584
	N258	N	0.822383	0.106349	0.477610
	N259	N	0.822609	0.931126	0.547359
	N260	N	0.466695	0.199506	0.923566
	N261	N	0.537187	0.200298	0.100126
	N262	N	0.467744	0.837691	0.098324
	N263	N	0.537904	0.837557	0.923889
	N264	N	0.468350	0.931281	0.192188
	N265	N	0.538804	0.105605	0.192080
	N266	N	0.467590	0.106539	0.829897
	N267	N	0.538593	0.931210	0.831500
	N268	N	0.917664	0.197216	0.476609
	N269	N	0.092503	0.201073	0.547838
	N270	N	0.089696	0.838336	0.477823
	N271	N	0.915421	0.837882	0.547334
	N272	N	0.183426	0.482140	0.924878
	N273	N	0.182398	0.552698	0.099475
	N274	N	0.820406	0.483630	0.100837
	N275	N	0.820692	0.552619	0.923840
	O276	O	0.282664	0.734283	0.485484
	H277	H	0.270556	0.752996	0.462523
	H278	H	0.275168	0.744495	0.453764
	O279	O	0.898681	-0.101398	0.809925
	H280	H	0.863084	-0.095256	0.800174
	H281	H	0.921495	-0.073761	0.818545
	O282	O	0.512489	0.544906	0.513020
	H283	H	0.525021	0.535923	0.501779
	H284	H	0.525777	0.542005	0.525305
	O285	O	0.068302	0.224766	0.950187
	H286	H	0.052064	0.212213	0.967512
	H287	H	0.068259	0.228212	0.941900
	O288	O	1.215450	0.812852	-0.012705
	H289	H	1.243168	0.806901	-0.002735
	H290	H	1.223142	0.823180	0.010081
	O291	O	0.467456	0.720086	0.368369
	H292	H	0.456993	0.735489	0.345593
	H293	H	0.486355	0.710120	0.375378
	O294	O	-0.213088	0.105544	1.093118
	H295	H	-0.223058	0.085798	1.095447
	H296	H	-0.203914	0.078546	1.113033
	O297	O	1.167528	-0.155202	0.171775
	H298	H	1.149189	-0.140697	0.158879
	H299	H	1.149084	-0.138539	0.168781
	O300	O	0.821608	1.198142	-0.168477
	H301	H	0.874770	1.211399	-0.179582
	H302	H	0.813566	1.209590	-0.114690
	O303	O	0.622762	0.397321	0.582108
	H304	H	0.619645	0.392168	0.578673
	H305	H	0.616441	0.397841	0.592156
	O306	O	0.710262	0.328830	0.493304
	H307	H	0.723942	0.318654	0.507347
	H308	H	0.690586	0.329555	0.511201
	O309	O	0.472657	0.308680	0.585151
	H310	H	0.481533	0.293872	0.617421
	H311	H	0.458789	0.318955	0.564419
	O312	O	0.024774	1.228313	1.222960
	H313	H	0.018800	1.261263	1.254001
	H314	H	0.000758	1.216088	1.206334
	O315	O	0.306448	0.715140	0.320076
	H316	H	0.322383	0.684805	0.308829
	H317	H	0.304956	0.740779	0.290584
	O318	O	0.784236	0.040336	-0.206868
	H319	H	0.747790	0.047751	-0.244180
	H320	H	0.795793	0.091116	-0.194990
	O321	O	-0.206354	0.227473	-0.003020
	H322	H	-0.234558	0.226419	0.010653
	H323	H	-0.219462	0.216368	0.011479
	O324	O	0.290378	0.311291	0.530171
	H325	H	0.264203	0.282449	0.525483
	H326	H	0.307222	0.319447	0.514879
	O327	O	0.424773	0.325094	0.717159
	H328	H	0.393939	0.330161	0.688885
	H329	H	0.417701	0.322466	0.742150
	O330	O	-0.203783	0.943370	-0.035588
	H331	H	-0.192858	0.950205	-0.043598
	H332	H	-0.216366	0.937254	-0.063467
	O333	O	-0.054351	0.839996	0.956319
	H334	H	-0.049921	0.841716	0.947856
	H335	H	-0.060492	0.846476	0.932969
	O336	O	-0.205313	-0.171993	0.049467
	H337	H	-0.216784	-0.173953	0.047210
	H338	H	-0.209971	-0.181787	0.038951
	O339	O	0.049965	1.073158	0.795092
	H340	H	0.051461	1.067118	0.807855
	H341	H	0.073251	1.067452	0.788459
	O342	O	0.219580	1.040829	1.225737
	H343	H	0.232456	1.057307	1.231678
	H344	H	0.229295	1.073243	1.235273
	O345	O	1.523568	0.322192	-0.685597
	H346	H	1.502812	0.350612	-0.689471
	H347	H	1.510797	0.309624	-0.689877
	O348	O	0.189062	0.200580	0.195859
	H349	H	0.140187	0.208408	0.205380
	H350	H	0.199584	0.212192	0.142841
	O351	O	0.181113	0.847822	0.828124
	H352	H	0.178648	0.832718	0.866065
	H353	H	0.149737	0.839483	0.832775
	O354	O	-0.561580	0.418523	0.389657
	H355	H	-0.555742	0.418353	0.400065
	H356	H	-0.568062	0.439382	0.376108
	O357	O	-0.426912	-0.271146	0.547135
	H358	H	-0.426449	-0.270714	0.536767
	H359	H	-0.439589	-0.264476	0.544099
	O360	O	0.712077	0.499338	0.306574
	H361	H	0.710544	0.468112	0.301772
	H362	H	0.732291	0.487102	0.287076
	O363	O	-0.649781	-0.476883	1.708499
	H364	H	-0.661284	-0.460733	1.716991
	H365	H	-0.648975	-0.465701	1.687913
	O366	O	0.791102	-0.001287	1.180163
	H367	H	0.804556	-0.022651	1.171306
	H368	H	0.771853	0.002511	1.208619
	O369	O	0.309085	0.611279	0.579413
	H370	H	0.305568	0.646306	0.556183
	H371	H	0.332210	0.613842	0.564886
	O372	O	1.043048	-0.191846	1.044438
	H373	H	1.050593	-0.188315	1.024940
	H374	H	1.035272	-0.189213	1.030485
	O375	O	-0.001849	-0.000796	-0.034269
	H376	H	-0.013748	-0.006797	-0.043214
	H377	H	-0.024895	-0.019013	-0.033833
	O378	O	0.604617	0.573097	0.413002
	H379	H	0.599588	0.570407	0.405997
	H380	H	0.615839	0.564099	0.420976
	O381	O	0.428005	0.621984	0.545909
	H382	H	0.420807	0.615449	0.556699
	H383	H	0.412612	0.638208	0.554495
	O384	O	0.692392	0.705763	0.628402
	H385	H	0.680473	0.690303	0.634527
	H386	H	0.699441	0.693768	0.607489
	O387	O	0.021733	-0.196562	0.797951
	H388	H	0.011920	-0.206854	0.789732
	H389	H	0.015887	-0.195141	0.777298
	O390	O	-0.716569	-0.451141	0.294058
	H391	H	-0.726856	-0.446561	0.312343
	H392	H	-0.748919	-0.453524	0.273447
	O393	O	0.925132	1.057633	1.186183
	H394	H	0.924853	1.044600	1.181180
	H395	H	0.921380	1.041308	1.194897
	O396	O	1.988010	0.822930	-0.787578
	H397	H	1.998338	0.844960	-0.783102
	H398	H	1.998357	0.813257	-0.804540
	O399	O	1.215801	0.007322	0.796329
	H400	H	1.237422	-0.005261	0.783248
	H401	H	1.216671	-0.028891	0.799921
	O402	O	1.344953	0.464114	0.389719
	H403	H	1.329957	0.491264	0.394486
	H404	H	1.354642	0.470820	0.391275
	O405	O	1.050338	0.989129	0.221706
	H406	H	1.057553	1.000654	0.209642
	H407	H	1.065551	1.010299	0.225831
	O408	O	0.971446	0.035180	0.033850
	H409	H	0.971319	0.027584	0.014876
	H410	H	0.962287	0.046957	0.029939
	O411	O	0.953734	1.227666	0.065673
	H412	H	0.943200	1.213847	0.053967
	H413	H	0.936830	1.230709	0.074899
	O414	O	0.589655	0.451460	0.600055
	H415	H	0.582428	0.438920	0.611582
	H416	H	0.580630	0.452316	0.611542
	O417	O	0.649580	0.534553	0.579905
	H418	H	0.650804	0.528680	0.575196
	H419	H	0.647147	0.536320	0.581185
	O420	O	0.206114	0.085873	-0.061693
	H421	H	0.207000	0.077745	-0.072705
	H422	H	0.191801	0.078430	-0.068357
	O423	O	0.497258	0.523544	0.314239
	H424	H	0.495741	0.527972	0.304201
	H425	H	0.496493	0.540974	0.335367
	O426	O	0.823422	0.838735	0.199479
	H427	H	0.869003	0.833839	0.200306
	H428	H	0.809941	0.842035	0.174005
	O429	O	0.335885	0.425185	0.686939
	H430	H	0.335123	0.461092	0.685565
	H431	H	0.326896	0.432621	0.658963
	O432	O	0.646477	0.583161	0.629396
	H433	H	0.643752	0.565029	0.634742
	H434	H	0.644016	0.594280	0.611171
	O435	O	0.702537	0.584159	0.574507
	H436	H	0.692995	0.572226	0.566862
	H437	H	0.721082	0.573493	0.588471
	O438	O	0.219573	0.229538	0.034168
	H439	H	0.232409	0.220230	0.013960
	H440	H	0.224258	0.249633	0.022000
	O441	O	0.981296	0.234301	-0.202618
	H442	H	0.996450	0.229076	-0.220870
	H443	H	0.994780	0.246954	-0.209365
	O444	O	0.219876	0.974108	1.056306
	H445	H	0.229075	0.987387	1.078939
	H446	H	0.201945	0.998225	1.038638
	O447	O	0.687285	0.337186	0.326082
	H448	H	0.638361	0.327868	0.322059
	H449	H	0.693900	0.327931	0.369398
	O450	O	0.452309	0.636276	0.621023
	H451	H	0.476135	0.651636	0.625675
	H452	H	0.467574	0.626118	0.623133
	O453	O	0.552992	0.551214	0.685076
	H454	H	0.544340	0.551808	0.688511
	H455	H	0.559002	0.545824	0.689170
