data_Molecule from HDF5

_cell_length_a		16.527340
_cell_length_b		16.401675
_cell_length_c		16.245410
_cell_angle_alpha	90.078460
_cell_angle_beta	90.143657
_cell_angle_gamma	90.145854
_symmetry_space_group_name_H-M	'P 1'
_symmetry_Int_Tables_number		1

loop_
	_symmetry_equiv_pos_as_xyz
	x,y,z

loop_
	_atom_site_label
	_atom_site_type_symbol
	_atom_site_fract_x
	_atom_site_fract_y
	_atom_site_fract_z
	H0	H	0.392303	0.836099	0.716114
	H1	H	0.599474	0.154851	0.717239
	H2	H	0.598852	0.835275	0.279521
	H3	H	0.394987	0.154695	0.277532
	H4	H	0.718572	0.389245	0.840302
	H5	H	0.717867	0.602725	0.159684
	H6	H	0.274511	0.598094	0.840241
	H7	H	0.274615	0.386419	0.159259
	H8	H	0.840239	0.719851	0.390442
	H9	H	0.153143	0.722387	0.609401
	H10	H	0.839490	0.273648	0.605560
	H11	H	0.155703	0.275265	0.395134
	H12	H	0.837114	0.393905	0.717739
	H13	H	0.154304	0.602072	0.722690
	H14	H	0.838183	0.598375	0.280068
	H15	H	0.155687	0.391508	0.278737
	H16	H	0.392052	0.711441	0.838115
	H17	H	0.600034	0.714622	0.160557
	H18	H	0.600171	0.276224	0.838200
	H19	H	0.393941	0.275274	0.159776
	H20	H	0.720283	0.838060	0.389061
	H21	H	0.717581	0.153804	0.603336
	H22	H	0.270239	0.840767	0.608068
	H23	H	0.273671	0.153274	0.387277
	H24	H	0.893087	0.336967	0.218656
	H25	H	0.101507	0.655522	0.219966
	H26	H	0.098728	0.336424	0.778969
	H27	H	0.891766	0.656113	0.778532
	H28	H	0.219275	0.888927	0.339162
	H29	H	0.222678	0.106335	0.657121
	H30	H	0.777713	0.100305	0.339183
	H31	H	0.776126	0.889587	0.658439
	H32	H	0.339731	0.219357	0.887629
	H33	H	0.653531	0.217128	0.103512
	H34	H	0.337450	0.773251	0.103261
	H35	H	0.654154	0.772491	0.893001
	H36	H	0.337997	0.890129	0.219585
	H37	H	0.654975	0.098341	0.218126
	H38	H	0.338150	0.099553	0.775341
	H39	H	0.655868	0.892814	0.779800
	H40	H	0.895891	0.214343	0.338334
	H41	H	0.102097	0.215752	0.660795
	H42	H	0.104054	0.772801	0.339734
	H43	H	0.892814	0.776493	0.659754
	H44	H	0.218122	0.337444	0.890749
	H45	H	0.221877	0.652291	0.109333
	H46	H	0.774998	0.339191	0.106403
	H47	H	0.773737	0.654427	0.892463
	H48	H	0.411970	0.108749	0.586462
	H49	H	0.592173	0.878835	0.587966
	H50	H	0.593527	0.110521	0.410993
	H51	H	0.404109	0.884363	0.416097
	H52	H	0.582283	0.404842	0.113881
	H53	H	0.584534	0.585916	0.884394
	H54	H	0.405427	0.581924	0.115639
	H55	H	0.402053	0.403948	0.882558
	H56	H	0.107882	0.586436	0.416898
	H57	H	0.885600	0.592354	0.581437
	H58	H	0.110377	0.410088	0.593820
	H59	H	0.885359	0.403409	0.414122
	H60	H	0.111180	0.401991	0.589354
	H61	H	0.887788	0.578345	0.586777
	H62	H	0.108832	0.581337	0.410754
	H63	H	0.885493	0.408936	0.409357
	H64	H	0.409848	0.580209	0.112484
	H65	H	0.589826	0.583007	0.883779
	H66	H	0.589406	0.405224	0.114846
	H67	H	0.404340	0.413859	0.886926
	H68	H	0.588472	0.111019	0.403641
	H69	H	0.583796	0.882083	0.590270
	H70	H	0.409998	0.108036	0.581944
	H71	H	0.403801	0.879739	0.405812
	H72	H	0.907528	0.612017	0.091552
	H73	H	0.091267	0.379762	0.090285
	H74	H	0.083565	0.608060	0.911433
	H75	H	0.912714	0.384909	0.909269
	H76	H	0.087948	0.910879	0.613013
	H77	H	0.082136	0.089913	0.385061
	H78	H	0.906917	0.085076	0.615381
	H79	H	0.910292	0.910704	0.385903
	H80	H	0.609781	0.088275	0.908027
	H81	H	0.383288	0.083388	0.088609
	H82	H	0.608685	0.903660	0.087890
	H83	H	0.383734	0.908247	0.905229
	H84	H	0.608298	0.904017	0.087556
	H85	H	0.383539	0.086213	0.084560
	H86	H	0.607080	0.084816	0.914320
	H87	H	0.380953	0.898271	0.903358
	H88	H	0.907068	0.083929	0.614608
	H89	H	0.091451	0.085952	0.382484
	H90	H	0.083645	0.915849	0.609829
	H91	H	0.909811	0.905441	0.384248
	H92	H	0.085466	0.606799	0.917623
	H93	H	0.080961	0.382218	0.092695
	H94	H	0.909845	0.609051	0.086622
	H95	H	0.904537	0.384777	0.917383
	H96	H	0.407234	0.109958	0.585812
	H97	H	0.587061	0.881845	0.581762
	H98	H	0.584838	0.107001	0.410789
	H99	H	0.412846	0.884506	0.410543
	H100	H	0.585955	0.411534	0.111627
	H101	H	0.584820	0.579623	0.886214
	H102	H	0.410193	0.585938	0.114984
	H103	H	0.412189	0.405953	0.886635
	H104	H	0.111278	0.589209	0.410018
	H105	H	0.880545	0.589014	0.595615
	H106	H	0.107031	0.409183	0.584517
	H107	H	0.883009	0.402134	0.406930
	H108	H	0.904026	0.611161	0.086535
	H109	H	0.085192	0.384166	0.082826
	H110	H	0.089287	0.609746	0.913037
	H111	H	0.902130	0.380781	0.907213
	H112	H	0.081075	0.908926	0.610755
	H113	H	0.084209	0.079881	0.387336
	H114	H	0.908090	0.084321	0.614538
	H115	H	0.905222	0.908567	0.383157
	H116	H	0.607711	0.080911	0.907887
	H117	H	0.385210	0.081779	0.084495
	H118	H	0.608967	0.904437	0.087962
	H119	H	0.384028	0.901057	0.913131
	C120	C	0.376280	0.004482	0.618311
	C121	C	0.618885	0.986273	0.619318
	C122	C	0.619451	0.004064	0.376417
	C123	C	0.375649	0.987536	0.377206
	C124	C	0.617785	0.374978	0.007617
	C125	C	0.618119	0.616340	0.990751
	C126	C	0.375535	0.614577	0.008343
	C127	C	0.374741	0.373885	0.990776
	C128	C	0.005327	0.617772	0.378914
	C129	C	0.988384	0.619196	0.621620
	C130	C	0.005120	0.374812	0.621286
	C131	C	0.988903	0.373526	0.377988
	C132	C	0.875563	0.505393	0.120451
	C133	C	0.118767	0.486720	0.121702
	C134	C	0.117606	0.503595	0.879731
	C135	C	0.874400	0.488174	0.878286
	C136	C	0.117591	0.876950	0.506590
	C137	C	0.119030	0.118129	0.490761
	C138	C	0.876191	0.116717	0.508350
	C139	C	0.875952	0.875214	0.490110
	C140	C	0.504351	0.116876	0.876345
	C141	C	0.487914	0.116094	0.119039
	C142	C	0.504343	0.872616	0.119870
	C143	C	0.487924	0.871761	0.876073
	C144	C	0.373544	0.884730	0.677754
	C145	C	0.619396	0.106575	0.678551
	C146	C	0.618959	0.883721	0.317706
	C147	C	0.375283	0.107082	0.316845
	C148	C	0.678044	0.372090	0.887850
	C149	C	0.677730	0.619934	0.111651
	C150	C	0.314472	0.616852	0.888126
	C151	C	0.315294	0.369496	0.111298
	C152	C	0.887162	0.678561	0.374071
	C153	C	0.106321	0.681071	0.626326
	C154	C	0.886570	0.314452	0.623380
	C155	C	0.108138	0.314794	0.376313
	C156	C	0.885271	0.374329	0.679428
	C157	C	0.106957	0.621319	0.682825
	C158	C	0.886162	0.618392	0.318713
	C159	C	0.108025	0.372763	0.318374
	C160	C	0.373250	0.672852	0.886746
	C161	C	0.618853	0.675592	0.112047
	C162	C	0.619256	0.315603	0.886910
	C163	C	0.374507	0.314081	0.111486
	C164	C	0.679449	0.885191	0.372476
	C165	C	0.677904	0.106302	0.621671
	C166	C	0.312844	0.886995	0.623536
	C167	C	0.315328	0.106289	0.371819
	C168	C	0.874294	0.385426	0.179499
	C169	C	0.120767	0.607099	0.181133
	C170	C	0.118096	0.384077	0.818644
	C171	C	0.873036	0.608053	0.818264
	C172	C	0.179038	0.871638	0.387143
	C173	C	0.181002	0.122256	0.610063
	C174	C	0.817464	0.118697	0.387124
	C175	C	0.815864	0.872056	0.610621
	C176	C	0.386751	0.178429	0.871224
	C177	C	0.606599	0.176429	0.121620
	C178	C	0.385085	0.812894	0.121996
	C179	C	0.606899	0.812901	0.874886
	C180	C	0.385316	0.871188	0.179750
	C181	C	0.607183	0.117364	0.178675
	C182	C	0.385911	0.118633	0.815002
	C183	C	0.607721	0.872680	0.818319
	C184	C	0.876267	0.175294	0.386774
	C185	C	0.121253	0.177143	0.611738
	C186	C	0.121303	0.814048	0.387316
	C187	C	0.874085	0.815654	0.611068
	C188	C	0.177225	0.384457	0.874760
	C189	C	0.180577	0.605459	0.125898
	C190	C	0.815428	0.386186	0.123472
	C191	C	0.813931	0.607245	0.874723
	C192	C	0.402116	0.087362	0.592194
	C193	C	0.594730	0.902715	0.593950
	C194	C	0.595801	0.087800	0.401323
	C195	C	0.399942	0.904666	0.403265
	C196	C	0.593089	0.400030	0.091718
	C197	C	0.593418	0.590513	0.906864
	C198	C	0.401123	0.589810	0.092436
	C199	C	0.399160	0.400337	0.907066
	C200	C	0.087751	0.592817	0.405043
	C201	C	0.906086	0.593904	0.595386
	C202	C	0.087866	0.399897	0.596415
	C203	C	0.906308	0.397794	0.402788
	C204	C	0.900185	0.588986	0.095359
	C205	C	0.093102	0.403644	0.095926
	C206	C	0.093132	0.586521	0.906413
	C207	C	0.899353	0.405137	0.903856
	C208	C	0.091623	0.904096	0.589573
	C209	C	0.093436	0.092410	0.406705
	C210	C	0.900515	0.091674	0.592770
	C211	C	0.901247	0.900803	0.406289
	C212	C	0.586791	0.091822	0.902512
	C213	C	0.405631	0.090985	0.093355
	C214	C	0.586963	0.896961	0.094949
	C215	C	0.404620	0.895572	0.900133
	Zn216	Zn	0.496739	-0.005131	0.747412
	Zn217	Zn	0.496330	-0.005057	0.249172
	Zn218	Zn	0.746498	0.496681	0.000068
	Zn219	Zn	0.246752	0.494250	0.000849
	Zn220	Zn	-0.003260	0.747777	0.499125
	Zn221	Zn	-0.002618	0.244753	0.500355
	Zn222	Zn	-0.003330	0.496706	0.750672
	Zn223	Zn	-0.002996	0.496537	0.249032
	Zn224	Zn	0.495874	0.743105	-0.001077
	Zn225	Zn	0.496024	0.246676	-0.001728
	Zn226	Zn	0.747746	-0.004621	0.498435
	Zn227	Zn	0.246689	-0.002408	0.497855
	N228	N	0.412196	0.958952	0.674691
	N229	N	0.583451	0.030951	0.677243
	N230	N	0.582315	0.958730	0.320082
	N231	N	0.412215	0.032361	0.320394
	N232	N	0.677223	0.408387	0.964142
	N233	N	0.677606	0.583996	0.035226
	N234	N	0.315684	0.581701	0.964861
	N235	N	0.315140	0.405870	0.035149
	N236	N	0.962224	0.678314	0.410730
	N237	N	0.031528	0.679996	0.589102
	N238	N	0.962141	0.314471	0.588096
	N239	N	0.033175	0.314981	0.412628
	N240	N	0.960012	0.411215	0.678242
	N241	N	0.032604	0.583852	0.680192
	N242	N	0.960583	0.581086	0.321502
	N243	N	0.032950	0.408735	0.319101
	N244	N	0.410512	0.671773	0.962523
	N245	N	0.582666	0.673752	0.035735
	N246	N	0.582326	0.317468	0.962390
	N247	N	0.410564	0.316455	0.035384
	N248	N	0.679968	0.961112	0.408338
	N249	N	0.677738	0.030443	0.585610
	N250	N	0.314470	0.962631	0.587201
	N251	N	0.315164	0.030884	0.408625
	N252	N	0.911184	0.460434	0.177775
	N253	N	0.083078	0.532451	0.178715
	N254	N	0.081631	0.459193	0.821675
	N255	N	0.910046	0.533102	0.820499
	N256	N	0.176790	0.909979	0.462288
	N257	N	0.179739	0.086403	0.533461
	N258	N	0.817234	0.083149	0.463706
	N259	N	0.816742	0.908169	0.534183
	N260	N	0.461440	0.177514	0.908673
	N261	N	0.531443	0.175882	0.085193
	N262	N	0.459970	0.813511	0.085538
	N263	N	0.531317	0.812139	0.909941
	N264	N	0.460283	0.907555	0.178675
	N265	N	0.532493	0.080659	0.177289
	N266	N	0.460030	0.080971	0.818120
	N267	N	0.532691	0.908588	0.819037
	N268	N	0.911867	0.174177	0.463326
	N269	N	0.083186	0.174469	0.536499
	N270	N	0.083951	0.816961	0.462902
	N271	N	0.910785	0.817604	0.535311
	N272	N	0.176949	0.459695	0.912213
	N273	N	0.179508	0.529456	0.089819
	N274	N	0.816212	0.461929	0.087473
	N275	N	0.814446	0.531733	0.911025
	O276	O	0.453312	0.355203	0.439913
	H277	H	0.440110	0.362981	0.434476
	H278	H	0.447407	0.365569	0.452402
	O279	O	0.546586	0.399395	0.492976
	H280	H	0.547613	0.393325	0.481713
	H281	H	0.534977	0.409921	0.504062
	O282	O	0.641493	0.350322	0.448533
	H283	H	0.641594	0.345617	0.435210
	H284	H	0.645233	0.346330	0.436813
	O285	O	0.805011	1.200894	-0.037312
	H286	H	0.792945	1.221548	-0.033814
	H287	H	0.821727	1.201049	-0.064644
	O288	O	0.293949	0.497861	0.395902
	H289	H	0.285709	0.494706	0.398707
	H290	H	0.284315	0.503251	0.379822
	O291	O	0.465862	0.314923	0.385748
	H292	H	0.459203	0.301068	0.371376
	H293	H	0.462408	0.311204	0.399682
	O294	O	1.107392	0.817069	1.098398
	H295	H	1.101156	0.819430	1.106578
	H296	H	1.094122	0.821709	1.096618
	O297	O	0.442945	0.528426	0.686098
	H298	H	0.437603	0.510395	0.684576
	H299	H	0.433320	0.540646	0.703629
	O300	O	0.354238	0.310714	0.527891
	H301	H	0.379205	0.304541	0.520373
	H302	H	0.349713	0.333138	0.522243
	O303	O	0.601903	0.647377	0.706678
	H304	H	0.630645	0.643087	0.700863
	H305	H	0.614687	0.668159	0.724860
	O306	O	-0.201234	0.036057	0.794977
	H307	H	-0.214653	0.027534	0.791021
	H308	H	-0.201230	0.026240	0.795292
	O309	O	1.195031	0.056674	0.116080
	H310	H	1.200150	0.051725	0.090048
	H311	H	1.165996	0.059218	0.109440
	O312	O	0.364146	0.399305	0.658728
	H313	H	0.371106	0.412589	0.652838
	H314	H	0.357280	0.406266	0.627873
	O315	O	0.686079	0.314280	0.349182
	H316	H	0.668477	0.321211	0.334368
	H317	H	0.697368	0.308160	0.334848
	O318	O	0.013723	0.197485	0.191539
	H319	H	0.016893	0.194002	0.170362
	H320	H	0.021222	0.222638	0.206669
	O321	O	0.423479	0.619742	0.354851
	H322	H	0.442244	0.634687	0.356749
	H323	H	0.418835	0.621906	0.375250
	O324	O	1.188437	0.188930	1.100416
	H325	H	1.183939	0.169126	1.094742
	H326	H	1.200943	0.211832	1.077789
	O327	O	0.631115	0.497715	0.696610
	H328	H	0.635488	0.478882	0.693495
	H329	H	0.634656	0.486709	0.700221
	O330	O	-0.000655	1.022844	1.111349
	H331	H	0.014506	1.006280	1.119142
	H332	H	0.018169	1.029996	1.113290
	O333	O	-0.029518	0.925003	-0.203223
	H334	H	-0.037806	0.931631	-0.189060
	H335	H	-0.019918	0.943597	-0.202906
	O336	O	1.200660	1.031797	0.054493
	H337	H	1.209091	1.032805	0.050276
	H338	H	1.203508	1.053504	0.059883
	O339	O	-0.046222	0.817586	0.996492
	H340	H	-0.054001	0.814534	0.980598
	H341	H	-0.052307	0.823765	0.976297
	O342	O	0.496001	0.604992	0.293236
	H343	H	0.472189	0.598780	0.303374
	H344	H	0.489076	0.622871	0.276931
	O345	O	-0.188923	0.145348	0.866431
	H346	H	-0.193586	0.149502	0.859834
	H347	H	-0.200094	0.129690	0.874314
	O348	O	0.300546	0.369407	0.603375
	H349	H	0.284323	0.367813	0.593134
	H350	H	0.289480	0.380043	0.626743
	O351	O	0.820964	1.034913	0.010630
	H352	H	0.815218	1.042043	0.017578
	H353	H	0.818194	1.039994	0.021818
	O354	O	1.143073	1.203683	0.974458
	H355	H	1.144626	1.214332	0.975199
	H356	H	1.138640	1.190316	0.953263
	O357	O	-0.034931	0.192440	-0.201820
	H358	H	-0.039207	0.205978	-0.212553
	H359	H	-0.052282	0.179780	-0.208703
	O360	O	0.695006	0.461448	0.345071
	H361	H	0.681048	0.468059	0.332719
	H362	H	0.700626	0.461047	0.336530
	O363	O	0.940910	0.141419	0.033943
	H364	H	0.946355	0.129306	0.016457
	H365	H	0.949597	0.140008	0.031280
	O366	O	-0.070488	-0.192489	1.167283
	H367	H	-0.067128	-0.197343	1.153701
	H368	H	-0.069935	-0.183824	1.172666
	O369	O	0.902613	-0.054775	0.913845
	H370	H	0.893026	-0.074826	0.932341
	H371	H	0.895435	-0.047633	0.925197
	O372	O	0.486867	0.585930	0.656389
	H373	H	0.492428	0.589214	0.665141
	H374	H	0.488149	0.589812	0.672334
	O375	O	0.191935	-0.193590	0.812054
	H376	H	0.158338	-0.194075	0.817473
	H377	H	0.196907	-0.181382	0.846148
	O378	O	0.443600	0.468957	0.431700
	H379	H	0.437396	0.472936	0.435356
	H380	H	0.435723	0.482668	0.426829
	O381	O	-0.143903	1.124047	0.173849
	H382	H	-0.129006	1.103002	0.167368
	H383	H	-0.122879	1.140936	0.159972
	O384	O	0.687363	0.679012	0.595204
	H385	H	0.693737	0.653874	0.608729
	H386	H	0.698024	0.675562	0.572364
	O387	O	0.458442	0.555121	0.499393
	H388	H	0.475578	0.563771	0.502377
	H389	H	0.449606	0.551649	0.499441
	O390	O	0.837224	0.883090	0.184700
	H391	H	0.848973	0.896933	0.191313
	H392	H	0.844088	0.907229	0.184454
	O393	O	1.094411	-0.072814	1.089588
	H394	H	1.083058	-0.077968	1.084149
	H395	H	1.094668	-0.068208	1.098014
	O396	O	0.460484	0.293903	0.630757
	H397	H	0.456480	0.293032	0.620598
	H398	H	0.470606	0.283078	0.635140
	O399	O	0.674397	0.678673	0.439914
	H400	H	0.671423	0.685282	0.450216
	H401	H	0.697484	0.670785	0.428745
	O402	O	0.789277	0.815661	-0.013840
	H403	H	0.804895	0.815947	0.016014
	H404	H	0.761436	0.796908	-0.013217
	O405	O	0.290448	0.702536	0.481236
	H406	H	0.291913	0.713822	0.497256
	H407	H	0.286312	0.717263	0.505289
	O408	O	0.621013	0.468935	0.486266
	H409	H	0.613961	0.463569	0.478640
	H410	H	0.616561	0.460983	0.477460
	O411	O	1.111362	1.010881	1.109561
	H412	H	1.120863	1.008233	1.123448
	H413	H	1.101958	0.996200	1.109066
	O414	O	0.371864	0.606506	0.532521
	H415	H	0.384450	0.612099	0.531113
	H416	H	0.381252	0.598488	0.547508
	O417	O	0.159670	0.949182	0.804740
	H418	H	0.166513	0.942360	0.800996
	H419	H	0.165182	0.933354	0.795050
	O420	O	0.050549	0.781412	0.825586
	H421	H	0.038006	0.796488	0.815512
	H422	H	0.052736	0.763917	0.803244
	O423	O	-0.117043	0.966364	0.198311
	H424	H	-0.125290	0.974213	0.214567
	H425	H	-0.107053	0.971431	0.199697
	O426	O	0.469454	0.664558	0.480438
	H427	H	0.484697	0.680634	0.498027
	H428	H	0.494536	0.648263	0.473860
	O429	O	0.602314	0.617449	0.538722
	H430	H	0.589276	0.605879	0.537794
	H431	H	0.609508	0.602333	0.540264
	O432	O	0.628249	0.394583	0.573447
	H433	H	0.621415	0.393969	0.567745
	H434	H	0.624142	0.396298	0.550767
	O435	O	0.056744	0.068002	-0.124720
	H436	H	0.050760	0.069370	-0.114318
	H437	H	0.094693	0.060644	-0.136842
	O438	O	0.198774	0.825365	0.951303
	H439	H	0.182698	0.829316	0.964807
	H440	H	0.207348	0.824774	0.951642
	O441	O	0.297390	0.597125	0.303196
	H442	H	0.300123	0.604871	0.302603
	H443	H	0.278870	0.608174	0.311343
