data_Molecule from HDF5

_cell_length_a		16.550007
_cell_length_b		16.606627
_cell_length_c		16.618806
_cell_angle_alpha	90.102244
_cell_angle_beta	89.888782
_cell_angle_gamma	90.081841
_symmetry_space_group_name_H-M	'P 1'
_symmetry_Int_Tables_number		1

loop_
	_symmetry_equiv_pos_as_xyz
	x,y,z

loop_
	_atom_site_label
	_atom_site_type_symbol
	_atom_site_fract_x
	_atom_site_fract_y
	_atom_site_fract_z
	H0	H	0.404151	0.862909	0.711602
	H1	H	0.617227	0.173872	0.709115
	H2	H	0.618272	0.862918	0.265416
	H3	H	0.408752	0.174600	0.267549
	H4	H	0.734670	0.413912	0.832674
	H5	H	0.735573	0.626762	0.143005
	H6	H	0.288762	0.625410	0.833144
	H7	H	0.292621	0.414851	0.144973
	H8	H	0.856146	0.741037	0.382232
	H9	H	0.167458	0.743173	0.596198
	H10	H	0.856286	0.298205	0.591881
	H11	H	0.169435	0.299280	0.382842
	H12	H	0.856493	0.413805	0.708853
	H13	H	0.167884	0.627093	0.711040
	H14	H	0.855065	0.622964	0.267909
	H15	H	0.168451	0.414722	0.266263
	H16	H	0.403868	0.742740	0.834145
	H17	H	0.619859	0.742540	0.142729
	H18	H	0.620073	0.295311	0.833379
	H19	H	0.407508	0.297205	0.144003
	H20	H	0.732242	0.862397	0.384376
	H21	H	0.732074	0.174484	0.591559
	H22	H	0.289291	0.862482	0.594320
	H23	H	0.293871	0.175664	0.385341
	H24	H	0.908312	0.361517	0.206763
	H25	H	0.118325	0.673656	0.211320
	H26	H	0.119127	0.363968	0.765905
	H27	H	0.904351	0.673059	0.763699
	H28	H	0.234918	0.911993	0.332847
	H29	H	0.231087	0.121466	0.644592
	H30	H	0.791600	0.121661	0.331409
	H31	H	0.788407	0.912468	0.643023
	H32	H	0.356858	0.240254	0.882551
	H33	H	0.670100	0.237264	0.089988
	H34	H	0.356365	0.797916	0.091628
	H35	H	0.666264	0.792148	0.877478
	H36	H	0.356975	0.913332	0.209059
	H37	H	0.669056	0.123159	0.208237
	H38	H	0.357430	0.123917	0.765423
	H39	H	0.668258	0.911019	0.764446
	H40	H	0.908200	0.237734	0.330581
	H41	H	0.116166	0.239793	0.643243
	H42	H	0.119518	0.794339	0.334231
	H43	H	0.904202	0.795405	0.643268
	H44	H	0.233070	0.362634	0.884720
	H45	H	0.235091	0.673674	0.095454
	H46	H	0.792245	0.362107	0.090072
	H47	H	0.789670	0.674086	0.881451
	H48	H	0.429620	0.126052	0.575153
	H49	H	0.604721	0.906550	0.571100
	H50	H	0.605221	0.130067	0.401638
	H51	H	0.428446	0.907260	0.393514
	H52	H	0.600445	0.432330	0.098035
	H53	H	0.599818	0.602980	0.878730
	H54	H	0.426189	0.607264	0.097949
	H55	H	0.422481	0.427378	0.876035
	H56	H	0.119250	0.604774	0.408167
	H57	H	0.900775	0.605606	0.577545
	H58	H	0.122076	0.431206	0.572004
	H59	H	0.900077	0.424849	0.403078
	H60	H	0.126848	0.433022	0.581886
	H61	H	0.900985	0.606270	0.575240
	H62	H	0.121920	0.598898	0.395514
	H63	H	0.900597	0.433070	0.396451
	H64	H	0.422943	0.608619	0.099853
	H65	H	0.598042	0.606397	0.878435
	H66	H	0.598121	0.424646	0.100456
	H67	H	0.422338	0.430219	0.876204
	H68	H	0.602513	0.132588	0.392732
	H69	H	0.600045	0.904112	0.582054
	H70	H	0.416822	0.129730	0.573167
	H71	H	0.425711	0.909366	0.405186
	H72	H	0.922983	0.631310	0.080488
	H73	H	0.106614	0.405830	0.073055
	H74	H	0.106097	0.631307	0.905059
	H75	H	0.920973	0.406652	0.897366
	H76	H	0.100065	0.933478	0.598423
	H77	H	0.101135	0.111747	0.374027
	H78	H	0.922942	0.112232	0.600446
	H79	H	0.921183	0.937918	0.379620
	H80	H	0.624698	0.106078	0.897474
	H81	H	0.397943	0.111603	0.080032
	H82	H	0.622550	0.932210	0.071945
	H83	H	0.405906	0.938681	0.904143
	H84	H	0.624843	0.932327	0.079363
	H85	H	0.401352	0.108973	0.072869
	H86	H	0.625416	0.109116	0.896901
	H87	H	0.399164	0.932082	0.893773
	H88	H	0.919503	0.108392	0.600060
	H89	H	0.106814	0.108306	0.374007
	H90	H	0.096629	0.929452	0.598331
	H91	H	0.932267	0.928046	0.379648
	H92	H	0.100964	0.632549	0.893415
	H93	H	0.101429	0.404209	0.083630
	H94	H	0.924923	0.630546	0.077746
	H95	H	0.928308	0.407933	0.896686
	H96	H	0.422707	0.131679	0.585056
	H97	H	0.593350	0.909693	0.573643
	H98	H	0.596388	0.128285	0.398426
	H99	H	0.418136	0.904386	0.398187
	H100	H	0.606166	0.428088	0.102219
	H101	H	0.601516	0.606196	0.876890
	H102	H	0.422878	0.604967	0.098415
	H103	H	0.424743	0.428865	0.876700
	H104	H	0.126631	0.612429	0.398337
	H105	H	0.901420	0.604186	0.576169
	H106	H	0.127875	0.423157	0.576803
	H107	H	0.896168	0.423650	0.393121
	H108	H	0.921385	0.631260	0.077475
	H109	H	0.096023	0.409589	0.074934
	H110	H	0.094712	0.626545	0.902647
	H111	H	0.924815	0.409450	0.903429
	H112	H	0.101324	0.928861	0.600384
	H113	H	0.101575	0.105848	0.377216
	H114	H	0.924761	0.107584	0.598468
	H115	H	0.919547	0.924437	0.373605
	H116	H	0.624762	0.107842	0.899899
	H117	H	0.400833	0.103498	0.079798
	H118	H	0.626544	0.925939	0.075455
	H119	H	0.401710	0.925086	0.905889
	C120	C	0.390272	0.026445	0.610357
	C121	C	0.632292	1.009779	0.608141
	C122	C	0.633833	0.027193	0.365780
	C123	C	0.392055	1.010262	0.367291
	C124	C	0.633961	0.396862	-0.003148
	C125	C	0.633378	0.639440	0.979978
	C126	C	0.390653	0.640161	-0.003491
	C127	C	0.391180	0.396941	0.979708
	C128	C	0.019820	0.638640	0.367897
	C129	C	1.003936	0.639295	0.609329
	C130	C	0.021525	0.397402	0.608746
	C131	C	1.002938	0.396197	0.365496
	C132	C	0.890919	0.527306	0.109496
	C133	C	0.133573	0.509714	0.110050
	C134	C	0.133677	0.527397	0.867493
	C135	C	0.891199	0.510390	0.866453
	C136	C	0.133226	0.897042	0.496731
	C137	C	0.134206	0.140062	0.478712
	C138	C	0.890635	0.140327	0.495950
	C139	C	0.890918	0.897278	0.480109
	C140	C	0.521540	0.140158	0.865924
	C141	C	0.504063	0.139574	0.108608
	C142	C	0.521288	0.897747	0.108320
	C143	C	0.504399	0.897373	0.866813
	C144	C	0.386558	0.909628	0.671180
	C145	C	0.635050	0.127164	0.668637
	C146	C	0.636274	0.909508	0.306001
	C147	C	0.390186	0.127763	0.307586
	C148	C	0.694568	0.395119	0.879476
	C149	C	0.695087	0.644172	0.096355
	C150	C	0.329089	0.643414	0.879885
	C151	C	0.332080	0.395680	0.097631
	C152	C	0.902589	0.699719	0.364778
	C153	C	0.120848	0.701817	0.613110
	C154	C	0.903451	0.337993	0.610341
	C155	C	0.121769	0.338099	0.363891
	C156	C	0.903584	0.395684	0.668322
	C157	C	0.121239	0.644200	0.670524
	C158	C	0.902151	0.641270	0.307722
	C159	C	0.121254	0.395258	0.305753
	C160	C	0.386502	0.701621	0.880294
	C161	C	0.637139	0.701543	0.096155
	C162	C	0.637535	0.336425	0.879752
	C163	C	0.389126	0.337120	0.097067
	C164	C	0.692973	0.909203	0.364645
	C165	C	0.691852	0.127578	0.609973
	C166	C	0.329450	0.909283	0.612805
	C167	C	0.333135	0.128181	0.366307
	C168	C	0.889763	0.408676	0.167187
	C169	C	0.136417	0.627023	0.170686
	C170	C	0.136830	0.410244	0.806727
	C171	C	0.887317	0.626838	0.805068
	C172	C	0.194873	0.893360	0.380042
	C173	C	0.192098	0.141053	0.597232
	C174	C	0.831410	0.140912	0.378264
	C175	C	0.829304	0.894456	0.596649
	C176	C	0.403872	0.200208	0.863637
	C177	C	0.622730	0.198325	0.109452
	C178	C	0.403412	0.837675	0.110472
	C179	C	0.620587	0.834403	0.861217
	C180	C	0.403584	0.895104	0.168579
	C181	C	0.622236	0.141443	0.167986
	C182	C	0.404012	0.142365	0.805713
	C183	C	0.621280	0.893250	0.804808
	C184	C	0.889489	0.198678	0.378028
	C185	C	0.135377	0.199803	0.596474
	C186	C	0.137131	0.835254	0.380375
	C187	C	0.886999	0.836505	0.596839
	C188	C	0.193446	0.409526	0.865700
	C189	C	0.194528	0.627006	0.113209
	C190	C	0.832009	0.409044	0.109441
	C191	C	0.829822	0.627056	0.863149
	C192	C	0.415750	0.107851	0.585070
	C193	C	0.606589	0.928084	0.582870
	C194	C	0.608599	0.109037	0.390569
	C195	C	0.416963	0.928244	0.391817
	C196	C	0.608765	0.421469	0.078911
	C197	C	0.607139	0.612926	0.899069
	C198	C	0.416801	0.614458	0.077532
	C199	C	0.416024	0.421818	0.897637
	C200	C	0.101400	0.612791	0.393481
	C201	C	0.922437	0.612685	0.583665
	C202	C	0.104142	0.422111	0.584116
	C203	C	0.920555	0.420231	0.390400
	C204	C	0.915670	0.609523	0.085534
	C205	C	0.108414	0.427860	0.084439
	C206	C	0.107984	0.608994	0.893054
	C207	C	0.917476	0.429166	0.891958
	C208	C	0.106890	0.923110	0.577904
	C209	C	0.110156	0.115495	0.396430
	C210	C	0.915269	0.116161	0.578192
	C211	C	0.917162	0.922836	0.398897
	C212	C	0.603679	0.114848	0.891038
	C213	C	0.421556	0.114991	0.084351
	C214	C	0.603300	0.922983	0.082882
	C215	C	0.423415	0.924248	0.893743
	Zn216	Zn	0.512417	0.017661	0.738227
	Zn217	Zn	0.512815	0.018406	0.237242
	Zn218	Zn	0.762524	0.519083	-0.011707
	Zn219	Zn	0.262096	0.518600	-0.011270
	Zn220	Zn	0.011417	0.767755	0.488895
	Zn221	Zn	0.012619	0.268697	0.487120
	Zn222	Zn	0.012843	0.519034	0.738104
	Zn223	Zn	0.011910	0.518670	0.238237
	Zn224	Zn	0.512876	0.768626	-0.012510
	Zn225	Zn	0.512694	0.268161	-0.011995
	Zn226	Zn	0.761810	0.018339	0.487644
	Zn227	Zn	0.262452	0.018311	0.487917
	N228	N	0.423881	0.983473	0.669700
	N229	N	0.598932	0.052760	0.667863
	N230	N	0.600412	0.984042	0.306307
	N231	N	0.425969	0.053227	0.307755
	N232	N	0.692537	0.432069	0.953406
	N233	N	0.692956	0.606206	0.023058
	N234	N	0.331574	0.605776	0.953172
	N235	N	0.333099	0.432061	0.023450
	N236	N	0.976812	0.698494	0.401342
	N237	N	0.046884	0.699092	0.575824
	N238	N	0.978040	0.338773	0.574038
	N239	N	0.047132	0.338306	0.400226
	N240	N	0.978225	0.431568	0.667738
	N241	N	0.047535	0.606110	0.668566
	N242	N	0.976159	0.604045	0.309406
	N243	N	0.046289	0.430497	0.306483
	N244	N	0.424184	0.699773	0.953777
	N245	N	0.599424	0.698832	0.022687
	N246	N	0.600543	0.337474	0.953704
	N247	N	0.425304	0.337815	0.022596
	N248	N	0.691931	0.983577	0.400734
	N249	N	0.690476	0.053387	0.573235
	N250	N	0.331558	0.982928	0.575558
	N251	N	0.334067	0.053993	0.402592
	N252	N	0.925594	0.483298	0.167602
	N253	N	0.099208	0.553168	0.168762
	N254	N	0.100402	0.484512	0.807677
	N255	N	0.924778	0.553218	0.806963
	N256	N	0.192396	0.931200	0.453356
	N257	N	0.191662	0.104734	0.522962
	N258	N	0.831857	0.105453	0.452794
	N259	N	0.831674	0.931829	0.523070
	N260	N	0.478180	0.199128	0.900167
	N261	N	0.548160	0.197299	0.073370
	N262	N	0.477679	0.839059	0.073736
	N263	N	0.546862	0.836771	0.898968
	N264	N	0.478080	0.931529	0.167509
	N265	N	0.547395	0.105581	0.167755
	N266	N	0.478190	0.105761	0.807177
	N267	N	0.547945	0.931847	0.808255
	N268	N	0.925367	0.198661	0.452501
	N269	N	0.100086	0.199446	0.521718
	N270	N	0.099598	0.837112	0.454195
	N271	N	0.924673	0.838290	0.523289
	N272	N	0.191843	0.483510	0.902445
	N273	N	0.192932	0.553010	0.076114
	N274	N	0.832558	0.483864	0.074345
	N275	N	0.832068	0.553667	0.900784
	O276	O	-0.019300	0.795600	-0.164181
	H277	H	0.006621	0.795836	-0.165505
	H278	H	-0.006214	0.782312	-0.180994
	O279	O	0.811167	0.816983	0.187547
	H280	H	0.820609	0.825396	0.167001
	H281	H	0.802281	0.837468	0.195530
	O282	O	0.533602	-0.272124	1.702204
	H283	H	0.536755	-0.265311	1.711994
	H284	H	0.523985	-0.285532	1.717999
	O285	O	0.574780	0.477980	0.360744
	H286	H	0.588318	0.507863	0.374315
	H287	H	0.583609	0.464976	0.348972
	O288	O	0.339344	0.428397	0.472260
	H289	H	0.334658	0.445693	0.486334
	H290	H	0.334811	0.435351	0.473340
	O291	O	0.388460	0.518773	0.533244
	H292	H	0.395646	0.515659	0.529950
	H293	H	0.388200	0.527820	0.535418
	O294	O	1.026472	0.134853	0.827609
	H295	H	1.008831	0.133409	0.823150
	H296	H	1.019961	0.130631	0.842646
	O297	O	0.678488	0.540940	0.613945
	H298	H	0.674135	0.529419	0.615400
	H299	H	0.666566	0.529606	0.628039
	O300	O	-0.295892	-0.427688	0.411747
	H301	H	-0.284405	-0.419915	0.405698
	H302	H	-0.283142	-0.419846	0.391067
	O303	O	-0.014402	0.240907	-0.231480
	H304	H	-0.027667	0.250557	-0.243122
	H305	H	-0.040785	0.244413	-0.244087
	O306	O	0.476398	0.533738	0.532731
	H307	H	0.469160	0.538891	0.535082
	H308	H	0.492376	0.534788	0.528505
	O309	O	0.297683	0.301485	0.520303
	H310	H	0.292952	0.337175	0.509002
	H311	H	0.263713	0.278036	0.524423
	O312	O	0.395669	0.456657	0.321170
	H313	H	0.401775	0.482142	0.338921
	H314	H	0.395398	0.470088	0.320044
	O315	O	1.017065	0.857992	1.206204
	H316	H	1.009706	0.859806	1.219698
	H317	H	1.005188	0.862470	1.224258
	O318	O	0.695242	0.418397	0.544545
	H319	H	0.691651	0.438845	0.524428
	H320	H	0.699391	0.402218	0.530412
	O321	O	0.004170	1.224117	1.123363
	H322	H	0.022214	1.231363	1.103164
	H323	H	0.009394	1.227419	1.133676
	O324	O	0.780814	0.962596	-0.057366
	H325	H	0.780783	0.950690	-0.065658
	H326	H	0.774638	0.942734	-0.066956
	O327	O	-0.670780	0.337430	0.300355
	H328	H	-0.649704	0.352312	0.315290
	H329	H	-0.655373	0.363638	0.311503
	O330	O	0.025325	0.223220	0.983013
	H331	H	0.030652	0.228142	0.981892
	H332	H	0.017892	0.225798	0.972749
	O333	O	0.456078	0.376362	0.550916
	H334	H	0.444243	0.377017	0.564113
	H335	H	0.452927	0.374112	0.547598
	O336	O	0.946957	0.081149	-0.002060
	H337	H	0.952330	0.072451	-0.011689
	H338	H	0.930122	0.092984	0.001163
	O339	O	1.154762	0.136446	1.048762
	H340	H	1.157202	0.145254	1.046526
	H341	H	1.158400	0.150296	1.062606
	O342	O	-0.268991	-0.514161	0.268859
	H343	H	-0.253701	-0.529506	0.243655
	H344	H	-0.284865	-0.518935	0.258873
	O345	O	-0.200255	0.806987	1.013415
	H346	H	-0.190239	0.800662	1.012690
	H347	H	-0.203263	0.781611	1.012301
	O348	O	-0.121945	-0.081601	0.834742
	H349	H	-0.121153	-0.094148	0.835654
	H350	H	-0.126748	-0.089886	0.836010
	O351	O	0.301309	0.554779	0.306498
	H352	H	0.297922	0.571351	0.307424
	H353	H	0.292927	0.572271	0.296423
	O354	O	-0.380672	0.308675	0.286071
	H355	H	-0.410802	0.314360	0.298636
	H356	H	-0.384647	0.292584	0.271177
	O357	O	0.215599	0.108574	-0.113309
	H358	H	0.216492	0.095793	-0.109809
	H359	H	0.206468	0.093688	-0.094947
	O360	O	-0.197728	-0.015255	1.201745
	H361	H	-0.201275	-0.004475	1.207185
	H362	H	-0.211074	-0.010501	1.194816
	O363	O	-0.495950	0.341547	0.379681
	H364	H	-0.500745	0.352128	0.399780
	H365	H	-0.492136	0.343808	0.397665
	O366	O	0.598665	0.587307	0.608769
	H367	H	0.606193	0.591230	0.610356
	H368	H	0.598753	0.585201	0.621400
	O369	O	1.208196	0.230787	0.107662
	H370	H	1.193490	0.233609	0.094508
	H371	H	1.229549	0.242304	0.114872
	O372	O	1.166856	0.968276	0.047876
	H373	H	1.161730	0.970717	0.057593
	H374	H	1.155693	0.981833	0.051584
	O375	O	0.814836	0.159132	0.137064
	H376	H	0.835429	0.151548	0.113785
	H377	H	0.814533	0.156006	0.122820
	O378	O	1.000015	-0.146269	-0.118599
	H379	H	1.006677	-0.149852	-0.109216
	H380	H	1.005378	-0.147353	-0.117736
	O381	O	0.163048	0.795539	0.995329
	H382	H	0.165372	0.796991	1.011589
	H383	H	0.160246	0.790986	1.014042
	O384	O	0.804998	0.228764	0.779073
	H385	H	0.785186	0.229803	0.762613
	H386	H	0.794470	0.235551	0.778861
	O387	O	1.035790	0.902976	0.133077
	H388	H	1.024329	0.914002	0.141242
	H389	H	1.013529	0.892093	0.134387
	O390	O	0.199069	0.831416	1.170379
	H391	H	0.178733	0.851620	1.161020
	H392	H	0.185602	0.847483	1.156938
	O393	O	0.602335	0.665973	0.455289
	H394	H	0.607821	0.672557	0.460319
	H395	H	0.597567	0.669840	0.467270
	O396	O	0.226700	0.804288	0.780714
	H397	H	0.213864	0.820135	0.792827
	H398	H	0.227723	0.804092	0.806751
	O399	O	0.561165	-0.280602	1.499310
	H400	H	0.563764	-0.273441	1.508539
	H401	H	0.565711	-0.291175	1.489405
	O402	O	0.611257	0.675621	0.556912
	H403	H	0.602830	0.686448	0.556861
	H404	H	0.603713	0.661489	0.546859
	O405	O	0.998989	-0.020886	0.764321
	H406	H	0.991871	-0.039534	0.763347
	H407	H	0.993341	-0.013971	0.762172
	O408	O	-0.279156	-0.279316	-0.302093
	H409	H	-0.308524	-0.273046	-0.318315
	H410	H	-0.277542	-0.321580	-0.308300
	O411	O	0.294804	0.733580	0.458308
	H412	H	0.291708	0.734400	0.475180
	H413	H	0.276035	0.749068	0.453274
	O414	O	0.550215	0.572369	0.284814
	H415	H	0.539836	0.589231	0.280229
	H416	H	0.546589	0.568293	0.293209
	O417	O	0.428806	0.562884	0.653626
	H418	H	0.417491	0.561622	0.656407
	H419	H	0.429819	0.560008	0.655756
	O420	O	0.491434	0.529055	0.432457
	H421	H	0.509602	0.536858	0.433953
	H422	H	0.487608	0.546760	0.428706
	O423	O	0.228093	-0.014462	0.773089
	H424	H	0.216919	-0.018823	0.785785
	H425	H	0.253847	-0.017896	0.746258
	O426	O	0.777081	0.260703	0.209690
	H427	H	0.790642	0.232747	0.185406
	H428	H	0.747192	0.273618	0.214135
	O429	O	1.488091	0.731741	1.271927
	H430	H	1.481862	0.737971	1.267975
	H431	H	1.464976	0.742238	1.268779
	O432	O	0.294482	0.489687	0.706005
	H433	H	0.299889	0.464435	0.706721
	H434	H	0.269936	0.479924	0.726950
	O435	O	0.318627	1.305673	-0.288193
	H436	H	0.289256	1.276480	-0.262118
	H437	H	0.320601	1.306858	-0.302613
	O438	O	0.700183	0.329240	0.678153
	H439	H	0.669147	0.337439	0.663983
	H440	H	0.695685	0.356825	0.653297
	O441	O	0.035832	-0.022040	0.168635
	H442	H	0.039156	-0.012569	0.173856
	H443	H	0.021638	-0.005630	0.168441
	O444	O	0.352278	0.679443	0.654281
	H445	H	0.371833	0.668989	0.651712
	H446	H	0.335737	0.688438	0.676499
	O447	O	0.310981	1.728851	1.276159
	H448	H	0.320573	1.721610	1.298997
	H449	H	0.284937	1.759838	1.248108
	O450	O	-0.013752	0.972563	0.920777
	H451	H	-0.004652	0.973092	0.910984
	H452	H	-0.022865	0.971504	0.920466
	O453	O	-0.010113	0.087763	1.177746
	H454	H	-0.008426	0.105973	1.179592
	H455	H	-0.011165	0.082613	1.175124
	O456	O	-0.148715	0.015430	1.026779
	H457	H	-0.154480	0.006414	1.007881
	H458	H	-0.153463	0.032842	1.022282
	O459	O	1.125040	1.212334	0.188616
	H460	H	1.121255	1.229970	0.188762
	H461	H	1.132520	1.224047	0.171140
	O462	O	0.568903	0.470336	0.697146
	H463	H	0.554591	0.447625	0.690593
	H464	H	0.562969	0.466827	0.697009
	O465	O	1.232591	0.043561	0.205352
	H466	H	1.230643	0.083610	0.206285
	H467	H	1.254765	0.055779	0.222467
	O468	O	0.691492	0.704557	0.314396
	H469	H	0.673613	0.703557	0.308620
	H470	H	0.687421	0.703138	0.307803
	O471	O	0.730821	0.297650	0.457790
	H472	H	0.740789	0.302537	0.453487
	H473	H	0.749306	0.281793	0.433572
	O474	O	0.803220	0.231373	-0.048918
	H475	H	0.810182	0.225794	-0.070268
	H476	H	0.787460	0.249520	-0.046367
	O477	O	0.497738	0.302501	1.695644
	H478	H	0.491757	0.283551	1.699327
	H479	H	0.482322	0.290297	1.696337
	O480	O	0.070475	-0.105793	0.867764
	H481	H	0.063084	-0.099868	0.882955
	H482	H	0.066264	-0.112155	0.852563
	O483	O	-0.192814	0.058423	0.781164
	H484	H	-0.193669	0.064522	0.772469
	H485	H	-0.197009	0.046718	0.776903
	O486	O	1.202139	0.215554	0.776593
	H487	H	1.178646	0.190241	0.790142
	H488	H	1.183127	0.204296	0.778471
	O489	O	1.227735	0.945904	-0.028096
	H490	H	1.231788	0.936987	-0.019775
	H491	H	1.220546	0.948746	-0.013506
