data_Molecule from HDF5

_cell_length_a		16.308192
_cell_length_b		16.302184
_cell_length_c		16.235195
_cell_angle_alpha	90.101523
_cell_angle_beta	90.007486
_cell_angle_gamma	89.905707
_symmetry_space_group_name_H-M	'P 1'
_symmetry_Int_Tables_number		1

loop_
	_symmetry_equiv_pos_as_xyz
	x,y,z

loop_
	_atom_site_label
	_atom_site_type_symbol
	_atom_site_fract_x
	_atom_site_fract_y
	_atom_site_fract_z
	H0	H	0.398531	0.840505	0.708555
	H1	H	0.594197	0.167842	0.709499
	H2	H	0.592940	0.840567	0.280928
	H3	H	0.398461	0.168423	0.282136
	H4	H	0.710727	0.403236	0.831222
	H5	H	0.710761	0.602509	0.158868
	H6	H	0.282220	0.601479	0.829623
	H7	H	0.280866	0.406286	0.158847
	H8	H	0.832747	0.719641	0.394803
	H9	H	0.159785	0.718138	0.593309
	H10	H	0.832957	0.288822	0.592761
	H11	H	0.159131	0.288473	0.393981
	H12	H	0.832853	0.405208	0.707855
	H13	H	0.159627	0.601631	0.708461
	H14	H	0.832343	0.600558	0.280842
	H15	H	0.159780	0.406173	0.280696
	H16	H	0.395589	0.719219	0.830266
	H17	H	0.593045	0.718166	0.159641
	H18	H	0.593491	0.290389	0.830621
	H19	H	0.398068	0.291035	0.159368
	H20	H	0.710753	0.840562	0.395008
	H21	H	0.710636	0.167655	0.594507
	H22	H	0.282514	0.840332	0.592698
	H23	H	0.279895	0.167388	0.395194
	H24	H	0.898431	0.339841	0.208594
	H25	H	0.091912	0.667900	0.208030
	H26	H	0.093037	0.340357	0.779823
	H27	H	0.897969	0.667414	0.781176
	H28	H	0.210775	0.904915	0.329935
	H29	H	0.209633	0.101481	0.657986
	H30	H	0.782300	0.101551	0.329899
	H31	H	0.782385	0.905946	0.659203
	H32	H	0.332498	0.219762	0.896389
	H33	H	0.659098	0.218482	0.092847
	H34	H	0.331575	0.791705	0.092094
	H35	H	0.658812	0.787860	0.894534
	H36	H	0.331660	0.907788	0.207743
	H37	H	0.659104	0.102079	0.208739
	H38	H	0.331836	0.103386	0.780560
	H39	H	0.659480	0.906629	0.780000
	H40	H	0.899403	0.216413	0.329600
	H41	H	0.094883	0.217967	0.658108
	H42	H	0.094096	0.789353	0.329729
	H43	H	0.899039	0.790363	0.659040
	H44	H	0.210206	0.339956	0.895926
	H45	H	0.209471	0.667316	0.093290
	H46	H	0.780909	0.339824	0.093137
	H47	H	0.779737	0.666500	0.896084
	H48	H	0.403109	0.122284	0.593251
	H49	H	0.590924	0.888170	0.586842
	H50	H	0.586832	0.116908	0.411479
	H51	H	0.396603	0.887108	0.402567
	H52	H	0.587812	0.400081	0.114539
	H53	H	0.591152	0.592683	0.879209
	H54	H	0.412068	0.606043	0.110856
	H55	H	0.401244	0.410620	0.876974
	H56	H	0.112654	0.604776	0.408965
	H57	H	0.878792	0.599904	0.588885
	H58	H	0.111550	0.412012	0.582186
	H59	H	0.879266	0.411280	0.399323
	H60	H	0.111971	0.413073	0.590355
	H61	H	0.880635	0.598532	0.582731
	H62	H	0.109246	0.587256	0.403344
	H63	H	0.879233	0.407663	0.401425
	H64	H	0.390296	0.603267	0.116052
	H65	H	0.582867	0.593848	0.880663
	H66	H	0.599353	0.416585	0.113360
	H67	H	0.403486	0.413763	0.878882
	H68	H	0.600364	0.124703	0.399761
	H69	H	0.588293	0.887883	0.587543
	H70	H	0.406610	0.118235	0.584728
	H71	H	0.404737	0.886062	0.394215
	H72	H	0.902928	0.618622	0.084021
	H73	H	0.087339	0.387296	0.089619
	H74	H	0.092002	0.619866	0.905040
	H75	H	0.898852	0.384790	0.896486
	H76	H	0.082570	0.910989	0.608820
	H77	H	0.091121	0.098378	0.375589
	H78	H	0.898261	0.095305	0.611971
	H79	H	0.898483	0.917674	0.377939
	H80	H	0.609650	0.096213	0.908539
	H81	H	0.374977	0.098727	0.100891
	H82	H	0.613171	0.912583	0.093274
	H83	H	0.377562	0.902191	0.902861
	H84	H	0.612587	0.904743	0.085633
	H85	H	0.378286	0.109757	0.080556
	H86	H	0.611519	0.092199	0.896248
	H87	H	0.383465	0.916262	0.906610
	H88	H	0.907085	0.094876	0.609842
	H89	H	0.090743	0.095382	0.377064
	H90	H	0.092354	0.904254	0.613301
	H91	H	0.910668	0.912046	0.380917
	H92	H	0.090891	0.621900	0.897455
	H93	H	0.088098	0.388759	0.083558
	H94	H	0.898330	0.620482	0.088111
	H95	H	0.908284	0.388800	0.899684
	H96	H	0.397189	0.121366	0.584826
	H97	H	0.588928	0.888943	0.585206
	H98	H	0.582036	0.120924	0.393171
	H99	H	0.407671	0.889866	0.404939
	H100	H	0.580309	0.417079	0.107719
	H101	H	0.587704	0.600049	0.877402
	H102	H	0.401882	0.586219	0.107697
	H103	H	0.404831	0.409194	0.878416
	H104	H	0.116049	0.599763	0.391009
	H105	H	0.881121	0.593067	0.587359
	H106	H	0.113734	0.406250	0.586959
	H107	H	0.881249	0.410887	0.403847
	H108	H	0.904243	0.619938	0.090069
	H109	H	0.092574	0.386350	0.086757
	H110	H	0.085512	0.618948	0.901843
	H111	H	0.900216	0.388206	0.906820
	H112	H	0.093233	0.916865	0.611018
	H113	H	0.087772	0.097890	0.376616
	H114	H	0.903725	0.103018	0.612176
	H115	H	0.900753	0.904443	0.374966
	H116	H	0.614782	0.105151	0.899188
	H117	H	0.383990	0.087570	0.082469
	H118	H	0.610232	0.914652	0.083166
	H119	H	0.377269	0.913759	0.892136
	C120	C	0.374055	0.012560	0.616231
	C121	C	0.618003	0.995859	0.616467
	C122	C	0.617784	0.012495	0.372933
	C123	C	0.374297	0.995983	0.372756
	C124	C	0.617433	0.382470	0.003285
	C125	C	0.616290	0.624702	0.987354
	C126	C	0.373685	0.625914	0.002616
	C127	C	0.374573	0.383102	0.986774
	C128	C	0.004608	0.625657	0.372517
	C129	C	0.988151	0.625243	0.615338
	C130	C	0.004781	0.381777	0.615346
	C131	C	0.987619	0.381644	0.372463
	C132	C	0.873967	0.511575	0.116108
	C133	C	0.117209	0.495580	0.115488
	C134	C	0.117613	0.512257	0.872750
	C135	C	0.873671	0.495213	0.872453
	C136	C	0.117573	0.882012	0.502192
	C137	C	0.117677	0.125123	0.485432
	C138	C	0.874548	0.125613	0.502542
	C139	C	0.874678	0.882504	0.486535
	C140	C	0.503980	0.126462	0.872921
	C141	C	0.487240	0.126468	0.116267
	C142	C	0.503900	0.882883	0.115753
	C143	C	0.487382	0.882164	0.872193
	C144	C	0.377275	0.889265	0.671033
	C145	C	0.615070	0.118818	0.671820
	C146	C	0.614299	0.889586	0.317723
	C147	C	0.377167	0.119407	0.318942
	C148	C	0.672211	0.384137	0.879828
	C149	C	0.672123	0.622584	0.110209
	C150	C	0.319026	0.622782	0.878858
	C151	C	0.319754	0.386181	0.110270
	C152	C	0.881567	0.681322	0.374685
	C153	C	0.110821	0.680357	0.613680
	C154	C	0.881729	0.326781	0.612709
	C155	C	0.110734	0.326740	0.374364
	C156	C	0.881648	0.384882	0.669968
	C157	C	0.110922	0.622373	0.670669
	C158	C	0.881005	0.622083	0.318387
	C159	C	0.110934	0.384931	0.317638
	C160	C	0.375775	0.681033	0.879221
	C161	C	0.614109	0.680593	0.110305
	C162	C	0.614314	0.327683	0.879720
	C163	C	0.377623	0.328682	0.110392
	C164	C	0.672959	0.889542	0.374539
	C165	C	0.673100	0.118668	0.614827
	C166	C	0.319539	0.889298	0.613640
	C167	C	0.318721	0.118833	0.375591
	C168	C	0.877353	0.388539	0.170824
	C169	C	0.113487	0.618839	0.170810
	C170	C	0.114603	0.388876	0.817569
	C171	C	0.876979	0.618414	0.818457
	C172	C	0.172642	0.884644	0.378839
	C173	C	0.171697	0.121975	0.609238
	C174	C	0.820213	0.121918	0.378786
	C175	C	0.820107	0.885349	0.610074
	C176	C	0.381111	0.181877	0.875525
	C177	C	0.610558	0.180530	0.113211
	C178	C	0.380478	0.828905	0.112827
	C179	C	0.610506	0.826586	0.874514
	C180	C	0.380685	0.886571	0.170394
	C181	C	0.610494	0.122826	0.170768
	C182	C	0.380849	0.123678	0.818215
	C183	C	0.610754	0.885295	0.817510
	C184	C	0.878369	0.178900	0.378532
	C185	C	0.115152	0.180247	0.609039
	C186	C	0.114515	0.827329	0.378557
	C187	C	0.877651	0.827562	0.609765
	C188	C	0.172647	0.388874	0.875058
	C189	C	0.171920	0.618644	0.113733
	C190	C	0.819022	0.388571	0.113576
	C191	C	0.818126	0.618037	0.875227
	C192	C	0.395922	0.098310	0.594175
	C193	C	0.595895	0.910540	0.593415
	C194	C	0.596197	0.098544	0.395171
	C195	C	0.396355	0.909878	0.394260
	C196	C	0.595571	0.404653	0.089592
	C197	C	0.593802	0.601932	0.901369
	C198	C	0.395174	0.604789	0.089206
	C199	C	0.396668	0.404646	0.900372
	C200	C	0.090505	0.603747	0.394523
	C201	C	0.902230	0.603492	0.592902
	C202	C	0.090486	0.403756	0.593092
	C203	C	0.902100	0.403393	0.394860
	C204	C	0.895603	0.597588	0.093990
	C205	C	0.095709	0.409695	0.093106
	C206	C	0.095857	0.597968	0.894876
	C207	C	0.895843	0.409403	0.894533
	C208	C	0.095644	0.904049	0.588705
	C209	C	0.096187	0.103596	0.398763
	C210	C	0.896545	0.104103	0.588984
	C211	C	0.896812	0.904830	0.400159
	C212	C	0.589909	0.104294	0.894874
	C213	C	0.401178	0.105118	0.094377
	C214	C	0.589876	0.904300	0.093829
	C215	C	0.401644	0.904155	0.894182
	Zn216	Zn	0.495530	0.004417	0.744401
	Zn217	Zn	0.495704	0.004524	0.244518
	Zn218	Zn	0.745452	0.503012	-0.005556
	Zn219	Zn	0.246045	0.504144	-0.005604
	Zn220	Zn	-0.003634	0.753872	0.494574
	Zn221	Zn	-0.003535	0.253572	0.493663
	Zn222	Zn	-0.004041	0.503674	0.743857
	Zn223	Zn	-0.004121	0.503393	0.244410
	Zn224	Zn	0.495166	0.754415	-0.005648
	Zn225	Zn	0.496075	0.254933	-0.005284
	Zn226	Zn	0.746520	0.004074	0.494934
	Zn227	Zn	0.246056	0.003530	0.494386
	N228	N	0.410557	0.966852	0.672837
	N229	N	0.581398	0.041508	0.672865
	N230	N	0.580618	0.967209	0.316721
	N231	N	0.411139	0.042119	0.316957
	N232	N	0.674391	0.417390	0.957667
	N233	N	0.673531	0.588597	0.032638
	N234	N	0.317526	0.589392	0.956599
	N235	N	0.317814	0.419170	0.032346
	N236	N	0.959466	0.683664	0.407552
	N237	N	0.033452	0.682084	0.579910
	N238	N	0.959246	0.324949	0.579356
	N239	N	0.033241	0.324448	0.407560
	N240	N	0.959053	0.418541	0.671591
	N241	N	0.033468	0.588893	0.671870
	N242	N	0.958279	0.588200	0.316875
	N243	N	0.033489	0.418687	0.316466
	N244	N	0.409426	0.682875	0.957008
	N245	N	0.580137	0.681923	0.032777
	N246	N	0.580802	0.326747	0.957518
	N247	N	0.411274	0.326975	0.032647
	N248	N	0.675105	0.966961	0.408302
	N249	N	0.675247	0.041196	0.581026
	N250	N	0.317544	0.966851	0.580236
	N251	N	0.316923	0.040936	0.408159
	N252	N	0.910683	0.466040	0.172509
	N253	N	0.080232	0.541323	0.171894
	N254	N	0.081192	0.466301	0.816035
	N255	N	0.910446	0.540919	0.816246
	N256	N	0.174785	0.917778	0.456901
	N257	N	0.173465	0.088469	0.531510
	N258	N	0.817731	0.089579	0.457147
	N259	N	0.818148	0.918696	0.532253
	N260	N	0.458601	0.183642	0.908725
	N261	N	0.532971	0.182928	0.080068
	N262	N	0.458064	0.826463	0.079737
	N263	N	0.532819	0.824402	0.907463
	N264	N	0.458317	0.919630	0.172111
	N265	N	0.532846	0.089951	0.172739
	N266	N	0.458234	0.089779	0.816670
	N267	N	0.533317	0.918993	0.815812
	N268	N	0.911496	0.181193	0.456423
	N269	N	0.082105	0.182183	0.530888
	N270	N	0.081119	0.825695	0.456320
	N271	N	0.910976	0.825914	0.531942
	N272	N	0.174847	0.466583	0.908303
	N273	N	0.174082	0.541091	0.079878
	N274	N	0.816873	0.466119	0.080281
	N275	N	0.816000	0.540289	0.907950
	O276	O	-0.474759	-0.471247	1.484623
	H277	H	-0.466436	-0.470482	1.489569
	H278	H	-0.469027	-0.475531	1.482029
	O279	O	0.520125	0.515608	0.544972
	H280	H	0.516344	0.517873	0.542469
	H281	H	0.522883	0.510551	0.540313
	O282	O	0.493537	0.524267	0.488796
	H283	H	0.498091	0.525856	0.484748
	H284	H	0.488411	0.526642	0.474616
	O285	O	0.555105	0.522369	0.519084
	H286	H	0.567983	0.530367	0.513373
	H287	H	0.548426	0.518271	0.532359
	O288	O	0.558917	0.501054	0.551613
	H289	H	0.553087	0.492660	0.554517
	H290	H	0.563488	0.510500	0.557485
	O291	O	0.535399	1.511709	1.501425
	H292	H	0.532687	1.515717	1.499514
	H293	H	0.541254	1.507574	1.518752
	O294	O	0.548615	0.535404	0.524945
	H295	H	0.554856	0.532569	0.522510
	H296	H	0.541759	0.540812	0.524086
	O297	O	1.547992	-0.430165	-0.463708
	H298	H	1.542658	-0.420835	-0.461855
	H299	H	1.552009	-0.431689	-0.468308
