data_Molecule from HDF5

_cell_length_a		16.560273
_cell_length_b		16.527446
_cell_length_c		16.553835
_cell_angle_alpha	89.799600
_cell_angle_beta	90.004469
_cell_angle_gamma	90.109055
_symmetry_space_group_name_H-M	'P 1'
_symmetry_Int_Tables_number		1

loop_
	_symmetry_equiv_pos_as_xyz
	x,y,z

loop_
	_atom_site_label
	_atom_site_type_symbol
	_atom_site_fract_x
	_atom_site_fract_y
	_atom_site_fract_z
	H0	H	0.381818	0.842999	0.715777
	H1	H	0.597567	0.153730	0.716508
	H2	H	0.591830	0.841322	0.273306
	H3	H	0.382576	0.154593	0.268750
	H4	H	0.710481	0.394067	0.836017
	H5	H	0.709504	0.603000	0.148707
	H6	H	0.263202	0.607787	0.837564
	H7	H	0.267168	0.392925	0.148803
	H8	H	0.832654	0.721595	0.387522
	H9	H	0.144710	0.722122	0.599037
	H10	H	0.831504	0.276730	0.599282
	H11	H	0.144794	0.279845	0.390310
	H12	H	0.831198	0.393256	0.715036
	H13	H	0.143789	0.606790	0.716537
	H14	H	0.832611	0.605743	0.270821
	H15	H	0.144361	0.395882	0.273362
	H16	H	0.379576	0.723882	0.837650
	H17	H	0.593858	0.719395	0.149267
	H18	H	0.594658	0.276551	0.836469
	H19	H	0.383733	0.276927	0.148649
	H20	H	0.709107	0.841226	0.389035
	H21	H	0.714143	0.152964	0.601473
	H22	H	0.265487	0.843295	0.598813
	H23	H	0.266287	0.155066	0.384816
	H24	H	0.882645	0.342210	0.213721
	H25	H	0.092394	0.656122	0.211740
	H26	H	0.092446	0.341144	0.772825
	H27	H	0.884249	0.657249	0.770659
	H28	H	0.206842	0.898597	0.335976
	H29	H	0.213897	0.107629	0.649103
	H30	H	0.768060	0.104036	0.336326
	H31	H	0.766016	0.890756	0.649995
	H32	H	0.332282	0.220068	0.885310
	H33	H	0.645427	0.219557	0.096166
	H34	H	0.330653	0.779959	0.094589
	H35	H	0.645038	0.776248	0.886822
	H36	H	0.331439	0.893505	0.212687
	H37	H	0.645049	0.103865	0.213641
	H38	H	0.333441	0.105196	0.768185
	H39	H	0.644366	0.890253	0.768512
	H40	H	0.884783	0.219020	0.336241
	H41	H	0.095037	0.220697	0.650583
	H42	H	0.090860	0.781445	0.335692
	H43	H	0.883074	0.775971	0.649871
	H44	H	0.209657	0.341633	0.887535
	H45	H	0.209366	0.655294	0.096289
	H46	H	0.768148	0.341848	0.095969
	H47	H	0.768511	0.658302	0.887428
	H48	H	0.403269	0.109636	0.581060
	H49	H	0.575363	0.890157	0.572906
	H50	H	0.581765	0.111941	0.401035
	H51	H	0.391460	0.882541	0.398557
	H52	H	0.583048	0.406518	0.107545
	H53	H	0.574520	0.586621	0.882321
	H54	H	0.398229	0.586823	0.104671
	H55	H	0.401551	0.411053	0.881395
	H56	H	0.102344	0.591168	0.402066
	H57	H	0.877755	0.588579	0.578360
	H58	H	0.101305	0.412499	0.587354
	H59	H	0.872778	0.406998	0.401010
	H60	H	0.100735	0.405775	0.581417
	H61	H	0.878274	0.584011	0.579113
	H62	H	0.100914	0.589289	0.401923
	H63	H	0.875823	0.407591	0.406842
	H64	H	0.399960	0.585303	0.103170
	H65	H	0.576096	0.591694	0.879371
	H66	H	0.577776	0.415968	0.101832
	H67	H	0.399331	0.408970	0.879905
	H68	H	0.573228	0.109696	0.401163
	H69	H	0.583230	0.882992	0.582445
	H70	H	0.403342	0.109199	0.577339
	H71	H	0.404823	0.886657	0.399701
	H72	H	0.896227	0.612594	0.080642
	H73	H	0.080607	0.385154	0.080507
	H74	H	0.075982	0.610955	0.903249
	H75	H	0.894815	0.386733	0.903231
	H76	H	0.083335	0.911985	0.607845
	H77	H	0.068199	0.079296	0.388436
	H78	H	0.899471	0.081328	0.604194
	H79	H	0.897171	0.910485	0.381001
	H80	H	0.599115	0.088084	0.908320
	H81	H	0.376331	0.086509	0.080477
	H82	H	0.598062	0.911864	0.077704
	H83	H	0.377655	0.908925	0.905699
	H84	H	0.602508	0.913102	0.088371
	H85	H	0.376548	0.086392	0.081854
	H86	H	0.597932	0.081974	0.905431
	H87	H	0.379923	0.913975	0.906031
	H88	H	0.905301	0.087096	0.604032
	H89	H	0.073126	0.103534	0.378676
	H90	H	0.072829	0.916526	0.602265
	H91	H	0.898832	0.910035	0.381572
	H92	H	0.074762	0.609577	0.905796
	H93	H	0.077290	0.383766	0.087615
	H94	H	0.899833	0.612356	0.084325
	H95	H	0.900993	0.387614	0.901134
	H96	H	0.401074	0.111244	0.578963
	H97	H	0.569934	0.887669	0.586095
	H98	H	0.578569	0.109195	0.408499
	H99	H	0.396087	0.888118	0.410743
	H100	H	0.571800	0.405679	0.103155
	H101	H	0.580358	0.587203	0.879610
	H102	H	0.400756	0.588067	0.104212
	H103	H	0.397986	0.412249	0.880449
	H104	H	0.101944	0.590216	0.400206
	H105	H	0.876143	0.586638	0.582388
	H106	H	0.098023	0.413835	0.579426
	H107	H	0.876269	0.412460	0.402723
	H108	H	0.900688	0.610236	0.079433
	H109	H	0.073197	0.388072	0.082152
	H110	H	0.077923	0.610009	0.905573
	H111	H	0.899344	0.388811	0.907270
	H112	H	0.073278	0.905153	0.606466
	H113	H	0.092384	0.085356	0.378399
	H114	H	0.897858	0.089347	0.607229
	H115	H	0.897980	0.908930	0.380462
	H116	H	0.600983	0.087114	0.901550
	H117	H	0.376293	0.088048	0.082040
	H118	H	0.603289	0.902742	0.083155
	H119	H	0.376838	0.912260	0.901550
	C120	C	0.368623	0.006991	0.612693
	C121	C	0.610312	0.989580	0.613937
	C122	C	0.609632	0.006483	0.371880
	C123	C	0.366051	0.989830	0.370269
	C124	C	0.609871	0.377405	0.000798
	C125	C	0.609510	0.620514	0.983834
	C126	C	0.366689	0.620040	0.000702
	C127	C	0.367127	0.377235	0.983801
	C128	C	-0.002211	0.622208	0.369913
	C129	C	0.980812	0.619513	0.613076
	C130	C	-0.003411	0.377722	0.615030
	C131	C	0.979043	0.377920	0.372562
	C132	C	0.866667	0.507689	0.113580
	C133	C	0.109436	0.489665	0.114509
	C134	C	0.109023	0.506767	0.871958
	C135	C	0.866582	0.491797	0.871226
	C136	C	0.108228	0.880014	0.501617
	C137	C	0.111127	0.121719	0.485145
	C138	C	0.868041	0.118888	0.501537
	C139	C	0.866231	0.876492	0.484503
	C140	C	0.496939	0.119507	0.870919
	C141	C	0.479892	0.119816	0.113858
	C142	C	0.497212	0.877482	0.113889
	C143	C	0.480394	0.877222	0.870868
	C144	C	0.364422	0.889458	0.674285
	C145	C	0.615077	0.106610	0.676093
	C146	C	0.611136	0.888419	0.312612
	C147	C	0.364215	0.107771	0.309330
	C148	C	0.670300	0.375497	0.882942
	C149	C	0.669616	0.622029	0.101820
	C150	C	0.304453	0.624682	0.884130
	C151	C	0.306953	0.374211	0.101588
	C152	C	0.879702	0.681835	0.368579
	C153	C	0.097846	0.681331	0.616885
	C154	C	0.878621	0.316953	0.617389
	C155	C	0.097414	0.319103	0.371266
	C156	C	0.878352	0.374959	0.675015
	C157	C	0.097509	0.623789	0.675231
	C158	C	0.879737	0.624451	0.310364
	C159	C	0.097349	0.376866	0.313205
	C160	C	0.362358	0.682640	0.884312
	C161	C	0.611962	0.679696	0.101954
	C162	C	0.613072	0.316842	0.883193
	C163	C	0.364832	0.316703	0.101643
	C164	C	0.669099	0.888321	0.370453
	C165	C	0.672845	0.106606	0.618547
	C166	C	0.306319	0.889902	0.616690
	C167	C	0.306395	0.107963	0.366974
	C168	C	0.864543	0.389466	0.173467
	C169	C	0.110982	0.608582	0.172590
	C170	C	0.110748	0.388565	0.812270
	C171	C	0.865616	0.610269	0.810968
	C172	C	0.167270	0.878953	0.383018
	C173	C	0.172807	0.124927	0.602344
	C174	C	0.807921	0.121815	0.383746
	C175	C	0.806304	0.873355	0.602764
	C176	C	0.379443	0.180177	0.867355
	C177	C	0.598129	0.179461	0.115015
	C178	C	0.378205	0.819114	0.113901
	C179	C	0.597811	0.816002	0.868126
	C180	C	0.378739	0.875536	0.172731
	C181	C	0.597843	0.122032	0.173681
	C182	C	0.379966	0.122714	0.809192
	C183	C	0.597670	0.873182	0.809463
	C184	C	0.866033	0.179263	0.383564
	C185	C	0.113554	0.181144	0.603282
	C186	C	0.109308	0.821188	0.382901
	C187	C	0.864737	0.816411	0.602952
	C188	C	0.169202	0.388681	0.869311
	C189	C	0.168992	0.608183	0.115075
	C190	C	0.807166	0.389399	0.115308
	C191	C	0.807843	0.610538	0.868961
	C192	C	0.395203	0.088873	0.586549
	C193	C	0.583663	0.908191	0.587836
	C194	C	0.584819	0.088702	0.396489
	C195	C	0.390497	0.907186	0.395820
	C196	C	0.584600	0.402248	0.082881
	C197	C	0.584148	0.595704	0.901664
	C198	C	0.392373	0.593854	0.082589
	C199	C	0.392478	0.403148	0.901930
	C200	C	0.080299	0.597435	0.394473
	C201	C	0.898777	0.593770	0.587277
	C202	C	0.078584	0.403345	0.589871
	C203	C	0.896597	0.402105	0.396620
	C204	C	0.891696	0.590270	0.088612
	C205	C	0.084437	0.407034	0.090222
	C206	C	0.083653	0.588757	0.897422
	C207	C	0.891261	0.409184	0.896600
	C208	C	0.083645	0.904322	0.583882
	C209	C	0.085410	0.096662	0.403203
	C210	C	0.893551	0.093262	0.583707
	C211	C	0.891024	0.902146	0.402204
	C212	C	0.578382	0.093366	0.897457
	C213	C	0.397556	0.094487	0.088532
	C214	C	0.579810	0.902176	0.089691
	C215	C	0.399199	0.904082	0.897009
	Zn216	Zn	0.489201	-0.001646	0.742162
	Zn217	Zn	0.488313	-0.002042	0.242807
	Zn218	Zn	0.738025	0.499812	-0.007891
	Zn219	Zn	0.237752	0.497912	-0.007279
	Zn220	Zn	-0.011587	0.749619	0.493059
	Zn221	Zn	-0.012021	0.248849	0.494272
	Zn222	Zn	-0.012007	0.499167	0.743094
	Zn223	Zn	-0.012517	0.499116	0.242941
	Zn224	Zn	0.488706	0.748818	-0.006883
	Zn225	Zn	0.488378	0.248732	-0.007958
	Zn226	Zn	0.738801	-0.001991	0.493335
	Zn227	Zn	0.238744	-0.000141	0.493080
	N228	N	0.402349	0.963402	0.671868
	N229	N	0.577030	0.032661	0.673673
	N230	N	0.575044	0.963012	0.313112
	N231	N	0.400616	0.033180	0.311336
	N232	N	0.668453	0.412448	0.957065
	N233	N	0.668145	0.585932	0.027333
	N234	N	0.306950	0.586408	0.957749
	N235	N	0.307998	0.411108	0.027193
	N236	N	0.954388	0.680934	0.404562
	N237	N	0.024175	0.678744	0.578905
	N238	N	0.953287	0.318212	0.581261
	N239	N	0.022809	0.319466	0.407370
	N240	N	0.952717	0.411778	0.673913
	N241	N	0.023673	0.585994	0.672950
	N242	N	0.954306	0.588210	0.310897
	N243	N	0.022636	0.412728	0.313730
	N244	N	0.400501	0.679769	0.957840
	N245	N	0.575438	0.678997	0.027485
	N246	N	0.576125	0.318002	0.957352
	N247	N	0.401541	0.318431	0.027295
	N248	N	0.668536	0.962881	0.406426
	N249	N	0.670207	0.032763	0.580967
	N250	N	0.308931	0.964067	0.579058
	N251	N	0.307276	0.033607	0.404201
	N252	N	0.900774	0.464256	0.172554
	N253	N	0.074526	0.533846	0.172549
	N254	N	0.074115	0.463160	0.813680
	N255	N	0.901025	0.535043	0.811917
	N256	N	0.166756	0.914845	0.457745
	N257	N	0.171640	0.088927	0.527625
	N258	N	0.808863	0.085233	0.458362
	N259	N	0.807121	0.909939	0.528003
	N260	N	0.453421	0.178399	0.905080
	N261	N	0.523574	0.178291	0.078739
	N262	N	0.453005	0.820011	0.078253
	N263	N	0.523993	0.818523	0.905576
	N264	N	0.453834	0.910999	0.173079
	N265	N	0.523247	0.085718	0.173141
	N266	N	0.454126	0.085947	0.811137
	N267	N	0.523680	0.910632	0.811068
	N268	N	0.902482	0.177886	0.458064
	N269	N	0.076094	0.179598	0.529328
	N270	N	0.073412	0.821658	0.457547
	N271	N	0.901054	0.818049	0.528356
	N272	N	0.168473	0.463304	0.905403
	N273	N	0.168063	0.533194	0.079798
	N274	N	0.808311	0.464052	0.078821
	N275	N	0.808482	0.535797	0.905630
	O276	O	0.958891	1.218398	-0.228524
	H277	H	0.924535	1.217157	-0.222222
	H278	H	0.947114	1.247544	-0.253004
	O279	O	-0.003696	-0.155650	0.842362
	H280	H	-0.028437	-0.133980	0.832291
	H281	H	-0.008198	-0.164299	0.844108
	O282	O	0.278209	0.530642	0.277776
	H283	H	0.265200	0.536608	0.279588
	H284	H	0.268781	0.539829	0.269722
	O285	O	0.268353	0.449657	0.711268
	H286	H	0.245601	0.446932	0.744200
	H287	H	0.286352	0.425438	0.700256
	O288	O	1.302542	-0.343529	1.679203
	H289	H	1.312310	-0.343556	1.678620
	H290	H	1.287384	-0.351522	1.673130
	O291	O	0.513216	0.527082	0.389650
	H292	H	0.519356	0.515995	0.384912
	H293	H	0.505839	0.526446	0.392300
	O294	O	0.199302	0.215637	0.207593
	H295	H	0.168673	0.211060	0.195269
	H296	H	0.188961	0.215656	0.191094
	O297	O	1.092229	0.102422	0.086974
	H298	H	1.095687	0.106833	0.088057
	H299	H	1.075962	0.116458	0.077304
	O300	O	0.157565	-0.008643	-0.218216
	H301	H	0.159210	-0.003406	-0.217539
	H302	H	0.151513	-0.017300	-0.218292
	O303	O	0.157631	-0.188163	0.171886
	H304	H	0.150425	-0.176362	0.145187
	H305	H	0.159794	-0.186223	0.160105
	O306	O	0.772657	-0.208589	0.022618
	H307	H	0.767746	-0.219018	0.050272
	H308	H	0.765234	-0.222596	0.044844
	O309	O	0.473906	0.667549	0.411266
	H310	H	0.464277	0.688211	0.398860
	H311	H	0.445376	0.659333	0.413404
	O312	O	0.711390	0.531549	0.715486
	H313	H	0.750449	0.535859	0.750759
	H314	H	0.706018	0.553053	0.691312
	O315	O	0.500434	0.284050	0.289482
	H316	H	0.506552	0.285365	0.290305
	H317	H	0.505300	0.274321	0.273549
	O318	O	1.128437	1.063932	-0.080038
	H319	H	1.130283	1.063117	-0.076431
	H320	H	1.134005	1.056614	-0.076922
	O321	O	0.190594	1.035344	0.945514
	H322	H	0.170575	1.026990	0.939553
	H323	H	0.201478	1.027810	0.952463
	O324	O	0.952461	-0.213440	1.201210
	H325	H	0.973764	-0.229939	1.210538
	H326	H	0.971397	-0.221525	1.185059
	O327	O	0.192126	0.797261	0.817385
	H328	H	0.180628	0.808173	0.819912
	H329	H	0.177485	0.798725	0.797278
	O330	O	0.459398	0.389117	0.598889
	H331	H	0.478500	0.389206	0.592357
	H332	H	0.469063	0.396461	0.597788
	O333	O	0.865360	0.888637	0.896941
	H334	H	0.869200	0.897513	0.897604
	H335	H	0.871711	0.884570	0.902572
	O336	O	0.553816	0.525390	0.546338
	H337	H	0.565572	0.512845	0.546371
	H338	H	0.541162	0.515782	0.550226
	O339	O	0.549362	0.277129	0.528683
	H340	H	0.563160	0.278375	0.547611
	H341	H	0.543480	0.283692	0.509683
	O342	O	-0.222133	1.025474	-0.221848
	H343	H	-0.228985	1.034444	-0.194742
	H344	H	-0.252848	1.028799	-0.246052
	O345	O	0.471081	0.576673	0.472903
	H346	H	0.473140	0.562534	0.471695
	H347	H	0.470642	0.585199	0.487107
	O348	O	0.308580	0.396483	0.350229
	H349	H	0.305989	0.385649	0.349136
	H350	H	0.301770	0.403391	0.357975
	O351	O	0.331101	-0.374009	1.527410
	H352	H	0.326098	-0.376188	1.512285
	H353	H	0.333766	-0.388343	1.543667
	O354	O	1.023406	0.052444	0.834003
	H355	H	1.029700	0.055230	0.828308
	H356	H	1.014800	0.070503	0.823925
	O357	O	0.489740	0.609870	0.289245
	H358	H	0.484447	0.631578	0.290627
	H359	H	0.458657	0.611273	0.281287
	O360	O	0.956076	0.990740	1.096052
	H361	H	0.969995	0.991798	1.099223
	H362	H	0.940469	0.990952	1.084391
	O363	O	0.699011	0.710335	0.514070
	H364	H	0.718246	0.718722	0.516106
	H365	H	0.674664	0.718142	0.506189
	O366	O	0.521708	0.365089	0.622207
	H367	H	0.525398	0.379426	0.613397
	H368	H	0.540322	0.364643	0.629840
	O369	O	-0.024354	-0.095687	0.785097
	H370	H	-0.047701	-0.079295	0.782800
	H371	H	-0.032885	-0.087518	0.789238
	O372	O	0.198548	1.205015	1.017926
	H373	H	0.197555	1.197101	0.993883
	H374	H	0.213239	1.217031	1.016326
	O375	O	1.281843	0.294043	-0.298711
	H376	H	1.318653	0.307848	-0.296892
	H377	H	1.276596	0.289219	-0.335237
	O378	O	0.674654	0.366363	0.283053
	H379	H	0.671173	0.376281	0.270491
	H380	H	0.670484	0.359559	0.283151
	O381	O	0.680704	0.694779	0.681970
	H382	H	0.648180	0.692745	0.678813
	H383	H	0.676003	0.689801	0.657378
	O384	O	0.273235	0.283911	0.516014
	H385	H	0.306142	0.278454	0.500440
	H386	H	0.250235	0.250830	0.515296
	O387	O	-0.006299	1.197659	0.957293
	H388	H	-0.005167	1.208691	0.943067
	H389	H	0.003891	1.194245	0.961563
	O390	O	0.173519	0.790519	0.988388
	H391	H	0.173054	0.802634	0.975424
	H392	H	0.192078	0.778862	0.956670
	O393	O	1.018329	0.203279	0.201804
	H394	H	0.998389	0.191891	0.195532
	H395	H	1.006229	0.206203	0.217270
	O396	O	0.550239	0.291359	0.698920
	H397	H	0.540944	0.285648	0.705316
	H398	H	0.548256	0.303690	0.687374
	O399	O	0.431349	0.447287	0.330393
	H400	H	0.420830	0.441589	0.326011
	H401	H	0.425609	0.437235	0.323996
	O402	O	0.793900	0.195376	0.794745
	H403	H	0.793028	0.172224	0.809455
	H404	H	0.773529	0.211426	0.817101
	O405	O	0.459404	0.600957	0.634564
	H406	H	0.452933	0.592317	0.643621
	H407	H	0.444858	0.599927	0.643001
	O408	O	0.772341	1.152050	0.989207
	H409	H	0.758302	1.147122	1.006019
	H410	H	0.776690	1.140126	1.011027
	O411	O	0.766279	0.971347	0.209974
	H412	H	0.774145	0.935878	0.207572
	H413	H	0.740077	0.950246	0.236298
	O414	O	-0.147199	0.065191	0.150049
	H415	H	-0.148969	0.035224	0.143861
	H416	H	-0.148193	0.052886	0.162046
	O417	O	0.763816	0.229142	0.219652
	H418	H	0.770699	0.216316	0.198044
	H419	H	0.765362	0.232974	0.215586
	O420	O	0.976497	-0.034247	0.949693
	H421	H	0.973016	-0.036793	0.942876
	H422	H	0.988530	-0.020322	0.948422
	O423	O	1.015612	0.881479	0.121883
	H424	H	1.013614	0.872911	0.102404
	H425	H	1.033123	0.884515	0.117001
	O426	O	0.682798	0.403820	0.595943
	H427	H	0.694616	0.390657	0.586073
	H428	H	0.678474	0.412997	0.588291
	O429	O	0.277008	0.706749	0.280843
	H430	H	0.265503	0.725273	0.268684
	H431	H	0.272320	0.697388	0.319437
	O432	O	0.774823	0.057900	0.977702
	H433	H	0.777650	0.044542	0.992720
	H434	H	0.774089	0.035467	0.986010
	O435	O	0.583561	0.653659	0.422573
	H436	H	0.563225	0.656431	0.418908
	H437	H	0.566621	0.651020	0.444533
	O438	O	0.789245	0.804959	0.188694
	H439	H	0.769464	0.769612	0.221229
	H440	H	0.840679	0.802857	0.191269
	O441	O	0.515436	0.701459	0.701248
	H442	H	0.507924	0.683658	0.707958
	H443	H	0.500593	0.714953	0.713799
	O444	O	0.704537	0.314820	0.456691
	H445	H	0.707376	0.307263	0.449470
	H446	H	0.716053	0.304372	0.445329
	O447	O	0.709964	0.475729	0.471542
	H448	H	0.716306	0.499477	0.481010
	H449	H	0.714482	0.467053	0.454618
	O450	O	0.984500	-0.221644	-0.042079
	H451	H	0.979661	-0.220659	-0.042661
	H452	H	0.975679	-0.211632	-0.048991
	O453	O	0.381372	0.293394	0.389624
	H454	H	0.376412	0.290424	0.369698
	H455	H	0.386516	0.302379	0.392913
	O456	O	0.197912	1.015124	1.198325
	H457	H	0.199458	1.026182	1.215106
	H458	H	0.195193	1.043004	1.205012
	O459	O	0.643900	0.513802	0.272123
	H460	H	0.635415	0.517180	0.263198
	H461	H	0.634481	0.494611	0.268047
	O462	O	0.277283	0.707165	0.459008
	H463	H	0.274065	0.693368	0.471855
	H464	H	0.279279	0.716031	0.467028
	O465	O	0.679549	0.687365	0.304655
	H466	H	0.659522	0.679328	0.330124
	H467	H	0.659101	0.658469	0.309822
	O468	O	-0.060829	1.141262	0.109351
	H469	H	-0.087544	1.139819	0.109256
	H470	H	-0.047840	1.114172	0.089195
	O471	O	0.270167	0.481231	0.503869
	H472	H	0.264012	0.454769	0.520118
	H473	H	0.268956	0.488556	0.497905
	O474	O	1.057524	0.988300	-0.060327
	H475	H	1.057503	0.984333	-0.053413
	H476	H	1.049874	1.001363	-0.074412
	O477	O	0.475687	0.484502	0.686612
	H478	H	0.491295	0.468488	0.680222
	H479	H	0.473602	0.477998	0.695117
