data_Molecule from HDF5

_cell_length_a		16.287364
_cell_length_b		16.227576
_cell_length_c		16.371171
_cell_angle_alpha	90.110785
_cell_angle_beta	89.948252
_cell_angle_gamma	90.039376
_symmetry_space_group_name_H-M	'P 1'
_symmetry_Int_Tables_number		1

loop_
	_symmetry_equiv_pos_as_xyz
	x,y,z

loop_
	_atom_site_label
	_atom_site_type_symbol
	_atom_site_fract_x
	_atom_site_fract_y
	_atom_site_fract_z
	H0	H	0.403742	0.848908	0.706511
	H1	H	0.601185	0.176147	0.706970
	H2	H	0.601861	0.848991	0.276023
	H3	H	0.402560	0.176481	0.278318
	H4	H	0.716927	0.414399	0.828516
	H5	H	0.717950	0.613833	0.154547
	H6	H	0.287839	0.611634	0.828835
	H7	H	0.286844	0.415440	0.155467
	H8	H	0.838590	0.725958	0.394749
	H9	H	0.166641	0.724558	0.587790
	H10	H	0.837907	0.300069	0.588653
	H11	H	0.166845	0.299089	0.394541
	H12	H	0.839223	0.413632	0.707677
	H13	H	0.165449	0.612543	0.707493
	H14	H	0.839166	0.610944	0.277582
	H15	H	0.165583	0.411875	0.275161
	H16	H	0.406086	0.726951	0.828931
	H17	H	0.601496	0.729670	0.154586
	H18	H	0.599566	0.299131	0.828061
	H19	H	0.403811	0.299002	0.155391
	H20	H	0.714429	0.847334	0.394391
	H21	H	0.715744	0.176567	0.590117
	H22	H	0.290170	0.847313	0.588726
	H23	H	0.287758	0.176287	0.394850
	H24	H	0.902796	0.347995	0.205980
	H25	H	0.100156	0.676569	0.206288
	H26	H	0.101270	0.348893	0.778111
	H27	H	0.903538	0.676714	0.777646
	H28	H	0.217886	0.913228	0.329228
	H29	H	0.215247	0.109891	0.655725
	H30	H	0.786459	0.110654	0.328890
	H31	H	0.786105	0.913606	0.654549
	H32	H	0.337761	0.226051	0.896274
	H33	H	0.666436	0.226659	0.087570
	H34	H	0.337564	0.800270	0.089177
	H35	H	0.666474	0.801338	0.895537
	H36	H	0.338951	0.914773	0.207475
	H37	H	0.666017	0.113742	0.207486
	H38	H	0.338122	0.111523	0.777957
	H39	H	0.665026	0.914505	0.776211
	H40	H	0.904601	0.226556	0.328706
	H41	H	0.099211	0.226357	0.655252
	H42	H	0.100286	0.798416	0.328967
	H43	H	0.904995	0.799588	0.655497
	H44	H	0.216079	0.349230	0.894531
	H45	H	0.215410	0.677322	0.090146
	H46	H	0.787308	0.348300	0.088349
	H47	H	0.788861	0.677434	0.895282
	H48	H	0.413519	0.127414	0.583517
	H49	H	0.597485	0.892826	0.590444
	H50	H	0.595833	0.131268	0.394624
	H51	H	0.415545	0.895326	0.393226
	H52	H	0.596626	0.410290	0.110359
	H53	H	0.595926	0.595043	0.879197
	H54	H	0.404290	0.618691	0.112017
	H55	H	0.409116	0.415872	0.875452
	H56	H	0.120151	0.611596	0.400879
	H57	H	0.882137	0.614060	0.587727
	H58	H	0.121190	0.408894	0.583678
	H59	H	0.888113	0.424556	0.400092
	H60	H	0.115534	0.426533	0.577239
	H61	H	0.889203	0.602462	0.577202
	H62	H	0.115986	0.599586	0.402735
	H63	H	0.885392	0.419402	0.394118
	H64	H	0.399889	0.596593	0.107328
	H65	H	0.585528	0.613347	0.877847
	H66	H	0.603461	0.428109	0.107130
	H67	H	0.403901	0.419995	0.875283
	H68	H	0.588366	0.126446	0.401145
	H69	H	0.588413	0.897101	0.585859
	H70	H	0.403244	0.130290	0.582883
	H71	H	0.411619	0.898657	0.405798
	H72	H	0.909682	0.629647	0.085843
	H73	H	0.096009	0.395212	0.085777
	H74	H	0.098488	0.633689	0.891591
	H75	H	0.912238	0.396465	0.897925
	H76	H	0.099641	0.919693	0.609543
	H77	H	0.099331	0.106371	0.375151
	H78	H	0.912745	0.118304	0.610290
	H79	H	0.902405	0.922041	0.375464
	H80	H	0.618490	0.101570	0.890990
	H81	H	0.385508	0.107148	0.087959
	H82	H	0.621352	0.921462	0.095234
	H83	H	0.384647	0.918331	0.896770
	H84	H	0.618817	0.912931	0.077942
	H85	H	0.385834	0.106800	0.085765
	H86	H	0.620964	0.114070	0.896595
	H87	H	0.385383	0.919527	0.899815
	H88	H	0.895408	0.103626	0.611004
	H89	H	0.096572	0.102284	0.376539
	H90	H	0.094129	0.920310	0.606827
	H91	H	0.914156	0.921486	0.378870
	H92	H	0.087185	0.628151	0.898764
	H93	H	0.092662	0.396062	0.084788
	H94	H	0.908936	0.629244	0.086436
	H95	H	0.909339	0.396866	0.901407
	H96	H	0.408821	0.130473	0.591858
	H97	H	0.597793	0.895981	0.579977
	H98	H	0.598297	0.128682	0.405096
	H99	H	0.402789	0.892329	0.397598
	H100	H	0.584947	0.424082	0.102867
	H101	H	0.605606	0.612369	0.871194
	H102	H	0.421143	0.605106	0.103669
	H103	H	0.409849	0.422056	0.877776
	H104	H	0.120671	0.602715	0.390921
	H105	H	0.885966	0.598614	0.593682
	H106	H	0.120478	0.423754	0.595686
	H107	H	0.887086	0.416392	0.402055
	H108	H	0.909379	0.629372	0.086427
	H109	H	0.095590	0.396230	0.082055
	H110	H	0.099653	0.629471	0.905521
	H111	H	0.907645	0.395126	0.897019
	H112	H	0.096052	0.914739	0.608754
	H113	H	0.093664	0.107095	0.376375
	H114	H	0.915456	0.096386	0.602415
	H115	H	0.909086	0.912138	0.374778
	H116	H	0.616116	0.103663	0.904493
	H117	H	0.385665	0.105279	0.086896
	H118	H	0.613238	0.931926	0.080702
	H119	H	0.385757	0.921655	0.897056
	C120	C	0.380374	0.020988	0.613860
	C121	C	0.622822	1.003880	0.613248
	C122	C	0.623335	0.020652	0.370573
	C123	C	0.381030	1.004065	0.370867
	C124	C	0.623641	0.391943	-0.000773
	C125	C	0.623970	0.635634	0.983751
	C126	C	0.380541	0.635066	0.000072
	C127	C	0.379744	0.391335	0.984006
	C128	C	0.010901	0.632993	0.370716
	C129	C	0.993775	0.633869	0.613709
	C130	C	0.010421	0.391340	0.613579
	C131	C	0.994738	0.390927	0.369974
	C132	C	0.880364	0.520760	0.113792
	C133	C	0.123576	0.504394	0.113083
	C134	C	0.123545	0.521635	0.870718
	C135	C	0.881261	0.504627	0.870881
	C136	C	0.124769	0.890160	0.500442
	C137	C	0.124186	0.133622	0.484063
	C138	C	0.879304	0.134514	0.500344
	C139	C	0.880488	0.890426	0.483844
	C140	C	0.510151	0.134291	0.870205
	C141	C	0.494208	0.135196	0.114364
	C142	C	0.510105	0.892694	0.113273
	C143	C	0.493624	0.891892	0.869938
	C144	C	0.383389	0.897291	0.668333
	C145	C	0.621061	0.127439	0.668750
	C146	C	0.621712	0.897743	0.314423
	C147	C	0.382784	0.127499	0.316318
	C148	C	0.678855	0.394020	0.877018
	C149	C	0.679675	0.633751	0.105949
	C150	C	0.325503	0.632334	0.877739
	C151	C	0.324902	0.394522	0.106684
	C152	C	0.887260	0.687768	0.374296
	C153	C	0.117578	0.687819	0.609581
	C154	C	0.887163	0.337334	0.609695
	C155	C	0.117820	0.335996	0.372991
	C156	C	0.887798	0.393721	0.668981
	C157	C	0.116959	0.632121	0.668856
	C158	C	0.887828	0.631368	0.315396
	C159	C	0.117170	0.392294	0.313797
	C160	C	0.384242	0.689296	0.877437
	C161	C	0.621867	0.691620	0.105894
	C162	C	0.620598	0.336679	0.876819
	C163	C	0.382704	0.336679	0.106618
	C164	C	0.677784	0.896908	0.373210
	C165	C	0.678003	0.127605	0.610729
	C166	C	0.327148	0.896693	0.609682
	C167	C	0.325856	0.127354	0.374341
	C168	C	0.882864	0.396959	0.167785
	C169	C	0.121169	0.627651	0.168560
	C170	C	0.121192	0.397937	0.815858
	C171	C	0.883629	0.628188	0.816053
	C172	C	0.179883	0.892755	0.377742
	C173	C	0.178068	0.130706	0.606710
	C174	C	0.824268	0.131609	0.377628
	C175	C	0.824923	0.893360	0.606285
	C176	C	0.386514	0.188375	0.874813
	C177	C	0.617561	0.189585	0.109614
	C178	C	0.386783	0.837323	0.110621
	C179	C	0.617214	0.838068	0.873796
	C180	C	0.387286	0.894239	0.168980
	C181	C	0.617099	0.133681	0.169387
	C182	C	0.386870	0.131847	0.815869
	C183	C	0.616691	0.894484	0.814717
	C184	C	0.883000	0.188915	0.377326
	C185	C	0.120214	0.188509	0.606665
	C186	C	0.121193	0.835865	0.377590
	C187	C	0.883706	0.836406	0.606502
	C188	C	0.178180	0.397955	0.873818
	C189	C	0.177950	0.628029	0.110527
	C190	C	0.825257	0.397091	0.109898
	C191	C	0.826726	0.628546	0.874323
	C192	C	0.402181	0.107400	0.592479
	C193	C	0.600954	0.917566	0.591746
	C194	C	0.600818	0.106554	0.393412
	C195	C	0.403478	0.917653	0.392368
	C196	C	0.601614	0.414227	0.084619
	C197	C	0.602205	0.613343	0.898211
	C198	C	0.402038	0.613241	0.085685
	C199	C	0.401397	0.412849	0.898387
	C200	C	0.096665	0.611095	0.392087
	C201	C	0.908001	0.611711	0.592454
	C202	C	0.096842	0.413231	0.591804
	C203	C	0.909075	0.413516	0.392247
	C204	C	0.902713	0.607126	0.092588
	C205	C	0.101403	0.418055	0.090596
	C206	C	0.101480	0.608066	0.892447
	C207	C	0.903183	0.418404	0.892498
	C208	C	0.103162	0.912023	0.586230
	C209	C	0.102856	0.111682	0.398209
	C210	C	0.901146	0.112638	0.585635
	C211	C	0.902100	0.912173	0.398286
	C212	C	0.596356	0.112780	0.891133
	C213	C	0.407856	0.112894	0.093053
	C214	C	0.595818	0.915328	0.090958
	C215	C	0.407422	0.913622	0.891377
	Zn216	Zn	0.501613	0.013223	0.741416
	Zn217	Zn	0.502247	0.013413	0.242659
	Zn218	Zn	0.752468	0.513136	-0.008259
	Zn219	Zn	0.251424	0.513250	-0.008013
	Zn220	Zn	0.002670	0.761631	0.492200
	Zn221	Zn	0.002641	0.262348	0.491388
	Zn222	Zn	0.002670	0.512922	0.742402
	Zn223	Zn	0.002650	0.512317	0.241469
	Zn224	Zn	0.502153	0.764150	-0.007999
	Zn225	Zn	0.502060	0.262736	-0.008160
	Zn226	Zn	0.751095	0.012081	0.492058
	Zn227	Zn	0.253409	0.011768	0.492259
	N228	N	0.415950	0.975551	0.670836
	N229	N	0.587498	0.049646	0.670332
	N230	N	0.588888	0.975835	0.312578
	N231	N	0.416585	0.049697	0.314163
	N232	N	0.680959	0.427428	0.954127
	N233	N	0.681079	0.599510	0.028913
	N234	N	0.323163	0.599227	0.955118
	N235	N	0.323135	0.427918	0.029500
	N236	N	0.964642	0.688963	0.407953
	N237	N	0.040277	0.688712	0.575810
	N238	N	0.964538	0.335817	0.575732
	N239	N	0.040690	0.335044	0.407305
	N240	N	0.965625	0.426688	0.671120
	N241	N	0.039130	0.599142	0.671628
	N242	N	0.965319	0.597847	0.313184
	N243	N	0.039595	0.425633	0.311876
	N244	N	0.417678	0.691142	0.954436
	N245	N	0.587769	0.692655	0.029027
	N246	N	0.586557	0.335631	0.953837
	N247	N	0.416225	0.334522	0.029348
	N248	N	0.678739	0.974350	0.407633
	N249	N	0.679512	0.049846	0.577142
	N250	N	0.325068	0.974635	0.576892
	N251	N	0.324920	0.049671	0.407630
	N252	N	0.916222	0.474910	0.170432
	N253	N	0.088031	0.549660	0.170239
	N254	N	0.087674	0.475885	0.814060
	N255	N	0.916732	0.550360	0.813865
	N256	N	0.182237	0.925736	0.455211
	N257	N	0.180524	0.097180	0.529498
	N258	N	0.821807	0.098703	0.455112
	N259	N	0.822932	0.926432	0.528954
	N260	N	0.464077	0.189973	0.907945
	N261	N	0.540118	0.190554	0.076229
	N262	N	0.464224	0.836266	0.076745
	N263	N	0.539850	0.836541	0.907379
	N264	N	0.464770	0.927937	0.170806
	N265	N	0.539205	0.100911	0.172424
	N266	N	0.464677	0.099115	0.812908
	N267	N	0.538678	0.926954	0.812180
	N268	N	0.916548	0.190878	0.454349
	N269	N	0.087320	0.190364	0.529246
	N270	N	0.087699	0.834131	0.454801
	N271	N	0.917574	0.834679	0.529521
	N272	N	0.179653	0.475694	0.907163
	N273	N	0.179501	0.550291	0.076857
	N274	N	0.823656	0.475108	0.077177
	N275	N	0.825236	0.550787	0.907746
	O276	O	0.535629	-0.448815	1.446921
	H277	H	0.538036	-0.457293	1.448045
	H278	H	0.526439	-0.452510	1.441005
	O279	O	0.511147	0.500403	0.419804
	H280	H	0.510115	0.492055	0.413897
	H281	H	0.516197	0.498029	0.423528
	O282	O	-0.509748	0.510483	1.489659
	H283	H	-0.511949	0.505060	1.487134
	H284	H	-0.514034	0.504306	1.486749
	O285	O	0.518334	0.431549	0.449269
	H286	H	0.526774	0.434270	0.449476
	H287	H	0.522338	0.422053	0.442367
	O288	O	0.571848	0.499159	0.430481
	H289	H	0.573596	0.501404	0.427134
	H290	H	0.573247	0.504037	0.436525
	O291	O	0.510620	0.451190	0.381168
	H292	H	0.509380	0.449366	0.382728
	H293	H	0.526420	0.438358	0.379867
	O294	O	0.637950	0.435515	0.429036
	H295	H	0.657371	0.435868	0.426748
	H296	H	0.629925	0.447811	0.440939
	O297	O	0.557658	-0.504433	0.464366
	H298	H	0.555615	-0.493236	0.463344
	H299	H	0.550705	-0.497211	0.464602
