data_Molecule from HDF5

_cell_length_a		16.288470
_cell_length_b		16.391741
_cell_length_c		16.232077
_cell_angle_alpha	89.782957
_cell_angle_beta	90.255484
_cell_angle_gamma	89.748988
_symmetry_space_group_name_H-M	'P 1'
_symmetry_Int_Tables_number		1

loop_
	_symmetry_equiv_pos_as_xyz
	x,y,z

loop_
	_atom_site_label
	_atom_site_type_symbol
	_atom_site_fract_x
	_atom_site_fract_y
	_atom_site_fract_z
	H0	H	0.388550	0.839258	0.706592
	H1	H	0.589314	0.161384	0.702573
	H2	H	0.592032	0.837801	0.269768
	H3	H	0.387797	0.161188	0.268789
	H4	H	0.705062	0.399365	0.823629
	H5	H	0.706643	0.597690	0.149659
	H6	H	0.271125	0.601369	0.824764
	H7	H	0.276907	0.398703	0.151080
	H8	H	0.829943	0.719259	0.382233
	H9	H	0.151816	0.714693	0.592249
	H10	H	0.828345	0.281548	0.590101
	H11	H	0.151337	0.280946	0.387226
	H12	H	0.825772	0.401776	0.700353
	H13	H	0.151646	0.598910	0.705669
	H14	H	0.828606	0.601245	0.269708
	H15	H	0.152423	0.398398	0.273515
	H16	H	0.384048	0.720196	0.826166
	H17	H	0.594105	0.716492	0.149595
	H18	H	0.590350	0.283359	0.824147
	H19	H	0.390474	0.281598	0.149645
	H20	H	0.708615	0.837640	0.385158
	H21	H	0.706293	0.160838	0.587183
	H22	H	0.276452	0.836964	0.588961
	H23	H	0.269388	0.159206	0.382810
	H24	H	0.887537	0.338753	0.207534
	H25	H	0.094476	0.658265	0.208581
	H26	H	0.088581	0.337213	0.773169
	H27	H	0.884992	0.659872	0.767296
	H28	H	0.207309	0.897680	0.324433
	H29	H	0.207087	0.096537	0.651020
	H30	H	0.771907	0.102677	0.325623
	H31	H	0.773504	0.896699	0.650165
	H32	H	0.329627	0.219709	0.881299
	H33	H	0.651866	0.215540	0.089347
	H34	H	0.330165	0.779126	0.094506
	H35	H	0.648980	0.776388	0.880527
	H36	H	0.328441	0.899224	0.204314
	H37	H	0.651594	0.101366	0.204909
	H38	H	0.328625	0.102147	0.769305
	H39	H	0.652579	0.898245	0.771881
	H40	H	0.884861	0.220167	0.326959
	H41	H	0.092529	0.214660	0.650738
	H42	H	0.095492	0.777932	0.326338
	H43	H	0.888458	0.779594	0.649298
	H44	H	0.207578	0.337247	0.886291
	H45	H	0.211128	0.657544	0.093770
	H46	H	0.773478	0.337526	0.089764
	H47	H	0.767280	0.658384	0.880919
	H48	H	0.399840	0.116007	0.585010
	H49	H	0.585583	0.883924	0.578047
	H50	H	0.583347	0.115244	0.393151
	H51	H	0.398854	0.884082	0.395519
	H52	H	0.586198	0.401491	0.105832
	H53	H	0.577862	0.589626	0.871494
	H54	H	0.395534	0.581827	0.102701
	H55	H	0.402529	0.410043	0.873200
	H56	H	0.101656	0.585155	0.407505
	H57	H	0.872848	0.591774	0.579705
	H58	H	0.107969	0.405219	0.587999
	H59	H	0.874745	0.410724	0.396525
	H60	H	0.106892	0.398974	0.577288
	H61	H	0.874974	0.592005	0.573526
	H62	H	0.105627	0.581758	0.392320
	H63	H	0.872723	0.406722	0.397654
	H64	H	0.409829	0.589367	0.099542
	H65	H	0.577586	0.588417	0.872549
	H66	H	0.583611	0.411620	0.101861
	H67	H	0.397639	0.404185	0.869195
	H68	H	0.578060	0.113011	0.395249
	H69	H	0.582032	0.883833	0.581969
	H70	H	0.404162	0.111361	0.573393
	H71	H	0.400823	0.884316	0.394592
	H72	H	0.902573	0.612213	0.077975
	H73	H	0.084033	0.383695	0.076855
	H74	H	0.077139	0.610474	0.903473
	H75	H	0.895041	0.382871	0.894667
	H76	H	0.081808	0.900372	0.604323
	H77	H	0.075081	0.088154	0.374685
	H78	H	0.900169	0.090740	0.603681
	H79	H	0.903851	0.902393	0.371027
	H80	H	0.604385	0.089666	0.901419
	H81	H	0.371647	0.094951	0.081463
	H82	H	0.604395	0.908879	0.075205
	H83	H	0.377497	0.916599	0.897468
	H84	H	0.605947	0.909540	0.078804
	H85	H	0.374307	0.095494	0.072307
	H86	H	0.606562	0.087781	0.891522
	H87	H	0.372977	0.907390	0.892643
	H88	H	0.898322	0.090414	0.604044
	H89	H	0.079279	0.095523	0.371190
	H90	H	0.089123	0.906494	0.604427
	H91	H	0.893812	0.912216	0.371563
	H92	H	0.086321	0.615575	0.896768
	H93	H	0.084558	0.382517	0.081927
	H94	H	0.898827	0.611404	0.072202
	H95	H	0.899061	0.383748	0.893447
	H96	H	0.391215	0.115168	0.574671
	H97	H	0.580810	0.884963	0.577391
	H98	H	0.582387	0.112475	0.398975
	H99	H	0.400370	0.885369	0.396093
	H100	H	0.575708	0.404722	0.102486
	H101	H	0.576373	0.589516	0.871976
	H102	H	0.397396	0.597094	0.106355
	H103	H	0.394530	0.411387	0.869793
	H104	H	0.108410	0.596786	0.397822
	H105	H	0.875653	0.588198	0.577212
	H106	H	0.103592	0.411212	0.577126
	H107	H	0.875562	0.408938	0.399617
	H108	H	0.896150	0.614037	0.079107
	H109	H	0.080081	0.384611	0.080636
	H110	H	0.075321	0.613947	0.891571
	H111	H	0.897569	0.384724	0.896590
	H112	H	0.079774	0.909251	0.601585
	H113	H	0.084388	0.087850	0.371154
	H114	H	0.898997	0.089121	0.603807
	H115	H	0.906459	0.914543	0.376175
	H116	H	0.608353	0.097287	0.895208
	H117	H	0.375907	0.086990	0.077520
	H118	H	0.605734	0.906139	0.077067
	H119	H	0.375813	0.907351	0.903856
	C120	C	0.368851	0.007963	0.608570
	C121	C	0.612376	0.990824	0.609241
	C122	C	0.612095	0.007330	0.365210
	C123	C	0.368459	0.990745	0.364553
	C124	C	0.611865	0.376687	-0.004553
	C125	C	0.609913	0.619668	0.978989
	C126	C	0.368191	0.621076	-0.003869
	C127	C	0.369383	0.378128	0.978614
	C128	C	-0.000929	0.619630	0.366626
	C129	C	0.981318	0.620204	0.608827
	C130	C	-0.001760	0.376896	0.609815
	C131	C	0.981265	0.377718	0.367282
	C132	C	0.869174	0.506557	0.107757
	C133	C	0.113288	0.489607	0.110801
	C134	C	0.110368	0.507100	0.866785
	C135	C	0.866452	0.490090	0.864076
	C136	C	0.113458	0.875825	0.495865
	C137	C	0.110974	0.119816	0.479415
	C138	C	0.868028	0.121294	0.496889
	C139	C	0.870402	0.878293	0.479649
	C140	C	0.499544	0.121992	0.864870
	C141	C	0.481154	0.121252	0.108051
	C142	C	0.498646	0.878110	0.108261
	C143	C	0.481579	0.878567	0.866527
	C144	C	0.369866	0.887058	0.667169
	C145	C	0.610123	0.112647	0.665045
	C146	C	0.611491	0.886070	0.308355
	C147	C	0.368504	0.112553	0.307533
	C148	C	0.667459	0.378992	0.872638
	C149	C	0.668350	0.618341	0.101061
	C150	C	0.309938	0.621124	0.873789
	C151	C	0.314083	0.378619	0.101764
	C152	C	0.878038	0.679394	0.364319
	C153	C	0.103224	0.676362	0.610526
	C154	C	0.876506	0.320383	0.609196
	C155	C	0.103111	0.319990	0.367779
	C156	C	0.874988	0.380622	0.663697
	C157	C	0.103061	0.618982	0.667477
	C158	C	0.877583	0.621101	0.307866
	C159	C	0.103579	0.378308	0.311138
	C160	C	0.366216	0.680110	0.874524
	C161	C	0.612385	0.677460	0.100841
	C162	C	0.610401	0.321146	0.872806
	C163	C	0.370558	0.320268	0.100872
	C164	C	0.669626	0.885955	0.365928
	C165	C	0.668443	0.112267	0.607609
	C166	C	0.314072	0.885843	0.608307
	C167	C	0.309662	0.111671	0.364486
	C168	C	0.868931	0.386412	0.167408
	C169	C	0.113683	0.609995	0.169391
	C170	C	0.109394	0.385539	0.810693
	C171	C	0.865963	0.611495	0.806144
	C172	C	0.169662	0.877365	0.373488
	C173	C	0.168593	0.117495	0.602077
	C174	C	0.810406	0.121782	0.374572
	C175	C	0.812341	0.877371	0.601369
	C176	C	0.377784	0.180226	0.863358
	C177	C	0.603348	0.177130	0.108380
	C178	C	0.378188	0.818974	0.111222
	C179	C	0.601629	0.817498	0.863500
	C180	C	0.377181	0.878601	0.166232
	C181	C	0.603209	0.120275	0.165673
	C182	C	0.377340	0.121871	0.807537
	C183	C	0.603419	0.877905	0.808797
	C184	C	0.866588	0.180443	0.375261
	C185	C	0.111738	0.176173	0.602060
	C186	C	0.113910	0.817798	0.374344
	C187	C	0.869635	0.819239	0.601117
	C188	C	0.168428	0.385862	0.867181
	C189	C	0.171751	0.609845	0.112216
	C190	C	0.811757	0.385858	0.108904
	C191	C	0.807298	0.610753	0.862574
	C192	C	0.391652	0.092413	0.584558
	C193	C	0.589447	0.906121	0.585994
	C194	C	0.588133	0.091825	0.388772
	C195	C	0.392979	0.906539	0.388373
	C196	C	0.588847	0.399411	0.081081
	C197	C	0.584651	0.596008	0.894210
	C198	C	0.393378	0.596739	0.080820
	C199	C	0.391583	0.401699	0.893041
	C200	C	0.083433	0.595034	0.391901
	C201	C	0.896579	0.597335	0.584000
	C202	C	0.083912	0.398836	0.587440
	C203	C	0.896508	0.401605	0.391130
	C204	C	0.892576	0.590764	0.083340
	C205	C	0.089601	0.405463	0.086775
	C206	C	0.086460	0.591434	0.890412
	C207	C	0.890329	0.405773	0.888033
	C208	C	0.090238	0.898620	0.581305
	C209	C	0.086628	0.097034	0.394344
	C210	C	0.892045	0.097111	0.581866
	C211	C	0.894490	0.902778	0.394975
	C212	C	0.584378	0.098559	0.889041
	C213	C	0.396023	0.098995	0.084096
	C214	C	0.583332	0.901567	0.083935
	C215	C	0.397476	0.903431	0.890790
	Zn216	Zn	0.489896	-0.000079	0.737920
	Zn217	Zn	0.490413	-0.000544	0.235678
	Zn218	Zn	0.739310	0.498665	-0.013109
	Zn219	Zn	0.240351	0.498613	-0.012334
	Zn220	Zn	-0.008864	0.748385	0.487843
	Zn221	Zn	-0.010334	0.248493	0.488607
	Zn222	Zn	-0.010599	0.499207	0.737062
	Zn223	Zn	-0.009843	0.498578	0.237894
	Zn224	Zn	0.489816	0.749305	-0.012164
	Zn225	Zn	0.490260	0.249145	-0.013520
	Zn226	Zn	0.740753	-0.001128	0.487108
	Zn227	Zn	0.240518	-0.001797	0.487556
	N228	N	0.403435	0.963914	0.667379
	N229	N	0.576079	0.036002	0.666182
	N230	N	0.576602	0.962711	0.307764
	N231	N	0.403971	0.036278	0.307046
	N232	N	0.668398	0.412610	0.950033
	N233	N	0.667410	0.583691	0.024123
	N234	N	0.310783	0.585320	0.950601
	N235	N	0.313253	0.413822	0.024771
	N236	N	0.954764	0.678893	0.400069
	N237	N	0.026552	0.677214	0.574725
	N238	N	0.954232	0.318139	0.576436
	N239	N	0.026067	0.319462	0.402032
	N240	N	0.951782	0.414967	0.664454
	N241	N	0.026162	0.584902	0.666652
	N242	N	0.953765	0.584732	0.309126
	N243	N	0.026889	0.413526	0.310708
	N244	N	0.401376	0.680369	0.951745
	N245	N	0.576887	0.678331	0.023875
	N246	N	0.576736	0.319468	0.950308
	N247	N	0.404482	0.319880	0.023207
	N248	N	0.670110	0.962481	0.400542
	N249	N	0.670098	0.035487	0.573914
	N250	N	0.313274	0.962015	0.572628
	N251	N	0.309305	0.035006	0.399090
	N252	N	0.904196	0.462443	0.166583
	N253	N	0.077987	0.534140	0.168541
	N254	N	0.073913	0.461867	0.810229
	N255	N	0.902266	0.535501	0.806891
	N256	N	0.169520	0.912506	0.450156
	N257	N	0.168501	0.083332	0.524813
	N258	N	0.811081	0.085473	0.451182
	N259	N	0.812785	0.913481	0.524907
	N260	N	0.454783	0.180700	0.898185
	N261	N	0.526404	0.178073	0.073107
	N262	N	0.454834	0.818571	0.075882
	N263	N	0.525032	0.817623	0.898582
	N264	N	0.453125	0.914580	0.164584
	N265	N	0.526215	0.086280	0.165523
	N266	N	0.453911	0.086318	0.808329
	N267	N	0.527800	0.915427	0.810563
	N268	N	0.901852	0.179993	0.452201
	N269	N	0.076652	0.177648	0.524776
	N270	N	0.079653	0.816798	0.451592
	N271	N	0.905236	0.819733	0.524451
	N272	N	0.169192	0.462562	0.901379
	N273	N	0.171632	0.534136	0.076414
	N274	N	0.812021	0.461595	0.072361
	N275	N	0.807635	0.534630	0.898032
	O276	O	-0.094209	0.039331	0.064119
	H277	H	-0.090583	0.034985	0.052974
	H278	H	-0.089813	0.047562	0.064458
	O279	O	0.074796	0.978251	-0.182152
	H280	H	0.056654	0.983670	-0.190391
	H281	H	0.078648	0.989274	-0.178103
	O282	O	1.026291	0.013595	-0.058361
	H283	H	1.015337	0.000491	-0.050696
	H284	H	1.032012	0.005276	-0.066607
	O285	O	-0.091326	1.036744	0.111060
	H286	H	-0.089369	1.029939	0.107703
	H287	H	-0.094624	1.043655	0.104831
	O288	O	0.465509	0.513997	0.593561
	H289	H	0.460657	0.514143	0.584183
	H290	H	0.464182	0.512121	0.593578
	O291	O	0.822285	-0.166440	0.969526
	H292	H	0.806900	-0.185956	0.974526
	H293	H	0.829041	-0.163048	1.002223
	O294	O	1.074772	1.018237	0.850379
	H295	H	1.067146	1.022945	0.850701
	H296	H	1.066174	1.016815	0.862067
	O297	O	-0.110722	-0.079173	-0.108187
	H298	H	-0.108301	-0.056908	-0.090594
	H299	H	-0.124779	-0.098350	-0.081196
	O300	O	1.126311	0.902344	0.962401
	H301	H	1.131621	0.885140	0.945681
	H302	H	1.114136	0.909681	0.958633
	O303	O	0.043377	1.177074	1.123890
	H304	H	0.046407	1.184405	1.135531
	H305	H	0.051181	1.169287	1.113124
	O306	O	0.437908	0.437981	0.571170
	H307	H	0.430828	0.430738	0.572379
	H308	H	0.445017	0.447551	0.558437
	O309	O	0.790883	-0.101306	0.129391
	H310	H	0.806304	-0.073016	0.143697
	H311	H	0.765552	-0.108009	0.148994
	O312	O	-0.024060	-0.202265	1.166424
	H313	H	-0.001566	-0.212281	1.140649
	H314	H	-0.015040	-0.222297	1.185565
	O315	O	0.581667	0.560936	0.577134
	H316	H	0.588275	0.563659	0.578580
	H317	H	0.574474	0.561642	0.587062
	O318	O	0.479694	0.472692	0.394026
	H319	H	0.490992	0.463230	0.391854
	H320	H	0.474949	0.472953	0.382948
	O321	O	0.578981	0.361636	0.428301
	H322	H	0.586297	0.356628	0.428652
	H323	H	0.575656	0.360895	0.435732
	O324	O	0.483807	0.643295	0.463070
	H325	H	0.471562	0.647451	0.458378
	H326	H	0.495929	0.648690	0.474639
	O327	O	0.172866	1.176180	1.008771
	H328	H	0.154148	1.180335	1.025320
	H329	H	0.181660	1.186188	1.026841
	O330	O	0.414406	0.352528	0.515875
	H331	H	0.415210	0.345302	0.523174
	H332	H	0.412811	0.366493	0.520491
	O333	O	0.029246	1.111522	0.927225
	H334	H	0.035086	1.120702	0.948376
	H335	H	0.029831	1.106863	0.918864
	O336	O	1.198687	0.784722	0.960391
	H337	H	1.214687	0.766745	0.936801
	H338	H	1.204001	0.786256	0.927207
	O339	O	0.338466	0.399440	0.555155
	H340	H	0.326867	0.395871	0.557300
	H341	H	0.333544	0.397721	0.555455
	O342	O	1.152894	0.037572	0.056192
	H343	H	1.156777	0.026059	0.058417
	H344	H	1.143251	0.033337	0.056801
	O345	O	0.463733	0.584077	0.372675
	H346	H	0.467267	0.579746	0.367876
	H347	H	0.456415	0.584337	0.382178
	O348	O	1.090546	1.164770	1.116334
	H349	H	1.106677	1.153273	1.112297
	H350	H	1.082860	1.155315	1.115066
	O351	O	0.944100	1.176109	-0.153062
	H352	H	0.943508	1.174406	-0.151111
	H353	H	0.940859	1.162147	-0.154347
	O354	O	1.074119	-0.050125	1.150516
	H355	H	1.079158	-0.066878	1.141104
	H356	H	1.073592	-0.050108	1.162570
	O357	O	0.558214	0.606485	0.561523
	H358	H	0.560387	0.603904	0.561772
	H359	H	0.548333	0.618193	0.568019
	O360	O	-0.105323	-0.045425	-0.206217
	H361	H	-0.117451	-0.058058	-0.195426
	H362	H	-0.118234	-0.061903	-0.222049
	O363	O	0.364692	0.472036	0.412076
	H364	H	0.376252	0.454856	0.418588
	H365	H	0.359503	0.476031	0.385356
	O366	O	0.499219	0.564630	0.569143
	H367	H	0.502997	0.559769	0.572599
	H368	H	0.491058	0.560619	0.568358
	O369	O	0.477936	0.574944	0.514700
	H370	H	0.469887	0.565940	0.503461
	H371	H	0.458910	0.572957	0.517758
	O372	O	0.571763	0.606150	0.451736
	H373	H	0.573032	0.603599	0.459187
	H374	H	0.570264	0.618223	0.476016
	O375	O	0.792243	0.113226	0.941453
	H376	H	0.785658	0.124839	0.920060
	H377	H	0.788247	0.116990	0.927046
	O378	O	0.395331	0.534542	0.426689
	H379	H	0.396899	0.534836	0.429951
	H380	H	0.395520	0.558661	0.418664
	O381	O	0.560111	0.416097	0.371296
	H382	H	0.563742	0.393188	0.363864
	H383	H	0.579453	0.426614	0.368381
	O384	O	-0.188352	0.877424	0.133841
	H385	H	-0.189062	0.916185	0.148844
	H386	H	-0.161013	0.874264	0.128686
	O387	O	1.066684	-0.124872	0.862035
	H388	H	1.070912	-0.096674	0.866069
	H389	H	1.031652	-0.122584	0.852446
	O390	O	-0.014193	1.060378	-0.127591
	H391	H	-0.006117	1.051424	-0.128337
	H392	H	-0.013241	1.065486	-0.140212
	O393	O	1.367918	1.553273	0.353992
	H394	H	1.365020	1.552323	0.345513
	H395	H	1.353050	1.563457	0.366174
	O396	O	0.510529	0.431697	0.628127
	H397	H	0.503393	0.436002	0.628371
	H398	H	0.510739	0.428964	0.619258
	O399	O	0.035332	0.823478	1.019008
	H400	H	0.028761	0.836058	1.004568
	H401	H	0.036679	0.822463	1.008896
	O402	O	0.805016	1.027027	1.019966
	H403	H	0.801028	1.043134	1.008957
	H404	H	0.814872	1.032563	1.024110
	O405	O	0.510319	0.390298	0.504149
	H406	H	0.507576	0.377351	0.497987
	H407	H	0.521846	0.401416	0.508824
