data_Molecule from HDF5

_cell_length_a		16.441877
_cell_length_b		16.400477
_cell_length_c		16.443025
_cell_angle_alpha	89.979194
_cell_angle_beta	90.096448
_cell_angle_gamma	90.126487
_symmetry_space_group_name_H-M	'P 1'
_symmetry_Int_Tables_number		1

loop_
	_symmetry_equiv_pos_as_xyz
	x,y,z

loop_
	_atom_site_label
	_atom_site_type_symbol
	_atom_site_fract_x
	_atom_site_fract_y
	_atom_site_fract_z
	H0	H	0.393376	0.838330	0.727650
	H1	H	0.608029	0.153723	0.727386
	H2	H	0.600912	0.835050	0.285659
	H3	H	0.396777	0.155363	0.286611
	H4	H	0.720197	0.390681	0.847113
	H5	H	0.722618	0.604919	0.161348
	H6	H	0.275580	0.601955	0.846790
	H7	H	0.277438	0.390719	0.162856
	H8	H	0.841527	0.715102	0.399413
	H9	H	0.157033	0.715171	0.610143
	H10	H	0.840661	0.270892	0.610780
	H11	H	0.157971	0.275052	0.402845
	H12	H	0.840573	0.385198	0.727974
	H13	H	0.156004	0.599816	0.726828
	H14	H	0.842109	0.600768	0.281751
	H15	H	0.157225	0.388230	0.283481
	H16	H	0.392376	0.716916	0.846710
	H17	H	0.600147	0.713864	0.164618
	H18	H	0.604169	0.274589	0.847408
	H19	H	0.394885	0.276015	0.164269
	H20	H	0.718588	0.835636	0.399684
	H21	H	0.723243	0.152222	0.611745
	H22	H	0.279761	0.836197	0.609175
	H23	H	0.278434	0.153475	0.400442
	H24	H	0.891867	0.337533	0.225971
	H25	H	0.110313	0.650939	0.231116
	H26	H	0.103617	0.336227	0.783690
	H27	H	0.890996	0.652610	0.779997
	H28	H	0.220960	0.888518	0.347772
	H29	H	0.225315	0.104676	0.661617
	H30	H	0.774649	0.103008	0.348006
	H31	H	0.773189	0.883370	0.660728
	H32	H	0.342354	0.221097	0.896087
	H33	H	0.656053	0.219929	0.113323
	H34	H	0.338579	0.774532	0.110235
	H35	H	0.655254	0.770424	0.896898
	H36	H	0.339380	0.890042	0.227192
	H37	H	0.656602	0.102232	0.228203
	H38	H	0.342931	0.106329	0.779737
	H39	H	0.655407	0.885629	0.779930
	H40	H	0.889976	0.219133	0.348756
	H41	H	0.108049	0.218820	0.663101
	H42	H	0.107832	0.769951	0.348084
	H43	H	0.890023	0.768954	0.661542
	H44	H	0.221188	0.337549	0.896660
	H45	H	0.222377	0.652780	0.112400
	H46	H	0.775053	0.338719	0.110808
	H47	H	0.775960	0.654469	0.896065
	H48	H	0.412940	0.107244	0.589635
	H49	H	0.582998	0.884902	0.591110
	H50	H	0.590163	0.106851	0.424405
	H51	H	0.411338	0.882404	0.417384
	H52	H	0.584170	0.406329	0.117203
	H53	H	0.590422	0.586055	0.889979
	H54	H	0.409694	0.587748	0.119388
	H55	H	0.403516	0.406051	0.889121
	H56	H	0.112431	0.586101	0.421524
	H57	H	0.883751	0.581841	0.596249
	H58	H	0.108582	0.408378	0.592097
	H59	H	0.885974	0.410032	0.409678
	H60	H	0.112089	0.407984	0.598074
	H61	H	0.886357	0.584606	0.587753
	H62	H	0.109692	0.576326	0.418848
	H63	H	0.883537	0.399601	0.415608
	H64	H	0.405313	0.582439	0.119106
	H65	H	0.586206	0.579238	0.893483
	H66	H	0.590409	0.408772	0.118944
	H67	H	0.411600	0.415808	0.894808
	H68	H	0.593403	0.111932	0.411387
	H69	H	0.589031	0.882658	0.590435
	H70	H	0.409271	0.109120	0.591314
	H71	H	0.406208	0.880237	0.416099
	H72	H	0.919641	0.606420	0.094130
	H73	H	0.087946	0.383360	0.088296
	H74	H	0.083814	0.606309	0.918214
	H75	H	0.908652	0.383000	0.916684
	H76	H	0.089060	0.908374	0.617324
	H77	H	0.088022	0.086374	0.392158
	H78	H	0.911471	0.078582	0.616172
	H79	H	0.913045	0.904162	0.392785
	H80	H	0.611807	0.080635	0.912451
	H81	H	0.384051	0.089048	0.095986
	H82	H	0.611737	0.905932	0.096552
	H83	H	0.389810	0.915931	0.915536
	H84	H	0.610903	0.904464	0.095058
	H85	H	0.387803	0.083850	0.089825
	H86	H	0.613753	0.090224	0.916409
	H87	H	0.383578	0.904362	0.912161
	H88	H	0.914344	0.082310	0.616164
	H89	H	0.090655	0.081334	0.393183
	H90	H	0.084307	0.904998	0.616642
	H91	H	0.908836	0.904793	0.391268
	H92	H	0.089328	0.608784	0.917038
	H93	H	0.091316	0.379963	0.095401
	H94	H	0.908435	0.607457	0.086066
	H95	H	0.907987	0.382854	0.917283
	H96	H	0.413106	0.109202	0.594306
	H97	H	0.585565	0.881811	0.596045
	H98	H	0.580552	0.106291	0.413203
	H99	H	0.410417	0.880188	0.412090
	H100	H	0.586494	0.413497	0.116259
	H101	H	0.581904	0.587153	0.892234
	H102	H	0.411830	0.581560	0.116378
	H103	H	0.416474	0.402962	0.893026
	H104	H	0.114641	0.582665	0.411753
	H105	H	0.887759	0.575895	0.591016
	H106	H	0.112380	0.402834	0.593340
	H107	H	0.888849	0.408996	0.420853
	H108	H	0.907829	0.612130	0.099258
	H109	H	0.083249	0.382940	0.095102
	H110	H	0.084693	0.608399	0.912449
	H111	H	0.908330	0.382848	0.916632
	H112	H	0.089103	0.902885	0.619480
	H113	H	0.084962	0.082023	0.394422
	H114	H	0.910035	0.082757	0.617962
	H115	H	0.910868	0.908336	0.393649
	H116	H	0.609473	0.082842	0.922916
	H117	H	0.386072	0.081429	0.098118
	H118	H	0.610050	0.906641	0.094506
	H119	H	0.389394	0.905629	0.924647
	C120	C	0.378446	0.004428	0.625621
	C121	C	0.620578	0.986685	0.626177
	C122	C	0.619962	0.003242	0.383823
	C123	C	0.377237	0.986282	0.383341
	C124	C	0.619921	0.375872	0.013560
	C125	C	0.619156	0.617331	0.996402
	C126	C	0.375923	0.617033	0.013593
	C127	C	0.377747	0.375053	0.996601
	C128	C	0.008281	0.615540	0.383398
	C129	C	0.990104	0.614548	0.625279
	C130	C	0.006703	0.372461	0.626970
	C131	C	0.990800	0.373492	0.383960
	C132	C	0.878256	0.504489	0.125829
	C133	C	0.121049	0.486376	0.126362
	C134	C	0.119430	0.503472	0.883247
	C135	C	0.875873	0.487241	0.882833
	C136	C	0.120442	0.872743	0.513684
	C137	C	0.121061	0.116307	0.497292
	C138	C	0.877716	0.115346	0.513172
	C139	C	0.877627	0.872257	0.496513
	C140	C	0.507590	0.118006	0.883532
	C141	C	0.490269	0.117535	0.127241
	C142	C	0.506279	0.873659	0.127272
	C143	C	0.491013	0.874482	0.883898
	C144	C	0.375578	0.885416	0.686898
	C145	C	0.625196	0.105804	0.687142
	C146	C	0.620447	0.883322	0.324618
	C147	C	0.376863	0.106992	0.325344
	C148	C	0.679956	0.372966	0.894506
	C149	C	0.680891	0.621165	0.114704
	C150	C	0.315552	0.620135	0.894548
	C151	C	0.317705	0.372567	0.115651
	C152	C	0.889258	0.675957	0.380559
	C153	C	0.109374	0.675288	0.628574
	C154	C	0.888033	0.311132	0.629177
	C155	C	0.110172	0.313970	0.383167
	C156	C	0.887940	0.368503	0.687314
	C157	C	0.108833	0.617825	0.686605
	C158	C	0.889515	0.618462	0.322342
	C159	C	0.109830	0.370392	0.323916
	C160	C	0.373583	0.677606	0.894471
	C161	C	0.620177	0.675619	0.116494
	C162	C	0.622233	0.314910	0.894858
	C163	C	0.376156	0.315644	0.116419
	C164	C	0.679073	0.883443	0.381336
	C165	C	0.682702	0.105070	0.629461
	C166	C	0.318995	0.884525	0.628030
	C167	C	0.317989	0.105958	0.381846
	C168	C	0.874376	0.385241	0.185883
	C169	C	0.126449	0.604090	0.189213
	C170	C	0.122269	0.384096	0.822982
	C171	C	0.872804	0.605431	0.820382
	C172	C	0.181195	0.870316	0.395151
	C173	C	0.184048	0.121289	0.614712
	C174	C	0.815388	0.120058	0.395512
	C175	C	0.814766	0.867159	0.613841
	C176	C	0.389810	0.180092	0.878804
	C177	C	0.608786	0.179237	0.130881
	C178	C	0.386489	0.814188	0.128801
	C179	C	0.608351	0.811519	0.879762
	C180	C	0.386852	0.871827	0.186845
	C181	C	0.609196	0.120528	0.188116
	C182	C	0.389999	0.122610	0.820704
	C183	C	0.608649	0.869359	0.821646
	C184	C	0.872968	0.178153	0.395720
	C185	C	0.125380	0.178127	0.615559
	C186	C	0.124723	0.811159	0.395263
	C187	C	0.872846	0.809749	0.614399
	C188	C	0.180509	0.384769	0.879734
	C189	C	0.182347	0.605098	0.130043
	C190	C	0.815990	0.386086	0.128670
	C191	C	0.815896	0.606519	0.878633
	C192	C	0.404460	0.087010	0.599497
	C193	C	0.593629	0.904419	0.600047
	C194	C	0.595434	0.086488	0.409113
	C195	C	0.402117	0.902793	0.408055
	C196	C	0.594338	0.402004	0.096020
	C197	C	0.593414	0.591701	0.913573
	C198	C	0.401436	0.591406	0.096499
	C199	C	0.403106	0.400794	0.914023
	C200	C	0.090870	0.589186	0.409827
	C201	C	0.907606	0.588316	0.599144
	C202	C	0.089389	0.398822	0.601601
	C203	C	0.907690	0.398760	0.408382
	C204	C	0.904576	0.587179	0.100404
	C205	C	0.094851	0.403678	0.100377
	C206	C	0.093401	0.586345	0.908691
	C207	C	0.901163	0.404540	0.909145
	C208	C	0.094662	0.898163	0.596309
	C209	C	0.095061	0.090644	0.414941
	C210	C	0.904259	0.088791	0.595477
	C211	C	0.903672	0.898368	0.414080
	C212	C	0.590149	0.091985	0.909847
	C213	C	0.407576	0.091919	0.101867
	C214	C	0.589216	0.898672	0.102390
	C215	C	0.409058	0.901166	0.909982
	Zn216	Zn	0.499568	-0.003606	0.754593
	Zn217	Zn	0.498358	-0.004479	0.255945
	Zn218	Zn	0.748724	0.497141	0.004799
	Zn219	Zn	0.248137	0.495235	0.004054
	Zn220	Zn	-0.000708	0.744116	0.505347
	Zn221	Zn	-0.001012	0.244706	0.505610
	Zn222	Zn	-0.001923	0.494530	0.755052
	Zn223	Zn	-0.000195	0.494431	0.254719
	Zn224	Zn	0.497508	0.745276	0.005533
	Zn225	Zn	0.498730	0.246153	0.005861
	Zn226	Zn	0.748691	-0.006188	0.504831
	Zn227	Zn	0.249289	-0.004994	0.505266
	N228	N	0.411646	0.961062	0.685617
	N229	N	0.587288	0.031181	0.685373
	N230	N	0.584675	0.958966	0.325867
	N231	N	0.412697	0.031488	0.326135
	N232	N	0.678763	0.410140	0.969348
	N233	N	0.680630	0.585856	0.038864
	N234	N	0.316877	0.583331	0.969589
	N235	N	0.318618	0.408793	0.040298
	N236	N	0.964218	0.674402	0.417457
	N237	N	0.034421	0.673447	0.591312
	N238	N	0.962930	0.313623	0.592269
	N239	N	0.035063	0.315645	0.419687
	N240	N	0.962751	0.405908	0.686053
	N241	N	0.033947	0.580654	0.684490
	N242	N	0.964744	0.582075	0.323729
	N243	N	0.034313	0.406183	0.324036
	N244	N	0.410322	0.675827	0.969553
	N245	N	0.582847	0.673676	0.041747
	N246	N	0.585673	0.316588	0.969971
	N247	N	0.412799	0.316971	0.041392
	N248	N	0.679238	0.959126	0.417091
	N249	N	0.680102	0.029893	0.592483
	N250	N	0.320492	0.959562	0.591000
	N251	N	0.318082	0.029840	0.417008
	N252	N	0.912334	0.459931	0.184287
	N253	N	0.088719	0.529314	0.186906
	N254	N	0.084866	0.458800	0.825002
	N255	N	0.909464	0.530257	0.822913
	N256	N	0.178691	0.907931	0.469735
	N257	N	0.181399	0.083529	0.540220
	N258	N	0.818310	0.081718	0.469800
	N259	N	0.817561	0.905374	0.539438
	N260	N	0.463952	0.177220	0.917204
	N261	N	0.533973	0.177322	0.093662
	N262	N	0.461708	0.815295	0.092341
	N263	N	0.534121	0.814717	0.917926
	N264	N	0.462280	0.908273	0.186139
	N265	N	0.534628	0.082767	0.185974
	N266	N	0.464569	0.084508	0.823415
	N267	N	0.534695	0.908025	0.824021
	N268	N	0.910998	0.175336	0.470017
	N269	N	0.086742	0.175269	0.541418
	N270	N	0.087235	0.812860	0.469873
	N271	N	0.911304	0.812699	0.540354
	N272	N	0.178939	0.460154	0.916444
	N273	N	0.178864	0.530913	0.091386
	N274	N	0.818169	0.461382	0.091929
	N275	N	0.817640	0.532060	0.916708
	O276	O	0.349107	0.580658	0.626295
	H277	H	0.361815	0.571263	0.614593
	H278	H	0.338275	0.576875	0.629470
	O279	O	0.413819	0.429219	0.486453
	H280	H	0.420914	0.419913	0.498063
	H281	H	0.415072	0.429628	0.476018
	O282	O	0.417606	0.583139	0.647832
	H283	H	0.401327	0.592152	0.653954
	H284	H	0.403739	0.581952	0.640468
	O285	O	0.800699	0.794558	0.207244
	H286	H	0.790528	0.841218	0.210517
	H287	H	0.790411	0.785342	0.160949
	O288	O	0.445578	0.317809	0.574092
	H289	H	0.459914	0.313813	0.593539
	H290	H	0.434186	0.317264	0.559458
	O291	O	0.492855	0.491175	0.456108
	H292	H	0.494198	0.498141	0.461223
	H293	H	0.505009	0.493048	0.456939
	O294	O	1.033790	1.123830	0.977834
	H295	H	1.033758	1.122300	0.970099
	H296	H	1.034559	1.125103	0.977798
	O297	O	0.979132	-0.223568	0.224819
	H298	H	0.939609	-0.223304	0.223309
	H299	H	0.964020	-0.247793	0.245604
	O300	O	0.706507	0.417587	0.638452
	H301	H	0.720722	0.418543	0.666929
	H302	H	0.709908	0.435383	0.630760
	O303	O	0.683426	0.452832	0.361980
	H304	H	0.664928	0.431358	0.358588
	H305	H	0.690421	0.441770	0.374479
	O306	O	0.216868	-0.029495	0.783555
	H307	H	0.233225	-0.046791	0.782858
	H308	H	0.242065	-0.019315	0.786949
	O309	O	0.785894	-0.030950	0.220608
	H310	H	0.764642	-0.031883	0.243241
	H311	H	0.805975	-0.006654	0.220892
	O312	O	0.630070	0.333274	0.366369
	H313	H	0.609256	0.338950	0.368417
	H314	H	0.618133	0.331401	0.362267
	O315	O	0.496858	0.563079	0.539959
	H316	H	0.502139	0.561851	0.532460
	H317	H	0.503797	0.555004	0.550186
	O318	O	0.214240	0.208852	0.022580
	H319	H	0.185952	0.204531	0.045564
	H320	H	0.245357	0.226038	0.021859
	O321	O	0.665616	0.644173	0.464076
	H322	H	0.665464	0.633124	0.450606
	H323	H	0.678156	0.637959	0.451517
	O324	O	1.013969	0.134103	0.791880
	H325	H	1.028358	0.147241	0.770122
	H326	H	1.036246	0.125314	0.794796
	O327	O	0.462486	0.368216	0.422524
	H328	H	0.453388	0.371208	0.426688
	H329	H	0.459496	0.361506	0.409266
	O330	O	0.016348	1.212336	1.216769
	H331	H	0.014654	1.237126	1.220687
	H332	H	0.043172	1.219057	1.212482
	O333	O	0.073061	0.779268	0.070061
	H334	H	0.059568	0.780419	0.093622
	H335	H	0.068964	0.787013	0.071974
	O336	O	1.211003	1.026500	0.216193
	H337	H	1.194503	1.009205	0.217951
	H338	H	1.224402	1.017172	0.240125
	O339	O	0.662267	1.539460	0.556605
	H340	H	0.669384	1.545707	0.551621
	H341	H	0.682583	1.535223	0.547113
	O342	O	0.504148	0.471981	0.341583
	H343	H	0.505341	0.466706	0.316138
	H344	H	0.513060	0.455334	0.344008
	O345	O	-0.132112	0.046990	1.076414
	H346	H	-0.128207	0.051401	1.088646
	H347	H	-0.134293	0.042323	1.084027
	O348	O	0.382737	0.363105	0.420066
	H349	H	0.363228	0.357657	0.421488
	H350	H	0.386407	0.363659	0.439687
	O351	O	0.870072	1.197046	0.006780
	H352	H	0.876101	1.182646	0.023906
	H353	H	0.858327	1.212135	-0.006602
	O354	O	0.832038	0.929568	0.951710
	H355	H	0.827265	0.902199	0.964750
	H356	H	0.830116	0.940761	0.945680
	O357	O	-0.816707	0.807734	0.812624
	H358	H	-0.816410	0.801682	0.849514
	H359	H	-0.821084	0.831244	0.816027
	O360	O	0.469738	0.453102	0.705923
	H361	H	0.474339	0.475287	0.713565
	H362	H	0.467500	0.440839	0.714681
	O363	O	0.918486	0.026445	0.140920
	H364	H	0.916474	0.023798	0.120015
	H365	H	0.930505	0.036046	0.133444
	O366	O	-0.533459	-0.459819	1.429895
	H367	H	-0.540917	-0.458267	1.422188
	H368	H	-0.524495	-0.446541	1.434458
	O369	O	0.568032	-0.313858	0.655884
	H370	H	0.578824	-0.326377	0.671651
	H371	H	0.551518	-0.314801	0.631436
	O372	O	0.420628	0.441032	0.654785
	H373	H	0.418965	0.447097	0.647703
	H374	H	0.422318	0.446821	0.674983
	O375	O	0.199568	-0.032451	1.035033
	H376	H	0.188106	-0.039613	1.038385
	H377	H	0.193916	-0.032655	1.042297
	O378	O	0.176633	0.182195	0.179202
	H379	H	0.189643	0.138186	0.187762
	H380	H	0.146977	0.175221	0.158717
	O381	O	-0.079604	0.918072	-0.048455
	H382	H	-0.086277	0.914524	-0.059836
	H383	H	-0.063275	0.930167	-0.054155
	O384	O	0.002589	0.907526	0.054943
	H385	H	0.001349	0.892622	0.052062
	H386	H	-0.013658	0.926048	0.049713
	O387	O	1.067725	-0.017958	1.133946
	H388	H	1.053204	-0.025169	1.138838
	H389	H	1.041115	-0.009696	1.130513
	O390	O	1.785023	-0.216163	0.027963
	H391	H	1.796883	-0.233983	0.011557
	H392	H	1.779170	-0.228443	0.014252
	O393	O	0.810775	0.179976	0.835167
	H394	H	0.833447	0.189191	0.844355
	H395	H	0.799935	0.153175	0.839558
	O396	O	0.860566	1.190915	0.073981
	H397	H	0.872101	1.194487	0.057857
	H398	H	0.853306	1.191207	0.064291
	O399	O	0.136065	0.787223	1.004308
	H400	H	0.128047	0.796204	1.018515
	H401	H	0.140088	0.763415	1.010207
	O402	O	0.995004	1.000647	-0.213732
	H403	H	1.031885	0.992747	-0.225842
	H404	H	1.004620	0.992600	-0.194430
	O405	O	0.376456	0.585675	0.322113
	H406	H	0.368603	0.597289	0.345668
	H407	H	0.390967	0.609817	0.320741
	O408	O	0.350875	0.482180	0.484820
	H409	H	0.355623	0.475612	0.496125
	H410	H	0.342029	0.471151	0.477440
	O411	O	1.045454	1.176400	0.879003
	H412	H	1.037887	1.181163	0.876058
	H413	H	1.038611	1.168576	0.878565
	O414	O	0.395688	0.310082	0.684336
	H415	H	0.398787	0.317131	0.695460
	H416	H	0.428504	0.317168	0.685770
	O417	O	-0.210191	1.031166	0.792656
	H418	H	-0.235600	1.022164	0.777692
	H419	H	-0.190704	1.033195	0.785370
	O420	O	0.427869	1.626275	0.402971
	H421	H	0.440576	1.631096	0.415001
	H422	H	0.424600	1.632869	0.415248
	O423	O	0.210388	0.978230	-0.043127
	H424	H	0.210548	1.002192	-0.015160
	H425	H	0.212632	0.950073	-0.025804
	O426	O	-0.056907	1.020288	0.176589
	H427	H	-0.075599	1.013618	0.174787
	H428	H	-0.048406	1.049364	0.167196
	O429	O	0.691768	0.600887	0.695776
	H430	H	0.701307	0.605860	0.680181
	H431	H	0.668300	0.601031	0.699314
	O432	O	0.494984	0.570281	0.430366
	H433	H	0.504538	0.573865	0.426409
	H434	H	0.476995	0.564373	0.433640
	O435	O	-0.079172	-0.128282	-0.143992
	H436	H	-0.071471	-0.120897	-0.134302
	H437	H	-0.073649	-0.113038	-0.169703
	O438	O	0.013194	0.787650	0.797298
	H439	H	0.011715	0.783325	0.770062
	H440	H	0.031043	0.797966	0.808506
	O441	O	0.685360	0.374570	0.485059
	H442	H	0.686377	0.363622	0.478143
	H443	H	0.698348	0.376083	0.465767
