data_Molecule from HDF5

_cell_length_a		16.212559
_cell_length_b		16.205370
_cell_length_c		16.449452
_cell_angle_alpha	90.195952
_cell_angle_beta	89.919958
_cell_angle_gamma	90.010894
_symmetry_space_group_name_H-M	'P 1'
_symmetry_Int_Tables_number		1

loop_
	_symmetry_equiv_pos_as_xyz
	x,y,z

loop_
	_atom_site_label
	_atom_site_type_symbol
	_atom_site_fract_x
	_atom_site_fract_y
	_atom_site_fract_z
	H0	H	0.406607	0.839375	0.719442
	H1	H	0.609802	0.165525	0.722901
	H2	H	0.610138	0.839831	0.287603
	H3	H	0.406044	0.166183	0.288803
	H4	H	0.723942	0.402979	0.842153
	H5	H	0.724080	0.603584	0.166438
	H6	H	0.292885	0.600474	0.841834
	H7	H	0.291989	0.404440	0.166646
	H8	H	0.843686	0.715150	0.409480
	H9	H	0.173246	0.717138	0.601734
	H10	H	0.843623	0.291599	0.600092
	H11	H	0.174077	0.290771	0.407429
	H12	H	0.844682	0.403236	0.719867
	H13	H	0.171999	0.605628	0.721410
	H14	H	0.845100	0.604945	0.289822
	H15	H	0.171987	0.402939	0.287689
	H16	H	0.409082	0.717730	0.841387
	H17	H	0.607232	0.720232	0.166541
	H18	H	0.607012	0.286525	0.842322
	H19	H	0.409796	0.288493	0.167740
	H20	H	0.722190	0.839014	0.406186
	H21	H	0.720799	0.168192	0.601840
	H22	H	0.293819	0.839046	0.601211
	H23	H	0.295879	0.168279	0.409715
	H24	H	0.908258	0.340323	0.220887
	H25	H	0.109517	0.668180	0.220206
	H26	H	0.109656	0.339715	0.787670
	H27	H	0.907361	0.667544	0.788742
	H28	H	0.224129	0.905359	0.342518
	H29	H	0.223987	0.103008	0.667059
	H30	H	0.792331	0.101000	0.342682
	H31	H	0.792214	0.905755	0.667079
	H32	H	0.343859	0.214664	0.908771
	H33	H	0.672775	0.217599	0.103318
	H34	H	0.343083	0.789912	0.100887
	H35	H	0.672643	0.790068	0.908642
	H36	H	0.344410	0.902253	0.220862
	H37	H	0.671867	0.104301	0.221256
	H38	H	0.345124	0.103745	0.789510
	H39	H	0.671107	0.900093	0.787131
	H40	H	0.909347	0.218230	0.341661
	H41	H	0.106281	0.219069	0.667116
	H42	H	0.107400	0.788017	0.342203
	H43	H	0.910130	0.789048	0.667129
	H44	H	0.220466	0.337338	0.907796
	H45	H	0.222271	0.667897	0.101111
	H46	H	0.795438	0.338170	0.101268
	H47	H	0.795641	0.668462	0.909180
	H48	H	0.416548	0.121072	0.600537
	H49	H	0.603902	0.884287	0.599714
	H50	H	0.596273	0.119473	0.410230
	H51	H	0.403764	0.882944	0.415419
	H52	H	0.606794	0.406687	0.122032
	H53	H	0.597105	0.591787	0.891730
	H54	H	0.413772	0.592037	0.118552
	H55	H	0.420340	0.408452	0.890851
	H56	H	0.127827	0.605301	0.414201
	H57	H	0.889256	0.595942	0.606414
	H58	H	0.125065	0.412519	0.596186
	H59	H	0.890043	0.410430	0.405898
	H60	H	0.125953	0.412835	0.600571
	H61	H	0.891496	0.601577	0.592728
	H62	H	0.121742	0.588162	0.418462
	H63	H	0.892519	0.408066	0.416342
	H64	H	0.419396	0.597130	0.117516
	H65	H	0.599519	0.600815	0.888512
	H66	H	0.601859	0.416706	0.117000
	H67	H	0.413028	0.402246	0.887663
	H68	H	0.597749	0.118090	0.414969
	H69	H	0.594753	0.886621	0.599722
	H70	H	0.417243	0.119461	0.599110
	H71	H	0.420200	0.883777	0.399219
	H72	H	0.913218	0.619559	0.091869
	H73	H	0.103063	0.384597	0.101654
	H74	H	0.103099	0.618829	0.916071
	H75	H	0.922768	0.388500	0.906211
	H76	H	0.103034	0.907180	0.621039
	H77	H	0.093224	0.101498	0.390733
	H78	H	0.914492	0.099858	0.620343
	H79	H	0.914896	0.913754	0.390973
	H80	H	0.620709	0.089959	0.921835
	H81	H	0.389922	0.100272	0.098039
	H82	H	0.624883	0.912587	0.101554
	H83	H	0.389979	0.904077	0.913943
	H84	H	0.625264	0.907764	0.096723
	H85	H	0.394106	0.091151	0.094280
	H86	H	0.625797	0.085795	0.903792
	H87	H	0.393375	0.916749	0.914482
	H88	H	0.912648	0.096827	0.619695
	H89	H	0.109911	0.102321	0.385797
	H90	H	0.103653	0.912762	0.619871
	H91	H	0.918722	0.907691	0.389895
	H92	H	0.102818	0.622303	0.907931
	H93	H	0.091326	0.388774	0.099141
	H94	H	0.911976	0.623567	0.103427
	H95	H	0.917546	0.388828	0.917028
	H96	H	0.415561	0.120653	0.599184
	H97	H	0.599810	0.887292	0.592357
	H98	H	0.601292	0.120333	0.412139
	H99	H	0.425043	0.891656	0.420099
	H100	H	0.595509	0.406777	0.118237
	H101	H	0.606642	0.593231	0.888617
	H102	H	0.412338	0.599427	0.119971
	H103	H	0.410777	0.411755	0.889523
	H104	H	0.127846	0.591535	0.401666
	H105	H	0.895865	0.586774	0.596147
	H106	H	0.126398	0.409143	0.598321
	H107	H	0.893901	0.418283	0.412982
	H108	H	0.923208	0.618645	0.099978
	H109	H	0.100665	0.389259	0.090736
	H110	H	0.095197	0.618411	0.910476
	H111	H	0.911369	0.384282	0.908019
	H112	H	0.098305	0.910038	0.618589
	H113	H	0.103335	0.087489	0.392133
	H114	H	0.916284	0.096983	0.618975
	H115	H	0.910956	0.907619	0.387929
	H116	H	0.628999	0.103463	0.910809
	H117	H	0.391044	0.092032	0.103837
	H118	H	0.623656	0.914501	0.095453
	H119	H	0.389485	0.911745	0.903194
	C120	C	0.387177	0.011914	0.626877
	C121	C	0.628990	0.994561	0.626061
	C122	C	0.628393	0.011328	0.383514
	C123	C	0.387246	0.994746	0.383565
	C124	C	0.630334	0.380636	0.012373
	C125	C	0.629971	0.625049	0.996554
	C126	C	0.386296	0.624683	0.011726
	C127	C	0.385862	0.379757	0.996475
	C128	C	0.017302	0.624603	0.383504
	C129	C	1.000610	0.624758	0.626718
	C130	C	0.017034	0.382548	0.626304
	C131	C	1.000415	0.382484	0.382832
	C132	C	0.887064	0.511848	0.126377
	C133	C	0.128955	0.495831	0.125831
	C134	C	0.129796	0.511275	0.882949
	C135	C	0.887786	0.495593	0.882984
	C136	C	0.130588	0.881486	0.512797
	C137	C	0.130769	0.125952	0.496828
	C138	C	0.885638	0.126304	0.512616
	C139	C	0.886283	0.881592	0.496711
	C140	C	0.516626	0.122713	0.883860
	C141	C	0.500067	0.123928	0.126987
	C142	C	0.516417	0.882131	0.126193
	C143	C	0.499314	0.881507	0.882422
	C144	C	0.387852	0.888233	0.681241
	C145	C	0.628905	0.117469	0.682964
	C146	C	0.628824	0.888421	0.326684
	C147	C	0.387708	0.117860	0.327753
	C148	C	0.685763	0.382753	0.890461
	C149	C	0.685944	0.623819	0.118042
	C150	C	0.331043	0.621470	0.889885
	C151	C	0.330077	0.383291	0.118379
	C152	C	0.893175	0.679063	0.387521
	C153	C	0.124057	0.680051	0.623154
	C154	C	0.892752	0.328537	0.621782
	C155	C	0.124645	0.327884	0.386219
	C156	C	0.893569	0.384241	0.681291
	C157	C	0.123514	0.624494	0.682413
	C158	C	0.893898	0.623928	0.328095
	C159	C	0.123509	0.383506	0.326677
	C160	C	0.388439	0.679971	0.889912
	C161	C	0.627545	0.681535	0.118278
	C162	C	0.627694	0.324709	0.890557
	C163	C	0.388502	0.325615	0.118803
	C164	C	0.684406	0.887987	0.385739
	C165	C	0.683677	0.118739	0.622881
	C166	C	0.331832	0.887865	0.622456
	C167	C	0.332900	0.118980	0.387848
	C168	C	0.888177	0.388958	0.182229
	C169	C	0.128478	0.619241	0.181628
	C170	C	0.128605	0.388184	0.826790
	C171	C	0.888870	0.618995	0.828030
	C172	C	0.185997	0.884554	0.390696
	C173	C	0.185771	0.123482	0.618726
	C174	C	0.830159	0.122822	0.390847
	C175	C	0.830718	0.884952	0.618898
	C176	C	0.393119	0.177760	0.887363
	C177	C	0.623872	0.179445	0.123756
	C178	C	0.392247	0.827291	0.122420
	C179	C	0.623455	0.827040	0.886543
	C180	C	0.392990	0.882629	0.182262
	C181	C	0.623265	0.123663	0.182833
	C182	C	0.393870	0.122289	0.828053
	C183	C	0.622646	0.881707	0.826560
	C184	C	0.888498	0.180821	0.390484
	C185	C	0.127583	0.181309	0.618740
	C186	C	0.128074	0.826102	0.390698
	C187	C	0.888968	0.826708	0.618965
	C188	C	0.183784	0.387070	0.886249
	C189	C	0.184614	0.619184	0.122443
	C190	C	0.832209	0.387903	0.122923
	C191	C	0.833012	0.619511	0.887385
	C192	C	0.409691	0.098125	0.605794
	C193	C	0.606241	0.908330	0.603749
	C194	C	0.605107	0.097094	0.405905
	C195	C	0.409662	0.908397	0.405062
	C196	C	0.608047	0.403428	0.097289
	C197	C	0.607736	0.602023	0.911632
	C198	C	0.408563	0.602749	0.096687
	C199	C	0.407991	0.401210	0.911474
	C200	C	0.103561	0.601639	0.405062
	C201	C	0.914509	0.601673	0.604855
	C202	C	0.103438	0.404916	0.604735
	C203	C	0.914542	0.405401	0.405232
	C204	C	0.909427	0.598257	0.104585
	C205	C	0.105235	0.409554	0.103612
	C206	C	0.107152	0.597592	0.905221
	C207	C	0.910432	0.409306	0.904154
	C208	C	0.108226	0.903558	0.597806
	C209	C	0.108648	0.103627	0.411557
	C210	C	0.907893	0.104354	0.597639
	C211	C	0.908499	0.903174	0.411601
	C212	C	0.602980	0.099945	0.905983
	C213	C	0.413949	0.101107	0.105265
	C214	C	0.602321	0.905038	0.104572
	C215	C	0.413322	0.904246	0.904206
	Zn216	Zn	0.508549	0.002656	0.754757
	Zn217	Zn	0.508117	0.002860	0.255189
	Zn218	Zn	0.759310	0.503082	0.004359
	Zn219	Zn	0.257082	0.502633	0.004147
	Zn220	Zn	0.008597	0.751982	0.504674
	Zn221	Zn	0.009069	0.255001	0.504521
	Zn222	Zn	0.009141	0.503812	0.754589
	Zn223	Zn	0.008718	0.504338	0.254854
	Zn224	Zn	0.507739	0.754181	0.004099
	Zn225	Zn	0.508623	0.250732	0.004757
	Zn226	Zn	0.756670	0.003476	0.504558
	Zn227	Zn	0.259743	0.003645	0.505040
	N228	N	0.421711	0.966059	0.683935
	N229	N	0.595544	0.039437	0.684833
	N230	N	0.594611	0.966041	0.325334
	N231	N	0.420731	0.039563	0.325139
	N232	N	0.687691	0.416635	0.967196
	N233	N	0.687364	0.589298	0.041448
	N234	N	0.329664	0.587844	0.966438
	N235	N	0.328417	0.416324	0.041437
	N236	N	0.970818	0.679415	0.421292
	N237	N	0.046503	0.680274	0.589197
	N238	N	0.970594	0.327385	0.588452
	N239	N	0.047040	0.327021	0.420361
	N240	N	0.971878	0.417058	0.684184
	N241	N	0.045612	0.591021	0.684903
	N242	N	0.972021	0.590746	0.325620
	N243	N	0.045386	0.416535	0.324405
	N244	N	0.422085	0.682132	0.966738
	N245	N	0.593515	0.682504	0.041636
	N246	N	0.594017	0.323131	0.967482
	N247	N	0.422637	0.323293	0.042226
	N248	N	0.684290	0.965311	0.420473
	N249	N	0.683972	0.041110	0.588516
	N250	N	0.331189	0.965706	0.589355
	N251	N	0.332652	0.041616	0.421936
	N252	N	0.921488	0.466968	0.184601
	N253	N	0.094703	0.541262	0.183731
	N254	N	0.095737	0.466521	0.824587
	N255	N	0.922264	0.540933	0.825153
	N256	N	0.187779	0.918186	0.467607
	N257	N	0.187719	0.089701	0.541864
	N258	N	0.828360	0.089631	0.467643
	N259	N	0.828742	0.917902	0.541945
	N260	N	0.470605	0.177816	0.921528
	N261	N	0.546218	0.179956	0.090026
	N262	N	0.469658	0.826821	0.088173
	N263	N	0.545852	0.826738	0.920528
	N264	N	0.471093	0.915971	0.184605
	N265	N	0.545402	0.089833	0.184881
	N266	N	0.471790	0.088831	0.825889
	N267	N	0.544457	0.914687	0.823791
	N268	N	0.922283	0.183190	0.467332
	N269	N	0.094293	0.182999	0.541810
	N270	N	0.094584	0.823995	0.467546
	N271	N	0.922882	0.824660	0.542215
	N272	N	0.184437	0.464650	0.920453
	N273	N	0.184883	0.541356	0.088622
	N274	N	0.831590	0.465385	0.088894
	N275	N	0.832213	0.541815	0.920620
	O276	O	0.526426	0.482567	0.439649
	H277	H	0.516818	0.501031	0.435727
	H278	H	0.529766	0.485795	0.444510
	O279	O	0.068450	0.046095	-0.027043
	H280	H	0.071668	0.053065	-0.028157
	H281	H	0.070775	0.038634	-0.026830
	O282	O	0.575723	0.529891	0.489558
	H283	H	0.578438	0.532787	0.485012
	H284	H	0.582946	0.518470	0.479821
	O285	O	0.578506	0.472728	0.476435
	H286	H	0.581393	0.471117	0.478424
	H287	H	0.575435	0.468864	0.474737
	O288	O	1.472339	0.538340	-0.515024
	H289	H	1.476776	0.544976	-0.516079
	H290	H	1.482578	0.542589	-0.520263
	O291	O	-0.985234	0.071802	-0.008322
	H292	H	-0.985045	0.076349	-0.001208
	H293	H	-0.982530	0.084615	-0.001428
	O294	O	0.622688	0.534143	0.470311
	H295	H	0.624675	0.519736	0.470965
	H296	H	0.614976	0.523798	0.470540
	O297	O	0.044583	1.037625	-0.015337
	H298	H	0.026904	1.041242	-0.017989
	H299	H	0.037739	1.040655	-0.020468
	O300	O	0.536623	0.549728	0.457551
	H301	H	0.534269	0.549124	0.463183
	H302	H	0.545698	0.563255	0.466656
	O303	O	0.557965	0.506601	0.536569
	H304	H	0.560751	0.496268	0.530529
	H305	H	0.545839	0.513412	0.545244
	O306	O	0.042196	1.046308	0.986559
	H307	H	0.051736	1.043697	0.981914
	H308	H	0.046193	1.056908	0.990508
	O309	O	0.056060	0.064787	0.955254
	H310	H	0.070870	0.054058	0.950092
	H311	H	0.052671	0.059305	0.951234
