data_Molecule from HDF5

_cell_length_a		16.296488
_cell_length_b		16.254702
_cell_length_c		16.359080
_cell_angle_alpha	90.039506
_cell_angle_beta	89.987563
_cell_angle_gamma	90.049161
_symmetry_space_group_name_H-M	'P 1'
_symmetry_Int_Tables_number		1

loop_
	_symmetry_equiv_pos_as_xyz
	x,y,z

loop_
	_atom_site_label
	_atom_site_type_symbol
	_atom_site_fract_x
	_atom_site_fract_y
	_atom_site_fract_z
	H0	H	0.398748	0.836423	0.719423
	H1	H	0.597684	0.163600	0.720451
	H2	H	0.596364	0.837249	0.290022
	H3	H	0.399874	0.164037	0.290335
	H4	H	0.712819	0.402163	0.842041
	H5	H	0.712987	0.598530	0.168819
	H6	H	0.283003	0.598483	0.842386
	H7	H	0.280613	0.399417	0.167881
	H8	H	0.834429	0.714674	0.408412
	H9	H	0.162562	0.713806	0.602381
	H10	H	0.833773	0.286394	0.602052
	H11	H	0.161176	0.286113	0.406673
	H12	H	0.834474	0.399993	0.720425
	H13	H	0.161341	0.600049	0.720985
	H14	H	0.834718	0.600280	0.290366
	H15	H	0.160934	0.401964	0.289672
	H16	H	0.400800	0.713300	0.842148
	H17	H	0.595191	0.714382	0.168918
	H18	H	0.596059	0.285720	0.841917
	H19	H	0.399926	0.285099	0.168253
	H20	H	0.712120	0.836846	0.405802
	H21	H	0.711991	0.164312	0.602436
	H22	H	0.284713	0.836393	0.602037
	H23	H	0.284523	0.164459	0.406433
	H24	H	0.899278	0.337039	0.219060
	H25	H	0.097130	0.664328	0.219942
	H26	H	0.096671	0.336305	0.789980
	H27	H	0.900215	0.664182	0.791285
	H28	H	0.212878	0.901841	0.341965
	H29	H	0.214436	0.099678	0.668060
	H30	H	0.782828	0.099394	0.342406
	H31	H	0.782016	0.901826	0.668027
	H32	H	0.333777	0.213948	0.907596
	H33	H	0.661525	0.213961	0.102578
	H34	H	0.333632	0.787405	0.102205
	H35	H	0.661699	0.786735	0.907906
	H36	H	0.335161	0.902123	0.219544
	H37	H	0.660939	0.099720	0.220044
	H38	H	0.335219	0.099344	0.788971
	H39	H	0.661537	0.901932	0.790794
	H40	H	0.901509	0.213377	0.341283
	H41	H	0.096818	0.215867	0.668404
	H42	H	0.095667	0.786151	0.342293
	H43	H	0.900195	0.786428	0.668865
	H44	H	0.211537	0.335962	0.907559
	H45	H	0.210886	0.664812	0.102000
	H46	H	0.785407	0.336228	0.102027
	H47	H	0.784090	0.664393	0.907660
	H48	H	0.405079	0.116968	0.597567
	H49	H	0.602719	0.877540	0.605181
	H50	H	0.587382	0.114135	0.418182
	H51	H	0.409878	0.885297	0.411987
	H52	H	0.589589	0.410960	0.118736
	H53	H	0.598508	0.589110	0.889365
	H54	H	0.394323	0.582631	0.120914
	H55	H	0.404340	0.404954	0.888974
	H56	H	0.115254	0.590548	0.404701
	H57	H	0.883983	0.591938	0.595733
	H58	H	0.112666	0.411790	0.597418
	H59	H	0.879520	0.407290	0.404879
	H60	H	0.114714	0.407173	0.600982
	H61	H	0.881246	0.591027	0.601515
	H62	H	0.116239	0.600314	0.413368
	H63	H	0.880266	0.401327	0.414314
	H64	H	0.417384	0.591980	0.117146
	H65	H	0.585242	0.589548	0.892325
	H66	H	0.589873	0.402685	0.121222
	H67	H	0.402920	0.410442	0.891251
	H68	H	0.598390	0.118850	0.412276
	H69	H	0.576836	0.885889	0.605223
	H70	H	0.407063	0.116946	0.599074
	H71	H	0.401603	0.883588	0.414991
	H72	H	0.909313	0.614463	0.092476
	H73	H	0.092415	0.383940	0.097354
	H74	H	0.088837	0.616102	0.911252
	H75	H	0.907435	0.382065	0.904445
	H76	H	0.099530	0.907870	0.623536
	H77	H	0.097015	0.092572	0.388524
	H78	H	0.900641	0.091656	0.621300
	H79	H	0.904795	0.901390	0.387781
	H80	H	0.610715	0.088688	0.917353
	H81	H	0.379456	0.096870	0.099522
	H82	H	0.615186	0.905955	0.098412
	H83	H	0.383258	0.907935	0.916194
	H84	H	0.614323	0.907884	0.096874
	H85	H	0.383259	0.091924	0.093926
	H86	H	0.616185	0.090590	0.904346
	H87	H	0.380997	0.910601	0.906629
	H88	H	0.908269	0.091414	0.619042
	H89	H	0.089115	0.090163	0.392028
	H90	H	0.088357	0.911831	0.618881
	H91	H	0.899573	0.911847	0.389932
	H92	H	0.091444	0.616807	0.913849
	H93	H	0.089170	0.383736	0.100589
	H94	H	0.898194	0.619861	0.098210
	H95	H	0.909433	0.386879	0.916655
	H96	H	0.407494	0.116010	0.596507
	H97	H	0.591529	0.888079	0.582742
	H98	H	0.586625	0.117664	0.405884
	H99	H	0.403511	0.881909	0.406306
	H100	H	0.596699	0.407498	0.122123
	H101	H	0.591652	0.600865	0.887900
	H102	H	0.399391	0.606774	0.126556
	H103	H	0.408299	0.408637	0.890858
	H104	H	0.111609	0.589004	0.416679
	H105	H	0.880696	0.596389	0.599025
	H106	H	0.113445	0.405942	0.594876
	H107	H	0.883860	0.412476	0.414542
	H108	H	0.909597	0.618013	0.104768
	H109	H	0.088246	0.385143	0.096950
	H110	H	0.092328	0.617495	0.910060
	H111	H	0.897499	0.381770	0.912894
	H112	H	0.089298	0.900092	0.622502
	H113	H	0.090337	0.098546	0.388660
	H114	H	0.905711	0.098063	0.621686
	H115	H	0.910811	0.909897	0.392637
	H116	H	0.615944	0.101031	0.913679
	H117	H	0.381524	0.088973	0.101416
	H118	H	0.614158	0.907480	0.099556
	H119	H	0.379294	0.901232	0.910054
	C120	C	0.377562	0.008262	0.625911
	C121	C	0.619285	0.991912	0.626354
	C122	C	0.619302	0.008978	0.383465
	C123	C	0.376910	0.991976	0.383058
	C124	C	0.619983	0.378553	0.012921
	C125	C	0.619860	0.621965	0.997711
	C126	C	0.375602	0.622069	0.013861
	C127	C	0.376032	0.378684	0.997589
	C128	C	0.006041	0.621860	0.383806
	C129	C	0.990099	0.622076	0.627021
	C130	C	0.005815	0.379354	0.626403
	C131	C	0.989556	0.378985	0.383238
	C132	C	0.876772	0.509033	0.126813
	C133	C	0.118876	0.492455	0.126566
	C134	C	0.119309	0.508420	0.883357
	C135	C	0.876297	0.491779	0.883377
	C136	C	0.120276	0.878748	0.513613
	C137	C	0.120725	0.122474	0.497009
	C138	C	0.876596	0.122081	0.512886
	C139	C	0.876175	0.878772	0.497604
	C140	C	0.506065	0.121834	0.883306
	C141	C	0.489464	0.121434	0.126553
	C142	C	0.506595	0.878783	0.126574
	C143	C	0.489743	0.878502	0.883032
	C144	C	0.378915	0.885352	0.681363
	C145	C	0.617763	0.114981	0.682111
	C146	C	0.616968	0.885933	0.327841
	C147	C	0.379807	0.115474	0.328620
	C148	C	0.674651	0.381428	0.890512
	C149	C	0.675106	0.619426	0.120054
	C150	C	0.321062	0.619043	0.890999
	C151	C	0.319659	0.379932	0.119575
	C152	C	0.883283	0.677303	0.387102
	C153	C	0.113540	0.676355	0.623301
	C154	C	0.882710	0.323977	0.623339
	C155	C	0.112571	0.324152	0.385994
	C156	C	0.883062	0.380504	0.682085
	C157	C	0.112895	0.620074	0.682298
	C158	C	0.883255	0.620076	0.328925
	C159	C	0.112231	0.381414	0.327714
	C160	C	0.379297	0.676326	0.890887
	C161	C	0.616268	0.676539	0.120294
	C162	C	0.616655	0.323656	0.890608
	C163	C	0.378859	0.323115	0.119803
	C164	C	0.674020	0.885546	0.385923
	C165	C	0.674228	0.115347	0.623522
	C166	C	0.322346	0.885234	0.623006
	C167	C	0.322096	0.115371	0.385995
	C168	C	0.879041	0.385875	0.181553
	C169	C	0.116627	0.615685	0.181312
	C170	C	0.116866	0.385238	0.828053
	C171	C	0.879605	0.615356	0.829141
	C172	C	0.174842	0.881643	0.390748
	C173	C	0.176214	0.120182	0.619588
	C174	C	0.821267	0.119552	0.390589
	C175	C	0.820207	0.881160	0.619567
	C176	C	0.382895	0.176506	0.886520
	C177	C	0.612834	0.176118	0.123372
	C178	C	0.382956	0.824524	0.123145
	C179	C	0.612826	0.823772	0.886434
	C180	C	0.383445	0.881442	0.181372
	C181	C	0.612502	0.119416	0.181941
	C182	C	0.383613	0.119651	0.827587
	C183	C	0.612708	0.881035	0.828334
	C184	C	0.879898	0.176501	0.390210
	C185	C	0.117517	0.177627	0.619928
	C186	C	0.116925	0.823868	0.390852
	C187	C	0.879247	0.824147	0.620187
	C188	C	0.173897	0.384934	0.886331
	C189	C	0.173403	0.615856	0.122990
	C190	C	0.822995	0.385121	0.122789
	C191	C	0.821925	0.615656	0.886818
	C192	C	0.400088	0.094410	0.604050
	C193	C	0.596863	0.906066	0.604264
	C194	C	0.597266	0.094744	0.405516
	C195	C	0.398610	0.905813	0.404639
	C196	C	0.598474	0.400525	0.098675
	C197	C	0.598101	0.599738	0.911956
	C198	C	0.397230	0.600254	0.099467
	C199	C	0.398471	0.401468	0.912381
	C200	C	0.092361	0.599570	0.405143
	C201	C	0.904142	0.599675	0.605188
	C202	C	0.091416	0.401853	0.604340
	C203	C	0.903406	0.400625	0.404954
	C204	C	0.899062	0.595163	0.105012
	C205	C	0.096484	0.406408	0.104804
	C206	C	0.097480	0.594418	0.905435
	C207	C	0.898130	0.405792	0.905074
	C208	C	0.098712	0.900159	0.599409
	C209	C	0.098686	0.100345	0.411769
	C210	C	0.898378	0.099991	0.598457
	C211	C	0.898663	0.901228	0.412136
	C212	C	0.592128	0.099755	0.905330
	C213	C	0.403610	0.099036	0.104733
	C214	C	0.592450	0.900688	0.104871
	C215	C	0.403524	0.900300	0.904535
	Zn216	Zn	0.498330	-0.000104	0.754596
	Zn217	Zn	0.498107	0.000399	0.254908
	Zn218	Zn	0.749001	0.500254	0.005695
	Zn219	Zn	0.247070	0.500237	0.005559
	Zn220	Zn	-0.001681	0.749890	0.505657
	Zn221	Zn	-0.002077	0.250833	0.505226
	Zn222	Zn	-0.002054	0.500359	0.755085
	Zn223	Zn	-0.002339	0.500837	0.255091
	Zn224	Zn	0.497735	0.750470	0.005419
	Zn225	Zn	0.497832	0.249581	0.005589
	Zn226	Zn	0.747323	0.000536	0.504883
	Zn227	Zn	0.249348	0.000149	0.505107
	N228	N	0.412588	0.963056	0.683166
	N229	N	0.584063	0.037191	0.683839
	N230	N	0.583368	0.963473	0.326429
	N231	N	0.412871	0.037741	0.326458
	N232	N	0.676670	0.415090	0.967581
	N233	N	0.677085	0.586011	0.042719
	N234	N	0.318676	0.586105	0.968460
	N235	N	0.317859	0.413765	0.042441
	N236	N	0.960812	0.678301	0.420559
	N237	N	0.036111	0.677819	0.589827
	N238	N	0.959975	0.322946	0.589658
	N239	N	0.035240	0.322576	0.419792
	N240	N	0.960569	0.414387	0.683920
	N241	N	0.035204	0.587145	0.684636
	N242	N	0.960645	0.586490	0.326749
	N243	N	0.034725	0.414802	0.326095
	N244	N	0.412499	0.678310	0.968164
	N245	N	0.582730	0.678181	0.043108
	N246	N	0.583476	0.321675	0.967916
	N247	N	0.413317	0.322487	0.043174
	N248	N	0.675537	0.962952	0.419774
	N249	N	0.675233	0.038000	0.589653
	N250	N	0.321632	0.962568	0.589217
	N251	N	0.320488	0.037712	0.419464
	N252	N	0.912078	0.463800	0.183830
	N253	N	0.083427	0.537906	0.183637
	N254	N	0.083757	0.462989	0.826063
	N255	N	0.912604	0.537617	0.826882
	N256	N	0.176892	0.915216	0.467965
	N257	N	0.178592	0.086959	0.542262
	N258	N	0.819108	0.086358	0.467967
	N259	N	0.818469	0.914443	0.542349
	N260	N	0.460158	0.177739	0.920673
	N261	N	0.535596	0.177461	0.089752
	N262	N	0.460498	0.822878	0.089723
	N263	N	0.535296	0.822060	0.919733
	N264	N	0.461075	0.914501	0.183553
	N265	N	0.534752	0.086283	0.183947
	N266	N	0.461133	0.086597	0.825635
	N267	N	0.535128	0.914083	0.826088
	N268	N	0.913701	0.177873	0.467128
	N269	N	0.083731	0.179204	0.542884
	N270	N	0.083634	0.822042	0.468087
	N271	N	0.913248	0.822614	0.543233
	N272	N	0.175502	0.462389	0.920041
	N273	N	0.174829	0.538114	0.089804
	N274	N	0.821572	0.462766	0.089404
	N275	N	0.819689	0.537766	0.919704
	O276	O	0.457790	0.472699	0.583792
	H277	H	0.463284	0.473919	0.584963
	H278	H	0.458387	0.474277	0.585857
	O279	O	0.444752	0.486316	0.610950
	H280	H	0.447789	0.478046	0.613023
	H281	H	0.444814	0.490896	0.613474
	O282	O	1.442630	0.454363	-0.406297
	H283	H	1.439229	0.446795	-0.405505
	H284	H	1.441440	0.455420	-0.410523
	O285	O	0.462724	0.484524	0.582549
	H286	H	0.462795	0.483804	0.584245
	H287	H	0.451609	0.487959	0.588930
