data_Molecule from HDF5

_cell_length_a		16.378307
_cell_length_b		16.615634
_cell_length_c		16.392596
_cell_angle_alpha	90.022504
_cell_angle_beta	90.013496
_cell_angle_gamma	90.070610
_symmetry_space_group_name_H-M	'P 1'
_symmetry_Int_Tables_number		1

loop_
	_symmetry_equiv_pos_as_xyz
	x,y,z

loop_
	_atom_site_label
	_atom_site_type_symbol
	_atom_site_fract_x
	_atom_site_fract_y
	_atom_site_fract_z
	H0	H	0.385925	0.848259	0.728062
	H1	H	0.602938	0.158277	0.728293
	H2	H	0.601462	0.847293	0.277515
	H3	H	0.387226	0.158227	0.279316
	H4	H	0.717132	0.394493	0.844733
	H5	H	0.717896	0.608899	0.159708
	H6	H	0.273454	0.605855	0.843424
	H7	H	0.272197	0.398362	0.161637
	H8	H	0.836963	0.725688	0.393295
	H9	H	0.147625	0.727521	0.612106
	H10	H	0.836817	0.276664	0.610736
	H11	H	0.151892	0.278937	0.394896
	H12	H	0.835060	0.395214	0.723847
	H13	H	0.150908	0.604653	0.720919
	H14	H	0.836159	0.607008	0.280141
	H15	H	0.153731	0.398164	0.282084
	H16	H	0.387313	0.724432	0.844885
	H17	H	0.605385	0.728306	0.158567
	H18	H	0.603283	0.276625	0.846361
	H19	H	0.385760	0.280428	0.160074
	H20	H	0.716025	0.846824	0.395306
	H21	H	0.717328	0.158577	0.609812
	H22	H	0.269594	0.847879	0.611037
	H23	H	0.271680	0.158479	0.395832
	H24	H	0.887279	0.345357	0.224573
	H25	H	0.095152	0.661249	0.220526
	H26	H	0.097276	0.344657	0.780755
	H27	H	0.887380	0.659056	0.779145
	H28	H	0.211925	0.899900	0.341993
	H29	H	0.214787	0.106188	0.661394
	H30	H	0.776332	0.103049	0.341469
	H31	H	0.770533	0.896311	0.660963
	H32	H	0.334725	0.223819	0.895541
	H33	H	0.650397	0.226252	0.110464
	H34	H	0.335613	0.780409	0.108528
	H35	H	0.653240	0.779689	0.894738
	H36	H	0.333087	0.900861	0.219324
	H37	H	0.653307	0.104072	0.219431
	H38	H	0.334496	0.105372	0.782989
	H39	H	0.654373	0.898616	0.782995
	H40	H	0.889585	0.221563	0.342512
	H41	H	0.102995	0.225345	0.659681
	H42	H	0.097711	0.781456	0.343353
	H43	H	0.885582	0.779856	0.660339
	H44	H	0.213565	0.344419	0.897779
	H45	H	0.210896	0.661799	0.102770
	H46	H	0.771976	0.345299	0.107041
	H47	H	0.772300	0.659326	0.896511
	H48	H	0.407157	0.114627	0.593613
	H49	H	0.585049	0.890623	0.590614
	H50	H	0.585633	0.117567	0.406449
	H51	H	0.402787	0.890163	0.412650
	H52	H	0.584574	0.412205	0.117233
	H53	H	0.579336	0.589879	0.891282
	H54	H	0.404635	0.591456	0.116114
	H55	H	0.406267	0.414387	0.890319
	H56	H	0.107030	0.587390	0.410207
	H57	H	0.878367	0.594408	0.586829
	H58	H	0.104952	0.410298	0.582338
	H59	H	0.879370	0.410249	0.411334
	H60	H	0.103505	0.420095	0.591150
	H61	H	0.880730	0.587018	0.586150
	H62	H	0.109992	0.598244	0.413594
	H63	H	0.881246	0.409118	0.417309
	H64	H	0.405004	0.594346	0.116096
	H65	H	0.580246	0.592334	0.889343
	H66	H	0.580702	0.420834	0.112276
	H67	H	0.405774	0.409908	0.888243
	H68	H	0.576562	0.112548	0.412101
	H69	H	0.580335	0.891010	0.595255
	H70	H	0.409160	0.112525	0.589331
	H71	H	0.404988	0.890214	0.411188
	H72	H	0.903546	0.614223	0.091076
	H73	H	0.078273	0.391380	0.092580
	H74	H	0.086219	0.614602	0.914074
	H75	H	0.903438	0.391077	0.914808
	H76	H	0.079993	0.911271	0.615381
	H77	H	0.080203	0.093791	0.389372
	H78	H	0.901668	0.095197	0.618449
	H79	H	0.903515	0.910052	0.388431
	H80	H	0.605942	0.091216	0.917611
	H81	H	0.377109	0.095318	0.095572
	H82	H	0.607770	0.915954	0.094093
	H83	H	0.382149	0.909479	0.920923
	H84	H	0.608457	0.908139	0.089509
	H85	H	0.379802	0.096179	0.086148
	H86	H	0.606652	0.091288	0.917043
	H87	H	0.384055	0.918122	0.916096
	H88	H	0.904804	0.085624	0.614502
	H89	H	0.085443	0.092231	0.387489
	H90	H	0.083095	0.913076	0.615846
	H91	H	0.904126	0.916161	0.389977
	H92	H	0.084633	0.616565	0.907908
	H93	H	0.086503	0.389560	0.087771
	H94	H	0.907011	0.613683	0.093088
	H95	H	0.905105	0.390168	0.911283
	H96	H	0.404046	0.113806	0.589143
	H97	H	0.579693	0.893518	0.589346
	H98	H	0.587316	0.113836	0.417605
	H99	H	0.405086	0.890228	0.413773
	H100	H	0.574700	0.411991	0.113325
	H101	H	0.582223	0.590234	0.889797
	H102	H	0.402300	0.592385	0.116358
	H103	H	0.402187	0.413132	0.888124
	H104	H	0.104639	0.590707	0.421665
	H105	H	0.877402	0.589448	0.592929
	H106	H	0.109154	0.408921	0.594374
	H107	H	0.882382	0.414727	0.414769
	H108	H	0.907026	0.612670	0.089261
	H109	H	0.086245	0.388112	0.097608
	H110	H	0.080455	0.613223	0.911360
	H111	H	0.907333	0.391628	0.914441
	H112	H	0.080266	0.914839	0.614447
	H113	H	0.081746	0.088751	0.390029
	H114	H	0.912194	0.093360	0.614523
	H115	H	0.908928	0.912685	0.390482
	H116	H	0.605646	0.091358	0.917296
	H117	H	0.380398	0.087521	0.090428
	H118	H	0.604423	0.915290	0.085776
	H119	H	0.379390	0.910511	0.911255
	C120	C	0.372964	0.011314	0.624575
	C121	C	0.615581	0.994623	0.624962
	C122	C	0.615337	0.011130	0.379693
	C123	C	0.372056	0.993730	0.380222
	C124	C	0.614290	0.381337	0.010316
	C125	C	0.615051	0.624024	0.994068
	C126	C	0.372312	0.623823	0.011009
	C127	C	0.371542	0.380695	0.993553
	C128	C	0.002313	0.623593	0.381881
	C129	C	0.983308	0.622618	0.622051
	C130	C	0.001907	0.379946	0.623036
	C131	C	0.985809	0.380340	0.381364
	C132	C	0.872295	0.510490	0.124273
	C133	C	0.114938	0.494407	0.123545
	C134	C	0.115253	0.510608	0.879751
	C135	C	0.872457	0.494249	0.880608
	C136	C	0.114412	0.880535	0.510814
	C137	C	0.115475	0.123965	0.493771
	C138	C	0.873968	0.122689	0.510246
	C139	C	0.871827	0.880578	0.493972
	C140	C	0.501898	0.124056	0.882734
	C141	C	0.484202	0.124484	0.123280
	C142	C	0.502296	0.881254	0.122900
	C143	C	0.486456	0.880863	0.882121
	C144	C	0.368866	0.894686	0.686963
	C145	C	0.620100	0.111443	0.687125
	C146	C	0.618287	0.893886	0.318636
	C147	C	0.369253	0.111297	0.319658
	C148	C	0.676648	0.377188	0.892272
	C149	C	0.677221	0.627036	0.112381
	C150	C	0.312941	0.624807	0.891266
	C151	C	0.311635	0.379605	0.113512
	C152	C	0.883944	0.684599	0.376674
	C153	C	0.101176	0.685311	0.628116
	C154	C	0.883604	0.318085	0.627250
	C155	C	0.104924	0.320110	0.377782
	C156	C	0.882766	0.377179	0.683623
	C157	C	0.102834	0.624428	0.682299
	C158	C	0.883471	0.625394	0.320540
	C159	C	0.105683	0.379224	0.321464
	C160	C	0.369755	0.683693	0.892164
	C161	C	0.621023	0.686481	0.111810
	C162	C	0.619664	0.318506	0.893012
	C163	C	0.368278	0.320858	0.112882
	C164	C	0.675711	0.893803	0.377256
	C165	C	0.677074	0.111734	0.627989
	C166	C	0.310888	0.894545	0.628692
	C167	C	0.311682	0.111411	0.377787
	C168	C	0.869133	0.392653	0.184742
	C169	C	0.115108	0.613605	0.181521
	C170	C	0.116300	0.391946	0.820443
	C171	C	0.869735	0.612033	0.819567
	C172	C	0.173311	0.879833	0.390425
	C173	C	0.175303	0.125131	0.613348
	C174	C	0.815227	0.122676	0.389699
	C175	C	0.810786	0.878343	0.613206
	C176	C	0.382515	0.183887	0.878667
	C177	C	0.603493	0.184733	0.126876
	C178	C	0.382968	0.820768	0.126052
	C179	C	0.605520	0.820206	0.877759
	C180	C	0.381736	0.880722	0.181179
	C181	C	0.604719	0.124406	0.181680
	C182	C	0.382413	0.124885	0.822436
	C183	C	0.606361	0.880036	0.822444
	C184	C	0.871794	0.181529	0.390268
	C185	C	0.119403	0.184340	0.612600
	C186	C	0.116458	0.820827	0.391249
	C187	C	0.867799	0.819977	0.612965
	C188	C	0.174479	0.391990	0.878381
	C189	C	0.172314	0.613869	0.122659
	C190	C	0.811800	0.392452	0.125908
	C191	C	0.812118	0.612099	0.877870
	C192	C	0.399315	0.092583	0.598389
	C193	C	0.589090	0.913040	0.599129
	C194	C	0.590105	0.093294	0.405023
	C195	C	0.397061	0.911617	0.405262
	C196	C	0.587477	0.407649	0.092859
	C197	C	0.588281	0.598018	0.911613
	C198	C	0.397043	0.599559	0.094388
	C199	C	0.397292	0.405420	0.910470
	C200	C	0.085703	0.598899	0.407947
	C201	C	0.900362	0.597351	0.596034
	C202	C	0.084350	0.405715	0.596893
	C203	C	0.902528	0.404550	0.406897
	C204	C	0.898300	0.592216	0.098731
	C205	C	0.090705	0.411526	0.099602
	C206	C	0.090870	0.593185	0.904005
	C207	C	0.897884	0.412527	0.906027
	C208	C	0.088796	0.905765	0.593725
	C209	C	0.089746	0.098864	0.410460
	C210	C	0.899004	0.098461	0.593825
	C211	C	0.897856	0.905764	0.411259
	C212	C	0.584512	0.098642	0.909420
	C213	C	0.400828	0.100118	0.097839
	C214	C	0.585184	0.906065	0.097351
	C215	C	0.403362	0.905502	0.908363
	Zn216	Zn	0.494558	0.003021	0.754500
	Zn217	Zn	0.493222	0.002410	0.250817
	Zn218	Zn	0.743379	0.502149	0.001636
	Zn219	Zn	0.243772	0.502207	0.002200
	Zn220	Zn	-0.007570	0.752342	0.502012
	Zn221	Zn	-0.005574	0.251438	0.501945
	Zn222	Zn	-0.007164	0.501614	0.750898
	Zn223	Zn	-0.005517	0.502268	0.253592
	Zn224	Zn	0.494188	0.752346	0.002446
	Zn225	Zn	0.493130	0.252589	0.002832
	Zn226	Zn	0.744182	0.002645	0.502168
	Zn227	Zn	0.243046	0.002095	0.502132
	N228	N	0.406789	0.968259	0.684399
	N229	N	0.582845	0.037245	0.685562
	N230	N	0.581307	0.968061	0.319908
	N231	N	0.406126	0.037127	0.321047
	N232	N	0.673211	0.415691	0.966391
	N233	N	0.673643	0.588768	0.038161
	N234	N	0.314317	0.588183	0.966306
	N235	N	0.313420	0.416094	0.038220
	N236	N	0.958837	0.683191	0.414207
	N237	N	0.025808	0.684265	0.591377
	N238	N	0.958742	0.319646	0.590179
	N239	N	0.029396	0.320472	0.414069
	N240	N	0.957190	0.415024	0.681092
	N241	N	0.028531	0.586162	0.678744
	N242	N	0.958175	0.588018	0.323653
	N243	N	0.030419	0.415857	0.323352
	N244	N	0.405688	0.683362	0.967770
	N245	N	0.582991	0.684565	0.037125
	N246	N	0.581444	0.321230	0.967580
	N247	N	0.404818	0.321402	0.037446
	N248	N	0.673771	0.967704	0.414638
	N249	N	0.674409	0.038122	0.590128
	N250	N	0.313182	0.968011	0.590429
	N251	N	0.313400	0.037372	0.415024
	N252	N	0.905741	0.467157	0.184147
	N253	N	0.080542	0.538194	0.182362
	N254	N	0.080477	0.466774	0.820858
	N255	N	0.906317	0.537562	0.820935
	N256	N	0.172276	0.916165	0.465869
	N257	N	0.173033	0.088252	0.538246
	N258	N	0.816083	0.087106	0.465480
	N259	N	0.813033	0.915314	0.538279
	N260	N	0.458091	0.183666	0.915134
	N261	N	0.527416	0.185004	0.091494
	N262	N	0.459148	0.820561	0.090794
	N263	N	0.529912	0.820906	0.914345
	N264	N	0.456853	0.917492	0.179347
	N265	N	0.529614	0.087636	0.179574
	N266	N	0.457525	0.088290	0.824920
	N267	N	0.531261	0.916944	0.824877
	N268	N	0.907046	0.181901	0.466456
	N269	N	0.083062	0.183625	0.537005
	N270	N	0.080979	0.820893	0.467287
	N271	N	0.905052	0.821313	0.537887
	N272	N	0.174049	0.466784	0.914346
	N273	N	0.172485	0.538535	0.087674
	N274	N	0.813474	0.466747	0.089300
	N275	N	0.813805	0.538143	0.915000
	O276	O	0.307625	0.690815	0.338655
	H277	H	0.310775	0.699026	0.375514
	H278	H	0.341964	0.706798	0.336714
	O279	O	0.887979	0.115707	1.049036
	H280	H	0.872614	0.109967	1.056677
	H281	H	0.885148	0.118843	1.053807
	O282	O	0.472023	0.294359	0.699877
	H283	H	0.468470	0.260954	0.730963
	H284	H	0.478877	0.299276	0.676767
	O285	O	0.477528	0.453923	0.478574
	H286	H	0.485702	0.454749	0.495456
	H287	H	0.476677	0.463530	0.478111
	O288	O	1.113112	1.041604	-0.037758
	H289	H	1.114221	1.036170	-0.040784
	H290	H	1.106383	1.030082	-0.057618
	O291	O	0.289932	0.429433	0.449234
	H292	H	0.284120	0.426650	0.448984
	H293	H	0.286904	0.440495	0.420658
	O294	O	-0.193952	0.091673	1.119376
	H295	H	-0.192717	0.090542	1.108163
	H296	H	-0.203508	0.085416	1.132636
	O297	O	0.568467	0.723440	0.427580
	H298	H	0.550590	0.720810	0.408424
	H299	H	0.546362	0.732071	0.420813
	O300	O	0.467376	0.413972	0.564622
	H301	H	0.469852	0.405255	0.547599
	H302	H	0.454895	0.409639	0.578216
	O303	O	0.350476	0.328880	0.359580
	H304	H	0.343153	0.356266	0.369489
	H305	H	0.358425	0.329627	0.370686
	O306	O	0.483408	0.484486	0.395680
	H307	H	0.466118	0.489682	0.403671
	H308	H	0.473516	0.485852	0.410570
	O309	O	0.548414	0.425349	0.689353
	H310	H	0.538855	0.406116	0.683843
	H311	H	0.552570	0.419193	0.689544
	O312	O	0.103714	1.201077	0.989544
	H313	H	0.117541	1.199273	0.992287
	H314	H	0.099593	1.194641	0.989258
	O315	O	0.694606	0.618931	0.370826
	H316	H	0.693112	0.609966	0.382509
	H317	H	0.676101	0.609461	0.384492
	O318	O	1.180932	-0.187860	-0.190417
	H319	H	1.209426	-0.220433	-0.218704
	H320	H	1.126942	-0.196332	-0.198945
	O321	O	-0.053933	-0.029373	0.049403
	H322	H	-0.053693	-0.019824	0.045006
	H323	H	-0.046487	-0.026352	0.040257
	O324	O	0.681616	0.310436	0.315182
	H325	H	0.663484	0.328314	0.309377
	H326	H	0.656485	0.327040	0.306400
	O327	O	0.690723	0.409588	0.601091
	H328	H	0.681750	0.414903	0.611468
	H329	H	0.697023	0.385107	0.586963
	O330	O	-0.041563	0.945192	0.192495
	H331	H	-0.025044	0.937984	0.187809
	H332	H	-0.041607	0.946102	0.196283
	O333	O	0.881258	-0.031730	0.800996
	H334	H	0.850962	-0.024621	0.804110
	H335	H	0.884277	-0.017827	0.798110
	O336	O	-0.159342	0.021074	-0.191127
	H337	H	-0.158144	0.063909	-0.181052
	H338	H	-0.184713	0.025017	-0.205559
	O339	O	0.191818	0.838098	0.980111
	H340	H	0.195539	0.826422	0.959961
	H341	H	0.204835	0.835736	0.950690
	O342	O	0.198219	0.978858	0.799486
	H343	H	0.202501	0.957243	0.791724
	H344	H	0.212160	0.949719	0.791950
	O345	O	1.013214	1.139464	-0.103137
	H346	H	1.016898	1.150442	-0.104200
	H347	H	1.028010	1.124267	-0.090228
	O348	O	0.446099	0.728819	0.547035
	H349	H	0.434691	0.727170	0.536550
	H350	H	0.461800	0.734628	0.580665
	O351	O	0.153625	1.145172	1.051066
	H352	H	0.166681	1.147710	1.042609
	H353	H	0.135862	1.139854	1.067636
	O354	O	0.070128	0.843445	0.123400
	H355	H	0.065483	0.859225	0.124237
	H356	H	0.088422	0.839468	0.096728
	O357	O	-0.144686	0.194185	0.811029
	H358	H	-0.111936	0.200029	0.799620
	H359	H	-0.153786	0.198633	0.842193
	O360	O	0.508251	0.710890	0.718662
	H361	H	0.527417	0.730517	0.744053
	H362	H	0.521472	0.697263	0.725037
	O363	O	-0.064836	0.140990	0.986318
	H364	H	-0.072552	0.140182	0.989032
	H365	H	-0.056944	0.127389	0.982927
	O366	O	0.710800	0.473112	0.281735
	H367	H	0.746444	0.475965	0.265541
	H368	H	0.720192	0.482442	0.303316
	O369	O	0.566923	0.314446	0.563078
	H370	H	0.573715	0.315246	0.569765
	H371	H	0.576143	0.311886	0.543433
	O372	O	1.045457	-0.019249	1.051239
	H373	H	1.063936	-0.017521	1.052544
	H374	H	1.037739	-0.017797	1.052120
	O375	O	0.472667	0.492571	0.424430
	H376	H	0.490019	0.498309	0.418067
	H377	H	0.452195	0.491992	0.428940
	O378	O	0.674079	0.682107	0.682252
	H379	H	0.684718	0.679155	0.643052
	H380	H	0.670715	0.664137	0.679887
	O381	O	0.294667	0.719791	0.486687
	H382	H	0.274444	0.743636	0.484532
	H383	H	0.303080	0.701794	0.494809
	O384	O	0.718709	0.278998	0.475174
	H385	H	0.698883	0.287903	0.435035
	H386	H	0.756718	0.242135	0.471072
	O387	O	0.185711	0.112635	1.196892
	H388	H	0.198538	0.109692	1.194466
	H389	H	0.182412	0.104318	1.189449
	O390	O	-0.101184	-0.164842	-0.040764
	H391	H	-0.106155	-0.168396	-0.024929
	H392	H	-0.109600	-0.162044	-0.032039
	O393	O	1.281952	1.305401	0.708168
	H394	H	1.304291	1.287628	0.703657
	H395	H	1.272699	1.329434	0.701403
	O396	O	1.058872	0.203408	0.200204
	H397	H	1.047382	0.218936	0.213495
	H398	H	1.077687	0.191932	0.201314
	O399	O	0.979930	0.113918	0.942789
	H400	H	0.985196	0.111733	0.946364
	H401	H	0.962703	0.107174	0.928423
	O402	O	1.290544	0.706523	0.710761
	H403	H	1.309280	0.686808	0.706570
	H404	H	1.304566	0.686213	0.686177
	O405	O	1.065654	0.933130	0.191996
	H406	H	1.068672	0.919983	0.154425
	H407	H	1.074180	0.936829	0.206041
	O408	O	1.021386	-0.200811	-0.207175
	H409	H	0.995445	-0.179112	-0.214682
	H410	H	1.005976	-0.218124	-0.209089
	O411	O	0.959291	1.078815	-0.092090
	H412	H	0.961574	1.090797	-0.097215
	H413	H	0.980091	1.058755	-0.090994
	O414	O	0.508268	0.302672	0.291900
	H415	H	0.498436	0.292396	0.286754
	H416	H	0.488065	0.318241	0.282613
	O417	O	0.702132	0.705987	0.520015
	H418	H	0.714671	0.719872	0.515876
	H419	H	0.681098	0.713572	0.493193
	O420	O	0.534795	0.569591	0.278702
	H421	H	0.515988	0.545561	0.295928
	H422	H	0.565807	0.541733	0.271280
	O423	O	0.706804	0.520729	0.539464
	H424	H	0.702783	0.514034	0.562932
	H425	H	0.716529	0.511385	0.549279
	O426	O	0.446847	0.581180	0.643487
	H427	H	0.450657	0.583240	0.637918
	H428	H	0.474006	0.591802	0.655427
	O429	O	0.270116	0.551325	0.280864
	H430	H	0.231129	0.558129	0.242837
	H431	H	0.281565	0.599388	0.298726
	O432	O	0.269941	0.553896	0.556219
	H433	H	0.272284	0.537596	0.559873
	H434	H	0.265112	0.545042	0.555298
	O435	O	0.280531	0.474240	0.715966
	H436	H	0.274360	0.453014	0.723819
	H437	H	0.278363	0.484579	0.735452
	O438	O	-0.120751	-0.037652	0.006340
	H439	H	-0.118547	-0.043354	0.007029
	H440	H	-0.107172	-0.032995	-0.014070
	O441	O	0.798683	-0.178437	0.149060
	H442	H	0.776025	-0.194270	0.162789
	H443	H	0.830405	-0.175379	0.152165
	O444	O	-0.179445	0.874660	1.117836
	H445	H	-0.179606	0.868142	1.119471
	H446	H	-0.184532	0.886565	1.141576
	O447	O	0.657234	0.503952	0.712358
	H448	H	0.646392	0.485184	0.714434
	H449	H	0.679767	0.518653	0.728645
	O450	O	0.467929	0.722898	0.285638
	H451	H	0.461353	0.751066	0.243412
	H452	H	0.482925	0.678340	0.273851
	O453	O	0.293362	0.290452	0.549247
	H454	H	0.294666	0.276573	0.562968
	H455	H	0.288694	0.287643	0.529311
