data_Molecule from HDF5

_cell_length_a		16.328000
_cell_length_b		16.318548
_cell_length_c		16.368069
_cell_angle_alpha	89.809591
_cell_angle_beta	90.077546
_cell_angle_gamma	90.116890
_symmetry_space_group_name_H-M	'P 1'
_symmetry_Int_Tables_number		1

loop_
	_symmetry_equiv_pos_as_xyz
	x,y,z

loop_
	_atom_site_label
	_atom_site_type_symbol
	_atom_site_fract_x
	_atom_site_fract_y
	_atom_site_fract_z
	H0	H	0.403902	0.817530	0.702456
	H1	H	0.609836	0.140029	0.705127
	H2	H	0.607085	0.819416	0.268421
	H3	H	0.401655	0.140670	0.265520
	H4	H	0.723626	0.376498	0.825491
	H5	H	0.721576	0.582664	0.146101
	H6	H	0.285486	0.582054	0.824377
	H7	H	0.285310	0.377425	0.146835
	H8	H	0.843373	0.697612	0.385578
	H9	H	0.168765	0.696221	0.585002
	H10	H	0.845637	0.259656	0.589649
	H11	H	0.167783	0.263603	0.384295
	H12	H	0.843980	0.377623	0.703605
	H13	H	0.166282	0.583624	0.704467
	H14	H	0.843911	0.583430	0.268351
	H15	H	0.166277	0.377960	0.266230
	H16	H	0.401596	0.698151	0.823425
	H17	H	0.605205	0.698194	0.146365
	H18	H	0.605645	0.262547	0.824163
	H19	H	0.398590	0.258900	0.145445
	H20	H	0.725089	0.819771	0.381938
	H21	H	0.725804	0.140655	0.588401
	H22	H	0.289349	0.816974	0.586256
	H23	H	0.287936	0.141597	0.382560
	H24	H	0.896557	0.321976	0.209347
	H25	H	0.107521	0.643159	0.202288
	H26	H	0.108579	0.321072	0.766144
	H27	H	0.903021	0.643056	0.768381
	H28	H	0.223538	0.878256	0.324490
	H29	H	0.224144	0.079587	0.646705
	H30	H	0.785390	0.086285	0.326073
	H31	H	0.786006	0.875067	0.645735
	H32	H	0.342502	0.198402	0.880476
	H33	H	0.663655	0.201769	0.089835
	H34	H	0.342669	0.762546	0.086942
	H35	H	0.664965	0.761076	0.883101
	H36	H	0.344496	0.874892	0.205950
	H37	H	0.664399	0.085162	0.205061
	H38	H	0.344004	0.081261	0.764944
	H39	H	0.665809	0.875709	0.767029
	H40	H	0.899874	0.203865	0.327318
	H41	H	0.111744	0.199598	0.645876
	H42	H	0.107336	0.763558	0.324050
	H43	H	0.906174	0.763882	0.648043
	H44	H	0.223287	0.320874	0.882339
	H45	H	0.222310	0.642639	0.087408
	H46	H	0.783419	0.320156	0.089747
	H47	H	0.786107	0.641826	0.882281
	H48	H	0.416747	0.095453	0.578855
	H49	H	0.596063	0.864026	0.580454
	H50	H	0.594365	0.094166	0.394750
	H51	H	0.411758	0.865054	0.396691
	H52	H	0.596273	0.388585	0.100775
	H53	H	0.594409	0.570462	0.870903
	H54	H	0.416783	0.569472	0.098755
	H55	H	0.412342	0.387955	0.871127
	H56	H	0.123596	0.574530	0.384966
	H57	H	0.893111	0.568891	0.570913
	H58	H	0.119823	0.386792	0.570988
	H59	H	0.896291	0.393134	0.406581
	H60	H	0.117333	0.399274	0.576293
	H61	H	0.889417	0.568849	0.583800
	H62	H	0.120639	0.578859	0.399523
	H63	H	0.893112	0.399673	0.391691
	H64	H	0.414129	0.575341	0.100268
	H65	H	0.594008	0.572146	0.870419
	H66	H	0.593361	0.396145	0.097212
	H67	H	0.410501	0.391583	0.871334
	H68	H	0.595541	0.095572	0.396813
	H69	H	0.592394	0.867188	0.573667
	H70	H	0.419621	0.092550	0.573239
	H71	H	0.414632	0.863843	0.390898
	H72	H	0.912620	0.595605	0.076640
	H73	H	0.100583	0.364908	0.075576
	H74	H	0.093252	0.596214	0.892279
	H75	H	0.915316	0.366557	0.895734
	H76	H	0.093641	0.883633	0.601065
	H77	H	0.099564	0.065922	0.372173
	H78	H	0.920407	0.063583	0.596365
	H79	H	0.917324	0.887926	0.371575
	H80	H	0.619825	0.076882	0.897479
	H81	H	0.392171	0.063990	0.074636
	H82	H	0.618786	0.892423	0.078309
	H83	H	0.392875	0.895663	0.898459
	H84	H	0.620151	0.887684	0.077562
	H85	H	0.388184	0.070617	0.079326
	H86	H	0.615893	0.067177	0.900048
	H87	H	0.387427	0.891789	0.885194
	H88	H	0.920345	0.072596	0.599593
	H89	H	0.090255	0.072003	0.373626
	H90	H	0.103238	0.886964	0.603068
	H91	H	0.913308	0.889243	0.370703
	H92	H	0.093589	0.595534	0.896975
	H93	H	0.090001	0.365409	0.083699
	H94	H	0.916007	0.594399	0.076075
	H95	H	0.913015	0.365920	0.896324
	H96	H	0.412354	0.094324	0.573263
	H97	H	0.600433	0.864572	0.573119
	H98	H	0.596660	0.095352	0.394292
	H99	H	0.417648	0.866947	0.396124
	H100	H	0.587996	0.389829	0.098119
	H101	H	0.595341	0.571607	0.870123
	H102	H	0.410286	0.569646	0.101004
	H103	H	0.414773	0.391453	0.872366
	H104	H	0.117814	0.564544	0.395052
	H105	H	0.888061	0.580389	0.576228
	H106	H	0.122838	0.389430	0.583596
	H107	H	0.888581	0.384042	0.395088
	H108	H	0.913368	0.594532	0.073343
	H109	H	0.088796	0.370654	0.070591
	H110	H	0.097294	0.596955	0.894646
	H111	H	0.913597	0.365779	0.894064
	H112	H	0.096344	0.893433	0.598718
	H113	H	0.099023	0.076752	0.368421
	H114	H	0.912708	0.067627	0.600877
	H115	H	0.916089	0.892539	0.372215
	H116	H	0.620131	0.068934	0.890239
	H117	H	0.390014	0.071442	0.070560
	H118	H	0.618225	0.890025	0.073464
	H119	H	0.387595	0.882259	0.896262
	C120	C	0.385435	-0.012590	0.605887
	C121	C	0.627685	0.971392	0.606885
	C122	C	0.627007	-0.011004	0.364265
	C123	C	0.383690	0.971549	0.363248
	C124	C	0.624200	0.359769	-0.006858
	C125	C	0.625197	0.602235	0.976613
	C126	C	0.382629	0.601727	-0.006439
	C127	C	0.381113	0.358455	0.977352
	C128	C	0.014022	0.602892	0.363638
	C129	C	0.997289	0.602382	0.606765
	C130	C	0.014133	0.359393	0.608103
	C131	C	0.998197	0.360465	0.365423
	C132	C	0.881738	0.489348	0.107838
	C133	C	0.124613	0.473376	0.106851
	C134	C	0.125633	0.489937	0.864228
	C135	C	0.882796	0.472499	0.863921
	C136	C	0.127973	0.858034	0.494159
	C137	C	0.127736	0.101388	0.477410
	C138	C	0.885235	0.101353	0.493859
	C139	C	0.884825	0.858872	0.477714
	C140	C	0.512357	0.101670	0.863507
	C141	C	0.495743	0.101044	0.106510
	C142	C	0.512804	0.858713	0.107031
	C143	C	0.495852	0.858396	0.863285
	C144	C	0.384518	0.866023	0.663977
	C145	C	0.628987	0.092147	0.665957
	C146	C	0.627106	0.867809	0.306596
	C147	C	0.382998	0.092724	0.304907
	C148	C	0.683828	0.358104	0.873077
	C149	C	0.682955	0.602067	0.097864
	C150	C	0.324946	0.601223	0.872264
	C151	C	0.323725	0.358090	0.098316
	C152	C	0.892242	0.659702	0.365199
	C153	C	0.119794	0.658357	0.605351
	C154	C	0.893479	0.299690	0.608513
	C155	C	0.119131	0.302312	0.364612
	C156	C	0.892651	0.358388	0.665260
	C157	C	0.118622	0.602241	0.664695
	C158	C	0.892278	0.602945	0.306721
	C159	C	0.118240	0.359107	0.305529
	C160	C	0.382200	0.659446	0.872074
	C161	C	0.624811	0.659339	0.097979
	C162	C	0.625356	0.301082	0.872625
	C163	C	0.380743	0.299556	0.097906
	C164	C	0.685620	0.867992	0.363513
	C165	C	0.686333	0.092719	0.607708
	C166	C	0.327688	0.865903	0.605682
	C167	C	0.326443	0.093054	0.363104
	C168	C	0.879159	0.369602	0.168576
	C169	C	0.125934	0.594853	0.163639
	C170	C	0.126766	0.369019	0.805783
	C171	C	0.883014	0.594176	0.806289
	C172	C	0.184906	0.858832	0.372827
	C173	C	0.186303	0.100759	0.598140
	C174	C	0.825043	0.104495	0.374180
	C175	C	0.826199	0.857397	0.598211
	C176	C	0.391068	0.159219	0.861957
	C177	C	0.615853	0.161814	0.108462
	C178	C	0.391431	0.800801	0.106957
	C179	C	0.616979	0.800297	0.863877
	C180	C	0.392376	0.856775	0.166217
	C181	C	0.616288	0.103819	0.166041
	C182	C	0.391794	0.100978	0.804359
	C183	C	0.617524	0.857408	0.806036
	C184	C	0.882022	0.163091	0.374784
	C185	C	0.129897	0.159969	0.597912
	C186	C	0.126921	0.801875	0.372510
	C187	C	0.885430	0.801397	0.599105
	C188	C	0.183976	0.368975	0.863755
	C189	C	0.183479	0.594378	0.106712
	C190	C	0.822370	0.368529	0.109377
	C191	C	0.825022	0.593714	0.863342
	C192	C	0.409426	0.072114	0.582035
	C193	C	0.603373	0.887164	0.582692
	C194	C	0.602690	0.073130	0.388132
	C195	C	0.407730	0.887168	0.387330
	C196	C	0.599517	0.384244	0.076770
	C197	C	0.601384	0.578496	0.892420
	C198	C	0.406689	0.578264	0.077907
	C199	C	0.405460	0.383147	0.893316
	C200	C	0.098751	0.579386	0.386377
	C201	C	0.912409	0.579333	0.583613
	C202	C	0.098254	0.384394	0.584125
	C203	C	0.914420	0.385175	0.390440
	C204	C	0.906744	0.573190	0.082485
	C205	C	0.100226	0.388953	0.083405
	C206	C	0.101721	0.574357	0.887858
	C207	C	0.906902	0.388156	0.888351
	C208	C	0.104569	0.881229	0.578808
	C209	C	0.103258	0.078192	0.393201
	C210	C	0.910555	0.075558	0.577291
	C211	C	0.908633	0.883000	0.393317
	C212	C	0.596710	0.077916	0.888569
	C213	C	0.411925	0.075820	0.081983
	C214	C	0.597177	0.883028	0.083133
	C215	C	0.411448	0.882727	0.886537
	Zn216	Zn	0.505438	-0.020699	0.735049
	Zn217	Zn	0.504631	-0.020044	0.235501
	Zn218	Zn	0.754094	0.481053	-0.015295
	Zn219	Zn	0.253140	0.481218	-0.013617
	Zn220	Zn	0.005964	0.730868	0.485932
	Zn221	Zn	0.006678	0.230380	0.486478
	Zn222	Zn	0.004445	0.481246	0.736038
	Zn223	Zn	0.005124	0.481878	0.235510
	Zn224	Zn	0.503588	0.730879	-0.015067
	Zn225	Zn	0.502956	0.230067	-0.014979
	Zn226	Zn	0.756194	-0.019988	0.485468
	Zn227	Zn	0.256418	-0.020151	0.485279
	N228	N	0.419826	0.942529	0.663972
	N229	N	0.593283	0.015869	0.665497
	N230	N	0.591317	0.944054	0.306910
	N231	N	0.417936	0.016204	0.304950
	N232	N	0.683537	0.393702	0.949139
	N233	N	0.683285	0.567340	0.021355
	N234	N	0.324886	0.566503	0.948926
	N235	N	0.323931	0.394065	0.022294
	N236	N	0.969014	0.659997	0.399837
	N237	N	0.043439	0.658373	0.570057
	N238	N	0.970175	0.300011	0.573820
	N239	N	0.043489	0.302900	0.400930
	N240	N	0.968761	0.394724	0.665201
	N241	N	0.041366	0.568367	0.665900
	N242	N	0.968884	0.568491	0.305731
	N243	N	0.041750	0.394513	0.305903
	N244	N	0.417622	0.659851	0.948335
	N245	N	0.589600	0.659601	0.021680
	N246	N	0.589106	0.301847	0.948327
	N247	N	0.415361	0.299350	0.021384
	N248	N	0.685899	0.944446	0.398430
	N249	N	0.685623	0.016574	0.571738
	N250	N	0.328131	0.942530	0.570215
	N251	N	0.326679	0.016504	0.398533
	N252	N	0.915357	0.445679	0.167687
	N253	N	0.090165	0.518621	0.163985
	N254	N	0.091167	0.445242	0.805866
	N255	N	0.918208	0.517751	0.806585
	N256	N	0.185819	0.892904	0.449571
	N257	N	0.184992	0.065157	0.522271
	N258	N	0.826898	0.066663	0.449335
	N259	N	0.825806	0.892444	0.521659
	N260	N	0.467212	0.159760	0.897835
	N261	N	0.539993	0.160103	0.072065
	N262	N	0.467330	0.801775	0.070935
	N263	N	0.540519	0.800898	0.898661
	N264	N	0.468984	0.891956	0.166496
	N265	N	0.540607	0.066705	0.164941
	N266	N	0.468488	0.066277	0.804940
	N267	N	0.541173	0.892907	0.805647
	N268	N	0.918992	0.161038	0.450109
	N269	N	0.094138	0.160545	0.521731
	N270	N	0.092406	0.801096	0.449034
	N271	N	0.921024	0.802135	0.523094
	N272	N	0.183277	0.445064	0.899467
	N273	N	0.182880	0.517706	0.072071
	N274	N	0.823922	0.444164	0.072100
	N275	N	0.824572	0.516886	0.898308
	O276	O	0.685023	0.443338	0.551691
	H277	H	0.692651	0.446823	0.562645
	H278	H	0.677573	0.441522	0.557138
	O279	O	0.590500	0.514039	0.519161
	H280	H	0.586579	0.518279	0.528298
	H281	H	0.581189	0.514145	0.531615
	O282	O	0.849704	0.173759	0.896496
	H283	H	0.854541	0.167211	0.912743
	H284	H	0.834856	0.187836	0.895269
	O285	O	0.345437	0.421739	0.466212
	H286	H	0.353872	0.424711	0.453414
	H287	H	0.337261	0.419588	0.465097
	O288	O	0.502669	1.612544	1.530071
	H289	H	0.508612	1.624862	1.541732
	H290	H	0.496043	1.624871	1.533477
	O291	O	-0.182609	0.852229	-0.044782
	H292	H	-0.198451	0.826141	-0.043370
	H293	H	-0.182624	0.851674	-0.026516
	O294	O	0.560964	0.567587	0.347354
	H295	H	0.560708	0.564572	0.346953
	H296	H	0.559248	0.573601	0.353747
	O297	O	0.375545	0.501368	0.488443
	H298	H	0.376847	0.504223	0.484957
	H299	H	0.379033	0.505408	0.492111
	O300	O	0.594410	0.312453	0.299838
	H301	H	0.615296	0.324926	0.307374
	H302	H	0.595732	0.294394	0.285177
	O303	O	0.047116	0.935309	0.844436
	H304	H	0.040848	0.933574	0.828525
	H305	H	0.045117	0.949040	0.858413
	O306	O	0.612351	0.569313	0.402469
	H307	H	0.609824	0.579562	0.397552
	H308	H	0.609997	0.559288	0.390656
	O309	O	0.977867	0.973797	-0.171093
	H310	H	0.976682	0.986506	-0.178240
	H311	H	0.967462	0.971276	-0.176579
	O312	O	0.030306	0.090070	-0.204426
	H313	H	-0.002126	0.081618	-0.192619
	H314	H	0.026259	0.103197	-0.230171
	O315	O	0.467582	0.483128	0.464950
	H316	H	0.451925	0.488889	0.446424
	H317	H	0.474086	0.472443	0.458642
	O318	O	0.150631	0.962382	1.148934
	H319	H	0.158850	0.954424	1.137962
	H320	H	0.147257	0.952349	1.156859
	O321	O	0.602540	0.542669	0.542768
	H322	H	0.603758	0.538532	0.544095
	H323	H	0.598993	0.547895	0.557423
	O324	O	0.188093	0.950039	0.137261
	H325	H	0.196032	0.947606	0.134966
	H326	H	0.189869	0.930469	0.119792
	O327	O	0.621142	0.614445	0.534607
	H328	H	0.614730	0.618781	0.535403
	H329	H	0.618175	0.611072	0.520279
	O330	O	0.175655	-0.079141	0.971194
	H331	H	0.172904	-0.074183	0.972105
	H332	H	0.170792	-0.077153	0.965228
	O333	O	-0.425985	-0.536453	1.536704
	H334	H	-0.441557	-0.561631	1.547669
	H335	H	-0.428185	-0.531373	1.534552
	O336	O	0.001286	1.056999	1.187166
	H337	H	0.016156	1.045963	1.195242
	H338	H	-0.000355	1.054744	1.181631
	O339	O	0.971301	-0.028931	-0.009409
	H340	H	0.963488	-0.021969	0.001632
	H341	H	0.979336	-0.012170	-0.017976
	O342	O	-0.015492	-0.184912	-0.071474
	H343	H	-0.018151	-0.190993	-0.073901
	H344	H	-0.020845	-0.172565	-0.060865
	O345	O	0.887540	-0.101252	0.852403
	H346	H	0.901801	-0.107470	0.854216
	H347	H	0.885470	-0.110887	0.867530
	O348	O	0.527902	1.466013	0.461199
	H349	H	0.527318	1.460612	0.463252
	H350	H	0.524273	1.455907	0.468606
	O351	O	0.411376	0.535887	0.404246
	H352	H	0.410551	0.541455	0.404437
	H353	H	0.425757	0.523976	0.410234
	O354	O	0.798985	0.006486	1.011372
	H355	H	0.789372	0.004336	1.018081
	H356	H	0.803644	0.004162	1.006713
	O357	O	0.479889	0.436187	0.540855
	H358	H	0.473064	0.446442	0.553221
	H359	H	0.486649	0.430636	0.548652
	O360	O	0.566987	0.453979	0.591953
	H361	H	0.552569	0.455776	0.586692
	H362	H	0.558965	0.440895	0.614260
	O363	O	0.302199	1.173160	0.715964
	H364	H	0.280125	1.178114	0.706774
	H365	H	0.302168	1.172538	0.714050
	O366	O	0.507897	0.408022	0.487675
	H367	H	0.514909	0.397735	0.495043
	H368	H	0.505658	0.412360	0.478833
	O369	O	0.185984	1.184570	0.003394
	H370	H	0.184942	1.177727	0.036635
	H371	H	0.198872	1.210070	0.004021
	O372	O	-0.059695	0.095627	0.040900
	H373	H	-0.075827	0.083650	0.040964
	H374	H	-0.041403	0.093649	0.008687
	O375	O	0.386802	0.457456	0.462086
	H376	H	0.383832	0.453003	0.444913
	H377	H	0.389389	0.449970	0.447719
	O378	O	0.859440	1.021202	0.179857
	H379	H	0.851125	1.016984	0.185988
	H380	H	0.871938	1.025567	0.184275
	O381	O	1.040047	-0.132038	-0.088934
	H382	H	1.060100	-0.134610	-0.097113
	H383	H	1.026305	-0.127898	-0.095999
	O384	O	1.170250	1.164331	0.142186
	H385	H	1.175625	1.134599	0.156016
	H386	H	1.143039	1.175979	0.145888
	O387	O	-0.035176	0.055595	-0.136816
	H388	H	-0.044245	0.042803	-0.145176
	H389	H	-0.034430	0.054027	-0.113557
	O390	O	-0.075526	0.783865	0.182235
	H391	H	-0.081913	0.759261	0.203007
	H392	H	-0.077654	0.800023	0.171037
	O393	O	0.986921	1.178660	1.108870
	H394	H	0.975186	1.177433	1.108858
	H395	H	0.992924	1.186835	1.116981
	O396	O	0.507681	0.438609	1.547748
	H397	H	0.509044	0.449952	1.549503
	H398	H	0.504927	0.427640	1.547358
	O399	O	0.010883	0.995841	0.829771
	H400	H	0.002693	1.001608	0.833096
	H401	H	0.013968	0.997998	0.834577
	O402	O	0.576550	0.411417	0.429865
	H403	H	0.586504	0.415891	0.440107
	H404	H	0.577801	0.420545	0.424314
	O405	O	1.375037	0.418032	0.451345
	H406	H	1.378375	0.424215	0.433321
	H407	H	1.381423	0.412964	0.444868
	O408	O	1.021283	0.956437	-0.091284
	H409	H	1.018317	0.984600	-0.081698
	H410	H	1.030150	0.952006	-0.087220
	O411	O	0.825743	-0.139093	1.169911
	H412	H	0.846838	-0.132490	1.161499
	H413	H	0.818744	-0.111535	1.174848
	O414	O	0.425495	0.453908	0.605248
	H415	H	0.432524	0.451774	0.609288
	H416	H	0.421741	0.463547	0.607133
	O417	O	1.012392	1.032604	1.051522
	H418	H	1.019259	1.039195	1.042666
	H419	H	1.017032	1.035186	1.044140
