data_Molecule from HDF5

_cell_length_a		16.301280
_cell_length_b		16.245903
_cell_length_c		16.291698
_cell_angle_alpha	89.925736
_cell_angle_beta	90.034038
_cell_angle_gamma	90.738990
_symmetry_space_group_name_H-M	'P 1'
_symmetry_Int_Tables_number		1

loop_
	_symmetry_equiv_pos_as_xyz
	x,y,z

loop_
	_atom_site_label
	_atom_site_type_symbol
	_atom_site_fract_x
	_atom_site_fract_y
	_atom_site_fract_z
	H0	H	0.387590	0.841870	0.718437
	H1	H	0.592931	0.168296	0.710645
	H2	H	0.591220	0.840711	0.281840
	H3	H	0.394433	0.168315	0.285385
	H4	H	0.707565	0.407419	0.835606
	H5	H	0.715306	0.608844	0.160795
	H6	H	0.278570	0.604480	0.836443
	H7	H	0.277326	0.400152	0.161358
	H8	H	0.828683	0.711997	0.398596
	H9	H	0.154744	0.721085	0.599716
	H10	H	0.828978	0.284520	0.597790
	H11	H	0.156516	0.288090	0.402651
	H12	H	0.830710	0.397571	0.717436
	H13	H	0.158369	0.601272	0.712900
	H14	H	0.831783	0.598487	0.281172
	H15	H	0.155063	0.398704	0.281895
	H16	H	0.396667	0.720948	0.836208
	H17	H	0.600128	0.723517	0.160336
	H18	H	0.593573	0.291163	0.836048
	H19	H	0.393413	0.286895	0.161591
	H20	H	0.703976	0.838108	0.399371
	H21	H	0.712736	0.164387	0.599845
	H22	H	0.275372	0.839080	0.599469
	H23	H	0.277483	0.166399	0.400375
	H24	H	0.892018	0.337957	0.212955
	H25	H	0.097696	0.663592	0.217426
	H26	H	0.092521	0.337621	0.786304
	H27	H	0.898156	0.664672	0.782205
	H28	H	0.207960	0.901399	0.337009
	H29	H	0.209052	0.102309	0.662619
	H30	H	0.779705	0.098248	0.335826
	H31	H	0.774489	0.899083	0.662801
	H32	H	0.330860	0.218975	0.899888
	H33	H	0.658282	0.220587	0.096778
	H34	H	0.334210	0.783388	0.100902
	H35	H	0.658426	0.792691	0.897452
	H36	H	0.330495	0.903225	0.212689
	H37	H	0.655860	0.109474	0.217643
	H38	H	0.330718	0.104575	0.782186
	H39	H	0.655292	0.907562	0.780203
	H40	H	0.893722	0.215381	0.336420
	H41	H	0.091424	0.215096	0.664422
	H42	H	0.090096	0.786520	0.336660
	H43	H	0.890457	0.783515	0.663159
	H44	H	0.208822	0.338887	0.900226
	H45	H	0.212244	0.665050	0.099930
	H46	H	0.772823	0.341703	0.100059
	H47	H	0.783067	0.667340	0.897774
	H48	H	0.410854	0.117773	0.591939
	H49	H	0.581326	0.885987	0.593332
	H50	H	0.590799	0.116507	0.419882
	H51	H	0.398456	0.887705	0.409468
	H52	H	0.586453	0.408107	0.116533
	H53	H	0.595257	0.589387	0.883924
	H54	H	0.407086	0.586837	0.110203
	H55	H	0.403728	0.410550	0.883691
	H56	H	0.110082	0.600214	0.409544
	H57	H	0.879468	0.581371	0.596778
	H58	H	0.109155	0.414823	0.599937
	H59	H	0.873468	0.404668	0.397365
	H60	H	0.112364	0.399743	0.596592
	H61	H	0.874462	0.596015	0.597161
	H62	H	0.105624	0.590721	0.414305
	H63	H	0.877294	0.399823	0.413647
	H64	H	0.410303	0.599175	0.114255
	H65	H	0.578188	0.599399	0.886090
	H66	H	0.589918	0.417700	0.114645
	H67	H	0.399349	0.410468	0.882139
	H68	H	0.595206	0.124062	0.400272
	H69	H	0.579062	0.887746	0.591347
	H70	H	0.395813	0.118560	0.581381
	H71	H	0.395564	0.886450	0.404415
	H72	H	0.907720	0.618355	0.091422
	H73	H	0.089140	0.384414	0.092050
	H74	H	0.085186	0.621060	0.895193
	H75	H	0.900317	0.388497	0.917717
	H76	H	0.084048	0.907683	0.616606
	H77	H	0.080958	0.093103	0.385639
	H78	H	0.900741	0.098357	0.617904
	H79	H	0.893916	0.904813	0.381990
	H80	H	0.610239	0.103794	0.908611
	H81	H	0.379830	0.092744	0.091257
	H82	H	0.608296	0.917641	0.087930
	H83	H	0.377680	0.909450	0.906870
	H84	H	0.611947	0.918946	0.097209
	H85	H	0.376192	0.097148	0.096562
	H86	H	0.607630	0.093387	0.906723
	H87	H	0.379810	0.910930	0.912895
	H88	H	0.895492	0.089123	0.615832
	H89	H	0.084979	0.099030	0.382744
	H90	H	0.084003	0.914983	0.614311
	H91	H	0.897157	0.909901	0.384310
	H92	H	0.080300	0.614020	0.914102
	H93	H	0.083214	0.385175	0.093379
	H94	H	0.906650	0.618492	0.089230
	H95	H	0.889876	0.382582	0.905041
	H96	H	0.395279	0.123224	0.599103
	H97	H	0.581986	0.886651	0.590030
	H98	H	0.575365	0.116433	0.405022
	H99	H	0.401559	0.887630	0.404796
	H100	H	0.579868	0.414952	0.113340
	H101	H	0.594026	0.609182	0.877664
	H102	H	0.398105	0.594125	0.116470
	H103	H	0.401330	0.414235	0.883250
	H104	H	0.109052	0.590885	0.404196
	H105	H	0.880304	0.590267	0.583891
	H106	H	0.106462	0.409221	0.585143
	H107	H	0.880859	0.416180	0.409058
	H108	H	0.905325	0.618642	0.091656
	H109	H	0.084445	0.386323	0.088086
	H110	H	0.099609	0.620453	0.909624
	H111	H	0.906474	0.386116	0.902296
	H112	H	0.078193	0.910900	0.613504
	H113	H	0.088458	0.092282	0.384013
	H114	H	0.905902	0.089561	0.614035
	H115	H	0.900440	0.904169	0.383173
	H116	H	0.611393	0.099130	0.899200
	H117	H	0.377529	0.099782	0.090033
	H118	H	0.612330	0.910027	0.092550
	H119	H	0.379982	0.914798	0.908875
	C120	C	0.370093	0.011981	0.621242
	C121	C	0.613012	0.994613	0.620338
	C122	C	0.614327	0.011097	0.378160
	C123	C	0.370245	0.995280	0.377574
	C124	C	0.614498	0.384752	0.007232
	C125	C	0.619455	0.628653	0.990014
	C126	C	0.375434	0.623997	0.006881
	C127	C	0.372420	0.381733	0.990586
	C128	C	0.001097	0.621627	0.378740
	C129	C	0.985111	0.621621	0.622160
	C130	C	0.001491	0.377939	0.622480
	C131	C	0.984597	0.378512	0.378048
	C132	C	0.873866	0.511227	0.120157
	C133	C	0.116301	0.492799	0.121255
	C134	C	0.116754	0.510265	0.877963
	C135	C	0.872451	0.494006	0.878063
	C136	C	0.111539	0.881503	0.507566
	C137	C	0.114550	0.123889	0.491634
	C138	C	0.871898	0.121371	0.507912
	C139	C	0.868154	0.877200	0.491425
	C140	C	0.501714	0.126729	0.876960
	C141	C	0.485559	0.127194	0.121441
	C142	C	0.503263	0.883778	0.121251
	C143	C	0.486164	0.883836	0.878587
	C144	C	0.369041	0.889920	0.679072
	C145	C	0.612828	0.118373	0.673988
	C146	C	0.611207	0.889022	0.320732
	C147	C	0.373782	0.118762	0.322663
	C148	C	0.669939	0.387041	0.884551
	C149	C	0.676679	0.627996	0.111873
	C150	C	0.317766	0.623998	0.884804
	C151	C	0.315855	0.381584	0.112766
	C152	C	0.878044	0.675177	0.379346
	C153	C	0.106846	0.681050	0.620103
	C154	C	0.878147	0.322274	0.619234
	C155	C	0.107499	0.324618	0.381166
	C156	C	0.879159	0.378697	0.678418
	C157	C	0.108526	0.621584	0.676477
	C158	C	0.879548	0.618727	0.320453
	C159	C	0.106797	0.379674	0.321161
	C160	C	0.376676	0.681613	0.884686
	C161	C	0.619384	0.685262	0.111965
	C162	C	0.612812	0.329358	0.884572
	C163	C	0.373835	0.325158	0.112921
	C164	C	0.667115	0.887559	0.379300
	C165	C	0.672575	0.116315	0.618905
	C166	C	0.313213	0.888633	0.619917
	C167	C	0.315353	0.117785	0.379685
	C168	C	0.872687	0.387472	0.175445
	C169	C	0.116705	0.615453	0.178230
	C170	C	0.113460	0.386864	0.823561
	C171	C	0.877002	0.616486	0.820992
	C172	C	0.168836	0.881963	0.385506
	C173	C	0.170948	0.122568	0.614100
	C174	C	0.817104	0.118617	0.384821
	C175	C	0.812364	0.878932	0.613955
	C176	C	0.379342	0.181051	0.879687
	C177	C	0.608725	0.183263	0.118190
	C178	C	0.382053	0.823558	0.120304
	C179	C	0.609096	0.829944	0.878410
	C180	C	0.380167	0.883249	0.175947
	C181	C	0.607757	0.127562	0.178005
	C182	C	0.379366	0.124483	0.820880
	C183	C	0.607714	0.886835	0.820016
	C184	C	0.873801	0.177117	0.385031
	C185	C	0.112408	0.178614	0.614856
	C186	C	0.109889	0.825129	0.385165
	C187	C	0.869865	0.821111	0.614083
	C188	C	0.171307	0.387732	0.880256
	C189	C	0.173612	0.616006	0.120007
	C190	C	0.813535	0.389357	0.119214
	C191	C	0.820079	0.617853	0.878587
	C192	C	0.393802	0.097633	0.597692
	C193	C	0.588029	0.908858	0.598035
	C194	C	0.593311	0.096771	0.401688
	C195	C	0.391996	0.909525	0.399813
	C196	C	0.592083	0.407137	0.092780
	C197	C	0.595945	0.606051	0.904682
	C198	C	0.398501	0.600305	0.091662
	C199	C	0.394940	0.404877	0.905101
	C200	C	0.086364	0.600261	0.402351
	C201	C	0.899985	0.596376	0.599307
	C202	C	0.087219	0.401236	0.600385
	C203	C	0.899380	0.400347	0.400266
	C204	C	0.899324	0.596277	0.097516
	C205	C	0.092543	0.407553	0.098122
	C206	C	0.094773	0.596446	0.899904
	C207	C	0.892892	0.408067	0.901456
	C208	C	0.088718	0.904448	0.592740
	C209	C	0.091615	0.101385	0.406128
	C210	C	0.894243	0.099145	0.593710
	C211	C	0.890546	0.899656	0.405426
	C212	C	0.587465	0.105278	0.898427
	C213	C	0.399909	0.103577	0.099128
	C214	C	0.588669	0.908417	0.099146
	C215	C	0.401219	0.905527	0.902605
	Zn216	Zn	0.492090	0.004479	0.748640
	Zn217	Zn	0.493158	0.005123	0.249918
	Zn218	Zn	0.744735	0.504783	-0.001045
	Zn219	Zn	0.244165	0.502403	-0.000571
	Zn220	Zn	-0.009092	0.750455	0.500079
	Zn221	Zn	-0.007348	0.250576	0.499906
	Zn222	Zn	-0.005433	0.500245	0.750988
	Zn223	Zn	-0.005541	0.500387	0.249576
	Zn224	Zn	0.496961	0.754875	-0.000529
	Zn225	Zn	0.494419	0.255102	-0.001182
	Zn226	Zn	0.742226	0.000876	0.499402
	Zn227	Zn	0.242161	0.002210	0.499645
	N228	N	0.403721	0.967490	0.680001
	N229	N	0.576458	0.041449	0.675103
	N230	N	0.578966	0.966972	0.319908
	N231	N	0.407032	0.041338	0.320936
	N232	N	0.671039	0.420910	0.961765
	N233	N	0.676910	0.593508	0.034835
	N234	N	0.316760	0.588831	0.961771
	N235	N	0.314976	0.416148	0.035711
	N236	N	0.954552	0.677023	0.414968
	N237	N	0.029082	0.681285	0.587278
	N238	N	0.955240	0.321684	0.585230
	N239	N	0.030413	0.323491	0.415537
	N240	N	0.956922	0.412516	0.680653
	N241	N	0.031696	0.585411	0.677806
	N242	N	0.957146	0.586407	0.319746
	N243	N	0.029660	0.412721	0.319189
	N244	N	0.411786	0.681849	0.961463
	N245	N	0.584545	0.685769	0.035187
	N246	N	0.578916	0.328042	0.961870
	N247	N	0.408196	0.324914	0.035899
	N248	N	0.669411	0.964625	0.414181
	N249	N	0.672535	0.038300	0.586038
	N250	N	0.313830	0.965659	0.584723
	N251	N	0.312985	0.039922	0.412834
	N252	N	0.909569	0.464249	0.176236
	N253	N	0.081911	0.537805	0.179435
	N254	N	0.080371	0.464278	0.821781
	N255	N	0.908699	0.538417	0.820374
	N256	N	0.170219	0.916189	0.462754
	N257	N	0.172359	0.089194	0.536613
	N258	N	0.815919	0.084742	0.462246
	N259	N	0.811192	0.912941	0.536507
	N260	N	0.456404	0.182749	0.913562
	N261	N	0.531570	0.183217	0.083742
	N262	N	0.459689	0.823554	0.087085
	N263	N	0.532547	0.827873	0.913935
	N264	N	0.456592	0.919943	0.176596
	N265	N	0.530178	0.093390	0.180137
	N266	N	0.456610	0.091390	0.819099
	N267	N	0.530359	0.919728	0.819888
	N268	N	0.907161	0.178855	0.462570
	N269	N	0.078003	0.179552	0.537640
	N270	N	0.075009	0.824741	0.462047
	N271	N	0.903456	0.819734	0.536729
	N272	N	0.173329	0.465731	0.913309
	N273	N	0.173600	0.538826	0.085602
	N274	N	0.814092	0.467006	0.085692
	N275	N	0.817017	0.540723	0.913286
	O276	O	1.093189	0.128278	1.026086
	H277	H	1.095070	0.111964	1.026311
	H278	H	1.095532	0.128553	1.017817
	O279	O	0.579669	0.492591	0.391205
	H280	H	0.572109	0.486740	0.381368
	H281	H	0.581626	0.497499	0.388493
	O282	O	0.420862	0.483033	0.413911
	H283	H	0.410027	0.487878	0.410710
	H284	H	0.413916	0.480050	0.417196
	O285	O	0.441170	0.482676	0.491161
	H286	H	0.462143	0.472120	0.494020
	H287	H	0.439376	0.489287	0.491395
	O288	O	0.525052	0.373266	0.468627
	H289	H	0.532898	0.388069	0.478855
	H290	H	0.524672	0.370411	0.462776
	O291	O	-0.105756	0.142575	0.895166
	H292	H	-0.100801	0.151637	0.902888
	H293	H	-0.094986	0.146565	0.893039
	O294	O	1.020328	0.978586	0.124307
	H295	H	1.029332	0.982672	0.132280
	H296	H	1.017107	0.973316	0.131458
	O297	O	0.946388	0.973356	0.123158
	H298	H	0.947245	0.985052	0.126307
	H299	H	0.958548	0.979067	0.127784
	O300	O	0.618875	0.542124	0.631506
	H301	H	0.619053	0.541783	0.633239
	H302	H	0.616837	0.537291	0.628840
	O303	O	0.519853	0.682438	0.460638
	H304	H	0.514787	0.675859	0.458683
	H305	H	0.531818	0.689555	0.454477
	O306	O	0.391395	0.478789	0.469792
	H307	H	0.383399	0.490073	0.465758
	H308	H	0.384182	0.491379	0.472254
	O309	O	0.530336	0.394161	0.419393
	H310	H	0.540369	0.383675	0.437779
	H311	H	0.538995	0.391054	0.422776
	O312	O	0.865361	0.999767	0.981936
	H313	H	0.866521	1.005228	0.987124
	H314	H	0.864041	1.002667	0.986780
	O315	O	0.980649	0.961086	-0.053477
	H316	H	0.981360	0.968613	-0.053434
	H317	H	0.973484	0.972281	-0.063705
	O318	O	0.485808	0.597989	0.543737
	H319	H	0.484644	0.596606	0.546489
	H320	H	0.484573	0.589390	0.541654
	O321	O	0.573210	0.449119	0.569122
	H322	H	0.560265	0.446555	0.572241
	H323	H	0.567981	0.451208	0.578713
	O324	O	0.042178	0.867329	0.945565
	H325	H	0.030495	0.860674	0.951841
	H326	H	0.035796	0.855279	0.947619
	O327	O	0.086975	1.029195	0.895891
	H328	H	0.095900	1.019315	0.897532
	H329	H	0.077686	1.022907	0.897484
	O330	O	0.016361	-0.050192	0.067751
	H331	H	0.011262	-0.052826	0.066887
	H332	H	0.012154	-0.051203	0.072102
	O333	O	0.378973	0.504614	0.478037
	H334	H	0.377125	0.499260	0.473673
	H335	H	0.373668	0.494488	0.470598
	O336	O	0.108337	0.059149	0.069303
	H337	H	0.116168	0.055046	0.068935
	H338	H	0.112899	0.051304	0.065999
	O339	O	-0.070963	-0.075523	0.128491
	H340	H	-0.066500	-0.070305	0.134846
	H341	H	-0.077893	-0.082352	0.120735
	O342	O	0.373492	0.478753	0.419686
	H343	H	0.375316	0.490770	0.427368
	H344	H	0.388209	0.469559	0.415964
	O345	O	-0.034186	0.977016	1.008577
	H346	H	-0.048759	0.972475	1.018366
	H347	H	-0.028414	0.982990	1.003122
	O348	O	0.589759	0.682343	0.528965
	H349	H	0.592023	0.696181	0.531509
	H350	H	0.595926	0.684839	0.524513
	O351	O	0.548366	0.394083	0.514946
	H352	H	0.552735	0.380151	0.521815
	H353	H	0.531766	0.394936	0.517327
	O354	O	0.120856	0.953360	-0.094055
	H355	H	0.123572	0.940989	-0.103859
	H356	H	0.122046	0.944778	-0.096211
	O357	O	0.455598	0.635455	0.429584
	H358	H	0.459794	0.634941	0.428785
	H359	H	0.460515	0.645028	0.437361
	O360	O	1.042802	-0.038971	0.979509
	H361	H	1.049032	-0.046488	0.982566
	H362	H	1.044786	-0.031619	0.962622
	O363	O	0.518440	0.489233	0.343384
	H364	H	0.510863	0.487894	0.330291
	H365	H	0.519489	0.481755	0.333574
	O366	O	0.423979	0.527244	0.577120
	H367	H	0.414433	0.533690	0.571082
	H368	H	0.416143	0.524906	0.582267
	O369	O	1.006612	0.088924	0.148744
	H370	H	1.001035	0.093957	0.139676
	H371	H	1.014650	0.099136	0.153534
	O372	O	0.481909	0.496422	0.561190
	H373	H	0.491119	0.498963	0.556414
	H374	H	0.485664	0.496921	0.551511
	O375	O	1.028097	-0.019047	0.974985
	H376	H	1.033118	-0.020286	0.988263
	H377	H	1.016004	-0.012556	0.972388
	O378	O	0.073439	1.075141	-0.064782
	H379	H	0.087918	1.082492	-0.059439
	H380	H	0.074123	1.055037	-0.064980
	O381	O	0.444224	0.532365	0.623557
	H382	H	0.447056	0.540516	0.620162
	H383	H	0.451972	0.529284	0.618654
	O384	O	1.257843	0.721022	0.218134
	H385	H	1.273384	0.717603	0.217303
	H386	H	1.254812	0.723910	0.224367
	O387	O	0.886022	0.096464	0.901174
	H388	H	0.882537	0.088829	0.908212
	H389	H	0.876055	0.099562	0.892912
	O390	O	0.868005	0.919934	-0.065476
	H391	H	0.858644	0.924800	-0.071176
	H392	H	0.878248	0.938027	-0.058688
	O393	O	0.608547	0.479376	0.583492
	H394	H	0.604122	0.479283	0.589292
	H395	H	0.612250	0.495901	0.604427
