data_Molecule from HDF5

_cell_length_a		16.613717
_cell_length_b		16.536037
_cell_length_c		16.629546
_cell_angle_alpha	89.863396
_cell_angle_beta	89.885786
_cell_angle_gamma	89.995791
_symmetry_space_group_name_H-M	'P 1'
_symmetry_Int_Tables_number		1

loop_
	_symmetry_equiv_pos_as_xyz
	x,y,z

loop_
	_atom_site_label
	_atom_site_type_symbol
	_atom_site_fract_x
	_atom_site_fract_y
	_atom_site_fract_z
	H0	H	0.374314	0.833784	0.723149
	H1	H	0.581348	0.148911	0.724005
	H2	H	0.584003	0.836664	0.281996
	H3	H	0.370167	0.148008	0.281247
	H4	H	0.701660	0.383363	0.850719
	H5	H	0.703241	0.600552	0.156787
	H6	H	0.255799	0.598461	0.849944
	H7	H	0.252369	0.381647	0.159176
	H8	H	0.821593	0.713700	0.397061
	H9	H	0.134865	0.711102	0.605847
	H10	H	0.823486	0.268176	0.612133
	H11	H	0.131362	0.264475	0.393683
	H12	H	0.824621	0.382567	0.728907
	H13	H	0.134801	0.596790	0.723822
	H14	H	0.822697	0.597986	0.280571
	H15	H	0.131809	0.379728	0.277394
	H16	H	0.373297	0.713777	0.849668
	H17	H	0.584519	0.713678	0.158912
	H18	H	0.584149	0.268770	0.850272
	H19	H	0.366744	0.264482	0.158715
	H20	H	0.697107	0.834783	0.400530
	H21	H	0.699829	0.146818	0.610311
	H22	H	0.258280	0.833218	0.607751
	H23	H	0.254144	0.147974	0.397467
	H24	H	0.866950	0.336874	0.230049
	H25	H	0.083038	0.645342	0.225100
	H26	H	0.086915	0.334750	0.780667
	H27	H	0.874849	0.647692	0.783241
	H28	H	0.199230	0.885987	0.348792
	H29	H	0.200893	0.099075	0.659585
	H30	H	0.752417	0.101364	0.351325
	H31	H	0.757490	0.886882	0.660489
	H32	H	0.321863	0.217473	0.894891
	H33	H	0.632520	0.212708	0.108877
	H34	H	0.325248	0.765096	0.113605
	H35	H	0.633171	0.771309	0.899400
	H36	H	0.324938	0.880507	0.231291
	H37	H	0.630751	0.099946	0.228420
	H38	H	0.321375	0.100551	0.779850
	H39	H	0.633289	0.888297	0.783246
	H40	H	0.867354	0.217853	0.351373
	H41	H	0.084682	0.214804	0.659526
	H42	H	0.081605	0.771147	0.348379
	H43	H	0.875338	0.771772	0.660837
	H44	H	0.202069	0.334729	0.896928
	H45	H	0.197882	0.646275	0.107169
	H46	H	0.754045	0.335765	0.111218
	H47	H	0.755705	0.646068	0.897310
	H48	H	0.386650	0.103668	0.591278
	H49	H	0.567111	0.879096	0.594483
	H50	H	0.570827	0.106728	0.412238
	H51	H	0.387453	0.880599	0.418480
	H52	H	0.562365	0.406068	0.114114
	H53	H	0.562956	0.584769	0.891741
	H54	H	0.387033	0.573489	0.114545
	H55	H	0.397507	0.409298	0.898593
	H56	H	0.092224	0.588953	0.411560
	H57	H	0.865104	0.579100	0.599037
	H58	H	0.089272	0.401759	0.589386
	H59	H	0.867828	0.404489	0.417671
	H60	H	0.088614	0.406438	0.591457
	H61	H	0.863375	0.585208	0.596598
	H62	H	0.084605	0.578676	0.424969
	H63	H	0.869413	0.405941	0.419446
	H64	H	0.395136	0.577849	0.113971
	H65	H	0.572211	0.580531	0.890668
	H66	H	0.565036	0.399468	0.116693
	H67	H	0.392655	0.396975	0.892780
	H68	H	0.556959	0.101689	0.414119
	H69	H	0.567139	0.878251	0.596181
	H70	H	0.386568	0.105127	0.592973
	H71	H	0.388467	0.879566	0.414586
	H72	H	0.892068	0.601786	0.091276
	H73	H	0.064777	0.379605	0.085229
	H74	H	0.073448	0.604136	0.915709
	H75	H	0.891692	0.378393	0.913985
	H76	H	0.074246	0.901310	0.618508
	H77	H	0.067306	0.079600	0.393613
	H78	H	0.891501	0.076276	0.613848
	H79	H	0.884950	0.901865	0.390860
	H80	H	0.588571	0.084988	0.914716
	H81	H	0.366798	0.075470	0.092184
	H82	H	0.586310	0.908941	0.088396
	H83	H	0.362797	0.900296	0.910194
	H84	H	0.589390	0.907077	0.096925
	H85	H	0.365860	0.078220	0.092512
	H86	H	0.584783	0.077405	0.917806
	H87	H	0.365289	0.900466	0.918775
	H88	H	0.890619	0.081321	0.615904
	H89	H	0.064183	0.073769	0.396445
	H90	H	0.064009	0.906193	0.613738
	H91	H	0.887488	0.905530	0.392814
	H92	H	0.067201	0.604640	0.907875
	H93	H	0.068917	0.376383	0.093532
	H94	H	0.890036	0.602075	0.090137
	H95	H	0.891371	0.380492	0.918441
	H96	H	0.388358	0.103104	0.593123
	H97	H	0.565563	0.879130	0.595507
	H98	H	0.567044	0.101626	0.425011
	H99	H	0.390899	0.881654	0.416724
	H100	H	0.569225	0.405431	0.116881
	H101	H	0.564564	0.575045	0.895277
	H102	H	0.387617	0.582066	0.117493
	H103	H	0.384092	0.408242	0.893741
	H104	H	0.088143	0.570579	0.408405
	H105	H	0.867107	0.580389	0.592343
	H106	H	0.090677	0.402341	0.594149
	H107	H	0.869078	0.407238	0.416743
	H108	H	0.889757	0.603171	0.092302
	H109	H	0.059465	0.378958	0.093339
	H110	H	0.063977	0.600852	0.916486
	H111	H	0.887649	0.378315	0.916437
	H112	H	0.064145	0.894601	0.617594
	H113	H	0.060054	0.079436	0.394930
	H114	H	0.886347	0.077497	0.616020
	H115	H	0.889084	0.900978	0.392183
	H116	H	0.588184	0.077070	0.909926
	H117	H	0.366759	0.077279	0.089651
	H118	H	0.589834	0.900441	0.090590
	H119	H	0.366642	0.907840	0.913892
	C120	C	0.355640	0.000177	0.624754
	C121	C	0.598414	0.982683	0.626493
	C122	C	0.597949	0.000132	0.384397
	C123	C	0.355691	0.983629	0.383163
	C124	C	0.598495	0.370333	0.013432
	C125	C	0.599283	0.612841	0.995050
	C126	C	0.356522	0.612177	0.013256
	C127	C	0.356108	0.369469	0.996668
	C128	C	-0.014383	0.612411	0.382231
	C129	C	0.969355	0.612907	0.626053
	C130	C	-0.013136	0.370541	0.624908
	C131	C	0.969765	0.370055	0.382667
	C132	C	0.856500	0.499733	0.125359
	C133	C	0.097635	0.481341	0.123990
	C134	C	0.100798	0.499426	0.881485
	C135	C	0.857447	0.482025	0.882969
	C136	C	0.098829	0.869532	0.512947
	C137	C	0.097894	0.112121	0.496707
	C138	C	0.855570	0.113039	0.513475
	C139	C	0.855942	0.870053	0.495298
	C140	C	0.484938	0.114016	0.881230
	C141	C	0.468409	0.111498	0.125144
	C142	C	0.486649	0.870657	0.125877
	C143	C	0.468332	0.871059	0.882657
	C144	C	0.355284	0.881180	0.683623
	C145	C	0.600071	0.101410	0.684809
	C146	C	0.601302	0.883039	0.323283
	C147	C	0.352309	0.101035	0.321854
	C148	C	0.660285	0.366227	0.897002
	C149	C	0.661557	0.617091	0.110914
	C150	C	0.296247	0.615839	0.896495
	C151	C	0.293291	0.364510	0.112569
	C152	C	0.868756	0.673392	0.379126
	C153	C	0.087512	0.671729	0.625373
	C154	C	0.870253	0.308855	0.629298
	C155	C	0.085137	0.305889	0.376857
	C156	C	0.870696	0.365691	0.687436
	C157	C	0.087672	0.614474	0.683875
	C158	C	0.869286	0.616103	0.320857
	C159	C	0.085339	0.363931	0.319131
	C160	C	0.354392	0.673407	0.896452
	C161	C	0.602714	0.673639	0.111805
	C162	C	0.602059	0.308980	0.896994
	C163	C	0.350356	0.306116	0.112466
	C164	C	0.658086	0.882330	0.381755
	C165	C	0.658970	0.100245	0.628337
	C166	C	0.297608	0.880865	0.626167
	C167	C	0.294419	0.100936	0.379533
	C168	C	0.850589	0.383292	0.188418
	C169	C	0.100939	0.598905	0.184459
	C170	C	0.104389	0.381753	0.820921
	C171	C	0.855486	0.600214	0.822853
	C172	C	0.158848	0.867659	0.395703
	C173	C	0.160154	0.116641	0.612821
	C174	C	0.793395	0.118341	0.397640
	C175	C	0.797107	0.868144	0.613593
	C176	C	0.368337	0.176213	0.877703
	C177	C	0.585407	0.172687	0.127845
	C178	C	0.371028	0.806826	0.130923
	C179	C	0.586271	0.811347	0.880772
	C180	C	0.371019	0.863973	0.189455
	C181	C	0.584457	0.116558	0.187224
	C182	C	0.368061	0.118222	0.820080
	C183	C	0.586161	0.869450	0.823057
	C184	C	0.851037	0.176234	0.397766
	C185	C	0.102268	0.174180	0.612943
	C186	C	0.100097	0.810868	0.395092
	C187	C	0.855393	0.810889	0.613535
	C188	C	0.161731	0.381903	0.878815
	C189	C	0.158070	0.599189	0.126230
	C190	C	0.794238	0.382758	0.129521
	C191	C	0.796533	0.599507	0.879617
	C192	C	0.380129	0.082530	0.599683
	C193	C	0.573666	0.900236	0.602367
	C194	C	0.572209	0.082040	0.409916
	C195	C	0.381697	0.901969	0.409121
	C196	C	0.572960	0.396266	0.094697
	C197	C	0.573777	0.587215	0.913698
	C198	C	0.382425	0.585382	0.094223
	C199	C	0.383588	0.397059	0.916052
	C200	C	0.067099	0.586742	0.407721
	C201	C	0.886792	0.588448	0.602805
	C202	C	0.068177	0.396283	0.599095
	C203	C	0.889670	0.397963	0.410245
	C204	C	0.883163	0.580999	0.098823
	C205	C	0.071733	0.399453	0.098214
	C206	C	0.075452	0.581684	0.906248
	C207	C	0.883069	0.400427	0.908772
	C208	C	0.074484	0.893816	0.595229
	C209	C	0.071488	0.085341	0.416100
	C210	C	0.881954	0.086075	0.594119
	C211	C	0.880145	0.895388	0.413349
	C212	C	0.565892	0.087525	0.906982
	C213	C	0.387406	0.084530	0.098870
	C214	C	0.567322	0.897662	0.099389
	C215	C	0.386266	0.895897	0.907423
	Zn216	Zn	0.476068	-0.007948	0.753529
	Zn217	Zn	0.477151	-0.008483	0.255091
	Zn218	Zn	0.728014	0.491343	0.004173
	Zn219	Zn	0.227242	0.490036	0.004390
	Zn220	Zn	-0.023004	0.741173	0.503415
	Zn221	Zn	-0.022234	0.241334	0.504789
	Zn222	Zn	-0.021164	0.490588	0.754355
	Zn223	Zn	-0.022529	0.490851	0.253186
	Zn224	Zn	0.478019	0.741697	0.004447
	Zn225	Zn	0.476970	0.240899	0.004716
	Zn226	Zn	0.727276	-0.008555	0.504774
	Zn227	Zn	0.227082	-0.008497	0.504832
	N228	N	0.390440	0.956442	0.683245
	N229	N	0.562805	0.027356	0.683505
	N230	N	0.564736	0.957433	0.324526
	N231	N	0.389514	0.026892	0.323771
	N232	N	0.658431	0.403693	0.970618
	N233	N	0.659580	0.579882	0.037261
	N234	N	0.297343	0.578489	0.970281
	N235	N	0.296703	0.403167	0.039505
	N236	N	0.942213	0.671131	0.416766
	N237	N	0.012796	0.670979	0.590100
	N238	N	0.943452	0.311784	0.590890
	N239	N	0.012154	0.309288	0.415705
	N240	N	0.944306	0.403367	0.685043
	N241	N	0.012995	0.578866	0.684794
	N242	N	0.942989	0.578666	0.322698
	N243	N	0.012378	0.402883	0.322373
	N244	N	0.391270	0.671407	0.970223
	N245	N	0.564806	0.671365	0.038549
	N246	N	0.564114	0.311499	0.970304
	N247	N	0.388696	0.309120	0.039190
	N248	N	0.656223	0.956341	0.419072
	N249	N	0.658244	0.025471	0.592697
	N250	N	0.297496	0.955969	0.590465
	N251	N	0.296251	0.026803	0.416820
	N252	N	0.888635	0.456970	0.185835
	N253	N	0.064471	0.524421	0.183375
	N254	N	0.067249	0.456071	0.822090
	N255	N	0.892473	0.525996	0.824614
	N256	N	0.158306	0.903372	0.470144
	N257	N	0.157812	0.078852	0.539452
	N258	N	0.796055	0.079681	0.470657
	N259	N	0.796910	0.904001	0.538893
	N260	N	0.441945	0.173794	0.915082
	N261	N	0.512191	0.169595	0.089748
	N262	N	0.443759	0.811038	0.091849
	N263	N	0.511928	0.812111	0.917203
	N264	N	0.443784	0.903205	0.186415
	N265	N	0.510613	0.079363	0.185703
	N266	N	0.441667	0.080444	0.821774
	N267	N	0.511770	0.905719	0.823997
	N268	N	0.889103	0.173144	0.470878
	N269	N	0.064362	0.171610	0.539670
	N270	N	0.063681	0.811693	0.469170
	N271	N	0.890911	0.811698	0.539040
	N272	N	0.160060	0.456244	0.915255
	N273	N	0.155997	0.525066	0.089167
	N274	N	0.797500	0.456308	0.091104
	N275	N	0.797556	0.525033	0.916297
	O276	O	0.023386	0.805594	0.136367
	H277	H	0.007212	0.805354	0.122276
	H278	H	0.002431	0.801447	0.154049
	O279	O	0.443733	0.277765	0.719801
	H280	H	0.451530	0.265152	0.735500
	H281	H	0.464196	0.275975	0.726133
	O282	O	0.782198	0.152099	1.156458
	H283	H	0.777964	0.154944	1.158056
	H284	H	0.784872	0.137276	1.143991
	O285	O	0.421076	0.569527	0.293995
	H286	H	0.396195	0.572904	0.288996
	H287	H	0.418171	0.556464	0.300523
	O288	O	0.524718	0.569014	0.343767
	H289	H	0.515078	0.555901	0.337985
	H290	H	0.531889	0.554620	0.350634
	O291	O	0.702734	0.516120	0.723292
	H292	H	0.691015	0.555150	0.722701
	H293	H	0.726659	0.524684	0.754547
	O294	O	0.774013	0.078661	0.850967
	H295	H	0.768342	0.074981	0.835281
	H296	H	0.777635	0.096218	0.859827
	O297	O	0.297179	0.673823	0.688125
	H298	H	0.310330	0.667147	0.684955
	H299	H	0.303175	0.671096	0.670484
	O300	O	-0.053107	0.195691	0.817883
	H301	H	-0.062484	0.208973	0.818486
	H302	H	-0.066581	0.203390	0.820271
	O303	O	0.832498	-0.220278	0.028966
	H304	H	0.842873	-0.219391	0.025675
	H305	H	0.832597	-0.234817	0.043479
	O306	O	1.183154	0.789169	0.799833
	H307	H	1.162499	0.781957	0.823401
	H308	H	1.201557	0.773222	0.810960
	O309	O	0.507517	0.278616	0.290582
	H310	H	0.490778	0.262312	0.295286
	H311	H	0.500208	0.273283	0.290434
	O312	O	0.702291	0.443000	0.566329
	H313	H	0.698087	0.456608	0.571818
	H314	H	0.707721	0.462587	0.580896
	O315	O	0.910836	1.051804	1.233819
	H316	H	0.923546	1.038842	1.224680
	H317	H	0.918547	1.065141	1.237728
	O318	O	0.301534	0.534379	0.594524
	H319	H	0.310244	0.537481	0.591430
	H320	H	0.292573	0.532559	0.609650
	O321	O	0.454216	0.414696	0.516029
	H322	H	0.454583	0.411833	0.527876
	H323	H	0.462118	0.420525	0.511208
	O324	O	0.760275	0.914161	-0.052617
	H325	H	0.755024	0.893837	-0.073257
	H326	H	0.773766	0.922708	-0.054997
	O327	O	-0.158475	-0.026723	0.872388
	H328	H	-0.155488	-0.005551	0.864558
	H329	H	-0.178711	-0.017796	0.878635
	O330	O	0.772681	0.790068	1.207288
	H331	H	0.765022	0.818514	1.192280
	H332	H	0.746517	0.764202	1.224658
	O333	O	0.171437	0.181123	0.194412
	H334	H	0.173708	0.180359	0.154092
	H335	H	0.136931	0.176736	0.198108
	O336	O	1.190799	0.206805	0.023583
	H337	H	1.216201	0.212416	0.018837
	H338	H	1.203747	0.187347	0.010959
	O339	O	1.038696	0.036168	0.775057
	H340	H	1.063878	0.040312	0.767325
	H341	H	1.037311	0.052762	0.784434
	O342	O	0.665840	0.302470	-0.304196
	H343	H	0.670493	0.299912	-0.320166
	H344	H	0.670824	0.317678	-0.312012
	O345	O	-0.001933	1.208491	1.226459
	H346	H	-0.010018	1.221773	1.242817
	H347	H	0.003815	1.215536	1.223926
	O348	O	0.688608	0.279166	0.493137
	H349	H	0.696040	0.302880	0.485597
	H350	H	0.704680	0.268364	0.492866
	O351	O	1.073971	0.973146	-0.124921
	H352	H	1.075310	0.974964	-0.143061
	H353	H	1.066478	0.971067	-0.122390
	O354	O	-0.227754	0.196857	0.797292
	H355	H	-0.229359	0.200065	0.846125
	H356	H	-0.231169	0.199301	0.780296
	O357	O	0.247654	0.426543	0.434278
	H358	H	0.241257	0.412681	0.455655
	H359	H	0.249871	0.418362	0.447353
	O360	O	0.277165	0.273673	0.527708
	H361	H	0.249576	0.245004	0.541023
	H362	H	0.290936	0.287536	0.565302
	O363	O	-0.301206	-0.290592	-0.458994
	H364	H	-0.290192	-0.279222	-0.447965
	H365	H	-0.295362	-0.280424	-0.456157
	O366	O	0.375372	0.402410	0.404399
	H367	H	0.364811	0.405335	0.424828
	H368	H	0.369084	0.396133	0.390127
	O369	O	0.941511	-0.205301	0.203949
	H370	H	0.922751	-0.235943	0.231328
	H371	H	0.911434	-0.188950	0.190446
	O372	O	1.442373	1.514489	0.732686
	H373	H	1.449564	1.517180	0.730807
	H374	H	1.449687	1.498628	0.727014
	O375	O	1.212299	-0.069038	0.070183
	H376	H	1.210734	-0.063097	0.082556
	H377	H	1.217810	-0.046538	0.083318
	O378	O	0.281889	0.297314	0.691635
	H379	H	0.307027	0.299793	0.705978
	H380	H	0.286600	0.315317	0.698489
	O381	O	-0.052576	1.092818	1.044610
	H382	H	-0.050010	1.097150	1.031370
	H383	H	-0.054354	1.076356	1.051486
	O384	O	1.201818	-0.034232	0.781174
	H385	H	1.202016	-0.073767	0.780396
	H386	H	1.216532	-0.043120	0.755833
	O387	O	0.811533	0.800908	-0.141552
	H388	H	0.833459	0.810361	-0.131079
	H389	H	0.824009	0.821311	-0.145329
	O390	O	0.393907	0.645841	0.544550
	H391	H	0.399145	0.661706	0.526853
	H392	H	0.400466	0.646091	0.528205
	O393	O	0.260788	0.524266	0.292414
	H394	H	0.255017	0.513230	0.308276
	H395	H	0.244575	0.516680	0.286154
	O396	O	0.036918	1.032997	0.939181
	H397	H	0.050671	1.041691	0.936790
	H398	H	0.045919	1.021358	0.929807
	O399	O	-0.533309	0.274885	0.488999
	H400	H	-0.541639	0.267802	0.490743
	H401	H	-0.522718	0.281608	0.489109
	O402	O	0.494539	0.403429	0.693122
	H403	H	0.501829	0.401382	0.687729
	H404	H	0.500478	0.410478	0.685513
	O405	O	0.840212	0.197308	0.952291
	H406	H	0.824231	0.199651	0.949573
	H407	H	0.839970	0.188565	0.970748
	O408	O	-0.127195	-0.139607	-0.077984
	H409	H	-0.126435	-0.126827	-0.080922
	H410	H	-0.124608	-0.142739	-0.072532
	O411	O	1.046135	0.965379	1.213077
	H412	H	1.040549	0.934985	1.200799
	H413	H	1.058820	0.968135	1.214267
	O414	O	0.754306	-0.034059	0.224386
	H415	H	0.763240	-0.032197	0.237395
	H416	H	0.736763	-0.032616	0.231788
	O417	O	0.550096	0.635445	0.472382
	H418	H	0.547832	0.630232	0.461451
	H419	H	0.557006	0.636498	0.469014
	O420	O	0.265029	0.698407	0.295151
	H421	H	0.282312	0.689686	0.286851
	H422	H	0.256197	0.683074	0.287090
	O423	O	0.203050	0.019967	1.223891
	H424	H	0.175898	0.041575	1.220925
	H425	H	0.234148	0.023301	1.263889
	O426	O	0.704362	0.552359	0.444310
	H427	H	0.702983	0.553887	0.446060
	H428	H	0.703840	0.550134	0.443492
	O429	O	0.966563	1.012920	1.017322
	H430	H	0.949105	1.016137	1.011456
	H431	H	0.974759	1.009157	1.007453
	O432	O	0.683509	0.692411	0.707980
	H433	H	0.685746	0.711249	0.731884
	H434	H	0.654044	0.697813	0.691233
	O435	O	0.261000	0.707372	0.465122
	H436	H	0.273564	0.701764	0.432424
	H437	H	0.235457	0.729306	0.458887
	O438	O	-0.083744	0.219331	0.061928
	H439	H	-0.079052	0.211152	0.059825
	H440	H	-0.078033	0.216465	0.076449
	O441	O	0.412267	0.339779	0.367054
	H442	H	0.400692	0.336362	0.372182
	H443	H	0.396254	0.333105	0.372152
	O444	O	0.680264	0.284954	0.297575
	H445	H	0.653449	0.276807	0.292503
	H446	H	0.681471	0.292365	0.316154
	O447	O	-0.043288	0.811895	0.984843
	H448	H	-0.047118	0.817414	0.986064
	H449	H	-0.037149	0.820560	0.968074
	O450	O	0.013808	0.773919	0.787419
	H451	H	0.014101	0.753897	0.763097
	H452	H	0.020060	0.776099	0.793443
	O453	O	0.461096	0.575910	0.577429
	H454	H	0.467875	0.575985	0.580451
	H455	H	0.460933	0.572751	0.577587
	O456	O	0.064238	0.159383	0.955761
	H457	H	0.061586	0.151457	0.956606
	H458	H	0.066745	0.145912	0.975434
	O459	O	1.191032	0.783574	-0.027429
	H460	H	1.197467	0.767409	-0.008049
	H461	H	1.199733	0.799607	-0.009631
	O462	O	1.171740	0.799330	0.190589
	H463	H	1.175426	0.791240	0.194049
	H464	H	1.148863	0.818742	0.183820
	O465	O	1.139266	0.066761	-0.108672
	H466	H	1.131823	0.051328	-0.108053
	H467	H	1.135349	0.060698	-0.107591
	O468	O	0.485800	0.633688	0.284511
	H469	H	0.479324	0.648268	0.269762
	H470	H	0.486369	0.609077	0.280713
	O471	O	0.652152	0.675082	0.316801
	H472	H	0.634342	0.652825	0.327353
	H473	H	0.640539	0.652267	0.333336
	O474	O	0.514564	0.695965	0.718429
	H475	H	0.507903	0.705653	0.727426
	H476	H	0.497691	0.685579	0.715961
	O477	O	0.521164	0.473565	1.468813
	H478	H	0.512007	0.469580	1.470410
	H479	H	0.533049	0.476858	1.463978
	O480	O	0.261527	0.465157	0.726494
	H481	H	0.254813	0.472843	0.735030
	H482	H	0.246692	0.464588	0.734408
	O483	O	0.516998	0.519197	0.503745
	H484	H	0.516683	0.518327	0.491731
	H485	H	0.518932	0.518739	0.501118
	O486	O	0.693844	0.468474	0.286222
	H487	H	0.715700	0.451292	0.266953
	H488	H	0.690896	0.455536	0.290534
	O489	O	0.813323	0.938089	-0.030534
	H490	H	0.805849	0.912639	-0.026389
	H491	H	0.822280	0.930227	-0.033594
