data_Molecule from HDF5

_cell_length_a		16.402747
_cell_length_b		16.367618
_cell_length_c		16.159830
_cell_angle_alpha	89.771335
_cell_angle_beta	89.939139
_cell_angle_gamma	90.124470
_symmetry_space_group_name_H-M	'P 1'
_symmetry_Int_Tables_number		1

loop_
	_symmetry_equiv_pos_as_xyz
	x,y,z

loop_
	_atom_site_label
	_atom_site_type_symbol
	_atom_site_fract_x
	_atom_site_fract_y
	_atom_site_fract_z
	H0	H	0.376979	0.847495	0.707681
	H1	H	0.579246	0.170468	0.710107
	H2	H	0.579163	0.847329	0.277050
	H3	H	0.376955	0.169441	0.270394
	H4	H	0.696479	0.407871	0.830294
	H5	H	0.697251	0.611340	0.154865
	H6	H	0.259200	0.612247	0.830324
	H7	H	0.258061	0.401757	0.154784
	H8	H	0.818750	0.732443	0.387468
	H9	H	0.137482	0.731953	0.600130
	H10	H	0.816914	0.290620	0.596979
	H11	H	0.137491	0.290281	0.387033
	H12	H	0.814994	0.409513	0.709007
	H13	H	0.138899	0.610382	0.710467
	H14	H	0.816654	0.612541	0.275990
	H15	H	0.139122	0.410884	0.276150
	H16	H	0.377348	0.726226	0.829619
	H17	H	0.582367	0.727069	0.154930
	H18	H	0.581246	0.292656	0.829450
	H19	H	0.374745	0.288182	0.154418
	H20	H	0.700090	0.850990	0.386826
	H21	H	0.697342	0.170701	0.596529
	H22	H	0.255424	0.851424	0.598467
	H23	H	0.258531	0.170311	0.384176
	H24	H	0.878470	0.347530	0.210527
	H25	H	0.079004	0.672355	0.207907
	H26	H	0.075319	0.346865	0.778287
	H27	H	0.878109	0.671976	0.776713
	H28	H	0.194174	0.911030	0.329008
	H29	H	0.197536	0.115627	0.654763
	H30	H	0.761310	0.112513	0.329318
	H31	H	0.761700	0.910196	0.656322
	H32	H	0.318392	0.230044	0.886774
	H33	H	0.637999	0.228165	0.095389
	H34	H	0.319193	0.787289	0.097410
	H35	H	0.639661	0.791808	0.889724
	H36	H	0.317495	0.906219	0.209159
	H37	H	0.640315	0.108212	0.207293
	H38	H	0.315792	0.107287	0.776954
	H39	H	0.640257	0.909943	0.775867
	H40	H	0.877894	0.226982	0.328560
	H41	H	0.076002	0.224704	0.656870
	H42	H	0.080920	0.793889	0.330594
	H43	H	0.876687	0.794720	0.656023
	H44	H	0.196194	0.348355	0.888923
	H45	H	0.200240	0.668256	0.097590
	H46	H	0.760758	0.347491	0.096206
	H47	H	0.759458	0.670075	0.889617
	H48	H	0.385107	0.125499	0.582630
	H49	H	0.575683	0.893290	0.581718
	H50	H	0.579936	0.126518	0.405324
	H51	H	0.378596	0.892839	0.402379
	H52	H	0.567869	0.419040	0.108030
	H53	H	0.570516	0.608467	0.873929
	H54	H	0.387329	0.600995	0.110029
	H55	H	0.392044	0.412076	0.876157
	H56	H	0.092279	0.601182	0.400365
	H57	H	0.867050	0.594636	0.581933
	H58	H	0.095032	0.415587	0.593049
	H59	H	0.862322	0.416708	0.403105
	H60	H	0.091848	0.411073	0.577334
	H61	H	0.860562	0.604951	0.590982
	H62	H	0.093335	0.606198	0.401823
	H63	H	0.864664	0.420235	0.405908
	H64	H	0.386489	0.592993	0.107953
	H65	H	0.576592	0.593937	0.875638
	H66	H	0.568218	0.415264	0.109373
	H67	H	0.379378	0.421152	0.874698
	H68	H	0.568394	0.128263	0.388565
	H69	H	0.568736	0.894535	0.588530
	H70	H	0.389838	0.124838	0.585067
	H71	H	0.389959	0.895274	0.397920
	H72	H	0.886209	0.621578	0.075951
	H73	H	0.073775	0.393708	0.081939
	H74	H	0.069339	0.623297	0.904048
	H75	H	0.890414	0.396249	0.905027
	H76	H	0.059630	0.916007	0.608335
	H77	H	0.066613	0.111209	0.374138
	H78	H	0.887507	0.102051	0.608498
	H79	H	0.887163	0.927495	0.377583
	H80	H	0.591157	0.099547	0.903595
	H81	H	0.363623	0.098010	0.083397
	H82	H	0.590784	0.921441	0.077596
	H83	H	0.365312	0.920452	0.903231
	H84	H	0.595350	0.918149	0.091189
	H85	H	0.365057	0.101290	0.078456
	H86	H	0.593256	0.100682	0.897827
	H87	H	0.362596	0.914889	0.897237
	H88	H	0.885169	0.104362	0.610325
	H89	H	0.077519	0.097909	0.374658
	H90	H	0.075801	0.919113	0.612255
	H91	H	0.894160	0.918863	0.377841
	H92	H	0.070984	0.624381	0.903791
	H93	H	0.066839	0.392920	0.090296
	H94	H	0.879407	0.627022	0.086271
	H95	H	0.879946	0.393479	0.905327
	H96	H	0.389295	0.123130	0.579664
	H97	H	0.567077	0.896604	0.578967
	H98	H	0.561249	0.119753	0.406160
	H99	H	0.387054	0.898335	0.409880
	H100	H	0.571096	0.417908	0.109839
	H101	H	0.561690	0.596663	0.879941
	H102	H	0.393600	0.596842	0.105780
	H103	H	0.392614	0.426577	0.881353
	H104	H	0.091556	0.602805	0.405074
	H105	H	0.863667	0.608698	0.575989
	H106	H	0.088694	0.426479	0.582282
	H107	H	0.863334	0.421341	0.401027
	H108	H	0.892423	0.624020	0.087649
	H109	H	0.063415	0.398302	0.080740
	H110	H	0.070112	0.623770	0.902177
	H111	H	0.885113	0.392408	0.895923
	H112	H	0.065805	0.932073	0.604939
	H113	H	0.061392	0.096348	0.380463
	H114	H	0.883970	0.101034	0.610287
	H115	H	0.883050	0.918155	0.374701
	H116	H	0.593573	0.105263	0.902164
	H117	H	0.366078	0.095255	0.079114
	H118	H	0.595002	0.908294	0.080284
	H119	H	0.363762	0.911478	0.905149
	C120	C	0.356152	0.018728	0.613995
	C121	C	0.600305	1.001337	0.613613
	C122	C	0.600115	0.018236	0.370499
	C123	C	0.355881	1.001493	0.370561
	C124	C	0.599272	0.388008	0.001016
	C125	C	0.600341	0.630052	0.984134
	C126	C	0.358040	0.628938	0.000870
	C127	C	0.356467	0.386701	0.984119
	C128	C	-0.013833	0.633308	0.371217
	C129	C	0.969577	0.632733	0.614868
	C130	C	-0.014447	0.387730	0.615028
	C131	C	0.969546	0.389214	0.371788
	C132	C	0.856242	0.517701	0.114568
	C133	C	0.099839	0.501083	0.115133
	C134	C	0.099455	0.517368	0.871930
	C135	C	0.855848	0.500868	0.871365
	C136	C	0.098490	0.891273	0.501319
	C137	C	0.099307	0.132870	0.483876
	C138	C	0.856186	0.132586	0.501337
	C139	C	0.857308	0.890606	0.484119
	C140	C	0.486583	0.131420	0.870394
	C141	C	0.470325	0.129293	0.111779
	C142	C	0.487640	0.885240	0.114287
	C143	C	0.470250	0.886574	0.870795
	C144	C	0.356523	0.896801	0.670594
	C145	C	0.599287	0.122344	0.671474
	C146	C	0.599643	0.896359	0.314278
	C147	C	0.357098	0.121612	0.310170
	C148	C	0.657491	0.388333	0.878769
	C149	C	0.658208	0.630349	0.106399
	C150	C	0.299064	0.630659	0.878970
	C151	C	0.297247	0.383666	0.105983
	C152	C	0.866325	0.692230	0.369542
	C153	C	0.089914	0.691444	0.617244
	C154	C	0.864785	0.330136	0.615404
	C155	C	0.089863	0.330491	0.369590
	C156	C	0.863859	0.389506	0.671278
	C157	C	0.090616	0.631040	0.672363
	C158	C	0.865448	0.632798	0.313483
	C159	C	0.090784	0.390831	0.314575
	C160	C	0.357926	0.687344	0.878536
	C161	C	0.601197	0.687885	0.106360
	C162	C	0.599717	0.331058	0.878579
	C163	C	0.355660	0.327313	0.105987
	C164	C	0.659663	0.898241	0.369476
	C165	C	0.657890	0.122608	0.614652
	C166	C	0.295977	0.898885	0.616114
	C167	C	0.298052	0.122044	0.366833
	C168	C	0.857405	0.396208	0.172762
	C169	C	0.099196	0.623045	0.170740
	C170	C	0.096617	0.395693	0.815410
	C171	C	0.857778	0.623255	0.814933
	C172	C	0.155683	0.891637	0.378235
	C173	C	0.157559	0.133588	0.606249
	C174	C	0.799629	0.132150	0.378213
	C175	C	0.800011	0.890480	0.607232
	C176	C	0.365970	0.189823	0.869080
	C177	C	0.590694	0.188163	0.113523
	C178	C	0.367190	0.826588	0.115779
	C179	C	0.591611	0.830430	0.870465
	C180	C	0.366345	0.885927	0.171630
	C181	C	0.591606	0.128468	0.169313
	C182	C	0.364696	0.129006	0.814130
	C183	C	0.591776	0.889406	0.814133
	C184	C	0.857839	0.188894	0.377761
	C185	C	0.097215	0.187878	0.607259
	C186	C	0.099351	0.833248	0.379009
	C187	C	0.857129	0.833193	0.607132
	C188	C	0.156615	0.396275	0.870901
	C189	C	0.159623	0.621036	0.115773
	C190	C	0.799168	0.396141	0.115641
	C191	C	0.799005	0.622378	0.871100
	C192	C	0.380905	0.102815	0.589497
	C193	C	0.577358	0.916781	0.589782
	C194	C	0.576615	0.102844	0.393360
	C195	C	0.378626	0.917309	0.396137
	C196	C	0.575730	0.410992	0.086807
	C197	C	0.576430	0.606424	0.898888
	C198	C	0.382050	0.604120	0.085831
	C199	C	0.380895	0.412309	0.899276
	C200	C	0.070518	0.610267	0.395579
	C201	C	0.885570	0.609687	0.590172
	C202	C	0.070086	0.410870	0.591140
	C203	C	0.885398	0.412645	0.396377
	C204	C	0.879367	0.602145	0.090341
	C205	C	0.075281	0.416770	0.091319
	C206	C	0.076771	0.601853	0.896225
	C207	C	0.878351	0.416237	0.895304
	C208	C	0.074198	0.915344	0.586299
	C209	C	0.075624	0.108816	0.398379
	C210	C	0.878832	0.109350	0.587372
	C211	C	0.881213	0.914486	0.398866
	C212	C	0.570885	0.108516	0.894312
	C213	C	0.386516	0.105219	0.087376
	C214	C	0.571861	0.909041	0.090042
	C215	C	0.385686	0.909074	0.894945
	Zn216	Zn	0.477976	0.008504	0.742168
	Zn217	Zn	0.478488	0.007888	0.241928
	Zn218	Zn	0.727441	0.508839	-0.006906
	Zn219	Zn	0.229085	0.507880	-0.006955
	Zn220	Zn	-0.021882	0.762278	0.493405
	Zn221	Zn	-0.022431	0.259939	0.492482
	Zn222	Zn	-0.022431	0.509949	0.743266
	Zn223	Zn	-0.022097	0.510507	0.243332
	Zn224	Zn	0.479291	0.757814	-0.007700
	Zn225	Zn	0.478147	0.260111	-0.007456
	Zn226	Zn	0.728918	0.010267	0.492048
	Zn227	Zn	0.227394	0.011722	0.492384
	N228	N	0.393261	0.972462	0.669413
	N229	N	0.564065	0.046085	0.670896
	N230	N	0.563167	0.971880	0.314836
	N231	N	0.392435	0.045629	0.312403
	N232	N	0.657128	0.423219	0.956029
	N233	N	0.657874	0.595174	0.029313
	N234	N	0.298964	0.595160	0.956084
	N235	N	0.297822	0.420163	0.029162
	N236	N	0.942592	0.692770	0.404853
	N237	N	0.013578	0.692664	0.582075
	N238	N	0.941502	0.328836	0.581073
	N239	N	0.013514	0.329603	0.404832
	N240	N	0.940029	0.424800	0.671211
	N241	N	0.014906	0.595204	0.671038
	N242	N	0.941153	0.597059	0.314297
	N243	N	0.015025	0.426508	0.315877
	N244	N	0.393866	0.686412	0.955404
	N245	N	0.565871	0.687858	0.029288
	N246	N	0.564232	0.330934	0.955693
	N247	N	0.391674	0.329266	0.029211
	N248	N	0.659982	0.974970	0.403828
	N249	N	0.658684	0.046229	0.579399
	N250	N	0.295515	0.975828	0.581646
	N251	N	0.297248	0.046321	0.403716
	N252	N	0.891940	0.472784	0.172331
	N253	N	0.062634	0.547181	0.170294
	N254	N	0.061874	0.472181	0.815901
	N255	N	0.892316	0.546857	0.814858
	N256	N	0.155411	0.926907	0.455296
	N257	N	0.159218	0.100072	0.528254
	N258	N	0.798405	0.097868	0.456015
	N259	N	0.799860	0.925273	0.529683
	N260	N	0.442811	0.191579	0.903078
	N261	N	0.514382	0.188662	0.078583
	N262	N	0.443837	0.825872	0.081129
	N263	N	0.514963	0.828607	0.905148
	N264	N	0.442145	0.921647	0.170823
	N265	N	0.515808	0.092467	0.168533
	N266	N	0.440620	0.093574	0.814598
	N267	N	0.515287	0.923560	0.814325
	N268	N	0.891945	0.189360	0.455563
	N269	N	0.062123	0.187711	0.530029
	N270	N	0.064574	0.832789	0.456552
	N271	N	0.892092	0.832987	0.529749
	N272	N	0.158423	0.472880	0.905396
	N273	N	0.160386	0.544118	0.082123
	N274	N	0.798098	0.472742	0.080283
	N275	N	0.797316	0.545127	0.905210
	O276	O	0.070431	0.151503	-0.013282
	H277	H	0.070930	0.148229	-0.002811
	H278	H	0.071480	0.162833	-0.009810
	O279	O	-0.487831	0.667504	-0.643808
	H280	H	-0.479869	0.644849	-0.654223
	H281	H	-0.478062	0.674350	-0.655022
	O282	O	0.926932	0.002084	0.092787
	H283	H	0.926113	0.009431	0.087259
	H284	H	0.931883	0.004374	0.094443
	O285	O	-0.059337	0.988355	0.025483
	H286	H	-0.048257	0.994616	0.024935
	H287	H	-0.048787	0.978320	0.026349
	O288	O	0.315755	0.611586	0.309957
	H289	H	0.309214	0.586261	0.304635
	H290	H	0.345560	0.623008	0.306720
	O291	O	0.842723	0.005793	0.945697
	H292	H	0.853671	0.008434	0.945903
	H293	H	0.838537	0.011246	0.942640
	O294	O	1.578204	0.641358	0.462215
	H295	H	1.583101	0.649764	0.464940
	H296	H	1.581540	0.639633	0.446980
	O297	O	0.015486	-0.005066	-0.018140
	H298	H	0.017978	-0.022813	-0.020459
	H299	H	0.000102	-0.000020	-0.024729
	O300	O	0.986898	0.990780	0.952419
	H301	H	0.994758	0.990185	0.953093
	H302	H	0.991567	0.981898	0.949466
	O303	O	0.277168	0.709252	1.426100
	H304	H	0.272752	0.715826	1.408941
	H305	H	0.270815	0.711732	1.406694
	O306	O	0.464388	0.470670	0.312556
	H307	H	0.485330	0.447995	0.317675
	H308	H	0.443305	0.465067	0.302883
	O309	O	0.961619	0.106793	-0.005875
	H310	H	0.960838	0.114931	-0.005897
	H311	H	0.968515	0.116165	-0.004274
	O312	O	0.024406	0.028686	0.947014
	H313	H	0.030091	0.034329	0.931621
	H314	H	0.019391	0.029376	0.951357
	O315	O	0.537723	0.629568	0.659311
	H316	H	0.562288	0.638721	0.660923
	H317	H	0.532256	0.633410	0.652558
	O318	O	0.517894	0.296816	0.498589
	H319	H	0.518881	0.286569	0.509569
	H320	H	0.524348	0.294442	0.519370
	O321	O	0.534593	0.371640	0.642294
	H322	H	0.510383	0.378764	0.647881
	H323	H	0.530399	0.375408	0.648890
	O324	O	0.060573	-0.015123	0.017066
	H325	H	0.064280	-0.023512	0.009642
	H326	H	0.068663	-0.019432	0.012280
	O327	O	-0.100345	1.024632	1.061179
	H328	H	-0.112628	1.024064	1.061162
	H329	H	-0.098656	1.029993	1.045668
	O330	O	0.295334	0.453224	0.512604
	H331	H	0.281154	0.458109	0.505864
	H332	H	0.295080	0.449256	0.517432
	O333	O	0.073937	0.890874	0.809711
	H334	H	0.063674	0.879448	0.809384
	H335	H	0.075637	0.887238	0.801700
	O336	O	1.617788	0.553725	0.551035
	H337	H	1.626653	0.545425	0.552640
	H338	H	1.619505	0.559047	0.541209
	O339	O	0.561726	0.660046	0.591470
	H340	H	0.575260	0.646029	0.588901
	H341	H	0.564623	0.664778	0.574435
	O342	O	0.981633	0.039663	-0.026245
	H343	H	0.985265	0.047437	-0.028771
	H344	H	0.976312	0.043017	-0.030193
	O345	O	0.537542	0.436176	0.498412
	H346	H	0.526816	0.433284	0.508737
	H347	H	0.543747	0.434540	0.515497
	O348	O	0.901968	0.944232	0.916040
	H349	H	0.890751	0.960303	0.922514
	H350	H	0.915293	0.941557	0.915655
	O351	O	1.421585	1.591718	0.424908
	H352	H	1.419218	1.584628	0.417987
	H353	H	1.423103	1.589200	0.417376
	O354	O	1.037740	-0.060612	0.994576
	H355	H	1.037708	-0.066280	1.000153
	H356	H	1.032065	-0.065263	0.997208
	O357	O	0.582260	0.622015	0.452957
	H358	H	0.578613	0.616538	0.465005
	H359	H	0.593907	0.609133	0.454974
	O360	O	0.045082	-0.154622	-0.061828
	H361	H	0.040514	-0.167157	-0.052596
	H362	H	0.026860	-0.158435	-0.060191
	O363	O	0.595240	0.615192	0.524458
	H364	H	0.599481	0.630469	0.525490
	H365	H	0.582327	0.617981	0.518716
	O366	O	0.497838	0.395738	0.565822
	H367	H	0.479684	0.395399	0.572975
	H368	H	0.497799	0.387794	0.568765
	O369	O	0.551532	0.337584	0.466507
	H370	H	0.533037	0.331932	0.479721
	H371	H	0.553993	0.353643	0.478737
	O372	O	0.353015	0.343559	1.431385
	H373	H	0.358803	0.333602	1.422904
	H374	H	0.343868	0.337347	1.438914
	O375	O	1.633406	0.442995	0.339627
	H376	H	1.625631	0.427653	0.341137
	H377	H	1.648149	0.434995	0.346666
	O378	O	0.472929	0.481205	0.353780
	H379	H	0.483650	0.462409	0.374655
	H380	H	0.468756	0.467796	0.355000
	O381	O	1.064442	0.032105	0.083168
	H382	H	1.064289	0.023579	0.098423
	H383	H	1.062819	0.041484	0.091977
	O384	O	0.325326	1.376592	0.673347
	H385	H	0.315994	1.393523	0.677931
	H386	H	0.310320	1.376410	0.660394
	O387	O	1.386834	-0.674120	0.449102
	H388	H	1.377161	-0.673005	0.445692
	H389	H	1.400024	-0.676003	0.442963
	O390	O	-0.047547	1.018571	0.078938
	H391	H	-0.040061	1.016070	0.085239
	H392	H	-0.037762	1.022539	0.076053
	O393	O	1.414206	1.576739	0.518147
	H394	H	1.420880	1.575725	0.521854
	H395	H	1.409533	1.585877	0.514205
	O396	O	0.500637	0.557110	0.622800
	H397	H	0.478918	0.560272	0.614518
	H398	H	0.515520	0.582369	0.629254
	O399	O	-0.607533	0.547012	1.670311
	H400	H	-0.596222	0.562630	1.670906
	H401	H	-0.621177	0.559405	1.665482
	O402	O	0.922888	0.928112	1.078293
	H403	H	0.925539	0.932035	1.067530
	H404	H	0.931889	0.915510	1.087346
	O405	O	-0.020318	0.967287	0.024192
	H406	H	-0.024200	0.954807	0.034355
	H407	H	-0.035636	0.968348	0.029140
