data_Molecule from HDF5

_cell_length_a		16.319013
_cell_length_b		16.296444
_cell_length_c		16.310475
_cell_angle_alpha	89.968712
_cell_angle_beta	89.951607
_cell_angle_gamma	89.982801
_symmetry_space_group_name_H-M	'P 1'
_symmetry_Int_Tables_number		1

loop_
	_symmetry_equiv_pos_as_xyz
	x,y,z

loop_
	_atom_site_label
	_atom_site_type_symbol
	_atom_site_fract_x
	_atom_site_fract_y
	_atom_site_fract_z
	H0	H	0.401071	0.837237	0.715306
	H1	H	0.597741	0.164004	0.713995
	H2	H	0.597749	0.836345	0.286314
	H3	H	0.403487	0.163919	0.286702
	H4	H	0.714516	0.401453	0.836315
	H5	H	0.714604	0.597831	0.163287
	H6	H	0.286807	0.597839	0.836058
	H7	H	0.285848	0.402323	0.163555
	H8	H	0.836195	0.714064	0.402910
	H9	H	0.163587	0.713327	0.597248
	H10	H	0.836330	0.285286	0.597011
	H11	H	0.163249	0.284897	0.401407
	H12	H	0.836547	0.401080	0.714435
	H13	H	0.163358	0.597407	0.713340
	H14	H	0.836253	0.598653	0.285381
	H15	H	0.163875	0.402061	0.286594
	H16	H	0.402673	0.714252	0.836485
	H17	H	0.597718	0.713318	0.164014
	H18	H	0.598147	0.285336	0.836520
	H19	H	0.403063	0.286081	0.163664
	H20	H	0.713085	0.836054	0.403235
	H21	H	0.714047	0.163467	0.598138
	H22	H	0.285763	0.836711	0.598167
	H23	H	0.286508	0.164701	0.402224
	H24	H	0.901923	0.336410	0.214554
	H25	H	0.097532	0.663502	0.214830
	H26	H	0.098046	0.336499	0.785780
	H27	H	0.902066	0.664197	0.786152
	H28	H	0.213896	0.902592	0.336742
	H29	H	0.213657	0.098181	0.662871
	H30	H	0.785660	0.097526	0.335886
	H31	H	0.785717	0.902000	0.663014
	H32	H	0.337535	0.215875	0.900991
	H33	H	0.664126	0.213435	0.096376
	H34	H	0.336688	0.786275	0.097616
	H35	H	0.664261	0.786020	0.902575
	H36	H	0.336799	0.902174	0.213988
	H37	H	0.664249	0.097565	0.213807
	H38	H	0.336707	0.098895	0.785040
	H39	H	0.664069	0.902725	0.785694
	H40	H	0.902385	0.213473	0.335455
	H41	H	0.096917	0.213670	0.663316
	H42	H	0.097756	0.785739	0.336555
	H43	H	0.902474	0.786831	0.663946
	H44	H	0.214118	0.336745	0.902136
	H45	H	0.213478	0.663885	0.097839
	H46	H	0.786122	0.335860	0.098271
	H47	H	0.786668	0.663551	0.902858
	H48	H	0.402673	0.118413	0.596578
	H49	H	0.588099	0.886644	0.591402
	H50	H	0.600981	0.119649	0.405072
	H51	H	0.401981	0.882385	0.405962
	H52	H	0.591841	0.412010	0.113564
	H53	H	0.596312	0.589331	0.883941
	H54	H	0.404898	0.593585	0.116422
	H55	H	0.410717	0.409797	0.885350
	H56	H	0.115278	0.590115	0.405888
	H57	H	0.883134	0.595556	0.594761
	H58	H	0.113139	0.405370	0.581696
	H59	H	0.886087	0.409654	0.409963
	H60	H	0.114551	0.416905	0.598790
	H61	H	0.884403	0.593398	0.591310
	H62	H	0.117848	0.595416	0.404305
	H63	H	0.882524	0.408232	0.401521
	H64	H	0.406485	0.593018	0.116459
	H65	H	0.589198	0.591987	0.885661
	H66	H	0.588980	0.403379	0.115969
	H67	H	0.407370	0.402608	0.882803
	H68	H	0.588618	0.116881	0.399784
	H69	H	0.598158	0.882563	0.590935
	H70	H	0.412523	0.115823	0.595124
	H71	H	0.409374	0.884772	0.403967
	H72	H	0.896356	0.617263	0.089266
	H73	H	0.104203	0.382985	0.084094
	H74	H	0.103663	0.618720	0.909989
	H75	H	0.898849	0.378674	0.899762
	H76	H	0.091162	0.910166	0.615118
	H77	H	0.087660	0.090502	0.385835
	H78	H	0.902876	0.092865	0.616634
	H79	H	0.910782	0.904431	0.384582
	H80	H	0.617412	0.099915	0.909053
	H81	H	0.384558	0.093147	0.091227
	H82	H	0.617593	0.905277	0.094775
	H83	H	0.383239	0.901300	0.909244
	H84	H	0.616822	0.905943	0.093557
	H85	H	0.384152	0.091949	0.095623
	H86	H	0.613487	0.088119	0.911180
	H87	H	0.386415	0.910480	0.910841
	H88	H	0.908106	0.091343	0.614845
	H89	H	0.093854	0.099642	0.380484
	H90	H	0.090563	0.902480	0.616648
	H91	H	0.903285	0.903265	0.381346
	H92	H	0.090888	0.618491	0.896205
	H93	H	0.095837	0.379184	0.106658
	H94	H	0.908889	0.618778	0.103458
	H95	H	0.916924	0.385907	0.902616
	H96	H	0.405502	0.115342	0.587304
	H97	H	0.592470	0.881958	0.599951
	H98	H	0.591219	0.114513	0.412580
	H99	H	0.407189	0.884640	0.411771
	H100	H	0.597449	0.405617	0.117407
	H101	H	0.594383	0.597394	0.882653
	H102	H	0.406251	0.594841	0.117096
	H103	H	0.402704	0.408951	0.883501
	H104	H	0.115450	0.594100	0.409695
	H105	H	0.883449	0.591010	0.594754
	H106	H	0.120822	0.397353	0.598957
	H107	H	0.882985	0.401493	0.408249
	H108	H	0.914906	0.612042	0.086514
	H109	H	0.080907	0.388767	0.089603
	H110	H	0.086437	0.612568	0.913419
	H111	H	0.903842	0.385099	0.916919
	H112	H	0.097622	0.906686	0.617651
	H113	H	0.099243	0.089254	0.382422
	H114	H	0.907062	0.096354	0.615888
	H115	H	0.905031	0.910692	0.384882
	H116	H	0.617311	0.091350	0.899381
	H117	H	0.383159	0.096004	0.094543
	H118	H	0.616692	0.906479	0.094397
	H119	H	0.382885	0.908103	0.902006
	C120	C	0.378315	0.008532	0.621585
	C121	C	0.621345	0.991889	0.622031
	C122	C	0.621651	0.008572	0.378174
	C123	C	0.378473	0.992201	0.378694
	C124	C	0.621703	0.378278	0.008098
	C125	C	0.621976	0.621389	0.991611
	C126	C	0.378072	0.621923	0.008093
	C127	C	0.378500	0.378675	0.991979
	C128	C	0.007915	0.621697	0.378284
	C129	C	0.991862	0.621192	0.621308
	C130	C	0.007940	0.378158	0.621332
	C131	C	0.991735	0.378035	0.378369
	C132	C	0.878389	0.507962	0.121630
	C133	C	0.121461	0.491894	0.121833
	C134	C	0.121821	0.508528	0.878461
	C135	C	0.878290	0.491729	0.878360
	C136	C	0.121436	0.878374	0.508567
	C137	C	0.121031	0.121405	0.491140
	C138	C	0.878054	0.121436	0.507515
	C139	C	0.878249	0.878141	0.491499
	C140	C	0.508320	0.121833	0.878240
	C141	C	0.492107	0.121432	0.121594
	C142	C	0.508648	0.878160	0.122155
	C143	C	0.492478	0.878473	0.878688
	C144	C	0.380734	0.885716	0.676868
	C145	C	0.618190	0.115156	0.676230
	C146	C	0.618276	0.885220	0.324215
	C147	C	0.381851	0.115266	0.323760
	C148	C	0.676649	0.380813	0.885058
	C149	C	0.676708	0.618486	0.114722
	C150	C	0.324040	0.618618	0.885032
	C151	C	0.323430	0.381136	0.114785
	C152	C	0.884964	0.676637	0.381534
	C153	C	0.114698	0.675630	0.618027
	C154	C	0.885060	0.323295	0.618018
	C155	C	0.114816	0.323030	0.380822
	C156	C	0.885174	0.380834	0.676176
	C157	C	0.114660	0.618226	0.675920
	C158	C	0.885006	0.619132	0.323479
	C159	C	0.114975	0.381376	0.324066
	C160	C	0.381704	0.676395	0.885384
	C161	C	0.618855	0.675801	0.115049
	C162	C	0.619204	0.323040	0.885204
	C163	C	0.381795	0.323713	0.114887
	C164	C	0.675922	0.885013	0.381892
	C165	C	0.676196	0.114711	0.618920
	C166	C	0.323485	0.885610	0.618863
	C167	C	0.324057	0.115647	0.381407
	C168	C	0.881002	0.385191	0.176907
	C169	C	0.118408	0.614887	0.176910
	C170	C	0.118553	0.385302	0.823968
	C171	C	0.881749	0.615155	0.824233
	C172	C	0.176197	0.881395	0.385332
	C173	C	0.175485	0.118446	0.614466
	C174	C	0.823487	0.118300	0.384620
	C175	C	0.823812	0.881431	0.614876
	C176	C	0.385722	0.177133	0.880844
	C177	C	0.615549	0.175935	0.118060
	C178	C	0.385405	0.823870	0.118557
	C179	C	0.615595	0.824013	0.881660
	C180	C	0.385616	0.881091	0.176536
	C181	C	0.615425	0.118250	0.175964
	C182	C	0.385280	0.119206	0.823447
	C183	C	0.615189	0.881804	0.823575
	C184	C	0.881341	0.175882	0.384272
	C185	C	0.118045	0.176135	0.614465
	C186	C	0.118763	0.823278	0.385342
	C187	C	0.881364	0.823950	0.614857
	C188	C	0.176468	0.385260	0.881380
	C189	C	0.175704	0.615217	0.118819
	C190	C	0.823369	0.385052	0.119244
	C191	C	0.823984	0.614796	0.881661
	C192	C	0.400369	0.094412	0.599481
	C193	C	0.599570	0.905842	0.600408
	C194	C	0.600104	0.094865	0.399628
	C195	C	0.399881	0.906039	0.400641
	C196	C	0.599313	0.400551	0.093456
	C197	C	0.599762	0.599471	0.906163
	C198	C	0.399388	0.600227	0.094464
	C199	C	0.400251	0.400667	0.905884
	C200	C	0.093999	0.599667	0.400132
	C201	C	0.905703	0.599640	0.599896
	C202	C	0.093943	0.400182	0.599587
	C203	C	0.905972	0.399880	0.400276
	C204	C	0.900234	0.594040	0.099526
	C205	C	0.099920	0.405754	0.099979
	C206	C	0.100058	0.594519	0.900114
	C207	C	0.900151	0.405510	0.899959
	C208	C	0.099660	0.900080	0.594284
	C209	C	0.099617	0.099650	0.405204
	C210	C	0.899731	0.099926	0.593579
	C211	C	0.899943	0.899777	0.405636
	C212	C	0.593913	0.099638	0.900155
	C213	C	0.406283	0.100064	0.100035
	C214	C	0.594690	0.899529	0.100664
	C215	C	0.406512	0.900174	0.900929
	Zn216	Zn	0.500016	0.000614	0.749919
	Zn217	Zn	0.500095	0.000007	0.250203
	Zn218	Zn	0.749859	0.499534	-0.000051
	Zn219	Zn	0.249809	0.500431	0.000407
	Zn220	Zn	-0.000201	0.749944	0.500251
	Zn221	Zn	-0.000109	0.249480	0.499058
	Zn222	Zn	-0.000134	0.500170	0.750148
	Zn223	Zn	-0.000015	0.499660	0.249988
	Zn224	Zn	0.500410	0.749547	0.000395
	Zn225	Zn	0.500389	0.250194	-0.000181
	Zn226	Zn	0.749737	-0.000031	0.500000
	Zn227	Zn	0.249781	0.000626	0.500056
	N228	N	0.414029	0.963305	0.678748
	N229	N	0.584742	0.037704	0.678057
	N230	N	0.585598	0.962964	0.321783
	N231	N	0.415061	0.037605	0.322197
	N232	N	0.678052	0.414589	0.962375
	N233	N	0.678519	0.585001	0.037165
	N234	N	0.321775	0.585400	0.962638
	N235	N	0.321432	0.414723	0.037359
	N236	N	0.962515	0.678288	0.414927
	N237	N	0.037181	0.677488	0.584933
	N238	N	0.962557	0.321540	0.584651
	N239	N	0.037352	0.320957	0.413892
	N240	N	0.962527	0.414540	0.678221
	N241	N	0.037043	0.585103	0.678005
	N242	N	0.962680	0.585912	0.321072
	N243	N	0.037418	0.414971	0.322306
	N244	N	0.414724	0.678293	0.963035
	N245	N	0.585358	0.677703	0.037685
	N246	N	0.585506	0.321491	0.962581
	N247	N	0.415371	0.322165	0.037469
	N248	N	0.678079	0.962886	0.414817
	N249	N	0.678426	0.036941	0.586038
	N250	N	0.321932	0.963019	0.584977
	N251	N	0.321773	0.038039	0.414935
	N252	N	0.914584	0.462537	0.178412
	N253	N	0.085297	0.537239	0.178569
	N254	N	0.085283	0.462791	0.822055
	N255	N	0.914743	0.537373	0.821869
	N256	N	0.178175	0.914713	0.462827
	N257	N	0.177607	0.085235	0.536895
	N258	N	0.821462	0.085132	0.462320
	N259	N	0.821691	0.914587	0.537160
	N260	N	0.463089	0.178653	0.914465
	N261	N	0.538017	0.178097	0.084822
	N262	N	0.463038	0.821773	0.085308
	N263	N	0.538122	0.821854	0.915231
	N264	N	0.463095	0.914381	0.178583
	N265	N	0.537902	0.084942	0.178074
	N266	N	0.462429	0.085412	0.821936
	N267	N	0.537581	0.915019	0.821787
	N268	N	0.914459	0.177885	0.461818
	N269	N	0.084767	0.177908	0.536852
	N270	N	0.085272	0.821383	0.462838
	N271	N	0.914577	0.821963	0.537329
	N272	N	0.178512	0.462853	0.914896
	N273	N	0.177899	0.537692	0.085297
	N274	N	0.821718	0.462438	0.085413
	N275	N	0.821906	0.537087	0.914752
