data_Molecule from HDF5

_cell_length_a		16.211361
_cell_length_b		16.288701
_cell_length_c		16.424563
_cell_angle_alpha	90.237928
_cell_angle_beta	89.978274
_cell_angle_gamma	90.130108
_symmetry_space_group_name_H-M	'P 1'
_symmetry_Int_Tables_number		1

loop_
	_symmetry_equiv_pos_as_xyz
	x,y,z

loop_
	_atom_site_label
	_atom_site_type_symbol
	_atom_site_fract_x
	_atom_site_fract_y
	_atom_site_fract_z
	H0	H	0.376187	0.843837	0.715039
	H1	H	0.585217	0.167022	0.717362
	H2	H	0.587231	0.844868	0.275530
	H3	H	0.378166	0.167415	0.280184
	H4	H	0.696813	0.403090	0.834699
	H5	H	0.700128	0.607949	0.156986
	H6	H	0.265271	0.604625	0.834384
	H7	H	0.261624	0.404019	0.156568
	H8	H	0.817658	0.720574	0.395335
	H9	H	0.143764	0.720475	0.596525
	H10	H	0.817247	0.289331	0.596099
	H11	H	0.144064	0.287788	0.395064
	H12	H	0.817817	0.402895	0.712017
	H13	H	0.143731	0.606226	0.712632
	H14	H	0.819768	0.608277	0.277228
	H15	H	0.143307	0.400150	0.276664
	H16	H	0.380629	0.722726	0.835884
	H17	H	0.584871	0.724283	0.157643
	H18	H	0.582913	0.285052	0.836257
	H19	H	0.375393	0.286849	0.156426
	H20	H	0.698785	0.843845	0.394541
	H21	H	0.697934	0.168709	0.598075
	H22	H	0.264430	0.842645	0.595404
	H23	H	0.264886	0.167927	0.398006
	H24	H	0.877002	0.343857	0.213757
	H25	H	0.084786	0.665864	0.215557
	H26	H	0.082588	0.341884	0.777891
	H27	H	0.880009	0.666712	0.778829
	H28	H	0.198199	0.903203	0.335656
	H29	H	0.197335	0.106101	0.658596
	H30	H	0.764218	0.104208	0.336534
	H31	H	0.764553	0.905266	0.658978
	H32	H	0.316294	0.220733	0.898088
	H33	H	0.643182	0.222575	0.097316
	H34	H	0.318892	0.790621	0.095910
	H35	H	0.645110	0.790092	0.897289
	H36	H	0.319042	0.902809	0.213663
	H37	H	0.643478	0.107668	0.213594
	H38	H	0.317705	0.108061	0.779402
	H39	H	0.643681	0.902175	0.778102
	H40	H	0.878379	0.220893	0.336172
	H41	H	0.081380	0.222945	0.657992
	H42	H	0.083684	0.785243	0.336340
	H43	H	0.878265	0.786495	0.657676
	H44	H	0.195621	0.341067	0.896742
	H45	H	0.196375	0.667652	0.095750
	H46	H	0.765064	0.342330	0.093171
	H47	H	0.764844	0.667759	0.895464
	H48	H	0.391580	0.118853	0.584860
	H49	H	0.567023	0.891493	0.589038
	H50	H	0.567866	0.117877	0.411170
	H51	H	0.382449	0.887366	0.405572
	H52	H	0.575517	0.410681	0.113101
	H53	H	0.571510	0.603048	0.880814
	H54	H	0.391460	0.599532	0.111809
	H55	H	0.391077	0.408381	0.880859
	H56	H	0.096183	0.590136	0.405093
	H57	H	0.861905	0.598215	0.590869
	H58	H	0.095284	0.411564	0.580288
	H59	H	0.863950	0.411099	0.403357
	H60	H	0.095383	0.421208	0.589028
	H61	H	0.865292	0.595969	0.586386
	H62	H	0.098044	0.596361	0.403407
	H63	H	0.866046	0.414469	0.407552
	H64	H	0.386148	0.598824	0.111789
	H65	H	0.577315	0.594618	0.881250
	H66	H	0.574130	0.419864	0.109296
	H67	H	0.385278	0.414965	0.880861
	H68	H	0.576802	0.121692	0.406833
	H69	H	0.571805	0.891773	0.585687
	H70	H	0.385437	0.122555	0.590704
	H71	H	0.394828	0.889716	0.398472
	H72	H	0.885542	0.619373	0.078358
	H73	H	0.070697	0.390438	0.082570
	H74	H	0.072574	0.622058	0.896931
	H75	H	0.888339	0.387108	0.895585
	H76	H	0.080057	0.914941	0.613683
	H77	H	0.075296	0.096048	0.381713
	H78	H	0.901222	0.100698	0.609759
	H79	H	0.889945	0.912594	0.382887
	H80	H	0.594718	0.093896	0.905888
	H81	H	0.360363	0.109729	0.085892
	H82	H	0.597910	0.918806	0.089324
	H83	H	0.369374	0.912652	0.917057
	H84	H	0.600214	0.914002	0.090829
	H85	H	0.370833	0.086835	0.079789
	H86	H	0.595402	0.095574	0.906516
	H87	H	0.367582	0.925122	0.899660
	H88	H	0.882595	0.106318	0.617379
	H89	H	0.070641	0.095339	0.383356
	H90	H	0.066626	0.920322	0.607160
	H91	H	0.888953	0.911114	0.382750
	H92	H	0.066886	0.617712	0.905020
	H93	H	0.073515	0.387611	0.087987
	H94	H	0.888515	0.624797	0.096406
	H95	H	0.895455	0.392227	0.904287
	H96	H	0.394137	0.121442	0.593285
	H97	H	0.572268	0.889599	0.591265
	H98	H	0.568478	0.121112	0.400663
	H99	H	0.393639	0.893794	0.411775
	H100	H	0.566803	0.413611	0.109577
	H101	H	0.568008	0.593766	0.884657
	H102	H	0.388931	0.595703	0.110207
	H103	H	0.393444	0.415661	0.883906
	H104	H	0.095160	0.595388	0.409085
	H105	H	0.864531	0.592324	0.590739
	H106	H	0.100426	0.409704	0.591867
	H107	H	0.866137	0.416538	0.401665
	H108	H	0.902582	0.616731	0.086835
	H109	H	0.067798	0.390442	0.088531
	H110	H	0.076967	0.620567	0.906415
	H111	H	0.883301	0.388402	0.906551
	H112	H	0.067608	0.905860	0.612684
	H113	H	0.071641	0.099232	0.381864
	H114	H	0.886097	0.086745	0.609794
	H115	H	0.889180	0.912802	0.382728
	H116	H	0.594322	0.094883	0.907774
	H117	H	0.362186	0.090898	0.103108
	H118	H	0.598072	0.914088	0.085767
	H119	H	0.359637	0.904737	0.899357
	C120	C	0.359170	0.014080	0.618954
	C121	C	0.601889	0.997748	0.619120
	C122	C	0.602427	0.013683	0.375443
	C123	C	0.359666	0.997107	0.375256
	C124	C	0.601880	0.383946	0.004554
	C125	C	0.603288	0.627874	0.988183
	C126	C	0.359335	0.627409	0.004702
	C127	C	0.358489	0.383075	0.987854
	C128	C	-0.010735	0.624791	0.375635
	C129	C	0.971721	0.625962	0.618447
	C130	C	-0.010845	0.383860	0.616850
	C131	C	0.972831	0.382936	0.373909
	C132	C	0.860512	0.513638	0.116745
	C133	C	0.101978	0.496111	0.117280
	C134	C	0.102257	0.512728	0.873555
	C135	C	0.859154	0.496363	0.873231
	C136	C	0.102320	0.882988	0.504932
	C137	C	0.102536	0.127242	0.488638
	C138	C	0.859619	0.126726	0.505616
	C139	C	0.858854	0.882541	0.489131
	C140	C	0.487768	0.125823	0.876697
	C141	C	0.471854	0.126843	0.119046
	C142	C	0.490913	0.885065	0.118171
	C143	C	0.473120	0.883733	0.874989
	C144	C	0.357774	0.892320	0.676021
	C145	C	0.603204	0.119161	0.677424
	C146	C	0.604389	0.892763	0.316064
	C147	C	0.359463	0.118844	0.318674
	C148	C	0.659033	0.383432	0.883307
	C149	C	0.661427	0.627832	0.108994
	C150	C	0.303089	0.625471	0.882982
	C151	C	0.300379	0.384185	0.108534
	C152	C	0.866642	0.682060	0.376138
	C153	C	0.094866	0.682357	0.616625
	C154	C	0.866086	0.327471	0.615541
	C155	C	0.095027	0.325720	0.374961
	C156	C	0.866509	0.383797	0.673555
	C157	C	0.094751	0.625563	0.674380
	C158	C	0.867593	0.625959	0.317232
	C159	C	0.094736	0.381714	0.316020
	C160	C	0.360614	0.684260	0.883931
	C161	C	0.604030	0.685787	0.109128
	C162	C	0.601929	0.324853	0.883992
	C163	C	0.357198	0.325933	0.108553
	C164	C	0.660374	0.892443	0.375121
	C165	C	0.659476	0.119860	0.618166
	C166	C	0.301741	0.891665	0.616922
	C167	C	0.303140	0.119400	0.377616
	C168	C	0.859021	0.391909	0.173951
	C169	C	0.103282	0.617607	0.175841
	C170	C	0.101941	0.390382	0.816770
	C171	C	0.860227	0.618457	0.817222
	C172	C	0.159380	0.883612	0.383987
	C173	C	0.159026	0.126187	0.610208
	C174	C	0.802306	0.124792	0.384577
	C175	C	0.802265	0.884496	0.610267
	C176	C	0.365323	0.182898	0.877637
	C177	C	0.594337	0.184374	0.117662
	C178	C	0.367955	0.828167	0.116442
	C179	C	0.596138	0.828136	0.876830
	C180	C	0.367995	0.884035	0.174923
	C181	C	0.594678	0.127040	0.175222
	C182	C	0.365976	0.126774	0.818806
	C183	C	0.595291	0.883959	0.817551
	C184	C	0.859483	0.182579	0.384409
	C185	C	0.101532	0.184509	0.609752
	C186	C	0.102682	0.824460	0.384526
	C187	C	0.859225	0.825595	0.609752
	C188	C	0.158049	0.390115	0.875838
	C189	C	0.158606	0.618686	0.115957
	C190	C	0.803483	0.391178	0.114085
	C191	C	0.803019	0.618912	0.875044
	C192	C	0.383284	0.098811	0.596244
	C193	C	0.577608	0.913093	0.595397
	C194	C	0.578056	0.098352	0.399175
	C195	C	0.383580	0.912138	0.398517
	C196	C	0.578694	0.407827	0.088730
	C197	C	0.579390	0.604003	0.904220
	C198	C	0.382043	0.604519	0.089237
	C199	C	0.382902	0.406329	0.903663
	C200	C	0.074269	0.600894	0.398967
	C201	C	0.886294	0.602558	0.595861
	C202	C	0.074702	0.407299	0.593945
	C203	C	0.887625	0.407140	0.397292
	C204	C	0.885027	0.598347	0.093782
	C205	C	0.077549	0.411358	0.093440
	C206	C	0.078972	0.598161	0.896118
	C207	C	0.882170	0.411359	0.895651
	C208	C	0.078317	0.906963	0.589345
	C209	C	0.079524	0.103640	0.404313
	C210	C	0.883035	0.104372	0.590351
	C211	C	0.882384	0.905318	0.404517
	C212	C	0.572887	0.101893	0.900207
	C213	C	0.386588	0.102796	0.096360
	C214	C	0.576438	0.908859	0.095474
	C215	C	0.387687	0.907234	0.898448
	Zn216	Zn	0.480121	0.005426	0.747584
	Zn217	Zn	0.481092	0.005317	0.246780
	Zn218	Zn	0.731429	0.505867	-0.004525
	Zn219	Zn	0.230380	0.504762	-0.004415
	Zn220	Zn	-0.019327	0.752989	0.496764
	Zn221	Zn	-0.019815	0.255846	0.496216
	Zn222	Zn	-0.019215	0.504010	0.744940
	Zn223	Zn	-0.018805	0.504654	0.246302
	Zn224	Zn	0.482422	0.756610	-0.002921
	Zn225	Zn	0.479813	0.254886	-0.002508
	Zn226	Zn	0.730789	0.005345	0.497414
	Zn227	Zn	0.231330	0.005242	0.496748
	N228	N	0.392675	0.969344	0.677372
	N229	N	0.568235	0.042237	0.678215
	N230	N	0.568940	0.969272	0.316226
	N231	N	0.393973	0.041729	0.317222
	N232	N	0.659123	0.419735	0.958972
	N233	N	0.661250	0.592356	0.032834
	N234	N	0.302020	0.590972	0.959212
	N235	N	0.301095	0.418974	0.032304
	N236	N	0.943309	0.681458	0.411789
	N237	N	0.017535	0.682629	0.582594
	N238	N	0.943282	0.327594	0.580852
	N239	N	0.018096	0.326352	0.410216
	N240	N	0.944187	0.418129	0.674479
	N241	N	0.017117	0.591267	0.675800
	N242	N	0.944705	0.590955	0.316782
	N243	N	0.017649	0.416596	0.315262
	N244	N	0.394590	0.685840	0.960576
	N245	N	0.568593	0.685753	0.033100
	N246	N	0.567270	0.324839	0.960530
	N247	N	0.392874	0.325481	0.032663
	N248	N	0.659165	0.968510	0.411592
	N249	N	0.658949	0.043253	0.582665
	N250	N	0.302541	0.968249	0.581877
	N251	N	0.303231	0.042648	0.412070
	N252	N	0.893776	0.469021	0.175693
	N253	N	0.068897	0.540399	0.176622
	N254	N	0.067894	0.467703	0.815253
	N255	N	0.894331	0.541350	0.815854
	N256	N	0.159383	0.919120	0.460050
	N257	N	0.159816	0.091235	0.533926
	N258	N	0.802271	0.090808	0.461032
	N259	N	0.801868	0.919044	0.533962
	N260	N	0.442060	0.182392	0.913009
	N261	N	0.516971	0.184348	0.083346
	N262	N	0.445339	0.828697	0.081734
	N263	N	0.519053	0.827805	0.911651
	N264	N	0.445390	0.918447	0.176299
	N265	N	0.517489	0.092174	0.176325
	N266	N	0.443146	0.092074	0.818051
	N267	N	0.517544	0.917765	0.816313
	N268	N	0.894228	0.183923	0.460707
	N269	N	0.067267	0.185266	0.533231
	N270	N	0.067753	0.824130	0.460918
	N271	N	0.893414	0.824117	0.533258
	N272	N	0.158402	0.467186	0.910241
	N273	N	0.157831	0.542235	0.079959
	N274	N	0.804138	0.467812	0.079191
	N275	N	0.802186	0.542007	0.909190
	O276	O	0.071662	-0.067266	0.036026
	H277	H	0.074472	-0.072499	0.022720
	H278	H	0.074634	-0.072670	0.041504
	O279	O	-0.512640	0.493465	-0.399952
	H280	H	-0.505610	0.499741	-0.393722
	H281	H	-0.506647	0.482542	-0.411300
	O282	O	0.953270	-0.080947	0.049754
	H283	H	0.955838	-0.091214	0.059246
	H284	H	0.960439	-0.083536	0.058546
	O285	O	-0.023461	0.913852	-0.107079
	H286	H	-0.027250	0.917255	-0.119740
	H287	H	-0.002573	0.913603	-0.105531
	O288	O	0.351541	0.582934	0.305938
	H289	H	0.334706	0.581848	0.291384
	H290	H	0.358935	0.595753	0.309859
	O291	O	0.971997	0.080049	0.965315
	H292	H	0.964971	0.073909	0.948004
	H293	H	0.971236	0.080300	0.970768
	O294	O	1.453229	0.636627	0.409408
	H295	H	1.450187	0.647960	0.402545
	H296	H	1.463951	0.630988	0.419956
	O297	O	0.063774	-0.101110	0.021120
	H298	H	0.059209	-0.105143	0.019583
	H299	H	0.063032	-0.101154	0.030390
	O300	O	0.845342	1.106445	0.939165
	H301	H	0.844851	1.103526	0.937440
	H302	H	0.846771	1.101257	0.934374
	O303	O	-0.024612	0.867394	1.048837
	H304	H	-0.004057	0.877121	1.040065
	H305	H	-0.022097	0.862497	1.048961
	O306	O	0.448827	0.668542	0.467669
	H307	H	0.447910	0.677123	0.487253
	H308	H	0.461460	0.660766	0.484606
	O309	O	1.009824	-0.064288	-0.154544
	H310	H	1.012670	-0.080903	-0.155128
	H311	H	1.012481	-0.073858	-0.158301
	O312	O	0.077047	0.067085	0.833080
	H313	H	0.067246	0.060713	0.834522
	H314	H	0.081299	0.062325	0.821004
	O315	O	0.548400	0.611137	0.508777
	H316	H	0.543461	0.625666	0.502737
	H317	H	0.562102	0.608815	0.537209
	O318	O	0.626472	0.384649	0.431600
	H319	H	0.632277	0.393785	0.428691
	H320	H	0.620174	0.384625	0.423017
	O321	O	0.634125	0.598847	0.547285
	H322	H	0.616421	0.593723	0.552311
	H323	H	0.639723	0.605655	0.559855
	O324	O	0.029915	0.064106	-0.016482
	H325	H	0.025820	0.068298	-0.010862
	H326	H	0.031494	0.058064	-0.007925
	O327	O	0.092298	1.057746	1.020113
	H328	H	0.087632	1.060205	1.012962
	H329	H	0.092061	1.060863	1.030827
	O330	O	0.465416	0.442816	0.671477
	H331	H	0.448865	0.442813	0.671207
	H332	H	0.472838	0.425091	0.672236
	O333	O	0.095580	0.911111	0.919421
	H334	H	0.107341	0.915054	0.919376
	H335	H	0.102249	0.901425	0.933795
	O336	O	1.408278	0.388046	0.541019
	H337	H	1.403737	0.392308	0.550482
	H338	H	1.399502	0.383541	0.525716
	O339	O	0.542502	0.681421	0.607496
	H340	H	0.550448	0.662423	0.617067
	H341	H	0.554060	0.678622	0.615517
	O342	O	0.872531	-0.003080	0.051593
	H343	H	0.872075	-0.000350	0.060039
	H344	H	0.885024	0.005143	0.055949
	O345	O	0.335223	0.573064	0.530153
	H346	H	0.342199	0.575960	0.529024
	H347	H	0.324582	0.576520	0.526442
	O348	O	1.044100	1.132793	0.951829
	H349	H	1.033837	1.126523	0.950097
	H350	H	1.032245	1.128918	0.952888
	O351	O	1.370025	1.390641	0.604069
	H352	H	1.376500	1.380742	0.600888
	H353	H	1.370051	1.387936	0.606387
	O354	O	0.949978	-0.011920	1.076611
	H355	H	0.941593	-0.016628	1.076063
	H356	H	0.952019	-0.013705	1.080808
	O357	O	0.474738	0.561912	0.471933
	H358	H	0.468823	0.561177	0.477382
	H359	H	0.471034	0.555620	0.463556
	O360	O	-0.084395	0.005203	0.004048
	H361	H	-0.090080	0.005656	-0.000077
	H362	H	-0.090030	-0.002868	-0.007424
	O363	O	0.595002	0.408616	0.397696
	H364	H	0.598551	0.409438	0.378002
	H365	H	0.616853	0.407801	0.391463
	O366	O	0.470083	0.334208	0.538771
	H367	H	0.476389	0.331609	0.528076
	H368	H	0.476368	0.327874	0.528740
	O369	O	0.571987	0.449130	0.358198
	H370	H	0.555596	0.459021	0.348810
	H371	H	0.571530	0.439889	0.373611
	O372	O	0.281228	0.724826	1.198370
	H373	H	0.260416	0.732983	1.199612
	H374	H	0.299656	0.725814	1.196723
	O375	O	1.485922	0.602544	0.579595
	H376	H	1.479345	0.601607	0.574876
	H377	H	1.496778	0.601820	0.582558
	O378	O	0.608063	0.414466	0.385281
	H379	H	0.611279	0.404303	0.370333
	H380	H	0.596746	0.424502	0.375830
	O381	O	0.954248	0.016482	0.103347
	H382	H	0.956244	0.027258	0.109800
	H383	H	0.958286	0.015642	0.101463
	O384	O	0.377725	1.443834	0.544883
	H385	H	0.375374	1.439431	0.551607
	H386	H	0.366963	1.446405	0.544392
	O387	O	1.464956	-0.532045	0.494602
	H388	H	1.465924	-0.533038	0.483434
	H389	H	1.464745	-0.539894	0.482842
	O390	O	0.007567	1.039303	0.034788
	H391	H	0.015966	1.040113	0.034724
	H392	H	0.009261	1.045354	0.026698
	O393	O	1.421918	1.652156	0.586071
	H394	H	1.431278	1.652121	0.587294
	H395	H	1.430674	1.645774	0.585312
	O396	O	0.609413	0.456543	0.430647
	H397	H	0.610825	0.452763	0.446030
	H398	H	0.627132	0.464832	0.432373
	O399	O	-0.651804	0.389573	1.533450
	H400	H	-0.659685	0.379217	1.534444
	H401	H	-0.653245	0.385030	1.535611
	O402	O	0.905722	1.065992	1.004167
	H403	H	0.914871	1.070065	0.994635
	H404	H	0.910404	1.051294	1.006036
	O405	O	-0.042744	0.946905	0.101112
	H406	H	-0.041576	0.964807	0.111254
	H407	H	-0.050236	0.950309	0.108016
