data_Molecule from HDF5

_cell_length_a		16.337976
_cell_length_b		16.260904
_cell_length_c		16.310152
_cell_angle_alpha	90.101278
_cell_angle_beta	89.919083
_cell_angle_gamma	90.051600
_symmetry_space_group_name_H-M	'P 1'
_symmetry_Int_Tables_number		1

loop_
	_symmetry_equiv_pos_as_xyz
	x,y,z

loop_
	_atom_site_label
	_atom_site_type_symbol
	_atom_site_fract_x
	_atom_site_fract_y
	_atom_site_fract_z
	H0	H	0.397787	0.837106	0.720911
	H1	H	0.593670	0.165279	0.720417
	H2	H	0.594146	0.837298	0.291679
	H3	H	0.397865	0.164980	0.293595
	H4	H	0.710343	0.401984	0.843001
	H5	H	0.711740	0.601691	0.169222
	H6	H	0.282324	0.599432	0.843259
	H7	H	0.281304	0.402961	0.170565
	H8	H	0.833169	0.716331	0.408079
	H9	H	0.160367	0.714090	0.602537
	H10	H	0.832592	0.286973	0.604007
	H11	H	0.159209	0.285975	0.407149
	H12	H	0.833288	0.401848	0.722048
	H13	H	0.158854	0.600256	0.721508
	H14	H	0.832975	0.599193	0.292397
	H15	H	0.159390	0.401941	0.290325
	H16	H	0.399020	0.714418	0.842473
	H17	H	0.593296	0.715525	0.170346
	H18	H	0.592826	0.286828	0.842938
	H19	H	0.398098	0.287795	0.171098
	H20	H	0.709265	0.836652	0.408123
	H21	H	0.709911	0.164790	0.605054
	H22	H	0.280764	0.837378	0.605646
	H23	H	0.280437	0.164027	0.407502
	H24	H	0.897805	0.337540	0.220138
	H25	H	0.093792	0.664997	0.220693
	H26	H	0.095482	0.337700	0.791043
	H27	H	0.900380	0.666340	0.794781
	H28	H	0.212171	0.900862	0.344066
	H29	H	0.209045	0.099684	0.670611
	H30	H	0.780994	0.098322	0.342924
	H31	H	0.780294	0.902242	0.669449
	H32	H	0.331683	0.214656	0.911383
	H33	H	0.660365	0.214705	0.104307
	H34	H	0.332292	0.786604	0.105623
	H35	H	0.660100	0.787581	0.909312
	H36	H	0.332700	0.903491	0.221618
	H37	H	0.659292	0.098907	0.221411
	H38	H	0.332008	0.099980	0.792750
	H39	H	0.659037	0.903434	0.791587
	H40	H	0.898071	0.214577	0.342263
	H41	H	0.092936	0.215870	0.669444
	H42	H	0.093314	0.787295	0.342684
	H43	H	0.899606	0.788780	0.671015
	H44	H	0.209598	0.337243	0.908815
	H45	H	0.210684	0.665095	0.105234
	H46	H	0.781568	0.337427	0.104257
	H47	H	0.781716	0.665238	0.908179
	H48	H	0.401805	0.118115	0.600733
	H49	H	0.584132	0.885997	0.599766
	H50	H	0.589009	0.117548	0.413555
	H51	H	0.408742	0.884549	0.408867
	H52	H	0.591347	0.413545	0.122158
	H53	H	0.594532	0.595156	0.888940
	H54	H	0.397690	0.589637	0.123306
	H55	H	0.403052	0.415005	0.892316
	H56	H	0.110700	0.585651	0.408461
	H57	H	0.880802	0.591289	0.599597
	H58	H	0.113809	0.409483	0.605316
	H59	H	0.877505	0.402986	0.407068
	H60	H	0.112724	0.402694	0.596281
	H61	H	0.878351	0.596252	0.605546
	H62	H	0.115883	0.601841	0.408980
	H63	H	0.881541	0.405216	0.420658
	H64	H	0.408387	0.592839	0.121111
	H65	H	0.588521	0.588767	0.891982
	H66	H	0.584189	0.408209	0.121656
	H67	H	0.408975	0.403344	0.891329
	H68	H	0.586473	0.116556	0.415423
	H69	H	0.591208	0.884532	0.595674
	H70	H	0.402468	0.117531	0.599566
	H71	H	0.404648	0.886903	0.421484
	H72	H	0.903310	0.618588	0.104179
	H73	H	0.091673	0.384944	0.095668
	H74	H	0.083024	0.617096	0.911566
	H75	H	0.902776	0.385851	0.916466
	H76	H	0.091152	0.909656	0.622948
	H77	H	0.087687	0.094663	0.390294
	H78	H	0.896407	0.094565	0.624339
	H79	H	0.908541	0.907595	0.391960
	H80	H	0.613313	0.098916	0.910559
	H81	H	0.383856	0.088995	0.093623
	H82	H	0.614478	0.910569	0.111618
	H83	H	0.376215	0.897349	0.909772
	H84	H	0.613413	0.896711	0.095282
	H85	H	0.378056	0.091166	0.109990
	H86	H	0.609855	0.094229	0.917018
	H87	H	0.383343	0.908764	0.924211
	H88	H	0.904127	0.087483	0.620046
	H89	H	0.091776	0.092960	0.389739
	H90	H	0.087223	0.907758	0.622354
	H91	H	0.900252	0.901863	0.387797
	H92	H	0.094348	0.617653	0.919334
	H93	H	0.090780	0.382923	0.101973
	H94	H	0.907147	0.616282	0.097134
	H95	H	0.899898	0.383643	0.911857
	H96	H	0.401094	0.117814	0.599455
	H97	H	0.590811	0.882445	0.602974
	H98	H	0.589761	0.116912	0.416437
	H99	H	0.396406	0.882088	0.412609
	H100	H	0.592423	0.405436	0.124421
	H101	H	0.585553	0.597886	0.890297
	H102	H	0.401183	0.600593	0.125044
	H103	H	0.396163	0.403979	0.888479
	H104	H	0.109377	0.594969	0.422751
	H105	H	0.879163	0.598793	0.597843
	H106	H	0.108979	0.413366	0.595868
	H107	H	0.882378	0.416017	0.411405
	H108	H	0.899797	0.618916	0.097014
	H109	H	0.085636	0.386349	0.098967
	H110	H	0.094624	0.621575	0.906272
	H111	H	0.905746	0.384829	0.910857
	H112	H	0.090549	0.905814	0.623404
	H113	H	0.088631	0.090389	0.390797
	H114	H	0.907250	0.098340	0.622497
	H115	H	0.898312	0.913127	0.390424
	H116	H	0.611737	0.090748	0.909554
	H117	H	0.377775	0.104952	0.099240
	H118	H	0.606784	0.917233	0.092465
	H119	H	0.380469	0.916148	0.906094
	C120	C	0.373768	0.009277	0.628355
	C121	C	0.617048	0.992742	0.627864
	C122	C	0.617365	0.009093	0.385674
	C123	C	0.374658	0.992823	0.385906
	C124	C	0.617409	0.379824	0.014659
	C125	C	0.617609	0.622840	0.998301
	C126	C	0.374537	0.622660	0.014852
	C127	C	0.374507	0.379777	0.999006
	C128	C	0.004180	0.622494	0.385041
	C129	C	0.987645	0.623508	0.628542
	C130	C	0.004210	0.379815	0.627838
	C131	C	0.988100	0.379150	0.384165
	C132	C	0.874338	0.509820	0.128337
	C133	C	0.117338	0.492871	0.127667
	C134	C	0.118515	0.509855	0.884447
	C135	C	0.874688	0.493345	0.884929
	C136	C	0.117629	0.879276	0.515017
	C137	C	0.117203	0.122104	0.498358
	C138	C	0.874013	0.122078	0.514306
	C139	C	0.874006	0.879309	0.498226
	C140	C	0.503627	0.122911	0.884963
	C141	C	0.487952	0.123366	0.129292
	C142	C	0.503814	0.879474	0.128411
	C143	C	0.488057	0.879580	0.885103
	C144	C	0.376952	0.886055	0.683236
	C145	C	0.614362	0.116245	0.682629
	C146	C	0.615001	0.886047	0.329536
	C147	C	0.377226	0.115867	0.330959
	C148	C	0.672458	0.381359	0.891786
	C149	C	0.673022	0.621119	0.120926
	C150	C	0.319916	0.620008	0.891837
	C151	C	0.319194	0.382374	0.121778
	C152	C	0.881498	0.677789	0.387718
	C153	C	0.111085	0.677501	0.624458
	C154	C	0.881357	0.324930	0.624701
	C155	C	0.110506	0.323346	0.386019
	C156	C	0.881698	0.382091	0.683192
	C157	C	0.110452	0.620455	0.683014
	C158	C	0.881675	0.620036	0.329905
	C159	C	0.110795	0.381788	0.328695
	C160	C	0.378069	0.677221	0.891545
	C161	C	0.614242	0.677646	0.121428
	C162	C	0.614009	0.324306	0.891796
	C163	C	0.377722	0.325566	0.122107
	C164	C	0.672107	0.885765	0.387427
	C165	C	0.672228	0.115956	0.625447
	C166	C	0.319006	0.886117	0.625905
	C167	C	0.318852	0.115453	0.387671
	C168	C	0.877147	0.386436	0.182625
	C169	C	0.114401	0.616384	0.182559
	C170	C	0.115578	0.386631	0.829261
	C171	C	0.878612	0.616954	0.831277
	C172	C	0.173195	0.881409	0.392148
	C173	C	0.171662	0.119909	0.621459
	C174	C	0.818495	0.119512	0.391745
	C175	C	0.818575	0.881796	0.620927
	C176	C	0.380653	0.177387	0.889443
	C177	C	0.611219	0.177643	0.125602
	C178	C	0.380954	0.824760	0.125901
	C179	C	0.611174	0.825108	0.888238
	C180	C	0.381207	0.882698	0.183658
	C181	C	0.610644	0.120405	0.183985
	C182	C	0.380759	0.120406	0.830638
	C183	C	0.610738	0.882748	0.830008
	C184	C	0.876720	0.177152	0.391310
	C185	C	0.113953	0.177628	0.621125
	C186	C	0.114704	0.824659	0.391633
	C187	C	0.877767	0.825361	0.621693
	C188	C	0.172532	0.386217	0.887471
	C189	C	0.172308	0.616419	0.125178
	C190	C	0.819604	0.386281	0.125025
	C191	C	0.820107	0.616512	0.888070
	C192	C	0.395569	0.095647	0.606410
	C193	C	0.595162	0.906691	0.605822
	C194	C	0.595075	0.094601	0.408510
	C195	C	0.396608	0.906720	0.407853
	C196	C	0.595658	0.402401	0.100508
	C197	C	0.595969	0.600490	0.912523
	C198	C	0.396042	0.600823	0.100795
	C199	C	0.396188	0.401335	0.912909
	C200	C	0.089972	0.600496	0.407029
	C201	C	0.901647	0.601915	0.607173
	C202	C	0.089664	0.401925	0.605710
	C203	C	0.902531	0.401431	0.406470
	C204	C	0.896722	0.595695	0.105990
	C205	C	0.095589	0.407041	0.105546
	C206	C	0.097200	0.596430	0.906033
	C207	C	0.896373	0.406894	0.906600
	C208	C	0.096054	0.901320	0.600651
	C209	C	0.095563	0.099595	0.412577
	C210	C	0.896180	0.100025	0.600146
	C211	C	0.895983	0.901016	0.412313
	C212	C	0.589518	0.101142	0.906236
	C213	C	0.402082	0.101592	0.107350
	C214	C	0.589593	0.901618	0.106204
	C215	C	0.402367	0.900977	0.907078
	Zn216	Zn	0.495509	0.001770	0.756081
	Zn217	Zn	0.496099	0.001237	0.257489
	Zn218	Zn	0.746161	0.501331	0.006227
	Zn219	Zn	0.245787	0.500896	0.006420
	Zn220	Zn	-0.003864	0.751196	0.506625
	Zn221	Zn	-0.004008	0.250667	0.505658
	Zn222	Zn	-0.003958	0.501313	0.757122
	Zn223	Zn	-0.003908	0.501015	0.256124
	Zn224	Zn	0.495974	0.750604	0.006680
	Zn225	Zn	0.496006	0.251213	0.007375
	Zn226	Zn	0.745356	0.000740	0.506590
	Zn227	Zn	0.246129	0.000936	0.506796
	N228	N	0.410203	0.963853	0.684819
	N229	N	0.580928	0.038593	0.684461
	N230	N	0.581495	0.963591	0.328543
	N231	N	0.411435	0.038546	0.329963
	N232	N	0.674588	0.415314	0.969091
	N233	N	0.675191	0.587530	0.043396
	N234	N	0.317496	0.586729	0.969355
	N235	N	0.317391	0.415559	0.044071
	N236	N	0.958825	0.679413	0.421213
	N237	N	0.033627	0.679458	0.591246
	N238	N	0.958527	0.323529	0.590624
	N239	N	0.033267	0.321900	0.419874
	N240	N	0.958962	0.415438	0.685338
	N241	N	0.032752	0.587677	0.685722
	N242	N	0.958942	0.586392	0.328199
	N243	N	0.033567	0.415508	0.327320
	N244	N	0.411265	0.678741	0.969064
	N245	N	0.580803	0.678980	0.044172
	N246	N	0.580602	0.323183	0.969409
	N247	N	0.411197	0.323703	0.044712
	N248	N	0.673665	0.963186	0.421474
	N249	N	0.673989	0.038152	0.592069
	N250	N	0.316808	0.963794	0.592634
	N251	N	0.317111	0.037907	0.421212
	N252	N	0.910389	0.464196	0.184784
	N253	N	0.080954	0.538729	0.184081
	N254	N	0.082650	0.464500	0.827525
	N255	N	0.911904	0.539150	0.829529
	N256	N	0.175142	0.914661	0.469703
	N257	N	0.173629	0.085793	0.544032
	N258	N	0.817020	0.086062	0.469172
	N259	N	0.816433	0.914789	0.543344
	N260	N	0.458129	0.179039	0.922540
	N261	N	0.533646	0.179782	0.092449
	N262	N	0.458198	0.822599	0.092440
	N263	N	0.533725	0.822927	0.921640
	N264	N	0.458855	0.915900	0.185476
	N265	N	0.533171	0.087442	0.186179
	N266	N	0.458211	0.087229	0.827927
	N267	N	0.533256	0.915839	0.827887
	N268	N	0.910453	0.178881	0.468729
	N269	N	0.080964	0.179084	0.543653
	N270	N	0.080839	0.823189	0.468887
	N271	N	0.911446	0.823693	0.544365
	N272	N	0.174441	0.463885	0.921072
	N273	N	0.174395	0.538648	0.091657
	N274	N	0.817708	0.464085	0.091922
	N275	N	0.817612	0.538456	0.920668
	O276	O	0.509094	0.441323	0.532255
	H277	H	0.515549	0.432591	0.529852
	H278	H	0.508965	0.437222	0.524151
	O279	O	0.530669	0.440490	0.550072
	H280	H	0.529964	0.444771	0.559208
	H281	H	0.535394	0.434685	0.548201
	O282	O	1.532160	0.415514	-0.485768
	H283	H	1.534524	0.409901	-0.485575
	H284	H	1.539485	0.421723	-0.484156
	O285	O	0.552533	0.480979	0.549141
	H286	H	0.547038	0.484544	0.558927
	H287	H	0.545567	0.487877	0.544502
