data_Molecule from HDF5

_cell_length_a		16.356148
_cell_length_b		16.248097
_cell_length_c		16.142874
_cell_angle_alpha	89.965996
_cell_angle_beta	89.816874
_cell_angle_gamma	90.116829
_symmetry_space_group_name_H-M	'P 1'
_symmetry_Int_Tables_number		1

loop_
	_symmetry_equiv_pos_as_xyz
	x,y,z

loop_
	_atom_site_label
	_atom_site_type_symbol
	_atom_site_fract_x
	_atom_site_fract_y
	_atom_site_fract_z
	H0	H	0.405107	0.842384	0.713151
	H1	H	0.599081	0.171907	0.708772
	H2	H	0.602061	0.842780	0.282722
	H3	H	0.406244	0.171682	0.286069
	H4	H	0.720155	0.407924	0.832894
	H5	H	0.721761	0.608592	0.161880
	H6	H	0.290510	0.607558	0.833241
	H7	H	0.290194	0.407064	0.162223
	H8	H	0.841879	0.720583	0.397493
	H9	H	0.167266	0.721850	0.597709
	H10	H	0.841264	0.289240	0.598019
	H11	H	0.167194	0.290154	0.396849
	H12	H	0.841392	0.406300	0.713037
	H13	H	0.167987	0.603174	0.711183
	H14	H	0.841513	0.602482	0.283333
	H15	H	0.168069	0.408158	0.283564
	H16	H	0.407796	0.720904	0.832884
	H17	H	0.604211	0.722414	0.162707
	H18	H	0.604023	0.293688	0.833325
	H19	H	0.407998	0.295729	0.163293
	H20	H	0.720335	0.843387	0.395859
	H21	H	0.721272	0.168991	0.599362
	H22	H	0.287432	0.842610	0.599891
	H23	H	0.287417	0.168956	0.398363
	H24	H	0.908070	0.340278	0.209118
	H25	H	0.104968	0.669200	0.212789
	H26	H	0.101814	0.340182	0.785039
	H27	H	0.908265	0.670177	0.783075
	H28	H	0.220516	0.905023	0.334246
	H29	H	0.217627	0.106190	0.662625
	H30	H	0.789055	0.105863	0.333228
	H31	H	0.788766	0.905789	0.662333
	H32	H	0.341120	0.222682	0.900505
	H33	H	0.666922	0.223769	0.097702
	H34	H	0.342379	0.789111	0.100175
	H35	H	0.667031	0.792424	0.896466
	H36	H	0.340386	0.909097	0.212757
	H37	H	0.667146	0.106330	0.212831
	H38	H	0.339752	0.105083	0.785183
	H39	H	0.666917	0.909965	0.783486
	H40	H	0.905760	0.219296	0.332508
	H41	H	0.101884	0.220372	0.661633
	H42	H	0.103402	0.791998	0.332966
	H43	H	0.905242	0.791668	0.662620
	H44	H	0.222076	0.342207	0.895825
	H45	H	0.221400	0.669229	0.097791
	H46	H	0.787110	0.343478	0.099556
	H47	H	0.789251	0.669226	0.895392
	H48	H	0.399903	0.126180	0.590960
	H49	H	0.598755	0.888438	0.591869
	H50	H	0.595248	0.117828	0.421769
	H51	H	0.417670	0.893036	0.410091
	H52	H	0.605834	0.410580	0.119610
	H53	H	0.595358	0.607764	0.879145
	H54	H	0.412832	0.602104	0.115898
	H55	H	0.421798	0.414609	0.882812
	H56	H	0.119437	0.595192	0.406384
	H57	H	0.888997	0.596063	0.591109
	H58	H	0.118396	0.407837	0.580168
	H59	H	0.894186	0.423858	0.409037
	H60	H	0.117261	0.423200	0.591160
	H61	H	0.888360	0.600640	0.592552
	H62	H	0.121172	0.600337	0.400899
	H63	H	0.883115	0.410330	0.391079
	H64	H	0.408689	0.595698	0.114300
	H65	H	0.607396	0.598383	0.878507
	H66	H	0.598697	0.427439	0.112386
	H67	H	0.408804	0.407069	0.876566
	H68	H	0.611771	0.128040	0.402639
	H69	H	0.595057	0.889649	0.591792
	H70	H	0.412974	0.124326	0.599280
	H71	H	0.404313	0.888790	0.410037
	H72	H	0.921467	0.621120	0.092779
	H73	H	0.100380	0.390192	0.082276
	H74	H	0.096493	0.621175	0.904519
	H75	H	0.907878	0.389248	0.908835
	H76	H	0.097214	0.923810	0.613185
	H77	H	0.093831	0.099297	0.381057
	H78	H	0.913041	0.099852	0.615111
	H79	H	0.916647	0.912910	0.382317
	H80	H	0.619495	0.098050	0.903007
	H81	H	0.390335	0.101005	0.084194
	H82	H	0.619399	0.916814	0.090520
	H83	H	0.386034	0.913961	0.898831
	H84	H	0.619753	0.914125	0.090781
	H85	H	0.387692	0.096547	0.096775
	H86	H	0.621244	0.103934	0.900641
	H87	H	0.388072	0.906051	0.911378
	H88	H	0.908320	0.097058	0.615146
	H89	H	0.101567	0.100701	0.377288
	H90	H	0.086437	0.907847	0.613211
	H91	H	0.908778	0.909427	0.378295
	H92	H	0.100332	0.621996	0.907170
	H93	H	0.104461	0.386074	0.093386
	H94	H	0.911833	0.620164	0.081068
	H95	H	0.910579	0.387479	0.902071
	H96	H	0.412844	0.120217	0.584369
	H97	H	0.597776	0.889203	0.588828
	H98	H	0.585502	0.122577	0.396381
	H99	H	0.411750	0.887392	0.398541
	H100	H	0.586912	0.412002	0.113636
	H101	H	0.593988	0.593289	0.883759
	H102	H	0.416038	0.595508	0.113297
	H103	H	0.407598	0.423256	0.880485
	H104	H	0.121014	0.601774	0.408326
	H105	H	0.888664	0.600234	0.587956
	H106	H	0.124352	0.405999	0.597723
	H107	H	0.887861	0.400526	0.413075
	H108	H	0.906585	0.625745	0.094724
	H109	H	0.092567	0.389826	0.091368
	H110	H	0.101109	0.622445	0.902408
	H111	H	0.915256	0.391128	0.907329
	H112	H	0.104119	0.907486	0.620453
	H113	H	0.098810	0.092978	0.381426
	H114	H	0.913173	0.094396	0.614552
	H115	H	0.909388	0.918768	0.380565
	H116	H	0.619036	0.103207	0.907326
	H117	H	0.386248	0.109663	0.094217
	H118	H	0.619450	0.914564	0.088543
	H119	H	0.392100	0.920441	0.911609
	C120	C	0.380668	0.015040	0.620578
	C121	C	0.624943	0.998188	0.619095
	C122	C	0.625938	0.014884	0.376524
	C123	C	0.382399	0.998042	0.377316
	C124	C	0.626256	0.386997	0.006382
	C125	C	0.627442	0.628980	0.989450
	C126	C	0.384111	0.627607	0.005964
	C127	C	0.383698	0.386021	0.988723
	C128	C	0.012959	0.627426	0.375858
	C129	C	0.996195	0.627550	0.619259
	C130	C	0.012571	0.383366	0.619189
	C131	C	0.996066	0.383056	0.375253
	C132	C	0.883946	0.514221	0.118586
	C133	C	0.127267	0.497090	0.118614
	C134	C	0.127644	0.513414	0.875319
	C135	C	0.883446	0.497514	0.876425
	C136	C	0.125605	0.884257	0.506662
	C137	C	0.125632	0.126560	0.489014
	C138	C	0.882709	0.126288	0.506026
	C139	C	0.882253	0.884157	0.489118
	C140	C	0.512097	0.129931	0.875885
	C141	C	0.495798	0.130436	0.120527
	C142	C	0.512108	0.885745	0.119581
	C143	C	0.496159	0.885164	0.876862
	C144	C	0.384205	0.891461	0.675650
	C145	C	0.621043	0.122197	0.672817
	C146	C	0.623218	0.892000	0.320113
	C147	C	0.385435	0.122127	0.323039
	C148	C	0.682323	0.388063	0.882354
	C149	C	0.683223	0.627906	0.112971
	C150	C	0.328871	0.626987	0.882229
	C151	C	0.328325	0.387608	0.113050
	C152	C	0.890631	0.682706	0.377507
	C153	C	0.118729	0.683507	0.617594
	C154	C	0.889835	0.327688	0.617602
	C155	C	0.118650	0.328153	0.377043
	C156	C	0.889913	0.385824	0.674896
	C157	C	0.118985	0.624739	0.674202
	C158	C	0.890364	0.623932	0.320540
	C159	C	0.118978	0.386614	0.320404
	C160	C	0.387116	0.683294	0.882106
	C161	C	0.625001	0.684553	0.113267
	C162	C	0.624645	0.331147	0.882519
	C163	C	0.386541	0.332023	0.113528
	C164	C	0.681468	0.892021	0.377014
	C165	C	0.681396	0.120793	0.618096
	C166	C	0.325256	0.891762	0.619651
	C167	C	0.326386	0.120785	0.378918
	C168	C	0.886597	0.390144	0.172974
	C169	C	0.124866	0.620285	0.174766
	C170	C	0.123994	0.389988	0.820953
	C171	C	0.887070	0.620892	0.820505
	C172	C	0.181956	0.885369	0.383183
	C173	C	0.179816	0.125308	0.613267
	C174	C	0.826987	0.125500	0.382403
	C175	C	0.826385	0.885503	0.612912
	C176	C	0.389586	0.184929	0.879584
	C177	C	0.618461	0.185598	0.118012
	C178	C	0.390356	0.828492	0.119052
	C179	C	0.618425	0.830355	0.877239
	C180	C	0.389275	0.888199	0.174965
	C181	C	0.618567	0.127158	0.175235
	C182	C	0.389011	0.126583	0.822051
	C183	C	0.618275	0.889076	0.821059
	C184	C	0.885072	0.181718	0.381969
	C185	C	0.122591	0.182321	0.612794
	C186	C	0.123756	0.829100	0.382573
	C187	C	0.884340	0.828715	0.613086
	C188	C	0.183494	0.390818	0.876472
	C189	C	0.182885	0.620404	0.117515
	C190	C	0.826695	0.391690	0.118264
	C191	C	0.827844	0.620478	0.876333
	C192	C	0.402178	0.101115	0.598138
	C193	C	0.603194	0.911696	0.597170
	C194	C	0.603973	0.100611	0.400002
	C195	C	0.404730	0.912054	0.399560
	C196	C	0.603752	0.410056	0.092742
	C197	C	0.605391	0.606434	0.902804
	C198	C	0.406092	0.604657	0.092123
	C199	C	0.406337	0.408350	0.902230
	C200	C	0.098265	0.605439	0.398559
	C201	C	0.910887	0.605512	0.596966
	C202	C	0.097879	0.405730	0.596252
	C203	C	0.910471	0.404958	0.397859
	C204	C	0.906543	0.599950	0.096083
	C205	C	0.105546	0.410984	0.095611
	C206	C	0.105730	0.599545	0.898126
	C207	C	0.904985	0.411465	0.899398
	C208	C	0.102631	0.906474	0.593190
	C209	C	0.104321	0.104208	0.402446
	C210	C	0.904964	0.103803	0.592589
	C211	C	0.904774	0.907062	0.402655
	C212	C	0.597814	0.108170	0.897268
	C213	C	0.410380	0.108720	0.098361
	C214	C	0.597505	0.908557	0.096808
	C215	C	0.410699	0.907094	0.900368
	Zn216	Zn	0.503216	0.006933	0.747939
	Zn217	Zn	0.503638	0.007460	0.248766
	Zn218	Zn	0.754957	0.507096	-0.002119
	Zn219	Zn	0.255940	0.505978	-0.002905
	Zn220	Zn	0.004375	0.756266	0.497520
	Zn221	Zn	0.004056	0.254337	0.496971
	Zn222	Zn	0.004931	0.505088	0.747651
	Zn223	Zn	0.005040	0.505115	0.246910
	Zn224	Zn	0.505111	0.756165	-0.001795
	Zn225	Zn	0.504650	0.259221	-0.001841
	Zn226	Zn	0.754521	0.006108	0.497952
	Zn227	Zn	0.253446	0.005559	0.498152
	N228	N	0.417898	0.969079	0.676464
	N229	N	0.586517	0.044739	0.673613
	N230	N	0.588971	0.969384	0.319990
	N231	N	0.419431	0.044651	0.321701
	N232	N	0.683534	0.421905	0.960538
	N233	N	0.684614	0.593949	0.034929
	N234	N	0.326873	0.592811	0.960168
	N235	N	0.326472	0.420596	0.034539
	N236	N	0.967980	0.684985	0.410973
	N237	N	0.041375	0.685445	0.584342
	N238	N	0.967060	0.325997	0.583594
	N239	N	0.041192	0.325770	0.410475
	N240	N	0.967081	0.419537	0.676130
	N241	N	0.042026	0.590408	0.675199
	N242	N	0.967471	0.590419	0.319212
	N243	N	0.041953	0.420238	0.319411
	N244	N	0.420727	0.683732	0.960156
	N245	N	0.591147	0.685415	0.035468
	N246	N	0.590616	0.330219	0.960683
	N247	N	0.420410	0.331089	0.035457
	N248	N	0.683448	0.969472	0.411219
	N249	N	0.684023	0.042726	0.585686
	N250	N	0.322950	0.969603	0.586188
	N251	N	0.324547	0.042715	0.411985
	N252	N	0.921539	0.467302	0.173485
	N253	N	0.090950	0.542656	0.175451
	N254	N	0.089801	0.467228	0.820274
	N255	N	0.920965	0.543330	0.820544
	N256	N	0.183321	0.918828	0.461402
	N257	N	0.181899	0.091228	0.535296
	N258	N	0.825473	0.091775	0.460598
	N259	N	0.824908	0.919142	0.534652
	N260	N	0.467172	0.187118	0.912440
	N261	N	0.541200	0.187749	0.084635
	N262	N	0.467712	0.827025	0.085260
	N263	N	0.541278	0.827924	0.911427
	N264	N	0.465974	0.923340	0.175346
	N265	N	0.541267	0.093577	0.177079
	N266	N	0.466146	0.093048	0.819837
	N267	N	0.541015	0.922279	0.820573
	N268	N	0.919102	0.182249	0.459822
	N269	N	0.089312	0.183008	0.534684
	N270	N	0.089177	0.828542	0.460365
	N271	N	0.918585	0.827805	0.535165
	N272	N	0.185939	0.468867	0.909546
	N273	N	0.184860	0.542728	0.083623
	N274	N	0.824826	0.469786	0.085248
	N275	N	0.825567	0.542951	0.910460
	O276	O	-0.030130	-0.119509	0.040744
	H277	H	-0.029826	-0.131491	0.044113
	H278	H	-0.041236	-0.116286	0.031375
	O279	O	0.497476	0.497760	0.458185
	H280	H	0.501107	0.506803	0.461296
	H281	H	0.495891	0.488499	0.459322
	O282	O	0.543217	0.467034	0.557448
	H283	H	0.536622	0.464829	0.557616
	H284	H	0.535662	0.467775	0.545770
	O285	O	1.071815	-0.074551	0.944170
	H286	H	1.075984	-0.081559	0.950198
	H287	H	1.067523	-0.080829	0.945954
	O288	O	1.000862	-0.030264	-0.003142
	H289	H	0.992957	-0.028195	-0.004955
	H290	H	0.993234	-0.026317	-0.006214
	O291	O	0.491121	0.537419	0.410293
	H292	H	0.499741	0.537923	0.401604
	H293	H	0.497057	0.541352	0.406814
	O294	O	1.052125	0.059179	1.012042
	H295	H	1.042034	0.066619	1.004965
	H296	H	1.050489	0.044221	1.007439
	O297	O	-0.010020	-0.044579	0.001728
	H298	H	0.006651	-0.032047	0.004703
	H299	H	-0.005154	-0.047660	0.006267
	O300	O	0.464340	0.473313	0.492716
	H301	H	0.469496	0.477388	0.493741
	H302	H	0.458420	0.475193	0.477932
	O303	O	1.027082	0.040105	0.020112
	H304	H	1.043865	0.042015	0.021738
	H305	H	1.037216	0.029560	0.015547
	O306	O	0.954235	-0.048972	-0.013573
	H307	H	0.966034	-0.051312	-0.001335
	H308	H	0.958503	-0.048768	-0.018291
	O309	O	-0.010528	-0.031772	1.007414
	H310	H	-0.013258	-0.020988	1.000114
	H311	H	-0.006457	-0.030047	1.013860
	O312	O	1.033728	0.961974	0.995971
	H313	H	1.040861	0.962267	0.992396
	H314	H	1.028129	0.961263	1.001317
	O315	O	0.560928	0.489016	0.503743
	H316	H	0.560043	0.494011	0.502108
	H317	H	0.565905	0.489831	0.507302
	O318	O	0.466381	0.550616	0.387898
	H319	H	0.454099	0.557021	0.391512
	H320	H	0.477294	0.549310	0.382193
	O321	O	0.017115	0.964854	0.980507
	H322	H	0.002533	0.967759	0.973131
	H323	H	0.013541	0.961305	0.981348
	O324	O	0.466232	0.520937	0.395089
	H325	H	0.467796	0.521050	0.396113
	H326	H	0.470376	0.531981	0.386039
	O327	O	0.573100	0.478927	0.460988
	H328	H	0.570524	0.486719	0.466201
	H329	H	0.573123	0.478273	0.453234
	O330	O	0.429810	0.518361	0.523356
	H331	H	0.423452	0.529270	0.515040
	H332	H	0.433673	0.519785	0.528877
	O333	O	0.471942	0.572965	0.593000
	H334	H	0.473843	0.579184	0.596070
	H335	H	0.469144	0.565578	0.592373
	O336	O	0.571354	0.459038	0.527369
	H337	H	0.567712	0.451507	0.546599
	H338	H	0.576543	0.444427	0.514555
	O339	O	1.073547	1.020483	-0.003191
	H340	H	1.079177	1.015412	-0.002700
	H341	H	1.081490	1.020320	0.000449
	O342	O	0.443613	0.512359	0.531660
	H343	H	0.454015	0.498925	0.528967
	H344	H	0.447267	0.513433	0.535215
	O345	O	0.588785	0.572324	0.468403
	H346	H	0.599232	0.569062	0.473148
	H347	H	0.586668	0.568791	0.482481
	O348	O	-0.030025	-0.014222	-0.066891
	H349	H	-0.013693	-0.019054	-0.069699
	H350	H	-0.039576	-0.011677	-0.060162
	O351	O	-0.092790	0.927115	0.985206
	H352	H	-0.103485	0.936533	0.991245
	H353	H	-0.098545	0.926750	0.982137
	O354	O	0.580485	0.505210	0.535503
	H355	H	0.574492	0.517881	0.539362
	H356	H	0.579394	0.496878	0.546617
	O357	O	-0.534885	1.595242	1.541501
	H358	H	-0.541392	1.589885	1.541370
	H359	H	-0.531185	1.594483	1.544183
