data_Molecule from HDF5

_cell_length_a		16.482409
_cell_length_b		16.502209
_cell_length_c		16.326456
_cell_angle_alpha	89.979984
_cell_angle_beta	89.941272
_cell_angle_gamma	90.047658
_symmetry_space_group_name_H-M	'P 1'
_symmetry_Int_Tables_number		1

loop_
	_symmetry_equiv_pos_as_xyz
	x,y,z

loop_
	_atom_site_label
	_atom_site_type_symbol
	_atom_site_fract_x
	_atom_site_fract_y
	_atom_site_fract_z
	H0	H	0.385919	0.852001	0.735894
	H1	H	0.607708	0.162157	0.733996
	H2	H	0.604525	0.849409	0.283481
	H3	H	0.394054	0.165434	0.288917
	H4	H	0.719604	0.398591	0.851535
	H5	H	0.718901	0.616376	0.165698
	H6	H	0.269850	0.615199	0.852509
	H7	H	0.271658	0.397350	0.166966
	H8	H	0.842005	0.733745	0.397480
	H9	H	0.152397	0.730531	0.620084
	H10	H	0.840815	0.278130	0.621282
	H11	H	0.149543	0.274827	0.394897
	H12	H	0.837986	0.399176	0.732030
	H13	H	0.152157	0.613675	0.735729
	H14	H	0.838833	0.613236	0.285900
	H15	H	0.149790	0.392032	0.280306
	H16	H	0.383647	0.731978	0.852116
	H17	H	0.605841	0.733959	0.164470
	H18	H	0.604655	0.282486	0.851831
	H19	H	0.383967	0.279872	0.165530
	H20	H	0.723018	0.850092	0.396602
	H21	H	0.727397	0.158680	0.622395
	H22	H	0.270022	0.850406	0.619945
	H23	H	0.272979	0.163003	0.400898
	H24	H	0.884611	0.350011	0.235199
	H25	H	0.106928	0.659139	0.239643
	H26	H	0.100542	0.347850	0.787056
	H27	H	0.889266	0.662834	0.787560
	H28	H	0.219895	0.896016	0.351299
	H29	H	0.219317	0.113597	0.667030
	H30	H	0.772375	0.114504	0.351478
	H31	H	0.767458	0.891528	0.663673
	H32	H	0.341155	0.234684	0.895348
	H33	H	0.649876	0.236112	0.122323
	H34	H	0.338493	0.784262	0.115712
	H35	H	0.649284	0.778998	0.893871
	H36	H	0.337654	0.901471	0.230702
	H37	H	0.654344	0.113639	0.231409
	H38	H	0.341890	0.119633	0.779303
	H39	H	0.651467	0.898424	0.782259
	H40	H	0.884328	0.231580	0.353356
	H41	H	0.103671	0.228273	0.667344
	H42	H	0.106073	0.779571	0.352593
	H43	H	0.886895	0.781134	0.666799
	H44	H	0.219367	0.349163	0.901027
	H45	H	0.223540	0.659783	0.123600
	H46	H	0.762141	0.354322	0.126521
	H47	H	0.771607	0.662285	0.900899
	H48	H	0.409973	0.114523	0.585340
	H49	H	0.577422	0.897878	0.590991
	H50	H	0.585918	0.114495	0.429108
	H51	H	0.405858	0.892539	0.418391
	H52	H	0.584338	0.421786	0.122573
	H53	H	0.585008	0.596585	0.892983
	H54	H	0.406128	0.596636	0.124069
	H55	H	0.406463	0.418045	0.894629
	H56	H	0.103226	0.588429	0.430689
	H57	H	0.881114	0.598526	0.599850
	H58	H	0.106708	0.415566	0.593470
	H59	H	0.882653	0.413806	0.420858
	H60	H	0.106921	0.420321	0.595498
	H61	H	0.885084	0.594873	0.595123
	H62	H	0.105478	0.586776	0.423181
	H63	H	0.885965	0.415315	0.429501
	H64	H	0.408261	0.591597	0.121188
	H65	H	0.584382	0.590314	0.896029
	H66	H	0.576204	0.427583	0.117440
	H67	H	0.407208	0.422987	0.896976
	H68	H	0.591835	0.121269	0.418938
	H69	H	0.583769	0.896113	0.589969
	H70	H	0.400691	0.121131	0.595323
	H71	H	0.408687	0.894068	0.419792
	H72	H	0.910375	0.613671	0.088463
	H73	H	0.078943	0.396073	0.095370
	H74	H	0.084879	0.617255	0.924992
	H75	H	0.905183	0.392664	0.922618
	H76	H	0.083371	0.918033	0.622435
	H77	H	0.083264	0.090378	0.396442
	H78	H	0.909227	0.083866	0.619557
	H79	H	0.910152	0.921420	0.397064
	H80	H	0.610125	0.097314	0.917575
	H81	H	0.383910	0.091044	0.101226
	H82	H	0.607034	0.918998	0.091926
	H83	H	0.380211	0.913751	0.918695
	H84	H	0.607588	0.921255	0.097782
	H85	H	0.382877	0.100429	0.096248
	H86	H	0.605897	0.097912	0.928531
	H87	H	0.387237	0.919581	0.931873
	H88	H	0.917486	0.092275	0.619377
	H89	H	0.081971	0.091625	0.396272
	H90	H	0.083510	0.916471	0.622543
	H91	H	0.913710	0.919329	0.398013
	H92	H	0.084739	0.617674	0.920921
	H93	H	0.082203	0.396353	0.091240
	H94	H	0.899636	0.620066	0.097182
	H95	H	0.906938	0.392514	0.921785
	H96	H	0.414748	0.117712	0.599225
	H97	H	0.581096	0.895152	0.596317
	H98	H	0.578778	0.116945	0.417161
	H99	H	0.405439	0.893949	0.421296
	H100	H	0.574195	0.417458	0.121031
	H101	H	0.579132	0.594702	0.896111
	H102	H	0.412403	0.596611	0.121306
	H103	H	0.411117	0.419273	0.897052
	H104	H	0.106713	0.594406	0.426078
	H105	H	0.883897	0.592410	0.601112
	H106	H	0.108839	0.416671	0.598244
	H107	H	0.885567	0.422517	0.422933
	H108	H	0.913769	0.617491	0.103006
	H109	H	0.083715	0.393711	0.095765
	H110	H	0.081751	0.615749	0.923017
	H111	H	0.906430	0.394050	0.923627
	H112	H	0.084683	0.917720	0.623295
	H113	H	0.084125	0.092028	0.396019
	H114	H	0.907476	0.094350	0.624158
	H115	H	0.910744	0.917654	0.395396
	H116	H	0.604842	0.087898	0.922640
	H117	H	0.387244	0.091984	0.091085
	H118	H	0.609694	0.915371	0.096530
	H119	H	0.385297	0.929066	0.918709
	C120	C	0.374369	0.015042	0.629368
	C121	C	0.617546	0.998037	0.628785
	C122	C	0.619496	0.014396	0.386585
	C123	C	0.374400	0.997868	0.386931
	C124	C	0.614981	0.386787	0.017355
	C125	C	0.616857	0.628621	0.999222
	C126	C	0.373721	0.628549	0.018323
	C127	C	0.374149	0.384866	1.000372
	C128	C	0.002838	0.624980	0.390717
	C129	C	0.986844	0.628419	0.632918
	C130	C	0.003737	0.384450	0.629919
	C131	C	0.986729	0.381714	0.387626
	C132	C	0.872572	0.514652	0.131692
	C133	C	0.117166	0.496837	0.131352
	C134	C	0.117460	0.513960	0.888290
	C135	C	0.873301	0.496944	0.888840
	C136	C	0.118450	0.883295	0.518493
	C137	C	0.116925	0.125871	0.500612
	C138	C	0.875880	0.125317	0.517580
	C139	C	0.875574	0.884097	0.500266
	C140	C	0.504793	0.129527	0.886432
	C141	C	0.488070	0.128339	0.130291
	C142	C	0.504500	0.885044	0.129950
	C143	C	0.486872	0.886125	0.887053
	C144	C	0.368845	0.898505	0.694243
	C145	C	0.624254	0.114889	0.692857
	C146	C	0.622778	0.896729	0.324033
	C147	C	0.374123	0.117259	0.327725
	C148	C	0.678932	0.381331	0.899190
	C149	C	0.678649	0.633703	0.118196
	C150	C	0.310390	0.632938	0.900185
	C151	C	0.312232	0.380199	0.119386
	C152	C	0.887401	0.690243	0.382932
	C153	C	0.105139	0.689866	0.637275
	C154	C	0.886687	0.321033	0.636212
	C155	C	0.102754	0.316763	0.379419
	C156	C	0.885474	0.381245	0.691709
	C157	C	0.104925	0.631529	0.695098
	C158	C	0.886027	0.630539	0.326757
	C159	C	0.102862	0.375590	0.322184
	C160	C	0.367568	0.690802	0.899565
	C161	C	0.622104	0.692336	0.117229
	C162	C	0.621373	0.323657	0.899172
	C163	C	0.368176	0.321399	0.118316
	C164	C	0.682053	0.897052	0.380411
	C165	C	0.684245	0.113041	0.637184
	C166	C	0.311225	0.897948	0.636148
	C167	C	0.313879	0.116137	0.383632
	C168	C	0.866821	0.397715	0.195189
	C169	C	0.123809	0.612692	0.197484
	C170	C	0.119954	0.395457	0.826780
	C171	C	0.871114	0.615267	0.827619
	C172	C	0.179943	0.878645	0.399406
	C173	C	0.178999	0.130602	0.619406
	C174	C	0.813185	0.130746	0.399068
	C175	C	0.810157	0.876615	0.617219
	C176	C	0.388390	0.193360	0.879436
	C177	C	0.604472	0.192723	0.136860
	C178	C	0.385944	0.824317	0.133653
	C179	C	0.602876	0.821042	0.878799
	C180	C	0.385587	0.882828	0.191096
	C181	C	0.606356	0.132086	0.191840
	C182	C	0.388882	0.136130	0.820866
	C183	C	0.603989	0.880711	0.822880
	C184	C	0.869098	0.189472	0.399932
	C185	C	0.121309	0.187985	0.619542
	C186	C	0.122965	0.820735	0.399638
	C187	C	0.869664	0.821153	0.618747
	C188	C	0.178845	0.396152	0.883865
	C189	C	0.181764	0.612956	0.139284
	C190	C	0.805777	0.399824	0.140522
	C191	C	0.812255	0.615041	0.884364
	C192	C	0.400923	0.096554	0.601342
	C193	C	0.588908	0.917457	0.600579
	C194	C	0.593290	0.096111	0.414020
	C195	C	0.399304	0.915142	0.412346
	C196	C	0.586649	0.414315	0.099061
	C197	C	0.590475	0.601547	0.916745
	C198	C	0.400980	0.602357	0.100610
	C199	C	0.400654	0.412137	0.917841
	C200	C	0.084080	0.597357	0.418592
	C201	C	0.904846	0.602625	0.606344
	C202	C	0.085878	0.410353	0.603205
	C203	C	0.905780	0.409370	0.416322
	C204	C	0.900310	0.595729	0.104081
	C205	C	0.089377	0.416384	0.102513
	C206	C	0.091432	0.595605	0.915095
	C207	C	0.898881	0.414639	0.915264
	C208	C	0.091643	0.909821	0.601008
	C209	C	0.090472	0.099045	0.417888
	C210	C	0.903472	0.098005	0.599503
	C211	C	0.903469	0.911580	0.418249
	C212	C	0.585876	0.102187	0.914927
	C213	C	0.406207	0.102156	0.103807
	C214	C	0.586502	0.910955	0.103408
	C215	C	0.405576	0.913173	0.914989
	Zn216	Zn	0.496259	0.007212	0.758035
	Zn217	Zn	0.497213	0.006379	0.258651
	Zn218	Zn	0.744283	0.506523	0.009680
	Zn219	Zn	0.246534	0.505419	0.009625
	Zn220	Zn	-0.003420	0.756226	0.509651
	Zn221	Zn	-0.004176	0.253920	0.510368
	Zn222	Zn	-0.004921	0.504679	0.760144
	Zn223	Zn	-0.005297	0.505398	0.259569
	Zn224	Zn	0.495197	0.756195	0.007475
	Zn225	Zn	0.495489	0.257208	0.009314
	Zn226	Zn	0.747578	0.004687	0.508608
	Zn227	Zn	0.245226	0.005743	0.508385
	N228	N	0.407272	0.972384	0.690310
	N229	N	0.583369	0.042399	0.687723
	N230	N	0.584634	0.970650	0.327672
	N231	N	0.410769	0.042476	0.329364
	N232	N	0.675042	0.419783	0.973859
	N233	N	0.675405	0.595023	0.043842
	N234	N	0.313698	0.595194	0.975233
	N235	N	0.315907	0.418990	0.045037
	N236	N	0.961056	0.686735	0.421934
	N237	N	0.030610	0.688355	0.599550
	N238	N	0.961168	0.323112	0.598134
	N239	N	0.029342	0.320413	0.419141
	N240	N	0.959146	0.420018	0.687861
	N241	N	0.030430	0.594069	0.692485
	N242	N	0.958806	0.590275	0.331795
	N243	N	0.029685	0.415378	0.327010
	N244	N	0.406417	0.688140	0.973930
	N245	N	0.584436	0.689517	0.042073
	N246	N	0.582449	0.326863	0.973607
	N247	N	0.405593	0.323895	0.043030
	N248	N	0.680259	0.971471	0.418337
	N249	N	0.680222	0.039381	0.598204
	N250	N	0.314374	0.971538	0.596776
	N251	N	0.313782	0.040676	0.419373
	N252	N	0.908055	0.469861	0.189430
	N253	N	0.084563	0.539378	0.192786
	N254	N	0.082699	0.469784	0.829265
	N255	N	0.908653	0.540869	0.830435
	N256	N	0.177317	0.916808	0.474272
	N257	N	0.176227	0.092759	0.544487
	N258	N	0.817093	0.091494	0.473223
	N259	N	0.813582	0.914855	0.542473
	N260	N	0.461572	0.189413	0.919465
	N261	N	0.529802	0.190636	0.099479
	N262	N	0.460813	0.825473	0.096429
	N263	N	0.529013	0.824133	0.917966
	N264	N	0.460506	0.919639	0.189143
	N265	N	0.533077	0.092629	0.187787
	N266	N	0.462420	0.097013	0.825050
	N267	N	0.530812	0.920304	0.827775
	N268	N	0.907596	0.185892	0.474563
	N269	N	0.083826	0.185415	0.544316
	N270	N	0.085451	0.823497	0.474807
	N271	N	0.909916	0.826007	0.545046
	N272	N	0.177458	0.470858	0.921295
	N273	N	0.177599	0.540158	0.098754
	N274	N	0.809164	0.473787	0.101689
	N275	N	0.813620	0.540441	0.921704
	O276	O	0.703530	0.526559	0.720970
	H277	H	0.685020	0.498691	0.704914
	H278	H	0.724474	0.521620	0.747275
	O279	O	0.939341	0.061171	1.222603
	H280	H	0.946541	0.073909	1.192222
	H281	H	0.972262	0.035435	1.219287
	O282	O	0.435018	0.451747	0.294418
	H283	H	0.419964	0.477329	0.296097
	H284	H	0.419412	0.458214	0.301397
	O285	O	0.499965	0.477693	0.521276
	H286	H	0.512376	0.455938	0.532445
	H287	H	0.520423	0.471974	0.520600
	O288	O	0.938104	1.127317	0.061716
	H289	H	0.959239	1.151489	0.042249
	H290	H	0.894538	1.129708	0.047890
	O291	O	0.708467	0.448356	0.566715
	H292	H	0.713733	0.468723	0.561447
	H293	H	0.713757	0.404819	0.551941
	O294	O	-0.217083	0.022620	0.797803
	H295	H	-0.245811	0.026841	0.755146
	H296	H	-0.168184	-0.002569	0.786980
	O297	O	0.519606	0.302411	0.302285
	H298	H	0.505538	0.301948	0.282676
	H299	H	0.497716	0.310357	0.303210
	O300	O	0.710890	0.287435	0.495894
	H301	H	0.712725	0.288382	0.451369
	H302	H	0.725440	0.269179	0.483293
	O303	O	-0.225430	1.227932	-0.007609
	H304	H	-0.245398	1.265964	-0.007565
	H305	H	-0.204218	1.234005	-0.020937
	O306	O	0.545424	0.710045	0.452894
	H307	H	0.540833	0.688771	0.452440
	H308	H	0.537209	0.717433	0.415658
	O309	O	1.277863	-0.279557	0.488048
	H310	H	1.252051	-0.241834	0.489103
	H311	H	1.305359	-0.274226	0.513914
	O312	O	-0.171152	0.827462	1.188760
	H313	H	-0.187733	0.879256	1.196923
	H314	H	-0.186400	0.812780	1.136609
	O315	O	0.680387	0.326447	0.337515
	H316	H	0.688837	0.380847	0.326130
	H317	H	0.627545	0.315769	0.323591
	O318	O	1.207923	-0.210185	-0.008665
	H319	H	1.238542	-0.245035	-0.010564
	H320	H	1.168047	-0.219722	0.016382
	O321	O	-0.217795	-0.212414	0.029408
	H322	H	-0.249321	-0.209282	0.018365
	H323	H	-0.241761	-0.200844	0.014248
	O324	O	0.429680	0.570182	0.724543
	H325	H	0.429012	0.599310	0.725660
	H326	H	0.454378	0.565387	0.723252
	O327	O	0.273150	0.291619	0.525451
	H328	H	0.252196	0.271999	0.549815
	H329	H	0.274931	0.287767	0.561585
	O330	O	-0.067963	0.951068	-0.212996
	H331	H	-0.044805	0.935519	-0.204165
	H332	H	-0.036322	0.961368	-0.204160
	O333	O	0.990352	-0.202702	1.214045
	H334	H	0.958408	-0.207422	1.227849
	H335	H	0.976485	-0.185351	1.219945
	O336	O	0.058720	0.054870	-0.199143
	H337	H	0.075666	0.064611	-0.184935
	H338	H	0.086039	0.036773	-0.193379
	O339	O	0.059504	0.770129	1.065312
	H340	H	0.041414	0.787043	1.092529
	H341	H	0.047325	0.759346	1.077793
	O342	O	-0.022127	1.226362	1.030379
	H343	H	0.014755	1.228822	1.014455
	H344	H	-0.001708	1.216451	1.062808
	O345	O	1.218371	0.989010	-0.206153
	H346	H	1.216599	0.946970	-0.204097
	H347	H	1.243159	0.971248	-0.232959
	O348	O	0.510201	0.726737	0.723432
	H349	H	0.543197	0.733711	0.732573
	H350	H	0.536640	0.743029	0.740523
	O351	O	-0.214174	0.987792	1.218764
	H352	H	-0.240016	0.989460	1.252798
	H353	H	-0.172737	1.011304	1.229095
	O354	O	0.120034	1.163491	-0.042978
	H355	H	0.149448	1.152104	-0.043586
	H356	H	0.115927	1.147951	-0.073857
	O357	O	-0.230797	-0.064694	0.952688
	H358	H	-0.231397	-0.035227	0.934923
	H359	H	-0.232022	-0.030348	0.955849
	O360	O	0.494280	0.515631	0.494468
	H361	H	0.506156	0.496506	0.515813
	H362	H	0.488966	0.527539	0.501068
	O363	O	0.479285	-0.702345	0.719170
	H364	H	0.503073	-0.707600	0.693231
	H365	H	0.484130	-0.733672	0.740513
	O366	O	0.543183	0.454266	0.716697
	H367	H	0.526084	0.426935	0.732746
	H368	H	0.554050	0.460862	0.690924
	O369	O	0.276977	0.523133	0.297684
	H370	H	0.264766	0.496638	0.346546
	H371	H	0.231810	0.525435	0.266345
	O372	O	1.218544	0.024736	0.997609
	H373	H	1.212442	-0.008320	1.011200
	H374	H	1.219633	0.005720	0.988637
	O375	O	0.702041	0.712046	0.525333
	H376	H	0.706661	0.695052	0.502267
	H377	H	0.707757	0.731750	0.514843
	O378	O	0.431292	0.300830	0.449741
	H379	H	0.420696	0.296172	0.455941
	H380	H	0.410487	0.308901	0.442727
	O381	O	0.267338	0.446737	0.446515
	H382	H	0.279026	0.441460	0.473520
	H383	H	0.274879	0.429452	0.472794
	O384	O	0.316712	0.323874	0.682864
	H385	H	0.305105	0.376818	0.697439
	H386	H	0.370428	0.315615	0.696256
	O387	O	0.118137	-0.028107	1.026952
	H388	H	0.099571	-0.034952	1.024341
	H389	H	0.130251	-0.041222	1.036947
	O390	O	-0.060211	-0.208895	-0.048829
	H391	H	-0.048145	-0.197398	-0.025849
	H392	H	-0.098385	-0.213122	-0.027388
	O393	O	0.819601	1.183614	0.835134
	H394	H	0.806330	1.132780	0.827472
	H395	H	0.834863	1.195360	0.857260
	O396	O	0.982900	0.208337	-0.189649
	H397	H	0.984953	0.183289	-0.180727
	H398	H	0.975856	0.219085	-0.205151
	O399	O	1.213306	0.220076	1.028555
	H400	H	1.233097	0.197759	1.007813
	H401	H	1.246000	0.226641	1.021732
	O402	O	1.474903	0.728586	0.286795
	H403	H	1.421796	0.713652	0.301005
	H404	H	1.468453	0.768023	0.250548
	O405	O	0.974938	0.966590	-0.016245
	H406	H	0.951078	0.988602	0.004154
	H407	H	0.962239	0.950683	-0.018779
	O408	O	1.066722	-0.044161	0.209917
	H409	H	1.091111	-0.039916	0.222398
	H410	H	1.088803	-0.053924	0.190797
	O411	O	1.176344	0.833642	-0.170276
	H412	H	1.124291	0.820962	-0.179854
	H413	H	1.182745	0.820676	-0.118406
	O414	O	0.014950	0.795936	0.795481
	H415	H	0.006141	0.772684	0.779927
	H416	H	-0.007674	0.784122	0.824202
	O417	O	0.427451	0.728087	0.566178
	H418	H	0.459357	0.724671	0.557531
	H419	H	0.440560	0.729107	0.594326
	O420	O	0.731095	0.563949	0.456688
	H421	H	0.741136	0.564330	0.453564
	H422	H	0.730462	0.554448	0.440425
	O423	O	0.174386	1.184648	0.190189
	H424	H	0.186477	1.197634	0.136086
	H425	H	0.119483	1.196047	0.197761
	O426	O	0.553546	0.572176	0.295304
	H427	H	0.533122	0.579014	0.322461
	H428	H	0.530966	0.597293	0.285361
	O429	O	0.698959	0.489998	0.305884
	H430	H	0.707440	0.502698	0.288312
	H431	H	0.672323	0.511874	0.295918
	O432	O	0.556645	0.282260	0.567358
	H433	H	0.590293	0.272169	0.545899
	H434	H	0.544863	0.294724	0.548989
	O435	O	0.668594	0.688925	0.688514
	H436	H	0.681319	0.698521	0.634402
	H437	H	0.682516	0.635819	0.698372
	O438	O	0.010683	0.217412	0.223426
	H439	H	0.007404	0.243978	0.251630
	H440	H	-0.008820	0.196251	0.227047
	O441	O	0.772625	0.064501	0.059306
	H442	H	0.763861	0.105020	0.058437
	H443	H	0.772207	0.067391	0.089636
	O444	O	0.280162	1.481383	0.723766
	H445	H	0.249760	1.485732	0.751631
	H446	H	0.294827	1.511847	0.710069
	O447	O	0.218151	0.030931	0.234143
	H448	H	0.239202	0.052629	0.254736
	H449	H	0.221793	0.068567	0.237290
	O450	O	0.320542	0.684065	0.328081
	H451	H	0.305402	0.695106	0.381492
	H452	H	0.307258	0.630233	0.318259
	O453	O	0.290699	0.566885	0.566742
	H454	H	0.293791	0.588444	0.555767
	H455	H	0.306368	0.565990	0.573730
