data_Molecule from HDF5

_cell_length_a		16.269413
_cell_length_b		16.407835
_cell_length_c		16.208853
_cell_angle_alpha	90.102658
_cell_angle_beta	89.942686
_cell_angle_gamma	89.918477
_symmetry_space_group_name_H-M	'P 1'
_symmetry_Int_Tables_number		1

loop_
	_symmetry_equiv_pos_as_xyz
	x,y,z

loop_
	_atom_site_label
	_atom_site_type_symbol
	_atom_site_fract_x
	_atom_site_fract_y
	_atom_site_fract_z
	H0	H	0.402345	0.836280	0.722629
	H1	H	0.597920	0.161558	0.721702
	H2	H	0.600868	0.836423	0.291013
	H3	H	0.404895	0.162869	0.295561
	H4	H	0.714435	0.402255	0.842460
	H5	H	0.714419	0.596584	0.172031
	H6	H	0.288112	0.595939	0.842668
	H7	H	0.289324	0.402484	0.171778
	H8	H	0.839005	0.714369	0.404815
	H9	H	0.164102	0.714363	0.608059
	H10	H	0.837678	0.282704	0.607930
	H11	H	0.163904	0.281771	0.406240
	H12	H	0.837415	0.401554	0.721465
	H13	H	0.165903	0.595358	0.720176
	H14	H	0.837402	0.594338	0.294478
	H15	H	0.164897	0.399397	0.292048
	H16	H	0.401760	0.714353	0.843771
	H17	H	0.602152	0.714948	0.170366
	H18	H	0.601264	0.283290	0.843038
	H19	H	0.401918	0.284864	0.170906
	H20	H	0.716981	0.835921	0.406851
	H21	H	0.717181	0.161124	0.606403
	H22	H	0.286274	0.836207	0.606049
	H23	H	0.284714	0.161066	0.408776
	H24	H	0.902574	0.335962	0.220974
	H25	H	0.099092	0.660505	0.223070
	H26	H	0.100154	0.335328	0.792708
	H27	H	0.902547	0.661293	0.791637
	H28	H	0.214285	0.900971	0.341808
	H29	H	0.213200	0.094882	0.671594
	H30	H	0.789366	0.093896	0.341597
	H31	H	0.787354	0.900710	0.671153
	H32	H	0.337903	0.214966	0.907030
	H33	H	0.664535	0.214930	0.107569
	H34	H	0.337562	0.784696	0.107047
	H35	H	0.664068	0.781705	0.905694
	H36	H	0.337503	0.904039	0.220369
	H37	H	0.666265	0.095000	0.219724
	H38	H	0.337074	0.096872	0.793817
	H39	H	0.665740	0.901561	0.793417
	H40	H	0.900413	0.214033	0.343165
	H41	H	0.101257	0.213755	0.670307
	H42	H	0.101911	0.782364	0.343258
	H43	H	0.901910	0.782991	0.670575
	H44	H	0.217760	0.336272	0.908605
	H45	H	0.215648	0.661455	0.106211
	H46	H	0.787009	0.336580	0.103933
	H47	H	0.785328	0.661074	0.907975
	H48	H	0.414133	0.111728	0.600671
	H49	H	0.595407	0.883707	0.599028
	H50	H	0.604944	0.120997	0.400552
	H51	H	0.406284	0.880521	0.403890
	H52	H	0.590414	0.394571	0.126342
	H53	H	0.585167	0.591990	0.892255
	H54	H	0.400096	0.599792	0.129013
	H55	H	0.413223	0.412457	0.893078
	H56	H	0.112941	0.587315	0.427103
	H57	H	0.887357	0.581687	0.602308
	H58	H	0.120438	0.402941	0.606455
	H59	H	0.882996	0.399434	0.412394
	H60	H	0.117482	0.397749	0.592923
	H61	H	0.881505	0.597949	0.605450
	H62	H	0.118797	0.582074	0.404316
	H63	H	0.886161	0.404945	0.421549
	H64	H	0.407048	0.582026	0.121783
	H65	H	0.597124	0.596982	0.887661
	H66	H	0.605591	0.407126	0.126681
	H67	H	0.414606	0.399667	0.890221
	H68	H	0.578030	0.110070	0.412728
	H69	H	0.594579	0.882931	0.600621
	H70	H	0.402391	0.113757	0.594415
	H71	H	0.416723	0.886761	0.415953
	H72	H	0.915077	0.611824	0.099723
	H73	H	0.097102	0.380808	0.105947
	H74	H	0.093425	0.613896	0.912030
	H75	H	0.911727	0.384663	0.913758
	H76	H	0.097654	0.910595	0.622798
	H77	H	0.097987	0.084648	0.390976
	H78	H	0.911616	0.093347	0.623529
	H79	H	0.910942	0.901013	0.389626
	H80	H	0.620429	0.101545	0.914454
	H81	H	0.383784	0.096890	0.100419
	H82	H	0.620175	0.901311	0.101317
	H83	H	0.381921	0.907057	0.903675
	H84	H	0.616138	0.904552	0.093770
	H85	H	0.386046	0.092362	0.098754
	H86	H	0.613681	0.088694	0.923635
	H87	H	0.383429	0.894257	0.920978
	H88	H	0.906839	0.091941	0.624985
	H89	H	0.084486	0.089399	0.392751
	H90	H	0.086227	0.904902	0.621490
	H91	H	0.905771	0.904682	0.388688
	H92	H	0.094529	0.612866	0.915942
	H93	H	0.089744	0.385277	0.097725
	H94	H	0.901801	0.614807	0.095412
	H95	H	0.906281	0.383463	0.916297
	H96	H	0.403666	0.117035	0.607179
	H97	H	0.593280	0.884207	0.599745
	H98	H	0.603984	0.111774	0.430475
	H99	H	0.400566	0.883160	0.419368
	H100	H	0.587918	0.413133	0.119931
	H101	H	0.596824	0.584109	0.891282
	H102	H	0.419717	0.597929	0.123010
	H103	H	0.403050	0.405590	0.887711
	H104	H	0.122503	0.603613	0.413405
	H105	H	0.886857	0.594220	0.588914
	H106	H	0.114500	0.411719	0.595774
	H107	H	0.885488	0.410164	0.411612
	H108	H	0.905517	0.617430	0.109035
	H109	H	0.100978	0.382799	0.094542
	H110	H	0.097207	0.614472	0.913237
	H111	H	0.907490	0.382262	0.910395
	H112	H	0.095887	0.898663	0.626304
	H113	H	0.095151	0.097691	0.386895
	H114	H	0.910041	0.088181	0.622127
	H115	H	0.910776	0.907034	0.390622
	H116	H	0.617912	0.086187	0.906964
	H117	H	0.384297	0.093189	0.103280
	H118	H	0.617628	0.910279	0.101188
	H119	H	0.390395	0.914904	0.922946
	C120	C	0.378586	0.006835	0.629335
	C121	C	0.623187	0.990553	0.628688
	C122	C	0.623898	0.006739	0.385171
	C123	C	0.379356	0.990978	0.385309
	C124	C	0.623420	0.376521	0.015740
	C125	C	0.622243	0.619936	0.998794
	C126	C	0.380195	0.620737	0.015899
	C127	C	0.381223	0.378016	0.998792
	C128	C	0.010130	0.619363	0.385886
	C129	C	0.993090	0.619756	0.628180
	C130	C	0.009441	0.376325	0.627951
	C131	C	0.992781	0.376245	0.385577
	C132	C	0.879404	0.507127	0.129147
	C133	C	0.123722	0.490161	0.128935
	C134	C	0.123922	0.506487	0.885255
	C135	C	0.879686	0.490691	0.884819
	C136	C	0.122695	0.876496	0.515109
	C137	C	0.122088	0.119459	0.498261
	C138	C	0.880498	0.119272	0.515036
	C139	C	0.879926	0.876047	0.498099
	C140	C	0.509172	0.120582	0.886291
	C141	C	0.493083	0.121412	0.128906
	C142	C	0.509772	0.877656	0.128245
	C143	C	0.493232	0.876705	0.886107
	C144	C	0.381897	0.884527	0.684378
	C145	C	0.619636	0.113112	0.683779
	C146	C	0.620939	0.884743	0.329287
	C147	C	0.383204	0.113732	0.332205
	C148	C	0.677936	0.380101	0.891863
	C149	C	0.677325	0.617459	0.122417
	C150	C	0.325428	0.617162	0.892031
	C151	C	0.326759	0.381617	0.122623
	C152	C	0.887269	0.675037	0.386716
	C153	C	0.115573	0.675753	0.627441
	C154	C	0.886396	0.321264	0.627235
	C155	C	0.115511	0.320625	0.386973
	C156	C	0.886295	0.380187	0.683797
	C157	C	0.116468	0.616657	0.683294
	C158	C	0.886559	0.615531	0.331574
	C159	C	0.115885	0.378751	0.329909
	C160	C	0.381737	0.675916	0.892617
	C161	C	0.621176	0.675878	0.121878
	C162	C	0.621491	0.321430	0.892121
	C163	C	0.382642	0.323011	0.122259
	C164	C	0.678538	0.884267	0.387134
	C165	C	0.678736	0.112659	0.626501
	C166	C	0.323576	0.884741	0.627186
	C167	C	0.323896	0.113001	0.388721
	C168	C	0.882200	0.384542	0.183282
	C169	C	0.119873	0.612401	0.184646
	C170	C	0.120959	0.384043	0.830286
	C171	C	0.882170	0.612912	0.829675
	C172	C	0.177537	0.879666	0.391299
	C173	C	0.176575	0.116468	0.622145
	C174	C	0.826107	0.115554	0.391031
	C175	C	0.825044	0.879532	0.621877
	C176	C	0.386592	0.176344	0.887613
	C177	C	0.616011	0.176528	0.127328
	C178	C	0.386597	0.822923	0.126536
	C179	C	0.615865	0.820716	0.886310
	C180	C	0.386221	0.882163	0.182683
	C181	C	0.616940	0.116900	0.182957
	C182	C	0.386136	0.117391	0.831401
	C183	C	0.616723	0.880431	0.830906
	C184	C	0.881455	0.174972	0.391737
	C185	C	0.120664	0.175402	0.621465
	C186	C	0.121537	0.820912	0.391857
	C187	C	0.881805	0.821027	0.621625
	C188	C	0.179208	0.384281	0.888172
	C189	C	0.177835	0.612945	0.126727
	C190	C	0.824638	0.384803	0.125264
	C191	C	0.823681	0.612665	0.887250
	C192	C	0.400369	0.092043	0.607259
	C193	C	0.601006	0.905572	0.606368
	C194	C	0.602076	0.092120	0.407868
	C195	C	0.401251	0.905449	0.406729
	C196	C	0.601197	0.398344	0.101901
	C197	C	0.599688	0.597587	0.912512
	C198	C	0.402206	0.599380	0.102346
	C199	C	0.403747	0.399654	0.912575
	C200	C	0.095985	0.597603	0.408286
	C201	C	0.907281	0.597785	0.605544
	C202	C	0.095178	0.397817	0.605244
	C203	C	0.907026	0.398297	0.408500
	C204	C	0.900952	0.592521	0.107752
	C205	C	0.102349	0.404980	0.106119
	C206	C	0.101596	0.591747	0.907313
	C207	C	0.901994	0.405575	0.907092
	C208	C	0.099997	0.898360	0.601496
	C209	C	0.099320	0.097073	0.412228
	C210	C	0.902845	0.097521	0.601209
	C211	C	0.902678	0.897621	0.411845
	C212	C	0.595242	0.098585	0.908673
	C213	C	0.406932	0.100355	0.107190
	C214	C	0.595747	0.899096	0.105408
	C215	C	0.407382	0.899052	0.909043
	Zn216	Zn	0.500917	-0.001337	0.757891
	Zn217	Zn	0.501976	-0.000594	0.256542
	Zn218	Zn	0.750622	0.499645	0.007441
	Zn219	Zn	0.252861	0.498883	0.007366
	Zn220	Zn	0.001804	0.748056	0.506313
	Zn221	Zn	0.000765	0.247485	0.506488
	Zn222	Zn	0.001886	0.498763	0.756246
	Zn223	Zn	0.001341	0.498095	0.257743
	Zn224	Zn	0.501935	0.748882	0.007199
	Zn225	Zn	0.501190	0.249319	0.007338
	Zn226	Zn	0.752585	-0.001726	0.506681
	Zn227	Zn	0.250222	-0.001653	0.507259
	N228	N	0.415597	0.961382	0.685744
	N229	N	0.585946	0.036320	0.685489
	N230	N	0.587241	0.961836	0.328282
	N231	N	0.417114	0.036905	0.330043
	N232	N	0.679230	0.413912	0.969568
	N233	N	0.677896	0.583265	0.044877
	N234	N	0.324285	0.583802	0.969870
	N235	N	0.325526	0.414845	0.044879
	N236	N	0.965057	0.677420	0.420116
	N237	N	0.037972	0.677937	0.593730
	N238	N	0.963897	0.318655	0.593448
	N239	N	0.037917	0.318696	0.420639
	N240	N	0.963803	0.413717	0.684506
	N241	N	0.039267	0.582467	0.683649
	N242	N	0.963757	0.581537	0.331049
	N243	N	0.038662	0.412877	0.329243
	N244	N	0.415235	0.678120	0.970459
	N245	N	0.587500	0.677461	0.043929
	N246	N	0.588522	0.318902	0.970229
	N247	N	0.415777	0.320688	0.044120
	N248	N	0.680642	0.961111	0.420993
	N249	N	0.681250	0.035377	0.593324
	N250	N	0.321568	0.961598	0.593373
	N251	N	0.321460	0.035683	0.421120
	N252	N	0.915553	0.461644	0.185743
	N253	N	0.086939	0.535207	0.185988
	N254	N	0.087212	0.461135	0.828466
	N255	N	0.916231	0.536039	0.828065
	N256	N	0.178344	0.913523	0.469133
	N257	N	0.177383	0.082188	0.544672
	N258	N	0.825373	0.081656	0.468661
	N259	N	0.823900	0.912954	0.544178
	N260	N	0.464322	0.178257	0.921153
	N261	N	0.538191	0.179208	0.094320
	N262	N	0.464640	0.820076	0.093411
	N263	N	0.538267	0.818498	0.919739
	N264	N	0.463676	0.915245	0.183990
	N265	N	0.539482	0.083442	0.184169
	N266	N	0.463466	0.083409	0.830436
	N267	N	0.539144	0.914430	0.830321
	N268	N	0.914657	0.177154	0.469737
	N269	N	0.087296	0.177191	0.543410
	N270	N	0.088096	0.818902	0.469699
	N271	N	0.915064	0.818619	0.543478
	N272	N	0.181216	0.461397	0.921369
	N273	N	0.180435	0.536060	0.092891
	N274	N	0.822962	0.461831	0.092155
	N275	N	0.821960	0.535694	0.920677
	O276	O	0.545673	0.543422	0.534193
	H277	H	0.545150	0.547275	0.527744
	H278	H	0.546903	0.544512	0.541004
	O279	O	-0.025155	0.009516	-0.100016
	H280	H	-0.021312	0.022375	-0.105944
	H281	H	-0.032330	0.009935	-0.106990
	O282	O	0.531579	0.556247	0.510668
	H283	H	0.518496	0.555290	0.513255
	H284	H	0.521661	0.565444	0.507952
	O285	O	0.478682	0.548755	0.521976
	H286	H	0.483951	0.551985	0.514607
	H287	H	0.474251	0.545908	0.522776
	O288	O	1.502692	0.570189	-0.452045
	H289	H	1.514289	0.564440	-0.443704
	H290	H	1.504687	0.579191	-0.447444
	O291	O	-0.444569	0.558263	-0.475519
	H292	H	-0.440462	0.564701	-0.470010
	H293	H	-0.441066	0.560107	-0.479727
	O294	O	0.513814	0.532470	0.498948
	H295	H	0.516529	0.531365	0.503334
	H296	H	0.513625	0.528963	0.493283
	O297	O	-0.002114	1.023211	-0.097950
	H298	H	0.004009	1.019858	-0.104530
	H299	H	-0.001579	1.023194	-0.094616
	O300	O	0.997697	0.058058	0.937784
	H301	H	1.002444	0.062530	0.944968
	H302	H	0.996391	0.064484	0.942781
	O303	O	0.563864	0.572277	0.564875
	H304	H	0.563397	0.568844	0.567964
	H305	H	0.567581	0.568896	0.564812
	O306	O	0.007116	1.039819	0.947758
	H307	H	0.001800	1.028603	0.937295
	H308	H	0.002957	1.039367	0.947221
	O309	O	0.472114	0.575497	0.496366
	H310	H	0.472584	0.577270	0.492154
	H311	H	0.475517	0.580886	0.499305
