data_Molecule from HDF5

_cell_length_a		16.209067
_cell_length_b		16.258762
_cell_length_c		16.272102
_cell_angle_alpha	90.359942
_cell_angle_beta	90.009174
_cell_angle_gamma	89.372237
_symmetry_space_group_name_H-M	'P 1'
_symmetry_Int_Tables_number		1

loop_
	_symmetry_equiv_pos_as_xyz
	x,y,z

loop_
	_atom_site_label
	_atom_site_type_symbol
	_atom_site_fract_x
	_atom_site_fract_y
	_atom_site_fract_z
	H0	H	0.401304	0.834777	0.709994
	H1	H	0.598259	0.161435	0.712944
	H2	H	0.600176	0.835950	0.280362
	H3	H	0.398531	0.162886	0.282450
	H4	H	0.716567	0.397006	0.833431
	H5	H	0.712486	0.595829	0.160610
	H6	H	0.283822	0.597709	0.831957
	H7	H	0.287824	0.402449	0.160063
	H8	H	0.836280	0.713883	0.397970
	H9	H	0.164613	0.710790	0.597002
	H10	H	0.835645	0.287273	0.594063
	H11	H	0.164038	0.280395	0.397131
	H12	H	0.835908	0.400690	0.710901
	H13	H	0.164409	0.595575	0.712263
	H14	H	0.836511	0.598189	0.282772
	H15	H	0.164179	0.393628	0.281356
	H16	H	0.400233	0.713009	0.831460
	H17	H	0.598744	0.714351	0.159059
	H18	H	0.601613	0.281508	0.832602
	H19	H	0.403081	0.285879	0.159595
	H20	H	0.716527	0.835353	0.395325
	H21	H	0.711760	0.162312	0.595579
	H22	H	0.287831	0.834031	0.591508
	H23	H	0.280803	0.161824	0.395897
	H24	H	0.903618	0.333984	0.210944
	H25	H	0.098660	0.660690	0.214380
	H26	H	0.102365	0.334198	0.781567
	H27	H	0.898767	0.661498	0.783012
	H28	H	0.214531	0.896087	0.331454
	H29	H	0.214514	0.097481	0.658921
	H30	H	0.784455	0.097616	0.332330
	H31	H	0.785047	0.902203	0.660265
	H32	H	0.336826	0.214817	0.897169
	H33	H	0.665843	0.209896	0.095153
	H34	H	0.335085	0.787586	0.093005
	H35	H	0.663855	0.779778	0.893644
	H36	H	0.335826	0.903356	0.209029
	H37	H	0.663840	0.096741	0.211308
	H38	H	0.336332	0.099239	0.781699
	H39	H	0.663848	0.895477	0.779436
	H40	H	0.899400	0.213720	0.332464
	H41	H	0.098387	0.212991	0.659335
	H42	H	0.101640	0.777033	0.333931
	H43	H	0.901464	0.785570	0.660933
	H44	H	0.217679	0.335412	0.896726
	H45	H	0.211732	0.662629	0.096168
	H46	H	0.787232	0.333961	0.095671
	H47	H	0.784652	0.662146	0.900361
	H48	H	0.393113	0.118273	0.588429
	H49	H	0.598275	0.880029	0.588644
	H50	H	0.589511	0.116609	0.399566
	H51	H	0.404392	0.881568	0.403325
	H52	H	0.587586	0.410033	0.109396
	H53	H	0.598002	0.594422	0.876614
	H54	H	0.406634	0.597873	0.113972
	H55	H	0.410340	0.401797	0.878917
	H56	H	0.114541	0.587645	0.414518
	H57	H	0.882373	0.592538	0.592838
	H58	H	0.116416	0.403666	0.585662
	H59	H	0.883567	0.416017	0.396249
	H60	H	0.117015	0.407540	0.591063
	H61	H	0.882951	0.594846	0.588967
	H62	H	0.116274	0.579482	0.401187
	H63	H	0.878437	0.396747	0.398661
	H64	H	0.403428	0.591093	0.111951
	H65	H	0.595833	0.581481	0.880920
	H66	H	0.592928	0.395090	0.115585
	H67	H	0.405213	0.408286	0.878896
	H68	H	0.588605	0.114198	0.407682
	H69	H	0.589854	0.881956	0.590311
	H70	H	0.412124	0.115875	0.600512
	H71	H	0.407512	0.880903	0.396319
	H72	H	0.904448	0.614918	0.091512
	H73	H	0.104608	0.379430	0.085507
	H74	H	0.088388	0.615337	0.901568
	H75	H	0.906581	0.380390	0.902699
	H76	H	0.089500	0.896796	0.614019
	H77	H	0.098418	0.093702	0.375536
	H78	H	0.903568	0.091270	0.612273
	H79	H	0.909211	0.908996	0.382236
	H80	H	0.618734	0.088563	0.898715
	H81	H	0.383504	0.090655	0.090998
	H82	H	0.615549	0.906679	0.085277
	H83	H	0.382903	0.910953	0.898328
	H84	H	0.618021	0.906869	0.090397
	H85	H	0.381751	0.099053	0.091496
	H86	H	0.618477	0.092266	0.905850
	H87	H	0.381808	0.902311	0.901355
	H88	H	0.908784	0.092781	0.612284
	H89	H	0.091481	0.079900	0.382099
	H90	H	0.102982	0.906091	0.614662
	H91	H	0.912987	0.903000	0.381135
	H92	H	0.090313	0.613264	0.907737
	H93	H	0.094417	0.378520	0.097987
	H94	H	0.908918	0.613856	0.091757
	H95	H	0.910650	0.380679	0.900025
	H96	H	0.411621	0.110167	0.577676
	H97	H	0.593561	0.883265	0.582371
	H98	H	0.596005	0.117225	0.404629
	H99	H	0.411808	0.883139	0.402315
	H100	H	0.603982	0.407150	0.115290
	H101	H	0.585087	0.590716	0.880449
	H102	H	0.410970	0.592348	0.110228
	H103	H	0.413451	0.408685	0.881598
	H104	H	0.120193	0.594414	0.401492
	H105	H	0.883339	0.590741	0.589901
	H106	H	0.118823	0.401433	0.591413
	H107	H	0.886634	0.406843	0.413670
	H108	H	0.907245	0.613154	0.088347
	H109	H	0.089113	0.384570	0.083469
	H110	H	0.094767	0.616625	0.903748
	H111	H	0.910261	0.382151	0.904815
	H112	H	0.089850	0.912957	0.609163
	H113	H	0.081753	0.094069	0.379876
	H114	H	0.904505	0.096421	0.614388
	H115	H	0.904627	0.902548	0.378308
	H116	H	0.616216	0.085150	0.905126
	H117	H	0.384165	0.095028	0.083936
	H118	H	0.618035	0.901918	0.087230
	H119	H	0.385579	0.908242	0.907663
	C120	C	0.377768	0.006698	0.616923
	C121	C	0.621348	0.989661	0.617324
	C122	C	0.621460	0.007990	0.373947
	C123	C	0.377334	0.990294	0.373000
	C124	C	0.623771	0.374686	0.005280
	C125	C	0.621355	0.618765	0.987523
	C126	C	0.377435	0.621869	0.003863
	C127	C	0.380347	0.377650	0.987764
	C128	C	0.008682	0.617631	0.376824
	C129	C	0.991678	0.619969	0.619600
	C130	C	0.008921	0.376536	0.618118
	C131	C	0.991466	0.375834	0.374506
	C132	C	0.879033	0.506082	0.118744
	C133	C	0.122980	0.489262	0.118851
	C134	C	0.121546	0.506819	0.875092
	C135	C	0.878722	0.489152	0.874838
	C136	C	0.122791	0.874974	0.504423
	C137	C	0.120116	0.118468	0.487246
	C138	C	0.876950	0.121519	0.504742
	C139	C	0.879200	0.877241	0.488476
	C140	C	0.509306	0.119008	0.874484
	C141	C	0.491931	0.121589	0.117680
	C142	C	0.508147	0.878307	0.116154
	C143	C	0.491685	0.876292	0.873069
	C144	C	0.381077	0.883489	0.671671
	C145	C	0.618244	0.112797	0.674039
	C146	C	0.620184	0.884605	0.318129
	C147	C	0.378382	0.113644	0.319316
	C148	C	0.679318	0.376320	0.882153
	C149	C	0.675469	0.616658	0.111251
	C150	C	0.321783	0.618443	0.880905
	C151	C	0.325308	0.381364	0.110836
	C152	C	0.885494	0.675511	0.377752
	C153	C	0.115377	0.673740	0.617408
	C154	C	0.884891	0.324008	0.614872
	C155	C	0.115010	0.318713	0.376986
	C156	C	0.885233	0.380557	0.673066
	C157	C	0.115366	0.616412	0.674568
	C158	C	0.885405	0.617554	0.320717
	C159	C	0.114993	0.375031	0.319077
	C160	C	0.379679	0.675853	0.880638
	C161	C	0.619036	0.675656	0.110446
	C162	C	0.622058	0.319027	0.881863
	C163	C	0.382843	0.323533	0.110848
	C164	C	0.678022	0.884437	0.375278
	C165	C	0.674747	0.113327	0.615726
	C166	C	0.324349	0.883143	0.613150
	C167	C	0.320389	0.113313	0.376358
	C168	C	0.882598	0.382628	0.173114
	C169	C	0.119350	0.612009	0.175960
	C170	C	0.121611	0.383439	0.819447
	C171	C	0.879309	0.612654	0.820771
	C172	C	0.177508	0.875935	0.381065
	C173	C	0.176225	0.117054	0.610229
	C174	C	0.822177	0.118260	0.381239
	C175	C	0.823480	0.881343	0.611606
	C176	C	0.385712	0.176041	0.876882
	C177	C	0.615885	0.174228	0.115746
	C178	C	0.384381	0.824871	0.113202
	C179	C	0.614945	0.818446	0.874381
	C180	C	0.384549	0.882289	0.171012
	C181	C	0.614923	0.117781	0.173699
	C182	C	0.385426	0.118421	0.819641
	C183	C	0.614923	0.875978	0.817337
	C184	C	0.878676	0.176641	0.381673
	C185	C	0.118715	0.174553	0.610480
	C186	C	0.121022	0.816993	0.382132
	C187	C	0.881048	0.823249	0.611923
	C188	C	0.178963	0.383987	0.876785
	C189	C	0.175674	0.613031	0.117240
	C190	C	0.825057	0.382629	0.115674
	C191	C	0.822210	0.612788	0.878888
	C192	C	0.399069	0.092524	0.595171
	C193	C	0.600002	0.904048	0.594063
	C194	C	0.598281	0.093766	0.396970
	C195	C	0.400983	0.904180	0.394468
	C196	C	0.601361	0.397364	0.091069
	C197	C	0.599383	0.595733	0.901496
	C198	C	0.400308	0.600112	0.089921
	C199	C	0.402956	0.399642	0.901897
	C200	C	0.094670	0.594135	0.399272
	C201	C	0.905357	0.598852	0.597205
	C202	C	0.095208	0.397808	0.595990
	C203	C	0.905263	0.399508	0.396568
	C204	C	0.900423	0.591764	0.096882
	C205	C	0.102137	0.403097	0.095717
	C206	C	0.097886	0.592919	0.897579
	C207	C	0.902145	0.403244	0.896151
	C208	C	0.100501	0.898331	0.590422
	C209	C	0.097239	0.095812	0.401515
	C210	C	0.899130	0.099931	0.590713
	C211	C	0.902150	0.898609	0.402669
	C212	C	0.595343	0.095462	0.896790
	C213	C	0.405406	0.100905	0.095310
	C214	C	0.594808	0.899124	0.094165
	C215	C	0.405587	0.900115	0.895821
	Zn216	Zn	0.500208	-0.002159	0.745707
	Zn217	Zn	0.500063	-0.000317	0.245244
	Zn218	Zn	0.750474	0.497484	-0.002991
	Zn219	Zn	0.250326	0.499245	-0.003818
	Zn220	Zn	0.000214	0.747214	0.497723
	Zn221	Zn	-0.000568	0.248638	0.496024
	Zn222	Zn	0.000490	0.497894	0.746590
	Zn223	Zn	0.000759	0.496937	0.247190
	Zn224	Zn	0.500392	0.748818	-0.004980
	Zn225	Zn	0.501798	0.248067	-0.004056
	Zn226	Zn	0.749566	-0.001054	0.495935
	Zn227	Zn	0.249528	-0.001846	0.494873
	N228	N	0.413695	0.961224	0.674224
	N229	N	0.585874	0.035077	0.675255
	N230	N	0.585529	0.962328	0.317263
	N231	N	0.413205	0.036001	0.317076
	N232	N	0.680621	0.410235	0.959824
	N233	N	0.676942	0.581957	0.033872
	N234	N	0.320379	0.585764	0.958740
	N235	N	0.323893	0.414639	0.033349
	N236	N	0.963069	0.675640	0.412079
	N237	N	0.037392	0.675966	0.583780
	N238	N	0.962755	0.321320	0.581524
	N239	N	0.037257	0.318955	0.410698
	N240	N	0.963466	0.412689	0.675117
	N241	N	0.037387	0.583999	0.676308
	N242	N	0.962976	0.582131	0.320126
	N243	N	0.037283	0.409914	0.317404
	N244	N	0.413603	0.678147	0.958118
	N245	N	0.586092	0.677010	0.032454
	N246	N	0.588512	0.317798	0.959544
	N247	N	0.416408	0.321128	0.033277
	N248	N	0.679020	0.962118	0.409225
	N249	N	0.676770	0.035978	0.580952
	N250	N	0.322049	0.960680	0.579931
	N251	N	0.319819	0.035579	0.408849
	N252	N	0.915623	0.460055	0.175044
	N253	N	0.087412	0.533977	0.177096
	N254	N	0.086491	0.460977	0.818278
	N255	N	0.913751	0.534906	0.818236
	N256	N	0.178656	0.911219	0.458222
	N257	N	0.177188	0.082883	0.532639
	N258	N	0.820683	0.084897	0.458754
	N259	N	0.822192	0.914094	0.533750
	N260	N	0.463797	0.176752	0.910323
	N261	N	0.538292	0.176789	0.081787
	N262	N	0.462337	0.822259	0.079746
	N263	N	0.537283	0.818507	0.908407
	N264	N	0.462667	0.914465	0.173156
	N265	N	0.536663	0.085762	0.174990
	N266	N	0.463205	0.083657	0.817985
	N267	N	0.537460	0.911511	0.816737
	N268	N	0.912057	0.178716	0.459410
	N269	N	0.084628	0.175802	0.533193
	N270	N	0.087902	0.816235	0.460074
	N271	N	0.914763	0.820422	0.534442
	N272	N	0.178981	0.461609	0.910647
	N273	N	0.178194	0.535572	0.082727
	N274	N	0.822882	0.460300	0.082354
	N275	N	0.821758	0.535045	0.911963
	O276	O	-0.060046	-0.049572	0.050467
	H277	H	-0.047702	-0.051643	0.055141
	H278	H	-0.072102	-0.047276	0.051455
	O279	O	0.366665	0.581919	0.410905
	H280	H	0.361919	0.583830	0.415226
	H281	H	0.358711	0.586377	0.400416
	O282	O	0.493658	0.485848	0.386415
	H283	H	0.500225	0.488657	0.390464
	H284	H	0.502836	0.481324	0.369493
	O285	O	0.092587	-0.016522	0.979870
	H286	H	0.096225	-0.013963	0.977913
	H287	H	0.085248	-0.022523	0.988323
	O288	O	0.540284	0.508660	0.581536
	H289	H	0.535425	0.508370	0.584737
	H290	H	0.536104	0.503956	0.575518
	O291	O	1.091947	1.035198	0.964457
	H292	H	1.093240	1.033065	0.962749
	H293	H	1.100098	1.044243	0.958747
	O294	O	1.009294	0.894825	0.989764
	H295	H	1.026438	0.890451	0.994396
	H296	H	1.007208	0.892349	0.974572
	O297	O	1.047705	-0.000597	0.973411
	H298	H	1.054039	-0.013975	0.978237
	H299	H	1.048743	-0.003927	0.968105
	O300	O	0.599501	0.495110	0.506304
	H301	H	0.599458	0.496971	0.507328
	H302	H	0.595095	0.506007	0.520272
	O303	O	1.539108	0.418763	-0.464750
	H304	H	1.532461	0.415998	-0.473572
	H305	H	1.538138	0.418299	-0.472988
	O306	O	-0.020703	1.037401	0.968667
	H307	H	-0.012483	1.031277	0.968922
	H308	H	-0.027660	1.041829	0.963378
	O309	O	0.548992	0.403848	0.472382
	H310	H	0.560256	0.403515	0.477837
	H311	H	0.554276	0.405997	0.472382
	O312	O	1.022278	-0.004400	1.072117
	H313	H	1.030691	-0.000388	1.070549
	H314	H	1.023584	-0.007928	1.091512
	O315	O	0.525912	0.450997	0.434714
	H316	H	0.512860	0.446458	0.442464
	H317	H	0.531775	0.445973	0.436055
	O318	O	0.025220	0.981978	0.928860
	H319	H	0.028969	0.976992	0.914480
	H320	H	0.035981	0.977677	0.941082
	O321	O	1.057190	0.974162	0.982776
	H322	H	1.048469	0.975318	0.973447
	H323	H	1.059856	0.979692	0.984816
	O324	O	0.464787	0.520469	0.385998
	H325	H	0.465304	0.520507	0.388621
	H326	H	0.478645	0.508289	0.394042
	O327	O	0.470673	0.502410	0.476968
	H328	H	0.482353	0.496435	0.485427
	H329	H	0.470135	0.505380	0.480793
	O330	O	0.913105	0.038274	1.012713
	H331	H	0.910183	0.042778	1.001985
	H332	H	0.928941	0.037609	1.008685
	O333	O	0.969372	1.076995	0.048778
	H334	H	0.973139	1.071973	0.050208
	H335	H	0.961581	1.082919	0.049840
	O336	O	0.446919	0.588459	0.413367
	H337	H	0.452736	0.588141	0.394924
	H338	H	0.453649	0.594531	0.411958
	O339	O	0.468323	0.521116	0.524581
	H340	H	0.465927	0.521763	0.524327
	H341	H	0.464484	0.522570	0.515168
	O342	O	-0.067611	1.060660	-0.111660
	H343	H	-0.054456	1.051164	-0.104378
	H344	H	-0.070996	1.057421	-0.120366
	O345	O	0.023258	-0.037059	0.074050
	H346	H	0.019481	-0.024671	0.075300
	H347	H	0.021537	-0.031437	0.071209
	O348	O	0.436378	0.567757	0.458001
	H349	H	0.428386	0.565116	0.462785
	H350	H	0.444075	0.563768	0.449569
	O351	O	0.549978	0.500316	0.584328
	H352	H	0.550333	0.492996	0.586443
	H353	H	0.547449	0.496703	0.586109
	O354	O	0.568841	0.481762	0.495622
	H355	H	0.572376	0.471804	0.492950
	H356	H	0.569442	0.476018	0.500269
	O357	O	0.437334	0.517525	0.503198
	H358	H	0.432542	0.529627	0.506460
	H359	H	0.431391	0.519858	0.497300
	O360	O	-0.050504	0.097463	0.003581
	H361	H	-0.063485	0.099516	0.004369
	H362	H	-0.046807	0.103113	-0.003190
	O363	O	0.051984	0.940114	0.964660
	H364	H	0.040458	0.931454	0.958195
	H365	H	0.044937	0.943835	0.975299
	O366	O	-0.133970	0.005360	0.898900
	H367	H	-0.127231	0.017429	0.906767
	H368	H	-0.135838	0.000186	0.891812
	O369	O	0.513386	0.528018	0.483786
	H370	H	0.508015	0.532461	0.484545
	H371	H	0.513969	0.526952	0.481382
