data_Molecule from HDF5

_cell_length_a		16.502718
_cell_length_b		16.115376
_cell_length_c		16.133856
_cell_angle_alpha	90.032895
_cell_angle_beta	89.937178
_cell_angle_gamma	89.711818
_symmetry_space_group_name_H-M	'P 1'
_symmetry_Int_Tables_number		1

loop_
	_symmetry_equiv_pos_as_xyz
	x,y,z

loop_
	_atom_site_label
	_atom_site_type_symbol
	_atom_site_fract_x
	_atom_site_fract_y
	_atom_site_fract_z
	H0	H	0.407969	0.833054	0.717912
	H1	H	0.597529	0.165390	0.719605
	H2	H	0.599527	0.832956	0.295232
	H3	H	0.404263	0.164990	0.295391
	H4	H	0.719546	0.394696	0.843739
	H5	H	0.718481	0.602111	0.171105
	H6	H	0.285782	0.599879	0.842352
	H7	H	0.282402	0.393843	0.169053
	H8	H	0.839646	0.717489	0.406613
	H9	H	0.162878	0.715228	0.606514
	H10	H	0.838818	0.284917	0.605178
	H11	H	0.162802	0.282757	0.406473
	H12	H	0.839149	0.402167	0.722326
	H13	H	0.163157	0.598063	0.722672
	H14	H	0.839201	0.600050	0.290915
	H15	H	0.162310	0.398195	0.289241
	H16	H	0.404352	0.711471	0.841534
	H17	H	0.595438	0.709315	0.173496
	H18	H	0.597004	0.286484	0.841839
	H19	H	0.406179	0.289382	0.173973
	H20	H	0.721689	0.836620	0.401823
	H21	H	0.718459	0.163585	0.608924
	H22	H	0.284214	0.836755	0.611777
	H23	H	0.284788	0.163160	0.404933
	H24	H	0.904953	0.334068	0.220084
	H25	H	0.095869	0.665685	0.217686
	H26	H	0.097432	0.333758	0.794213
	H27	H	0.902462	0.665229	0.794148
	H28	H	0.220881	0.896763	0.344012
	H29	H	0.218007	0.103880	0.669550
	H30	H	0.783151	0.104376	0.342987
	H31	H	0.785649	0.897528	0.669801
	H32	H	0.339700	0.215489	0.909262
	H33	H	0.663419	0.214750	0.107351
	H34	H	0.338433	0.784777	0.105525
	H35	H	0.663209	0.781181	0.908904
	H36	H	0.339754	0.900344	0.224864
	H37	H	0.663881	0.096136	0.222932
	H38	H	0.340191	0.099075	0.791820
	H39	H	0.663636	0.897563	0.791658
	H40	H	0.903979	0.213460	0.340366
	H41	H	0.096717	0.211813	0.671500
	H42	H	0.100901	0.786360	0.341542
	H43	H	0.905878	0.789652	0.671618
	H44	H	0.218439	0.335000	0.902415
	H45	H	0.218012	0.662821	0.108523
	H46	H	0.785284	0.335366	0.110556
	H47	H	0.781073	0.661691	0.902493
	H48	H	0.403772	0.118921	0.600959
	H49	H	0.594797	0.879077	0.609083
	H50	H	0.590267	0.116545	0.412694
	H51	H	0.413593	0.881660	0.412331
	H52	H	0.604445	0.401412	0.130299
	H53	H	0.604416	0.582095	0.889571
	H54	H	0.400712	0.591090	0.126528
	H55	H	0.402249	0.410130	0.888243
	H56	H	0.116241	0.595789	0.414826
	H57	H	0.888580	0.591445	0.596833
	H58	H	0.116825	0.399892	0.600977
	H59	H	0.884364	0.403550	0.411378
	H60	H	0.113932	0.406635	0.595215
	H61	H	0.885996	0.592601	0.604165
	H62	H	0.114400	0.588872	0.414800
	H63	H	0.887361	0.406780	0.418383
	H64	H	0.408280	0.582752	0.121748
	H65	H	0.584492	0.581486	0.895566
	H66	H	0.597471	0.419581	0.121297
	H67	H	0.413470	0.410659	0.891854
	H68	H	0.592644	0.113957	0.422055
	H69	H	0.588403	0.886113	0.592157
	H70	H	0.411977	0.116549	0.601480
	H71	H	0.412629	0.884926	0.423736
	H72	H	0.907366	0.616264	0.096736
	H73	H	0.101298	0.377837	0.104045
	H74	H	0.089766	0.616872	0.911096
	H75	H	0.911252	0.382313	0.914485
	H76	H	0.099791	0.918274	0.623051
	H77	H	0.093681	0.088041	0.389345
	H78	H	0.903343	0.090587	0.623932
	H79	H	0.919057	0.911549	0.392135
	H80	H	0.616202	0.090992	0.913612
	H81	H	0.384016	0.097951	0.107605
	H82	H	0.616220	0.908009	0.107461
	H83	H	0.387263	0.906661	0.911600
	H84	H	0.617665	0.896293	0.100817
	H85	H	0.387948	0.095940	0.095170
	H86	H	0.616443	0.093024	0.913546
	H87	H	0.386214	0.904537	0.913160
	H88	H	0.910846	0.086080	0.621595
	H89	H	0.094572	0.092820	0.387806
	H90	H	0.085265	0.908134	0.621102
	H91	H	0.906174	0.900915	0.384194
	H92	H	0.093383	0.614581	0.922570
	H93	H	0.084035	0.384318	0.099962
	H94	H	0.905688	0.617012	0.097349
	H95	H	0.909434	0.383166	0.919406
	H96	H	0.407816	0.116555	0.594611
	H97	H	0.606408	0.880217	0.593675
	H98	H	0.599382	0.118715	0.416193
	H99	H	0.403421	0.880669	0.417690
	H100	H	0.585257	0.402958	0.123031
	H101	H	0.591693	0.598950	0.887388
	H102	H	0.411453	0.594338	0.123289
	H103	H	0.409153	0.400322	0.887281
	H104	H	0.116031	0.591123	0.409000
	H105	H	0.886242	0.598007	0.598738
	H106	H	0.116222	0.408111	0.604444
	H107	H	0.887693	0.411743	0.412153
	H108	H	0.907324	0.617162	0.098459
	H109	H	0.097501	0.383518	0.086416
	H110	H	0.101122	0.619677	0.913801
	H111	H	0.906489	0.380419	0.915238
	H112	H	0.100487	0.901790	0.628128
	H113	H	0.098967	0.089405	0.387416
	H114	H	0.910776	0.095369	0.623581
	H115	H	0.902751	0.918083	0.389368
	H116	H	0.616326	0.092149	0.915128
	H117	H	0.388930	0.085408	0.103712
	H118	H	0.613349	0.906958	0.094525
	H119	H	0.388133	0.906301	0.914213
	C120	C	0.380074	0.008457	0.628836
	C121	C	0.624329	0.991050	0.628155
	C122	C	0.623452	0.007871	0.386447
	C123	C	0.380900	0.990974	0.387517
	C124	C	0.623789	0.377550	0.016085
	C125	C	0.622343	0.618533	0.999317
	C126	C	0.379148	0.619083	0.015117
	C127	C	0.379462	0.377552	0.997904
	C128	C	0.009281	0.622229	0.384127
	C129	C	0.993508	0.622909	0.629023
	C130	C	0.008908	0.376829	0.629312
	C131	C	0.992988	0.377548	0.384178
	C132	C	0.879287	0.507884	0.127612
	C133	C	0.122584	0.490727	0.126671
	C134	C	0.123105	0.507975	0.885716
	C135	C	0.879484	0.490444	0.885889
	C136	C	0.124384	0.878687	0.515654
	C137	C	0.123151	0.120278	0.497355
	C138	C	0.879466	0.121180	0.514368
	C139	C	0.881107	0.880135	0.497457
	C140	C	0.509593	0.121002	0.885566
	C141	C	0.493817	0.121469	0.130678
	C142	C	0.509002	0.875843	0.129987
	C143	C	0.493639	0.875829	0.884608
	C144	C	0.385262	0.883355	0.682167
	C145	C	0.619513	0.115576	0.683103
	C146	C	0.620526	0.883196	0.331830
	C147	C	0.383499	0.115307	0.332242
	C148	C	0.680497	0.376351	0.892760
	C149	C	0.679102	0.620014	0.122219
	C150	C	0.324227	0.618721	0.891150
	C151	C	0.322578	0.376690	0.121036
	C152	C	0.887881	0.679189	0.386411
	C153	C	0.114605	0.677906	0.627145
	C154	C	0.887328	0.322302	0.626285
	C155	C	0.114543	0.321300	0.386180
	C156	C	0.887354	0.380650	0.684546
	C157	C	0.114547	0.619817	0.685086
	C158	C	0.887728	0.620816	0.328744
	C159	C	0.114247	0.378602	0.327672
	C160	C	0.383175	0.674135	0.890764
	C161	C	0.618043	0.673396	0.123744
	C162	C	0.619431	0.322793	0.891540
	C163	C	0.384213	0.324782	0.123399
	C164	C	0.681280	0.884854	0.385035
	C165	C	0.679771	0.114577	0.628264
	C166	C	0.323989	0.885097	0.629147
	C167	C	0.324013	0.114406	0.386957
	C168	C	0.883449	0.383662	0.183113
	C169	C	0.118580	0.615699	0.181467
	C170	C	0.119191	0.383327	0.830599
	C171	C	0.881704	0.615245	0.830878
	C172	C	0.181334	0.878076	0.392529
	C173	C	0.178829	0.121449	0.620788
	C174	C	0.822370	0.122638	0.391471
	C175	C	0.824695	0.879922	0.620915
	C176	C	0.388065	0.177031	0.888529
	C177	C	0.615267	0.176538	0.127652
	C178	C	0.387105	0.821613	0.127335
	C179	C	0.615102	0.819227	0.887718
	C180	C	0.387756	0.879383	0.186214
	C181	C	0.615530	0.117517	0.185145
	C182	C	0.388437	0.119329	0.829837
	C183	C	0.615418	0.877509	0.829618
	C184	C	0.882448	0.176612	0.390089
	C185	C	0.118531	0.175333	0.621728
	C186	C	0.121723	0.823290	0.391230
	C187	C	0.884461	0.825665	0.621779
	C188	C	0.179694	0.384166	0.884219
	C189	C	0.178753	0.614145	0.126704
	C190	C	0.824040	0.384275	0.128514
	C191	C	0.821389	0.613535	0.884684
	C192	C	0.401488	0.095131	0.605942
	C193	C	0.602937	0.904385	0.605086
	C194	C	0.600683	0.094207	0.410218
	C195	C	0.403397	0.904715	0.411127
	C196	C	0.602099	0.401239	0.102550
	C197	C	0.600064	0.594579	0.913092
	C198	C	0.400593	0.596233	0.101599
	C199	C	0.401731	0.400418	0.911426
	C200	C	0.093604	0.598755	0.406359
	C201	C	0.908984	0.600801	0.606553
	C202	C	0.093648	0.398542	0.606940
	C203	C	0.908421	0.400728	0.407081
	C204	C	0.900539	0.594373	0.104258
	C205	C	0.100777	0.404341	0.103561
	C206	C	0.101200	0.594577	0.909146
	C207	C	0.902483	0.404395	0.909514
	C208	C	0.101614	0.902362	0.601762
	C209	C	0.101965	0.097035	0.410606
	C210	C	0.901789	0.097608	0.600669
	C211	C	0.902909	0.903403	0.410874
	C212	C	0.594343	0.098482	0.907480
	C213	C	0.408896	0.099692	0.108774
	C214	C	0.593866	0.897396	0.107597
	C215	C	0.409146	0.898829	0.906518
	Zn216	Zn	0.502186	-0.001302	0.755527
	Zn217	Zn	0.501662	-0.001463	0.259947
	Zn218	Zn	0.751739	0.498640	0.006962
	Zn219	Zn	0.251456	0.498194	0.005979
	Zn220	Zn	0.001792	0.751994	0.506154
	Zn221	Zn	0.000861	0.247679	0.505655
	Zn222	Zn	0.001122	0.499989	0.759024
	Zn223	Zn	0.000997	0.499865	0.254602
	Zn224	Zn	0.500769	0.746373	0.007567
	Zn225	Zn	0.501313	0.251111	0.008194
	Zn226	Zn	0.752177	-0.000162	0.505855
	Zn227	Zn	0.251978	-0.000160	0.507440
	N228	N	0.419308	0.961084	0.682113
	N229	N	0.585727	0.037454	0.683123
	N230	N	0.585427	0.960754	0.332395
	N231	N	0.418224	0.037635	0.332600
	N232	N	0.683206	0.409796	0.971310
	N233	N	0.681734	0.586477	0.043726
	N234	N	0.321576	0.585204	0.969439
	N235	N	0.319608	0.408873	0.042134
	N236	N	0.964403	0.680061	0.420191
	N237	N	0.038359	0.679752	0.593037
	N238	N	0.963968	0.319752	0.592684
	N239	N	0.038102	0.320291	0.420296
	N240	N	0.963890	0.413666	0.686640
	N241	N	0.038109	0.586165	0.686432
	N242	N	0.964216	0.586260	0.326897
	N243	N	0.037712	0.413000	0.326406
	N244	N	0.416440	0.674728	0.968967
	N245	N	0.583408	0.672534	0.046299
	N246	N	0.584919	0.323592	0.969081
	N247	N	0.418909	0.325071	0.045683
	N248	N	0.683148	0.963369	0.418428
	N249	N	0.682991	0.036182	0.595005
	N250	N	0.320735	0.963996	0.596601
	N251	N	0.322093	0.035891	0.420410
	N252	N	0.917154	0.461468	0.182557
	N253	N	0.084344	0.538166	0.181479
	N254	N	0.084767	0.461246	0.831302
	N255	N	0.917130	0.537716	0.831393
	N256	N	0.183147	0.911675	0.470754
	N257	N	0.181775	0.087883	0.542364
	N258	N	0.820195	0.088953	0.469792
	N259	N	0.822743	0.913254	0.542401
	N260	N	0.464398	0.178486	0.922318
	N261	N	0.538299	0.179356	0.094800
	N262	N	0.463422	0.819344	0.093085
	N263	N	0.538364	0.817817	0.921015
	N264	N	0.464496	0.912358	0.187960
	N265	N	0.538985	0.084286	0.187230
	N266	N	0.464935	0.085037	0.828086
	N267	N	0.539149	0.912095	0.827533
	N268	N	0.917108	0.175947	0.467646
	N269	N	0.084374	0.174649	0.543919
	N270	N	0.087011	0.823330	0.468880
	N271	N	0.918892	0.825801	0.544162
	N272	N	0.182290	0.462806	0.917697
	N273	N	0.181553	0.535321	0.093503
	N274	N	0.821177	0.462642	0.094759
	N275	N	0.819843	0.535159	0.918286
	O276	O	0.545559	0.517026	0.484406
	H277	H	0.546099	0.511784	0.483518
	H278	H	0.548433	0.525131	0.494038
	O279	O	0.468958	0.516460	0.492960
	H280	H	0.481782	0.518349	0.495807
	H281	H	0.464626	0.512919	0.504978
	O282	O	0.488300	0.530947	-0.478325
	H283	H	0.485924	0.541221	-0.488036
	H284	H	0.490450	0.531695	-0.479935
	O285	O	1.059712	-0.119105	1.053052
	H286	H	1.064010	-0.123293	1.051218
	H287	H	1.049022	-0.123146	1.065054
	O288	O	0.483359	0.527998	0.475588
	H289	H	0.489642	0.515688	0.473459
	H290	H	0.482259	0.535491	0.479515
	O291	O	0.009307	1.005416	-0.011962
	H292	H	0.006193	1.002009	-0.010077
	H293	H	0.008425	1.001355	-0.023783
	O294	O	0.403907	0.523928	0.580873
	H295	H	0.399025	0.513115	0.575719
	H296	H	0.404464	0.530029	0.575897
	O297	O	-0.042105	-0.041858	0.975721
	H298	H	-0.053191	-0.044761	0.972855
	H299	H	-0.027004	-0.038887	0.975693
	O300	O	0.566992	0.490870	0.573831
	H301	H	0.561933	0.490539	0.562300
	H302	H	0.563549	0.494117	0.584984
	O303	O	1.089628	1.112923	0.052505
	H304	H	1.083191	1.122761	0.058110
	H305	H	1.097907	1.122005	0.047459
	O306	O	0.086403	0.882233	0.996126
	H307	H	0.082375	0.877524	0.998546
	H308	H	0.093521	0.883085	0.977192
	O309	O	0.570902	0.504545	0.468350
	H310	H	0.561827	0.500392	0.462630
	H311	H	0.561831	0.509326	0.474330
	O312	O	0.005488	0.052659	-0.002309
	H313	H	0.011791	0.057371	-0.015790
	H314	H	0.003639	0.056619	0.007852
	O315	O	1.075280	0.099384	-0.012590
	H316	H	1.072911	0.096125	0.001153
	H317	H	1.077253	0.103630	-0.011835
	O318	O	0.977002	1.014914	1.050087
	H319	H	0.968942	1.017870	1.045358
	H320	H	0.980865	1.014213	1.057155
	O321	O	0.081177	0.012938	0.959357
	H322	H	0.090435	0.021112	0.980458
	H323	H	0.085197	0.019301	0.958572
	O324	O	1.002246	-0.089307	-0.048635
	H325	H	1.008800	-0.093952	-0.037090
	H326	H	1.002217	-0.090871	-0.049500
	O327	O	-0.087334	0.069740	-0.041630
	H328	H	-0.096621	0.078464	-0.037371
	H329	H	-0.084306	0.055047	-0.061869
	O330	O	0.524822	0.446336	0.457593
	H331	H	0.524908	0.456935	0.461116
	H332	H	0.531346	0.445680	0.446967
	O333	O	-0.090041	1.081903	0.899746
	H334	H	-0.092510	1.076217	0.891590
	H335	H	-0.109001	1.078905	0.887589
	O336	O	0.010445	0.065552	0.076106
	H337	H	0.010177	0.071849	0.078254
	H338	H	0.002810	0.058521	0.062454
	O339	O	0.578103	0.413769	0.437524
	H340	H	0.588625	0.403558	0.430180
	H341	H	0.577883	0.412803	0.430413
	O342	O	1.529491	1.530383	1.523447
	H343	H	1.518330	1.531921	1.532326
	H344	H	1.526999	1.523264	1.518703
	O345	O	0.912570	0.967948	0.013113
	H346	H	0.921239	0.965144	0.006632
	H347	H	0.905891	0.967774	0.009248
	O348	O	0.351669	0.510959	0.521826
	H349	H	0.345457	0.512960	0.527286
	H350	H	0.351734	0.513323	0.522592
	O351	O	0.422270	0.489644	0.576980
	H352	H	0.428712	0.485866	0.569704
	H353	H	0.419327	0.485201	0.571259
	O354	O	0.559564	0.471046	0.550287
	H355	H	0.561256	0.462598	0.544847
	H356	H	0.564107	0.475772	0.550264
	O357	O	0.399184	-0.454355	0.431951
	H358	H	0.416204	-0.441326	0.423421
	H359	H	0.384379	-0.454430	0.424116
	O360	O	0.594616	0.555394	0.470605
	H361	H	0.590845	0.553322	0.466487
	H362	H	0.584535	0.558413	0.467489
	O363	O	0.423896	0.504525	0.530343
	H364	H	0.417532	0.492086	0.549755
	H365	H	0.424934	0.501401	0.528363
	O366	O	1.056154	0.922908	0.955791
	H367	H	1.068474	0.927155	0.963790
	H368	H	1.057050	0.920827	0.956857
	O369	O	0.979924	-0.017311	0.954646
	H370	H	0.983135	-0.008712	0.954417
	H371	H	0.983202	-0.014042	0.961463
	O372	O	-0.064312	0.010628	0.058456
	H373	H	-0.066038	0.007223	0.054450
	H374	H	-0.075962	0.017499	0.051321
	O375	O	1.035591	-0.027250	0.023625
	H376	H	1.037406	-0.035577	0.016736
	H377	H	1.028545	-0.020939	0.023058
	O378	O	0.991946	1.072886	0.951082
	H379	H	0.990708	1.066261	0.942336
	H380	H	0.995270	1.071406	0.946267
	O381	O	0.376680	0.576252	0.369542
	H382	H	0.374924	0.582145	0.362364
	H383	H	0.374222	0.570852	0.383432
