data_Molecule from HDF5

_cell_length_a		16.366796
_cell_length_b		16.237758
_cell_length_c		16.410495
_cell_angle_alpha	89.913427
_cell_angle_beta	90.017076
_cell_angle_gamma	90.367072
_symmetry_space_group_name_H-M	'P 1'
_symmetry_Int_Tables_number		1

loop_
	_symmetry_equiv_pos_as_xyz
	x,y,z

loop_
	_atom_site_label
	_atom_site_type_symbol
	_atom_site_fract_x
	_atom_site_fract_y
	_atom_site_fract_z
	H0	H	0.381688	0.844400	0.720416
	H1	H	0.590972	0.167507	0.716011
	H2	H	0.592475	0.844275	0.277139
	H3	H	0.386810	0.166259	0.281939
	H4	H	0.703171	0.403489	0.836481
	H5	H	0.707011	0.610426	0.156891
	H6	H	0.266737	0.608095	0.837240
	H7	H	0.264802	0.400816	0.156765
	H8	H	0.823770	0.721874	0.394929
	H9	H	0.145602	0.723461	0.602299
	H10	H	0.823948	0.284472	0.599715
	H11	H	0.146493	0.288593	0.398290
	H12	H	0.824655	0.396795	0.717451
	H13	H	0.144858	0.608125	0.717516
	H14	H	0.825294	0.608834	0.277696
	H15	H	0.144306	0.400060	0.277554
	H16	H	0.385428	0.723527	0.836816
	H17	H	0.589570	0.723821	0.158736
	H18	H	0.585295	0.288789	0.836176
	H19	H	0.384903	0.289186	0.158825
	H20	H	0.702938	0.842589	0.395770
	H21	H	0.706844	0.165633	0.601390
	H22	H	0.264787	0.843725	0.606186
	H23	H	0.269269	0.165525	0.396700
	H24	H	0.882359	0.341776	0.214465
	H25	H	0.088516	0.666279	0.216114
	H26	H	0.083202	0.341699	0.782459
	H27	H	0.883438	0.665609	0.778861
	H28	H	0.204836	0.900163	0.338310
	H29	H	0.203314	0.104946	0.660142
	H30	H	0.768458	0.104328	0.338103
	H31	H	0.765434	0.900092	0.659711
	H32	H	0.322644	0.217408	0.899901
	H33	H	0.647695	0.223030	0.096533
	H34	H	0.325243	0.786537	0.100227
	H35	H	0.648745	0.791981	0.899417
	H36	H	0.326340	0.899451	0.218466
	H37	H	0.648781	0.106358	0.213236
	H38	H	0.326298	0.110151	0.777865
	H39	H	0.647200	0.905253	0.781365
	H40	H	0.887034	0.218132	0.337195
	H41	H	0.085822	0.219948	0.660756
	H42	H	0.083196	0.788580	0.336395
	H43	H	0.883977	0.785514	0.660286
	H44	H	0.199705	0.342004	0.897102
	H45	H	0.203225	0.666879	0.099324
	H46	H	0.767716	0.342104	0.096912
	H47	H	0.772484	0.668646	0.898615
	H48	H	0.398935	0.118784	0.588626
	H49	H	0.573495	0.893717	0.582151
	H50	H	0.571559	0.119895	0.402990
	H51	H	0.399822	0.890036	0.409334
	H52	H	0.571543	0.407770	0.112247
	H53	H	0.580114	0.599623	0.881835
	H54	H	0.397921	0.604785	0.113323
	H55	H	0.383327	0.411722	0.879423
	H56	H	0.098291	0.590372	0.405562
	H57	H	0.868587	0.597504	0.588077
	H58	H	0.096990	0.420515	0.588822
	H59	H	0.867663	0.409503	0.403982
	H60	H	0.102116	0.411682	0.599236
	H61	H	0.873217	0.589185	0.584239
	H62	H	0.100081	0.596842	0.405370
	H63	H	0.870481	0.409730	0.409584
	H64	H	0.383898	0.592078	0.114477
	H65	H	0.578167	0.594440	0.883852
	H66	H	0.584534	0.416810	0.113734
	H67	H	0.393492	0.419096	0.884477
	H68	H	0.576406	0.117597	0.415135
	H69	H	0.581466	0.886063	0.592929
	H70	H	0.394718	0.119594	0.586113
	H71	H	0.394564	0.888509	0.411792
	H72	H	0.887689	0.621959	0.083788
	H73	H	0.080352	0.389094	0.081753
	H74	H	0.077789	0.621467	0.904577
	H75	H	0.884665	0.385838	0.908489
	H76	H	0.079800	0.907910	0.615471
	H77	H	0.079682	0.089339	0.386196
	H78	H	0.897640	0.091634	0.613216
	H79	H	0.889391	0.916405	0.384165
	H80	H	0.600447	0.094435	0.907803
	H81	H	0.371731	0.090494	0.093701
	H82	H	0.602552	0.905986	0.083858
	H83	H	0.370542	0.914110	0.904503
	H84	H	0.597293	0.924368	0.086085
	H85	H	0.368851	0.099150	0.095893
	H86	H	0.602460	0.098267	0.902772
	H87	H	0.372281	0.912550	0.912695
	H88	H	0.895141	0.096764	0.614702
	H89	H	0.072732	0.098392	0.384818
	H90	H	0.078937	0.920027	0.612158
	H91	H	0.898347	0.914505	0.387129
	H92	H	0.072624	0.620433	0.905595
	H93	H	0.074948	0.386891	0.096626
	H94	H	0.894970	0.623401	0.098543
	H95	H	0.894801	0.387012	0.900492
	H96	H	0.395347	0.120677	0.590778
	H97	H	0.567306	0.890248	0.595879
	H98	H	0.584074	0.122007	0.405175
	H99	H	0.395083	0.887465	0.406376
	H100	H	0.570794	0.422735	0.107070
	H101	H	0.574376	0.599725	0.883755
	H102	H	0.399929	0.586731	0.107360
	H103	H	0.396289	0.406362	0.881381
	H104	H	0.097870	0.594311	0.410865
	H105	H	0.870090	0.589071	0.594482
	H106	H	0.100637	0.406636	0.585974
	H107	H	0.870862	0.414581	0.405942
	H108	H	0.903171	0.617064	0.085923
	H109	H	0.065064	0.392702	0.085040
	H110	H	0.076307	0.619290	0.909765
	H111	H	0.896091	0.391201	0.912612
	H112	H	0.069210	0.912669	0.610527
	H113	H	0.083741	0.099082	0.380779
	H114	H	0.891909	0.092349	0.613698
	H115	H	0.892470	0.907970	0.383887
	H116	H	0.601551	0.101465	0.909369
	H117	H	0.371399	0.097454	0.087363
	H118	H	0.605209	0.915209	0.100184
	H119	H	0.373750	0.920819	0.909439
	C120	C	0.364590	0.013166	0.620913
	C121	C	0.606544	0.996718	0.620291
	C122	C	0.607788	0.013040	0.377072
	C123	C	0.366116	0.995578	0.378607
	C124	C	0.605688	0.385136	0.004838
	C125	C	0.608328	0.628098	0.989145
	C126	C	0.363865	0.626365	0.005733
	C127	C	0.361856	0.382290	0.988482
	C128	C	-0.007087	0.624605	0.376830
	C129	C	0.976510	0.624399	0.620066
	C130	C	-0.006734	0.381575	0.620557
	C131	C	0.976134	0.381923	0.376396
	C132	C	0.863352	0.513616	0.119743
	C133	C	0.105407	0.496262	0.118958
	C134	C	0.105308	0.513324	0.876705
	C135	C	0.863350	0.495526	0.876656
	C136	C	0.106534	0.882303	0.506735
	C137	C	0.108211	0.125808	0.490429
	C138	C	0.864534	0.124029	0.507445
	C139	C	0.862361	0.881588	0.491013
	C140	C	0.494862	0.127346	0.876450
	C141	C	0.477851	0.126650	0.120352
	C142	C	0.495305	0.883211	0.120894
	C143	C	0.478173	0.885724	0.878187
	C144	C	0.363155	0.892346	0.680698
	C145	C	0.608987	0.118584	0.677572
	C146	C	0.609612	0.892203	0.317656
	C147	C	0.366655	0.117542	0.320556
	C148	C	0.663813	0.384585	0.884461
	C149	C	0.667212	0.628629	0.109403
	C150	C	0.306345	0.627005	0.884955
	C151	C	0.304274	0.381999	0.108947
	C152	C	0.872148	0.683085	0.376157
	C153	C	0.097278	0.683875	0.620809
	C154	C	0.872227	0.323260	0.619597
	C155	C	0.097845	0.326233	0.377767
	C156	C	0.872589	0.379330	0.678281
	C157	C	0.096990	0.626572	0.678614
	C158	C	0.872610	0.626532	0.317845
	C159	C	0.096636	0.381858	0.317822
	C160	C	0.365099	0.684744	0.885214
	C161	C	0.608510	0.684881	0.110398
	C162	C	0.605031	0.327384	0.884181
	C163	C	0.364059	0.326476	0.110099
	C164	C	0.664675	0.891148	0.376795
	C165	C	0.666653	0.117833	0.620519
	C166	C	0.304791	0.892127	0.623800
	C167	C	0.308600	0.117231	0.377901
	C168	C	0.863291	0.390774	0.176074
	C169	C	0.107007	0.617842	0.176994
	C170	C	0.103386	0.390341	0.820951
	C171	C	0.864333	0.617491	0.818443
	C172	C	0.164696	0.881904	0.386046
	C173	C	0.164473	0.124706	0.611981
	C174	C	0.807296	0.123665	0.386254
	C175	C	0.804427	0.880610	0.611525
	C176	C	0.371839	0.181402	0.878635
	C177	C	0.599361	0.184472	0.117457
	C178	C	0.373703	0.825094	0.120204
	C179	C	0.600138	0.829511	0.878988
	C180	C	0.374511	0.881072	0.179198
	C181	C	0.600261	0.125949	0.174868
	C182	C	0.373618	0.127431	0.818153
	C183	C	0.599310	0.886032	0.820491
	C184	C	0.866098	0.180299	0.385704
	C185	C	0.106027	0.181884	0.612175
	C186	C	0.104538	0.825822	0.385130
	C187	C	0.863400	0.823758	0.611884
	C188	C	0.161522	0.390605	0.877385
	C189	C	0.164166	0.618129	0.118915
	C190	C	0.805939	0.390962	0.117853
	C191	C	0.809304	0.619207	0.878014
	C192	C	0.389153	0.097695	0.595672
	C193	C	0.581409	0.911934	0.596920
	C194	C	0.584115	0.098004	0.401001
	C195	C	0.389683	0.910782	0.402317
	C196	C	0.582272	0.408867	0.089147
	C197	C	0.584338	0.604710	0.904919
	C198	C	0.387196	0.601480	0.089966
	C199	C	0.384569	0.405685	0.903614
	C200	C	0.076766	0.600643	0.400480
	C201	C	0.892276	0.599172	0.595944
	C202	C	0.078003	0.405924	0.597932
	C203	C	0.891686	0.404955	0.399795
	C204	C	0.887941	0.598874	0.096224
	C205	C	0.080570	0.411445	0.094779
	C206	C	0.082322	0.598215	0.899887
	C207	C	0.885375	0.410205	0.900172
	C208	C	0.083003	0.906312	0.590849
	C209	C	0.085520	0.102398	0.405934
	C210	C	0.887913	0.100197	0.591936
	C211	C	0.886229	0.905978	0.406816
	C212	C	0.579411	0.104721	0.899694
	C213	C	0.392820	0.102738	0.098661
	C214	C	0.579712	0.907751	0.097119
	C215	C	0.394213	0.908917	0.901761
	Zn216	Zn	0.486180	0.006077	0.748964
	Zn217	Zn	0.487262	0.004430	0.249401
	Zn218	Zn	0.735650	0.505756	-0.002723
	Zn219	Zn	0.233802	0.504702	-0.002907
	Zn220	Zn	-0.015409	0.752891	0.498759
	Zn221	Zn	-0.014649	0.253614	0.499215
	Zn222	Zn	-0.015578	0.503363	0.748412
	Zn223	Zn	-0.015059	0.504390	0.247873
	Zn224	Zn	0.486562	0.755757	-0.001531
	Zn225	Zn	0.484307	0.254912	-0.002536
	Zn226	Zn	0.734530	0.003759	0.499125
	Zn227	Zn	0.236669	0.003931	0.499003
	N228	N	0.399678	0.968858	0.678950
	N229	N	0.572124	0.042306	0.677480
	N230	N	0.574564	0.968868	0.318039
	N231	N	0.401586	0.040745	0.320514
	N232	N	0.664271	0.419923	0.960500
	N233	N	0.666923	0.593699	0.033074
	N234	N	0.305330	0.591666	0.961019
	N235	N	0.302697	0.415890	0.032160
	N236	N	0.947791	0.682072	0.412560
	N237	N	0.021336	0.682496	0.585043
	N238	N	0.948385	0.324552	0.584356
	N239	N	0.021855	0.325941	0.413575
	N240	N	0.948928	0.415134	0.678852
	N241	N	0.021033	0.589938	0.677914
	N242	N	0.948306	0.590677	0.318368
	N243	N	0.019929	0.415565	0.316863
	N244	N	0.400289	0.684429	0.961313
	N245	N	0.572276	0.684490	0.034838
	N246	N	0.569442	0.327793	0.960058
	N247	N	0.398897	0.326488	0.033968
	N248	N	0.663442	0.967227	0.413410
	N249	N	0.665105	0.041140	0.585328
	N250	N	0.305668	0.968149	0.587061
	N251	N	0.308049	0.040406	0.413157
	N252	N	0.897909	0.468169	0.177392
	N253	N	0.071159	0.541027	0.176928
	N254	N	0.069329	0.467435	0.820176
	N255	N	0.897008	0.539687	0.817179
	N256	N	0.166401	0.915885	0.462876
	N257	N	0.166023	0.090735	0.535349
	N258	N	0.806361	0.089596	0.463086
	N259	N	0.803564	0.915465	0.535167
	N260	N	0.447959	0.181569	0.914156
	N261	N	0.522190	0.184843	0.084205
	N262	N	0.449802	0.826232	0.084775
	N263	N	0.523933	0.829033	0.914362
	N264	N	0.451245	0.916262	0.179954
	N265	N	0.523728	0.090789	0.176954
	N266	N	0.450996	0.094783	0.816566
	N267	N	0.522706	0.920178	0.819744
	N268	N	0.901017	0.180729	0.462018
	N269	N	0.071937	0.182854	0.535387
	N270	N	0.069487	0.825832	0.461170
	N271	N	0.898436	0.824014	0.535760
	N272	N	0.163131	0.468149	0.911058
	N273	N	0.163426	0.541289	0.083489
	N274	N	0.805720	0.468390	0.083847
	N275	N	0.808524	0.542426	0.913498
	O276	O	1.065632	0.017916	1.079635
	H277	H	1.075931	0.022631	1.084818
	H278	H	1.068374	0.015426	1.104189
	O279	O	0.304408	0.662243	0.316248
	H280	H	0.339826	0.661244	0.306212
	H281	H	0.308417	0.630106	0.307099
	O282	O	0.422901	0.322096	0.386291
	H283	H	0.431329	0.318461	0.397409
	H284	H	0.401733	0.340801	0.388935
	O285	O	0.500782	0.512881	0.330722
	H286	H	0.495175	0.519438	0.327960
	H287	H	0.512672	0.527933	0.334297
	O288	O	0.684359	0.422731	0.319760
	H289	H	0.676942	0.413282	0.306734
	H290	H	0.695450	0.423834	0.309402
	O291	O	0.004532	0.089101	1.100093
	H292	H	0.018801	0.099725	1.111572
	H293	H	0.016905	0.087544	1.106276
	O294	O	1.058190	1.129411	0.093414
	H295	H	1.073635	1.129168	0.081150
	H296	H	1.070324	1.146388	0.105689
	O297	O	1.039975	1.025066	0.039993
	H298	H	1.033673	1.021944	0.044799
	H299	H	1.050286	1.031102	0.041851
	O300	O	0.648440	0.406290	0.502621
	H301	H	0.648364	0.407775	0.495255
	H302	H	0.654061	0.404582	0.486652
	O303	O	0.580818	0.318756	0.302860
	H304	H	0.567791	0.317203	0.283567
	H305	H	0.572518	0.322474	0.320341
	O306	O	0.360365	0.538387	0.622649
	H307	H	0.363874	0.532952	0.616042
	H308	H	0.360159	0.555001	0.616582
	O309	O	0.550298	0.545676	0.660589
	H310	H	0.549350	0.536717	0.659348
	H311	H	0.531909	0.550274	0.674744
	O312	O	1.476391	1.368958	0.688427
	H313	H	1.487951	1.356277	0.682757
	H314	H	1.467821	1.365808	0.702404
	O315	O	0.975044	1.004784	-0.088994
	H316	H	0.973342	1.002059	-0.091559
	H317	H	0.966756	1.012062	-0.080568
	O318	O	0.511559	0.672710	0.662367
	H319	H	0.514707	0.651553	0.656799
	H320	H	0.495864	0.682659	0.669369
	O321	O	0.386823	0.345645	0.624072
	H322	H	0.380423	0.358245	0.632186
	H323	H	0.409203	0.345513	0.635943
	O324	O	-0.072760	1.029481	1.042686
	H325	H	-0.075701	1.038392	1.045481
	H326	H	-0.073422	1.039661	1.041198
	O327	O	-0.600191	0.449297	1.642437
	H328	H	-0.608282	0.450379	1.643407
	H329	H	-0.585262	0.467802	1.641703
	O330	O	-0.242987	0.258827	0.260246
	H331	H	-0.244204	0.245519	0.256475
	H332	H	-0.238504	0.265689	0.241567
	O333	O	0.605836	0.546854	0.644888
	H334	H	0.608983	0.541847	0.660416
	H335	H	0.601263	0.538824	0.626785
	O336	O	0.014398	0.004378	-0.041569
	H337	H	0.005562	-0.000326	-0.044040
	H338	H	0.009259	-0.011520	-0.045121
	O339	O	0.490753	0.461703	-0.505665
	H340	H	0.500389	0.463010	-0.507339
	H341	H	0.491996	0.461262	-0.498871
	O342	O	0.466443	0.699212	0.303620
	H343	H	0.465908	0.715538	0.284372
	H344	H	0.488966	0.699286	0.313832
	O345	O	0.344767	0.550841	0.558632
	H346	H	0.351846	0.553523	0.551429
	H347	H	0.342830	0.565210	0.554544
	O348	O	0.572981	0.585523	0.470797
	H349	H	0.591089	0.593683	0.474677
	H350	H	0.583289	0.583016	0.486885
	O351	O	0.618013	0.520939	0.519624
	H352	H	0.622138	0.516718	0.522941
	H353	H	0.619777	0.519841	0.523786
	O354	O	0.048335	1.016861	0.046631
	H355	H	0.046179	1.016869	0.048543
	H356	H	0.044694	1.015784	0.052273
	O357	O	0.372543	0.388617	0.538927
	H358	H	0.366840	0.399464	0.546520
	H359	H	0.359114	0.371294	0.560285
	O360	O	1.028821	-0.083324	0.950123
	H361	H	1.016703	-0.075468	0.955257
	H362	H	1.030622	-0.077274	0.944728
	O363	O	0.495144	0.658299	0.592996
	H364	H	0.499056	0.665646	0.586234
	H365	H	0.481420	0.667416	0.616754
	O366	O	0.329760	0.443299	0.415958
	H367	H	0.351282	0.450618	0.422673
	H368	H	0.327906	0.444075	0.435906
	O369	O	1.023560	0.011527	0.020965
	H370	H	1.024955	0.013459	0.015522
	H371	H	1.025638	0.016550	0.017405
	O372	O	0.482772	0.324127	0.493274
	H373	H	0.496082	0.327072	0.488104
	H374	H	0.465406	0.326886	0.495094
	O375	O	1.016567	-0.014987	0.977299
	H376	H	1.012670	-0.018417	0.983258
	H377	H	1.022668	-0.014120	0.978830
	O378	O	0.285395	0.720550	0.465663
	H379	H	0.250041	0.754842	0.463646
	H380	H	0.294414	0.706727	0.420877
	O381	O	0.298602	0.512258	0.317645
	H382	H	0.301186	0.503410	0.320618
	H383	H	0.297627	0.503812	0.318233
	O384	O	1.576586	0.686936	0.448702
	H385	H	1.569800	0.691982	0.466798
	H386	H	1.588652	0.694439	0.463774
	O387	O	1.061507	0.044699	0.966614
	H388	H	1.071002	0.043914	0.956744
	H389	H	1.065533	0.046018	0.963451
	O390	O	0.994304	0.957411	0.002632
	H391	H	0.999611	0.952483	-0.002325
	H392	H	1.003279	0.954434	0.001621
	O393	O	0.584150	0.553653	0.508318
	H394	H	0.583255	0.548392	0.508949
	H395	H	0.589663	0.561448	0.503795
