data_Molecule from HDF5

_cell_length_a		16.300160
_cell_length_b		16.354087
_cell_length_c		16.170060
_cell_angle_alpha	90.439918
_cell_angle_beta	89.530789
_cell_angle_gamma	89.949883
_symmetry_space_group_name_H-M	'P 1'
_symmetry_Int_Tables_number		1

loop_
	_symmetry_equiv_pos_as_xyz
	x,y,z

loop_
	_atom_site_label
	_atom_site_type_symbol
	_atom_site_fract_x
	_atom_site_fract_y
	_atom_site_fract_z
	H0	H	0.390028	0.843474	0.713469
	H1	H	0.589305	0.168910	0.713901
	H2	H	0.591436	0.844097	0.279233
	H3	H	0.392699	0.169565	0.285511
	H4	H	0.706670	0.402983	0.832811
	H5	H	0.704606	0.605975	0.160584
	H6	H	0.275804	0.608316	0.832697
	H7	H	0.271294	0.408867	0.160196
	H8	H	0.829053	0.725529	0.390863
	H9	H	0.151523	0.724402	0.595504
	H10	H	0.827990	0.290974	0.594738
	H11	H	0.152847	0.287667	0.388899
	H12	H	0.827310	0.408585	0.709179
	H13	H	0.152105	0.608369	0.710282
	H14	H	0.825837	0.601459	0.283441
	H15	H	0.153612	0.407429	0.277874
	H16	H	0.390667	0.722068	0.833662
	H17	H	0.591636	0.724150	0.160442
	H18	H	0.592483	0.287119	0.833904
	H19	H	0.386821	0.292838	0.161191
	H20	H	0.709524	0.845615	0.391197
	H21	H	0.706088	0.168833	0.597921
	H22	H	0.271655	0.844270	0.599854
	H23	H	0.274355	0.168290	0.399220
	H24	H	0.890323	0.342287	0.209349
	H25	H	0.087239	0.668231	0.211446
	H26	H	0.089933	0.343816	0.776101
	H27	H	0.890192	0.668797	0.780956
	H28	H	0.209131	0.902823	0.333866
	H29	H	0.201678	0.106649	0.661019
	H30	H	0.775429	0.105352	0.332011
	H31	H	0.773265	0.908757	0.659015
	H32	H	0.326929	0.220904	0.899980
	H33	H	0.652095	0.225851	0.100358
	H34	H	0.327653	0.789993	0.100594
	H35	H	0.652494	0.788083	0.893413
	H36	H	0.326891	0.909611	0.212941
	H37	H	0.654641	0.104471	0.210458
	H38	H	0.327627	0.105502	0.784359
	H39	H	0.653051	0.906644	0.779245
	H40	H	0.892003	0.219043	0.330617
	H41	H	0.089905	0.224546	0.657975
	H42	H	0.090799	0.790975	0.331689
	H43	H	0.885782	0.790361	0.658288
	H44	H	0.209433	0.344651	0.889839
	H45	H	0.204089	0.668773	0.096788
	H46	H	0.773480	0.342884	0.095683
	H47	H	0.772321	0.668020	0.896221
	H48	H	0.388499	0.123162	0.592278
	H49	H	0.583290	0.890676	0.588752
	H50	H	0.584696	0.122828	0.406339
	H51	H	0.386116	0.887206	0.406782
	H52	H	0.579288	0.421221	0.111440
	H53	H	0.582710	0.605039	0.877668
	H54	H	0.391911	0.597829	0.114237
	H55	H	0.399790	0.406232	0.877625
	H56	H	0.101804	0.589628	0.407257
	H57	H	0.877669	0.593523	0.580872
	H58	H	0.102984	0.417847	0.574457
	H59	H	0.872320	0.402623	0.407089
	H60	H	0.106789	0.420242	0.590554
	H61	H	0.871968	0.597272	0.593901
	H62	H	0.108906	0.598451	0.392634
	H63	H	0.877539	0.417827	0.408465
	H64	H	0.398602	0.595708	0.112284
	H65	H	0.588558	0.589758	0.880512
	H66	H	0.576728	0.412012	0.113040
	H67	H	0.394692	0.417259	0.879498
	H68	H	0.583646	0.122901	0.402978
	H69	H	0.580101	0.891856	0.587826
	H70	H	0.400984	0.121910	0.596419
	H71	H	0.405710	0.889677	0.393871
	H72	H	0.891572	0.622296	0.088775
	H73	H	0.083122	0.390351	0.085279
	H74	H	0.073982	0.618220	0.906704
	H75	H	0.896070	0.388770	0.896535
	H76	H	0.070869	0.914744	0.610469
	H77	H	0.085612	0.099243	0.376745
	H78	H	0.902119	0.097971	0.610741
	H79	H	0.898573	0.915942	0.378966
	H80	H	0.605479	0.096664	0.906595
	H81	H	0.372908	0.105177	0.091970
	H82	H	0.606779	0.914106	0.088038
	H83	H	0.375941	0.915458	0.909967
	H84	H	0.606085	0.912117	0.086220
	H85	H	0.376275	0.098542	0.087020
	H86	H	0.606630	0.099061	0.903665
	H87	H	0.374299	0.914076	0.903203
	H88	H	0.898776	0.103679	0.613472
	H89	H	0.086009	0.091959	0.379458
	H90	H	0.082562	0.908538	0.616956
	H91	H	0.901111	0.914961	0.379287
	H92	H	0.091155	0.622131	0.909752
	H93	H	0.079858	0.391003	0.084095
	H94	H	0.898898	0.621737	0.093580
	H95	H	0.903371	0.391509	0.902758
	H96	H	0.397735	0.118910	0.584304
	H97	H	0.582361	0.892687	0.584945
	H98	H	0.581707	0.121856	0.405582
	H99	H	0.404703	0.895727	0.416745
	H100	H	0.586216	0.414500	0.115268
	H101	H	0.572150	0.593568	0.884231
	H102	H	0.397511	0.602953	0.114853
	H103	H	0.406303	0.415757	0.883412
	H104	H	0.106721	0.607719	0.408691
	H105	H	0.872212	0.606856	0.583918
	H106	H	0.108461	0.405150	0.583664
	H107	H	0.871788	0.412322	0.393730
	H108	H	0.898767	0.618899	0.084466
	H109	H	0.082226	0.391000	0.081683
	H110	H	0.083340	0.625169	0.893740
	H111	H	0.893649	0.390878	0.905493
	H112	H	0.084337	0.922097	0.612089
	H113	H	0.079681	0.096401	0.379620
	H114	H	0.894829	0.096726	0.612525
	H115	H	0.899795	0.912912	0.377417
	H116	H	0.606705	0.099673	0.907020
	H117	H	0.374017	0.097215	0.095407
	H118	H	0.605226	0.914676	0.086033
	H119	H	0.373897	0.909328	0.907779
	C120	C	0.366601	0.014438	0.620723
	C121	C	0.611385	0.998564	0.617921
	C122	C	0.612751	0.015310	0.374493
	C123	C	0.369411	0.998110	0.376954
	C124	C	0.611313	0.384845	0.005348
	C125	C	0.611007	0.626730	0.988541
	C126	C	0.368325	0.628109	0.005288
	C127	C	0.368958	0.385325	0.988542
	C128	C	-0.001694	0.627281	0.373729
	C129	C	0.981117	0.629104	0.616059
	C130	C	-0.001157	0.385313	0.614309
	C131	C	0.981517	0.382187	0.371749
	C132	C	0.866910	0.513827	0.117887
	C133	C	0.110446	0.497847	0.114977
	C134	C	0.112720	0.514704	0.872183
	C135	C	0.868142	0.497609	0.873387
	C136	C	0.110469	0.884894	0.505097
	C137	C	0.111889	0.126929	0.486984
	C138	C	0.869862	0.127654	0.503730
	C139	C	0.868338	0.885154	0.486403
	C140	C	0.498793	0.127370	0.877147
	C141	C	0.482142	0.129493	0.120214
	C142	C	0.498818	0.884532	0.118102
	C143	C	0.482006	0.883863	0.875595
	C144	C	0.369540	0.892278	0.675807
	C145	C	0.609541	0.120571	0.675193
	C146	C	0.611593	0.893081	0.317344
	C147	C	0.371838	0.120540	0.322496
	C148	C	0.668449	0.383794	0.882103
	C149	C	0.667048	0.626180	0.111642
	C150	C	0.313460	0.627396	0.882023
	C151	C	0.310335	0.388227	0.111389
	C152	C	0.876859	0.685283	0.373047
	C153	C	0.102883	0.686237	0.615422
	C154	C	0.876535	0.329340	0.614193
	C155	C	0.104116	0.326128	0.370506
	C156	C	0.876214	0.387741	0.671202
	C157	C	0.103349	0.628138	0.672068
	C158	C	0.875320	0.623568	0.319521
	C159	C	0.104524	0.385644	0.315094
	C160	C	0.370676	0.684180	0.882669
	C161	C	0.610564	0.684825	0.111662
	C162	C	0.611359	0.326261	0.882594
	C163	C	0.368005	0.330711	0.111936
	C164	C	0.670566	0.893953	0.372944
	C165	C	0.667857	0.120345	0.617738
	C166	C	0.310399	0.892605	0.619387
	C167	C	0.312666	0.119847	0.379173
	C168	C	0.869535	0.391439	0.172394
	C169	C	0.107818	0.619895	0.172909
	C170	C	0.110994	0.392541	0.814418
	C171	C	0.869441	0.619917	0.818134
	C172	C	0.169187	0.884643	0.382221
	C173	C	0.165389	0.126627	0.611097
	C174	C	0.813719	0.125296	0.380768
	C175	C	0.811308	0.887751	0.609917
	C176	C	0.375891	0.182916	0.879522
	C177	C	0.604136	0.186188	0.119167
	C178	C	0.376309	0.828466	0.119120
	C179	C	0.603953	0.827133	0.874412
	C180	C	0.375756	0.888005	0.174907
	C181	C	0.605281	0.126135	0.174245
	C182	C	0.376062	0.125093	0.822350
	C183	C	0.604424	0.886074	0.817948
	C184	C	0.871631	0.182013	0.380110
	C185	C	0.109849	0.185351	0.609511
	C186	C	0.110772	0.828490	0.381313
	C187	C	0.867229	0.828728	0.609305
	C188	C	0.170193	0.393076	0.871291
	C189	C	0.165652	0.620149	0.115469
	C190	C	0.811341	0.391687	0.115654
	C191	C	0.811151	0.619505	0.875870
	C192	C	0.389258	0.099493	0.597833
	C193	C	0.588565	0.913680	0.594053
	C194	C	0.589906	0.100406	0.398133
	C195	C	0.392356	0.912978	0.399201
	C196	C	0.587465	0.408972	0.091162
	C197	C	0.587888	0.602929	0.902900
	C198	C	0.389737	0.605421	0.091573
	C199	C	0.393164	0.406866	0.902608
	C200	C	0.083664	0.605007	0.396198
	C201	C	0.896053	0.605765	0.593132
	C202	C	0.084028	0.408092	0.590093
	C203	C	0.896126	0.404290	0.396125
	C204	C	0.889644	0.598968	0.095454
	C205	C	0.088132	0.412838	0.090693
	C206	C	0.089435	0.599760	0.896176
	C207	C	0.891026	0.412492	0.895391
	C208	C	0.086230	0.908381	0.590898
	C209	C	0.090257	0.102820	0.400814
	C210	C	0.892051	0.106039	0.590008
	C211	C	0.892656	0.907892	0.400704
	C212	C	0.584200	0.105058	0.899359
	C213	C	0.396535	0.106938	0.098002
	C214	C	0.583960	0.907160	0.093884
	C215	C	0.396818	0.906357	0.899639
	Zn216	Zn	0.490305	0.006616	0.747835
	Zn217	Zn	0.490683	0.006474	0.246929
	Zn218	Zn	0.739364	0.505229	-0.003638
	Zn219	Zn	0.240738	0.507054	-0.004793
	Zn220	Zn	-0.010456	0.757113	0.494881
	Zn221	Zn	-0.008890	0.255243	0.494085
	Zn222	Zn	-0.009900	0.506885	0.743720
	Zn223	Zn	-0.010199	0.505106	0.245130
	Zn224	Zn	0.489835	0.754968	-0.002668
	Zn225	Zn	0.490066	0.256633	-0.002150
	Zn226	Zn	0.740512	0.007290	0.496045
	Zn227	Zn	0.239012	0.005500	0.497719
	N228	N	0.403815	0.969141	0.676809
	N229	N	0.575136	0.043888	0.675445
	N230	N	0.576522	0.969666	0.317731
	N231	N	0.406342	0.043834	0.320968
	N232	N	0.668232	0.419789	0.959250
	N233	N	0.667655	0.590907	0.034197
	N234	N	0.312001	0.593016	0.959275
	N235	N	0.310857	0.421404	0.033465
	N236	N	0.954296	0.687699	0.406173
	N237	N	0.025923	0.687079	0.581510
	N238	N	0.953898	0.327698	0.579604
	N239	N	0.026455	0.323409	0.404568
	N240	N	0.953352	0.421655	0.671472
	N241	N	0.026530	0.593165	0.672758
	N242	N	0.951812	0.588250	0.319613
	N243	N	0.027350	0.419641	0.315669
	N244	N	0.404170	0.684724	0.960511
	N245	N	0.576575	0.685242	0.034024
	N246	N	0.576582	0.326771	0.960402
	N247	N	0.403771	0.328535	0.034553
	N248	N	0.671304	0.970915	0.407993
	N249	N	0.668793	0.043486	0.582649
	N250	N	0.308325	0.969718	0.586025
	N251	N	0.311145	0.042529	0.412243
	N252	N	0.903315	0.468446	0.174080
	N253	N	0.073967	0.542708	0.172655
	N254	N	0.075978	0.469186	0.814918
	N255	N	0.904145	0.543193	0.816406
	N256	N	0.169386	0.918843	0.460314
	N257	N	0.166618	0.090866	0.533842
	N258	N	0.812383	0.092418	0.458752
	N259	N	0.811620	0.921956	0.532505
	N260	N	0.453213	0.184500	0.912721
	N261	N	0.526502	0.188543	0.086574
	N262	N	0.453808	0.826189	0.084596
	N263	N	0.526959	0.825502	0.909556
	N264	N	0.452832	0.921990	0.174642
	N265	N	0.528339	0.091576	0.175088
	N266	N	0.453327	0.091072	0.820900
	N267	N	0.527466	0.920646	0.818386
	N268	N	0.905996	0.183458	0.457627
	N269	N	0.077492	0.185772	0.531125
	N270	N	0.074926	0.828604	0.458588
	N271	N	0.902040	0.827173	0.531470
	N272	N	0.171464	0.470125	0.906462
	N273	N	0.167145	0.543555	0.080113
	N274	N	0.809570	0.468873	0.082579
	N275	N	0.810059	0.542465	0.909291
	O276	O	0.896718	0.031850	1.013451
	H277	H	0.902580	0.031548	1.013111
	H278	H	0.896245	0.027775	1.015154
	O279	O	0.382069	0.444715	0.592032
	H280	H	0.381231	0.434916	0.597712
	H281	H	0.390524	0.433558	0.589814
	O282	O	0.521663	0.396236	0.522941
	H283	H	0.521238	0.395615	0.508413
	H284	H	0.515174	0.403533	0.517962
	O285	O	0.347525	0.529751	0.501462
	H286	H	0.341717	0.523662	0.514715
	H287	H	0.342494	0.536437	0.495364
	O288	O	0.383519	0.585857	0.494720
	H289	H	0.368365	0.590454	0.497758
	H290	H	0.381364	0.586226	0.484021
	O291	O	-0.014299	-0.046029	1.077045
	H292	H	-0.002991	-0.052206	1.075592
	H293	H	-0.018470	-0.042551	1.075033
	O294	O	0.988461	0.953248	-0.050686
	H295	H	0.981630	0.953331	-0.040272
	H296	H	0.989745	0.960753	-0.052881
	O297	O	0.990362	1.069954	-0.008263
	H298	H	0.981454	1.059253	-0.011258
	H299	H	0.989020	1.065989	-0.009164
	O300	O	0.523595	0.513813	0.489086
	H301	H	0.534881	0.513810	0.488841
	H302	H	0.519223	0.514682	0.501338
	O303	O	0.375712	0.522971	0.537321
	H304	H	0.374957	0.519932	0.523661
	H305	H	0.387064	0.521722	0.538106
	O306	O	0.542702	0.454640	0.570278
	H307	H	0.543282	0.460784	0.584770
	H308	H	0.544237	0.451998	0.568480
	O309	O	0.582907	0.659426	0.482985
	H310	H	0.575621	0.669735	0.487203
	H311	H	0.597644	0.649265	0.483331
	O312	O	0.950770	1.093001	1.018505
	H313	H	0.958714	1.094773	1.029103
	H314	H	0.942977	1.088072	1.011435
	O315	O	1.032322	0.951474	0.004702
	H316	H	1.022234	0.942887	0.006945
	H317	H	1.048045	0.947420	0.001468
	O318	O	0.495678	0.503608	0.525810
	H319	H	0.490328	0.489591	0.523015
	H320	H	0.512423	0.509506	0.532246
	O321	O	0.613350	0.526554	0.598398
	H322	H	0.616625	0.531532	0.599928
	H323	H	0.628986	0.520620	0.602719
	O324	O	-0.074582	0.878370	0.975555
	H325	H	-0.071219	0.871876	0.980316
	H326	H	-0.081424	0.863647	0.968506
	O327	O	0.091832	0.943294	1.062651
	H328	H	0.097962	0.953222	1.083130
	H329	H	0.103129	0.944951	1.065106
	O330	O	-0.059076	-0.018373	0.022361
	H331	H	-0.052388	-0.024853	0.024527
	H332	H	-0.055494	-0.021076	0.025132
	O333	O	0.532067	0.394572	0.442286
	H334	H	0.532197	0.405929	0.445828
	H335	H	0.531710	0.390947	0.440395
	O336	O	-0.032238	0.015154	-0.010707
	H337	H	-0.031987	0.025479	-0.011770
	H338	H	-0.039870	0.001074	-0.014091
	O339	O	0.065354	-0.057957	-0.087224
	H340	H	0.064587	-0.072972	-0.084567
	H341	H	0.060170	-0.051590	-0.085633
	O342	O	0.476501	0.525261	0.515701
	H343	H	0.457829	0.518144	0.510679
	H344	H	0.482934	0.536313	0.520873
	O345	O	0.091436	0.923901	0.931515
	H346	H	0.103802	0.930671	0.936714
	H347	H	0.098195	0.915550	0.920890
	O348	O	0.454723	0.469543	0.520218
	H349	H	0.442108	0.463515	0.524341
	H350	H	0.455211	0.457327	0.511239
	O351	O	0.421577	0.540368	0.387529
	H352	H	0.411832	0.546034	0.391009
	H353	H	0.427958	0.536657	0.385026
	O354	O	0.106662	1.014865	0.023667
	H355	H	0.118380	1.022616	0.023314
	H356	H	0.105609	1.031978	0.035018
	O357	O	0.574494	0.314437	0.437148
	H358	H	0.564597	0.318631	0.433572
	H359	H	0.580741	0.307966	0.423241
	O360	O	1.048155	0.091200	0.902898
	H361	H	1.041894	0.084587	0.901351
	H362	H	1.049014	0.102442	0.905662
	O363	O	0.498547	0.629556	0.602551
	H364	H	0.497872	0.638346	0.614397
	H365	H	0.488392	0.622191	0.601723
	O366	O	0.531611	0.591186	0.613141
	H367	H	0.534042	0.593971	0.624151
	H368	H	0.524046	0.592300	0.619772
	O369	O	1.026755	0.106206	-0.024521
	H370	H	1.024903	0.114452	-0.030290
	H371	H	1.029242	0.100158	-0.029769
	O372	O	0.580529	0.521197	0.422075
	H373	H	0.591200	0.524215	0.416204
	H374	H	0.587091	0.529163	0.437271
	O375	O	0.912119	0.046092	0.992638
	H376	H	0.910811	0.045932	0.994972
	H377	H	0.906693	0.050550	0.987670
	O378	O	0.361919	0.801755	0.215928
	H379	H	0.354645	0.821959	0.218197
	H380	H	0.350197	0.788504	0.214646
	O381	O	0.476318	0.404782	0.503965
	H382	H	0.480629	0.395006	0.508625
	H383	H	0.486988	0.404932	0.503987
	O384	O	1.436576	0.551481	0.434374
	H385	H	1.438161	0.535002	0.428174
	H386	H	1.437915	0.563238	0.438691
	O387	O	1.000790	-0.067141	0.888251
	H388	H	1.013298	-0.069002	0.886929
	H389	H	0.987434	-0.061100	0.896805
	O390	O	0.978803	1.130943	0.034180
	H391	H	0.969980	1.124553	0.033938
	H392	H	0.980056	1.139133	0.037115
	O393	O	0.558916	0.508398	0.464603
	H394	H	0.569266	0.505010	0.452335
	H395	H	0.561398	0.515854	0.473331
