data_Molecule from HDF5

_cell_length_a		16.384166
_cell_length_b		16.195489
_cell_length_c		16.249926
_cell_angle_alpha	90.397672
_cell_angle_beta	90.088870
_cell_angle_gamma	90.256836
_symmetry_space_group_name_H-M	'P 1'
_symmetry_Int_Tables_number		1

loop_
	_symmetry_equiv_pos_as_xyz
	x,y,z

loop_
	_atom_site_label
	_atom_site_type_symbol
	_atom_site_fract_x
	_atom_site_fract_y
	_atom_site_fract_z
	H0	H	0.396012	0.840398	0.711265
	H1	H	0.594365	0.169370	0.714723
	H2	H	0.590286	0.840758	0.285260
	H3	H	0.397103	0.170219	0.286190
	H4	H	0.711261	0.405667	0.835518
	H5	H	0.714328	0.608787	0.161734
	H6	H	0.281909	0.603823	0.835367
	H7	H	0.280610	0.405454	0.161143
	H8	H	0.832115	0.716158	0.400121
	H9	H	0.157524	0.722492	0.598466
	H10	H	0.831764	0.291574	0.595543
	H11	H	0.158979	0.289717	0.400204
	H12	H	0.833256	0.406163	0.713625
	H13	H	0.159002	0.606237	0.714269
	H14	H	0.834421	0.602989	0.282173
	H15	H	0.159374	0.406108	0.283387
	H16	H	0.400447	0.716992	0.833609
	H17	H	0.596255	0.721732	0.162164
	H18	H	0.595134	0.289928	0.835181
	H19	H	0.399613	0.293514	0.162626
	H20	H	0.708027	0.841496	0.398473
	H21	H	0.712456	0.167882	0.602496
	H22	H	0.277914	0.841686	0.596720
	H23	H	0.279775	0.169873	0.399746
	H24	H	0.899243	0.340658	0.209455
	H25	H	0.097306	0.669983	0.213999
	H26	H	0.093325	0.341783	0.783024
	H27	H	0.900785	0.671122	0.788093
	H28	H	0.208369	0.904759	0.335096
	H29	H	0.211517	0.108232	0.661406
	H30	H	0.777508	0.104621	0.336480
	H31	H	0.777882	0.904840	0.662599
	H32	H	0.334508	0.218809	0.900465
	H33	H	0.658880	0.221688	0.099737
	H34	H	0.333893	0.789478	0.094836
	H35	H	0.660690	0.792700	0.899882
	H36	H	0.331974	0.905554	0.211222
	H37	H	0.657063	0.105886	0.216884
	H38	H	0.333342	0.102122	0.785252
	H39	H	0.657804	0.904598	0.779762
	H40	H	0.896387	0.217247	0.334297
	H41	H	0.092550	0.220270	0.663246
	H42	H	0.089188	0.791878	0.334360
	H43	H	0.897813	0.793161	0.663756
	H44	H	0.211002	0.341823	0.897210
	H45	H	0.213800	0.669175	0.099365
	H46	H	0.780644	0.342163	0.097497
	H47	H	0.781805	0.669503	0.899701
	H48	H	0.405602	0.119216	0.585153
	H49	H	0.582486	0.890752	0.585832
	H50	H	0.586932	0.122004	0.409029
	H51	H	0.401023	0.886917	0.399901
	H52	H	0.586084	0.410325	0.115306
	H53	H	0.586313	0.603290	0.882018
	H54	H	0.408225	0.609733	0.117426
	H55	H	0.407054	0.409471	0.881208
	H56	H	0.113588	0.596707	0.399559
	H57	H	0.881147	0.597263	0.589012
	H58	H	0.111316	0.402219	0.581774
	H59	H	0.883174	0.410949	0.411144
	H60	H	0.106572	0.425177	0.587390
	H61	H	0.879803	0.593637	0.597781
	H62	H	0.112878	0.605890	0.409842
	H63	H	0.881715	0.418614	0.399952
	H64	H	0.393197	0.593830	0.117082
	H65	H	0.597895	0.599528	0.879516
	H66	H	0.596092	0.413634	0.117072
	H67	H	0.398911	0.411392	0.879488
	H68	H	0.587637	0.123009	0.408743
	H69	H	0.590550	0.888133	0.586632
	H70	H	0.395429	0.124717	0.592567
	H71	H	0.402619	0.890609	0.408927
	H72	H	0.889891	0.625911	0.088314
	H73	H	0.091990	0.390006	0.082806
	H74	H	0.086108	0.621435	0.908233
	H75	H	0.905037	0.389721	0.906468
	H76	H	0.092063	0.924435	0.613789
	H77	H	0.084614	0.101487	0.381527
	H78	H	0.892600	0.105377	0.620973
	H79	H	0.897168	0.908496	0.380829
	H80	H	0.608299	0.089530	0.910893
	H81	H	0.382838	0.090641	0.092574
	H82	H	0.611326	0.920672	0.101384
	H83	H	0.380418	0.917294	0.895651
	H84	H	0.615266	0.904361	0.095082
	H85	H	0.377050	0.102997	0.099589
	H86	H	0.615123	0.096893	0.896792
	H87	H	0.377011	0.898064	0.903306
	H88	H	0.899796	0.085508	0.611895
	H89	H	0.092641	0.095645	0.381059
	H90	H	0.077766	0.912358	0.612758
	H91	H	0.898006	0.913689	0.383021
	H92	H	0.094677	0.623310	0.910644
	H93	H	0.095320	0.385178	0.095245
	H94	H	0.911514	0.624678	0.105316
	H95	H	0.900529	0.388720	0.908006
	H96	H	0.407559	0.122918	0.598562
	H97	H	0.584971	0.887106	0.593478
	H98	H	0.587304	0.122689	0.408676
	H99	H	0.394227	0.887550	0.406141
	H100	H	0.588498	0.420568	0.114202
	H101	H	0.589628	0.591153	0.883462
	H102	H	0.413598	0.590322	0.109446
	H103	H	0.404963	0.416475	0.882967
	H104	H	0.108425	0.592550	0.412192
	H105	H	0.877610	0.602752	0.595740
	H106	H	0.115497	0.410988	0.604000
	H107	H	0.877669	0.405481	0.399618
	H108	H	0.914008	0.617029	0.078975
	H109	H	0.082917	0.390335	0.092091
	H110	H	0.092615	0.624610	0.902474
	H111	H	0.902379	0.387071	0.903002
	H112	H	0.094053	0.906500	0.619387
	H113	H	0.084003	0.091693	0.384475
	H114	H	0.914147	0.102803	0.613340
	H115	H	0.901811	0.909792	0.382629
	H116	H	0.613697	0.106146	0.911183
	H117	H	0.380805	0.103570	0.085119
	H118	H	0.608731	0.916562	0.084292
	H119	H	0.385443	0.913451	0.915869
	C120	C	0.373260	0.013550	0.619882
	C121	C	0.615863	0.996728	0.619756
	C122	C	0.615157	0.014124	0.378793
	C123	C	0.372108	0.997145	0.376877
	C124	C	0.618409	0.384703	0.007502
	C125	C	0.619706	0.627695	0.989958
	C126	C	0.376584	0.626359	0.006614
	C127	C	0.374990	0.383720	0.989508
	C128	C	0.004004	0.625881	0.377987
	C129	C	0.987375	0.627468	0.621768
	C130	C	0.003767	0.383807	0.619882
	C131	C	0.988043	0.382489	0.375412
	C132	C	0.875870	0.514104	0.119495
	C133	C	0.119359	0.497096	0.119879
	C134	C	0.118431	0.514478	0.877354
	C135	C	0.874982	0.497456	0.877844
	C136	C	0.115928	0.884354	0.507349
	C137	C	0.116343	0.127092	0.490241
	C138	C	0.873016	0.126513	0.507339
	C139	C	0.871146	0.882643	0.490439
	C140	C	0.505021	0.126026	0.877669
	C141	C	0.487465	0.128157	0.121685
	C142	C	0.503996	0.883930	0.120704
	C143	C	0.488397	0.882129	0.875822
	C144	C	0.375418	0.889687	0.673795
	C145	C	0.614504	0.120016	0.676781
	C146	C	0.611630	0.890076	0.322833
	C147	C	0.375732	0.120925	0.322584
	C148	C	0.673325	0.385469	0.884309
	C149	C	0.675191	0.627186	0.113047
	C150	C	0.320472	0.624211	0.883832
	C151	C	0.318843	0.385699	0.112259
	C152	C	0.881179	0.679192	0.379994
	C153	C	0.109414	0.683935	0.618715
	C154	C	0.880890	0.329005	0.616554
	C155	C	0.110250	0.327283	0.378946
	C156	C	0.881724	0.385607	0.675547
	C157	C	0.110199	0.625804	0.676158
	C158	C	0.882648	0.623209	0.320724
	C159	C	0.110577	0.385049	0.320930
	C160	C	0.379428	0.680156	0.883000
	C161	C	0.617199	0.684044	0.113066
	C162	C	0.615515	0.328252	0.884096
	C163	C	0.378443	0.330215	0.113411
	C164	C	0.670178	0.890496	0.378897
	C165	C	0.673241	0.119393	0.620817
	C166	C	0.316869	0.890448	0.616982
	C167	C	0.317567	0.120811	0.379358
	C168	C	0.878026	0.390120	0.173245
	C169	C	0.117743	0.620371	0.176461
	C170	C	0.114705	0.390654	0.821079
	C171	C	0.878883	0.621477	0.824158
	C172	C	0.170421	0.885200	0.384025
	C173	C	0.172928	0.127139	0.612835
	C174	C	0.816678	0.124347	0.384690
	C175	C	0.816377	0.884914	0.613800
	C176	C	0.382693	0.181058	0.879999
	C177	C	0.609980	0.183515	0.119770
	C178	C	0.382119	0.827683	0.116070
	C179	C	0.611575	0.829163	0.878709
	C180	C	0.381320	0.885569	0.174115
	C181	C	0.609169	0.125838	0.177946
	C182	C	0.382110	0.122763	0.822918
	C183	C	0.610100	0.884833	0.819166
	C184	C	0.875672	0.180390	0.383684
	C185	C	0.113653	0.182742	0.613921
	C186	C	0.111232	0.829071	0.383576
	C187	C	0.875489	0.829002	0.614184
	C188	C	0.173257	0.390911	0.877578
	C189	C	0.175706	0.620134	0.119288
	C190	C	0.819213	0.391014	0.117488
	C191	C	0.820014	0.620673	0.879969
	C192	C	0.395973	0.100014	0.598257
	C193	C	0.592737	0.910773	0.595749
	C194	C	0.593627	0.100219	0.402068
	C195	C	0.393116	0.910678	0.398633
	C196	C	0.596630	0.408087	0.093223
	C197	C	0.597701	0.604420	0.903912
	C198	C	0.398690	0.604560	0.092514
	C199	C	0.397263	0.405915	0.903548
	C200	C	0.089496	0.604822	0.400646
	C201	C	0.901725	0.604547	0.600467
	C202	C	0.089089	0.406280	0.597737
	C203	C	0.902809	0.404917	0.397053
	C204	C	0.898582	0.600192	0.097395
	C205	C	0.096681	0.410797	0.096793
	C206	C	0.097396	0.600711	0.900487
	C207	C	0.896461	0.410891	0.899350
	C208	C	0.094306	0.907631	0.593149
	C209	C	0.093532	0.103317	0.404460
	C210	C	0.895460	0.104338	0.593263
	C211	C	0.892565	0.904189	0.404561
	C212	C	0.590271	0.104040	0.899800
	C213	C	0.402151	0.105812	0.098818
	C214	C	0.589821	0.907088	0.099760
	C215	C	0.402979	0.903219	0.898234
	Zn216	Zn	0.495501	0.004692	0.748175
	Zn217	Zn	0.494537	0.005873	0.250195
	Zn218	Zn	0.747134	0.505920	-0.001021
	Zn219	Zn	0.247321	0.505648	-0.002376
	Zn220	Zn	-0.005904	0.755491	0.499201
	Zn221	Zn	-0.005052	0.254600	0.498211
	Zn222	Zn	-0.003727	0.505744	0.749907
	Zn223	Zn	-0.003120	0.505202	0.247525
	Zn224	Zn	0.497788	0.754912	-0.001890
	Zn225	Zn	0.496718	0.256048	-0.001169
	Zn226	Zn	0.743911	0.005132	0.499120
	Zn227	Zn	0.244401	0.006123	0.498254
	N228	N	0.409856	0.967251	0.675690
	N229	N	0.579403	0.042740	0.675937
	N230	N	0.578069	0.967859	0.322533
	N231	N	0.408846	0.042990	0.321020
	N232	N	0.675450	0.419772	0.961909
	N233	N	0.677171	0.593191	0.035145
	N234	N	0.318716	0.591283	0.961478
	N235	N	0.316627	0.418164	0.034304
	N236	N	0.957787	0.681100	0.414820
	N237	N	0.032079	0.685067	0.585576
	N238	N	0.957798	0.327841	0.582510
	N239	N	0.033004	0.325450	0.411843
	N240	N	0.959034	0.419135	0.677798
	N241	N	0.033300	0.591304	0.678026
	N242	N	0.960014	0.590719	0.319501
	N243	N	0.033647	0.418724	0.318614
	N244	N	0.413587	0.681723	0.960537
	N245	N	0.583335	0.684302	0.035663
	N246	N	0.581962	0.327736	0.961791
	N247	N	0.412477	0.328787	0.035953
	N248	N	0.672293	0.968302	0.413156
	N249	N	0.674098	0.041648	0.586013
	N250	N	0.315299	0.968623	0.584427
	N251	N	0.315304	0.042798	0.412255
	N252	N	0.912527	0.467761	0.174787
	N253	N	0.083214	0.542703	0.176875
	N254	N	0.081461	0.468425	0.820821
	N255	N	0.912341	0.543654	0.822575
	N256	N	0.173341	0.918773	0.461969
	N257	N	0.174598	0.093163	0.534936
	N258	N	0.815090	0.091406	0.462491
	N259	N	0.813358	0.917496	0.535816
	N260	N	0.459941	0.183160	0.913485
	N261	N	0.533119	0.185107	0.085629
	N262	N	0.459596	0.826723	0.083720
	N263	N	0.534832	0.827280	0.913222
	N264	N	0.458396	0.919751	0.177038
	N265	N	0.532061	0.092139	0.179228
	N266	N	0.459095	0.089362	0.821340
	N267	N	0.532621	0.916896	0.817202
	N268	N	0.910116	0.181741	0.460996
	N269	N	0.079243	0.182780	0.536581
	N270	N	0.078135	0.828341	0.461333
	N271	N	0.908727	0.827243	0.536603
	N272	N	0.175679	0.468852	0.911713
	N273	N	0.176871	0.542420	0.084935
	N274	N	0.817678	0.469164	0.084928
	N275	N	0.817504	0.542443	0.912264
	O276	O	0.386779	0.570181	0.499304
	H277	H	0.379791	0.567231	0.487701
	H278	H	0.384374	0.571219	0.499832
	O279	O	0.531648	0.559910	0.450708
	H280	H	0.531604	0.565963	0.459367
	H281	H	0.535343	0.553870	0.466731
	O282	O	0.476416	0.538252	0.512592
	H283	H	0.484564	0.547393	0.510769
	H284	H	0.481670	0.538753	0.511288
	O285	O	0.036223	1.065280	0.990572
	H286	H	0.045031	1.059394	0.980547
	H287	H	0.035187	1.070845	0.990550
	O288	O	0.003267	0.024184	0.978684
	H289	H	0.001993	0.023345	0.972871
	H290	H	0.000347	0.028028	0.973944
	O291	O	0.046695	0.053663	1.060182
	H292	H	0.045876	0.049880	1.053101
	H293	H	0.046184	0.056991	1.052600
	O294	O	0.472542	0.545188	0.469467
	H295	H	0.484823	0.545448	0.474139
	H296	H	0.474022	0.542404	0.458225
	O297	O	0.509208	0.451687	0.467029
	H298	H	0.507620	0.461648	0.468141
	H299	H	0.506989	0.442728	0.465215
	O300	O	0.513623	0.466310	0.490363
	H301	H	0.506682	0.475447	0.486995
	H302	H	0.511616	0.466078	0.494653
	O303	O	0.558924	0.511809	0.465765
	H304	H	0.550121	0.524350	0.463376
	H305	H	0.563144	0.505919	0.464216
	O306	O	1.028089	0.065912	1.072121
	H307	H	1.032012	0.069632	1.083686
	H308	H	1.026105	0.068150	1.079773
	O309	O	0.501464	0.462257	0.478569
	H310	H	0.498750	0.472001	0.479097
	H311	H	0.496965	0.462819	0.478362
	O312	O	0.508816	0.606778	0.497359
	H313	H	0.510601	0.614088	0.501735
	H314	H	0.494482	0.601026	0.504441
	O315	O	1.084304	0.036909	1.047867
	H316	H	1.092519	0.023706	1.052881
	H317	H	1.087503	0.041009	1.042712
	O318	O	0.493623	-0.527389	-0.579223
	H319	H	0.500515	-0.525029	-0.585976
	H320	H	0.492895	-0.528471	-0.581607
	O321	O	0.452293	0.478203	0.503422
	H322	H	0.463275	0.475308	0.503184
	H323	H	0.451158	0.472173	0.495444
	O324	O	1.047789	0.081471	0.000344
	H325	H	1.043734	0.084497	0.005609
	H326	H	1.039828	0.085392	-0.005059
	O327	O	1.001811	1.051070	-0.027972
	H328	H	0.999618	1.056038	-0.028816
	H329	H	1.002272	1.056031	-0.015234
	O330	O	0.536093	0.508179	0.522002
	H331	H	0.524108	0.509496	0.526850
	H332	H	0.550348	0.514307	0.518485
	O333	O	0.507789	0.510692	0.553299
	H334	H	0.499506	0.507836	0.558488
	H335	H	0.507411	0.510678	0.551578
