data_Molecule from HDF5

_cell_length_a		16.329573
_cell_length_b		16.336482
_cell_length_c		16.258782
_cell_angle_alpha	89.964945
_cell_angle_beta	90.040354
_cell_angle_gamma	90.060282
_symmetry_space_group_name_H-M	'P 1'
_symmetry_Int_Tables_number		1

loop_
	_symmetry_equiv_pos_as_xyz
	x,y,z

loop_
	_atom_site_label
	_atom_site_type_symbol
	_atom_site_fract_x
	_atom_site_fract_y
	_atom_site_fract_z
	H0	H	0.401579	0.836701	0.714679
	H1	H	0.597185	0.163676	0.713500
	H2	H	0.596419	0.836501	0.286372
	H3	H	0.402148	0.163596	0.285389
	H4	H	0.714465	0.401915	0.836041
	H5	H	0.714810	0.598303	0.164015
	H6	H	0.285359	0.598089	0.836214
	H7	H	0.286989	0.402477	0.163727
	H8	H	0.836405	0.713866	0.401895
	H9	H	0.162542	0.715401	0.599289
	H10	H	0.837181	0.285057	0.598428
	H11	H	0.163783	0.285393	0.401743
	H12	H	0.835808	0.402603	0.713008
	H13	H	0.163088	0.597794	0.714180
	H14	H	0.836416	0.597670	0.286089
	H15	H	0.163769	0.404336	0.287112
	H16	H	0.403365	0.712548	0.835912
	H17	H	0.599376	0.714667	0.163220
	H18	H	0.598654	0.286111	0.836322
	H19	H	0.404106	0.286938	0.164097
	H20	H	0.713684	0.836558	0.402447
	H21	H	0.714369	0.163393	0.598153
	H22	H	0.284691	0.837112	0.598417
	H23	H	0.284945	0.162927	0.401228
	H24	H	0.902697	0.337259	0.214265
	H25	H	0.097518	0.663905	0.213678
	H26	H	0.097317	0.336357	0.785993
	H27	H	0.902828	0.663283	0.785749
	H28	H	0.214746	0.901814	0.335776
	H29	H	0.214513	0.098816	0.663723
	H30	H	0.786835	0.096557	0.335726
	H31	H	0.784627	0.901147	0.663862
	H32	H	0.336905	0.214075	0.902236
	H33	H	0.663034	0.215101	0.099757
	H34	H	0.337055	0.784783	0.098396
	H35	H	0.663218	0.785399	0.901220
	H36	H	0.335842	0.902407	0.213466
	H37	H	0.663711	0.096049	0.212663
	H38	H	0.335989	0.097053	0.786358
	H39	H	0.663280	0.902828	0.785974
	H40	H	0.902960	0.213783	0.336151
	H41	H	0.098879	0.214808	0.663741
	H42	H	0.096821	0.787061	0.335424
	H43	H	0.901949	0.785427	0.664050
	H44	H	0.214757	0.337366	0.901506
	H45	H	0.214734	0.663470	0.097290
	H46	H	0.785544	0.337185	0.098575
	H47	H	0.784823	0.662918	0.900335
	H48	H	0.399561	0.119724	0.598117
	H49	H	0.591866	0.883605	0.594893
	H50	H	0.591345	0.114187	0.411353
	H51	H	0.400854	0.881813	0.404347
	H52	H	0.602288	0.417215	0.116697
	H53	H	0.591828	0.591906	0.884087
	H54	H	0.402064	0.595562	0.118736
	H55	H	0.409057	0.407219	0.884247
	H56	H	0.118374	0.598538	0.404813
	H57	H	0.886009	0.593308	0.584155
	H58	H	0.112232	0.416681	0.589449
	H59	H	0.882878	0.400963	0.407709
	H60	H	0.119479	0.406230	0.603609
	H61	H	0.884902	0.585879	0.596188
	H62	H	0.114183	0.594465	0.411438
	H63	H	0.886396	0.408302	0.411924
	H64	H	0.406898	0.588070	0.115644
	H65	H	0.592821	0.593300	0.883783
	H66	H	0.581302	0.409029	0.112838
	H67	H	0.406809	0.402939	0.881531
	H68	H	0.600018	0.117918	0.406646
	H69	H	0.591718	0.884774	0.591357
	H70	H	0.413953	0.114395	0.597512
	H71	H	0.411445	0.884500	0.402692
	H72	H	0.905507	0.617282	0.095029
	H73	H	0.100333	0.382003	0.094465
	H74	H	0.091579	0.615880	0.905124
	H75	H	0.902849	0.383024	0.906316
	H76	H	0.095004	0.901822	0.618188
	H77	H	0.094505	0.089448	0.384424
	H78	H	0.912023	0.092002	0.615735
	H79	H	0.904901	0.913907	0.385724
	H80	H	0.616750	0.099281	0.910519
	H81	H	0.383751	0.091983	0.091016
	H82	H	0.619886	0.894458	0.095905
	H83	H	0.384401	0.912207	0.903047
	H84	H	0.611770	0.909303	0.080949
	H85	H	0.383596	0.093210	0.094916
	H86	H	0.614105	0.087686	0.908434
	H87	H	0.380835	0.898586	0.903798
	H88	H	0.905460	0.098858	0.618772
	H89	H	0.088749	0.092652	0.384571
	H90	H	0.097130	0.912015	0.615584
	H91	H	0.912451	0.901729	0.383861
	H92	H	0.092910	0.615827	0.909338
	H93	H	0.090540	0.383114	0.099072
	H94	H	0.908397	0.616833	0.093471
	H95	H	0.909443	0.383677	0.903894
	H96	H	0.405293	0.114082	0.584552
	H97	H	0.594930	0.883881	0.592796
	H98	H	0.590607	0.116875	0.400745
	H99	H	0.406600	0.885943	0.413461
	H100	H	0.597823	0.395208	0.120258
	H101	H	0.593351	0.591605	0.883088
	H102	H	0.411067	0.596268	0.117296
	H103	H	0.403802	0.407280	0.881904
	H104	H	0.115736	0.590365	0.403492
	H105	H	0.880526	0.599912	0.595623
	H106	H	0.116159	0.398144	0.586630
	H107	H	0.883837	0.409310	0.403459
	H108	H	0.905577	0.616476	0.091443
	H109	H	0.091760	0.386177	0.088590
	H110	H	0.095810	0.616260	0.906108
	H111	H	0.907702	0.385142	0.910547
	H112	H	0.087349	0.907964	0.613977
	H113	H	0.094014	0.095734	0.382710
	H114	H	0.901954	0.088791	0.616799
	H115	H	0.898808	0.902260	0.380007
	H116	H	0.617884	0.094143	0.899506
	H117	H	0.383069	0.095703	0.092043
	H118	H	0.616096	0.915561	0.102781
	H119	H	0.386465	0.905375	0.915369
	C120	C	0.377931	0.008054	0.621594
	C121	C	0.621412	0.992114	0.621665
	C122	C	0.621821	0.008269	0.378071
	C123	C	0.378154	0.991916	0.378321
	C124	C	0.622016	0.378665	0.008212
	C125	C	0.621711	0.620947	0.991667
	C126	C	0.378703	0.621446	0.008514
	C127	C	0.379017	0.378417	0.991332
	C128	C	0.007976	0.622317	0.378204
	C129	C	0.991462	0.621673	0.621144
	C130	C	0.008194	0.378440	0.621743
	C131	C	0.992353	0.378546	0.379000
	C132	C	0.878521	0.508861	0.121488
	C133	C	0.122173	0.491839	0.122147
	C134	C	0.121583	0.508205	0.878311
	C135	C	0.878145	0.491561	0.878271
	C136	C	0.121078	0.879017	0.507756
	C137	C	0.121292	0.121460	0.491979
	C138	C	0.878720	0.121155	0.508556
	C139	C	0.877847	0.878008	0.491659
	C140	C	0.508247	0.121639	0.878358
	C141	C	0.491739	0.121366	0.121203
	C142	C	0.508168	0.877829	0.121829
	C143	C	0.491857	0.877985	0.878772
	C144	C	0.380820	0.885462	0.676727
	C145	C	0.618334	0.114838	0.676236
	C146	C	0.617672	0.885106	0.323977
	C147	C	0.381129	0.114716	0.323069
	C148	C	0.676865	0.381409	0.885152
	C149	C	0.677050	0.618939	0.114948
	C150	C	0.323885	0.618319	0.885011
	C151	C	0.324342	0.381628	0.114772
	C152	C	0.885158	0.676341	0.381492
	C153	C	0.113997	0.677375	0.619527
	C154	C	0.885667	0.322997	0.619177
	C155	C	0.115049	0.323642	0.381273
	C156	C	0.884894	0.381514	0.675945
	C157	C	0.114404	0.618728	0.676266
	C158	C	0.885266	0.618969	0.323524
	C159	C	0.115000	0.382444	0.324202
	C160	C	0.382065	0.675448	0.884914
	C161	C	0.619285	0.676171	0.114908
	C162	C	0.618991	0.324119	0.884971
	C163	C	0.382199	0.324158	0.114888
	C164	C	0.675511	0.885117	0.381757
	C165	C	0.676451	0.114769	0.618899
	C166	C	0.322834	0.885583	0.618932
	C167	C	0.323089	0.114524	0.380660
	C168	C	0.881651	0.385762	0.176610
	C169	C	0.118582	0.614995	0.176062
	C170	C	0.118394	0.385522	0.823511
	C171	C	0.881079	0.614537	0.823000
	C172	C	0.176087	0.881514	0.384309
	C173	C	0.176847	0.119290	0.614825
	C174	C	0.824639	0.117722	0.384637
	C175	C	0.822794	0.880609	0.615045
	C176	C	0.385462	0.176489	0.881516
	C177	C	0.614517	0.176361	0.119091
	C178	C	0.385386	0.822716	0.119132
	C179	C	0.614708	0.823475	0.881116
	C180	C	0.384828	0.881235	0.175928
	C181	C	0.614956	0.117439	0.175465
	C182	C	0.385064	0.118218	0.824148
	C183	C	0.614615	0.881856	0.823888
	C184	C	0.882035	0.175792	0.384864
	C185	C	0.119303	0.176802	0.614951
	C186	C	0.117788	0.824476	0.384277
	C187	C	0.880790	0.823050	0.615209
	C188	C	0.176631	0.385733	0.880947
	C189	C	0.177207	0.614783	0.118864
	C190	C	0.823658	0.385927	0.119195
	C191	C	0.823216	0.614503	0.880489
	C192	C	0.399806	0.093988	0.599816
	C193	C	0.599315	0.906182	0.599531
	C194	C	0.600256	0.094185	0.399769
	C195	C	0.399974	0.906262	0.400394
	C196	C	0.600158	0.400602	0.094445
	C197	C	0.599289	0.598677	0.905870
	C198	C	0.400288	0.599846	0.094829
	C199	C	0.400201	0.399663	0.904750
	C200	C	0.093943	0.600739	0.400062
	C201	C	0.905928	0.599500	0.598599
	C202	C	0.093740	0.400570	0.599850
	C203	C	0.906480	0.399846	0.401189
	C204	C	0.900182	0.594686	0.099636
	C205	C	0.100530	0.406016	0.100487
	C206	C	0.099727	0.593961	0.900342
	C207	C	0.900267	0.406054	0.900234
	C208	C	0.099549	0.900863	0.593814
	C209	C	0.099063	0.099125	0.405939
	C210	C	0.900104	0.099582	0.594847
	C211	C	0.899236	0.899547	0.405376
	C212	C	0.594130	0.100138	0.899911
	C213	C	0.405794	0.099767	0.099256
	C214	C	0.593761	0.899825	0.099804
	C215	C	0.406052	0.899103	0.900769
	Zn216	Zn	0.499920	-0.000229	0.750038
	Zn217	Zn	0.499775	0.000017	0.249781
	Zn218	Zn	0.749858	0.500344	0.000078
	Zn219	Zn	0.250813	0.499881	-0.000087
	Zn220	Zn	0.000037	0.750551	0.499931
	Zn221	Zn	0.000288	0.249351	0.500473
	Zn222	Zn	-0.000596	0.500119	0.749829
	Zn223	Zn	-0.000205	0.500435	0.250167
	Zn224	Zn	0.500379	0.749293	0.000362
	Zn225	Zn	0.500395	0.250298	0.000149
	Zn226	Zn	0.750262	-0.000074	0.500233
	Zn227	Zn	0.249587	0.000095	0.499750
	N228	N	0.414563	0.962626	0.678081
	N229	N	0.584563	0.037473	0.677865
	N230	N	0.585095	0.962694	0.321450
	N231	N	0.414556	0.037472	0.321368
	N232	N	0.678591	0.414639	0.962770
	N233	N	0.678506	0.585303	0.037512
	N234	N	0.321743	0.585519	0.963075
	N235	N	0.322410	0.414781	0.036945
	N236	N	0.962707	0.678543	0.414663
	N237	N	0.036618	0.679285	0.586146
	N238	N	0.963131	0.320922	0.585966
	N239	N	0.037454	0.320796	0.414331
	N240	N	0.962033	0.415294	0.677515
	N241	N	0.037284	0.584772	0.677417
	N242	N	0.962600	0.585927	0.321548
	N243	N	0.037856	0.416106	0.323178
	N244	N	0.415401	0.677304	0.962549
	N245	N	0.585628	0.677698	0.037264
	N246	N	0.585287	0.322411	0.962536
	N247	N	0.415590	0.322183	0.037154
	N248	N	0.678174	0.962748	0.414645
	N249	N	0.678365	0.037326	0.585721
	N250	N	0.320922	0.963000	0.585558
	N251	N	0.321248	0.037277	0.414352
	N252	N	0.915014	0.463192	0.178219
	N253	N	0.085215	0.537679	0.178107
	N254	N	0.084746	0.462686	0.821964
	N255	N	0.914734	0.537430	0.821735
	N256	N	0.178183	0.914889	0.462080
	N257	N	0.177881	0.085310	0.537396
	N258	N	0.822636	0.084424	0.462353
	N259	N	0.821024	0.914131	0.537417
	N260	N	0.463100	0.178635	0.914527
	N261	N	0.536995	0.178731	0.085962
	N262	N	0.462959	0.820546	0.086114
	N263	N	0.537397	0.821055	0.914642
	N264	N	0.462146	0.914778	0.177797
	N265	N	0.537553	0.083916	0.176863
	N266	N	0.462289	0.084557	0.822297
	N267	N	0.537253	0.914970	0.822331
	N268	N	0.915055	0.177929	0.462824
	N269	N	0.085413	0.178132	0.537536
	N270	N	0.084401	0.822882	0.461947
	N271	N	0.914241	0.821369	0.537569
	N272	N	0.178826	0.463140	0.914279
	N273	N	0.179425	0.537251	0.085820
	N274	N	0.821729	0.463228	0.085613
	N275	N	0.821177	0.537133	0.913986
