data_Molecule from HDF5

_cell_length_a		16.265830
_cell_length_b		16.367803
_cell_length_c		16.227772
_cell_angle_alpha	90.233828
_cell_angle_beta	90.008558
_cell_angle_gamma	89.947894
_symmetry_space_group_name_H-M	'P 1'
_symmetry_Int_Tables_number		1

loop_
	_symmetry_equiv_pos_as_xyz
	x,y,z

loop_
	_atom_site_label
	_atom_site_type_symbol
	_atom_site_fract_x
	_atom_site_fract_y
	_atom_site_fract_z
	H0	H	0.402179	0.838404	0.718930
	H1	H	0.596740	0.165439	0.719528
	H2	H	0.599863	0.838314	0.289144
	H3	H	0.403050	0.164782	0.292570
	H4	H	0.711177	0.403072	0.840735
	H5	H	0.711500	0.598954	0.169954
	H6	H	0.286913	0.596960	0.839202
	H7	H	0.286238	0.405631	0.169887
	H8	H	0.836065	0.716815	0.405213
	H9	H	0.163767	0.715909	0.605197
	H10	H	0.836214	0.286259	0.604329
	H11	H	0.162879	0.286092	0.405366
	H12	H	0.835603	0.404356	0.717787
	H13	H	0.164205	0.598074	0.719114
	H14	H	0.834411	0.598405	0.291772
	H15	H	0.163518	0.404587	0.292340
	H16	H	0.399784	0.715491	0.840450
	H17	H	0.596673	0.715734	0.169847
	H18	H	0.597175	0.285631	0.842226
	H19	H	0.400383	0.288435	0.170093
	H20	H	0.715001	0.838402	0.406861
	H21	H	0.715188	0.164695	0.605271
	H22	H	0.284522	0.839130	0.605121
	H23	H	0.285645	0.164616	0.408190
	H24	H	0.900476	0.337327	0.219151
	H25	H	0.096003	0.664735	0.219327
	H26	H	0.096071	0.336887	0.791214
	H27	H	0.901566	0.664702	0.791519
	H28	H	0.213728	0.903093	0.340709
	H29	H	0.212882	0.098822	0.670034
	H30	H	0.786745	0.097492	0.341724
	H31	H	0.786044	0.904387	0.670146
	H32	H	0.335930	0.215299	0.907240
	H33	H	0.663068	0.216613	0.104793
	H34	H	0.335323	0.787566	0.103652
	H35	H	0.662994	0.784672	0.905533
	H36	H	0.334895	0.905279	0.218199
	H37	H	0.664809	0.097902	0.216875
	H38	H	0.335510	0.097429	0.793447
	H39	H	0.664674	0.904372	0.793010
	H40	H	0.900788	0.214349	0.341504
	H41	H	0.099806	0.217803	0.668373
	H42	H	0.099710	0.785030	0.341236
	H43	H	0.901270	0.787373	0.670462
	H44	H	0.213084	0.337587	0.907180
	H45	H	0.212995	0.664485	0.103180
	H46	H	0.784355	0.337318	0.102858
	H47	H	0.783260	0.663947	0.906219
	H48	H	0.401041	0.119464	0.600603
	H49	H	0.597050	0.885618	0.598705
	H50	H	0.585459	0.115877	0.407268
	H51	H	0.408290	0.884241	0.407136
	H52	H	0.587303	0.402035	0.124113
	H53	H	0.585017	0.591156	0.890726
	H54	H	0.403320	0.595712	0.122357
	H55	H	0.407278	0.406346	0.888841
	H56	H	0.115386	0.591428	0.411887
	H57	H	0.878879	0.598880	0.607262
	H58	H	0.118137	0.406319	0.602498
	H59	H	0.882740	0.407683	0.413407
	H60	H	0.116230	0.404644	0.592481
	H61	H	0.884874	0.601051	0.589420
	H62	H	0.116395	0.595622	0.410896
	H63	H	0.881941	0.407558	0.411457
	H64	H	0.406559	0.592597	0.120795
	H65	H	0.591768	0.599080	0.886534
	H66	H	0.599132	0.406537	0.125619
	H67	H	0.405525	0.405352	0.887923
	H68	H	0.594492	0.114292	0.422077
	H69	H	0.593124	0.885313	0.601284
	H70	H	0.409028	0.118277	0.604909
	H71	H	0.411552	0.888114	0.414961
	H72	H	0.912133	0.614068	0.097014
	H73	H	0.092357	0.384793	0.100228
	H74	H	0.089821	0.615539	0.912298
	H75	H	0.901676	0.383165	0.906072
	H76	H	0.090029	0.908527	0.620725
	H77	H	0.088889	0.093589	0.389616
	H78	H	0.908612	0.089223	0.620765
	H79	H	0.917147	0.912767	0.393776
	H80	H	0.620355	0.100817	0.905198
	H81	H	0.380026	0.096510	0.107950
	H82	H	0.615981	0.903642	0.093046
	H83	H	0.385788	0.909859	0.917595
	H84	H	0.613974	0.912734	0.096530
	H85	H	0.382500	0.102320	0.092456
	H86	H	0.615159	0.099849	0.922322
	H87	H	0.382639	0.911108	0.907236
	H88	H	0.912400	0.099467	0.622926
	H89	H	0.094562	0.098390	0.386479
	H90	H	0.092246	0.906917	0.622278
	H91	H	0.908102	0.896553	0.386118
	H92	H	0.095099	0.616425	0.915060
	H93	H	0.092750	0.385784	0.097093
	H94	H	0.899279	0.616195	0.093255
	H95	H	0.909900	0.386609	0.909683
	H96	H	0.408304	0.115890	0.595958
	H97	H	0.593047	0.886137	0.596629
	H98	H	0.602457	0.120218	0.407260
	H99	H	0.402039	0.885570	0.413901
	H100	H	0.589800	0.414238	0.120393
	H101	H	0.596104	0.588669	0.889192
	H102	H	0.407559	0.597211	0.121452
	H103	H	0.405173	0.407576	0.888014
	H104	H	0.115421	0.594914	0.414912
	H105	H	0.886661	0.584811	0.597558
	H106	H	0.114293	0.413869	0.596774
	H107	H	0.882624	0.405993	0.412203
	H108	H	0.903096	0.619014	0.106482
	H109	H	0.095393	0.384566	0.098496
	H110	H	0.093958	0.617893	0.909224
	H111	H	0.902241	0.385779	0.915548
	H112	H	0.093266	0.909542	0.621378
	H113	H	0.096439	0.091167	0.387739
	H114	H	0.901986	0.097153	0.625464
	H115	H	0.897430	0.913113	0.387911
	H116	H	0.614528	0.085490	0.911759
	H117	H	0.386291	0.087011	0.095410
	H118	H	0.617474	0.905560	0.101953
	H119	H	0.381459	0.900915	0.912011
	C120	C	0.378108	0.010055	0.627933
	C121	C	0.622395	0.993608	0.627637
	C122	C	0.622709	0.009135	0.383178
	C123	C	0.378552	0.993410	0.383688
	C124	C	0.620071	0.379255	0.014465
	C125	C	0.619652	0.622126	0.997206
	C126	C	0.377550	0.622815	0.012797
	C127	C	0.377932	0.379351	0.997040
	C128	C	0.007153	0.622305	0.383799
	C129	C	0.991650	0.623105	0.626829
	C130	C	0.008079	0.380081	0.625767
	C131	C	0.990684	0.378894	0.383418
	C132	C	0.877092	0.508553	0.126646
	C133	C	0.121208	0.492918	0.126753
	C134	C	0.120691	0.508792	0.883318
	C135	C	0.876754	0.493140	0.882877
	C136	C	0.121312	0.879263	0.513189
	C137	C	0.121493	0.122906	0.496627
	C138	C	0.879018	0.122709	0.514238
	C139	C	0.878622	0.879231	0.497548
	C140	C	0.508086	0.122769	0.884758
	C141	C	0.491470	0.123232	0.126923
	C142	C	0.507382	0.879803	0.126091
	C143	C	0.491562	0.878927	0.883689
	C144	C	0.381319	0.887314	0.681973
	C145	C	0.618286	0.116446	0.682267
	C146	C	0.619869	0.886890	0.327704
	C147	C	0.381904	0.116046	0.329785
	C148	C	0.674377	0.382078	0.890252
	C149	C	0.673872	0.619526	0.121031
	C150	C	0.323700	0.618428	0.888569
	C151	C	0.323521	0.384019	0.120911
	C152	C	0.884482	0.678040	0.385855
	C153	C	0.114748	0.678168	0.625224
	C154	C	0.884836	0.324646	0.624028
	C155	C	0.113867	0.323797	0.385166
	C156	C	0.884467	0.383286	0.680281
	C157	C	0.115222	0.619490	0.681603
	C158	C	0.883698	0.619376	0.329150
	C159	C	0.114340	0.382639	0.328897
	C160	C	0.380077	0.676946	0.889002
	C161	C	0.617071	0.677835	0.120752
	C162	C	0.617742	0.323920	0.890807
	C163	C	0.380147	0.325816	0.120872
	C164	C	0.677480	0.886948	0.385951
	C165	C	0.676945	0.116199	0.625312
	C166	C	0.322646	0.887575	0.625373
	C167	C	0.323462	0.115851	0.387336
	C168	C	0.880207	0.385864	0.181326
	C169	C	0.117412	0.615915	0.181747
	C170	C	0.116908	0.385718	0.828758
	C171	C	0.880188	0.615663	0.828730
	C172	C	0.176704	0.881690	0.390019
	C173	C	0.175643	0.120048	0.620601
	C174	C	0.824579	0.118344	0.390434
	C175	C	0.823784	0.883069	0.621375
	C176	C	0.384681	0.177124	0.887150
	C177	C	0.614536	0.178184	0.124471
	C178	C	0.383966	0.825688	0.123984
	C179	C	0.614567	0.823308	0.885672
	C180	C	0.384042	0.883967	0.181180
	C181	C	0.615549	0.119170	0.180045
	C182	C	0.384566	0.118479	0.830606
	C183	C	0.615326	0.882747	0.829850
	C184	C	0.880980	0.176637	0.390530
	C185	C	0.119847	0.179302	0.619558
	C186	C	0.119531	0.823512	0.390126
	C187	C	0.880758	0.824720	0.621266
	C188	C	0.175328	0.386012	0.886074
	C189	C	0.175710	0.615811	0.124175
	C190	C	0.822485	0.385765	0.123285
	C191	C	0.821380	0.615323	0.885856
	C192	C	0.399662	0.095739	0.606670
	C193	C	0.600852	0.907839	0.605400
	C194	C	0.600646	0.094801	0.405653
	C195	C	0.400718	0.907835	0.405722
	C196	C	0.598447	0.401095	0.100851
	C197	C	0.597398	0.599704	0.911220
	C198	C	0.399351	0.601536	0.099157
	C199	C	0.399729	0.400139	0.910684
	C200	C	0.093393	0.600417	0.405915
	C201	C	0.905607	0.601267	0.604496
	C202	C	0.093893	0.401854	0.603717
	C203	C	0.904723	0.400580	0.405725
	C204	C	0.898586	0.594173	0.105204
	C205	C	0.099825	0.407165	0.105008
	C206	C	0.099167	0.594519	0.905594
	C207	C	0.898177	0.407267	0.904103
	C208	C	0.098550	0.901729	0.599203
	C209	C	0.099729	0.100762	0.410170
	C210	C	0.901090	0.101522	0.600827
	C211	C	0.900879	0.900947	0.411680
	C212	C	0.594441	0.101652	0.906683
	C213	C	0.405197	0.101637	0.105005
	C214	C	0.593494	0.901075	0.103826
	C215	C	0.405558	0.900862	0.905812
	Zn216	Zn	0.500426	0.001443	0.756246
	Zn217	Zn	0.500259	0.001567	0.254547
	Zn218	Zn	0.747756	0.500788	0.005429
	Zn219	Zn	0.249991	0.500978	0.004665
	Zn220	Zn	-0.000391	0.750963	0.505526
	Zn221	Zn	-0.000483	0.250796	0.505151
	Zn222	Zn	-0.000241	0.501109	0.754449
	Zn223	Zn	-0.000921	0.500794	0.255682
	Zn224	Zn	0.498718	0.750665	0.004878
	Zn225	Zn	0.498940	0.251484	0.006425
	Zn226	Zn	0.751248	0.001764	0.505799
	Zn227	Zn	0.249600	0.001193	0.505640
	N228	N	0.415220	0.964298	0.683649
	N229	N	0.585199	0.039234	0.683813
	N230	N	0.586579	0.964046	0.325915
	N231	N	0.415441	0.038910	0.327585
	N232	N	0.676057	0.415677	0.968119
	N233	N	0.675787	0.585824	0.043419
	N234	N	0.322051	0.585332	0.966540
	N235	N	0.321802	0.416518	0.042844
	N236	N	0.962361	0.680047	0.418982
	N237	N	0.036919	0.680389	0.591981
	N238	N	0.962435	0.322821	0.590438
	N239	N	0.036142	0.321487	0.418297
	N240	N	0.961902	0.416882	0.681588
	N241	N	0.037627	0.586070	0.682914
	N242	N	0.961169	0.585687	0.327768
	N243	N	0.036795	0.416299	0.327732
	N244	N	0.412597	0.679961	0.967197
	N245	N	0.583985	0.679399	0.042435
	N246	N	0.584762	0.321981	0.968813
	N247	N	0.413478	0.323043	0.043040
	N248	N	0.679042	0.964056	0.420062
	N249	N	0.679687	0.038663	0.592023
	N250	N	0.320302	0.964863	0.592525
	N251	N	0.321608	0.038483	0.420421
	N252	N	0.913532	0.463114	0.183429
	N253	N	0.084374	0.538529	0.183572
	N254	N	0.083777	0.463191	0.826934
	N255	N	0.913731	0.538624	0.826619
	N256	N	0.178048	0.915646	0.467701
	N257	N	0.176642	0.085505	0.543212
	N258	N	0.823217	0.085761	0.468538
	N259	N	0.822012	0.915958	0.543455
	N260	N	0.462583	0.179761	0.920133
	N261	N	0.536298	0.180743	0.092009
	N262	N	0.461582	0.822885	0.090635
	N263	N	0.536375	0.820564	0.918163
	N264	N	0.461915	0.916836	0.182450
	N265	N	0.537963	0.085949	0.181910
	N266	N	0.462317	0.085298	0.829102
	N267	N	0.537990	0.916590	0.828583
	N268	N	0.914180	0.179202	0.468474
	N269	N	0.086713	0.180929	0.541482
	N270	N	0.086029	0.821882	0.467844
	N271	N	0.914188	0.822491	0.543393
	N272	N	0.177830	0.463495	0.919047
	N273	N	0.178270	0.538419	0.090804
	N274	N	0.820324	0.462994	0.090138
	N275	N	0.819189	0.538042	0.918929
	O276	O	0.524813	0.578012	0.478073
	H277	H	0.532649	0.575864	0.480759
	H278	H	0.528192	0.578050	0.484029
	O279	O	0.026023	-0.070479	0.026636
	H280	H	0.021677	-0.068999	0.032749
	H281	H	0.035918	-0.070910	0.028583
	O282	O	0.543250	0.563883	0.504624
	H283	H	0.542803	0.568917	0.512032
	H284	H	0.542172	0.565351	0.504580
	O285	O	0.539259	0.531884	0.552242
	H286	H	0.545065	0.528945	0.548000
	H287	H	0.542545	0.534066	0.551050
	O288	O	1.544865	0.571517	-0.500473
	H289	H	1.539880	0.568771	-0.497230
	H290	H	1.550635	0.578229	-0.505865
	O291	O	-0.487419	0.560870	-0.517992
	H292	H	-0.485295	0.555954	-0.518314
	H293	H	-0.497656	0.565506	-0.533619
	O294	O	0.536546	0.548124	0.482664
	H295	H	0.532454	0.550057	0.487685
	H296	H	0.545552	0.553811	0.485349
	O297	O	0.045924	0.938216	0.021764
	H298	H	0.050099	0.932071	0.017156
	H299	H	0.037278	0.938879	0.015372
	O300	O	1.032077	-0.077143	1.021721
	H301	H	1.029682	-0.081835	1.021601
	H302	H	1.030266	-0.074571	1.022836
	O303	O	0.551290	0.538382	0.546022
	H304	H	0.547178	0.541466	0.549371
	H305	H	0.547784	0.542839	0.543431
	O306	O	0.043846	0.938052	1.045409
	H307	H	0.043829	0.935848	1.049362
	H308	H	0.050088	0.937049	1.039808
	O309	O	0.528310	0.582300	0.487787
	H310	H	0.529281	0.583264	0.484337
	H311	H	0.534290	0.582263	0.492212
