data_Molecule from HDF5

_cell_length_a		16.306570
_cell_length_b		16.177526
_cell_length_c		16.289561
_cell_angle_alpha	90.411192
_cell_angle_beta	90.129250
_cell_angle_gamma	90.062518
_symmetry_space_group_name_H-M	'P 1'
_symmetry_Int_Tables_number		1

loop_
	_symmetry_equiv_pos_as_xyz
	x,y,z

loop_
	_atom_site_label
	_atom_site_type_symbol
	_atom_site_fract_x
	_atom_site_fract_y
	_atom_site_fract_z
	H0	H	0.396046	0.836285	0.722483
	H1	H	0.597214	0.163779	0.726255
	H2	H	0.595580	0.835797	0.292836
	H3	H	0.397594	0.164369	0.295527
	H4	H	0.707923	0.398755	0.845289
	H5	H	0.710387	0.602229	0.171350
	H6	H	0.276603	0.599762	0.846055
	H7	H	0.278741	0.403457	0.172730
	H8	H	0.831404	0.714530	0.412105
	H9	H	0.157753	0.715876	0.609899
	H10	H	0.833197	0.284247	0.607327
	H11	H	0.158203	0.286021	0.409021
	H12	H	0.831533	0.400039	0.722503
	H13	H	0.156220	0.602177	0.728224
	H14	H	0.830793	0.598127	0.294814
	H15	H	0.156986	0.399277	0.292542
	H16	H	0.393715	0.714296	0.845369
	H17	H	0.591669	0.714988	0.172782
	H18	H	0.591590	0.285339	0.845849
	H19	H	0.394145	0.286512	0.173159
	H20	H	0.708801	0.835131	0.410805
	H21	H	0.712712	0.164336	0.611215
	H22	H	0.279698	0.836962	0.608782
	H23	H	0.279173	0.163449	0.408294
	H24	H	0.894029	0.334106	0.222305
	H25	H	0.091385	0.664196	0.225005
	H26	H	0.092281	0.336754	0.793476
	H27	H	0.892961	0.663270	0.795058
	H28	H	0.211523	0.897339	0.346462
	H29	H	0.214465	0.104971	0.670486
	H30	H	0.779902	0.098694	0.346523
	H31	H	0.779876	0.899627	0.671974
	H32	H	0.330838	0.212965	0.911781
	H33	H	0.658407	0.217696	0.109532
	H34	H	0.330934	0.788137	0.106410
	H35	H	0.657165	0.783245	0.909159
	H36	H	0.333284	0.899663	0.224797
	H37	H	0.658972	0.101866	0.225381
	H38	H	0.332739	0.100719	0.791970
	H39	H	0.658352	0.899783	0.793316
	H40	H	0.898652	0.211325	0.344899
	H41	H	0.098091	0.219425	0.671119
	H42	H	0.095901	0.782025	0.347560
	H43	H	0.897874	0.788055	0.672860
	H44	H	0.208031	0.336219	0.907782
	H45	H	0.208751	0.664414	0.111111
	H46	H	0.776538	0.335923	0.107905
	H47	H	0.778013	0.663278	0.910147
	H48	H	0.412445	0.117786	0.609609
	H49	H	0.588162	0.881729	0.605860
	H50	H	0.592404	0.119625	0.414362
	H51	H	0.408743	0.885683	0.418989
	H52	H	0.591870	0.413149	0.125668
	H53	H	0.584211	0.601107	0.890252
	H54	H	0.390774	0.592348	0.127370
	H55	H	0.391575	0.410666	0.891984
	H56	H	0.113605	0.591239	0.408586
	H57	H	0.880686	0.599228	0.588979
	H58	H	0.111101	0.411963	0.602793
	H59	H	0.878388	0.412393	0.411268
	H60	H	0.111649	0.409204	0.602188
	H61	H	0.881246	0.579266	0.606261
	H62	H	0.111378	0.598752	0.421203
	H63	H	0.874236	0.399728	0.410467
	H64	H	0.406443	0.587656	0.121215
	H65	H	0.594406	0.588093	0.890313
	H66	H	0.581761	0.414017	0.122503
	H67	H	0.406793	0.413135	0.896899
	H68	H	0.583895	0.116077	0.417112
	H69	H	0.586289	0.884664	0.597964
	H70	H	0.408781	0.113092	0.589672
	H71	H	0.397361	0.882632	0.419512
	H72	H	0.899451	0.616792	0.102394
	H73	H	0.088916	0.382100	0.099691
	H74	H	0.084637	0.617971	0.918486
	H75	H	0.900967	0.380896	0.913843
	H76	H	0.084422	0.915626	0.623105
	H77	H	0.087770	0.090204	0.393634
	H78	H	0.904093	0.102215	0.628235
	H79	H	0.895818	0.908251	0.390484
	H80	H	0.609893	0.084269	0.913914
	H81	H	0.380123	0.092673	0.100692
	H82	H	0.614776	0.900897	0.105467
	H83	H	0.377867	0.907132	0.912472
	H84	H	0.609152	0.907090	0.091888
	H85	H	0.379684	0.091600	0.104782
	H86	H	0.613745	0.099351	0.912393
	H87	H	0.379389	0.907455	0.917972
	H88	H	0.896350	0.087938	0.626856
	H89	H	0.087116	0.093731	0.393014
	H90	H	0.086722	0.903919	0.626926
	H91	H	0.906350	0.912174	0.395645
	H92	H	0.084560	0.616998	0.920215
	H93	H	0.085702	0.382374	0.102954
	H94	H	0.903012	0.616899	0.104469
	H95	H	0.902080	0.382991	0.917009
	H96	H	0.393613	0.121384	0.601883
	H97	H	0.594171	0.882294	0.599063
	H98	H	0.591047	0.116070	0.423087
	H99	H	0.402977	0.880974	0.409071
	H100	H	0.585569	0.404392	0.126678
	H101	H	0.579702	0.586303	0.896548
	H102	H	0.404031	0.604017	0.127451
	H103	H	0.402230	0.398844	0.890369
	H104	H	0.106392	0.584593	0.420163
	H105	H	0.871857	0.603571	0.613311
	H106	H	0.110101	0.410913	0.600870
	H107	H	0.880155	0.404551	0.421326
	H108	H	0.902432	0.615376	0.101786
	H109	H	0.084991	0.383599	0.098077
	H110	H	0.085976	0.617626	0.919112
	H111	H	0.898764	0.382614	0.917049
	H112	H	0.096014	0.912390	0.627088
	H113	H	0.090099	0.091591	0.392074
	H114	H	0.912104	0.089495	0.621161
	H115	H	0.904527	0.900445	0.391368
	H116	H	0.608900	0.094413	0.926061
	H117	H	0.378410	0.094819	0.103851
	H118	H	0.609990	0.916591	0.104713
	H119	H	0.379953	0.911895	0.914771
	C120	C	0.375241	0.008874	0.629169
	C121	C	0.618354	0.991551	0.631032
	C122	C	0.617828	0.008626	0.388121
	C123	C	0.374076	0.991231	0.387424
	C124	C	0.615070	0.379885	0.017179
	C125	C	0.615340	0.621972	1.000110
	C126	C	0.370910	0.622984	0.017606
	C127	C	0.371472	0.379004	1.000974
	C128	C	0.002946	0.620964	0.387810
	C129	C	0.985571	0.623380	0.632465
	C130	C	0.003635	0.379918	0.630177
	C131	C	0.985746	0.377407	0.385892
	C132	C	0.872121	0.507854	0.130719
	C133	C	0.115225	0.491165	0.130722
	C134	C	0.114276	0.509011	0.888789
	C135	C	0.871733	0.490963	0.887798
	C136	C	0.117594	0.879341	0.518023
	C137	C	0.118551	0.122926	0.500198
	C138	C	0.874662	0.121538	0.517839
	C139	C	0.873855	0.878626	0.500515
	C140	C	0.503264	0.121859	0.887706
	C141	C	0.487273	0.123026	0.131992
	C142	C	0.503612	0.879531	0.129604
	C143	C	0.486745	0.878487	0.886293
	C144	C	0.376631	0.885275	0.684431
	C145	C	0.617186	0.114895	0.688078
	C146	C	0.615429	0.884885	0.331470
	C147	C	0.376636	0.115105	0.332871
	C148	C	0.670225	0.379679	0.894304
	C149	C	0.671498	0.621577	0.122857
	C150	C	0.314516	0.620351	0.894893
	C151	C	0.316716	0.382475	0.124036
	C152	C	0.880104	0.676698	0.390896
	C153	C	0.108790	0.678327	0.630409
	C154	C	0.881419	0.322864	0.627419
	C155	C	0.109007	0.323254	0.388463
	C156	C	0.880580	0.380378	0.684902
	C157	C	0.107973	0.621914	0.689226
	C158	C	0.879736	0.618668	0.332843
	C159	C	0.108451	0.379567	0.330481
	C160	C	0.372791	0.677430	0.894519
	C161	C	0.612728	0.677708	0.123456
	C162	C	0.611966	0.323474	0.894426
	C163	C	0.374009	0.324467	0.124191
	C164	C	0.672166	0.884750	0.389813
	C165	C	0.674561	0.115216	0.630571
	C166	C	0.318285	0.885741	0.628210
	C167	C	0.317846	0.114586	0.388866
	C168	C	0.873520	0.383688	0.185155
	C169	C	0.112569	0.614869	0.187413
	C170	C	0.112152	0.385433	0.832152
	C171	C	0.873028	0.614252	0.832728
	C172	C	0.173147	0.878945	0.395352
	C173	C	0.175719	0.123761	0.622010
	C174	C	0.818581	0.118758	0.395053
	C175	C	0.818264	0.880339	0.623217
	C176	C	0.380219	0.176474	0.890234
	C177	C	0.609742	0.179545	0.129914
	C178	C	0.380427	0.824923	0.127140
	C179	C	0.608886	0.821888	0.888986
	C180	C	0.381489	0.880584	0.186053
	C181	C	0.609811	0.122051	0.187920
	C182	C	0.381106	0.120221	0.830793
	C183	C	0.609457	0.879662	0.831286
	C184	C	0.877582	0.174884	0.394173
	C185	C	0.117570	0.180699	0.622315
	C186	C	0.115800	0.821256	0.395871
	C187	C	0.876949	0.824588	0.623752
	C188	C	0.169838	0.385477	0.889007
	C189	C	0.170676	0.615057	0.130518
	C190	C	0.815135	0.384603	0.128260
	C191	C	0.815999	0.614176	0.889946
	C192	C	0.398312	0.094888	0.606940
	C193	C	0.596030	0.905353	0.607608
	C194	C	0.595521	0.094804	0.411110
	C195	C	0.396420	0.905281	0.409394
	C196	C	0.592967	0.403591	0.102778
	C197	C	0.592896	0.598658	0.914653
	C198	C	0.393763	0.601061	0.103155
	C199	C	0.393622	0.401049	0.915398
	C200	C	0.088304	0.598186	0.410034
	C201	C	0.900104	0.600749	0.609604
	C202	C	0.088832	0.403613	0.608268
	C203	C	0.899817	0.399185	0.407847
	C204	C	0.894983	0.593973	0.109108
	C205	C	0.093018	0.405051	0.107246
	C206	C	0.091643	0.595291	0.912327
	C207	C	0.894233	0.404651	0.909543
	C208	C	0.095446	0.903455	0.603507
	C209	C	0.095089	0.098851	0.414615
	C210	C	0.897638	0.099755	0.603347
	C211	C	0.895841	0.900451	0.414670
	C212	C	0.588667	0.099319	0.910632
	C213	C	0.401560	0.099885	0.109649
	C214	C	0.589122	0.901897	0.107252
	C215	C	0.401230	0.901975	0.908304
	Zn216	Zn	0.495741	0.000386	0.757979
	Zn217	Zn	0.496058	0.000063	0.259499
	Zn218	Zn	0.743647	0.500131	0.008781
	Zn219	Zn	0.242614	0.500567	0.008979
	Zn220	Zn	-0.004542	0.750989	0.509885
	Zn221	Zn	-0.004021	0.251179	0.508486
	Zn222	Zn	-0.006382	0.500695	0.760169
	Zn223	Zn	-0.006211	0.498422	0.258347
	Zn224	Zn	0.493825	0.750514	0.008695
	Zn225	Zn	0.494338	0.251020	0.009740
	Zn226	Zn	0.746294	-0.000031	0.509670
	Zn227	Zn	0.246206	0.000439	0.508939
	N228	N	0.411094	0.962959	0.685378
	N229	N	0.583003	0.037143	0.688529
	N230	N	0.582468	0.963149	0.330124
	N231	N	0.410921	0.037554	0.331672
	N232	N	0.672054	0.414347	0.971641
	N233	N	0.673378	0.587727	0.045232
	N234	N	0.312826	0.587598	0.972604
	N235	N	0.314838	0.415391	0.046511
	N236	N	0.957756	0.678513	0.424245
	N237	N	0.031681	0.679359	0.595860
	N238	N	0.958942	0.322517	0.594051
	N239	N	0.031792	0.321598	0.422127
	N240	N	0.957463	0.415264	0.686779
	N241	N	0.030355	0.588608	0.690749
	N242	N	0.956918	0.584670	0.330797
	N243	N	0.030713	0.412467	0.328869
	N244	N	0.407243	0.679067	0.971645
	N245	N	0.578147	0.677873	0.046213
	N246	N	0.578510	0.323295	0.971877
	N247	N	0.407529	0.322073	0.046629
	N248	N	0.673851	0.962526	0.424215
	N249	N	0.675460	0.037380	0.595894
	N250	N	0.317375	0.963425	0.594365
	N251	N	0.316055	0.036583	0.422041
	N252	N	0.908492	0.461179	0.186554
	N253	N	0.078643	0.537013	0.187422
	N254	N	0.078249	0.463318	0.831784
	N255	N	0.907005	0.536518	0.831047
	N256	N	0.174211	0.914365	0.472348
	N257	N	0.176406	0.088691	0.544999
	N258	N	0.816699	0.086506	0.472926
	N259	N	0.816374	0.913244	0.545537
	N260	N	0.457143	0.177637	0.924881
	N261	N	0.532340	0.180451	0.095979
	N262	N	0.457354	0.824009	0.092851
	N263	N	0.531415	0.820936	0.922263
	N264	N	0.459143	0.914061	0.187630
	N265	N	0.532589	0.087859	0.189398
	N266	N	0.458898	0.087264	0.828997
	N267	N	0.532378	0.913978	0.829373
	N268	N	0.911861	0.176905	0.471546
	N269	N	0.082627	0.180317	0.545249
	N270	N	0.081901	0.821469	0.473083
	N271	N	0.910867	0.823534	0.546529
	N272	N	0.170959	0.463278	0.923679
	N273	N	0.172527	0.537161	0.096035
	N274	N	0.813865	0.462762	0.095430
	N275	N	0.814984	0.536374	0.923327
	O276	O	0.494444	0.501363	0.586783
	H277	H	0.495546	0.504499	0.589588
	H278	H	0.499194	0.493680	0.574831
	O279	O	0.497455	0.404013	0.501935
	H280	H	0.489736	0.399574	0.499228
	H281	H	0.487833	0.404413	0.500087
	O282	O	0.434500	0.539692	-0.558301
	H283	H	0.445929	0.538390	-0.573043
	H284	H	0.441053	0.539303	-0.560764
	O285	O	0.995584	-0.085914	1.110672
	H286	H	0.997552	-0.078696	1.119535
	H287	H	0.998796	-0.088866	1.112972
	O288	O	0.517110	0.521601	0.481033
	H289	H	0.523431	0.518296	0.481957
	H290	H	0.518992	0.512891	0.487567
	O291	O	-0.036268	0.961773	0.000042
	H292	H	-0.034836	0.965595	-0.006510
	H293	H	-0.035090	0.950664	0.008361
	O294	O	0.544186	0.517399	0.551095
	H295	H	0.553520	0.504640	0.558496
	H296	H	0.538812	0.513133	0.545571
	O297	O	-0.005444	-0.103970	0.991446
	H298	H	-0.011342	-0.102853	0.987109
	H299	H	0.000202	-0.109714	0.997410
	O300	O	0.520362	0.541107	0.508485
	H301	H	0.519956	0.546286	0.518156
	H302	H	0.527971	0.533248	0.507371
	O303	O	0.910232	0.955133	0.024575
	H304	H	0.913920	0.957877	0.024422
	H305	H	0.904591	0.969496	0.021607
	O306	O	0.067184	1.034531	1.128137
	H307	H	0.071678	1.038491	1.119258
	H308	H	0.064693	1.031593	1.129953
	O309	O	0.552040	0.487200	0.504419
	H310	H	0.548031	0.480925	0.497576
	H311	H	0.558600	0.491236	0.508898
	O312	O	0.074094	0.006361	-0.088806
	H313	H	0.072525	0.006291	-0.094726
	H314	H	0.077508	0.005013	-0.094525
	O315	O	1.004198	-0.008445	0.065254
	H316	H	1.006664	-0.014557	0.062362
	H317	H	1.016351	-0.005834	0.066125
	O318	O	1.044230	1.083518	0.997669
	H319	H	1.035841	1.086542	0.993620
	H320	H	1.043462	1.084663	1.015635
	O321	O	-0.093925	0.072830	1.014098
	H322	H	-0.095271	0.064593	1.013786
	H323	H	-0.104242	0.072696	1.002486
	O324	O	0.921308	-0.000192	-0.092525
	H325	H	0.928502	-0.005552	-0.093759
	H326	H	0.912080	0.006667	-0.094308
	O327	O	-0.151354	-0.020897	0.011744
	H328	H	-0.151399	-0.038297	0.018065
	H329	H	-0.155694	-0.013387	0.006387
	O330	O	0.539642	0.513762	0.526360
	H331	H	0.545066	0.515702	0.532381
	H332	H	0.544214	0.517356	0.533429
	O333	O	0.140324	0.936012	0.930138
	H334	H	0.144949	0.926325	0.914647
	H335	H	0.133346	0.933087	0.944477
	O336	O	0.026537	-0.044207	-0.002221
	H337	H	0.035484	-0.040920	0.003712
	H338	H	0.029793	-0.043172	0.005020
	O339	O	0.526163	0.449528	0.616903
	H340	H	0.514174	0.447350	0.610502
	H341	H	0.527826	0.451135	0.611911
	O342	O	1.466952	1.456712	1.564273
	H343	H	1.464593	1.446704	1.565054
	H344	H	1.466849	1.458976	1.572294
	O345	O	1.044383	1.072219	0.082123
	H346	H	1.055338	1.077442	0.088334
	H347	H	1.041739	1.069145	0.075867
	O348	O	0.548883	0.478447	0.526519
	H349	H	0.538814	0.479879	0.530587
	H350	H	0.556178	0.480043	0.539042
	O351	O	0.487056	0.500847	0.562547
	H352	H	0.482040	0.505653	0.570566
	H353	H	0.489940	0.503041	0.552974
	O354	O	0.550246	0.413347	0.407651
	H355	H	0.559225	0.414490	0.406349
	H356	H	0.566805	0.412935	0.415991
	O357	O	1.234851	-0.222610	-0.317985
	H358	H	1.228850	-0.226351	-0.322174
	H359	H	1.235035	-0.227480	-0.319719
	O360	O	0.421258	0.518932	0.407948
	H361	H	0.421234	0.521083	0.399878
	H362	H	0.419492	0.531142	0.401610
	O363	O	0.509099	0.500188	0.491288
	H364	H	0.498652	0.494528	0.489388
	H365	H	0.511725	0.510269	0.498548
	O366	O	1.073677	1.036474	1.154883
	H367	H	1.072568	1.037002	1.164770
	H368	H	1.086256	1.050262	1.162166
	O369	O	1.039137	0.074717	1.004508
	H370	H	1.041614	0.078615	1.001797
	H371	H	1.036113	0.057526	0.999608
	O372	O	0.038573	-0.093524	-0.071663
	H373	H	0.050198	-0.083314	-0.062260
	H374	H	0.025336	-0.106232	-0.065928
	O375	O	0.929747	0.010245	-0.064375
	H376	H	0.921705	0.010922	-0.066398
	H377	H	0.926446	0.002315	-0.063673
	O378	O	1.010373	1.023213	0.921649
	H379	H	1.008822	1.020926	0.916212
	H380	H	1.010499	1.022636	0.912054
	O381	O	0.518632	0.536983	0.556471
	H382	H	0.507836	0.543469	0.548605
	H383	H	0.510461	0.533042	0.557430
