data_Molecule from HDF5

_cell_length_a		16.331481
_cell_length_b		16.241583
_cell_length_c		16.278901
_cell_angle_alpha	90.021032
_cell_angle_beta	89.786381
_cell_angle_gamma	89.850947
_symmetry_space_group_name_H-M	'P 1'
_symmetry_Int_Tables_number		1

loop_
	_symmetry_equiv_pos_as_xyz
	x,y,z

loop_
	_atom_site_label
	_atom_site_type_symbol
	_atom_site_fract_x
	_atom_site_fract_y
	_atom_site_fract_z
	H0	H	0.407730	0.831228	0.719905
	H1	H	0.602878	0.159072	0.719359
	H2	H	0.604456	0.830226	0.291828
	H3	H	0.408107	0.159381	0.292724
	H4	H	0.720946	0.396153	0.840723
	H5	H	0.719661	0.593865	0.168832
	H6	H	0.292377	0.593803	0.841592
	H7	H	0.290764	0.396218	0.168026
	H8	H	0.842245	0.710646	0.408063
	H9	H	0.169535	0.709381	0.603656
	H10	H	0.842369	0.281828	0.605312
	H11	H	0.168883	0.280133	0.407049
	H12	H	0.843395	0.397282	0.721648
	H13	H	0.169169	0.594247	0.719860
	H14	H	0.842458	0.595610	0.290495
	H15	H	0.169108	0.394943	0.289775
	H16	H	0.407237	0.709077	0.841925
	H17	H	0.602099	0.708292	0.169103
	H18	H	0.604642	0.279444	0.841574
	H19	H	0.408235	0.282946	0.169393
	H20	H	0.722223	0.831562	0.405909
	H21	H	0.721620	0.158776	0.605084
	H22	H	0.291139	0.831688	0.605480
	H23	H	0.291218	0.158876	0.407089
	H24	H	0.906839	0.330582	0.220803
	H25	H	0.100664	0.659621	0.217623
	H26	H	0.104009	0.331141	0.791151
	H27	H	0.908193	0.660546	0.793596
	H28	H	0.221736	0.896237	0.342083
	H29	H	0.219375	0.093909	0.669651
	H30	H	0.790562	0.096469	0.342092
	H31	H	0.789832	0.895471	0.668378
	H32	H	0.342144	0.209521	0.908431
	H33	H	0.667929	0.209550	0.104605
	H34	H	0.342036	0.780772	0.103468
	H35	H	0.668545	0.778225	0.905180
	H36	H	0.342732	0.895620	0.221523
	H37	H	0.668264	0.093986	0.219673
	H38	H	0.342359	0.093854	0.791857
	H39	H	0.667730	0.893724	0.788386
	H40	H	0.907713	0.211440	0.342216
	H41	H	0.101861	0.208568	0.669704
	H42	H	0.104232	0.781229	0.341630
	H43	H	0.908356	0.781869	0.669772
	H44	H	0.221671	0.330984	0.905113
	H45	H	0.220187	0.659064	0.104119
	H46	H	0.790863	0.330325	0.105595
	H47	H	0.790527	0.658866	0.907185
	H48	H	0.412101	0.113207	0.600852
	H49	H	0.609531	0.878251	0.588127
	H50	H	0.599385	0.111123	0.414001
	H51	H	0.419890	0.879777	0.413194
	H52	H	0.605195	0.407161	0.121393
	H53	H	0.587757	0.586311	0.892888
	H54	H	0.416467	0.591770	0.122125
	H55	H	0.415160	0.400536	0.888769
	H56	H	0.121722	0.584183	0.407127
	H57	H	0.888493	0.598266	0.595264
	H58	H	0.124986	0.395315	0.600392
	H59	H	0.890577	0.401786	0.416176
	H60	H	0.120032	0.402362	0.592439
	H61	H	0.893889	0.580708	0.593939
	H62	H	0.123572	0.593210	0.409070
	H63	H	0.891722	0.407287	0.413970
	H64	H	0.406603	0.589338	0.123758
	H65	H	0.603481	0.594998	0.885171
	H66	H	0.591671	0.405018	0.117770
	H67	H	0.411201	0.400123	0.886716
	H68	H	0.598773	0.111649	0.412092
	H69	H	0.600844	0.874239	0.609810
	H70	H	0.412625	0.111235	0.598669
	H71	H	0.410770	0.878847	0.418907
	H72	H	0.912690	0.611777	0.103251
	H73	H	0.097206	0.379837	0.093980
	H74	H	0.101056	0.609571	0.920563
	H75	H	0.917821	0.379650	0.910531
	H76	H	0.101843	0.899006	0.623742
	H77	H	0.093238	0.089034	0.390985
	H78	H	0.907161	0.087451	0.623380
	H79	H	0.905278	0.901080	0.386856
	H80	H	0.620217	0.087083	0.915645
	H81	H	0.386173	0.093118	0.104315
	H82	H	0.623267	0.892494	0.095485
	H83	H	0.390672	0.899743	0.917954
	H84	H	0.616878	0.907206	0.091914
	H85	H	0.389805	0.090188	0.093133
	H86	H	0.621693	0.083407	0.911039
	H87	H	0.391038	0.907330	0.911673
	H88	H	0.914563	0.082807	0.619501
	H89	H	0.104525	0.093684	0.385254
	H90	H	0.100765	0.905408	0.621565
	H91	H	0.917177	0.911853	0.392101
	H92	H	0.105987	0.615006	0.907577
	H93	H	0.103673	0.378038	0.096697
	H94	H	0.915620	0.609011	0.095078
	H95	H	0.913142	0.380083	0.917740
	H96	H	0.410247	0.112883	0.598533
	H97	H	0.587062	0.882828	0.593427
	H98	H	0.597085	0.111587	0.412862
	H99	H	0.410641	0.876528	0.408561
	H100	H	0.599327	0.394364	0.123664
	H101	H	0.604197	0.576727	0.889772
	H102	H	0.412722	0.582452	0.119936
	H103	H	0.412781	0.403956	0.888524
	H104	H	0.120004	0.587547	0.415198
	H105	H	0.887632	0.587587	0.609633
	H106	H	0.122107	0.406765	0.602748
	H107	H	0.889478	0.402540	0.410331
	H108	H	0.907236	0.611058	0.096212
	H109	H	0.097964	0.377275	0.100853
	H110	H	0.091845	0.610819	0.908865
	H111	H	0.909506	0.376946	0.910782
	H112	H	0.096177	0.901553	0.621817
	H113	H	0.103653	0.081132	0.390551
	H114	H	0.914912	0.092405	0.621649
	H115	H	0.920964	0.895493	0.389072
	H116	H	0.622191	0.089825	0.910182
	H117	H	0.389177	0.082065	0.101433
	H118	H	0.623613	0.904624	0.107103
	H119	H	0.386686	0.898977	0.908209
	C120	C	0.383575	0.003898	0.627823
	C121	C	0.627228	0.986687	0.626044
	C122	C	0.627785	0.003444	0.383695
	C123	C	0.384958	0.986823	0.384820
	C124	C	0.627862	0.372864	0.013314
	C125	C	0.626940	0.615681	0.996821
	C126	C	0.384090	0.616322	0.013686
	C127	C	0.384397	0.373525	0.996375
	C128	C	0.013945	0.617437	0.382834
	C129	C	0.997849	0.617122	0.627643
	C130	C	0.014286	0.373349	0.627699
	C131	C	0.998006	0.373997	0.384130
	C132	C	0.883607	0.502484	0.127207
	C133	C	0.127083	0.486900	0.125684
	C134	C	0.128100	0.503163	0.883688
	C135	C	0.884884	0.487463	0.884649
	C136	C	0.128278	0.873161	0.514041
	C137	C	0.127487	0.116264	0.497452
	C138	C	0.884134	0.117138	0.513707
	C139	C	0.885198	0.873959	0.497281
	C140	C	0.513690	0.115773	0.884315
	C141	C	0.496358	0.116858	0.127719
	C142	C	0.513625	0.872996	0.127268
	C143	C	0.497175	0.872638	0.883550
	C144	C	0.387053	0.880235	0.682231
	C145	C	0.624240	0.110230	0.681572
	C146	C	0.625545	0.879773	0.328698
	C147	C	0.387287	0.110220	0.329870
	C148	C	0.683174	0.375318	0.889891
	C149	C	0.682081	0.614132	0.119789
	C150	C	0.329585	0.614226	0.890624
	C151	C	0.329319	0.376421	0.119510
	C152	C	0.890870	0.672456	0.387021
	C153	C	0.120880	0.671523	0.624195
	C154	C	0.891478	0.318949	0.625628
	C155	C	0.120347	0.318210	0.386259
	C156	C	0.891944	0.376355	0.683479
	C157	C	0.120627	0.614438	0.682122
	C158	C	0.891092	0.615527	0.328426
	C159	C	0.120340	0.375590	0.328121
	C160	C	0.386919	0.671515	0.890684
	C161	C	0.623820	0.670928	0.120082
	C162	C	0.625314	0.317555	0.890097
	C163	C	0.387367	0.319623	0.120120
	C164	C	0.684489	0.880534	0.384859
	C165	C	0.682855	0.110086	0.624525
	C166	C	0.329132	0.880494	0.625510
	C167	C	0.329078	0.109861	0.386723
	C168	C	0.886307	0.379310	0.182548
	C169	C	0.122729	0.610464	0.180460
	C170	C	0.125057	0.379889	0.828788
	C171	C	0.887579	0.611012	0.830357
	C172	C	0.183663	0.875850	0.390860
	C173	C	0.181586	0.114060	0.620666
	C174	C	0.828946	0.115877	0.390739
	C175	C	0.829109	0.876460	0.620238
	C176	C	0.390906	0.171456	0.887629
	C177	C	0.619339	0.171635	0.124670
	C178	C	0.390871	0.818238	0.124530
	C179	C	0.619649	0.816409	0.885101
	C180	C	0.391135	0.875257	0.183216
	C181	C	0.619301	0.114361	0.182191
	C182	C	0.390850	0.113688	0.829882
	C183	C	0.619398	0.873649	0.826961
	C184	C	0.886941	0.173206	0.390731
	C185	C	0.123269	0.171057	0.620671
	C186	C	0.125394	0.818633	0.390680
	C187	C	0.887714	0.819702	0.620825
	C188	C	0.183105	0.379803	0.885966
	C189	C	0.181723	0.610340	0.123700
	C190	C	0.828372	0.379487	0.125584
	C191	C	0.829049	0.610475	0.886818
	C192	C	0.405262	0.090108	0.605782
	C193	C	0.605446	0.900866	0.603699
	C194	C	0.605099	0.089094	0.406430
	C195	C	0.407181	0.900538	0.407133
	C196	C	0.605416	0.395543	0.098762
	C197	C	0.605159	0.592747	0.911370
	C198	C	0.405585	0.594266	0.099815
	C199	C	0.406506	0.395189	0.910186
	C200	C	0.099666	0.595093	0.404282
	C201	C	0.912194	0.595166	0.605874
	C202	C	0.100221	0.395028	0.605004
	C203	C	0.912443	0.397187	0.406881
	C204	C	0.905484	0.588345	0.104698
	C205	C	0.105822	0.400616	0.103715
	C206	C	0.106063	0.589636	0.905895
	C207	C	0.906999	0.401288	0.906415
	C208	C	0.106060	0.895337	0.600114
	C209	C	0.106577	0.094442	0.411158
	C210	C	0.905975	0.094323	0.599231
	C211	C	0.907782	0.896210	0.411520
	C212	C	0.599285	0.093221	0.906013
	C213	C	0.410790	0.094890	0.106064
	C214	C	0.599322	0.894964	0.104760
	C215	C	0.411592	0.895381	0.905983
	Zn216	Zn	0.505799	-0.005318	0.754981
	Zn217	Zn	0.505782	-0.004850	0.255553
	Zn218	Zn	0.756132	0.494771	0.005078
	Zn219	Zn	0.256507	0.494814	0.004698
	Zn220	Zn	0.005938	0.745082	0.505712
	Zn221	Zn	0.005867	0.244855	0.505452
	Zn222	Zn	0.005982	0.495836	0.755754
	Zn223	Zn	0.005280	0.494710	0.254570
	Zn224	Zn	0.505414	0.744010	0.005269
	Zn225	Zn	0.505369	0.244784	0.005903
	Zn226	Zn	0.756147	-0.004938	0.504731
	Zn227	Zn	0.256544	-0.004878	0.506063
	N228	N	0.420459	0.957946	0.683645
	N229	N	0.590366	0.032608	0.682694
	N230	N	0.591110	0.957262	0.327503
	N231	N	0.421240	0.032606	0.328562
	N232	N	0.685086	0.408759	0.967539
	N233	N	0.684209	0.580523	0.042203
	N234	N	0.327948	0.580468	0.968007
	N235	N	0.327726	0.409230	0.041721
	N236	N	0.968287	0.673730	0.420007
	N237	N	0.043647	0.673162	0.590819
	N238	N	0.968809	0.316762	0.591740
	N239	N	0.043314	0.317245	0.420492
	N240	N	0.969314	0.409247	0.684963
	N241	N	0.043170	0.581195	0.684227
	N242	N	0.968529	0.582066	0.325518
	N243	N	0.042904	0.409549	0.326846
	N244	N	0.420161	0.672877	0.968306
	N245	N	0.590084	0.671970	0.042821
	N246	N	0.591755	0.315738	0.967695
	N247	N	0.421092	0.317765	0.042504
	N248	N	0.685825	0.958138	0.418404
	N249	N	0.685092	0.032298	0.591004
	N250	N	0.326882	0.958413	0.592502
	N251	N	0.327793	0.032108	0.420308
	N252	N	0.919813	0.456784	0.183569
	N253	N	0.089517	0.532863	0.181618
	N254	N	0.091621	0.457641	0.827329
	N255	N	0.921700	0.533315	0.829035
	N256	N	0.185569	0.909005	0.468658
	N257	N	0.184204	0.080707	0.543079
	N258	N	0.826994	0.081877	0.468117
	N259	N	0.827474	0.909513	0.542384
	N260	N	0.468175	0.172609	0.920859
	N261	N	0.541927	0.173314	0.091435
	N262	N	0.468042	0.816516	0.090647
	N263	N	0.542656	0.815701	0.919481
	N264	N	0.468527	0.908517	0.184904
	N265	N	0.542059	0.080822	0.183953
	N266	N	0.468120	0.079780	0.827593
	N267	N	0.542507	0.908102	0.826008
	N268	N	0.920384	0.174041	0.468113
	N269	N	0.090070	0.172216	0.543032
	N270	N	0.091674	0.816941	0.468186
	N271	N	0.921955	0.818222	0.543533
	N272	N	0.185171	0.457721	0.919182
	N273	N	0.184617	0.532336	0.090432
	N274	N	0.826247	0.457137	0.091893
	N275	N	0.827285	0.532721	0.919895
	O276	O	0.914590	0.988067	-0.021037
	H277	H	0.910188	0.988819	-0.023348
	H278	H	0.909580	0.988692	-0.028892
	O279	O	-0.033515	0.034597	0.001252
	H280	H	-0.028758	0.027689	0.001555
	H281	H	-0.032126	0.036321	-0.000891
	O282	O	-0.072378	0.026922	1.024238
	H283	H	-0.070354	0.037413	1.019535
	H284	H	-0.075334	0.040233	1.025214
	O285	O	0.546566	0.494992	0.421037
	H286	H	0.557105	0.488897	0.416073
	H287	H	0.547109	0.490687	0.428429
	O288	O	0.540060	0.496832	0.399079
	H289	H	0.534065	0.493635	0.399428
	H290	H	0.543975	0.489068	0.386303
	O291	O	0.509891	0.504927	0.448791
	H292	H	0.515378	0.502122	0.444018
	H293	H	0.505880	0.504008	0.442413
	O294	O	-0.045655	-0.050301	0.021136
	H295	H	-0.039367	-0.050458	0.020308
	H296	H	-0.045519	-0.058815	0.033474
	O297	O	0.542707	0.459449	0.469064
	H298	H	0.552782	0.457897	0.463281
	H299	H	0.543995	0.464031	0.467652
	O300	O	-0.121960	1.045424	1.013776
	H301	H	-0.111180	1.035054	1.012293
	H302	H	-0.125906	1.056136	1.018999
	O303	O	0.518914	0.522959	0.449907
	H304	H	0.520464	0.517386	0.448510
	H305	H	0.513690	0.528082	0.448476
	O306	O	-0.443352	0.520214	0.447441
	H307	H	-0.448754	0.522701	0.444888
	H308	H	-0.446817	0.526244	0.442825
	O309	O	0.970766	0.970098	1.051497
	H310	H	0.962275	0.962358	1.048541
	H311	H	0.967246	0.963965	1.051539
	O312	O	0.555041	0.486772	0.489122
	H313	H	0.556498	0.495220	0.488002
	H314	H	0.548445	0.492262	0.487465
	O315	O	0.594669	0.466675	0.461435
	H316	H	0.591876	0.475216	0.470682
	H317	H	0.601147	0.461120	0.463394
	O318	O	-0.073611	0.985548	0.002301
	H319	H	-0.071534	0.984324	-0.001321
	H320	H	-0.084127	0.982751	-0.005541
	O321	O	0.872689	0.950835	-0.049933
	H322	H	0.865162	0.949416	-0.048870
	H323	H	0.866377	0.949971	-0.047365
