data_Molecule from HDF5

_cell_length_a		16.388101
_cell_length_b		16.211623
_cell_length_c		16.143109
_cell_angle_alpha	90.074272
_cell_angle_beta	90.327182
_cell_angle_gamma	89.824183
_symmetry_space_group_name_H-M	'P 1'
_symmetry_Int_Tables_number		1

loop_
	_symmetry_equiv_pos_as_xyz
	x,y,z

loop_
	_atom_site_label
	_atom_site_type_symbol
	_atom_site_fract_x
	_atom_site_fract_y
	_atom_site_fract_z
	H0	H	0.406387	0.835266	0.702758
	H1	H	0.598569	0.166745	0.703961
	H2	H	0.599164	0.835630	0.278617
	H3	H	0.404383	0.165091	0.277473
	H4	H	0.717661	0.396958	0.825425
	H5	H	0.718947	0.599247	0.154471
	H6	H	0.283590	0.603185	0.827772
	H7	H	0.287893	0.398805	0.154766
	H8	H	0.839128	0.716519	0.389099
	H9	H	0.164836	0.714879	0.590792
	H10	H	0.838602	0.285334	0.588029
	H11	H	0.164095	0.282835	0.390191
	H12	H	0.837780	0.405035	0.702283
	H13	H	0.163845	0.598810	0.706758
	H14	H	0.839946	0.599973	0.272798
	H15	H	0.164811	0.400484	0.276131
	H16	H	0.403931	0.713194	0.825649
	H17	H	0.601724	0.712439	0.156402
	H18	H	0.598016	0.285726	0.825279
	H19	H	0.407922	0.288585	0.156215
	H20	H	0.718027	0.837456	0.390627
	H21	H	0.718667	0.165166	0.591642
	H22	H	0.287326	0.837117	0.591028
	H23	H	0.283977	0.163109	0.387080
	H24	H	0.905315	0.335587	0.203736
	H25	H	0.100464	0.664147	0.206004
	H26	H	0.098867	0.336135	0.777843
	H27	H	0.902368	0.665316	0.777380
	H28	H	0.217813	0.898194	0.326007
	H29	H	0.219204	0.101139	0.654418
	H30	H	0.784485	0.102328	0.326315
	H31	H	0.790123	0.902591	0.655344
	H32	H	0.339836	0.217054	0.889836
	H33	H	0.665648	0.215230	0.091629
	H34	H	0.340814	0.782907	0.091519
	H35	H	0.665008	0.782748	0.890647
	H36	H	0.340012	0.901628	0.205032
	H37	H	0.665439	0.097925	0.207628
	H38	H	0.339481	0.100729	0.773788
	H39	H	0.665850	0.902900	0.776996
	H40	H	0.903012	0.214070	0.324442
	H41	H	0.100893	0.213983	0.654529
	H42	H	0.099646	0.785823	0.324976
	H43	H	0.906650	0.789339	0.655584
	H44	H	0.218784	0.338183	0.888399
	H45	H	0.219658	0.662897	0.095469
	H46	H	0.786716	0.336792	0.092139
	H47	H	0.784144	0.663538	0.888042
	H48	H	0.404822	0.117881	0.581673
	H49	H	0.598602	0.886685	0.575879
	H50	H	0.596117	0.119813	0.395351
	H51	H	0.411680	0.884620	0.401482
	H52	H	0.596745	0.414073	0.105769
	H53	H	0.596472	0.583128	0.874702
	H54	H	0.412778	0.591216	0.107086
	H55	H	0.409172	0.405620	0.872047
	H56	H	0.119243	0.597550	0.396753
	H57	H	0.885722	0.592377	0.586028
	H58	H	0.116933	0.406950	0.585031
	H59	H	0.883690	0.408957	0.387336
	H60	H	0.117055	0.406311	0.583863
	H61	H	0.883758	0.600777	0.585272
	H62	H	0.116015	0.594339	0.403756
	H63	H	0.885571	0.398890	0.402532
	H64	H	0.410356	0.593375	0.108847
	H65	H	0.585910	0.594251	0.874644
	H66	H	0.592661	0.404349	0.107506
	H67	H	0.406282	0.408847	0.872532
	H68	H	0.590421	0.117187	0.400298
	H69	H	0.604512	0.881295	0.587512
	H70	H	0.412104	0.117963	0.585425
	H71	H	0.404362	0.882186	0.398423
	H72	H	0.909482	0.615064	0.078126
	H73	H	0.094253	0.385503	0.076163
	H74	H	0.098097	0.619291	0.899790
	H75	H	0.912884	0.379962	0.882373
	H76	H	0.098375	0.907304	0.608503
	H77	H	0.099395	0.094311	0.369451
	H78	H	0.913998	0.086467	0.604255
	H79	H	0.912971	0.908913	0.373430
	H80	H	0.617933	0.086546	0.891134
	H81	H	0.385303	0.099911	0.083534
	H82	H	0.617117	0.905252	0.078761
	H83	H	0.388775	0.910645	0.897977
	H84	H	0.616256	0.911962	0.085840
	H85	H	0.389572	0.092947	0.078934
	H86	H	0.620858	0.102190	0.897211
	H87	H	0.386071	0.907046	0.892485
	H88	H	0.914144	0.098228	0.607011
	H89	H	0.095383	0.085358	0.374053
	H90	H	0.097957	0.910276	0.606316
	H91	H	0.906032	0.904745	0.370234
	H92	H	0.090914	0.618029	0.897431
	H93	H	0.104032	0.380880	0.082644
	H94	H	0.907395	0.617848	0.082597
	H95	H	0.918637	0.389552	0.906571
	H96	H	0.411376	0.115405	0.576773
	H97	H	0.591366	0.885519	0.586759
	H98	H	0.597647	0.117271	0.402997
	H99	H	0.410443	0.882411	0.393385
	H100	H	0.603182	0.406443	0.110174
	H101	H	0.600164	0.597396	0.869891
	H102	H	0.409701	0.589920	0.108116
	H103	H	0.411041	0.410503	0.873980
	H104	H	0.116562	0.590249	0.396611
	H105	H	0.886368	0.596393	0.577723
	H106	H	0.117239	0.407140	0.584300
	H107	H	0.890579	0.416078	0.402338
	H108	H	0.912379	0.615977	0.082243
	H109	H	0.092738	0.382291	0.088296
	H110	H	0.092963	0.616456	0.904481
	H111	H	0.894581	0.380082	0.901862
	H112	H	0.095333	0.907591	0.607769
	H113	H	0.089650	0.094044	0.373478
	H114	H	0.904286	0.091942	0.608404
	H115	H	0.905913	0.913761	0.373187
	H116	H	0.614348	0.090503	0.907368
	H117	H	0.386278	0.092128	0.087563
	H118	H	0.620028	0.903334	0.088090
	H119	H	0.386727	0.902691	0.898410
	C120	C	0.381528	0.008582	0.610676
	C121	C	0.625383	0.993065	0.612687
	C122	C	0.623282	0.009384	0.370616
	C123	C	0.379990	0.991580	0.368629
	C124	C	0.624797	0.378565	-0.000998
	C125	C	0.623595	0.620741	0.982213
	C126	C	0.381286	0.621355	-0.000506
	C127	C	0.381108	0.379528	0.981844
	C128	C	0.010005	0.622803	0.368340
	C129	C	0.993044	0.623968	0.612521
	C130	C	0.009714	0.378567	0.612427
	C131	C	0.993938	0.378526	0.368464
	C132	C	0.881403	0.507983	0.110451
	C133	C	0.125105	0.491414	0.112671
	C134	C	0.122838	0.509737	0.869940
	C135	C	0.879333	0.491679	0.868055
	C136	C	0.124668	0.878806	0.498610
	C137	C	0.124064	0.120985	0.481010
	C138	C	0.880870	0.122011	0.498177
	C139	C	0.880811	0.880331	0.481580
	C140	C	0.510432	0.122638	0.868729
	C141	C	0.494535	0.122872	0.113029
	C142	C	0.510808	0.878213	0.112837
	C143	C	0.494416	0.878098	0.868219
	C144	C	0.385355	0.884740	0.665541
	C145	C	0.620723	0.117097	0.667339
	C146	C	0.620127	0.885227	0.315766
	C147	C	0.382700	0.115489	0.313734
	C148	C	0.679241	0.378565	0.874757
	C149	C	0.680148	0.619113	0.105556
	C150	C	0.323284	0.621470	0.876336
	C151	C	0.326401	0.380331	0.105848
	C152	C	0.887972	0.678744	0.368922
	C153	C	0.115797	0.677732	0.611157
	C154	C	0.887210	0.323527	0.608846
	C155	C	0.115889	0.321846	0.370214
	C156	C	0.886696	0.382954	0.665725
	C157	C	0.115411	0.620022	0.668758
	C158	C	0.888236	0.620633	0.311273
	C159	C	0.116213	0.380356	0.313636
	C160	C	0.382919	0.676582	0.875500
	C161	C	0.621754	0.675526	0.106336
	C162	C	0.620301	0.322882	0.874727
	C163	C	0.385413	0.324995	0.106460
	C164	C	0.679221	0.886146	0.371269
	C165	C	0.680229	0.116427	0.611481
	C166	C	0.326281	0.885548	0.609770
	C167	C	0.323431	0.114609	0.369063
	C168	C	0.884450	0.384819	0.166160
	C169	C	0.121562	0.614922	0.168618
	C170	C	0.119899	0.385845	0.814562
	C171	C	0.881742	0.615779	0.813734
	C172	C	0.179880	0.878775	0.375108
	C173	C	0.180650	0.120364	0.605202
	C174	C	0.823561	0.121530	0.374724
	C175	C	0.827183	0.882520	0.605725
	C176	C	0.388291	0.178737	0.869847
	C177	C	0.617024	0.177643	0.111730
	C178	C	0.388901	0.822045	0.110746
	C179	C	0.616757	0.821475	0.870565
	C180	C	0.388424	0.880785	0.167583
	C181	C	0.616904	0.119290	0.169374
	C182	C	0.388119	0.120467	0.812425
	C183	C	0.617117	0.880659	0.813742
	C184	C	0.882367	0.177169	0.373983
	C185	C	0.121985	0.176576	0.605355
	C186	C	0.120993	0.823207	0.374547
	C187	C	0.885323	0.826255	0.606112
	C188	C	0.179354	0.386633	0.870202
	C189	C	0.180911	0.614234	0.113597
	C190	C	0.825686	0.385228	0.110227
	C191	C	0.822637	0.614704	0.868720
	C192	C	0.403016	0.094864	0.587979
	C193	C	0.604361	0.906678	0.590089
	C194	C	0.601174	0.095724	0.392967
	C195	C	0.402248	0.905404	0.391202
	C196	C	0.603854	0.401448	0.085488
	C197	C	0.600965	0.598320	0.895435
	C198	C	0.404160	0.598237	0.085677
	C199	C	0.402400	0.401837	0.895342
	C200	C	0.095254	0.600398	0.391849
	C201	C	0.907538	0.602654	0.589676
	C202	C	0.094953	0.400473	0.590828
	C203	C	0.908746	0.401209	0.390762
	C204	C	0.903235	0.594065	0.087613
	C205	C	0.103303	0.405289	0.089218
	C206	C	0.100483	0.595700	0.893503
	C207	C	0.901953	0.405591	0.890452
	C208	C	0.103399	0.901772	0.585027
	C209	C	0.101589	0.097899	0.394939
	C210	C	0.904093	0.099028	0.584369
	C211	C	0.902036	0.902608	0.394832
	C212	C	0.595775	0.099784	0.891903
	C213	C	0.409086	0.101293	0.090059
	C214	C	0.595738	0.900403	0.090712
	C215	C	0.409312	0.900324	0.890056
	Zn216	Zn	0.502343	0.000710	0.739562
	Zn217	Zn	0.502510	0.000359	0.241875
	Zn218	Zn	0.752463	0.499696	-0.010675
	Zn219	Zn	0.252608	0.500463	-0.008976
	Zn220	Zn	0.001753	0.752020	0.489941
	Zn221	Zn	0.002303	0.248968	0.489591
	Zn222	Zn	0.001014	0.501493	0.741227
	Zn223	Zn	0.002598	0.499902	0.239436
	Zn224	Zn	0.502515	0.749041	-0.009049
	Zn225	Zn	0.502590	0.251714	-0.009103
	Zn226	Zn	0.752906	0.001694	0.490203
	Zn227	Zn	0.252294	-0.000153	0.489876
	N228	N	0.419014	0.962384	0.666064
	N229	N	0.587327	0.039316	0.668228
	N230	N	0.585974	0.962990	0.315046
	N231	N	0.417303	0.038047	0.313219
	N232	N	0.682174	0.412514	0.952994
	N233	N	0.681398	0.585638	0.027295
	N234	N	0.322141	0.587988	0.954626
	N235	N	0.323343	0.413429	0.027348
	N236	N	0.964731	0.680098	0.403906
	N237	N	0.038678	0.680494	0.577080
	N238	N	0.964773	0.320473	0.576597
	N239	N	0.038936	0.320623	0.403675
	N240	N	0.963778	0.416382	0.668126
	N241	N	0.037973	0.587173	0.669797
	N242	N	0.965122	0.586379	0.310971
	N243	N	0.039477	0.415131	0.312529
	N244	N	0.418023	0.676814	0.953023
	N245	N	0.587166	0.676419	0.028446
	N246	N	0.587284	0.322709	0.952938
	N247	N	0.418807	0.324470	0.028548
	N248	N	0.681012	0.964194	0.404699
	N249	N	0.683237	0.038337	0.578259
	N250	N	0.323615	0.963704	0.576581
	N251	N	0.321449	0.036456	0.402168
	N252	N	0.918486	0.462211	0.166394
	N253	N	0.087605	0.537557	0.168168
	N254	N	0.085464	0.463497	0.814258
	N255	N	0.916317	0.538295	0.813250
	N256	N	0.182342	0.912808	0.453395
	N257	N	0.182287	0.086606	0.526779
	N258	N	0.822661	0.087903	0.452908
	N259	N	0.824411	0.915624	0.527239
	N260	N	0.465296	0.180026	0.904443
	N261	N	0.539842	0.180088	0.077429
	N262	N	0.465828	0.820440	0.077285
	N263	N	0.539346	0.819449	0.903443
	N264	N	0.465034	0.915248	0.168890
	N265	N	0.539927	0.086083	0.170203
	N266	N	0.465111	0.086418	0.811596
	N267	N	0.540402	0.915231	0.812251
	N268	N	0.917370	0.177532	0.451728
	N269	N	0.087458	0.177064	0.527563
	N270	N	0.087322	0.823037	0.452343
	N271	N	0.917847	0.824671	0.527766
	N272	N	0.181213	0.464488	0.903982
	N273	N	0.183219	0.536325	0.079427
	N274	N	0.823689	0.462945	0.076316
	N275	N	0.820971	0.536604	0.901701
	O276	O	0.077681	0.078399	-0.076432
	H277	H	0.066082	0.077693	-0.065370
	H278	H	0.076820	0.085849	-0.080583
	O279	O	0.351675	0.466086	0.544347
	H280	H	0.351106	0.461080	0.547543
	H281	H	0.344751	0.466970	0.542831
	O282	O	0.444676	0.480271	0.556825
	H283	H	0.428044	0.482867	0.555820
	H284	H	0.454643	0.476331	0.551057
	O285	O	-0.009777	0.010108	1.081035
	H286	H	-0.011877	-0.009362	1.090489
	H287	H	0.001422	0.011106	1.078053
	O288	O	0.361472	0.563481	0.439563
	H289	H	0.351953	0.578500	0.439659
	H290	H	0.359115	0.560540	0.441910
	O291	O	0.973902	1.014107	0.986460
	H292	H	0.973634	1.025201	0.989235
	H293	H	0.965861	1.014371	0.983924
	O294	O	1.037839	1.011390	1.046323
	H295	H	1.037602	1.014834	1.042072
	H296	H	1.030069	1.004544	1.049492
	O297	O	1.024756	-0.048799	0.953317
	H298	H	1.021949	-0.046034	0.954616
	H299	H	1.030687	-0.038608	0.953592
	O300	O	0.518317	0.472513	0.558576
	H301	H	0.521253	0.474572	0.559728
	H302	H	0.517032	0.471205	0.574348
	O303	O	0.958244	0.150577	-0.042689
	H304	H	0.969037	0.152050	-0.049224
	H305	H	0.949771	0.152951	-0.046311
	O306	O	0.069609	0.981404	0.970860
	H307	H	0.073274	0.964571	0.956876
	H308	H	0.068931	0.983629	0.966036
	O309	O	0.554765	0.528819	0.550527
	H310	H	0.560502	0.525189	0.559755
	H311	H	0.561426	0.531879	0.549048
	O312	O	1.142040	-0.062389	0.996502
	H313	H	1.148530	-0.068228	0.990540
	H314	H	1.146251	-0.069283	0.992143
	O315	O	0.511070	0.528483	0.541749
	H316	H	0.505994	0.527450	0.541759
	H317	H	0.509551	0.530351	0.548055
	O318	O	0.010694	0.989051	0.888456
	H319	H	0.010411	0.993507	0.877789
	H320	H	-0.003562	0.992904	0.902326
	O321	O	1.017818	0.998759	0.939154
	H322	H	1.021540	0.980998	0.941407
	H323	H	1.010476	0.994273	0.930655
	O324	O	0.484680	0.529870	0.426927
	H325	H	0.490104	0.533975	0.429228
	H326	H	0.481349	0.541269	0.422785
	O327	O	0.451603	0.515478	0.484741
	H328	H	0.438487	0.512964	0.483009
	H329	H	0.453101	0.514222	0.477740
	O330	O	0.978192	-0.029515	1.067923
	H331	H	0.977696	-0.022740	1.072068
	H332	H	0.983538	-0.032443	1.062325
	O333	O	0.989462	0.900500	-0.051995
	H334	H	0.978207	0.904991	-0.053368
	H335	H	0.981157	0.911622	-0.058930
	O336	O	0.514898	0.512396	0.468139
	H337	H	0.511976	0.521286	0.472018
	H338	H	0.509669	0.513511	0.461991
	O339	O	0.517291	0.532587	0.451088
	H340	H	0.529274	0.536599	0.449073
	H341	H	0.519019	0.516929	0.463492
	O342	O	-0.066598	1.012324	0.034112
	H343	H	-0.065929	1.014463	0.028810
	H344	H	-0.067013	1.013220	0.038150
	O345	O	-0.022221	0.001468	0.033363
	H346	H	-0.019567	0.001177	0.037159
	H347	H	-0.010344	-0.006581	0.042401
	O348	O	0.576531	0.522650	0.472633
	H349	H	0.574297	0.527114	0.473502
	H350	H	0.568461	0.514314	0.469986
	O351	O	0.528415	0.567964	0.563169
	H352	H	0.516209	0.559987	0.556161
	H353	H	0.529196	0.583333	0.574465
	O354	O	0.487496	0.477923	0.537426
	H355	H	0.492332	0.475876	0.530868
	H356	H	0.486581	0.481092	0.533361
	O357	O	0.518495	0.534918	0.452830
	H358	H	0.511117	0.531804	0.446202
	H359	H	0.518275	0.542203	0.447975
	O360	O	0.126274	0.058820	0.074434
	H361	H	0.126800	0.070131	0.066720
	H362	H	0.133874	0.054835	0.081710
	O363	O	-0.005803	1.024181	0.928841
	H364	H	-0.009244	1.032587	0.936484
	H365	H	0.010743	1.027770	0.916144
	O366	O	0.019510	-0.013733	0.947922
	H367	H	0.013532	0.004842	0.948181
	H368	H	0.013444	-0.017692	0.950503
	O369	O	0.480256	0.449832	0.503847
	H370	H	0.484302	0.465142	0.494954
	H371	H	0.483173	0.443575	0.503031
