data_Molecule from HDF5

_cell_length_a		16.318216
_cell_length_b		16.306676
_cell_length_c		16.289278
_cell_angle_alpha	90.017525
_cell_angle_beta	90.017347
_cell_angle_gamma	90.003033
_symmetry_space_group_name_H-M	'P 1'
_symmetry_Int_Tables_number		1

loop_
	_symmetry_equiv_pos_as_xyz
	x,y,z

loop_
	_atom_site_label
	_atom_site_type_symbol
	_atom_site_fract_x
	_atom_site_fract_y
	_atom_site_fract_z
	H0	H	0.399582	0.836173	0.721646
	H1	H	0.594170	0.163944	0.722463
	H2	H	0.593505	0.835689	0.294527
	H3	H	0.398378	0.163011	0.293762
	H4	H	0.712554	0.400744	0.843603
	H5	H	0.710010	0.595584	0.172066
	H6	H	0.283635	0.598181	0.842813
	H7	H	0.282869	0.401159	0.170403
	H8	H	0.832783	0.713889	0.408493
	H9	H	0.159686	0.716308	0.605452
	H10	H	0.833151	0.286294	0.605957
	H11	H	0.160376	0.285797	0.409674
	H12	H	0.834145	0.402538	0.722741
	H13	H	0.161256	0.599185	0.721329
	H14	H	0.833591	0.598777	0.291572
	H15	H	0.160567	0.402809	0.293571
	H16	H	0.399181	0.715632	0.844118
	H17	H	0.595759	0.714285	0.171356
	H18	H	0.594960	0.285088	0.843341
	H19	H	0.399616	0.286666	0.171240
	H20	H	0.710668	0.836215	0.409579
	H21	H	0.711168	0.163792	0.607185
	H22	H	0.281915	0.836276	0.606678
	H23	H	0.283799	0.164165	0.411418
	H24	H	0.899776	0.336236	0.220549
	H25	H	0.096262	0.663966	0.221890
	H26	H	0.094896	0.336275	0.793715
	H27	H	0.900894	0.664469	0.794054
	H28	H	0.210962	0.901624	0.343944
	H29	H	0.209861	0.098000	0.672451
	H30	H	0.781102	0.099862	0.344776
	H31	H	0.783503	0.903642	0.672138
	H32	H	0.333445	0.213743	0.909722
	H33	H	0.661202	0.214107	0.106748
	H34	H	0.333938	0.783960	0.106173
	H35	H	0.661659	0.786700	0.910117
	H36	H	0.333145	0.901941	0.221048
	H37	H	0.660372	0.097027	0.222908
	H38	H	0.333389	0.096457	0.794243
	H39	H	0.660714	0.902317	0.792945
	H40	H	0.899119	0.213923	0.343649
	H41	H	0.094020	0.214799	0.671348
	H42	H	0.092561	0.787672	0.343070
	H43	H	0.897450	0.785543	0.670899
	H44	H	0.210326	0.336026	0.909449
	H45	H	0.213008	0.663347	0.105883
	H46	H	0.783226	0.336221	0.104780
	H47	H	0.782045	0.663295	0.908011
	H48	H	0.395130	0.117718	0.598981
	H49	H	0.591615	0.884802	0.599003
	H50	H	0.591548	0.114391	0.419811
	H51	H	0.405475	0.881323	0.407155
	H52	H	0.588852	0.407904	0.122578
	H53	H	0.583808	0.580093	0.896562
	H54	H	0.406184	0.596209	0.123325
	H55	H	0.404951	0.412298	0.892420
	H56	H	0.113770	0.593717	0.409668
	H57	H	0.881574	0.589826	0.603702
	H58	H	0.110663	0.408330	0.592099
	H59	H	0.880485	0.403480	0.415674
	H60	H	0.112208	0.413352	0.605448
	H61	H	0.880054	0.597306	0.602654
	H62	H	0.113030	0.598133	0.416583
	H63	H	0.881559	0.410480	0.415412
	H64	H	0.400473	0.590618	0.124055
	H65	H	0.581414	0.605439	0.889838
	H66	H	0.589934	0.404796	0.123718
	H67	H	0.408167	0.401890	0.890328
	H68	H	0.593490	0.117883	0.411421
	H69	H	0.591253	0.883119	0.602818
	H70	H	0.403400	0.118434	0.609616
	H71	H	0.407984	0.886718	0.420767
	H72	H	0.905662	0.614513	0.097033
	H73	H	0.090419	0.383255	0.104242
	H74	H	0.096030	0.618399	0.913008
	H75	H	0.908168	0.385420	0.918104
	H76	H	0.075268	0.896869	0.623187
	H77	H	0.089997	0.090014	0.392418
	H78	H	0.899006	0.093321	0.625795
	H79	H	0.893528	0.908406	0.388873
	H80	H	0.615272	0.095816	0.912609
	H81	H	0.378125	0.096346	0.107000
	H82	H	0.611720	0.911944	0.102086
	H83	H	0.380298	0.903555	0.913206
	H84	H	0.615596	0.903318	0.106163
	H85	H	0.381859	0.097805	0.095128
	H86	H	0.612422	0.094251	0.919119
	H87	H	0.382129	0.906537	0.917763
	H88	H	0.905353	0.089593	0.622819
	H89	H	0.087444	0.094744	0.391672
	H90	H	0.105142	0.900767	0.630155
	H91	H	0.907415	0.913995	0.394727
	H92	H	0.088347	0.616654	0.909944
	H93	H	0.087798	0.385399	0.099745
	H94	H	0.898379	0.617744	0.100114
	H95	H	0.898947	0.383419	0.916197
	H96	H	0.407759	0.113210	0.597367
	H97	H	0.588126	0.884893	0.600770
	H98	H	0.585021	0.114965	0.413845
	H99	H	0.394635	0.882001	0.417052
	H100	H	0.592815	0.407735	0.123207
	H101	H	0.604959	0.593933	0.887311
	H102	H	0.407930	0.588548	0.120978
	H103	H	0.397542	0.404401	0.888154
	H104	H	0.110983	0.590010	0.416738
	H105	H	0.882430	0.592741	0.596327
	H106	H	0.115957	0.399340	0.602733
	H107	H	0.879455	0.406203	0.409220
	H108	H	0.905022	0.617654	0.105196
	H109	H	0.093709	0.383876	0.098955
	H110	H	0.089835	0.614680	0.918272
	H111	H	0.905717	0.382843	0.909354
	H112	H	0.088680	0.924351	0.618665
	H113	H	0.092767	0.094379	0.390675
	H114	H	0.906070	0.097985	0.624265
	H115	H	0.906653	0.898719	0.389912
	H116	H	0.612324	0.089675	0.913872
	H117	H	0.383066	0.086680	0.101353
	H118	H	0.612356	0.903505	0.096653
	H119	H	0.381179	0.909076	0.912618
	C120	C	0.374593	0.008198	0.629803
	C121	C	0.618117	0.992285	0.629613
	C122	C	0.617846	0.007696	0.386757
	C123	C	0.374545	0.991387	0.386818
	C124	C	0.618960	0.377880	0.015237
	C125	C	0.618499	0.621045	0.999518
	C126	C	0.376089	0.620981	0.015083
	C127	C	0.375834	0.378235	0.998749
	C128	C	0.004566	0.621763	0.385759
	C129	C	0.989045	0.622312	0.629171
	C130	C	0.005106	0.378708	0.628990
	C131	C	0.988694	0.378649	0.385483
	C132	C	0.875696	0.507971	0.128559
	C133	C	0.119400	0.491947	0.129011
	C134	C	0.119132	0.508442	0.885575
	C135	C	0.875938	0.492021	0.885952
	C136	C	0.117804	0.878992	0.515589
	C137	C	0.118045	0.121681	0.500046
	C138	C	0.874910	0.121830	0.516106
	C139	C	0.874465	0.878621	0.499222
	C140	C	0.505118	0.121071	0.887006
	C141	C	0.489145	0.121596	0.129696
	C142	C	0.505347	0.877821	0.129763
	C143	C	0.489288	0.877976	0.886099
	C144	C	0.378420	0.884999	0.684201
	C145	C	0.614891	0.115320	0.684499
	C146	C	0.614603	0.884722	0.332014
	C147	C	0.377663	0.114345	0.331757
	C148	C	0.674172	0.380407	0.892105
	C149	C	0.672796	0.617127	0.123150
	C150	C	0.321015	0.618955	0.891960
	C151	C	0.320726	0.380689	0.121649
	C152	C	0.881562	0.676393	0.387908
	C153	C	0.111487	0.677868	0.626235
	C154	C	0.882055	0.324054	0.626547
	C155	C	0.111535	0.323506	0.388486
	C156	C	0.882548	0.381617	0.684618
	C157	C	0.112047	0.619529	0.683666
	C158	C	0.881973	0.619119	0.329773
	C159	C	0.111636	0.381484	0.330858
	C160	C	0.378592	0.677086	0.892409
	C161	C	0.616004	0.675679	0.122930
	C162	C	0.615953	0.322967	0.892081
	C163	C	0.378583	0.323812	0.122093
	C164	C	0.673083	0.885119	0.388847
	C165	C	0.673237	0.115123	0.627568
	C166	C	0.320093	0.884993	0.626965
	C167	C	0.320605	0.114814	0.389949
	C168	C	0.879075	0.385012	0.182909
	C169	C	0.117007	0.614968	0.184003
	C170	C	0.115685	0.385038	0.831115
	C171	C	0.879514	0.615218	0.831172
	C172	C	0.172575	0.881586	0.392532
	C173	C	0.172437	0.118764	0.623300
	C174	C	0.819801	0.119392	0.393201
	C175	C	0.820534	0.882270	0.622990
	C176	C	0.382213	0.175809	0.889248
	C177	C	0.612108	0.176190	0.127116
	C178	C	0.382289	0.822767	0.126512
	C179	C	0.612513	0.823574	0.889187
	C180	C	0.381971	0.881048	0.183798
	C181	C	0.611835	0.118190	0.184921
	C182	C	0.382172	0.117754	0.831817
	C183	C	0.612270	0.881007	0.831076
	C184	C	0.877840	0.176437	0.392822
	C185	C	0.114806	0.176786	0.622787
	C186	C	0.114026	0.824881	0.392161
	C187	C	0.877054	0.823734	0.622414
	C188	C	0.173209	0.385039	0.888460
	C189	C	0.174727	0.614719	0.126251
	C190	C	0.821141	0.384986	0.125438
	C191	C	0.820787	0.614894	0.888004
	C192	C	0.395845	0.094293	0.608270
	C193	C	0.596471	0.906490	0.607509
	C194	C	0.596221	0.093664	0.408638
	C195	C	0.396225	0.905535	0.408728
	C196	C	0.597146	0.400277	0.101020
	C197	C	0.596625	0.599559	0.913570
	C198	C	0.398400	0.598406	0.100730
	C199	C	0.397312	0.399881	0.912523
	C200	C	0.090392	0.600230	0.407922
	C201	C	0.903321	0.599919	0.607331
	C202	C	0.090757	0.400593	0.606638
	C203	C	0.902760	0.400329	0.407250
	C204	C	0.896810	0.594460	0.107027
	C205	C	0.097338	0.406284	0.107122
	C206	C	0.097818	0.594243	0.907340
	C207	C	0.897642	0.406139	0.908077
	C208	C	0.096130	0.901013	0.601805
	C209	C	0.096385	0.099488	0.413669
	C210	C	0.897071	0.099996	0.602107
	C211	C	0.896105	0.900543	0.413446
	C212	C	0.591129	0.099539	0.908688
	C213	C	0.403298	0.099920	0.107640
	C214	C	0.591093	0.899820	0.107988
	C215	C	0.403399	0.899807	0.908150
	Zn216	Zn	0.496873	-0.000200	0.757741
	Zn217	Zn	0.496346	-0.000594	0.258280
	Zn218	Zn	0.747064	0.499951	0.006992
	Zn219	Zn	0.247567	0.499560	0.006789
	Zn220	Zn	-0.004078	0.750792	0.507710
	Zn221	Zn	-0.003699	0.249949	0.507574
	Zn222	Zn	-0.002088	0.500280	0.757734
	Zn223	Zn	-0.002766	0.500541	0.257089
	Zn224	Zn	0.497442	0.749563	0.008065
	Zn225	Zn	0.496919	0.250176	0.007752
	Zn226	Zn	0.746358	0.000288	0.508067
	Zn227	Zn	0.246305	-0.000229	0.508316
	N228	N	0.411606	0.962565	0.686081
	N229	N	0.581415	0.037838	0.685902
	N230	N	0.581155	0.962209	0.330383
	N231	N	0.410634	0.036674	0.329719
	N232	N	0.675990	0.414168	0.969606
	N233	N	0.674491	0.583883	0.045543
	N234	N	0.319444	0.584822	0.969179
	N235	N	0.318943	0.413872	0.044025
	N236	N	0.958796	0.678372	0.421897
	N237	N	0.033957	0.679336	0.592861
	N238	N	0.959246	0.322200	0.592581
	N239	N	0.034078	0.321793	0.421958
	N240	N	0.959905	0.415070	0.686019
	N241	N	0.034876	0.585774	0.685519
	N242	N	0.959462	0.585782	0.328450
	N243	N	0.034416	0.415233	0.329208
	N244	N	0.412053	0.678551	0.969926
	N245	N	0.583004	0.678152	0.045284
	N246	N	0.582351	0.321531	0.969504
	N247	N	0.412112	0.322191	0.044559
	N248	N	0.674960	0.962446	0.422273
	N249	N	0.675135	0.037778	0.593934
	N250	N	0.317571	0.962588	0.594060
	N251	N	0.318585	0.037458	0.423539
	N252	N	0.912264	0.462583	0.184731
	N253	N	0.083149	0.537755	0.185793
	N254	N	0.082669	0.462600	0.829246
	N255	N	0.913018	0.537693	0.829850
	N256	N	0.175031	0.914361	0.470429
	N257	N	0.174365	0.085177	0.545793
	N258	N	0.818069	0.085983	0.470777
	N259	N	0.818786	0.915791	0.545529
	N260	N	0.459518	0.177903	0.922765
	N261	N	0.534720	0.178417	0.093693
	N262	N	0.459983	0.820588	0.093722
	N263	N	0.534925	0.821576	0.922667
	N264	N	0.459335	0.914762	0.185714
	N265	N	0.534318	0.085131	0.186863
	N266	N	0.459623	0.084342	0.830434
	N267	N	0.534886	0.914148	0.829155
	N268	N	0.911415	0.178061	0.470185
	N269	N	0.081822	0.178567	0.545053
	N270	N	0.080640	0.823103	0.469664
	N271	N	0.909773	0.821294	0.544557
	N272	N	0.175391	0.462639	0.921628
	N273	N	0.176412	0.537173	0.092853
	N274	N	0.819021	0.462577	0.092324
	N275	N	0.818483	0.537368	0.921392
	O276	O	0.488026	0.490537	0.474561
	H277	H	0.477562	0.498757	0.478503
	H278	H	0.483362	0.491096	0.465360
	O279	O	0.535867	0.476436	0.493819
	H280	H	0.540170	0.483275	0.487711
	H281	H	0.527909	0.475032	0.490612
	O282	O	1.466028	0.498754	-0.491725
	H283	H	1.480433	0.493792	-0.488026
	H284	H	1.459072	0.497488	-0.488151
	O285	O	0.491075	0.483981	0.510505
	H286	H	0.495982	0.476750	0.518346
	H287	H	0.496438	0.483818	0.509430
