data_Molecule from HDF5

_cell_length_a		16.305608
_cell_length_b		16.191276
_cell_length_c		16.276131
_cell_angle_alpha	90.015171
_cell_angle_beta	89.867981
_cell_angle_gamma	89.941481
_symmetry_space_group_name_H-M	'P 1'
_symmetry_Int_Tables_number		1

loop_
	_symmetry_equiv_pos_as_xyz
	x,y,z

loop_
	_atom_site_label
	_atom_site_type_symbol
	_atom_site_fract_x
	_atom_site_fract_y
	_atom_site_fract_z
	H0	H	0.414558	0.835600	0.707882
	H1	H	0.611821	0.164433	0.705993
	H2	H	0.612390	0.834824	0.279982
	H3	H	0.415722	0.163800	0.280663
	H4	H	0.729675	0.401150	0.830228
	H5	H	0.728000	0.599409	0.157966
	H6	H	0.297644	0.600970	0.831131
	H7	H	0.297837	0.400115	0.156922
	H8	H	0.850005	0.713058	0.396936
	H9	H	0.177697	0.712206	0.591273
	H10	H	0.849673	0.285569	0.592311
	H11	H	0.178041	0.285110	0.396017
	H12	H	0.850832	0.398409	0.710981
	H13	H	0.177221	0.597596	0.709471
	H14	H	0.850658	0.598809	0.279840
	H15	H	0.176892	0.399291	0.277302
	H16	H	0.416235	0.713729	0.830591
	H17	H	0.610301	0.713680	0.158466
	H18	H	0.612678	0.286515	0.829388
	H19	H	0.414017	0.285173	0.157054
	H20	H	0.728295	0.835340	0.394606
	H21	H	0.729301	0.162870	0.593100
	H22	H	0.300442	0.834434	0.591596
	H23	H	0.298430	0.162909	0.394169
	H24	H	0.914505	0.334713	0.207969
	H25	H	0.111607	0.663094	0.207521
	H26	H	0.112681	0.334652	0.780309
	H27	H	0.915228	0.663313	0.779710
	H28	H	0.228302	0.899609	0.330123
	H29	H	0.229365	0.098229	0.656791
	H30	H	0.798736	0.098968	0.330345
	H31	H	0.796892	0.898233	0.656327
	H32	H	0.349640	0.214702	0.896540
	H33	H	0.678025	0.214084	0.090214
	H34	H	0.350240	0.786489	0.092315
	H35	H	0.677145	0.785948	0.894844
	H36	H	0.350844	0.900369	0.210015
	H37	H	0.677132	0.099758	0.208957
	H38	H	0.349968	0.100830	0.777842
	H39	H	0.675477	0.900584	0.776785
	H40	H	0.915420	0.214689	0.331004
	H41	H	0.111460	0.212291	0.658382
	H42	H	0.112051	0.784631	0.329826
	H43	H	0.916137	0.786131	0.658804
	H44	H	0.229194	0.335691	0.894930
	H45	H	0.226889	0.663684	0.092988
	H46	H	0.798697	0.335282	0.092831
	H47	H	0.800000	0.664320	0.895354
	H48	H	0.410456	0.118952	0.585224
	H49	H	0.610196	0.879931	0.589566
	H50	H	0.610414	0.116049	0.408360
	H51	H	0.421940	0.881756	0.398549
	H52	H	0.610586	0.408990	0.110982
	H53	H	0.617351	0.591901	0.875474
	H54	H	0.426639	0.596118	0.109592
	H55	H	0.427765	0.410746	0.880189
	H56	H	0.128016	0.592901	0.409287
	H57	H	0.899667	0.588835	0.583609
	H58	H	0.131006	0.401919	0.586907
	H59	H	0.896484	0.400453	0.401467
	H60	H	0.128449	0.408341	0.584593
	H61	H	0.896505	0.589349	0.592991
	H62	H	0.129396	0.583985	0.395350
	H63	H	0.900210	0.409501	0.406333
	H64	H	0.414097	0.598349	0.113941
	H65	H	0.602612	0.585329	0.881662
	H66	H	0.603717	0.409604	0.108702
	H67	H	0.420552	0.401448	0.875255
	H68	H	0.609859	0.119690	0.394950
	H69	H	0.600242	0.883784	0.588097
	H70	H	0.425671	0.118134	0.594468
	H71	H	0.421828	0.882317	0.401652
	H72	H	0.924986	0.615730	0.087557
	H73	H	0.112228	0.379233	0.088499
	H74	H	0.110475	0.618935	0.898101
	H75	H	0.927171	0.383851	0.900870
	H76	H	0.113063	0.910145	0.610917
	H77	H	0.100773	0.090143	0.380239
	H78	H	0.916695	0.088967	0.610529
	H79	H	0.917740	0.907991	0.376778
	H80	H	0.628946	0.099767	0.905964
	H81	H	0.397054	0.090309	0.091851
	H82	H	0.634437	0.903951	0.096819
	H83	H	0.394789	0.906767	0.894778
	H84	H	0.629816	0.900438	0.077641
	H85	H	0.396659	0.096907	0.086207
	H86	H	0.626460	0.083642	0.900549
	H87	H	0.395965	0.901977	0.902873
	H88	H	0.922648	0.089395	0.608824
	H89	H	0.108020	0.098457	0.375247
	H90	H	0.101541	0.908469	0.607817
	H91	H	0.923838	0.907884	0.379014
	H92	H	0.100190	0.615429	0.899958
	H93	H	0.102256	0.381827	0.089982
	H94	H	0.916984	0.616866	0.084384
	H95	H	0.919162	0.384110	0.908948
	H96	H	0.425667	0.113184	0.577212
	H97	H	0.606760	0.883604	0.580034
	H98	H	0.599107	0.114481	0.401067
	H99	H	0.419462	0.880176	0.400243
	H100	H	0.606489	0.403176	0.111006
	H101	H	0.603048	0.602133	0.875579
	H102	H	0.417749	0.585914	0.109357
	H103	H	0.415590	0.413524	0.877297
	H104	H	0.134076	0.599444	0.395487
	H105	H	0.896235	0.597398	0.587498
	H106	H	0.130332	0.407570	0.591073
	H107	H	0.897383	0.409793	0.395414
	H108	H	0.918880	0.618079	0.093642
	H109	H	0.106313	0.382934	0.080787
	H110	H	0.107548	0.615027	0.907713
	H111	H	0.917530	0.379699	0.898471
	H112	H	0.108389	0.899025	0.612683
	H113	H	0.111949	0.087530	0.377255
	H114	H	0.920767	0.094976	0.611566
	H115	H	0.921600	0.901992	0.376631
	H116	H	0.633484	0.095640	0.889582
	H117	H	0.400195	0.089718	0.084016
	H118	H	0.626800	0.918117	0.085398
	H119	H	0.398436	0.911367	0.902406
	C120	C	0.392229	0.008242	0.614255
	C121	C	0.634916	0.991018	0.614661
	C122	C	0.635192	0.008059	0.372414
	C123	C	0.392440	0.990285	0.372150
	C124	C	0.635812	0.378725	0.001771
	C125	C	0.635579	0.622116	0.985749
	C126	C	0.391405	0.621811	0.002970
	C127	C	0.392192	0.379257	0.985379
	C128	C	0.022334	0.621037	0.371994
	C129	C	1.005555	0.620332	0.615912
	C130	C	0.022079	0.376957	0.616755
	C131	C	1.005811	0.377088	0.371995
	C132	C	0.891442	0.507932	0.116572
	C133	C	0.134767	0.490485	0.114913
	C134	C	0.135051	0.507932	0.872914
	C135	C	0.892600	0.490895	0.873622
	C136	C	0.136141	0.876840	0.502101
	C137	C	0.135557	0.120553	0.485525
	C138	C	0.891717	0.120689	0.502550
	C139	C	0.892178	0.877327	0.485482
	C140	C	0.521738	0.122189	0.870873
	C141	C	0.505639	0.121935	0.115677
	C142	C	0.522348	0.878623	0.115429
	C143	C	0.504721	0.878201	0.871569
	C144	C	0.394629	0.884462	0.669684
	C145	C	0.632341	0.115075	0.669064
	C146	C	0.632798	0.884203	0.317629
	C147	C	0.395151	0.114522	0.318023
	C148	C	0.691542	0.380962	0.879012
	C149	C	0.690340	0.619838	0.109024
	C150	C	0.335887	0.620332	0.880084
	C151	C	0.336165	0.380178	0.108307
	C152	C	0.899159	0.675676	0.375714
	C153	C	0.128964	0.674819	0.612672
	C154	C	0.898975	0.322367	0.613441
	C155	C	0.128891	0.322056	0.375098
	C156	C	0.899244	0.378979	0.672149
	C157	C	0.128547	0.618082	0.671337
	C158	C	0.899407	0.618592	0.317631
	C159	C	0.128511	0.378998	0.316159
	C160	C	0.394915	0.676486	0.879497
	C161	C	0.631896	0.676930	0.109260
	C162	C	0.633312	0.323815	0.878601
	C163	C	0.394111	0.323280	0.108336
	C164	C	0.690561	0.884415	0.374356
	C165	C	0.690806	0.114206	0.612673
	C166	C	0.338021	0.883843	0.611846
	C167	C	0.336809	0.114001	0.374402
	C168	C	0.893991	0.383991	0.170709
	C169	C	0.132207	0.613966	0.170109
	C170	C	0.133087	0.384005	0.817977
	C171	C	0.894567	0.614363	0.817674
	C172	C	0.190601	0.879175	0.379139
	C173	C	0.191255	0.118769	0.608211
	C174	C	0.836764	0.118893	0.379162
	C175	C	0.835750	0.878663	0.608013
	C176	C	0.398658	0.177289	0.874698
	C177	C	0.628756	0.177289	0.112220
	C178	C	0.398940	0.824198	0.112993
	C179	C	0.628017	0.823807	0.874747
	C180	C	0.399486	0.880748	0.171572
	C181	C	0.628503	0.119986	0.170808
	C182	C	0.398818	0.120453	0.815869
	C183	C	0.627408	0.880731	0.815946
	C184	C	0.894460	0.176580	0.379430
	C185	C	0.132692	0.175386	0.609002
	C186	C	0.132675	0.822128	0.378922
	C187	C	0.894860	0.822787	0.609168
	C188	C	0.191197	0.384552	0.874682
	C189	C	0.189538	0.614208	0.113176
	C190	C	0.836499	0.384225	0.113478
	C191	C	0.837542	0.614932	0.875233
	C192	C	0.413965	0.094412	0.592122
	C193	C	0.612286	0.904714	0.592433
	C194	C	0.612990	0.094532	0.394861
	C195	C	0.414511	0.903863	0.393789
	C196	C	0.613507	0.400709	0.087919
	C197	C	0.613992	0.599762	0.899820
	C198	C	0.413154	0.599951	0.088800
	C199	C	0.414644	0.402120	0.899652
	C200	C	0.108217	0.598721	0.393664
	C201	C	0.919792	0.598436	0.594471
	C202	C	0.108008	0.399519	0.594366
	C203	C	0.920090	0.399918	0.394424
	C204	C	0.913485	0.594547	0.094845
	C205	C	0.113146	0.403621	0.092820
	C206	C	0.112515	0.594219	0.895250
	C207	C	0.914648	0.404733	0.896082
	C208	C	0.114113	0.899165	0.588376
	C209	C	0.113580	0.098492	0.399861
	C210	C	0.913545	0.097866	0.588023
	C211	C	0.914476	0.899414	0.399677
	C212	C	0.607638	0.099659	0.892481
	C213	C	0.420020	0.099195	0.093615
	C214	C	0.608101	0.900849	0.093247
	C215	C	0.418587	0.900371	0.893496
	Zn216	Zn	0.512871	0.000182	0.742539
	Zn217	Zn	0.514212	-0.000393	0.244542
	Zn218	Zn	0.764546	0.500087	-0.005620
	Zn219	Zn	0.262929	0.499759	-0.005715
	Zn220	Zn	0.013746	0.749109	0.494412
	Zn221	Zn	0.013523	0.248984	0.494595
	Zn222	Zn	0.013763	0.498752	0.745182
	Zn223	Zn	0.013995	0.499014	0.243251
	Zn224	Zn	0.513039	0.750246	-0.005887
	Zn225	Zn	0.513495	0.250693	-0.006372
	Zn226	Zn	0.763159	-0.000859	0.493364
	Zn227	Zn	0.264424	-0.001391	0.493528
	N228	N	0.427659	0.962725	0.671310
	N229	N	0.598334	0.037365	0.670482
	N230	N	0.599062	0.962063	0.316343
	N231	N	0.429038	0.036755	0.316589
	N232	N	0.693165	0.414257	0.956734
	N233	N	0.692824	0.586431	0.031317
	N234	N	0.333498	0.587125	0.957774
	N235	N	0.334829	0.414050	0.030752
	N236	N	0.976550	0.677436	0.408727
	N237	N	0.051682	0.676408	0.578917
	N238	N	0.976402	0.321189	0.579514
	N239	N	0.051561	0.321031	0.409449
	N240	N	0.976809	0.412129	0.674224
	N241	N	0.050964	0.584700	0.673404
	N242	N	0.977069	0.585028	0.315289
	N243	N	0.051089	0.412542	0.314347
	N244	N	0.428872	0.677551	0.956850
	N245	N	0.598727	0.678453	0.031553
	N246	N	0.599329	0.322383	0.956101
	N247	N	0.428312	0.322541	0.030948
	N248	N	0.692006	0.962555	0.407664
	N249	N	0.692434	0.036119	0.579605
	N250	N	0.336433	0.961617	0.578223
	N251	N	0.335114	0.035754	0.407317
	N252	N	0.927604	0.461875	0.172537
	N253	N	0.098753	0.535988	0.171112
	N254	N	0.099095	0.461827	0.816685
	N255	N	0.928132	0.536480	0.816556
	N256	N	0.192538	0.912742	0.456651
	N257	N	0.193165	0.085380	0.530501
	N258	N	0.835011	0.084803	0.456525
	N259	N	0.834040	0.912099	0.530253
	N260	N	0.476042	0.178482	0.908126
	N261	N	0.551410	0.178543	0.078523
	N262	N	0.476123	0.822745	0.078935
	N263	N	0.550523	0.822219	0.908619
	N264	N	0.477181	0.914157	0.172967
	N265	N	0.550897	0.086711	0.173289
	N266	N	0.476364	0.086816	0.813600
	N267	N	0.549777	0.913717	0.813912
	N268	N	0.927722	0.177933	0.456981
	N269	N	0.098516	0.176578	0.531838
	N270	N	0.099452	0.820590	0.456778
	N271	N	0.929338	0.821741	0.531995
	N272	N	0.192488	0.462578	0.907982
	N273	N	0.191003	0.536308	0.079556
	N274	N	0.834930	0.462367	0.080511
	N275	N	0.835949	0.537067	0.909194
	O276	O	1.052447	0.986662	-0.015925
	H277	H	1.050757	0.990517	-0.013879
	H278	H	1.047234	0.987381	-0.018451
	O279	O	-0.005813	-0.018220	0.996681
	H280	H	-0.010001	-0.018321	0.998485
	H281	H	-0.014167	-0.016019	0.993221
	O282	O	-0.473229	0.445560	0.523621
	H283	H	-0.461836	0.457891	0.529456
	H284	H	-0.475497	0.445352	0.509841
	O285	O	0.582253	0.460925	0.395727
	H286	H	0.582256	0.464026	0.396365
	H287	H	0.583887	0.460783	0.396100
	O288	O	0.052700	-0.024296	-0.019588
	H289	H	0.057102	-0.031885	-0.021337
	H290	H	0.052031	-0.023515	-0.028286
	O291	O	-0.042472	0.880141	0.007303
	H292	H	-0.043222	0.866937	0.004595
	H293	H	-0.030253	0.878946	0.012204
	O294	O	0.018186	1.013909	0.008381
	H295	H	0.023430	1.018012	0.007080
	H296	H	0.015008	1.013621	0.007728
	O297	O	0.581480	0.472508	0.491396
	H298	H	0.588606	0.479221	0.493793
	H299	H	0.576628	0.469173	0.494716
	O300	O	0.573119	0.507578	0.563775
	H301	H	0.580302	0.497261	0.563482
	H302	H	0.572042	0.499241	0.563864
	O303	O	0.465308	-0.538748	1.504925
	H304	H	0.466548	-0.544188	1.508076
	H305	H	0.472029	-0.537268	1.509673
	O306	O	-0.036263	0.962681	0.968783
	H307	H	-0.048094	0.956762	0.977518
	H308	H	-0.031205	0.962873	0.979405
	O309	O	0.033209	1.011645	0.974889
	H310	H	0.027177	1.016850	0.975125
	H311	H	0.030808	1.013843	0.973937
	O312	O	-0.051351	0.033449	1.050847
	H313	H	-0.051495	0.041258	1.056398
	H314	H	-0.054976	0.033930	1.049501
	O315	O	0.504007	0.451250	0.473264
	H316	H	0.509941	0.448369	0.466747
	H317	H	0.502677	0.447582	0.478821
	O318	O	-0.032660	0.048890	1.007068
	H319	H	-0.025036	0.046196	0.997345
	H320	H	-0.034433	0.033307	1.016285
	O321	O	0.453898	0.517515	0.536867
	H322	H	0.447157	0.507854	0.527624
	H323	H	0.456347	0.516655	0.534956
	O324	O	1.003632	0.045860	1.033322
	H325	H	1.006200	0.050065	1.032429
	H326	H	1.000350	0.043257	1.026390
	O327	O	1.044098	1.004427	1.029095
	H328	H	1.046831	1.007192	1.035758
	H329	H	1.043235	1.015078	1.021075
	O330	O	0.486294	0.466730	0.501288
	H331	H	0.481727	0.473049	0.504908
	H332	H	0.472087	0.467836	0.496073
	O333	O	0.603573	0.509797	0.516273
	H334	H	0.594045	0.496659	0.522792
	H335	H	0.604405	0.515849	0.520026
	O336	O	0.541296	0.523973	0.464481
	H337	H	0.538110	0.530383	0.456638
	H338	H	0.538881	0.533529	0.469329
	O339	O	-0.478841	0.488005	-0.534258
	H340	H	-0.487980	0.479637	-0.529584
	H341	H	-0.473346	0.486004	-0.534796
	O342	O	0.540964	0.515984	0.553811
	H343	H	0.553774	0.521466	0.565286
	H344	H	0.547880	0.511728	0.542666
	O345	O	0.535623	0.470569	0.483973
	H346	H	0.538351	0.464672	0.487263
	H347	H	0.525088	0.462995	0.480490
