data_Molecule from HDF5

_cell_length_a		16.240917
_cell_length_b		16.351960
_cell_length_c		16.304777
_cell_angle_alpha	90.012525
_cell_angle_beta	89.925527
_cell_angle_gamma	90.082504
_symmetry_space_group_name_H-M	'P 1'
_symmetry_Int_Tables_number		1

loop_
	_symmetry_equiv_pos_as_xyz
	x,y,z

loop_
	_atom_site_label
	_atom_site_type_symbol
	_atom_site_fract_x
	_atom_site_fract_y
	_atom_site_fract_z
	H0	H	0.397173	0.835759	0.720826
	H1	H	0.596094	0.162865	0.719765
	H2	H	0.594376	0.836212	0.290477
	H3	H	0.398006	0.162117	0.291509
	H4	H	0.710859	0.400895	0.841966
	H5	H	0.710328	0.596482	0.169104
	H6	H	0.283679	0.595113	0.841542
	H7	H	0.282112	0.400857	0.169149
	H8	H	0.832232	0.712416	0.406595
	H9	H	0.160293	0.713921	0.603371
	H10	H	0.832220	0.284129	0.604214
	H11	H	0.160457	0.284202	0.405640
	H12	H	0.832724	0.399317	0.721136
	H13	H	0.161289	0.596931	0.718208
	H14	H	0.832442	0.596492	0.290667
	H15	H	0.160717	0.402085	0.291168
	H16	H	0.397959	0.713267	0.842268
	H17	H	0.597038	0.715874	0.168539
	H18	H	0.595993	0.283445	0.843196
	H19	H	0.395879	0.283025	0.168549
	H20	H	0.709649	0.835600	0.407214
	H21	H	0.711055	0.161751	0.602483
	H22	H	0.282228	0.835263	0.603041
	H23	H	0.281856	0.162135	0.407985
	H24	H	0.898138	0.335776	0.219712
	H25	H	0.095126	0.662058	0.219331
	H26	H	0.094952	0.335618	0.790197
	H27	H	0.899490	0.661844	0.790852
	H28	H	0.210856	0.901692	0.341824
	H29	H	0.209495	0.095828	0.670093
	H30	H	0.782885	0.096211	0.341331
	H31	H	0.782133	0.902483	0.669149
	H32	H	0.332502	0.212901	0.907444
	H33	H	0.659683	0.214373	0.104811
	H34	H	0.332864	0.783858	0.104631
	H35	H	0.660530	0.785730	0.906125
	H36	H	0.332093	0.900913	0.219188
	H37	H	0.660360	0.096868	0.218932
	H38	H	0.332549	0.097238	0.791855
	H39	H	0.660479	0.902584	0.792367
	H40	H	0.896931	0.214373	0.342388
	H41	H	0.094891	0.214101	0.668683
	H42	H	0.095015	0.784664	0.342147
	H43	H	0.895736	0.783066	0.668980
	H44	H	0.210915	0.334975	0.907256
	H45	H	0.210387	0.662323	0.101538
	H46	H	0.781871	0.335911	0.103442
	H47	H	0.783789	0.662533	0.908370
	H48	H	0.404362	0.113261	0.595481
	H49	H	0.579287	0.884787	0.603754
	H50	H	0.586558	0.113619	0.413815
	H51	H	0.401810	0.882184	0.409036
	H52	H	0.590171	0.411137	0.120519
	H53	H	0.585093	0.603976	0.886912
	H54	H	0.393470	0.589471	0.123562
	H55	H	0.408491	0.405518	0.890817
	H56	H	0.114037	0.599756	0.416595
	H57	H	0.880815	0.592041	0.596613
	H58	H	0.114390	0.401293	0.597193
	H59	H	0.883833	0.409410	0.422004
	H60	H	0.110953	0.408841	0.593754
	H61	H	0.880033	0.588964	0.599834
	H62	H	0.110485	0.585699	0.414087
	H63	H	0.879281	0.412667	0.403923
	H64	H	0.410588	0.584366	0.117429
	H65	H	0.601524	0.590576	0.886706
	H66	H	0.583639	0.404111	0.121457
	H67	H	0.402981	0.402057	0.888230
	H68	H	0.593175	0.115500	0.413837
	H69	H	0.590232	0.886158	0.589311
	H70	H	0.399635	0.116134	0.600337
	H71	H	0.406624	0.884111	0.412606
	H72	H	0.899724	0.614568	0.094148
	H73	H	0.094400	0.382728	0.091338
	H74	H	0.096137	0.618438	0.904806
	H75	H	0.902330	0.383815	0.915716
	H76	H	0.090426	0.910291	0.620943
	H77	H	0.087138	0.082619	0.392421
	H78	H	0.899362	0.099199	0.625078
	H79	H	0.905668	0.895602	0.386781
	H80	H	0.614276	0.094473	0.911335
	H81	H	0.378608	0.091917	0.101836
	H82	H	0.615809	0.902938	0.101033
	H83	H	0.378904	0.902635	0.914315
	H84	H	0.611754	0.905735	0.093527
	H85	H	0.379533	0.094447	0.096474
	H86	H	0.612669	0.092566	0.914450
	H87	H	0.379912	0.908020	0.913937
	H88	H	0.899634	0.084313	0.620293
	H89	H	0.081997	0.098357	0.390174
	H90	H	0.083418	0.903052	0.620518
	H91	H	0.894530	0.907471	0.387608
	H92	H	0.082373	0.612267	0.908693
	H93	H	0.093791	0.378980	0.106688
	H94	H	0.902512	0.617160	0.103652
	H95	H	0.901464	0.380743	0.909400
	H96	H	0.406260	0.114788	0.602637
	H97	H	0.596840	0.879980	0.604973
	H98	H	0.589177	0.116135	0.407925
	H99	H	0.401129	0.883494	0.415032
	H100	H	0.593391	0.402876	0.124161
	H101	H	0.582870	0.584341	0.894754
	H102	H	0.407453	0.601804	0.123871
	H103	H	0.402511	0.408675	0.889673
	H104	H	0.115817	0.593551	0.403060
	H105	H	0.879061	0.593113	0.600538
	H106	H	0.113642	0.408846	0.602102
	H107	H	0.876231	0.395573	0.410677
	H108	H	0.909668	0.612780	0.097563
	H109	H	0.080733	0.385318	0.099187
	H110	H	0.093443	0.613129	0.919439
	H111	H	0.907460	0.384064	0.911807
	H112	H	0.092703	0.901475	0.623984
	H113	H	0.097653	0.094411	0.387035
	H114	H	0.912518	0.093166	0.618766
	H115	H	0.909614	0.910308	0.393186
	H116	H	0.612853	0.090705	0.911011
	H117	H	0.380807	0.088793	0.096927
	H118	H	0.612510	0.910878	0.099858
	H119	H	0.378636	0.905154	0.909907
	C120	C	0.374489	0.007074	0.627752
	C121	C	0.617837	0.991119	0.627344
	C122	C	0.617958	0.007301	0.383395
	C123	C	0.374594	0.990908	0.384010
	C124	C	0.618018	0.377439	0.014127
	C125	C	0.618381	0.621367	0.997319
	C126	C	0.375300	0.620126	0.013727
	C127	C	0.374795	0.376807	0.997301
	C128	C	0.004827	0.620694	0.383460
	C129	C	0.988414	0.620002	0.626751
	C130	C	0.004285	0.377714	0.626333
	C131	C	0.988230	0.377513	0.383435
	C132	C	0.875354	0.507322	0.127061
	C133	C	0.118005	0.490528	0.126841
	C134	C	0.119277	0.506619	0.882707
	C135	C	0.875387	0.490695	0.883824
	C136	C	0.117548	0.877136	0.513617
	C137	C	0.118034	0.120568	0.497556
	C138	C	0.874944	0.120572	0.513658
	C139	C	0.874230	0.876434	0.497289
	C140	C	0.504775	0.120743	0.884258
	C141	C	0.487807	0.120327	0.127027
	C142	C	0.504788	0.877702	0.126851
	C143	C	0.487926	0.877737	0.884116
	C144	C	0.376686	0.884335	0.682869
	C145	C	0.616069	0.113763	0.682288
	C146	C	0.614909	0.884699	0.328520
	C147	C	0.377432	0.113550	0.329113
	C148	C	0.672947	0.380687	0.890945
	C149	C	0.673025	0.617949	0.120336
	C150	C	0.320992	0.616708	0.890403
	C151	C	0.319777	0.379770	0.120401
	C152	C	0.881363	0.674823	0.385997
	C153	C	0.111588	0.675545	0.623641
	C154	C	0.881077	0.322378	0.624262
	C155	C	0.111495	0.322162	0.385583
	C156	C	0.881332	0.379501	0.682393
	C157	C	0.112088	0.617765	0.681031
	C158	C	0.881389	0.617449	0.328296
	C159	C	0.111826	0.380478	0.328754
	C160	C	0.377747	0.675340	0.890918
	C161	C	0.616356	0.676870	0.120025
	C162	C	0.616219	0.321906	0.891597
	C163	C	0.376734	0.321749	0.120217
	C164	C	0.672379	0.884558	0.386433
	C165	C	0.673207	0.113465	0.623885
	C166	C	0.319476	0.884084	0.624488
	C167	C	0.319687	0.113646	0.387121
	C168	C	0.877297	0.384490	0.182310
	C169	C	0.115532	0.613299	0.181580
	C170	C	0.115901	0.384039	0.828227
	C171	C	0.878718	0.613433	0.828955
	C172	C	0.172546	0.881080	0.390615
	C173	C	0.172470	0.117290	0.620868
	C174	C	0.820254	0.117371	0.390322
	C175	C	0.819307	0.880375	0.620280
	C176	C	0.381622	0.175635	0.886749
	C177	C	0.610962	0.176153	0.124997
	C178	C	0.381542	0.822000	0.124866
	C179	C	0.611445	0.823484	0.886418
	C180	C	0.381202	0.880220	0.181591
	C181	C	0.611445	0.117824	0.181504
	C182	C	0.381396	0.117903	0.829492
	C183	C	0.611427	0.881491	0.829506
	C184	C	0.876658	0.176203	0.390845
	C185	C	0.115647	0.175996	0.620317
	C186	C	0.115167	0.822859	0.390677
	C187	C	0.876156	0.821664	0.620261
	C188	C	0.173344	0.383860	0.886364
	C189	C	0.172634	0.613687	0.123013
	C190	C	0.819976	0.384343	0.124307
	C191	C	0.820961	0.613651	0.886987
	C192	C	0.396681	0.092565	0.605838
	C193	C	0.595371	0.905756	0.605638
	C194	C	0.595881	0.093141	0.405372
	C195	C	0.396727	0.905211	0.405843
	C196	C	0.595656	0.399478	0.099968
	C197	C	0.596269	0.599328	0.911511
	C198	C	0.397249	0.598287	0.099401
	C199	C	0.397701	0.398972	0.911829
	C200	C	0.091083	0.599259	0.404976
	C201	C	0.902130	0.597796	0.605302
	C202	C	0.090573	0.399840	0.604048
	C203	C	0.902030	0.399359	0.405663
	C204	C	0.897480	0.592724	0.105047
	C205	C	0.096207	0.404725	0.105329
	C206	C	0.097330	0.592492	0.904496
	C207	C	0.897484	0.405056	0.905656
	C208	C	0.095360	0.898659	0.599719
	C209	C	0.095467	0.098311	0.411886
	C210	C	0.897305	0.098576	0.599298
	C211	C	0.896751	0.898029	0.411379
	C212	C	0.590968	0.099009	0.905875
	C213	C	0.401956	0.098136	0.104941
	C214	C	0.591045	0.899955	0.104611
	C215	C	0.401434	0.899121	0.906082
	Zn216	Zn	0.496221	-0.000733	0.756340
	Zn217	Zn	0.496121	-0.000667	0.254839
	Zn218	Zn	0.746492	0.498954	0.005524
	Zn219	Zn	0.246679	0.498594	0.005605
	Zn220	Zn	-0.003850	0.748198	0.505771
	Zn221	Zn	-0.003729	0.249164	0.505052
	Zn222	Zn	-0.002980	0.498559	0.754828
	Zn223	Zn	-0.003590	0.498674	0.255822
	Zn224	Zn	0.496479	0.749727	0.005639
	Zn225	Zn	0.496442	0.248934	0.005644
	Zn226	Zn	0.746757	-0.000961	0.505237
	Zn227	Zn	0.246290	-0.000884	0.505712
	N228	N	0.410287	0.961675	0.685093
	N229	N	0.582083	0.036556	0.684449
	N230	N	0.581703	0.962034	0.326650
	N231	N	0.410508	0.036179	0.326875
	N232	N	0.674153	0.414511	0.968219
	N233	N	0.674190	0.583955	0.043144
	N234	N	0.319254	0.583058	0.967676
	N235	N	0.318518	0.413293	0.043078
	N236	N	0.958948	0.676890	0.419771
	N237	N	0.033801	0.676880	0.590822
	N238	N	0.958601	0.321341	0.590158
	N239	N	0.033476	0.320244	0.418930
	N240	N	0.958944	0.413390	0.683593
	N241	N	0.034415	0.583765	0.683017
	N242	N	0.959252	0.584481	0.326495
	N243	N	0.034382	0.414303	0.327626
	N244	N	0.410850	0.677636	0.968594
	N245	N	0.583082	0.679038	0.042416
	N246	N	0.582677	0.320072	0.969120
	N247	N	0.410418	0.319756	0.042722
	N248	N	0.674387	0.961916	0.419928
	N249	N	0.674234	0.036423	0.590401
	N250	N	0.318265	0.961254	0.590828
	N251	N	0.318237	0.036542	0.420746
	N252	N	0.911276	0.461705	0.183883
	N253	N	0.082388	0.535685	0.184058
	N254	N	0.083243	0.461570	0.825622
	N255	N	0.911687	0.535964	0.826735
	N256	N	0.174030	0.914197	0.468152
	N257	N	0.173945	0.083645	0.543506
	N258	N	0.819109	0.083538	0.467667
	N259	N	0.818110	0.913726	0.542861
	N260	N	0.459310	0.177390	0.919929
	N261	N	0.533163	0.177732	0.091605
	N262	N	0.459331	0.820561	0.091424
	N263	N	0.533601	0.821121	0.919572
	N264	N	0.458847	0.914069	0.182959
	N265	N	0.533987	0.083886	0.182898
	N266	N	0.459039	0.084309	0.827777
	N267	N	0.533433	0.914610	0.827990
	N268	N	0.910007	0.178256	0.468313
	N269	N	0.082546	0.178262	0.542707
	N270	N	0.081659	0.820320	0.468266
	N271	N	0.909656	0.819153	0.542683
	N272	N	0.175344	0.461213	0.919481
	N273	N	0.174156	0.536419	0.089687
	N274	N	0.818568	0.461495	0.090601
	N275	N	0.818863	0.536362	0.920301
	O276	O	0.532519	0.556834	0.564528
	H277	H	0.530724	0.553456	0.565633
	H278	H	0.537291	0.564021	0.558930
	O279	O	0.508457	0.506053	0.594716
	H280	H	0.499548	0.509407	0.595339
	H281	H	0.510348	0.503765	0.593793
	O282	O	1.510394	0.514341	-0.405634
	H283	H	1.513724	0.514657	-0.407369
	H284	H	1.517560	0.524867	-0.403958
	O285	O	0.496271	0.530172	0.568149
	H286	H	0.494411	0.522248	0.574197
	H287	H	0.495193	0.526778	0.574052
