data_Molecule from HDF5

_cell_length_a		16.331593
_cell_length_b		16.232579
_cell_length_c		16.367808
_cell_angle_alpha	90.008390
_cell_angle_beta	89.876134
_cell_angle_gamma	89.928342
_symmetry_space_group_name_H-M	'P 1'
_symmetry_Int_Tables_number		1

loop_
	_symmetry_equiv_pos_as_xyz
	x,y,z

loop_
	_atom_site_label
	_atom_site_type_symbol
	_atom_site_fract_x
	_atom_site_fract_y
	_atom_site_fract_z
	H0	H	0.400038	0.836093	0.715076
	H1	H	0.598474	0.163489	0.714756
	H2	H	0.597104	0.836384	0.286686
	H3	H	0.401272	0.164172	0.285922
	H4	H	0.716939	0.400127	0.837708
	H5	H	0.714538	0.599296	0.163079
	H6	H	0.286841	0.598148	0.836971
	H7	H	0.284810	0.400407	0.162375
	H8	H	0.836252	0.712780	0.403830
	H9	H	0.164094	0.712435	0.595438
	H10	H	0.835356	0.287784	0.595863
	H11	H	0.163917	0.286240	0.402511
	H12	H	0.837012	0.401726	0.715009
	H13	H	0.163122	0.598547	0.715211
	H14	H	0.836835	0.597240	0.286176
	H15	H	0.163053	0.399844	0.283585
	H16	H	0.403726	0.713412	0.836682
	H17	H	0.596624	0.714462	0.163279
	H18	H	0.598506	0.286069	0.836778
	H19	H	0.404370	0.287129	0.163240
	H20	H	0.713566	0.836299	0.401908
	H21	H	0.712562	0.163996	0.597131
	H22	H	0.285400	0.836403	0.598716
	H23	H	0.286211	0.164319	0.403359
	H24	H	0.900756	0.336572	0.215425
	H25	H	0.098413	0.664202	0.213602
	H26	H	0.099452	0.335572	0.785975
	H27	H	0.901645	0.663320	0.785650
	H28	H	0.214654	0.901980	0.337648
	H29	H	0.215848	0.099584	0.662341
	H30	H	0.785245	0.098934	0.337632
	H31	H	0.784372	0.900614	0.662781
	H32	H	0.336388	0.213519	0.904150
	H33	H	0.664293	0.213027	0.096501
	H34	H	0.335206	0.787709	0.096539
	H35	H	0.663339	0.786790	0.903477
	H36	H	0.336216	0.902094	0.215124
	H37	H	0.663353	0.098422	0.214378
	H38	H	0.337002	0.100439	0.784068
	H39	H	0.662407	0.900476	0.784013
	H40	H	0.903100	0.214314	0.336685
	H41	H	0.096779	0.213358	0.663056
	H42	H	0.096695	0.786788	0.336635
	H43	H	0.902840	0.786365	0.663742
	H44	H	0.214707	0.335814	0.902225
	H45	H	0.213252	0.664573	0.096849
	H46	H	0.785658	0.336257	0.098878
	H47	H	0.787086	0.664170	0.902046
	H48	H	0.396067	0.120048	0.594318
	H49	H	0.590053	0.884304	0.590056
	H50	H	0.596165	0.118384	0.405921
	H51	H	0.410834	0.883938	0.407482
	H52	H	0.593297	0.410596	0.114587
	H53	H	0.589455	0.599334	0.883938
	H54	H	0.405707	0.605659	0.119228
	H55	H	0.402831	0.397226	0.879784
	H56	H	0.118079	0.586033	0.394050
	H57	H	0.887684	0.586577	0.588124
	H58	H	0.115928	0.402946	0.589935
	H59	H	0.884190	0.401522	0.410548
	H60	H	0.113500	0.411908	0.592678
	H61	H	0.882128	0.590611	0.603503
	H62	H	0.120202	0.606202	0.405928
	H63	H	0.887274	0.414416	0.410072
	H64	H	0.394393	0.586777	0.117492
	H65	H	0.602034	0.593341	0.881836
	H66	H	0.590711	0.403842	0.116096
	H67	H	0.399924	0.416016	0.884640
	H68	H	0.589711	0.117246	0.404157
	H69	H	0.596768	0.881677	0.591790
	H70	H	0.415113	0.116885	0.602063
	H71	H	0.402585	0.882359	0.409226
	H72	H	0.911920	0.616287	0.095760
	H73	H	0.105833	0.382069	0.084500
	H74	H	0.093965	0.614948	0.913013
	H75	H	0.908709	0.382106	0.905667
	H76	H	0.090089	0.910149	0.614409
	H77	H	0.093383	0.090012	0.384877
	H78	H	0.898688	0.088659	0.616674
	H79	H	0.903331	0.910674	0.384732
	H80	H	0.616649	0.094182	0.903455
	H81	H	0.381357	0.099158	0.096849
	H82	H	0.613233	0.905799	0.082823
	H83	H	0.385687	0.916478	0.903271
	H84	H	0.614304	0.916545	0.100503
	H85	H	0.385754	0.093677	0.087811
	H86	H	0.615696	0.093638	0.908731
	H87	H	0.380365	0.900852	0.900603
	H88	H	0.912707	0.090184	0.613403
	H89	H	0.091861	0.095657	0.384011
	H90	H	0.091833	0.902651	0.616899
	H91	H	0.910595	0.905116	0.385926
	H92	H	0.098915	0.618815	0.903380
	H93	H	0.092303	0.379356	0.106083
	H94	H	0.906932	0.615143	0.087831
	H95	H	0.908580	0.383708	0.908669
	H96	H	0.410761	0.112444	0.582303
	H97	H	0.591529	0.882347	0.597190
	H98	H	0.592152	0.116697	0.410236
	H99	H	0.405584	0.881383	0.401176
	H100	H	0.597744	0.405915	0.117121
	H101	H	0.591511	0.585727	0.887222
	H102	H	0.415692	0.587992	0.111913
	H103	H	0.417162	0.407788	0.887073
	H104	H	0.111825	0.587320	0.416622
	H105	H	0.882017	0.602385	0.591839
	H106	H	0.118772	0.405790	0.598928
	H107	H	0.882606	0.408398	0.399480
	H108	H	0.903260	0.618969	0.095631
	H109	H	0.080732	0.389575	0.085094
	H110	H	0.087837	0.615389	0.903453
	H111	H	0.905808	0.382518	0.907510
	H112	H	0.097321	0.908299	0.617275
	H113	H	0.096890	0.093712	0.382670
	H114	H	0.905138	0.101803	0.618378
	H115	H	0.903628	0.901517	0.382023
	H116	H	0.614953	0.089686	0.905261
	H117	H	0.385006	0.087935	0.098087
	H118	H	0.620647	0.896483	0.100345
	H119	H	0.385316	0.905569	0.916126
	C120	C	0.378550	0.008090	0.621276
	C121	C	0.620842	0.991315	0.621053
	C122	C	0.621287	0.008752	0.378830
	C123	C	0.378460	0.991582	0.378531
	C124	C	0.622397	0.378360	0.008153
	C125	C	0.621860	0.621339	0.992232
	C126	C	0.378144	0.621702	0.008498
	C127	C	0.378296	0.378078	0.991494
	C128	C	0.008655	0.621394	0.377767
	C129	C	0.991577	0.621443	0.622283
	C130	C	0.008048	0.378254	0.622101
	C131	C	0.992369	0.378623	0.377923
	C132	C	0.878357	0.508621	0.121890
	C133	C	0.121496	0.491701	0.120744
	C134	C	0.122028	0.508295	0.878316
	C135	C	0.879358	0.491486	0.879102
	C136	C	0.121453	0.878339	0.508392
	C137	C	0.121388	0.121256	0.491592
	C138	C	0.877691	0.121915	0.508305
	C139	C	0.877785	0.877825	0.492052
	C140	C	0.508269	0.121373	0.878060
	C141	C	0.492154	0.121726	0.121831
	C142	C	0.507612	0.878352	0.121983
	C143	C	0.491371	0.878834	0.878469
	C144	C	0.379983	0.885090	0.676934
	C145	C	0.618429	0.114690	0.676398
	C146	C	0.618097	0.885110	0.324390
	C147	C	0.381227	0.115247	0.323876
	C148	C	0.677939	0.380553	0.885850
	C149	C	0.676498	0.619198	0.114595
	C150	C	0.324371	0.618782	0.885447
	C151	C	0.323198	0.380535	0.113877
	C152	C	0.885232	0.675250	0.382260
	C153	C	0.115171	0.675333	0.617417
	C154	C	0.884854	0.324336	0.618002
	C155	C	0.114944	0.323259	0.380759
	C156	C	0.885323	0.381121	0.676925
	C157	C	0.114716	0.618784	0.676678
	C158	C	0.885436	0.618473	0.323369
	C159	C	0.114609	0.380034	0.322054
	C160	C	0.382416	0.675945	0.885326
	C161	C	0.618016	0.676246	0.114785
	C162	C	0.619487	0.323614	0.885508
	C163	C	0.382463	0.324109	0.114320
	C164	C	0.675820	0.885239	0.381609
	C165	C	0.675233	0.115015	0.618152
	C166	C	0.323067	0.885072	0.619136
	C167	C	0.324118	0.115455	0.382114
	C168	C	0.880651	0.385410	0.177119
	C169	C	0.118664	0.615101	0.175559
	C170	C	0.119655	0.384541	0.823849
	C171	C	0.881763	0.614709	0.823873
	C172	C	0.176729	0.880976	0.385987
	C173	C	0.176678	0.119234	0.614158
	C174	C	0.822853	0.119455	0.385977
	C175	C	0.822805	0.880650	0.614400
	C176	C	0.385142	0.176660	0.882018
	C177	C	0.615115	0.176094	0.118013
	C178	C	0.384220	0.825087	0.117725
	C179	C	0.614516	0.824135	0.881962
	C180	C	0.384549	0.881902	0.176603
	C181	C	0.614874	0.119110	0.176566
	C182	C	0.385434	0.120361	0.822779
	C183	C	0.613934	0.880612	0.822775
	C184	C	0.881306	0.176724	0.385681
	C185	C	0.117839	0.175928	0.614533
	C186	C	0.117823	0.824102	0.385588
	C187	C	0.881452	0.823615	0.614868
	C188	C	0.177113	0.384736	0.881448
	C189	C	0.176080	0.615280	0.117953
	C190	C	0.823597	0.385235	0.119042
	C191	C	0.824746	0.615065	0.881651
	C192	C	0.400733	0.094391	0.599299
	C193	C	0.599287	0.905011	0.599431
	C194	C	0.599214	0.095188	0.400407
	C195	C	0.399930	0.904983	0.399609
	C196	C	0.600413	0.400184	0.093801
	C197	C	0.600521	0.599484	0.906406
	C198	C	0.399047	0.600056	0.094127
	C199	C	0.400203	0.400463	0.905907
	C200	C	0.094473	0.599596	0.399098
	C201	C	0.906046	0.599591	0.600893
	C202	C	0.094014	0.400537	0.600360
	C203	C	0.906658	0.401316	0.400111
	C204	C	0.900829	0.594895	0.099596
	C205	C	0.099425	0.405719	0.098489
	C206	C	0.100192	0.594178	0.900122
	C207	C	0.901495	0.405040	0.900804
	C208	C	0.099483	0.900480	0.594146
	C209	C	0.100309	0.099534	0.406125
	C210	C	0.899151	0.100097	0.594113
	C211	C	0.899435	0.899569	0.405999
	C212	C	0.593516	0.098953	0.899538
	C213	C	0.406220	0.099980	0.100531
	C214	C	0.593963	0.899872	0.100709
	C215	C	0.405897	0.901184	0.900194
	Zn216	Zn	0.499385	-0.000085	0.749253
	Zn217	Zn	0.500045	0.000237	0.250651
	Zn218	Zn	0.750927	0.500039	-0.000069
	Zn219	Zn	0.249898	0.500433	-0.000463
	Zn220	Zn	-0.000014	0.749448	0.500351
	Zn221	Zn	-0.000024	0.250255	0.500069
	Zn222	Zn	0.000213	0.499676	0.750862
	Zn223	Zn	0.000583	0.499914	0.248905
	Zn224	Zn	0.499517	0.749950	0.000200
	Zn225	Zn	0.500502	0.250233	-0.000459
	Zn226	Zn	0.749116	0.000177	0.500250
	Zn227	Zn	0.250566	-0.000021	0.500092
	N228	N	0.413849	0.962624	0.678276
	N229	N	0.585047	0.036842	0.678158
	N230	N	0.584720	0.962842	0.322629
	N231	N	0.414249	0.037173	0.321525
	N232	N	0.679867	0.413930	0.963086
	N233	N	0.678717	0.585545	0.037368
	N234	N	0.321689	0.585611	0.962813
	N235	N	0.320392	0.413375	0.036365
	N236	N	0.962534	0.677430	0.415238
	N237	N	0.037845	0.676974	0.584347
	N238	N	0.962207	0.322758	0.584526
	N239	N	0.037910	0.322328	0.414965
	N240	N	0.963036	0.413748	0.679705
	N241	N	0.037009	0.586193	0.679888
	N242	N	0.963240	0.585755	0.320542
	N243	N	0.037220	0.413511	0.320147
	N244	N	0.415176	0.677868	0.962682
	N245	N	0.584765	0.677793	0.037697
	N246	N	0.585584	0.322241	0.962536
	N247	N	0.415892	0.322671	0.037184
	N248	N	0.677672	0.963155	0.414880
	N249	N	0.676714	0.037357	0.584568
	N250	N	0.322109	0.962626	0.585124
	N251	N	0.322472	0.037746	0.415539
	N252	N	0.914455	0.462944	0.178429
	N253	N	0.085445	0.537169	0.177336
	N254	N	0.086014	0.462260	0.821856
	N255	N	0.915189	0.536866	0.822561
	N256	N	0.179026	0.914088	0.463390
	N257	N	0.178977	0.085876	0.536927
	N258	N	0.820766	0.085825	0.463218
	N259	N	0.820453	0.913446	0.536928
	N260	N	0.462261	0.177262	0.915796
	N261	N	0.537770	0.178067	0.084927
	N262	N	0.461753	0.822773	0.084660
	N263	N	0.537332	0.822701	0.915730
	N264	N	0.462465	0.914299	0.179379
	N265	N	0.537289	0.086099	0.179032
	N266	N	0.462803	0.086903	0.819804
	N267	N	0.536472	0.913859	0.820494
	N268	N	0.914651	0.178299	0.462737
	N269	N	0.084008	0.177089	0.537621
	N270	N	0.084392	0.822445	0.462752
	N271	N	0.914925	0.821720	0.537702
	N272	N	0.178563	0.462464	0.914908
	N273	N	0.177782	0.537604	0.084422
	N274	N	0.822311	0.462920	0.085265
	N275	N	0.823239	0.537496	0.915424
