data_Molecule from HDF5

_cell_length_a		16.299867
_cell_length_b		16.281363
_cell_length_c		16.198483
_cell_angle_alpha	90.334894
_cell_angle_beta	90.126038
_cell_angle_gamma	90.347164
_symmetry_space_group_name_H-M	'P 1'
_symmetry_Int_Tables_number		1

loop_
	_symmetry_equiv_pos_as_xyz
	x,y,z

loop_
	_atom_site_label
	_atom_site_type_symbol
	_atom_site_fract_x
	_atom_site_fract_y
	_atom_site_fract_z
	H0	H	0.400594	0.834268	0.718879
	H1	H	0.596734	0.163400	0.722211
	H2	H	0.595674	0.836145	0.289238
	H3	H	0.398241	0.162368	0.292849
	H4	H	0.710527	0.401399	0.841651
	H5	H	0.714937	0.600595	0.170502
	H6	H	0.283783	0.599355	0.843676
	H7	H	0.282101	0.398994	0.170150
	H8	H	0.833138	0.709623	0.409354
	H9	H	0.159437	0.715500	0.607721
	H10	H	0.834584	0.281954	0.605722
	H11	H	0.160171	0.280997	0.405249
	H12	H	0.833700	0.399779	0.720470
	H13	H	0.160334	0.598829	0.722603
	H14	H	0.833885	0.593874	0.293376
	H15	H	0.160419	0.397805	0.290419
	H16	H	0.401028	0.711377	0.842524
	H17	H	0.599834	0.717060	0.170347
	H18	H	0.596566	0.284284	0.842708
	H19	H	0.398412	0.284799	0.170270
	H20	H	0.709446	0.834172	0.406937
	H21	H	0.715734	0.161103	0.608123
	H22	H	0.282592	0.834403	0.604615
	H23	H	0.280857	0.160748	0.406548
	H24	H	0.897433	0.335252	0.220850
	H25	H	0.098476	0.661841	0.223909
	H26	H	0.096166	0.335733	0.790406
	H27	H	0.898793	0.661864	0.792847
	H28	H	0.212279	0.895555	0.343332
	H29	H	0.214471	0.099458	0.670578
	H30	H	0.782001	0.094561	0.342785
	H31	H	0.781642	0.898424	0.671073
	H32	H	0.335489	0.215285	0.904496
	H33	H	0.660996	0.216814	0.108431
	H34	H	0.336425	0.781108	0.106362
	H35	H	0.661315	0.783716	0.905873
	H36	H	0.334249	0.899608	0.220015
	H37	H	0.660604	0.100882	0.223760
	H38	H	0.334345	0.096829	0.791831
	H39	H	0.662733	0.903659	0.794265
	H40	H	0.895400	0.212318	0.343475
	H41	H	0.099389	0.215338	0.670456
	H42	H	0.094255	0.782047	0.342946
	H43	H	0.897427	0.783298	0.671751
	H44	H	0.214698	0.336875	0.903706
	H45	H	0.215624	0.661856	0.109241
	H46	H	0.780015	0.336517	0.107159
	H47	H	0.783570	0.661137	0.907392
	H48	H	0.402068	0.116860	0.602440
	H49	H	0.591972	0.881500	0.601372
	H50	H	0.591537	0.113494	0.420872
	H51	H	0.405347	0.882656	0.414413
	H52	H	0.593355	0.411860	0.123969
	H53	H	0.594878	0.588382	0.889893
	H54	H	0.401294	0.585813	0.124213
	H55	H	0.407828	0.401401	0.888277
	H56	H	0.113463	0.596219	0.422633
	H57	H	0.881328	0.594293	0.591644
	H58	H	0.113059	0.401898	0.593147
	H59	H	0.881688	0.403095	0.414548
	H60	H	0.111532	0.413550	0.598488
	H61	H	0.883141	0.581870	0.602458
	H62	H	0.111454	0.583040	0.416552
	H63	H	0.882123	0.404849	0.414498
	H64	H	0.415300	0.589103	0.120593
	H65	H	0.587942	0.591805	0.891267
	H66	H	0.586447	0.410538	0.121281
	H67	H	0.400045	0.408984	0.889158
	H68	H	0.593218	0.115929	0.414802
	H69	H	0.588743	0.882366	0.601424
	H70	H	0.409588	0.113474	0.600415
	H71	H	0.402804	0.881397	0.412783
	H72	H	0.902551	0.616953	0.103084
	H73	H	0.086179	0.386660	0.089447
	H74	H	0.085244	0.612195	0.916949
	H75	H	0.898360	0.381178	0.915140
	H76	H	0.088279	0.908866	0.622429
	H77	H	0.091014	0.083628	0.391024
	H78	H	0.909681	0.086749	0.621958
	H79	H	0.909911	0.898025	0.390166
	H80	H	0.613097	0.093749	0.919997
	H81	H	0.382204	0.088510	0.100864
	H82	H	0.614559	0.910998	0.102693
	H83	H	0.381613	0.904277	0.913315
	H84	H	0.614671	0.904244	0.096936
	H85	H	0.380385	0.096245	0.101431
	H86	H	0.612588	0.087918	0.913948
	H87	H	0.381650	0.904060	0.913367
	H88	H	0.907183	0.093242	0.624508
	H89	H	0.084260	0.089385	0.392372
	H90	H	0.088566	0.904762	0.624699
	H91	H	0.895514	0.898665	0.386914
	H92	H	0.096005	0.615421	0.920717
	H93	H	0.097010	0.380813	0.097733
	H94	H	0.911536	0.614537	0.102294
	H95	H	0.906253	0.381160	0.907963
	H96	H	0.403706	0.113293	0.594654
	H97	H	0.589857	0.883120	0.598734
	H98	H	0.587277	0.114018	0.415670
	H99	H	0.405012	0.882386	0.411825
	H100	H	0.590509	0.404988	0.124248
	H101	H	0.594129	0.596058	0.887553
	H102	H	0.406548	0.599594	0.127182
	H103	H	0.410600	0.411055	0.892375
	H104	H	0.116628	0.593726	0.408727
	H105	H	0.876307	0.596541	0.607239
	H106	H	0.116384	0.403389	0.605522
	H107	H	0.881538	0.404108	0.413764
	H108	H	0.905704	0.613479	0.094928
	H109	H	0.084436	0.382698	0.103788
	H110	H	0.093397	0.617110	0.909958
	H111	H	0.908783	0.383920	0.918039
	H112	H	0.092800	0.908004	0.623929
	H113	H	0.091753	0.092374	0.388778
	H114	H	0.902471	0.087546	0.623260
	H115	H	0.902283	0.910224	0.392540
	H116	H	0.615668	0.095429	0.911954
	H117	H	0.383269	0.093031	0.094698
	H118	H	0.611234	0.912402	0.093552
	H119	H	0.382439	0.904289	0.914079
	C120	C	0.376299	0.006475	0.627943
	C121	C	0.619802	0.990200	0.629648
	C122	C	0.618539	0.006649	0.386395
	C123	C	0.375360	0.990172	0.384366
	C124	C	0.619292	0.379145	0.015103
	C125	C	0.621552	0.622019	0.997909
	C126	C	0.378208	0.620141	0.015512
	C127	C	0.376460	0.377601	0.997968
	C128	C	0.005663	0.618744	0.386891
	C129	C	0.988032	0.620785	0.629683
	C130	C	0.005899	0.376704	0.628142
	C131	C	0.989250	0.375024	0.384496
	C132	C	0.876534	0.507207	0.128542
	C133	C	0.120000	0.490439	0.128395
	C134	C	0.120190	0.507361	0.885127
	C135	C	0.876412	0.490100	0.885170
	C136	C	0.118194	0.876782	0.515430
	C137	C	0.119489	0.119371	0.498527
	C138	C	0.876380	0.117897	0.515215
	C139	C	0.874294	0.874630	0.498516
	C140	C	0.506258	0.120873	0.885390
	C141	C	0.489443	0.122251	0.129295
	C142	C	0.506422	0.878542	0.127257
	C143	C	0.490115	0.876633	0.884815
	C144	C	0.379549	0.883305	0.681937
	C145	C	0.617483	0.113946	0.684738
	C146	C	0.615742	0.884486	0.328322
	C147	C	0.377679	0.113037	0.329826
	C148	C	0.673848	0.380430	0.891081
	C149	C	0.677160	0.620801	0.121533
	C150	C	0.322089	0.618508	0.892426
	C151	C	0.320227	0.379119	0.121072
	C152	C	0.882281	0.672382	0.389025
	C153	C	0.110858	0.677169	0.627974
	C154	C	0.883166	0.320466	0.626021
	C155	C	0.111378	0.318860	0.385354
	C156	C	0.882846	0.379024	0.683062
	C157	C	0.111355	0.619187	0.684836
	C158	C	0.882645	0.614825	0.331228
	C159	C	0.111521	0.376849	0.327951
	C160	C	0.380698	0.674415	0.891731
	C161	C	0.619873	0.678493	0.121535
	C162	C	0.616847	0.322764	0.891513
	C163	C	0.377818	0.322087	0.121043
	C164	C	0.672449	0.883393	0.386669
	C165	C	0.676686	0.112887	0.628097
	C166	C	0.320787	0.883328	0.625134
	C167	C	0.319105	0.112220	0.386369
	C168	C	0.877716	0.384250	0.183237
	C169	C	0.118806	0.612870	0.185679
	C170	C	0.117387	0.384860	0.828095
	C171	C	0.878630	0.612747	0.830197
	C172	C	0.173891	0.876590	0.392272
	C173	C	0.176205	0.119127	0.621607
	C174	C	0.819612	0.115876	0.392265
	C175	C	0.819433	0.877752	0.622113
	C176	C	0.383730	0.176340	0.885966
	C177	C	0.612169	0.178662	0.128030
	C178	C	0.384526	0.820651	0.126010
	C179	C	0.612726	0.821923	0.886125
	C180	C	0.383645	0.879547	0.182552
	C181	C	0.612024	0.120730	0.185357
	C182	C	0.383177	0.117552	0.829797
	C183	C	0.613188	0.881413	0.830535
	C184	C	0.876285	0.174174	0.392505
	C185	C	0.118839	0.176613	0.621563
	C186	C	0.115368	0.819856	0.392196
	C187	C	0.877018	0.820621	0.622524
	C188	C	0.176320	0.385387	0.884456
	C189	C	0.177371	0.612820	0.128831
	C190	C	0.819011	0.385004	0.126749
	C191	C	0.821344	0.612570	0.887312
	C192	C	0.398547	0.092434	0.605731
	C193	C	0.596921	0.904400	0.607026
	C194	C	0.597050	0.092350	0.410324
	C195	C	0.397703	0.904277	0.406471
	C196	C	0.596968	0.402308	0.100937
	C197	C	0.599016	0.598802	0.911910
	C198	C	0.400896	0.597885	0.101684
	C199	C	0.399353	0.400349	0.912198
	C200	C	0.091609	0.597312	0.409519
	C201	C	0.902358	0.597775	0.606922
	C202	C	0.091429	0.399488	0.605479
	C203	C	0.903860	0.397407	0.407621
	C204	C	0.899879	0.592937	0.106561
	C205	C	0.096243	0.405280	0.104113
	C206	C	0.098094	0.592754	0.908947
	C207	C	0.898004	0.404362	0.907278
	C208	C	0.096148	0.900317	0.601413
	C209	C	0.095738	0.095405	0.413005
	C210	C	0.899658	0.095613	0.600965
	C211	C	0.896116	0.895982	0.412270
	C212	C	0.591517	0.098899	0.908723
	C213	C	0.404178	0.099369	0.105700
	C214	C	0.591591	0.902320	0.104332
	C215	C	0.404154	0.897811	0.907013
	Zn216	Zn	0.497377	-0.001130	0.757533
	Zn217	Zn	0.497736	-0.000624	0.256882
	Zn218	Zn	0.748169	0.499015	0.006283
	Zn219	Zn	0.249108	0.499389	0.006812
	Zn220	Zn	-0.003598	0.748351	0.507781
	Zn221	Zn	-0.002311	0.247020	0.506693
	Zn222	Zn	-0.002596	0.499041	0.757166
	Zn223	Zn	-0.001857	0.498316	0.256983
	Zn224	Zn	0.499458	0.748537	0.006591
	Zn225	Zn	0.498251	0.250144	0.006464
	Zn226	Zn	0.747655	-0.002849	0.507219
	Zn227	Zn	0.247140	-0.001938	0.506584
	N228	N	0.413117	0.961046	0.683982
	N229	N	0.582965	0.036744	0.685809
	N230	N	0.583262	0.962146	0.327846
	N231	N	0.411767	0.035906	0.328493
	N232	N	0.675357	0.414805	0.968801
	N233	N	0.678477	0.586489	0.043712
	N234	N	0.320773	0.585199	0.970347
	N235	N	0.319268	0.412862	0.043446
	N236	N	0.959881	0.674941	0.422692
	N237	N	0.033237	0.678349	0.594620
	N238	N	0.960671	0.318888	0.592590
	N239	N	0.034344	0.317668	0.419718
	N240	N	0.960289	0.413185	0.684571
	N241	N	0.034048	0.584890	0.685984
	N242	N	0.960287	0.582155	0.329967
	N243	N	0.034461	0.410817	0.327044
	N244	N	0.414918	0.675482	0.969384
	N245	N	0.586234	0.679489	0.043648
	N246	N	0.583653	0.321651	0.969584
	N247	N	0.412106	0.321053	0.043531
	N248	N	0.674574	0.960475	0.421980
	N249	N	0.678300	0.034908	0.594781
	N250	N	0.318657	0.961052	0.592373
	N251	N	0.317395	0.034586	0.419366
	N252	N	0.912622	0.461318	0.184417
	N253	N	0.083983	0.535674	0.185746
	N254	N	0.083277	0.461857	0.828399
	N255	N	0.912208	0.535595	0.828780
	N256	N	0.175694	0.911369	0.469861
	N257	N	0.176845	0.084437	0.544057
	N258	N	0.819794	0.081358	0.469568
	N259	N	0.817575	0.910580	0.544126
	N260	N	0.461173	0.178551	0.919899
	N261	N	0.534814	0.180027	0.093797
	N262	N	0.461852	0.819747	0.092515
	N263	N	0.535113	0.818725	0.919059
	N264	N	0.460501	0.914984	0.183212
	N265	N	0.534776	0.086778	0.186419
	N266	N	0.460207	0.083828	0.829253
	N267	N	0.535816	0.914726	0.829703
	N268	N	0.911228	0.175242	0.469798
	N269	N	0.084202	0.176900	0.543987
	N270	N	0.081350	0.819932	0.469859
	N271	N	0.910463	0.818662	0.544813
	N272	N	0.178210	0.462573	0.919278
	N273	N	0.178064	0.535698	0.093775
	N274	N	0.818009	0.462532	0.093556
	N275	N	0.819617	0.535113	0.920627
	O276	O	0.546513	0.478591	0.574471
	H277	H	0.540236	0.484458	0.577367
	H278	H	0.540948	0.480328	0.573668
	O279	O	0.527282	0.444624	0.555474
	H280	H	0.524980	0.449779	0.563158
	H281	H	0.532365	0.445495	0.558636
	O282	O	0.512194	0.411790	-0.559507
	H283	H	0.512437	0.401848	-0.566355
	H284	H	0.513990	0.414636	-0.569304
	O285	O	1.002115	0.007444	1.049931
	H286	H	1.002581	0.002190	1.049812
	H287	H	0.999806	0.008569	1.050771
	O288	O	0.593566	0.487672	0.445407
	H289	H	0.599286	0.485855	0.449781
	H290	H	0.586175	0.493830	0.444855
	O291	O	-0.078685	0.979943	0.158366
	H292	H	-0.075588	0.972167	0.159102
	H293	H	-0.079699	0.973020	0.169646
	O294	O	0.460573	0.582495	0.532177
	H295	H	0.449637	0.586038	0.538926
	H296	H	0.460535	0.581234	0.535141
	O297	O	-0.019946	0.145034	0.920709
	H298	H	-0.031205	0.144741	0.930950
	H299	H	-0.019789	0.158057	0.923840
	O300	O	0.477693	0.457128	0.470219
	H301	H	0.484405	0.459969	0.476476
	H302	H	0.473106	0.463241	0.470047
	O303	O	1.064019	0.945101	-0.099797
	H304	H	1.064783	0.957913	-0.099843
	H305	H	1.066645	0.946207	-0.106740
	O306	O	0.078449	1.042761	1.072292
	H307	H	0.080036	1.047638	1.067839
	H308	H	0.076406	1.036689	1.068998
	O309	O	0.520329	0.455929	0.489141
	H310	H	0.516966	0.453607	0.485435
	H311	H	0.517206	0.448123	0.486575
	O312	O	0.069316	0.006041	0.093312
	H313	H	0.073811	0.016024	0.099669
	H314	H	0.074532	0.000868	0.091672
	O315	O	0.969484	-0.048376	-0.031354
	H316	H	0.962009	-0.050387	-0.041800
	H317	H	0.966930	-0.057991	-0.018074
	O318	O	1.056159	0.991390	1.021266
	H319	H	1.063288	0.998549	1.029635
	H320	H	1.056793	0.992376	1.020125
	O321	O	0.051828	-0.058657	0.966860
	H322	H	0.059250	-0.041522	0.963292
	H323	H	0.051063	-0.061882	0.966423
	O324	O	1.050954	-0.079453	-0.063860
	H325	H	1.059198	-0.073213	-0.062826
	H326	H	1.032077	-0.075625	-0.068455
	O327	O	-0.015412	0.167375	0.051645
	H328	H	-0.030253	0.156206	0.050411
	H329	H	-0.017549	0.170343	0.053925
	O330	O	0.597461	0.485844	0.437116
	H331	H	0.603081	0.484698	0.451224
	H332	H	0.599010	0.481154	0.439066
	O333	O	0.097628	1.019819	1.043863
	H334	H	0.098556	1.031409	1.045036
	H335	H	0.102271	1.010979	1.056044
	O336	O	0.075029	0.040131	-0.032783
	H337	H	0.063175	0.050614	-0.037855
	H338	H	0.088636	0.029983	-0.041495
	O339	O	0.529722	0.546423	0.487943
	H340	H	0.531659	0.547222	0.476624
	H341	H	0.533870	0.548709	0.481177
	O342	O	1.407148	1.534877	1.485286
	H343	H	1.401375	1.540712	1.490571
	H344	H	1.409446	1.526819	1.485353
	O345	O	1.008008	0.935318	0.007805
	H346	H	1.006058	0.941906	0.029556
	H347	H	1.006654	0.938208	0.021228
	O348	O	0.470420	0.435100	0.530759
	H349	H	0.476152	0.435320	0.535316
	H350	H	0.474189	0.425290	0.516875
	O351	O	0.395988	0.501888	0.567578
	H352	H	0.389093	0.504938	0.558673
	H353	H	0.394650	0.505405	0.579435
	O354	O	0.535200	0.533016	0.484183
	H355	H	0.541411	0.535332	0.491985
	H356	H	0.537697	0.526468	0.483493
	O357	O	0.794413	-0.087833	0.057073
	H358	H	0.790393	-0.089668	0.058417
	H359	H	0.802901	-0.093767	0.045765
	O360	O	0.454374	0.511408	0.492225
	H361	H	0.455231	0.508257	0.497007
	H362	H	0.443403	0.512833	0.495269
	O363	O	0.519000	0.557906	0.571304
	H364	H	0.522194	0.561969	0.559081
	H365	H	0.515260	0.558668	0.563718
	O366	O	0.881422	0.943015	1.029004
	H367	H	0.885000	0.940613	1.020126
	H368	H	0.882158	0.935102	1.014740
	O369	O	0.856182	0.096219	0.941819
	H370	H	0.844587	0.099507	0.943925
	H371	H	0.861815	0.084392	0.931473
	O372	O	-0.073185	0.033409	0.061122
	H373	H	-0.060891	0.036854	0.076271
	H374	H	-0.080981	0.020834	0.055202
	O375	O	1.069642	-0.008781	0.075008
	H376	H	1.078411	-0.008444	0.070739
	H377	H	1.071391	-0.005921	0.082400
	O378	O	1.028576	0.920543	0.924380
	H379	H	1.045936	0.929159	0.919968
	H380	H	1.010396	0.930553	0.923793
	O381	O	0.420637	0.423557	0.563984
	H382	H	0.419308	0.413291	0.570700
	H383	H	0.427004	0.430394	0.565754
