data_Molecule from HDF5

_cell_length_a		16.139227
_cell_length_b		16.404522
_cell_length_c		16.209573
_cell_angle_alpha	89.774644
_cell_angle_beta	89.831677
_cell_angle_gamma	89.712035
_symmetry_space_group_name_H-M	'P 1'
_symmetry_Int_Tables_number		1

loop_
	_symmetry_equiv_pos_as_xyz
	x,y,z

loop_
	_atom_site_label
	_atom_site_type_symbol
	_atom_site_fract_x
	_atom_site_fract_y
	_atom_site_fract_z
	H0	H	0.403667	0.841091	0.723164
	H1	H	0.601247	0.165299	0.719014
	H2	H	0.604735	0.839523	0.290075
	H3	H	0.402325	0.163757	0.286901
	H4	H	0.717679	0.405025	0.838156
	H5	H	0.718038	0.599371	0.167844
	H6	H	0.292268	0.601747	0.839325
	H7	H	0.289595	0.404996	0.167576
	H8	H	0.840218	0.720275	0.401534
	H9	H	0.168135	0.716014	0.604277
	H10	H	0.839302	0.286781	0.605004
	H11	H	0.167365	0.283635	0.400500
	H12	H	0.839756	0.402626	0.719371
	H13	H	0.169876	0.597098	0.714442
	H14	H	0.839199	0.602725	0.288289
	H15	H	0.169709	0.403693	0.289348
	H16	H	0.401487	0.722130	0.842560
	H17	H	0.605687	0.717328	0.167947
	H18	H	0.608193	0.284442	0.841058
	H19	H	0.400329	0.284559	0.167157
	H20	H	0.720062	0.839406	0.405767
	H21	H	0.718398	0.164383	0.602673
	H22	H	0.288653	0.839917	0.607236
	H23	H	0.287390	0.164273	0.405452
	H24	H	0.903686	0.340936	0.220746
	H25	H	0.104267	0.663854	0.219003
	H26	H	0.106032	0.338859	0.788333
	H27	H	0.905538	0.664172	0.786055
	H28	H	0.219366	0.903640	0.340960
	H29	H	0.213736	0.098136	0.669184
	H30	H	0.790745	0.098927	0.339399
	H31	H	0.791697	0.904672	0.669204
	H32	H	0.340807	0.221405	0.903400
	H33	H	0.668129	0.217848	0.105715
	H34	H	0.339914	0.786261	0.108959
	H35	H	0.667289	0.786998	0.903999
	H36	H	0.339938	0.903363	0.221594
	H37	H	0.669701	0.098595	0.217636
	H38	H	0.338426	0.102894	0.791573
	H39	H	0.668417	0.905425	0.791628
	H40	H	0.899597	0.219950	0.340454
	H41	H	0.103673	0.217468	0.666170
	H42	H	0.106711	0.785332	0.340645
	H43	H	0.900027	0.784243	0.666620
	H44	H	0.222806	0.340363	0.904498
	H45	H	0.216557	0.665711	0.099994
	H46	H	0.789032	0.339886	0.103489
	H47	H	0.787467	0.664031	0.900896
	H48	H	0.408960	0.118310	0.596237
	H49	H	0.590232	0.886823	0.607478
	H50	H	0.602937	0.119971	0.409230
	H51	H	0.407427	0.885803	0.414100
	H52	H	0.595824	0.401841	0.122639
	H53	H	0.591226	0.603273	0.886187
	H54	H	0.404408	0.591922	0.122862
	H55	H	0.420602	0.410680	0.888695
	H56	H	0.119420	0.591938	0.415113
	H57	H	0.885194	0.597176	0.595900
	H58	H	0.119957	0.405064	0.589273
	H59	H	0.887611	0.414842	0.408830
	H60	H	0.120316	0.413051	0.593769
	H61	H	0.887724	0.594390	0.591226
	H62	H	0.121026	0.591716	0.406842
	H63	H	0.884712	0.405262	0.409822
	H64	H	0.417781	0.591139	0.118933
	H65	H	0.601109	0.595812	0.885586
	H66	H	0.601606	0.412895	0.120881
	H67	H	0.412605	0.406582	0.885788
	H68	H	0.590936	0.118002	0.405578
	H69	H	0.592637	0.890015	0.589358
	H70	H	0.408300	0.118188	0.598092
	H71	H	0.415428	0.886850	0.408382
	H72	H	0.910281	0.617629	0.092888
	H73	H	0.102417	0.384860	0.096717
	H74	H	0.092115	0.614841	0.912605
	H75	H	0.920472	0.389261	0.913028
	H76	H	0.093456	0.907412	0.620786
	H77	H	0.098095	0.090589	0.387146
	H78	H	0.913656	0.099795	0.621727
	H79	H	0.908742	0.899953	0.383178
	H80	H	0.623578	0.101987	0.911004
	H81	H	0.385289	0.102091	0.093167
	H82	H	0.620489	0.907863	0.093768
	H83	H	0.386672	0.913999	0.912895
	H84	H	0.620267	0.911292	0.096273
	H85	H	0.391394	0.089582	0.089609
	H86	H	0.618514	0.092441	0.919701
	H87	H	0.384282	0.907490	0.912544
	H88	H	0.907080	0.095764	0.623203
	H89	H	0.090449	0.092177	0.388899
	H90	H	0.094451	0.904573	0.621913
	H91	H	0.906297	0.918326	0.387265
	H92	H	0.104613	0.618340	0.910947
	H93	H	0.093536	0.387448	0.100713
	H94	H	0.911159	0.618127	0.095655
	H95	H	0.906581	0.387020	0.917115
	H96	H	0.410766	0.117760	0.597915
	H97	H	0.605940	0.883938	0.599299
	H98	H	0.594987	0.114857	0.417431
	H99	H	0.415485	0.889260	0.417980
	H100	H	0.589448	0.411493	0.117576
	H101	H	0.591063	0.590894	0.889454
	H102	H	0.412300	0.602576	0.123044
	H103	H	0.412303	0.415562	0.888053
	H104	H	0.122157	0.599249	0.411144
	H105	H	0.887117	0.591520	0.596374
	H106	H	0.123331	0.404868	0.596997
	H107	H	0.888402	0.409841	0.416992
	H108	H	0.912659	0.616726	0.093402
	H109	H	0.095708	0.388416	0.090503
	H110	H	0.095990	0.619934	0.900739
	H111	H	0.910575	0.383744	0.903695
	H112	H	0.096720	0.906543	0.622274
	H113	H	0.094894	0.097430	0.385719
	H114	H	0.913331	0.092083	0.618873
	H115	H	0.923666	0.909853	0.390822
	H116	H	0.621101	0.088690	0.906457
	H117	H	0.385322	0.092160	0.102628
	H118	H	0.622266	0.907516	0.097650
	H119	H	0.386448	0.910892	0.918641
	C120	C	0.380725	0.011105	0.627429
	C121	C	0.625004	0.993989	0.626865
	C122	C	0.625797	0.010137	0.382329
	C123	C	0.382041	0.993880	0.383292
	C124	C	0.626107	0.380153	0.011963
	C125	C	0.624549	0.624229	0.995547
	C126	C	0.382378	0.624934	0.013164
	C127	C	0.384226	0.381707	0.995661
	C128	C	0.012259	0.624213	0.381540
	C129	C	0.995447	0.622510	0.623659
	C130	C	0.012702	0.379393	0.624142
	C131	C	0.995234	0.380107	0.381547
	C132	C	0.882225	0.510626	0.124473
	C133	C	0.125582	0.494229	0.124177
	C134	C	0.127609	0.510442	0.879627
	C135	C	0.882788	0.493554	0.880814
	C136	C	0.125305	0.878495	0.513203
	C137	C	0.123396	0.122151	0.495481
	C138	C	0.881589	0.124344	0.512706
	C139	C	0.883217	0.880737	0.495601
	C140	C	0.512751	0.124596	0.882871
	C141	C	0.495773	0.123153	0.125097
	C142	C	0.512537	0.880108	0.126783
	C143	C	0.494704	0.881739	0.884479
	C144	C	0.383675	0.889122	0.684434
	C145	C	0.622289	0.116496	0.681676
	C146	C	0.624581	0.888182	0.327699
	C147	C	0.382526	0.115476	0.325962
	C148	C	0.681011	0.383804	0.887905
	C149	C	0.680774	0.620728	0.118706
	C150	C	0.328547	0.622639	0.889069
	C151	C	0.327255	0.383789	0.118730
	C152	C	0.889088	0.681377	0.382208
	C153	C	0.118913	0.678045	0.623359
	C154	C	0.888670	0.324664	0.623943
	C155	C	0.118755	0.323132	0.382071
	C156	C	0.888819	0.382438	0.680904
	C157	C	0.119994	0.618885	0.678114
	C158	C	0.888686	0.622720	0.325781
	C159	C	0.119976	0.383030	0.327045
	C160	C	0.382679	0.682552	0.890719
	C161	C	0.624440	0.679091	0.118883
	C162	C	0.626413	0.323808	0.889256
	C163	C	0.382694	0.324219	0.118326
	C164	C	0.681878	0.888118	0.385401
	C165	C	0.680481	0.116166	0.623720
	C166	C	0.326470	0.888598	0.626553
	C167	C	0.325423	0.115756	0.384895
	C168	C	0.883910	0.389009	0.181720
	C169	C	0.124048	0.615842	0.180153
	C170	C	0.126487	0.387920	0.825237
	C171	C	0.884870	0.615682	0.824398
	C172	C	0.181634	0.882230	0.389938
	C173	C	0.177481	0.119109	0.619516
	C174	C	0.826921	0.120805	0.388838
	C175	C	0.828091	0.883582	0.619476
	C176	C	0.389558	0.182537	0.883646
	C177	C	0.619474	0.179005	0.124547
	C178	C	0.388902	0.824686	0.127277
	C179	C	0.618344	0.825364	0.884799
	C180	C	0.388930	0.882905	0.183265
	C181	C	0.620246	0.119707	0.180188
	C182	C	0.388325	0.123613	0.828232
	C183	C	0.618716	0.884279	0.828813
	C184	C	0.881688	0.180680	0.389316
	C185	C	0.122590	0.178467	0.617982
	C186	C	0.125353	0.823605	0.389953
	C187	C	0.882225	0.823657	0.618250
	C188	C	0.184417	0.388540	0.883168
	C189	C	0.179890	0.616689	0.120967
	C190	C	0.826735	0.388711	0.123495
	C191	C	0.826069	0.615613	0.881597
	C192	C	0.402710	0.095916	0.604338
	C193	C	0.602850	0.909127	0.605174
	C194	C	0.602838	0.095380	0.403989
	C195	C	0.405846	0.909083	0.406701
	C196	C	0.602680	0.402451	0.098097
	C197	C	0.601370	0.602853	0.909524
	C198	C	0.404906	0.602088	0.099304
	C199	C	0.408217	0.404126	0.909664
	C200	C	0.098597	0.601163	0.404454
	C201	C	0.909093	0.600648	0.601178
	C202	C	0.098931	0.401320	0.600361
	C203	C	0.909051	0.403105	0.404856
	C204	C	0.904828	0.595472	0.101023
	C205	C	0.103625	0.408975	0.102363
	C206	C	0.104424	0.595660	0.901512
	C207	C	0.905631	0.408637	0.904346
	C208	C	0.101822	0.899884	0.599393
	C209	C	0.101003	0.099912	0.409431
	C210	C	0.904540	0.102385	0.598825
	C211	C	0.906276	0.902974	0.409421
	C212	C	0.598805	0.101301	0.905765
	C213	C	0.409642	0.101094	0.102057
	C214	C	0.598551	0.902278	0.102927
	C215	C	0.408164	0.904241	0.907948
	Zn216	Zn	0.502441	0.003091	0.756047
	Zn217	Zn	0.504252	0.002106	0.253570
	Zn218	Zn	0.752895	0.502412	0.002796
	Zn219	Zn	0.255417	0.503058	0.003330
	Zn220	Zn	0.003286	0.751446	0.503865
	Zn221	Zn	0.003378	0.251717	0.502946
	Zn222	Zn	0.004959	0.501283	0.751388
	Zn223	Zn	0.004690	0.502468	0.253385
	Zn224	Zn	0.503216	0.752993	0.005552
	Zn225	Zn	0.504567	0.252194	0.004127
	Zn226	Zn	0.755037	0.001630	0.504411
	Zn227	Zn	0.252212	0.001715	0.505474
	N228	N	0.416737	0.966347	0.685243
	N229	N	0.588368	0.039724	0.683741
	N230	N	0.590241	0.965130	0.325854
	N231	N	0.416901	0.038689	0.324940
	N232	N	0.680909	0.418034	0.965367
	N233	N	0.680670	0.587072	0.041135
	N234	N	0.328200	0.587568	0.966341
	N235	N	0.328245	0.418950	0.041657
	N236	N	0.967034	0.682440	0.415857
	N237	N	0.040499	0.680537	0.590220
	N238	N	0.966671	0.322716	0.589296
	N239	N	0.040225	0.321236	0.415209
	N240	N	0.967038	0.415663	0.681273
	N241	N	0.042331	0.584922	0.678471
	N242	N	0.966505	0.587997	0.325121
	N243	N	0.042083	0.417657	0.326457
	N244	N	0.415505	0.683965	0.968918
	N245	N	0.590293	0.681660	0.041164
	N246	N	0.593167	0.321199	0.967396
	N247	N	0.417425	0.322906	0.040539
	N248	N	0.682779	0.964869	0.418958
	N249	N	0.682371	0.039156	0.590536
	N250	N	0.324550	0.965174	0.591728
	N251	N	0.324772	0.038946	0.419616
	N252	N	0.917601	0.465884	0.182639
	N253	N	0.090983	0.538735	0.182231
	N254	N	0.091770	0.464686	0.823108
	N255	N	0.919275	0.538802	0.823626
	N256	N	0.181863	0.915602	0.467674
	N257	N	0.178047	0.084646	0.542241
	N258	N	0.826687	0.086672	0.466436
	N259	N	0.828615	0.918422	0.542173
	N260	N	0.467917	0.183242	0.916843
	N261	N	0.541221	0.181288	0.091000
	N262	N	0.466905	0.822718	0.092827
	N263	N	0.540051	0.823593	0.918538
	N264	N	0.466742	0.916586	0.183107
	N265	N	0.542326	0.085798	0.180686
	N266	N	0.465777	0.088207	0.827555
	N267	N	0.540712	0.918528	0.828354
	N268	N	0.915005	0.182975	0.467354
	N269	N	0.089637	0.180409	0.539836
	N270	N	0.091190	0.821132	0.467751
	N271	N	0.915810	0.821865	0.540251
	N272	N	0.185494	0.465723	0.915963
	N273	N	0.181095	0.540012	0.086888
	N274	N	0.825527	0.465266	0.088509
	N275	N	0.824556	0.538697	0.915730
	O276	O	0.548421	0.510102	0.500574
	H277	H	0.542834	0.503327	0.502919
	H278	H	0.552763	0.513445	0.503856
	O279	O	0.464054	0.467618	0.488859
	H280	H	0.472400	0.477162	0.479582
	H281	H	0.463022	0.465135	0.496809
	O282	O	0.549607	0.566076	-0.583380
	H283	H	0.552059	0.561462	-0.591129
	H284	H	0.556688	0.578923	-0.572793
	O285	O	1.106847	0.038942	1.078603
	H286	H	1.110981	0.046058	1.077957
	H287	H	1.103128	0.030970	1.073949
	O288	O	0.559118	0.567795	0.627918
	H289	H	0.548278	0.555855	0.630584
	H290	H	0.565795	0.570253	0.642663
	O291	O	0.049439	0.841435	0.135571
	H292	H	0.067693	0.832792	0.139601
	H293	H	0.036000	0.824208	0.143364
	O294	O	0.501631	0.412067	0.576850
	H295	H	0.498164	0.408720	0.570611
	H296	H	0.514127	0.414360	0.573855
	O297	O	0.102896	-0.087644	0.936510
	H298	H	0.105681	-0.092282	0.927210
	H299	H	0.110148	-0.084402	0.941922
	O300	O	0.530657	0.491186	0.414671
	H301	H	0.535005	0.479473	0.413414
	H302	H	0.527951	0.489322	0.425566
	O303	O	0.939652	0.976943	0.038034
	H304	H	0.933246	0.978420	0.044293
	H305	H	0.935241	0.987022	0.046345
	O306	O	-0.059242	0.859227	1.080311
	H307	H	-0.053896	0.862449	1.089046
	H308	H	-0.060104	0.854965	1.090300
	O309	O	0.594946	0.380636	0.493108
	H310	H	0.596805	0.378031	0.488804
	H311	H	0.598681	0.380365	0.490190
	O312	O	0.013336	0.039304	-0.107877
	H313	H	0.003377	0.038881	-0.108510
	H314	H	0.011062	0.027105	-0.118843
	O315	O	0.948312	-0.002057	-0.013512
	H316	H	0.943456	-0.008355	-0.014345
	H317	H	0.954099	-0.004935	-0.011413
	O318	O	0.983457	1.081981	1.115732
	H319	H	0.988639	1.087932	1.123810
	H320	H	0.992634	1.082277	1.113225
	O321	O	0.029646	0.023262	1.044067
	H322	H	0.027563	0.034758	1.051568
	H323	H	0.031659	0.028728	1.059428
	O324	O	0.700418	0.315886	0.309973
	H325	H	0.701869	0.311579	0.315609
	H326	H	0.700035	0.318392	0.308024
	O327	O	0.008369	0.112225	-0.069769
	H328	H	0.005096	0.113780	-0.079041
	H329	H	-0.006455	0.110627	-0.081923
	O330	O	0.582332	0.490321	0.521918
	H331	H	0.566405	0.496121	0.529732
	H332	H	0.580162	0.505093	0.515336
	O333	O	0.027643	1.071413	1.052031
	H334	H	0.032971	1.078954	1.054458
	H335	H	0.021373	1.076196	1.058838
	O336	O	0.027939	0.018263	-0.099123
	H337	H	0.024470	0.013528	-0.102345
	H338	H	0.022042	0.026326	-0.110539
	O339	O	0.389273	0.537189	0.564895
	H340	H	0.381162	0.540858	0.550770
	H341	H	0.399392	0.546407	0.572100
	O342	O	1.479672	1.475537	1.481559
	H343	H	1.475491	1.474049	1.486960
	H344	H	1.480754	1.474281	1.471811
	O345	O	1.044145	0.930154	-0.054886
	H346	H	1.035707	0.935530	-0.049479
	H347	H	1.045782	0.934928	-0.053042
	O348	O	0.500568	0.643642	0.461085
	H349	H	0.499560	0.647003	0.460616
	H350	H	0.504867	0.645407	0.472159
	O351	O	0.481991	0.608878	0.535151
	H352	H	0.476856	0.621637	0.539355
	H353	H	0.477857	0.608348	0.536093
	O354	O	0.523953	0.403959	0.439066
	H355	H	0.530360	0.406918	0.450066
	H356	H	0.528818	0.409016	0.436743
	O357	O	0.553857	-0.563177	0.527234
	H358	H	0.548230	-0.570092	0.535926
	H359	H	0.539596	-0.564047	0.528081
	O360	O	0.422711	0.477153	0.558984
	H361	H	0.416562	0.472180	0.559298
	H362	H	0.427833	0.468709	0.556973
	O363	O	0.494389	0.398872	0.452195
	H364	H	0.493902	0.397142	0.461475
	H365	H	0.501963	0.387935	0.450638
	O366	O	0.985346	1.069874	1.051274
	H367	H	0.986731	1.070414	1.050601
	H368	H	0.991223	1.080574	1.036020
	O369	O	1.061876	-0.007457	1.070901
	H370	H	1.066261	-0.002741	1.075944
	H371	H	1.058257	-0.006893	1.062541
	O372	O	-0.017479	0.032934	0.047473
	H373	H	-0.026792	0.028375	0.045456
	H374	H	-0.008063	0.027695	0.044221
	O375	O	0.959548	-0.053363	0.134496
	H376	H	0.969546	-0.052856	0.128472
	H377	H	0.968615	-0.057805	0.143163
	O378	O	0.500429	0.541403	0.512606
	H379	H	0.490212	0.541640	0.500390
	H380	H	0.501806	0.543413	0.528186
	O381	O	0.421694	0.625783	0.499732
	H382	H	0.426007	0.637057	0.477051
	H383	H	0.405538	0.630309	0.491561
