data_Molecule from HDF5

_cell_length_a		16.535388
_cell_length_b		16.530348
_cell_length_c		16.589096
_cell_angle_alpha	89.985917
_cell_angle_beta	89.976169
_cell_angle_gamma	89.947804
_symmetry_space_group_name_H-M	'P 1'
_symmetry_Int_Tables_number		1

loop_
	_symmetry_equiv_pos_as_xyz
	x,y,z

loop_
	_atom_site_label
	_atom_site_type_symbol
	_atom_site_fract_x
	_atom_site_fract_y
	_atom_site_fract_z
	H0	H	0.380227	0.844077	0.714204
	H1	H	0.594025	0.155330	0.712935
	H2	H	0.591839	0.840891	0.271534
	H3	H	0.383720	0.155808	0.269173
	H4	H	0.709379	0.394406	0.832734
	H5	H	0.710734	0.603780	0.145677
	H6	H	0.266039	0.606540	0.833789
	H7	H	0.268828	0.396281	0.145937
	H8	H	0.831657	0.718957	0.386217
	H9	H	0.146573	0.719541	0.593279
	H10	H	0.830646	0.280532	0.592993
	H11	H	0.145043	0.276006	0.383948
	H12	H	0.832663	0.394514	0.711698
	H13	H	0.146423	0.604354	0.710808
	H14	H	0.831729	0.603422	0.269788
	H15	H	0.145324	0.393207	0.267488
	H16	H	0.382706	0.722292	0.832940
	H17	H	0.594058	0.721346	0.146069
	H18	H	0.595233	0.275372	0.834696
	H19	H	0.385023	0.278777	0.145816
	H20	H	0.706628	0.840463	0.389208
	H21	H	0.709253	0.156110	0.595507
	H22	H	0.266147	0.843845	0.597220
	H23	H	0.265716	0.155604	0.383980
	H24	H	0.886393	0.342330	0.209684
	H25	H	0.092734	0.656945	0.209055
	H26	H	0.097082	0.342330	0.767527
	H27	H	0.885623	0.656289	0.769069
	H28	H	0.208531	0.897438	0.333348
	H29	H	0.212707	0.107984	0.646127
	H30	H	0.769114	0.102075	0.333701
	H31	H	0.768176	0.894396	0.647414
	H32	H	0.333077	0.224449	0.881830
	H33	H	0.646509	0.217757	0.092080
	H34	H	0.331347	0.780830	0.091752
	H35	H	0.647117	0.781155	0.887849
	H36	H	0.331006	0.896659	0.209322
	H37	H	0.645840	0.101995	0.209976
	H38	H	0.333397	0.109895	0.764561
	H39	H	0.645183	0.894986	0.769097
	H40	H	0.884864	0.219532	0.333872
	H41	H	0.095221	0.222499	0.646704
	H42	H	0.091607	0.781208	0.332672
	H43	H	0.884980	0.777266	0.646482
	H44	H	0.209945	0.341083	0.886519
	H45	H	0.209535	0.656303	0.093869
	H46	H	0.771242	0.341307	0.090912
	H47	H	0.770366	0.656975	0.886076
	H48	H	0.399465	0.111796	0.577781
	H49	H	0.576508	0.885261	0.584605
	H50	H	0.576895	0.111331	0.399842
	H51	H	0.395994	0.886468	0.403091
	H52	H	0.578825	0.413832	0.099245
	H53	H	0.581092	0.593396	0.875367
	H54	H	0.399470	0.578826	0.097072
	H55	H	0.398737	0.404671	0.874922
	H56	H	0.103968	0.588092	0.392489
	H57	H	0.874130	0.593269	0.581473
	H58	H	0.101213	0.417185	0.584660
	H59	H	0.880266	0.419969	0.401815
	H60	H	0.104343	0.402495	0.579218
	H61	H	0.880043	0.587887	0.573541
	H62	H	0.104000	0.596171	0.401834
	H63	H	0.873565	0.407706	0.390958
	H64	H	0.408697	0.593794	0.099210
	H65	H	0.581324	0.584890	0.878859
	H66	H	0.575560	0.406044	0.101612
	H67	H	0.395804	0.415989	0.877445
	H68	H	0.580566	0.111715	0.401412
	H69	H	0.574671	0.888334	0.577612
	H70	H	0.402933	0.110307	0.579471
	H71	H	0.399573	0.885832	0.397835
	H72	H	0.901684	0.611964	0.079514
	H73	H	0.074447	0.388694	0.077503
	H74	H	0.078975	0.613908	0.891389
	H75	H	0.899276	0.386424	0.899201
	H76	H	0.078472	0.910556	0.603198
	H77	H	0.081258	0.081801	0.380716
	H78	H	0.895717	0.089751	0.604694
	H79	H	0.894281	0.904713	0.375385
	H80	H	0.600885	0.087006	0.897982
	H81	H	0.374931	0.094708	0.078211
	H82	H	0.603996	0.911034	0.088916
	H83	H	0.375822	0.910925	0.902824
	H84	H	0.603958	0.902748	0.078798
	H85	H	0.378138	0.084837	0.077636
	H86	H	0.597449	0.088659	0.908600
	H87	H	0.376756	0.912049	0.902241
	H88	H	0.899245	0.085784	0.601251
	H89	H	0.070501	0.086981	0.382051
	H90	H	0.076656	0.909658	0.601882
	H91	H	0.895566	0.913850	0.378820
	H92	H	0.068833	0.606843	0.902995
	H93	H	0.082510	0.386554	0.075854
	H94	H	0.897719	0.612712	0.078213
	H95	H	0.899898	0.385955	0.899180
	H96	H	0.402234	0.109788	0.575223
	H97	H	0.582540	0.886667	0.578730
	H98	H	0.579225	0.112820	0.397976
	H99	H	0.401964	0.888686	0.403022
	H100	H	0.583921	0.407595	0.103423
	H101	H	0.573419	0.589412	0.879533
	H102	H	0.391955	0.593271	0.104559
	H103	H	0.406958	0.412327	0.879880
	H104	H	0.099329	0.584635	0.403323
	H105	H	0.877723	0.582977	0.583357
	H106	H	0.097128	0.413123	0.569544
	H107	H	0.877843	0.403232	0.407653
	H108	H	0.898494	0.612862	0.082379
	H109	H	0.079132	0.385068	0.082773
	H110	H	0.084809	0.610896	0.907184
	H111	H	0.899953	0.386268	0.899201
	H112	H	0.078075	0.908950	0.603930
	H113	H	0.079191	0.092957	0.376801
	H114	H	0.901276	0.091599	0.602862
	H115	H	0.902875	0.908006	0.379011
	H116	H	0.596100	0.078336	0.903592
	H117	H	0.374314	0.088234	0.086554
	H118	H	0.599339	0.914663	0.076895
	H119	H	0.376780	0.910840	0.901485
	C120	C	0.367768	0.007885	0.611018
	C121	C	0.609866	0.990439	0.612073
	C122	C	0.610180	0.007526	0.368871
	C123	C	0.367506	0.990807	0.369406
	C124	C	0.611314	0.377203	-0.001913
	C125	C	0.610401	0.620869	0.981685
	C126	C	0.367603	0.621270	-0.002566
	C127	C	0.368593	0.378919	0.981233
	C128	C	-0.002032	0.620918	0.368149
	C129	C	0.981247	0.620053	0.610784
	C130	C	-0.002507	0.378696	0.610416
	C131	C	0.980780	0.377650	0.368097
	C132	C	0.867957	0.508353	0.110928
	C133	C	0.110301	0.490451	0.110862
	C134	C	0.110852	0.506988	0.868275
	C135	C	0.868374	0.490499	0.867714
	C136	C	0.109363	0.879056	0.498882
	C137	C	0.110023	0.120802	0.482604
	C138	C	0.867168	0.120442	0.499364
	C139	C	0.866589	0.876928	0.481755
	C140	C	0.496166	0.119997	0.869068
	C141	C	0.479757	0.120752	0.111946
	C142	C	0.497695	0.877910	0.111868
	C143	C	0.480132	0.878715	0.869256
	C144	C	0.363085	0.890951	0.673308
	C145	C	0.612254	0.108437	0.672420
	C146	C	0.610452	0.888426	0.311194
	C147	C	0.365088	0.108986	0.309341
	C148	C	0.670439	0.375387	0.880064
	C149	C	0.670311	0.622315	0.099187
	C150	C	0.306587	0.624442	0.880357
	C151	C	0.308625	0.377066	0.099163
	C152	C	0.879295	0.679830	0.367161
	C153	C	0.099393	0.679945	0.612143
	C154	C	0.878456	0.319830	0.611871
	C155	C	0.098265	0.316788	0.365573
	C156	C	0.879351	0.376706	0.670682
	C157	C	0.099223	0.622735	0.670538
	C158	C	0.879322	0.622022	0.309369
	C159	C	0.098397	0.374929	0.307792
	C160	C	0.364801	0.682040	0.880070
	C161	C	0.612174	0.680493	0.099446
	C162	C	0.613290	0.316635	0.880822
	C163	C	0.366573	0.319137	0.099116
	C164	C	0.667917	0.888135	0.369360
	C165	C	0.669517	0.108823	0.614001
	C166	C	0.305845	0.890964	0.615310
	C167	C	0.306874	0.108982	0.366717
	C168	C	0.867447	0.389115	0.169699
	C169	C	0.111613	0.609324	0.169939
	C170	C	0.114132	0.389286	0.808248
	C171	C	0.867121	0.609089	0.808622
	C172	C	0.168568	0.878458	0.380514
	C173	C	0.171909	0.125013	0.599539
	C174	C	0.808109	0.121509	0.381007
	C175	C	0.807733	0.875308	0.600152
	C176	C	0.379884	0.183428	0.864239
	C177	C	0.599076	0.178731	0.111994
	C178	C	0.378674	0.819774	0.111676
	C179	C	0.599236	0.820280	0.868486
	C180	C	0.378468	0.877260	0.169940
	C181	C	0.598779	0.121224	0.170369
	C182	C	0.380204	0.126376	0.805666
	C183	C	0.598333	0.876641	0.809241
	C184	C	0.865830	0.179645	0.381050
	C185	C	0.113231	0.182080	0.599803
	C186	C	0.110532	0.820617	0.380094
	C187	C	0.865606	0.817042	0.599642
	C188	C	0.170743	0.388674	0.867112
	C189	C	0.169880	0.608979	0.112793
	C190	C	0.810273	0.388768	0.111091
	C191	C	0.809716	0.609339	0.866849
	C192	C	0.394213	0.089480	0.584976
	C193	C	0.585093	0.908253	0.587435
	C194	C	0.585932	0.090486	0.392760
	C195	C	0.392342	0.908501	0.394293
	C196	C	0.586548	0.402137	0.079978
	C197	C	0.585608	0.596095	0.899456
	C198	C	0.392997	0.595807	0.079054
	C199	C	0.393505	0.403868	0.898905
	C200	C	0.080714	0.596531	0.392334
	C201	C	0.898806	0.594878	0.586385
	C202	C	0.079561	0.403771	0.585154
	C203	C	0.898554	0.403014	0.393087
	C204	C	0.892053	0.590742	0.087036
	C205	C	0.085732	0.408417	0.085988
	C206	C	0.084925	0.589234	0.893422
	C207	C	0.892833	0.407733	0.892117
	C208	C	0.084914	0.902857	0.581526
	C209	C	0.084204	0.094736	0.401163
	C210	C	0.891707	0.096038	0.581555
	C211	C	0.890565	0.901780	0.399232
	C212	C	0.577011	0.092489	0.895831
	C213	C	0.397272	0.096334	0.087520
	C214	C	0.580583	0.902379	0.088295
	C215	C	0.397903	0.904068	0.894700
	Zn216	Zn	0.488320	-0.000485	0.740007
	Zn217	Zn	0.488214	-0.000730	0.240537
	Zn218	Zn	0.739870	0.499201	-0.011000
	Zn219	Zn	0.238657	0.499411	-0.010584
	Zn220	Zn	-0.010900	0.749163	0.490065
	Zn221	Zn	-0.010934	0.249233	0.490081
	Zn222	Zn	-0.009859	0.499206	0.739755
	Zn223	Zn	-0.010411	0.499450	0.239406
	Zn224	Zn	0.488795	0.750079	-0.010268
	Zn225	Zn	0.488971	0.249243	-0.010432
	Zn226	Zn	0.738122	-0.001099	0.490729
	Zn227	Zn	0.238895	-0.000227	0.490727
	N228	N	0.401040	0.964893	0.670926
	N229	N	0.576010	0.033825	0.671548
	N230	N	0.575320	0.963899	0.310625
	N231	N	0.402170	0.034682	0.310920
	N232	N	0.669317	0.412385	0.953921
	N233	N	0.669150	0.585806	0.024782
	N234	N	0.308229	0.587119	0.954236
	N235	N	0.309703	0.413503	0.024765
	N236	N	0.954253	0.679262	0.403032
	N237	N	0.024801	0.678440	0.575795
	N238	N	0.953008	0.320804	0.575217
	N239	N	0.023935	0.318318	0.402248
	N240	N	0.954486	0.412194	0.670277
	N241	N	0.024706	0.586157	0.669943
	N242	N	0.954271	0.586211	0.309644
	N243	N	0.024197	0.412120	0.309271
	N244	N	0.402231	0.680118	0.953857
	N245	N	0.575735	0.679726	0.025281
	N246	N	0.577319	0.317472	0.955153
	N247	N	0.403091	0.320311	0.024799
	N248	N	0.667913	0.963295	0.404468
	N249	N	0.668186	0.034449	0.577246
	N250	N	0.308713	0.964618	0.577374
	N251	N	0.308312	0.034674	0.403582
	N252	N	0.902339	0.464433	0.170145
	N253	N	0.075667	0.534570	0.169376
	N254	N	0.077766	0.464012	0.808809
	N255	N	0.902769	0.534077	0.808959
	N256	N	0.168224	0.913762	0.455470
	N257	N	0.169949	0.087604	0.525655
	N258	N	0.808464	0.085569	0.455715
	N259	N	0.808124	0.911699	0.525724
	N260	N	0.453066	0.179512	0.903160
	N261	N	0.524097	0.178620	0.076418
	N262	N	0.453956	0.819855	0.076687
	N263	N	0.524501	0.821164	0.904711
	N264	N	0.453607	0.912575	0.170379
	N265	N	0.523552	0.086168	0.170756
	N266	N	0.453465	0.087336	0.808764
	N267	N	0.523084	0.911958	0.809334
	N268	N	0.901790	0.179210	0.455538
	N269	N	0.075484	0.179696	0.526072
	N270	N	0.074571	0.820744	0.454786
	N271	N	0.901202	0.817852	0.524907
	N272	N	0.168907	0.463206	0.903673
	N273	N	0.169550	0.534207	0.076854
	N274	N	0.810043	0.463820	0.075708
	N275	N	0.810254	0.534470	0.902849
	O276	O	1.029864	0.837674	0.087420
	H277	H	1.021169	0.849003	0.085970
	H278	H	1.017015	0.844820	0.096891
	O279	O	-0.109844	0.115762	1.052652
	H280	H	-0.112773	0.108171	1.053432
	H281	H	-0.093380	0.122742	1.055622
	O282	O	0.271526	0.468493	0.705490
	H283	H	0.273465	0.458070	0.711391
	H284	H	0.255064	0.447439	0.726648
	O285	O	0.309792	0.311900	0.672228
	H286	H	0.302260	0.315929	0.633719
	H287	H	0.341466	0.299929	0.671488
	O288	O	1.301168	-0.688506	1.299710
	H289	H	1.320923	-0.664565	1.312530
	H290	H	1.316463	-0.674262	1.323825
	O291	O	0.698336	0.286195	0.452200
	H292	H	0.711279	0.282900	0.450296
	H293	H	0.704527	0.282973	0.456244
	O294	O	0.278420	0.290818	0.511366
	H295	H	0.278638	0.268203	0.502620
	H296	H	0.282198	0.295951	0.494099
	O297	O	0.702336	-0.288888	-0.445227
	H298	H	0.708192	-0.295435	-0.451885
	H299	H	0.715633	-0.282081	-0.434494
	O300	O	0.132017	0.134295	-0.106947
	H301	H	0.120525	0.134183	-0.109798
	H302	H	0.125188	0.145750	-0.105451
	O303	O	-0.284866	-0.269590	0.260604
	H304	H	-0.277908	-0.267712	0.248694
	H305	H	-0.296189	-0.278013	0.278847
	O306	O	0.844724	-0.010774	-0.044101
	H307	H	0.854353	-0.009500	-0.045414
	H308	H	0.837376	-0.002479	-0.042636
	O309	O	-0.001011	1.076948	0.195281
	H310	H	0.001626	1.075976	0.196392
	H311	H	0.003357	1.098558	0.191203
	O312	O	0.542504	0.446448	0.696483
	H313	H	0.546240	0.447646	0.703760
	H314	H	0.531716	0.473523	0.704314
	O315	O	0.520676	0.722044	0.713063
	H316	H	0.520612	0.751327	0.729071
	H317	H	0.517197	0.723606	0.709069
	O318	O	0.850073	0.793775	0.195794
	H319	H	0.862077	0.807563	0.207762
	H320	H	0.859877	0.786140	0.198250
	O321	O	-0.204533	0.978735	1.171446
	H322	H	-0.216679	0.964942	1.172618
	H323	H	-0.208790	0.970324	1.176087
	O324	O	0.942428	0.214707	1.122927
	H325	H	0.958766	0.222230	1.117361
	H326	H	0.949884	0.222129	1.134283
	O327	O	0.190348	1.190829	1.020465
	H328	H	0.185287	1.194684	1.008344
	H329	H	0.188923	1.189236	1.001049
	O330	O	0.474402	0.471890	0.271608
	H331	H	0.469014	0.479824	0.266024
	H332	H	0.473666	0.474733	0.275090
	O333	O	0.454531	1.312000	1.447027
	H334	H	0.461701	1.300945	1.428306
	H335	H	0.461977	1.322609	1.458131
	O336	O	0.693518	0.293948	0.282186
	H337	H	0.691116	0.280664	0.306867
	H338	H	0.711200	0.309034	0.267785
	O339	O	0.523910	0.607096	0.267438
	H340	H	0.527629	0.600567	0.273143
	H341	H	0.525024	0.609051	0.264780
	O342	O	0.195942	0.787734	-0.218110
	H343	H	0.194616	0.807637	-0.202905
	H344	H	0.173110	0.793382	-0.213547
	O345	O	0.406657	0.585190	0.277080
	H346	H	0.406697	0.584516	0.264757
	H347	H	0.417234	0.561264	0.273006
	O348	O	0.268201	0.493280	0.371775
	H349	H	0.255300	0.509348	0.387174
	H350	H	0.259059	0.495980	0.378128
	O351	O	0.624374	-0.654092	1.659796
	H352	H	0.620012	-0.633683	1.644435
	H353	H	0.606056	-0.640153	1.653711
	O354	O	1.090845	-0.031927	1.086357
	H355	H	1.105196	-0.028429	1.081216
	H356	H	1.095924	-0.018388	1.091116
	O357	O	0.337292	0.534392	0.523291
	H358	H	0.340462	0.547365	0.542748
	H359	H	0.324509	0.536985	0.538673
	O360	O	1.189915	1.035846	0.979781
	H361	H	1.188367	1.035677	0.980908
	H362	H	1.187051	1.032877	0.969025
	O363	O	0.778699	1.190369	-0.090600
	H364	H	0.770874	1.180721	-0.078686
	H365	H	0.768679	1.189347	-0.087031
	O366	O	0.743517	0.752378	0.740790
	H367	H	0.759305	0.758865	0.721740
	H368	H	0.732390	0.755832	0.742568
	O369	O	-0.002754	0.183479	1.032171
	H370	H	-0.001295	0.187097	1.044131
	H371	H	-0.010299	0.188359	1.034792
	O372	O	0.150583	0.910274	1.127316
	H373	H	0.147580	0.910965	1.118810
	H374	H	0.158586	0.925276	1.121917
	O375	O	1.207372	-0.216771	0.207807
	H376	H	1.198466	-0.208023	0.194992
	H377	H	1.208987	-0.213209	0.199702
	O378	O	0.268108	0.720601	0.454122
	H379	H	0.252725	0.731305	0.437014
	H380	H	0.270508	0.735347	0.449268
	O381	O	0.533700	0.440434	0.509391
	H382	H	0.531005	0.440655	0.513155
	H383	H	0.533356	0.440700	0.506324
	O384	O	0.278204	0.642394	0.299599
	H385	H	0.275670	0.657581	0.290929
	H386	H	0.281856	0.634471	0.307268
	O387	O	0.196354	1.203589	1.199969
	H388	H	0.200026	1.211542	1.146534
	H389	H	0.230287	1.237984	1.226689
	O390	O	-0.080599	0.917612	1.045820
	H391	H	-0.078229	0.926958	1.057165
	H392	H	-0.072002	0.905301	1.051702
	O393	O	1.001999	0.049571	-0.129980
	H394	H	0.979665	0.058294	-0.124445
	H395	H	0.991590	0.044030	-0.137805
	O396	O	0.399769	0.414657	0.509369
	H397	H	0.381557	0.428419	0.507227
	H398	H	0.389838	0.412844	0.509398
	O399	O	0.521806	0.276463	0.272756
	H400	H	0.520334	0.252394	0.239535
	H401	H	0.557198	0.285538	0.282744
	O402	O	1.043980	0.049237	0.893835
	H403	H	1.049241	0.057663	0.888713
	H404	H	1.030739	0.061333	0.888550
	O405	O	0.703883	0.509490	0.682324
	H406	H	0.708549	0.512747	0.699538
	H407	H	0.697638	0.525660	0.668203
	O408	O	0.793349	1.146991	0.784646
	H409	H	0.796817	1.134651	0.811069
	H410	H	0.771526	1.159318	0.774796
	O411	O	0.984303	0.843683	0.206315
	H412	H	0.997648	0.826676	0.222620
	H413	H	0.999487	0.869243	0.205288
	O414	O	0.151493	-0.055054	-0.198941
	H415	H	0.123189	-0.045076	-0.199819
	H416	H	0.173959	-0.039514	-0.221511
	O417	O	0.828815	0.007063	-0.229569
	H418	H	0.839912	0.023856	-0.234826
	H419	H	0.824369	0.018340	-0.244199
	O420	O	1.008377	-0.202620	0.788864
	H421	H	0.999530	-0.214874	0.789618
	H422	H	1.004315	-0.199879	0.794527
	O423	O	0.849608	0.850291	-0.017618
	H424	H	0.843357	0.842351	-0.021529
	H425	H	0.842667	0.863145	0.002152
	O426	O	0.695937	0.518637	0.502401
	H427	H	0.694727	0.529817	0.508266
	H428	H	0.692269	0.530631	0.515940
	O429	O	0.705951	0.509431	0.463562
	H430	H	0.699063	0.500157	0.459146
	H431	H	0.703589	0.502923	0.448472
	O432	O	0.795905	-0.125774	0.943440
	H433	H	0.794948	-0.129649	0.947017
	H434	H	0.803271	-0.130088	0.951279
	O435	O	0.489091	0.282723	0.645875
	H436	H	0.493520	0.305475	0.644119
	H437	H	0.508762	0.269864	0.653732
	O438	O	0.828386	1.142220	0.118847
	H439	H	0.826635	1.128036	0.110600
	H440	H	0.838084	1.134215	0.107468
	O441	O	0.494777	0.638373	0.398679
	H442	H	0.484045	0.631505	0.400281
	H443	H	0.483239	0.648987	0.382854
	O444	O	0.420253	0.709453	0.558744
	H445	H	0.412807	0.708683	0.536546
	H446	H	0.444066	0.718244	0.562357
	O447	O	0.585457	0.698199	0.404562
	H448	H	0.593835	0.686510	0.408205
	H449	H	0.575322	0.691962	0.400488
	O450	O	1.173492	-0.202684	-0.014368
	H451	H	1.168942	-0.202562	-0.028336
	H452	H	1.170737	-0.219306	-0.019474
	O453	O	0.338424	0.611028	0.638342
	H454	H	0.333745	0.617856	0.655938
	H455	H	0.334474	0.625363	0.620860
	O456	O	-0.114038	0.843306	0.860286
	H457	H	-0.117645	0.854277	0.878241
	H458	H	-0.122376	0.834091	0.865214
	O459	O	0.704890	0.461639	0.275614
	H460	H	0.726413	0.465138	0.269439
	H461	H	0.697554	0.456828	0.268473
	O462	O	0.959813	0.220081	0.772423
	H463	H	0.938146	0.232212	0.756701
	H464	H	0.928028	0.231665	0.765065
	O465	O	0.600449	0.492794	0.567626
	H466	H	0.584201	0.485924	0.590303
	H467	H	0.611344	0.479272	0.564691
	O468	O	-0.030896	1.092019	0.187360
	H469	H	-0.019400	1.084257	0.191508
	H470	H	-0.011239	1.093883	0.197311
	O471	O	0.482936	0.486208	0.597491
	H472	H	0.480408	0.488433	0.609147
	H473	H	0.478771	0.502865	0.586866
	O474	O	1.137818	0.995863	-0.192809
	H475	H	1.123863	1.017148	-0.186595
	H476	H	1.150282	0.991995	-0.207685
	O477	O	0.436941	0.527304	0.534934
	H478	H	0.430124	0.536807	0.534050
	H479	H	0.422046	0.536641	0.529538
