data_Molecule from HDF5

_cell_length_a		16.487641
_cell_length_b		16.456872
_cell_length_c		16.388308
_cell_angle_alpha	89.856552
_cell_angle_beta	90.075121
_cell_angle_gamma	89.968037
_symmetry_space_group_name_H-M	'P 1'
_symmetry_Int_Tables_number		1

loop_
	_symmetry_equiv_pos_as_xyz
	x,y,z

loop_
	_atom_site_label
	_atom_site_type_symbol
	_atom_site_fract_x
	_atom_site_fract_y
	_atom_site_fract_z
	H0	H	0.387803	0.849763	0.735124
	H1	H	0.604047	0.163213	0.732100
	H2	H	0.607574	0.851836	0.281667
	H3	H	0.386808	0.162255	0.284771
	H4	H	0.721290	0.397336	0.853555
	H5	H	0.722125	0.618412	0.165508
	H6	H	0.269061	0.619137	0.853756
	H7	H	0.270950	0.395724	0.165790
	H8	H	0.838949	0.730807	0.398442
	H9	H	0.151081	0.730850	0.618992
	H10	H	0.840297	0.278220	0.620987
	H11	H	0.151611	0.280812	0.401165
	H12	H	0.839439	0.395204	0.735535
	H13	H	0.150337	0.616028	0.736315
	H14	H	0.838291	0.612977	0.284999
	H15	H	0.153053	0.398971	0.287471
	H16	H	0.385561	0.733090	0.853339
	H17	H	0.606210	0.733320	0.164840
	H18	H	0.605510	0.283421	0.852455
	H19	H	0.386767	0.281046	0.165638
	H20	H	0.721179	0.849620	0.399524
	H21	H	0.724875	0.159116	0.622451
	H22	H	0.272998	0.848060	0.617950
	H23	H	0.268944	0.160904	0.398562
	H24	H	0.889299	0.348190	0.232195
	H25	H	0.102085	0.663098	0.232486
	H26	H	0.104532	0.349623	0.785866
	H27	H	0.883152	0.660281	0.781020
	H28	H	0.219437	0.896206	0.352832
	H29	H	0.220043	0.113505	0.666334
	H30	H	0.771157	0.113188	0.352580
	H31	H	0.769709	0.891738	0.665527
	H32	H	0.339799	0.232363	0.899222
	H33	H	0.650714	0.233789	0.121113
	H34	H	0.340381	0.781191	0.118334
	H35	H	0.651359	0.780929	0.898340
	H36	H	0.340148	0.896768	0.234973
	H37	H	0.650716	0.118118	0.237743
	H38	H	0.339879	0.116711	0.782925
	H39	H	0.652949	0.899924	0.785472
	H40	H	0.885643	0.230435	0.352468
	H41	H	0.104712	0.228757	0.666486
	H42	H	0.102709	0.782785	0.351774
	H43	H	0.884933	0.777020	0.664476
	H44	H	0.224253	0.352142	0.897337
	H45	H	0.219749	0.663016	0.117791
	H46	H	0.768004	0.351279	0.122139
	H47	H	0.769254	0.661703	0.897861
	H48	H	0.409880	0.114213	0.588721
	H49	H	0.586641	0.889534	0.604288
	H50	H	0.579560	0.114521	0.428959
	H51	H	0.416426	0.897251	0.425366
	H52	H	0.579279	0.419273	0.121515
	H53	H	0.575356	0.601082	0.896798
	H54	H	0.412241	0.592460	0.120214
	H55	H	0.410018	0.427303	0.900726
	H56	H	0.105049	0.594435	0.429360
	H57	H	0.885212	0.590338	0.592631
	H58	H	0.107140	0.414219	0.594390
	H59	H	0.882743	0.421129	0.418415
	H60	H	0.105520	0.420647	0.595125
	H61	H	0.885561	0.589308	0.594387
	H62	H	0.107140	0.587719	0.417022
	H63	H	0.881055	0.412786	0.419903
	H64	H	0.408385	0.595239	0.122806
	H65	H	0.591794	0.594938	0.893256
	H66	H	0.584747	0.420670	0.122925
	H67	H	0.415021	0.416769	0.897870
	H68	H	0.588299	0.118603	0.425672
	H69	H	0.574550	0.896177	0.597641
	H70	H	0.399859	0.119867	0.595733
	H71	H	0.401704	0.893437	0.429092
	H72	H	0.911933	0.616545	0.095540
	H73	H	0.087271	0.393253	0.095047
	H74	H	0.079334	0.615286	0.926171
	H75	H	0.909855	0.396379	0.927537
	H76	H	0.084779	0.921219	0.621006
	H77	H	0.085010	0.093733	0.395295
	H78	H	0.909365	0.094095	0.622866
	H79	H	0.910960	0.919545	0.398829
	H80	H	0.608551	0.096913	0.920480
	H81	H	0.383419	0.094669	0.097565
	H82	H	0.606374	0.922586	0.094780
	H83	H	0.385788	0.928216	0.920231
	H84	H	0.607559	0.920947	0.096547
	H85	H	0.385496	0.095104	0.092784
	H86	H	0.607847	0.096864	0.922674
	H87	H	0.380643	0.915521	0.916652
	H88	H	0.907481	0.087834	0.621514
	H89	H	0.081961	0.088544	0.398236
	H90	H	0.080440	0.917111	0.621512
	H91	H	0.907637	0.915384	0.394959
	H92	H	0.086288	0.618634	0.924563
	H93	H	0.086000	0.392124	0.099498
	H94	H	0.906781	0.617552	0.093418
	H95	H	0.905322	0.393202	0.924230
	H96	H	0.411648	0.118789	0.600810
	H97	H	0.587235	0.894716	0.589636
	H98	H	0.579737	0.118463	0.419620
	H99	H	0.407243	0.890388	0.414978
	H100	H	0.581532	0.424562	0.120073
	H101	H	0.579983	0.583922	0.900752
	H102	H	0.407535	0.590039	0.121031
	H103	H	0.404064	0.419256	0.894749
	H104	H	0.110964	0.600741	0.418287
	H105	H	0.884303	0.591149	0.594455
	H106	H	0.108388	0.417504	0.600152
	H107	H	0.884570	0.417794	0.426135
	H108	H	0.907741	0.619461	0.099039
	H109	H	0.083346	0.394825	0.096709
	H110	H	0.080347	0.618622	0.919514
	H111	H	0.910942	0.393740	0.921504
	H112	H	0.085461	0.915637	0.624481
	H113	H	0.078526	0.094495	0.397531
	H114	H	0.913690	0.089718	0.619445
	H115	H	0.905358	0.921251	0.396879
	H116	H	0.607837	0.095186	0.921472
	H117	H	0.386074	0.090206	0.095832
	H118	H	0.606887	0.919678	0.093847
	H119	H	0.386299	0.917271	0.929533
	C120	C	0.373767	0.014177	0.630486
	C121	C	0.617849	0.996340	0.631379
	C122	C	0.616933	0.014511	0.388954
	C123	C	0.373757	0.996820	0.387740
	C124	C	0.616995	0.386380	0.018059
	C125	C	0.617498	0.628818	1.000165
	C126	C	0.374656	0.628019	0.018074
	C127	C	0.374982	0.385755	1.000916
	C128	C	0.003697	0.627437	0.387448
	C129	C	0.987164	0.626398	0.630069
	C130	C	0.003903	0.383164	0.631418
	C131	C	0.986992	0.383897	0.388318
	C132	C	0.874133	0.514696	0.130796
	C133	C	0.118371	0.497282	0.131119
	C134	C	0.117173	0.514657	0.888277
	C135	C	0.873657	0.497337	0.888382
	C136	C	0.117044	0.883889	0.518414
	C137	C	0.116426	0.126185	0.500736
	C138	C	0.874623	0.125836	0.518096
	C139	C	0.873800	0.883269	0.500143
	C140	C	0.504757	0.129842	0.886772
	C141	C	0.487509	0.128362	0.130959
	C142	C	0.504429	0.885592	0.130273
	C143	C	0.487678	0.886159	0.888021
	C144	C	0.370123	0.896677	0.694059
	C145	C	0.621963	0.115032	0.692606
	C146	C	0.623332	0.898109	0.323711
	C147	C	0.369131	0.114674	0.325178
	C148	C	0.680321	0.380940	0.900600
	C149	C	0.680863	0.635056	0.117902
	C150	C	0.310706	0.634748	0.900895
	C151	C	0.311826	0.379424	0.118467
	C152	C	0.886105	0.689752	0.382089
	C153	C	0.103923	0.690013	0.636008
	C154	C	0.887094	0.319639	0.637406
	C155	C	0.104532	0.321589	0.383779
	C156	C	0.886647	0.378278	0.694583
	C157	C	0.103711	0.632433	0.694431
	C158	C	0.885704	0.631002	0.325173
	C159	C	0.105314	0.380663	0.327247
	C160	C	0.368769	0.691830	0.900482
	C161	C	0.622670	0.692223	0.117969
	C162	C	0.622202	0.324027	0.900201
	C163	C	0.369747	0.322096	0.118484
	C164	C	0.680002	0.897014	0.382659
	C165	C	0.682634	0.112847	0.638229
	C166	C	0.312730	0.895927	0.635567
	C167	C	0.310634	0.114129	0.382268
	C168	C	0.870700	0.396079	0.192438
	C169	C	0.120773	0.615670	0.192301
	C170	C	0.122349	0.397334	0.825623
	C171	C	0.867295	0.613734	0.823135
	C172	C	0.178688	0.879413	0.399787
	C173	C	0.178993	0.130385	0.618983
	C174	C	0.811533	0.130870	0.399997
	C175	C	0.810820	0.876091	0.618073
	C176	C	0.387017	0.191906	0.882109
	C177	C	0.604049	0.192304	0.137507
	C178	C	0.387422	0.822018	0.135792
	C179	C	0.604758	0.822998	0.882462
	C180	C	0.387530	0.879655	0.193992
	C181	C	0.603843	0.134676	0.195986
	C182	C	0.387129	0.133928	0.824154
	C183	C	0.605665	0.882483	0.825984
	C184	C	0.868637	0.189398	0.399944
	C185	C	0.121339	0.188082	0.619081
	C186	C	0.120535	0.822663	0.399441
	C187	C	0.868372	0.818796	0.617741
	C188	C	0.181921	0.398507	0.881620
	C189	C	0.179194	0.615766	0.135017
	C190	C	0.810261	0.397740	0.137439
	C191	C	0.810207	0.614354	0.881461
	C192	C	0.399694	0.096256	0.602931
	C193	C	0.590669	0.914744	0.604722
	C194	C	0.590178	0.095826	0.416884
	C195	C	0.400629	0.915099	0.415029
	C196	C	0.589675	0.413679	0.100023
	C197	C	0.590269	0.601327	0.918360
	C198	C	0.401837	0.600569	0.099863
	C199	C	0.402040	0.413440	0.918895
	C200	C	0.086089	0.601756	0.413936
	C201	C	0.906292	0.598507	0.601977
	C202	C	0.085565	0.409903	0.604308
	C203	C	0.904492	0.409798	0.414123
	C204	C	0.901033	0.596474	0.103639
	C205	C	0.092882	0.414980	0.104661
	C206	C	0.089728	0.596212	0.915517
	C207	C	0.900883	0.415756	0.916577
	C208	C	0.090765	0.910246	0.600813
	C209	C	0.089697	0.099623	0.418477
	C210	C	0.902094	0.098603	0.599815
	C211	C	0.900312	0.910832	0.418476
	C212	C	0.586589	0.103650	0.913711
	C213	C	0.406291	0.101051	0.103239
	C214	C	0.585669	0.913142	0.102992
	C215	C	0.405645	0.912740	0.914720
	Zn216	Zn	0.495808	0.006920	0.758901
	Zn217	Zn	0.495795	0.006456	0.260065
	Zn218	Zn	0.745558	0.507085	0.009787
	Zn219	Zn	0.246383	0.507012	0.009492
	Zn220	Zn	-0.004631	0.756121	0.508347
	Zn221	Zn	-0.004374	0.254789	0.509231
	Zn222	Zn	-0.004811	0.505686	0.759919
	Zn223	Zn	-0.004443	0.505472	0.259355
	Zn224	Zn	0.495716	0.756502	0.008721
	Zn225	Zn	0.496214	0.257745	0.009317
	Zn226	Zn	0.745796	0.004676	0.509960
	Zn227	Zn	0.244887	0.004694	0.508965
	N228	N	0.407223	0.971422	0.691130
	N229	N	0.582327	0.041653	0.688448
	N230	N	0.584767	0.972101	0.327677
	N231	N	0.407742	0.040801	0.328687
	N232	N	0.677384	0.418919	0.975240
	N233	N	0.677770	0.596320	0.043768
	N234	N	0.314279	0.595520	0.974986
	N235	N	0.314571	0.417978	0.043959
	N236	N	0.960462	0.687604	0.420102
	N237	N	0.030396	0.686392	0.596647
	N238	N	0.961018	0.322482	0.598973
	N239	N	0.029821	0.323376	0.420763
	N240	N	0.960507	0.416995	0.691118
	N241	N	0.029927	0.593974	0.691157
	N242	N	0.960077	0.593058	0.328296
	N243	N	0.030925	0.418426	0.329600
	N244	N	0.408040	0.687620	0.974282
	N245	N	0.584217	0.688696	0.043560
	N246	N	0.583658	0.327275	0.974328
	N247	N	0.408184	0.326038	0.044331
	N248	N	0.676162	0.970283	0.422541
	N249	N	0.680653	0.038000	0.601245
	N250	N	0.314981	0.969952	0.596699
	N251	N	0.313330	0.039708	0.420428
	N252	N	0.909752	0.469858	0.188494
	N253	N	0.083815	0.540972	0.190060
	N254	N	0.082818	0.470730	0.829705
	N255	N	0.906151	0.539894	0.827383
	N256	N	0.176684	0.916554	0.474666
	N257	N	0.176021	0.092737	0.544284
	N258	N	0.814864	0.092393	0.474530
	N259	N	0.814034	0.915665	0.544054
	N260	N	0.461238	0.189610	0.920263
	N261	N	0.530723	0.188605	0.097806
	N262	N	0.461182	0.825529	0.096912
	N263	N	0.530401	0.825301	0.920314
	N264	N	0.461269	0.918410	0.190758
	N265	N	0.530398	0.095542	0.191997
	N266	N	0.461409	0.096270	0.826674
	N267	N	0.531833	0.921092	0.829488
	N268	N	0.906912	0.186600	0.474511
	N269	N	0.082908	0.185643	0.544535
	N270	N	0.082909	0.825254	0.474304
	N271	N	0.906687	0.822988	0.543565
	N272	N	0.178997	0.472758	0.919765
	N273	N	0.177954	0.540959	0.097932
	N274	N	0.812167	0.472633	0.099975
	N275	N	0.814145	0.540869	0.921316
	O276	O	0.701835	0.524697	0.715834
	H277	H	0.719356	0.514556	0.727080
	H278	H	0.712004	0.503912	0.702148
	O279	O	1.048079	-0.020130	1.219895
	H280	H	1.062577	-0.038037	1.229362
	H281	H	1.058053	-0.042438	1.222976
	O282	O	0.460652	0.432778	0.420626
	H283	H	0.445830	0.435162	0.431557
	H284	H	0.459340	0.423385	0.419089
	O285	O	0.661089	0.549900	0.475997
	H286	H	0.659311	0.530191	0.480809
	H287	H	0.664179	0.536280	0.467323
	O288	O	0.952835	1.060674	0.200021
	H289	H	0.920175	1.041669	0.191147
	H290	H	0.974143	1.026714	0.208339
	O291	O	0.590527	0.322977	0.573630
	H292	H	0.600153	0.322154	0.564737
	H293	H	0.598863	0.325839	0.560166
	O294	O	-0.219049	0.024516	0.795124
	H295	H	-0.250909	0.026439	0.750151
	H296	H	-0.175005	-0.003754	0.787796
	O297	O	0.518510	0.330277	0.334413
	H298	H	0.515997	0.308569	0.318682
	H299	H	0.499672	0.332133	0.355829
	O300	O	0.715571	0.281141	0.493189
	H301	H	0.752645	0.243441	0.484882
	H302	H	0.700244	0.297887	0.441345
	O303	O	-0.220862	1.221271	-0.006138
	H304	H	-0.219733	1.223165	-0.045963
	H305	H	-0.233278	1.248416	-0.003826
	O306	O	0.558296	0.727119	0.445034
	H307	H	0.551019	0.724388	0.449339
	H308	H	0.556990	0.720049	0.459645
	O309	O	1.285186	-0.284184	0.486790
	H310	H	1.293029	-0.309919	0.513643
	H311	H	1.259678	-0.256110	0.492604
	O312	O	-0.179680	0.825128	1.190175
	H313	H	-0.192153	0.879027	1.201447
	H314	H	-0.192726	0.815721	1.136573
	O315	O	0.672850	0.329666	0.340543
	H316	H	0.685296	0.381784	0.325769
	H317	H	0.620837	0.320625	0.326077
	O318	O	1.196295	-0.192115	-0.008361
	H319	H	1.218651	-0.198135	0.001544
	H320	H	1.175319	-0.187413	0.012763
	O321	O	-0.218785	-0.206786	0.028272
	H322	H	-0.211110	-0.198234	0.005300
	H323	H	-0.248452	-0.226926	0.023225
	O324	O	0.425401	0.621072	0.674023
	H325	H	0.447771	0.629614	0.656114
	H326	H	0.454046	0.624703	0.695823
	O327	O	0.282369	0.289675	0.524074
	H328	H	0.278340	0.284504	0.560949
	H329	H	0.264323	0.280022	0.543394
	O330	O	-0.071403	0.945276	-0.210838
	H331	H	-0.050860	0.916968	-0.206690
	H332	H	-0.048584	0.955669	-0.200719
	O333	O	0.977663	-0.205219	1.221157
	H334	H	0.970159	-0.235580	1.247321
	H335	H	0.928272	-0.195219	1.207723
	O336	O	0.045287	0.060216	-0.203384
	H337	H	0.041554	0.068754	-0.208183
	H338	H	0.076128	0.054519	-0.185304
	O339	O	-0.008238	0.965820	1.027911
	H340	H	-0.003628	0.976756	1.031262
	H341	H	-0.009031	0.970557	1.040112
	O342	O	-0.051852	1.197798	1.049997
	H343	H	-0.057709	1.193057	1.067325
	H344	H	-0.065800	1.199801	1.047630
	O345	O	1.161109	1.016520	-0.132835
	H346	H	1.155996	1.005110	-0.126963
	H347	H	1.158027	1.006229	-0.132951
	O348	O	0.510917	0.720380	0.725091
	H349	H	0.520576	0.749024	0.745593
	H350	H	0.555689	0.712412	0.714207
	O351	O	-0.218271	0.985145	1.222350
	H352	H	-0.256503	0.986517	1.251672
	H353	H	-0.226332	1.015114	1.178443
	O354	O	0.122588	1.143535	-0.045774
	H355	H	0.138119	1.153421	-0.030181
	H356	H	0.107606	1.150965	-0.036643
	O357	O	-0.219195	-0.048613	0.957363
	H358	H	-0.213345	-0.062024	0.943918
	H359	H	-0.210946	-0.028435	0.940795
	O360	O	0.494820	0.514902	0.529934
	H361	H	0.496387	0.510854	0.534577
	H362	H	0.470267	0.514109	0.525175
	O363	O	0.473075	-0.708437	0.724478
	H364	H	0.487782	-0.727814	0.722309
	H365	H	0.486557	-0.715337	0.736467
	O366	O	0.521584	0.474020	0.723802
	H367	H	0.534761	0.477749	0.731294
	H368	H	0.512819	0.478950	0.709663
	O369	O	0.277157	0.528171	0.289401
	H370	H	0.275504	0.530746	0.277780
	H371	H	0.263116	0.551923	0.271907
	O372	O	1.203356	0.029428	0.889947
	H373	H	1.208665	0.043435	0.894696
	H374	H	1.218449	0.031753	0.877915
	O375	O	0.709333	0.719713	0.530467
	H376	H	0.720993	0.739376	0.518061
	H377	H	0.724531	0.709312	0.515525
	O378	O	0.427672	0.309090	0.445719
	H379	H	0.437975	0.310826	0.463157
	H380	H	0.396043	0.310793	0.462323
	O381	O	0.300628	0.448702	0.458014
	H382	H	0.296040	0.429638	0.457576
	H383	H	0.297648	0.444226	0.435831
	O384	O	0.314760	0.326923	0.681708
	H385	H	0.350647	0.331720	0.696957
	H386	H	0.320377	0.363713	0.696494
	O387	O	0.215130	-0.070495	1.094120
	H388	H	0.225484	-0.059758	1.102075
	H389	H	0.197636	-0.078781	1.079529
	O390	O	-0.065284	-0.216456	-0.055083
	H391	H	-0.054471	-0.207679	-0.045112
	H392	H	-0.060598	-0.219811	-0.054140
	O393	O	0.815533	1.184669	0.836066
	H394	H	0.804252	1.131488	0.822928
	H395	H	0.852062	1.195057	0.839351
	O396	O	0.974639	0.221065	-0.205015
	H397	H	0.971026	0.253320	-0.241801
	H398	H	0.984533	0.202489	-0.193445
	O399	O	1.210418	0.221186	1.023433
	H400	H	1.239886	0.255624	1.030617
	H401	H	1.186673	0.211275	1.025091
	O402	O	1.477036	0.721097	0.295001
	H403	H	1.464121	0.729736	0.306178
	H404	H	1.481523	0.747663	0.282093
	O405	O	0.978275	1.084471	0.065066
	H406	H	0.989089	1.083059	0.074876
	H407	H	0.972723	1.094374	0.071602
	O408	O	1.047106	-0.184111	0.084290
	H409	H	1.043282	-0.189875	0.117557
	H410	H	1.035902	-0.165802	0.079368
	O411	O	1.169209	0.832021	-0.170042
	H412	H	1.147437	0.822122	-0.151082
	H413	H	1.180918	0.849783	-0.146420
	O414	O	0.012288	0.789720	0.792001
	H415	H	0.004561	0.770380	0.782971
	H416	H	0.036016	0.778537	0.791497
	O417	O	0.465588	0.629237	0.509410
	H418	H	0.475486	0.623963	0.529191
	H419	H	0.440342	0.620673	0.502661
	O420	O	0.712738	0.468878	0.545149
	H421	H	0.694921	0.465823	0.546375
	H422	H	0.715494	0.450217	0.534770
	O423	O	0.158385	1.189006	0.188542
	H424	H	0.168529	1.172055	0.168910
	H425	H	0.115377	1.202374	0.201063
	O426	O	0.550234	0.558245	0.289497
	H427	H	0.526987	0.571571	0.296291
	H428	H	0.529020	0.562534	0.290046
	O429	O	0.705153	0.487999	0.296494
	H430	H	0.694828	0.505771	0.280633
	H431	H	0.704270	0.497623	0.274147
	O432	O	0.493793	0.411399	0.427393
	H433	H	0.496924	0.415896	0.418710
	H434	H	0.481357	0.404077	0.418570
	O435	O	0.668830	0.686550	0.689607
	H436	H	0.681670	0.697012	0.635943
	H437	H	0.679470	0.632686	0.699116
	O438	O	0.034921	0.223274	0.114087
	H439	H	0.013852	0.211827	0.101970
	H440	H	0.012931	0.230332	0.142153
	O441	O	0.773102	0.068728	0.077252
	H442	H	0.775722	0.069776	0.048356
	H443	H	0.776941	0.087738	0.053394
	O444	O	0.281839	1.486915	0.724120
	H445	H	0.261984	1.494495	0.752290
	H446	H	0.294884	1.510095	0.724041
	O447	O	0.206910	0.044935	0.221890
	H448	H	0.206136	0.057526	0.200124
	H449	H	0.237971	0.045729	0.242976
	O450	O	0.317461	0.685834	0.325492
	H451	H	0.305265	0.696423	0.378259
	H452	H	0.347189	0.673235	0.318383
	O453	O	0.275933	0.566857	0.567389
	H454	H	0.278107	0.560645	0.558430
	H455	H	0.278107	0.543014	0.569338
