data_Molecule from HDF5

_cell_length_a		16.315921
_cell_length_b		16.365886
_cell_length_c		16.153221
_cell_angle_alpha	89.898333
_cell_angle_beta	90.162807
_cell_angle_gamma	89.937471
_symmetry_space_group_name_H-M	'P 1'
_symmetry_Int_Tables_number		1

loop_
	_symmetry_equiv_pos_as_xyz
	x,y,z

loop_
	_atom_site_label
	_atom_site_type_symbol
	_atom_site_fract_x
	_atom_site_fract_y
	_atom_site_fract_z
	H0	H	0.409662	0.833854	0.712735
	H1	H	0.604915	0.161103	0.712877
	H2	H	0.604493	0.833992	0.284943
	H3	H	0.409272	0.161000	0.283739
	H4	H	0.720528	0.399672	0.833925
	H5	H	0.720607	0.594670	0.164628
	H6	H	0.292862	0.597018	0.834379
	H7	H	0.293894	0.399204	0.163578
	H8	H	0.844001	0.713245	0.399029
	H9	H	0.169853	0.713341	0.600073
	H10	H	0.843479	0.281910	0.599612
	H11	H	0.169565	0.280491	0.398722
	H12	H	0.842704	0.401073	0.711941
	H13	H	0.170933	0.593612	0.712486
	H14	H	0.843060	0.594484	0.285691
	H15	H	0.171341	0.401704	0.286456
	H16	H	0.407635	0.712327	0.834387
	H17	H	0.605824	0.710934	0.163890
	H18	H	0.606633	0.282882	0.835318
	H19	H	0.407922	0.282836	0.163658
	H20	H	0.723096	0.835128	0.398878
	H21	H	0.723126	0.160070	0.599187
	H22	H	0.291241	0.835367	0.599054
	H23	H	0.290325	0.160070	0.397874
	H24	H	0.911622	0.334720	0.212182
	H25	H	0.104550	0.661920	0.212467
	H26	H	0.104708	0.333897	0.785260
	H27	H	0.910533	0.661485	0.785652
	H28	H	0.220961	0.898507	0.334156
	H29	H	0.222094	0.095954	0.663399
	H30	H	0.791724	0.096305	0.334352
	H31	H	0.793910	0.898749	0.664165
	H32	H	0.344984	0.214772	0.897139
	H33	H	0.669973	0.213688	0.100710
	H34	H	0.344519	0.781429	0.098972
	H35	H	0.670384	0.781867	0.899177
	H36	H	0.343269	0.900687	0.211547
	H37	H	0.671075	0.093836	0.213629
	H38	H	0.343873	0.094529	0.785034
	H39	H	0.671716	0.900595	0.786239
	H40	H	0.906208	0.212261	0.334458
	H41	H	0.105929	0.211385	0.664028
	H42	H	0.106644	0.782260	0.334733
	H43	H	0.909213	0.783186	0.663753
	H44	H	0.223529	0.335209	0.899608
	H45	H	0.223705	0.660860	0.098481
	H46	H	0.793195	0.335028	0.099159
	H47	H	0.791514	0.660291	0.898991
	H48	H	0.419673	0.111619	0.591564
	H49	H	0.597981	0.879725	0.600802
	H50	H	0.595591	0.109558	0.413911
	H51	H	0.411569	0.882108	0.408275
	H52	H	0.606505	0.399769	0.120000
	H53	H	0.606986	0.592530	0.879813
	H54	H	0.411068	0.584398	0.115450
	H55	H	0.419511	0.404628	0.883491
	H56	H	0.120949	0.589432	0.413717
	H57	H	0.893422	0.589286	0.583372
	H58	H	0.115438	0.414840	0.579054
	H59	H	0.892147	0.404541	0.411848
	H60	H	0.126118	0.408915	0.607833
	H61	H	0.889879	0.586405	0.597997
	H62	H	0.123672	0.586720	0.400589
	H63	H	0.891473	0.407820	0.400719
	H64	H	0.422598	0.590506	0.113831
	H65	H	0.598296	0.584445	0.883663
	H66	H	0.602415	0.412650	0.115559
	H67	H	0.412761	0.402982	0.880696
	H68	H	0.608058	0.115121	0.408005
	H69	H	0.597031	0.884026	0.586341
	H70	H	0.412563	0.112109	0.585483
	H71	H	0.412619	0.880722	0.403709
	H72	H	0.911004	0.615537	0.093023
	H73	H	0.097220	0.382189	0.096494
	H74	H	0.100621	0.614160	0.901805
	H75	H	0.912406	0.380802	0.901678
	H76	H	0.111813	0.911280	0.617879
	H77	H	0.097589	0.088887	0.383577
	H78	H	0.923901	0.093866	0.614889
	H79	H	0.920681	0.900873	0.383260
	H80	H	0.620823	0.085252	0.911116
	H81	H	0.389970	0.085853	0.100994
	H82	H	0.621931	0.902476	0.086874
	H83	H	0.391007	0.897151	0.910662
	H84	H	0.622644	0.907969	0.093080
	H85	H	0.388495	0.102702	0.089260
	H86	H	0.626287	0.090735	0.898063
	H87	H	0.394361	0.910467	0.908354
	H88	H	0.907411	0.095943	0.620504
	H89	H	0.097004	0.091896	0.381828
	H90	H	0.088962	0.911142	0.610313
	H91	H	0.907768	0.902409	0.378367
	H92	H	0.096546	0.611297	0.907492
	H93	H	0.099537	0.384889	0.085388
	H94	H	0.915248	0.613712	0.093518
	H95	H	0.917705	0.383348	0.907318
	H96	H	0.411548	0.115190	0.594098
	H97	H	0.610130	0.879825	0.591179
	H98	H	0.596065	0.113527	0.399285
	H99	H	0.415654	0.882671	0.406435
	H100	H	0.593593	0.402035	0.115659
	H101	H	0.595066	0.595582	0.880873
	H102	H	0.412494	0.596287	0.119214
	H103	H	0.414499	0.410343	0.882156
	H104	H	0.125895	0.598978	0.406219
	H105	H	0.888064	0.600333	0.592655
	H106	H	0.126577	0.386353	0.586537
	H107	H	0.888472	0.397167	0.403921
	H108	H	0.913254	0.613893	0.089810
	H109	H	0.107447	0.381087	0.092803
	H110	H	0.104030	0.613656	0.909049
	H111	H	0.909585	0.381170	0.909576
	H112	H	0.098743	0.891210	0.619759
	H113	H	0.100066	0.090596	0.381070
	H114	H	0.912139	0.080170	0.613896
	H115	H	0.914592	0.912518	0.384370
	H116	H	0.625286	0.099940	0.909907
	H117	H	0.396201	0.085078	0.081036
	H118	H	0.625807	0.900423	0.093854
	H119	H	0.388291	0.903220	0.898320
	C120	C	0.385466	0.005573	0.620214
	C121	C	0.629475	0.989420	0.620987
	C122	C	0.628613	0.005295	0.377909
	C123	C	0.384923	0.989231	0.376793
	C124	C	0.629127	0.376302	0.008085
	C125	C	0.628512	0.618918	0.990568
	C126	C	0.386390	0.618944	0.007338
	C127	C	0.386475	0.377027	0.990816
	C128	C	0.015420	0.619809	0.377960
	C129	C	0.998548	0.619983	0.620826
	C130	C	0.014796	0.375587	0.620401
	C131	C	0.998780	0.375463	0.377475
	C132	C	0.885712	0.506388	0.120641
	C133	C	0.129962	0.490017	0.120963
	C134	C	0.128779	0.505454	0.877742
	C135	C	0.884980	0.489581	0.877310
	C136	C	0.128349	0.876172	0.507138
	C137	C	0.127707	0.118801	0.490735
	C138	C	0.885375	0.118704	0.507700
	C139	C	0.886035	0.876557	0.490958
	C140	C	0.516079	0.120224	0.877203
	C141	C	0.499281	0.119247	0.120250
	C142	C	0.515550	0.875373	0.120360
	C143	C	0.499121	0.875614	0.877465
	C144	C	0.388495	0.882938	0.675642
	C145	C	0.626048	0.112179	0.675515
	C146	C	0.625846	0.882722	0.322253
	C147	C	0.387816	0.112110	0.321408
	C148	C	0.683273	0.379428	0.883460
	C149	C	0.683021	0.615530	0.115264
	C150	C	0.330690	0.616912	0.883482
	C151	C	0.331407	0.378591	0.114642
	C152	C	0.892480	0.674919	0.379454
	C153	C	0.121299	0.674953	0.619539
	C154	C	0.892070	0.320468	0.618698
	C155	C	0.121228	0.319688	0.379286
	C156	C	0.891616	0.379719	0.674709
	C157	C	0.121986	0.615331	0.675352
	C158	C	0.891938	0.616037	0.323028
	C159	C	0.122161	0.379662	0.323443
	C160	C	0.387558	0.674482	0.883552
	C161	C	0.626059	0.673223	0.114948
	C162	C	0.626534	0.321394	0.884029
	C163	C	0.387914	0.320695	0.114481
	C164	C	0.684786	0.883412	0.378908
	C165	C	0.684628	0.111638	0.618702
	C166	C	0.329367	0.883644	0.619175
	C167	C	0.328819	0.111667	0.377992
	C168	C	0.890258	0.383537	0.174839
	C169	C	0.126563	0.612975	0.175518
	C170	C	0.125970	0.382780	0.822772
	C171	C	0.888683	0.612281	0.822359
	C172	C	0.183254	0.878287	0.383245
	C173	C	0.184031	0.116376	0.614408
	C174	C	0.830055	0.116338	0.383485
	C175	C	0.831327	0.878538	0.614919
	C176	C	0.393662	0.176312	0.877677
	C177	C	0.621706	0.175068	0.119858
	C178	C	0.393049	0.819785	0.118728
	C179	C	0.621953	0.820264	0.879571
	C180	C	0.392291	0.879174	0.174669
	C181	C	0.622393	0.115444	0.175624
	C182	C	0.393031	0.116517	0.821858
	C183	C	0.622672	0.879532	0.823567
	C184	C	0.886756	0.174210	0.383635
	C185	C	0.126128	0.173625	0.614739
	C186	C	0.126552	0.820617	0.383563
	C187	C	0.888966	0.821407	0.614969
	C188	C	0.185081	0.383500	0.879558
	C189	C	0.185706	0.612312	0.119244
	C190	C	0.831302	0.383771	0.118591
	C191	C	0.829838	0.611775	0.878854
	C192	C	0.407852	0.090901	0.597188
	C193	C	0.608016	0.903435	0.599203
	C194	C	0.606391	0.090715	0.400456
	C195	C	0.406722	0.904046	0.399399
	C196	C	0.607311	0.398372	0.094675
	C197	C	0.606582	0.597206	0.903958
	C198	C	0.408948	0.596831	0.093860
	C199	C	0.409012	0.399511	0.904465
	C200	C	0.101170	0.598109	0.400317
	C201	C	0.912596	0.598453	0.598150
	C202	C	0.100503	0.397084	0.597859
	C203	C	0.912836	0.396875	0.399123
	C204	C	0.906937	0.592309	0.098749
	C205	C	0.107735	0.404887	0.098354
	C206	C	0.106709	0.590891	0.899695
	C207	C	0.906844	0.404068	0.899619
	C208	C	0.106402	0.898085	0.593555
	C209	C	0.104986	0.096778	0.404472
	C210	C	0.907915	0.096676	0.594137
	C211	C	0.907953	0.898623	0.404319
	C212	C	0.601916	0.098371	0.899917
	C213	C	0.413710	0.097632	0.097211
	C214	C	0.601443	0.897188	0.097822
	C215	C	0.413377	0.897226	0.899330
	Zn216	Zn	0.507853	-0.002491	0.749148
	Zn217	Zn	0.507100	-0.002725	0.248591
	Zn218	Zn	0.756821	0.497866	-0.000659
	Zn219	Zn	0.258499	0.498054	-0.000782
	Zn220	Zn	0.007102	0.748695	0.499161
	Zn221	Zn	0.006441	0.246348	0.499359
	Zn222	Zn	0.007060	0.497401	0.748505
	Zn223	Zn	0.007511	0.498459	0.249414
	Zn224	Zn	0.507389	0.746720	-0.001064
	Zn225	Zn	0.507390	0.248692	-0.000807
	Zn226	Zn	0.758053	-0.002679	0.499323
	Zn227	Zn	0.256155	-0.002798	0.498355
	N228	N	0.422709	0.959912	0.676371
	N229	N	0.592135	0.035159	0.676648
	N230	N	0.591425	0.959569	0.321593
	N231	N	0.421813	0.035168	0.320345
	N232	N	0.685106	0.412815	0.961749
	N233	N	0.685026	0.582673	0.036950
	N234	N	0.329884	0.583125	0.961516
	N235	N	0.330440	0.412875	0.036979
	N236	N	0.970188	0.677462	0.412707
	N237	N	0.043447	0.678008	0.586475
	N238	N	0.969776	0.317810	0.585577
	N239	N	0.043531	0.316847	0.412006
	N240	N	0.968819	0.413248	0.675767
	N241	N	0.044735	0.581808	0.676073
	N242	N	0.969328	0.582632	0.321729
	N243	N	0.045038	0.413546	0.322180
	N244	N	0.421705	0.675722	0.961448
	N245	N	0.592957	0.675355	0.036498
	N246	N	0.593650	0.319334	0.962306
	N247	N	0.421579	0.319559	0.036405
	N248	N	0.686514	0.960501	0.412909
	N249	N	0.686882	0.034206	0.585747
	N250	N	0.327503	0.960765	0.585276
	N251	N	0.326686	0.034371	0.411706
	N252	N	0.923266	0.460855	0.176332
	N253	N	0.092762	0.535866	0.177093
	N254	N	0.091835	0.459540	0.821408
	N255	N	0.922413	0.535079	0.821216
	N256	N	0.184568	0.912130	0.461157
	N257	N	0.184973	0.082932	0.536288
	N258	N	0.829000	0.082540	0.461476
	N259	N	0.829699	0.912343	0.536856
	N260	N	0.471343	0.178773	0.911130
	N261	N	0.544241	0.177348	0.085866
	N262	N	0.470756	0.817246	0.085932
	N263	N	0.544198	0.817729	0.912318
	N264	N	0.469498	0.913094	0.175664
	N265	N	0.545329	0.081427	0.175975
	N266	N	0.470113	0.082350	0.821509
	N267	N	0.545370	0.913188	0.822038
	N268	N	0.920632	0.175593	0.461757
	N269	N	0.092032	0.175240	0.536820
	N270	N	0.093018	0.819344	0.461533
	N271	N	0.922188	0.820349	0.536865
	N272	N	0.186928	0.460741	0.913036
	N273	N	0.187762	0.534983	0.085852
	N274	N	0.828534	0.461230	0.085495
	N275	N	0.827391	0.534562	0.912286
	O276	O	1.051492	0.961262	0.029377
	H277	H	1.058436	0.967305	0.041550
	H278	H	1.050044	0.969489	0.034569
	O279	O	0.028714	0.034715	0.012150
	H280	H	0.019905	0.028667	0.000502
	H281	H	0.029120	0.036819	0.002190
	O282	O	0.057980	0.010225	0.999222
	H283	H	0.060996	0.020017	0.997780
	H284	H	0.058050	0.008401	1.004477
	O285	O	0.488487	0.477055	0.501519
	H286	H	0.495235	0.471666	0.499728
	H287	H	0.482756	0.467127	0.497605
	O288	O	0.473560	0.469899	0.588456
	H289	H	0.477905	0.476223	0.593330
	H290	H	0.467954	0.482648	0.594588
	O291	O	0.435088	0.527536	0.526856
	H292	H	0.435344	0.526080	0.517532
	H293	H	0.432790	0.528394	0.518893
	O294	O	-0.017667	0.062290	0.037543
	H295	H	-0.030146	0.071148	0.036540
	H296	H	-0.022858	0.060049	0.025897
	O297	O	0.464856	0.454762	0.475618
	H298	H	0.454885	0.444659	0.473307
	H299	H	0.457800	0.457609	0.476847
	O300	O	0.014730	1.013614	0.960333
	H301	H	0.018336	1.006628	0.954455
	H302	H	0.021576	1.012130	0.964369
	O303	O	0.487022	0.465032	0.491948
	H304	H	0.489152	0.459993	0.490986
	H305	H	0.487595	0.461169	0.489716
	O306	O	-0.903645	0.045088	0.997225
	H307	H	-0.901355	0.050193	1.007863
	H308	H	-0.894675	0.042431	1.001292
	O309	O	1.002049	1.055132	0.956423
	H310	H	1.000655	1.051549	0.960716
	H311	H	1.010883	1.047018	0.952185
	O312	O	0.470374	0.517891	0.455503
	H313	H	0.465472	0.519301	0.455874
	H314	H	0.468172	0.515145	0.460414
	O315	O	0.465513	0.447512	0.578887
	H316	H	0.469945	0.452364	0.584132
	H317	H	0.467640	0.448759	0.585572
	O318	O	0.056325	0.968950	0.017279
	H319	H	0.052672	0.971046	0.010845
	H320	H	0.062175	0.969701	0.021623
	O321	O	0.986502	0.991969	-0.030998
	H322	H	0.983961	0.989529	-0.020137
	H323	H	0.985440	0.986692	-0.035256
