data_Molecule from HDF5

_cell_length_a		16.220963
_cell_length_b		16.344997
_cell_length_c		16.277210
_cell_angle_alpha	90.034008
_cell_angle_beta	89.977927
_cell_angle_gamma	89.678457
_symmetry_space_group_name_H-M	'P 1'
_symmetry_Int_Tables_number		1

loop_
	_symmetry_equiv_pos_as_xyz
	x,y,z

loop_
	_atom_site_label
	_atom_site_type_symbol
	_atom_site_fract_x
	_atom_site_fract_y
	_atom_site_fract_z
	H0	H	0.405225	0.832091	0.715838
	H1	H	0.601377	0.158197	0.717791
	H2	H	0.602983	0.831834	0.286887
	H3	H	0.403052	0.158408	0.287432
	H4	H	0.717909	0.395894	0.839232
	H5	H	0.716243	0.592541	0.166397
	H6	H	0.288936	0.593355	0.838519
	H7	H	0.290672	0.400534	0.166637
	H8	H	0.839660	0.711502	0.403687
	H9	H	0.167438	0.709589	0.599971
	H10	H	0.839197	0.283158	0.602234
	H11	H	0.166389	0.280140	0.402454
	H12	H	0.838850	0.400142	0.716101
	H13	H	0.167227	0.595435	0.717667
	H14	H	0.839708	0.596002	0.288299
	H15	H	0.167269	0.397697	0.288685
	H16	H	0.402179	0.710681	0.838595
	H17	H	0.600756	0.710421	0.166129
	H18	H	0.603223	0.280432	0.839109
	H19	H	0.403065	0.280406	0.165114
	H20	H	0.719401	0.832732	0.403320
	H21	H	0.714558	0.159816	0.599480
	H22	H	0.289675	0.831622	0.599219
	H23	H	0.287366	0.158422	0.403841
	H24	H	0.904100	0.333211	0.218655
	H25	H	0.100282	0.659111	0.216645
	H26	H	0.104982	0.333621	0.786080
	H27	H	0.902914	0.659228	0.787758
	H28	H	0.216023	0.897698	0.338051
	H29	H	0.215560	0.091250	0.665892
	H30	H	0.787594	0.094806	0.338181
	H31	H	0.790295	0.899891	0.666349
	H32	H	0.338545	0.211580	0.902907
	H33	H	0.667075	0.209541	0.101130
	H34	H	0.337951	0.782771	0.100129
	H35	H	0.665572	0.777828	0.901887
	H36	H	0.337879	0.898877	0.214994
	H37	H	0.667231	0.091735	0.215533
	H38	H	0.337955	0.093326	0.788818
	H39	H	0.667252	0.894876	0.787390
	H40	H	0.902497	0.212581	0.338219
	H41	H	0.102171	0.209841	0.665792
	H42	H	0.102740	0.780015	0.339184
	H43	H	0.903435	0.780812	0.665242
	H44	H	0.219369	0.333138	0.903567
	H45	H	0.215588	0.659365	0.100487
	H46	H	0.790597	0.331149	0.100442
	H47	H	0.786007	0.658680	0.904192
	H48	H	0.413999	0.106638	0.585024
	H49	H	0.604652	0.880530	0.584791
	H50	H	0.604274	0.112393	0.413792
	H51	H	0.417303	0.881066	0.409092
	H52	H	0.596550	0.398261	0.120300
	H53	H	0.592052	0.592103	0.885399
	H54	H	0.415862	0.599126	0.119836
	H55	H	0.413945	0.410151	0.888720
	H56	H	0.123269	0.600244	0.410830
	H57	H	0.885362	0.594792	0.594083
	H58	H	0.118491	0.398640	0.584567
	H59	H	0.884885	0.401589	0.407919
	H60	H	0.118010	0.412116	0.596183
	H61	H	0.888903	0.586241	0.591282
	H62	H	0.116495	0.582996	0.417277
	H63	H	0.887025	0.404694	0.413269
	H64	H	0.398663	0.590712	0.122593
	H65	H	0.599170	0.586257	0.885205
	H66	H	0.597328	0.404432	0.118636
	H67	H	0.415496	0.395177	0.884922
	H68	H	0.593649	0.113989	0.397035
	H69	H	0.601505	0.874950	0.604955
	H70	H	0.397246	0.114614	0.594865
	H71	H	0.403832	0.878412	0.413704
	H72	H	0.896809	0.614683	0.095372
	H73	H	0.091029	0.380388	0.096557
	H74	H	0.093326	0.610590	0.912893
	H75	H	0.913042	0.380475	0.909842
	H76	H	0.097965	0.897910	0.621147
	H77	H	0.083197	0.091250	0.388469
	H78	H	0.910211	0.095513	0.619377
	H79	H	0.913141	0.904579	0.387214
	H80	H	0.619231	0.086257	0.906810
	H81	H	0.383805	0.092254	0.097946
	H82	H	0.619568	0.902138	0.096352
	H83	H	0.384743	0.904440	0.905473
	H84	H	0.618697	0.899402	0.092155
	H85	H	0.386509	0.091384	0.089989
	H86	H	0.620439	0.091105	0.908004
	H87	H	0.385015	0.900167	0.908042
	H88	H	0.904029	0.089963	0.619384
	H89	H	0.101116	0.098135	0.380439
	H90	H	0.098728	0.906427	0.617815
	H91	H	0.911374	0.900978	0.384896
	H92	H	0.099667	0.613191	0.908796
	H93	H	0.099872	0.380445	0.090658
	H94	H	0.915220	0.612848	0.106208
	H95	H	0.909259	0.379858	0.909993
	H96	H	0.416058	0.112158	0.604938
	H97	H	0.585172	0.882941	0.593693
	H98	H	0.584618	0.106344	0.413730
	H99	H	0.407613	0.875990	0.400284
	H100	H	0.591726	0.401679	0.118237
	H101	H	0.590902	0.583639	0.889514
	H102	H	0.413442	0.581180	0.114485
	H103	H	0.401651	0.402895	0.882740
	H104	H	0.122951	0.583996	0.397827
	H105	H	0.886124	0.587908	0.600098
	H106	H	0.124531	0.396463	0.601608
	H107	H	0.886549	0.408047	0.408056
	H108	H	0.914272	0.606336	0.085745
	H109	H	0.100429	0.377167	0.100919
	H110	H	0.092317	0.611933	0.905786
	H111	H	0.911029	0.379669	0.906238
	H112	H	0.090541	0.902024	0.617533
	H113	H	0.099459	0.078953	0.386493
	H114	H	0.911883	0.087724	0.616835
	H115	H	0.909417	0.904491	0.385313
	H116	H	0.618548	0.087775	0.912076
	H117	H	0.387804	0.084516	0.095889
	H118	H	0.618588	0.904226	0.091520
	H119	H	0.386466	0.904142	0.909632
	C120	C	0.381404	0.003240	0.622899
	C121	C	0.624938	0.986985	0.623817
	C122	C	0.624341	0.003442	0.379327
	C123	C	0.380502	0.986695	0.379493
	C124	C	0.624606	0.372909	0.010895
	C125	C	0.623220	0.616422	0.994536
	C126	C	0.380576	0.618514	0.010726
	C127	C	0.381846	0.374788	0.993585
	C128	C	0.012175	0.618024	0.380503
	C129	C	0.994898	0.617771	0.623720
	C130	C	0.011748	0.375001	0.623247
	C131	C	0.994606	0.375594	0.381271
	C132	C	0.880837	0.503746	0.124713
	C133	C	0.124162	0.487772	0.123861
	C134	C	0.124822	0.504418	0.880331
	C135	C	0.881089	0.487803	0.880288
	C136	C	0.124247	0.873794	0.510683
	C137	C	0.123943	0.117671	0.493330
	C138	C	0.880108	0.119305	0.510351
	C139	C	0.881964	0.874667	0.493805
	C140	C	0.511171	0.117259	0.880112
	C141	C	0.494276	0.117365	0.123465
	C142	C	0.510497	0.874316	0.122503
	C143	C	0.493945	0.873605	0.879833
	C144	C	0.384907	0.880634	0.677634
	C145	C	0.621808	0.109609	0.679321
	C146	C	0.623219	0.880847	0.324505
	C147	C	0.382569	0.109400	0.324813
	C148	C	0.680007	0.375626	0.887906
	C149	C	0.678287	0.613442	0.117471
	C150	C	0.325936	0.614915	0.887451
	C151	C	0.327690	0.378906	0.117526
	C152	C	0.888652	0.673429	0.383433
	C153	C	0.118471	0.672185	0.621009
	C154	C	0.888212	0.320895	0.621912
	C155	C	0.117593	0.318884	0.382716
	C156	C	0.887944	0.379032	0.678409
	C157	C	0.118485	0.615423	0.679218
	C158	C	0.888557	0.616021	0.325957
	C159	C	0.118187	0.377297	0.326323
	C160	C	0.382289	0.673197	0.887658
	C161	C	0.621215	0.672253	0.117105
	C162	C	0.622997	0.318232	0.887880
	C163	C	0.383310	0.319246	0.116652
	C164	C	0.680850	0.881146	0.382517
	C165	C	0.678128	0.110392	0.620704
	C166	C	0.327072	0.880534	0.619963
	C167	C	0.325134	0.109588	0.382953
	C168	C	0.883800	0.381358	0.180125
	C169	C	0.120312	0.610678	0.178311
	C170	C	0.124253	0.382053	0.824507
	C171	C	0.882534	0.610403	0.825518
	C172	C	0.179064	0.876510	0.387237
	C173	C	0.178416	0.113266	0.616942
	C174	C	0.825384	0.116015	0.387032
	C175	C	0.827450	0.878496	0.617280
	C176	C	0.387555	0.172993	0.882484
	C177	C	0.617918	0.171593	0.121049
	C178	C	0.386882	0.820212	0.120676
	C179	C	0.617239	0.817074	0.882205
	C180	C	0.386930	0.877857	0.177692
	C181	C	0.618146	0.113325	0.178037
	C182	C	0.387233	0.114194	0.825850
	C183	C	0.617947	0.874967	0.824975
	C184	C	0.882563	0.174301	0.387164
	C185	C	0.121868	0.172145	0.616704
	C186	C	0.122296	0.818613	0.387608
	C187	C	0.883513	0.819283	0.616584
	C188	C	0.181243	0.381852	0.882952
	C189	C	0.177920	0.610698	0.120596
	C190	C	0.827297	0.380447	0.121289
	C191	C	0.824453	0.610077	0.883427
	C192	C	0.402783	0.089031	0.601125
	C193	C	0.603496	0.901555	0.601216
	C194	C	0.600916	0.089047	0.401573
	C195	C	0.402991	0.900656	0.401252
	C196	C	0.601864	0.394943	0.096753
	C197	C	0.600663	0.593943	0.908801
	C198	C	0.402839	0.596752	0.096783
	C199	C	0.403994	0.396323	0.907696
	C200	C	0.098695	0.595605	0.402100
	C201	C	0.908904	0.596159	0.601604
	C202	C	0.098065	0.396206	0.600905
	C203	C	0.908321	0.398283	0.403189
	C204	C	0.902379	0.589156	0.102263
	C205	C	0.103223	0.401713	0.102393
	C206	C	0.101669	0.589805	0.902698
	C207	C	0.904315	0.402188	0.902198
	C208	C	0.102272	0.895726	0.596574
	C209	C	0.101425	0.095905	0.407459
	C210	C	0.902197	0.097525	0.596380
	C211	C	0.904645	0.896720	0.408009
	C212	C	0.597195	0.095110	0.902392
	C213	C	0.408165	0.095743	0.101186
	C214	C	0.596603	0.895705	0.100010
	C215	C	0.407770	0.896107	0.901335
	Zn216	Zn	0.502959	-0.004709	0.752100
	Zn217	Zn	0.502557	-0.005265	0.250889
	Zn218	Zn	0.752366	0.494363	0.002591
	Zn219	Zn	0.253138	0.496404	0.002333
	Zn220	Zn	0.003283	0.745787	0.501994
	Zn221	Zn	0.002776	0.246687	0.502067
	Zn222	Zn	0.003327	0.496247	0.751608
	Zn223	Zn	0.002949	0.496016	0.252685
	Zn224	Zn	0.501698	0.745978	0.001933
	Zn225	Zn	0.502846	0.245476	0.002047
	Zn226	Zn	0.753065	-0.003795	0.501999
	Zn227	Zn	0.252169	-0.004865	0.501775
	N228	N	0.417769	0.958082	0.679858
	N229	N	0.589535	0.032075	0.681468
	N230	N	0.588719	0.957895	0.322638
	N231	N	0.416592	0.031994	0.322989
	N232	N	0.681075	0.408973	0.965482
	N233	N	0.679816	0.579429	0.040184
	N234	N	0.324825	0.581528	0.964969
	N235	N	0.326580	0.412681	0.039984
	N236	N	0.966461	0.674549	0.416711
	N237	N	0.040878	0.673638	0.587124
	N238	N	0.966046	0.318140	0.588389
	N239	N	0.039705	0.317817	0.416207
	N240	N	0.965873	0.411847	0.679471
	N241	N	0.040615	0.582275	0.681049
	N242	N	0.966378	0.582274	0.324059
	N243	N	0.040702	0.411828	0.325259
	N244	N	0.415523	0.675316	0.965288
	N245	N	0.587690	0.674077	0.039521
	N246	N	0.589215	0.316383	0.965380
	N247	N	0.416513	0.316877	0.038812
	N248	N	0.681743	0.958480	0.415899
	N249	N	0.680290	0.033095	0.586909
	N250	N	0.325099	0.957816	0.586435
	N251	N	0.323741	0.032185	0.416107
	N252	N	0.916412	0.458783	0.182212
	N253	N	0.087704	0.533167	0.180397
	N254	N	0.089820	0.459225	0.823072
	N255	N	0.916905	0.533257	0.823627
	N256	N	0.180326	0.910266	0.464569
	N257	N	0.179753	0.079976	0.539383
	N258	N	0.823880	0.082555	0.464533
	N259	N	0.826488	0.912310	0.539840
	N260	N	0.465477	0.174725	0.915680
	N261	N	0.539925	0.174170	0.087722
	N262	N	0.464597	0.817890	0.087165
	N263	N	0.539387	0.816118	0.915625
	N264	N	0.464763	0.910915	0.178721
	N265	N	0.540515	0.080251	0.179466
	N266	N	0.465018	0.080275	0.824196
	N267	N	0.540458	0.909604	0.823654
	N268	N	0.915771	0.176429	0.464934
	N269	N	0.088596	0.174718	0.538867
	N270	N	0.089134	0.816713	0.465373
	N271	N	0.916741	0.816970	0.538884
	N272	N	0.181627	0.458836	0.917186
	N273	N	0.180399	0.533272	0.087526
	N274	N	0.825171	0.457645	0.087538
	N275	N	0.823500	0.532811	0.916773
	O276	O	1.006542	1.041804	0.007241
	H277	H	1.002884	1.034876	0.007382
	H278	H	1.001331	1.038487	0.011546
	O279	O	-0.045502	-0.027666	0.016294
	H280	H	-0.047726	-0.022700	0.019950
	H281	H	-0.041451	-0.035470	0.009296
	O282	O	-0.019441	0.018780	1.015686
	H283	H	-0.016471	0.022201	1.012048
	H284	H	-0.019736	0.013025	1.011958
	O285	O	0.584755	0.469031	0.488144
	H286	H	0.586139	0.458205	0.491742
	H287	H	0.586054	0.464460	0.484842
	O288	O	0.519645	0.470873	0.569041
	H289	H	0.528377	0.479423	0.565754
	H290	H	0.517223	0.470731	0.575170
	O291	O	0.553210	0.488552	0.504488
	H292	H	0.553385	0.485739	0.501403
	H293	H	0.561286	0.487181	0.503639
	O294	O	0.002971	0.019852	-0.021018
	H295	H	0.007359	0.030858	-0.020960
	H296	H	0.008821	0.025678	-0.023381
	O297	O	0.623895	0.463857	0.541310
	H298	H	0.639385	0.460172	0.550009
	H299	H	0.625075	0.468363	0.532956
	O300	O	-0.010027	1.016540	0.940450
	H301	H	-0.021792	1.015022	0.941471
	H302	H	-0.014187	1.019494	0.932956
	O303	O	0.540034	0.471264	0.548166
	H304	H	0.538171	0.471823	0.553593
	H305	H	0.540895	0.478341	0.545899
	O306	O	-0.444746	0.433429	0.542898
	H307	H	-0.447478	0.435553	0.536469
	H308	H	-0.447565	0.441383	0.539607
	O309	O	0.943870	0.997307	1.022620
	H310	H	0.949111	1.000803	1.021468
	H311	H	0.944856	1.003833	1.028109
	O312	O	0.574275	0.491590	0.534571
	H313	H	0.575877	0.490940	0.536687
	H314	H	0.563212	0.491835	0.537220
	O315	O	0.520085	0.438684	0.518215
	H316	H	0.521316	0.438198	0.516294
	H317	H	0.518125	0.438348	0.530122
	O318	O	-0.026367	0.998144	-0.080418
	H319	H	-0.036714	1.006404	-0.083783
	H320	H	-0.021379	0.983345	-0.075050
	O321	O	0.919074	0.989196	0.000198
	H322	H	0.907171	0.992521	-0.005880
	H323	H	0.921334	0.991519	-0.000402
