data_Molecule from HDF5

_cell_length_a		16.316245
_cell_length_b		16.177291
_cell_length_c		16.476993
_cell_angle_alpha	89.803462
_cell_angle_beta	90.253713
_cell_angle_gamma	90.128812
_symmetry_space_group_name_H-M	'P 1'
_symmetry_Int_Tables_number		1

loop_
	_symmetry_equiv_pos_as_xyz
	x,y,z

loop_
	_atom_site_label
	_atom_site_type_symbol
	_atom_site_fract_x
	_atom_site_fract_y
	_atom_site_fract_z
	H0	H	0.378706	0.831412	0.711049
	H1	H	0.585913	0.156013	0.712724
	H2	H	0.581921	0.830600	0.278628
	H3	H	0.379167	0.156568	0.274587
	H4	H	0.700582	0.388597	0.836667
	H5	H	0.698543	0.595958	0.156012
	H6	H	0.258790	0.595051	0.836339
	H7	H	0.262297	0.388516	0.156199
	H8	H	0.817991	0.708669	0.396859
	H9	H	0.143612	0.709609	0.595295
	H10	H	0.818642	0.275886	0.596097
	H11	H	0.143751	0.281199	0.399398
	H12	H	0.817660	0.389979	0.714416
	H13	H	0.141061	0.598701	0.716819
	H14	H	0.819858	0.597310	0.277077
	H15	H	0.140176	0.389193	0.277868
	H16	H	0.374204	0.713144	0.835882
	H17	H	0.579660	0.709701	0.156685
	H18	H	0.579130	0.277792	0.833935
	H19	H	0.380716	0.273928	0.155325
	H20	H	0.696644	0.830611	0.395290
	H21	H	0.696977	0.157983	0.593144
	H22	H	0.264837	0.831487	0.593329
	H23	H	0.266993	0.159082	0.393198
	H24	H	0.875723	0.332437	0.216882
	H25	H	0.085678	0.654820	0.215438
	H26	H	0.081613	0.332375	0.777980
	H27	H	0.871895	0.656155	0.775604
	H28	H	0.199844	0.891894	0.335286
	H29	H	0.205785	0.102363	0.652581
	H30	H	0.762413	0.098465	0.334357
	H31	H	0.759816	0.887580	0.654030
	H32	H	0.318764	0.208405	0.892837
	H33	H	0.642377	0.209827	0.094425
	H34	H	0.316929	0.779151	0.091739
	H35	H	0.642425	0.774367	0.895455
	H36	H	0.320389	0.886284	0.214856
	H37	H	0.640686	0.098988	0.215035
	H38	H	0.321315	0.098293	0.772551
	H39	H	0.641861	0.885338	0.774300
	H40	H	0.879795	0.214247	0.335390
	H41	H	0.083664	0.212045	0.656004
	H42	H	0.083232	0.775993	0.335337
	H43	H	0.878793	0.774874	0.655198
	H44	H	0.191782	0.329586	0.897736
	H45	H	0.199491	0.654765	0.098730
	H46	H	0.761230	0.331108	0.100652
	H47	H	0.760581	0.656468	0.895172
	H48	H	0.392303	0.111313	0.587040
	H49	H	0.567560	0.876736	0.591919
	H50	H	0.580647	0.115461	0.396520
	H51	H	0.393839	0.880074	0.401350
	H52	H	0.575191	0.401733	0.109856
	H53	H	0.565698	0.589647	0.881569
	H54	H	0.386664	0.581879	0.109715
	H55	H	0.390141	0.402596	0.882315
	H56	H	0.100290	0.596184	0.403574
	H57	H	0.865101	0.587271	0.584977
	H58	H	0.093616	0.410861	0.592585
	H59	H	0.866445	0.404860	0.409398
	H60	H	0.096486	0.402177	0.592017
	H61	H	0.866443	0.581015	0.586857
	H62	H	0.091410	0.580715	0.415158
	H63	H	0.864954	0.408344	0.402690
	H64	H	0.390095	0.583522	0.109084
	H65	H	0.576663	0.579751	0.881060
	H66	H	0.568255	0.404835	0.107269
	H67	H	0.383091	0.396310	0.879301
	H68	H	0.560524	0.108123	0.396654
	H69	H	0.567021	0.881583	0.579071
	H70	H	0.396871	0.108708	0.584027
	H71	H	0.389384	0.879452	0.409004
	H72	H	0.900725	0.607885	0.091239
	H73	H	0.068192	0.377028	0.088372
	H74	H	0.070910	0.611403	0.903188
	H75	H	0.891744	0.380478	0.909091
	H76	H	0.068485	0.902087	0.607419
	H77	H	0.073589	0.089971	0.379122
	H78	H	0.891163	0.085394	0.608930
	H79	H	0.887834	0.906772	0.381755
	H80	H	0.593700	0.081268	0.907605
	H81	H	0.365087	0.082160	0.086965
	H82	H	0.599066	0.896434	0.089839
	H83	H	0.364496	0.895071	0.902466
	H84	H	0.593406	0.902775	0.079990
	H85	H	0.365785	0.082572	0.083284
	H86	H	0.597355	0.081006	0.897518
	H87	H	0.369941	0.909051	0.907303
	H88	H	0.887969	0.084188	0.608857
	H89	H	0.074440	0.087035	0.381099
	H90	H	0.077010	0.903601	0.610492
	H91	H	0.891313	0.903404	0.382074
	H92	H	0.065598	0.608443	0.905679
	H93	H	0.070705	0.376901	0.087917
	H94	H	0.889021	0.605420	0.074883
	H95	H	0.887196	0.378485	0.905555
	H96	H	0.392119	0.110312	0.581654
	H97	H	0.578217	0.875830	0.583829
	H98	H	0.571560	0.106868	0.414367
	H99	H	0.386309	0.876659	0.401839
	H100	H	0.569018	0.397785	0.110008
	H101	H	0.563313	0.576065	0.887026
	H102	H	0.387315	0.585586	0.109869
	H103	H	0.380729	0.405622	0.881322
	H104	H	0.097325	0.577224	0.395502
	H105	H	0.864278	0.585654	0.590933
	H106	H	0.092881	0.405698	0.584971
	H107	H	0.863458	0.401594	0.403198
	H108	H	0.882103	0.613686	0.091535
	H109	H	0.069500	0.376827	0.089748
	H110	H	0.070940	0.610011	0.909344
	H111	H	0.891910	0.379005	0.903278
	H112	H	0.071886	0.909989	0.606409
	H113	H	0.070727	0.087802	0.381920
	H114	H	0.890029	0.082106	0.607937
	H115	H	0.886950	0.902466	0.380836
	H116	H	0.598419	0.089636	0.903612
	H117	H	0.366275	0.079093	0.084553
	H118	H	0.595601	0.908740	0.091633
	H119	H	0.364652	0.907516	0.892957
	C120	C	0.361556	0.002905	0.614660
	C121	C	0.602366	0.985584	0.615215
	C122	C	0.601758	0.002723	0.372994
	C123	C	0.359195	0.986036	0.372500
	C124	C	0.601582	0.371075	0.003649
	C125	C	0.600088	0.613607	0.988146
	C126	C	0.356641	0.614677	0.004040
	C127	C	0.356390	0.370272	0.987066
	C128	C	-0.010476	0.615787	0.374205
	C129	C	0.971986	0.615861	0.618094
	C130	C	-0.012024	0.373428	0.619405
	C131	C	0.971840	0.374188	0.375922
	C132	C	0.859205	0.501717	0.117513
	C133	C	0.101402	0.484185	0.118444
	C134	C	0.099108	0.502241	0.875952
	C135	C	0.858080	0.486011	0.874957
	C136	C	0.102594	0.873972	0.502865
	C137	C	0.103924	0.118459	0.486275
	C138	C	0.859510	0.116088	0.503100
	C139	C	0.858383	0.872333	0.486797
	C140	C	0.489809	0.114443	0.872128
	C141	C	0.472199	0.113468	0.115666
	C142	C	0.488856	0.871906	0.116400
	C143	C	0.472697	0.871453	0.872049
	C144	C	0.359900	0.880264	0.672082
	C145	C	0.603870	0.107592	0.673096
	C146	C	0.601262	0.879409	0.317241
	C147	C	0.359519	0.107962	0.313652
	C148	C	0.660619	0.370150	0.884157
	C149	C	0.659154	0.614994	0.108218
	C150	C	0.298122	0.614771	0.883963
	C151	C	0.300864	0.369977	0.107936
	C152	C	0.867242	0.671849	0.375785
	C153	C	0.094461	0.672369	0.616440
	C154	C	0.866813	0.314722	0.616798
	C155	C	0.094628	0.318495	0.378576
	C156	C	0.866198	0.372022	0.675396
	C157	C	0.092939	0.617441	0.676935
	C158	C	0.868033	0.616379	0.316315
	C159	C	0.092897	0.372345	0.318179
	C160	C	0.356005	0.673233	0.883789
	C161	C	0.600096	0.671604	0.108350
	C162	C	0.600163	0.315032	0.882552
	C163	C	0.359544	0.312617	0.107605
	C164	C	0.658678	0.879635	0.374820
	C165	C	0.659215	0.108688	0.613773
	C166	C	0.303095	0.880390	0.613615
	C167	C	0.303791	0.109275	0.372653
	C168	C	0.857463	0.380670	0.177260
	C169	C	0.103859	0.606283	0.176181
	C170	C	0.099861	0.380591	0.817494
	C171	C	0.855092	0.607854	0.815902
	C172	C	0.160306	0.873366	0.382815
	C173	C	0.164173	0.119676	0.605832
	C174	C	0.801509	0.117387	0.382588
	C175	C	0.799464	0.869725	0.606357
	C176	C	0.367548	0.170671	0.872736
	C177	C	0.593674	0.171800	0.114933
	C178	C	0.366417	0.815569	0.113551
	C179	C	0.594014	0.812905	0.874431
	C180	C	0.368119	0.869329	0.174710
	C181	C	0.592800	0.116335	0.174975
	C182	C	0.369024	0.115730	0.812856
	C183	C	0.593690	0.868238	0.814145
	C184	C	0.859962	0.174957	0.382990
	C185	C	0.103848	0.174930	0.607323
	C186	C	0.102030	0.815676	0.382836
	C187	C	0.858968	0.813417	0.606999
	C188	C	0.154855	0.379143	0.876951
	C189	C	0.160399	0.606189	0.118112
	C190	C	0.800726	0.379950	0.118851
	C191	C	0.799371	0.608052	0.875093
	C192	C	0.386273	0.088063	0.591062
	C193	C	0.578017	0.900267	0.591711
	C194	C	0.577986	0.087954	0.395881
	C195	C	0.382835	0.900811	0.396875
	C196	C	0.577799	0.394566	0.087366
	C197	C	0.575796	0.588884	0.904673
	C198	C	0.380987	0.590572	0.087948
	C199	C	0.378301	0.394376	0.902736
	C200	C	0.074355	0.591752	0.397925
	C201	C	0.887263	0.591813	0.594422
	C202	C	0.072544	0.398788	0.596501
	C203	C	0.887030	0.398025	0.398550
	C204	C	0.883738	0.586866	0.092939
	C205	C	0.076415	0.399034	0.095290
	C206	C	0.075744	0.587752	0.899342
	C207	C	0.883035	0.401230	0.899053
	C208	C	0.079172	0.898196	0.586450
	C209	C	0.079939	0.095029	0.402519
	C210	C	0.883041	0.091161	0.586805
	C211	C	0.881870	0.897070	0.403205
	C212	C	0.574334	0.090723	0.895893
	C213	C	0.387703	0.088600	0.091742
	C214	C	0.573856	0.895964	0.093825
	C215	C	0.388361	0.896585	0.894413
	Zn216	Zn	0.482267	-0.006653	0.743900
	Zn217	Zn	0.480448	-0.007318	0.244682
	Zn218	Zn	0.730703	0.493217	-0.003820
	Zn219	Zn	0.227277	0.492647	-0.003875
	Zn220	Zn	-0.018923	0.743823	0.495329
	Zn221	Zn	-0.018885	0.246135	0.495978
	Zn222	Zn	-0.020809	0.495015	0.747333
	Zn223	Zn	-0.019548	0.493869	0.246566
	Zn224	Zn	0.479836	0.743765	-0.004694
	Zn225	Zn	0.479750	0.241991	-0.006234
	Zn226	Zn	0.729846	-0.005610	0.494210
	Zn227	Zn	0.231800	-0.004351	0.493898
	N228	N	0.395415	0.957419	0.672976
	N229	N	0.569679	0.029731	0.674419
	N230	N	0.566837	0.956850	0.315728
	N231	N	0.393454	0.030122	0.313618
	N232	N	0.661849	0.404157	0.960597
	N233	N	0.659284	0.579478	0.032442
	N234	N	0.298225	0.579384	0.959836
	N235	N	0.298908	0.405222	0.031938
	N236	N	0.943826	0.671594	0.410796
	N237	N	0.018134	0.671729	0.580700
	N238	N	0.943568	0.315533	0.582849
	N239	N	0.018454	0.319776	0.413910
	N240	N	0.942753	0.407586	0.677112
	N241	N	0.015732	0.583377	0.678173
	N242	N	0.945349	0.582481	0.315031
	N243	N	0.015676	0.406208	0.316393
	N244	N	0.391846	0.672984	0.959374
	N245	N	0.564031	0.670703	0.032789
	N246	N	0.564145	0.315427	0.957763
	N247	N	0.393457	0.312716	0.031401
	N248	N	0.659184	0.957272	0.408690
	N249	N	0.658627	0.031746	0.578712
	N250	N	0.303592	0.957925	0.578993
	N251	N	0.303541	0.032531	0.408571
	N252	N	0.893415	0.457640	0.176383
	N253	N	0.067953	0.529372	0.176704
	N254	N	0.065703	0.458276	0.817034
	N255	N	0.890782	0.530948	0.815452
	N256	N	0.160439	0.909232	0.458250
	N257	N	0.164484	0.085373	0.529629
	N258	N	0.801085	0.081365	0.458343
	N259	N	0.798885	0.905695	0.530687
	N260	N	0.443685	0.170290	0.908734
	N261	N	0.517635	0.170021	0.078435
	N262	N	0.442459	0.817101	0.077912
	N263	N	0.517722	0.814478	0.909281
	N264	N	0.445301	0.903648	0.176478
	N265	N	0.516231	0.080887	0.175383
	N266	N	0.445881	0.081317	0.812562
	N267	N	0.517163	0.903897	0.812277
	N268	N	0.895229	0.174266	0.458929
	N269	N	0.067057	0.174270	0.532097
	N270	N	0.066666	0.815969	0.458543
	N271	N	0.894644	0.814638	0.531585
	N272	N	0.154542	0.455855	0.912614
	N273	N	0.158938	0.529188	0.083109
	N274	N	0.801862	0.456189	0.082383
	N275	N	0.801170	0.531281	0.910989
	O276	O	-0.088373	-0.074730	0.008497
	H277	H	-0.082450	-0.059359	0.019694
	H278	H	-0.091336	-0.066942	0.009355
	O279	O	-0.105095	1.063684	-0.069320
	H280	H	-0.102243	1.060075	-0.063085
	H281	H	-0.092243	1.070889	-0.079662
	O282	O	0.868902	-0.150915	0.178842
	H283	H	0.863147	-0.160136	0.184933
	H284	H	0.850998	-0.144996	0.184110
	O285	O	-0.107186	0.876863	-0.115189
	H286	H	-0.108836	0.895394	-0.112970
	H287	H	-0.114098	0.889697	-0.104573
	O288	O	0.515530	0.460954	0.422854
	H289	H	0.509039	0.454214	0.410930
	H290	H	0.532605	0.463492	0.421043
	O291	O	1.058625	-0.055061	1.056446
	H292	H	1.059346	-0.048078	1.062860
	H293	H	1.055274	-0.030224	1.049856
	O294	O	1.532474	0.447637	0.562469
	H295	H	1.530019	0.456263	0.557792
	H296	H	1.525079	0.442405	0.564536
	O297	O	-0.186055	-0.148825	0.064536
	H298	H	-0.179173	-0.143482	0.073265
	H299	H	-0.201917	-0.142551	0.047605
	O300	O	1.078298	0.841264	1.079631
	H301	H	1.064834	0.834924	1.094161
	H302	H	1.078247	0.839011	1.088996
	O303	O	-0.066302	1.145177	0.884562
	H304	H	-0.074342	1.161298	0.869090
	H305	H	-0.050781	1.139978	0.900573
	O306	O	0.533212	0.659633	0.493910
	H307	H	0.531812	0.654101	0.485955
	H308	H	0.533186	0.662251	0.492761
	O309	O	0.845416	-0.068003	0.072465
	H310	H	0.838476	-0.065244	0.076474
	H311	H	0.832927	-0.070117	0.061497
	O312	O	0.103335	-0.111044	0.796412
	H313	H	0.094749	-0.133257	0.794797
	H314	H	0.095078	-0.114371	0.781046
	O315	O	0.439832	0.537854	0.556207
	H316	H	0.434012	0.531293	0.555070
	H317	H	0.439021	0.542852	0.551968
	O318	O	0.517665	0.472462	0.454614
	H319	H	0.532526	0.473998	0.456252
	H320	H	0.507940	0.466940	0.452343
	O321	O	0.426401	0.519234	0.419671
	H322	H	0.429010	0.506007	0.431482
	H323	H	0.427161	0.533825	0.419624
	O324	O	0.479791	0.449742	0.575260
	H325	H	0.477025	0.453845	0.582787
	H326	H	0.483943	0.456925	0.583643
	O327	O	0.017349	1.050747	1.056343
	H328	H	0.032149	1.062082	1.073804
	H329	H	0.028924	1.060362	1.057144
	O330	O	0.492750	0.582653	0.664696
	H331	H	0.499071	0.576201	0.654948
	H332	H	0.488845	0.605644	0.676192
	O333	O	0.145245	1.141131	1.019301
	H334	H	0.158492	1.134745	1.006184
	H335	H	0.143518	1.137622	1.010691
	O336	O	1.834980	0.943502	0.173677
	H337	H	1.845880	0.951642	0.176838
	H338	H	1.827155	0.946681	0.174806
	O339	O	0.463368	0.482552	0.515985
	H340	H	0.474606	0.482128	0.512425
	H341	H	0.443957	0.492279	0.518264
	O342	O	1.067495	0.127393	-0.032464
	H343	H	1.073425	0.137834	-0.028096
	H344	H	1.077751	0.112149	-0.051131
	O345	O	0.416176	0.492399	0.533343
	H346	H	0.402408	0.484400	0.524850
	H347	H	0.420801	0.487246	0.537453
	O348	O	1.090328	0.894837	0.818186
	H349	H	1.088701	0.877322	0.834436
	H350	H	1.085124	0.864347	0.810596
	O351	O	1.483330	1.438033	0.652277
	H352	H	1.489252	1.426737	0.658642
	H353	H	1.476260	1.446550	0.648659
	O354	O	0.795724	0.075803	0.789877
	H355	H	0.806205	0.088444	0.796894
	H356	H	0.796280	0.078713	0.767461
	O357	O	0.369866	0.411635	0.592999
	H358	H	0.384536	0.410167	0.596789
	H359	H	0.367079	0.407870	0.593838
	O360	O	0.050014	-0.083501	0.149782
	H361	H	0.057133	-0.072815	0.148617
	H362	H	0.040212	-0.085948	0.175410
	O363	O	0.462882	0.423371	0.457012
	H364	H	0.459164	0.428892	0.446144
	H365	H	0.459045	0.428682	0.464323
	O366	O	0.480761	0.623591	0.538713
	H367	H	0.496164	0.621875	0.527667
	H368	H	0.469006	0.615181	0.525385
	O369	O	0.474721	0.597080	0.371545
	H370	H	0.479747	0.589155	0.373801
	H371	H	0.464423	0.599900	0.377557
	O372	O	0.192274	0.831887	0.814183
	H373	H	0.165708	0.826232	0.810414
	H374	H	0.185822	0.823689	0.833452
	O375	O	1.175392	0.223956	0.767690
	H376	H	1.181042	0.210091	0.770006
	H377	H	1.172288	0.236266	0.764083
	O378	O	0.471746	0.425167	0.493224
	H379	H	0.456926	0.434897	0.495674
	H380	H	0.470594	0.411783	0.500157
	O381	O	1.086637	0.116272	0.080261
	H382	H	1.093763	0.114559	0.064673
	H383	H	1.095719	0.116559	0.067346
	O384	O	-0.022371	1.059609	0.168698
	H385	H	-0.002466	1.055466	0.174860
	H386	H	-0.023826	1.051335	0.158387
	O387	O	1.104503	-0.037169	1.099343
	H388	H	1.106634	-0.037910	1.103686
	H389	H	1.082436	-0.043870	1.093176
	O390	O	0.039573	0.987152	-0.124256
	H391	H	0.045228	0.981862	-0.126983
	H392	H	0.031415	0.980365	-0.133268
	O393	O	1.375564	1.545102	0.445735
	H394	H	1.378059	1.549529	0.454870
	H395	H	1.369962	1.543570	0.453612
	O396	O	0.546337	0.530548	0.427634
	H397	H	0.536085	0.527811	0.429220
	H398	H	0.546636	0.525610	0.429480
	O399	O	-0.058244	1.136947	1.050646
	H400	H	-0.054591	1.131956	1.066963
	H401	H	-0.063581	1.133214	1.057226
	O402	O	1.047875	0.932072	0.950086
	H403	H	1.034945	0.935014	0.928291
	H404	H	1.042571	0.917730	0.952521
	O405	O	-0.205245	1.183294	-0.112438
	H406	H	-0.200778	1.202482	-0.118129
	H407	H	-0.206370	1.173608	-0.098144
