data_Molecule from HDF5

_cell_length_a		16.578665
_cell_length_b		16.725534
_cell_length_c		16.634534
_cell_angle_alpha	90.007151
_cell_angle_beta	90.066807
_cell_angle_gamma	90.085003
_symmetry_space_group_name_H-M	'P 1'
_symmetry_Int_Tables_number		1

loop_
	_symmetry_equiv_pos_as_xyz
	x,y,z

loop_
	_atom_site_label
	_atom_site_type_symbol
	_atom_site_fract_x
	_atom_site_fract_y
	_atom_site_fract_z
	H0	H	0.378115	0.849195	0.724862
	H1	H	0.593822	0.155581	0.721372
	H2	H	0.595831	0.849491	0.273551
	H3	H	0.379780	0.155013	0.276275
	H4	H	0.701733	0.403784	0.841485
	H5	H	0.706201	0.605104	0.155859
	H6	H	0.266625	0.606007	0.842753
	H7	H	0.268626	0.399129	0.155815
	H8	H	0.830202	0.720735	0.395053
	H9	H	0.142785	0.722979	0.604309
	H10	H	0.831449	0.282509	0.601894
	H11	H	0.140784	0.277834	0.390322
	H12	H	0.830358	0.400884	0.715717
	H13	H	0.143636	0.605502	0.718683
	H14	H	0.829621	0.604059	0.280535
	H15	H	0.142001	0.395864	0.277255
	H16	H	0.381686	0.722834	0.843331
	H17	H	0.591492	0.722617	0.154862
	H18	H	0.588519	0.285485	0.842880
	H19	H	0.384226	0.283038	0.155134
	H20	H	0.711155	0.849276	0.390823
	H21	H	0.709130	0.156276	0.604496
	H22	H	0.262922	0.847330	0.606804
	H23	H	0.263194	0.154469	0.390950
	H24	H	0.882010	0.348962	0.220842
	H25	H	0.095931	0.656512	0.223447
	H26	H	0.089531	0.346062	0.779861
	H27	H	0.885002	0.658046	0.780845
	H28	H	0.211143	0.891971	0.345294
	H29	H	0.207118	0.105581	0.653768
	H30	H	0.766039	0.105869	0.343002
	H31	H	0.765190	0.897141	0.653239
	H32	H	0.331689	0.222756	0.893939
	H33	H	0.644203	0.221328	0.103148
	H34	H	0.332658	0.778069	0.106802
	H35	H	0.642272	0.781631	0.892879
	H36	H	0.333163	0.893718	0.222539
	H37	H	0.642545	0.105271	0.219556
	H38	H	0.332007	0.106719	0.777931
	H39	H	0.643419	0.899032	0.780023
	H40	H	0.878312	0.225505	0.344772
	H41	H	0.092943	0.222776	0.652650
	H42	H	0.094885	0.776950	0.345374
	H43	H	0.880445	0.780748	0.653610
	H44	H	0.206746	0.346276	0.896388
	H45	H	0.210127	0.656886	0.106174
	H46	H	0.766614	0.347661	0.103714
	H47	H	0.769547	0.658515	0.897966
	H48	H	0.401798	0.111392	0.591900
	H49	H	0.572443	0.891446	0.590282
	H50	H	0.573930	0.110970	0.412335
	H51	H	0.400351	0.891954	0.411129
	H52	H	0.578757	0.412263	0.112936
	H53	H	0.570751	0.599765	0.887763
	H54	H	0.395165	0.585962	0.110027
	H55	H	0.396871	0.411853	0.886881
	H56	H	0.098537	0.591069	0.412058
	H57	H	0.875233	0.590406	0.587034
	H58	H	0.100393	0.411501	0.586735
	H59	H	0.874479	0.410541	0.410607
	H60	H	0.100160	0.413454	0.589477
	H61	H	0.873115	0.591656	0.593612
	H62	H	0.097825	0.590048	0.413427
	H63	H	0.877224	0.413262	0.414432
	H64	H	0.406085	0.589041	0.106259
	H65	H	0.585276	0.595503	0.883528
	H66	H	0.576832	0.409869	0.112858
	H67	H	0.397809	0.414211	0.888555
	H68	H	0.578665	0.113276	0.409612
	H69	H	0.575818	0.892736	0.584078
	H70	H	0.398841	0.109576	0.582221
	H71	H	0.401082	0.891392	0.411667
	H72	H	0.899755	0.614804	0.092139
	H73	H	0.073608	0.392673	0.089942
	H74	H	0.075308	0.611332	0.910390
	H75	H	0.897085	0.391217	0.910464
	H76	H	0.076164	0.912482	0.609878
	H77	H	0.072217	0.093501	0.386176
	H78	H	0.900420	0.092457	0.610132
	H79	H	0.897834	0.909700	0.386478
	H80	H	0.599888	0.095039	0.908322
	H81	H	0.372560	0.092070	0.094221
	H82	H	0.601211	0.914776	0.094106
	H83	H	0.376402	0.914402	0.914236
	H84	H	0.598625	0.907518	0.080139
	H85	H	0.374556	0.098179	0.083271
	H86	H	0.599796	0.093800	0.910671
	H87	H	0.375481	0.915370	0.907647
	H88	H	0.897512	0.092107	0.610280
	H89	H	0.079122	0.088684	0.386476
	H90	H	0.073947	0.914455	0.609186
	H91	H	0.897157	0.913573	0.387011
	H92	H	0.079266	0.613299	0.910175
	H93	H	0.075706	0.393374	0.085499
	H94	H	0.898387	0.611583	0.087050
	H95	H	0.890633	0.388890	0.908230
	H96	H	0.392460	0.113401	0.589209
	H97	H	0.579004	0.889623	0.589457
	H98	H	0.573585	0.112665	0.407215
	H99	H	0.399802	0.892351	0.411812
	H100	H	0.579287	0.409169	0.113210
	H101	H	0.575829	0.585561	0.890483
	H102	H	0.398820	0.596587	0.111969
	H103	H	0.399316	0.411711	0.887722
	H104	H	0.097694	0.589089	0.412006
	H105	H	0.873309	0.596530	0.588855
	H106	H	0.100557	0.409768	0.589760
	H107	H	0.877076	0.415589	0.409576
	H108	H	0.894400	0.615093	0.089657
	H109	H	0.078962	0.391486	0.089423
	H110	H	0.076755	0.613871	0.906578
	H111	H	0.896215	0.389184	0.903887
	H112	H	0.072911	0.911830	0.609631
	H113	H	0.071682	0.086336	0.390038
	H114	H	0.898734	0.089733	0.609680
	H115	H	0.900447	0.911776	0.388234
	H116	H	0.600137	0.092507	0.908377
	H117	H	0.378721	0.086023	0.084460
	H118	H	0.593454	0.922335	0.082363
	H119	H	0.373510	0.909464	0.910980
	C120	C	0.364517	0.009890	0.621289
	C121	C	0.608216	0.993383	0.620050
	C122	C	0.608838	0.010768	0.376720
	C123	C	0.365865	0.993020	0.377717
	C124	C	0.608634	0.380950	0.008750
	C125	C	0.608483	0.624158	0.990687
	C126	C	0.366850	0.622912	0.006878
	C127	C	0.366546	0.381140	0.990962
	C128	C	-0.005002	0.621913	0.379907
	C129	C	0.977997	0.623876	0.620889
	C130	C	-0.003668	0.381073	0.619083
	C131	C	0.978915	0.380713	0.378300
	C132	C	0.865886	0.511384	0.121131
	C133	C	0.109063	0.494501	0.121233
	C134	C	0.108499	0.509927	0.878204
	C135	C	0.864997	0.493393	0.877388
	C136	C	0.107932	0.879525	0.507442
	C137	C	0.107271	0.121726	0.489819
	C138	C	0.865855	0.123550	0.507210
	C139	C	0.865371	0.880122	0.489843
	C140	C	0.496652	0.124649	0.877212
	C141	C	0.478732	0.123229	0.119298
	C142	C	0.495837	0.880956	0.119594
	C143	C	0.478374	0.881567	0.878262
	C144	C	0.360942	0.894710	0.683154
	C145	C	0.611286	0.109512	0.680517
	C146	C	0.612859	0.895393	0.314899
	C147	C	0.362027	0.108672	0.316530
	C148	C	0.664242	0.383195	0.889375
	C149	C	0.666592	0.624383	0.108874
	C150	C	0.306691	0.624709	0.889754
	C151	C	0.307655	0.380017	0.108499
	C152	C	0.877080	0.681003	0.377329
	C153	C	0.095852	0.683059	0.622610
	C154	C	0.878149	0.322585	0.620102
	C155	C	0.094701	0.319146	0.373644
	C156	C	0.877877	0.380997	0.676984
	C157	C	0.096210	0.624740	0.679514
	C158	C	0.876902	0.623043	0.320293
	C159	C	0.095278	0.377743	0.317253
	C160	C	0.363860	0.682907	0.889986
	C161	C	0.609733	0.682799	0.108233
	C162	C	0.607912	0.324457	0.890000
	C163	C	0.365058	0.322359	0.108367
	C164	C	0.670372	0.895348	0.372989
	C165	C	0.669157	0.109588	0.622857
	C166	C	0.303488	0.893895	0.624726
	C167	C	0.304005	0.108169	0.373722
	C168	C	0.863686	0.395056	0.180805
	C169	C	0.113072	0.610084	0.182758
	C170	C	0.108910	0.392808	0.819534
	C171	C	0.865518	0.610945	0.819911
	C172	C	0.169991	0.874975	0.391686
	C173	C	0.167597	0.124074	0.606795
	C174	C	0.805552	0.125186	0.390194
	C175	C	0.805323	0.878599	0.606708
	C176	C	0.378709	0.183236	0.875491
	C177	C	0.596810	0.181595	0.121217
	C178	C	0.379257	0.818912	0.124137
	C179	C	0.595548	0.821938	0.875272
	C180	C	0.379545	0.876263	0.181706
	C181	C	0.596129	0.124139	0.179201
	C182	C	0.378843	0.125510	0.818028
	C183	C	0.595862	0.880203	0.818775
	C184	C	0.861685	0.184412	0.390859
	C185	C	0.110810	0.182409	0.606325
	C186	C	0.112411	0.817439	0.391728
	C187	C	0.862296	0.820432	0.606810
	C188	C	0.166929	0.392756	0.877443
	C189	C	0.170053	0.610411	0.124377
	C190	C	0.806156	0.394653	0.122742
	C191	C	0.808109	0.611430	0.878087
	C192	C	0.390476	0.090540	0.595190
	C193	C	0.582967	0.912216	0.595070
	C194	C	0.582864	0.091257	0.402431
	C195	C	0.392762	0.912735	0.404192
	C196	C	0.585164	0.403900	0.091554
	C197	C	0.584214	0.600449	0.908711
	C198	C	0.392695	0.597735	0.088095
	C199	C	0.391122	0.405624	0.908957
	C200	C	0.076720	0.597161	0.405201
	C201	C	0.895322	0.599830	0.596691
	C202	C	0.078897	0.404731	0.595299
	C203	C	0.897385	0.406116	0.404175
	C204	C	0.890682	0.592583	0.096660
	C205	C	0.083414	0.413781	0.095636
	C206	C	0.084121	0.591569	0.902387
	C207	C	0.888030	0.411155	0.900720
	C208	C	0.081738	0.905548	0.588390
	C209	C	0.081739	0.096677	0.408757
	C210	C	0.891467	0.098478	0.588693
	C211	C	0.891126	0.904761	0.408353
	C212	C	0.578595	0.100567	0.901742
	C213	C	0.396501	0.098779	0.094429
	C214	C	0.576651	0.907294	0.093094
	C215	C	0.396499	0.905825	0.903855
	Zn216	Zn	0.487011	0.002046	0.749777
	Zn217	Zn	0.486454	0.002225	0.248190
	Zn218	Zn	0.736812	0.502949	-0.000236
	Zn219	Zn	0.237488	0.502136	-0.000235
	Zn220	Zn	-0.013553	0.751730	0.499238
	Zn221	Zn	-0.012771	0.251863	0.498473
	Zn222	Zn	-0.012795	0.501857	0.748694
	Zn223	Zn	-0.012615	0.502769	0.250099
	Zn224	Zn	0.487238	0.752864	-0.001212
	Zn225	Zn	0.487096	0.252350	-0.000475
	Zn226	Zn	0.737210	0.002324	0.498467
	Zn227	Zn	0.236500	0.000872	0.498544
	N228	N	0.398205	0.967986	0.681209
	N229	N	0.574264	0.036149	0.679257
	N230	N	0.575073	0.968227	0.317017
	N231	N	0.399884	0.035692	0.318633
	N232	N	0.665285	0.417391	0.964419
	N233	N	0.666182	0.588606	0.034632
	N234	N	0.308422	0.587950	0.963570
	N235	N	0.308094	0.415737	0.034149
	N236	N	0.951643	0.680784	0.413578
	N237	N	0.021013	0.682956	0.587107
	N238	N	0.952986	0.322311	0.585073
	N239	N	0.020986	0.320695	0.410703
	N240	N	0.952403	0.416669	0.676723
	N241	N	0.021705	0.588859	0.678801
	N242	N	0.951277	0.587219	0.321416
	N243	N	0.021991	0.415255	0.319841
	N244	N	0.400582	0.682020	0.963937
	N245	N	0.574340	0.682905	0.033724
	N246	N	0.574148	0.322735	0.965350
	N247	N	0.400816	0.322814	0.034011
	N248	N	0.668034	0.968127	0.410720
	N249	N	0.667433	0.036295	0.585871
	N250	N	0.305771	0.966563	0.586680
	N251	N	0.306264	0.035193	0.411162
	N252	N	0.900050	0.468710	0.180036
	N253	N	0.075739	0.536758	0.181201
	N254	N	0.073375	0.466882	0.819493
	N255	N	0.899901	0.536295	0.818970
	N256	N	0.167441	0.912867	0.464843
	N257	N	0.165780	0.087030	0.533326
	N258	N	0.808049	0.088023	0.463627
	N259	N	0.806790	0.914773	0.532811
	N260	N	0.453120	0.183269	0.911469
	N261	N	0.522511	0.181414	0.084975
	N262	N	0.452610	0.821586	0.085963
	N263	N	0.521311	0.822423	0.911609
	N264	N	0.452933	0.914141	0.179307
	N265	N	0.521622	0.088382	0.177978
	N266	N	0.453236	0.089822	0.818774
	N267	N	0.521804	0.916708	0.820575
	N268	N	0.898587	0.183473	0.464857
	N269	N	0.074075	0.181508	0.532518
	N270	N	0.074561	0.819927	0.465023
	N271	N	0.898922	0.821065	0.532895
	N272	N	0.166801	0.466696	0.913024
	N273	N	0.167982	0.537392	0.087021
	N274	N	0.807138	0.467956	0.086259
	N275	N	0.807536	0.537121	0.913162
	O276	O	-0.215188	0.786194	0.207492
	H277	H	-0.244612	0.773137	0.225463
	H278	H	-0.215151	0.808044	0.214303
	O279	O	0.471331	0.734136	0.647859
	H280	H	0.488993	0.743771	0.671922
	H281	H	0.490444	0.735228	0.634383
	O282	O	1.083209	0.184360	1.005928
	H283	H	1.080100	0.198877	0.995655
	H284	H	1.103054	0.180454	1.005357
	O285	O	0.677686	0.311275	0.692936
	H286	H	0.665388	0.333682	0.668588
	H287	H	0.654975	0.324656	0.675744
	O288	O	0.021505	-0.218455	-0.223283
	H289	H	0.005916	-0.207916	-0.222749
	H290	H	0.019237	-0.235345	-0.249300
	O291	O	0.268419	0.525829	0.279339
	H292	H	0.245723	0.552175	0.261552
	H293	H	0.258559	0.540113	0.289985
	O294	O	1.603874	0.725107	0.461381
	H295	H	1.602050	0.712598	0.481445
	H296	H	1.615909	0.734606	0.483808
	O297	O	0.272878	0.711702	0.464219
	H298	H	0.280966	0.717516	0.475535
	H299	H	0.258579	0.716038	0.470060
	O300	O	-0.063185	-0.223109	0.931602
	H301	H	-0.059427	-0.207098	0.929696
	H302	H	-0.067857	-0.229645	0.938844
	O303	O	0.695923	0.713408	0.704220
	H304	H	0.695856	0.715558	0.714211
	H305	H	0.712126	0.720002	0.727410
	O306	O	0.528045	0.578844	0.533337
	H307	H	0.529188	0.572696	0.551235
	H308	H	0.514152	0.581950	0.534820
	O309	O	0.382590	0.306229	0.462763
	H310	H	0.382793	0.306724	0.470369
	H311	H	0.368697	0.297171	0.473975
	O312	O	0.961854	0.953520	0.219778
	H313	H	0.961985	0.938516	0.207358
	H314	H	0.966213	0.965294	0.213675
	O315	O	0.703974	0.544014	0.716966
	H316	H	0.726568	0.543293	0.735694
	H317	H	0.701483	0.546216	0.709736
	O318	O	0.264426	0.282246	0.529420
	H319	H	0.273724	0.289769	0.563290
	H320	H	0.233714	0.251214	0.537796
	O321	O	-0.235035	1.058403	1.027108
	H322	H	-0.216471	1.062658	1.022193
	H323	H	-0.242716	1.036540	1.010733
	O324	O	0.944638	1.044688	-0.062848
	H325	H	0.942696	1.037909	-0.059374
	H326	H	0.949363	1.053254	-0.062795
	O327	O	0.453731	-0.282770	0.285502
	H328	H	0.472080	-0.267095	0.298712
	H329	H	0.470106	-0.277141	0.277392
	O330	O	0.711907	0.536962	0.427045
	H331	H	0.702096	0.544736	0.430996
	H332	H	0.718491	0.552548	0.413734
	O333	O	0.679920	0.673054	0.547590
	H334	H	0.673918	0.667570	0.583331
	H335	H	0.701293	0.699869	0.555070
	O336	O	1.130965	0.161743	0.138748
	H337	H	1.106699	0.153961	0.138121
	H338	H	1.149316	0.175466	0.166529
	O339	O	1.017315	0.067997	1.153813
	H340	H	1.020175	0.060276	1.145265
	H341	H	1.035251	0.085096	1.159492
	O342	O	0.526591	-0.730622	0.501210
	H343	H	0.536803	-0.736533	0.500044
	H344	H	0.521433	-0.727525	0.502744
	O345	O	0.252369	1.272234	1.269570
	H346	H	0.264736	1.280775	1.294186
	H347	H	0.277223	1.289065	1.268346
	O348	O	0.395705	0.545084	0.442417
	H349	H	0.404711	0.546155	0.452324
	H350	H	0.390509	0.534437	0.449030
	O351	O	0.462824	0.734139	0.505483
	H352	H	0.459396	0.735381	0.503273
	H353	H	0.456560	0.723336	0.509743
	O354	O	-0.232742	-0.217963	1.028141
	H355	H	-0.236349	-0.221549	1.057494
	H356	H	-0.237910	-0.238071	1.037361
	O357	O	0.158747	1.008298	-0.191554
	H358	H	0.151019	0.982511	-0.195490
	H359	H	0.167585	1.013042	-0.208816
	O360	O	0.695377	0.287177	0.287725
	H361	H	0.683213	0.311497	0.292917
	H362	H	0.729154	0.256981	0.255093
	O363	O	-0.045418	0.035681	0.101463
	H364	H	-0.043575	0.033399	0.103355
	H365	H	-0.045584	0.026143	0.099281
	O366	O	0.315198	0.671251	0.679783
	H367	H	0.316903	0.673642	0.672613
	H368	H	0.310545	0.673519	0.677853
	O369	O	0.989861	-0.011975	0.068111
	H370	H	0.995141	-0.005259	0.071395
	H371	H	0.988211	0.007652	0.045926
	O372	O	0.996256	0.987742	-0.219314
	H373	H	0.996667	0.999719	-0.215511
	H374	H	1.001683	1.001971	-0.219132
	O375	O	1.103851	0.130200	-0.209216
	H376	H	1.087804	0.128478	-0.198320
	H377	H	1.096346	0.122522	-0.206372
	O378	O	0.549617	0.426008	0.429703
	H379	H	0.547860	0.423564	0.444041
	H380	H	0.538685	0.414710	0.421159
	O381	O	0.524735	0.280423	0.281100
	H382	H	0.549500	0.282816	0.293501
	H383	H	0.520271	0.259386	0.258417
	O384	O	1.212280	-0.079391	1.048579
	H385	H	1.212704	-0.086673	1.057147
	H386	H	1.211786	-0.078796	1.056649
	O387	O	1.183716	1.016615	-0.108805
	H388	H	1.193768	1.004416	-0.117215
	H389	H	1.186225	0.999620	-0.096842
	O390	O	0.209092	0.223924	0.024438
	H391	H	0.225567	0.242473	0.043231
	H392	H	0.206036	0.228030	0.039075
	O393	O	0.706848	0.457341	0.548283
	H394	H	0.709191	0.469987	0.529401
	H395	H	0.713246	0.448216	0.529274
	O396	O	-0.118103	0.985109	0.928021
	H397	H	-0.106308	0.985211	0.928627
	H398	H	-0.112895	0.980373	0.920249
	O399	O	-0.039628	-0.224224	1.224031
	H400	H	-0.051792	-0.238418	1.236306
	H401	H	-0.060872	-0.230520	1.234137
	O402	O	0.700336	0.439421	0.320477
	H403	H	0.687388	0.436541	0.317219
	H404	H	0.709795	0.444179	0.311538
	O405	O	0.871214	-0.090111	0.858829
	H406	H	0.858253	-0.089419	0.882425
	H407	H	0.875027	-0.063793	0.859956
	O408	O	-0.031232	-0.099285	0.079985
	H409	H	-0.025818	-0.101348	0.082937
	H410	H	-0.019183	-0.106420	0.070965
	O411	O	0.012581	1.226934	1.221444
	H412	H	0.016323	1.230017	1.234467
	H413	H	0.023450	1.234455	1.233109
	O414	O	1.704278	0.283767	1.478365
	H415	H	1.703447	0.285836	1.465143
	H416	H	1.718301	0.265561	1.453148
	O417	O	0.292909	0.461002	0.462223
	H418	H	0.302019	0.450760	0.473947
	H419	H	0.283297	0.458420	0.445213
	O420	O	-0.329566	-0.304556	0.311554
	H421	H	-0.343754	-0.329538	0.327947
	H422	H	-0.349255	-0.316774	0.333010
	O423	O	0.185047	0.114502	0.869278
	H424	H	0.176120	0.112601	0.876099
	H425	H	0.187679	0.093202	0.888742
	O426	O	0.433706	0.456239	0.590256
	H427	H	0.424976	0.446011	0.588967
	H428	H	0.427999	0.448656	0.587660
	O429	O	1.445678	1.508635	1.270108
	H430	H	1.416303	1.509081	1.272622
	H431	H	1.439197	1.534640	1.269562
	O432	O	0.281436	0.561126	0.581732
	H433	H	0.276413	0.543585	0.583911
	H434	H	0.278715	0.558612	0.575544
	O435	O	0.511413	0.300422	0.665664
	H436	H	0.505221	0.324762	0.646883
	H437	H	0.503891	0.303113	0.675706
	O438	O	-0.235322	-0.004913	0.181592
	H439	H	-0.236897	-0.003168	0.190633
	H440	H	-0.239372	-0.007466	0.176204
	O441	O	0.800261	0.192735	0.188246
	H442	H	0.823251	0.175162	0.177285
	H443	H	0.815674	0.174877	0.166279
	O444	O	0.147981	0.835171	0.221399
	H445	H	0.150293	0.854816	0.231947
	H446	H	0.175654	0.811853	0.237767
	O447	O	-0.047530	1.221759	0.773799
	H448	H	-0.075523	1.227252	0.775101
	H449	H	-0.070995	1.240364	0.757515
	O450	O	0.203978	0.782222	0.969837
	H451	H	0.219570	0.754252	0.979447
	H452	H	0.200125	0.792146	0.979300
	O453	O	0.780979	0.211623	0.789898
	H454	H	0.749335	0.240627	0.763492
	H455	H	0.769799	0.216556	0.832593
	O456	O	-0.228227	0.032025	0.774810
	H457	H	-0.241010	0.045387	0.763347
	H458	H	-0.236823	0.060332	0.767713
	O459	O	1.082891	1.032570	0.011208
	H460	H	1.067126	1.020080	0.006303
	H461	H	1.081790	1.038716	-0.004964
	O462	O	0.472419	0.627437	0.731819
	H463	H	0.467936	0.633053	0.749824
	H464	H	0.466927	0.622562	0.736606
	O465	O	1.281484	0.693541	-0.676112
	H466	H	1.305853	0.703268	-0.657480
	H467	H	1.292572	0.694521	-0.664988
	O468	O	0.532526	0.521577	0.685194
	H469	H	0.541115	0.515134	0.689191
	H470	H	0.509201	0.521383	0.676291
	O471	O	0.265830	0.461242	0.715022
	H472	H	0.240899	0.443470	0.739242
	H473	H	0.266600	0.454352	0.714299
	O474	O	0.449001	0.340390	0.718826
	H475	H	0.474015	0.358927	0.711806
	H476	H	0.445878	0.332780	0.728978
	O477	O	0.271465	0.290652	1.706527
	H478	H	0.288683	0.271169	1.726991
	H479	H	0.265674	0.281855	1.726989
	O480	O	0.587898	0.558573	0.293418
	H481	H	0.582026	0.541755	0.291117
	H482	H	0.577762	0.549746	0.309768
	O483	O	0.191269	0.793243	0.795188
	H484	H	0.169355	0.785410	0.793687
	H485	H	0.184239	0.805235	0.820615
	O486	O	1.051335	-0.231588	1.050555
	H487	H	1.036946	-0.238971	1.046074
	H488	H	1.064520	-0.231959	1.069197
	O489	O	1.119841	1.031330	0.220941
	H490	H	1.123792	1.038213	0.226809
	H491	H	1.121834	1.031953	0.223850
	O492	O	-0.235356	0.225530	-0.043179
	H493	H	-0.216999	0.216777	-0.020609
	H494	H	-0.265393	0.253701	-0.039623
	O495	O	-0.090475	1.234226	1.050023
	H496	H	-0.078706	1.229580	1.031526
	H497	H	-0.078469	1.231165	1.064721
	O498	O	0.796089	0.808424	0.805298
	H499	H	0.817881	0.832850	0.814679
	H500	H	0.812436	0.821140	0.831809
	O501	O	0.377943	0.359457	0.307445
	H502	H	0.412044	0.348769	0.307952
	H503	H	0.380812	0.398835	0.303389
