data_Molecule from HDF5

_cell_length_a		16.338677
_cell_length_b		16.263929
_cell_length_c		16.220067
_cell_angle_alpha	90.204356
_cell_angle_beta	89.727247
_cell_angle_gamma	89.869182
_symmetry_space_group_name_H-M	'P 1'
_symmetry_Int_Tables_number		1

loop_
	_symmetry_equiv_pos_as_xyz
	x,y,z

loop_
	_atom_site_label
	_atom_site_type_symbol
	_atom_site_fract_x
	_atom_site_fract_y
	_atom_site_fract_z
	H0	H	0.399914	0.843472	0.714936
	H1	H	0.592649	0.172048	0.714689
	H2	H	0.597341	0.844141	0.285445
	H3	H	0.400058	0.172212	0.289094
	H4	H	0.713520	0.407231	0.836463
	H5	H	0.711367	0.606728	0.164522
	H6	H	0.284417	0.605829	0.835580
	H7	H	0.281225	0.408788	0.163949
	H8	H	0.834847	0.723217	0.402345
	H9	H	0.161153	0.723606	0.599928
	H10	H	0.834345	0.293893	0.599267
	H11	H	0.160335	0.291465	0.399887
	H12	H	0.834080	0.411010	0.714708
	H13	H	0.161511	0.604907	0.713093
	H14	H	0.834191	0.606654	0.287717
	H15	H	0.160816	0.408065	0.284462
	H16	H	0.400086	0.720896	0.836190
	H17	H	0.594242	0.721583	0.165128
	H18	H	0.597886	0.291259	0.836996
	H19	H	0.400562	0.296598	0.166231
	H20	H	0.713247	0.844168	0.400440
	H21	H	0.711672	0.171515	0.600982
	H22	H	0.280962	0.844781	0.602620
	H23	H	0.282965	0.171085	0.403025
	H24	H	0.899720	0.343610	0.213884
	H25	H	0.094289	0.671778	0.214112
	H26	H	0.096062	0.343101	0.785729
	H27	H	0.901973	0.672061	0.788289
	H28	H	0.215006	0.907263	0.337214
	H29	H	0.210051	0.106437	0.664697
	H30	H	0.782061	0.107211	0.336702
	H31	H	0.783769	0.911403	0.665032
	H32	H	0.333901	0.221291	0.904954
	H33	H	0.660461	0.223411	0.101197
	H34	H	0.333890	0.793590	0.100634
	H35	H	0.660545	0.791860	0.901363
	H36	H	0.333927	0.911408	0.215687
	H37	H	0.661486	0.104820	0.214697
	H38	H	0.333485	0.103631	0.790053
	H39	H	0.660355	0.907251	0.784692
	H40	H	0.899674	0.221267	0.335425
	H41	H	0.093369	0.221225	0.664935
	H42	H	0.097591	0.792663	0.335869
	H43	H	0.900727	0.796464	0.665070
	H44	H	0.213917	0.343938	0.899210
	H45	H	0.211338	0.671307	0.098881
	H46	H	0.782086	0.344495	0.099147
	H47	H	0.782059	0.671619	0.900234
	H48	H	0.402528	0.125722	0.598290
	H49	H	0.597518	0.889566	0.593963
	H50	H	0.588613	0.122947	0.409766
	H51	H	0.411111	0.892533	0.409885
	H52	H	0.591616	0.421234	0.115779
	H53	H	0.596747	0.593673	0.883523
	H54	H	0.403917	0.602281	0.117670
	H55	H	0.408833	0.406398	0.882327
	H56	H	0.114781	0.603547	0.409481
	H57	H	0.878548	0.606143	0.599539
	H58	H	0.116854	0.415196	0.604007
	H59	H	0.881313	0.416160	0.403650
	H60	H	0.115185	0.402757	0.586334
	H61	H	0.882322	0.605807	0.588727
	H62	H	0.112540	0.596456	0.408767
	H63	H	0.880016	0.409603	0.408431
	H64	H	0.401108	0.600146	0.117214
	H65	H	0.582697	0.596519	0.886755
	H66	H	0.585397	0.414138	0.116463
	H67	H	0.397707	0.415284	0.881966
	H68	H	0.591915	0.124935	0.410904
	H69	H	0.586232	0.892003	0.597148
	H70	H	0.405448	0.123829	0.594786
	H71	H	0.401202	0.891211	0.412289
	H72	H	0.910240	0.621989	0.093610
	H73	H	0.090012	0.392530	0.090535
	H74	H	0.091796	0.625723	0.900308
	H75	H	0.905786	0.390825	0.905388
	H76	H	0.092713	0.912169	0.618922
	H77	H	0.094265	0.102312	0.381349
	H78	H	0.899067	0.093722	0.616055
	H79	H	0.907337	0.914724	0.383977
	H80	H	0.613998	0.100205	0.906965
	H81	H	0.386197	0.094400	0.086376
	H82	H	0.613714	0.918671	0.096902
	H83	H	0.381754	0.918258	0.906908
	H84	H	0.614703	0.908668	0.095405
	H85	H	0.379267	0.097824	0.109385
	H86	H	0.613867	0.101368	0.908336
	H87	H	0.379040	0.910264	0.904980
	H88	H	0.911664	0.103165	0.615431
	H89	H	0.093378	0.095795	0.384113
	H90	H	0.091482	0.920170	0.616080
	H91	H	0.903796	0.913771	0.382428
	H92	H	0.086613	0.622130	0.909958
	H93	H	0.090823	0.391609	0.092368
	H94	H	0.899329	0.623119	0.088282
	H95	H	0.905421	0.391792	0.909307
	H96	H	0.400238	0.124857	0.593616
	H97	H	0.589818	0.892950	0.586064
	H98	H	0.591189	0.124655	0.406634
	H99	H	0.404433	0.888924	0.403245
	H100	H	0.593948	0.413135	0.119030
	H101	H	0.591935	0.606990	0.880787
	H102	H	0.403579	0.599304	0.117269
	H103	H	0.410371	0.420018	0.887013
	H104	H	0.114628	0.600142	0.403065
	H105	H	0.882978	0.596004	0.595061
	H106	H	0.108430	0.423788	0.585307
	H107	H	0.883492	0.416534	0.411705
	H108	H	0.900890	0.627140	0.100006
	H109	H	0.088941	0.391494	0.092286
	H110	H	0.098083	0.625304	0.909902
	H111	H	0.902470	0.390530	0.907570
	H112	H	0.085586	0.914996	0.615787
	H113	H	0.087696	0.100259	0.384027
	H114	H	0.898339	0.108977	0.620884
	H115	H	0.904800	0.917901	0.383315
	H116	H	0.613573	0.099622	0.908318
	H117	H	0.378739	0.115946	0.094094
	H118	H	0.611467	0.914409	0.087642
	H119	H	0.382597	0.912773	0.912998
	C120	C	0.374735	0.016325	0.623750
	C121	C	0.618795	0.999568	0.622210
	C122	C	0.619327	0.015881	0.379452
	C123	C	0.376923	0.999291	0.380275
	C124	C	0.619546	0.386148	0.008924
	C125	C	0.618854	0.628598	0.992252
	C126	C	0.375403	0.628761	0.008676
	C127	C	0.376605	0.386462	0.992109
	C128	C	0.005927	0.628911	0.379211
	C129	C	0.989629	0.630378	0.622115
	C130	C	0.005973	0.385973	0.621320
	C131	C	0.989267	0.385226	0.378482
	C132	C	0.875096	0.516218	0.122585
	C133	C	0.118493	0.499631	0.121018
	C134	C	0.120551	0.515858	0.877738
	C135	C	0.876351	0.499428	0.879064
	C136	C	0.119425	0.886121	0.508825
	C137	C	0.118552	0.128196	0.491764
	C138	C	0.875161	0.129760	0.508715
	C139	C	0.876626	0.887299	0.491992
	C140	C	0.505700	0.128825	0.880188
	C141	C	0.489522	0.130424	0.124440
	C142	C	0.505492	0.885882	0.122777
	C143	C	0.489098	0.885051	0.879193
	C144	C	0.378754	0.892606	0.677671
	C145	C	0.614874	0.122895	0.677753
	C146	C	0.617542	0.893264	0.323221
	C147	C	0.379339	0.122690	0.325943
	C148	C	0.675305	0.387131	0.885442
	C149	C	0.673587	0.627065	0.115517
	C150	C	0.321758	0.626121	0.884786
	C151	C	0.320237	0.389138	0.115559
	C152	C	0.883468	0.684853	0.382010
	C153	C	0.112225	0.685459	0.619726
	C154	C	0.882835	0.331692	0.619491
	C155	C	0.111767	0.329612	0.379679
	C156	C	0.882872	0.389990	0.676709
	C157	C	0.112531	0.626599	0.676235
	C158	C	0.883054	0.627139	0.324753
	C159	C	0.111888	0.387748	0.322478
	C160	C	0.379302	0.683328	0.885119
	C161	C	0.615712	0.684339	0.115804
	C162	C	0.617389	0.329800	0.885615
	C163	C	0.379289	0.333250	0.116794
	C164	C	0.675386	0.893242	0.380220
	C165	C	0.673699	0.122678	0.620985
	C166	C	0.319497	0.893246	0.621862
	C167	C	0.321174	0.122192	0.382693
	C168	C	0.878289	0.392901	0.177056
	C169	C	0.114950	0.623030	0.176036
	C170	C	0.117052	0.392413	0.822831
	C171	C	0.880030	0.623051	0.825060
	C172	C	0.176132	0.887445	0.385748
	C173	C	0.172340	0.126668	0.615780
	C174	C	0.820139	0.127503	0.385314
	C175	C	0.821187	0.890035	0.615741
	C176	C	0.382793	0.183710	0.884097
	C177	C	0.612075	0.185162	0.121563
	C178	C	0.382716	0.831418	0.120784
	C179	C	0.611804	0.829609	0.880655
	C180	C	0.382686	0.889993	0.177868
	C181	C	0.612455	0.126308	0.177993
	C182	C	0.382465	0.125306	0.826861
	C183	C	0.611593	0.887300	0.822925
	C184	C	0.878281	0.184298	0.384878
	C185	C	0.114729	0.183930	0.615749
	C186	C	0.117448	0.830731	0.385127
	C187	C	0.879402	0.833267	0.615839
	C188	C	0.175649	0.392673	0.879274
	C189	C	0.173188	0.622696	0.118513
	C190	C	0.820361	0.393052	0.119519
	C191	C	0.820687	0.622667	0.880919
	C192	C	0.396121	0.102413	0.601960
	C193	C	0.597526	0.913635	0.599123
	C194	C	0.597025	0.101999	0.402635
	C195	C	0.399069	0.913153	0.402186
	C196	C	0.597021	0.409423	0.094797
	C197	C	0.596993	0.605829	0.905903
	C198	C	0.396575	0.606906	0.094885
	C199	C	0.398924	0.407709	0.906192
	C200	C	0.091734	0.606428	0.400730
	C201	C	0.903648	0.609028	0.600884
	C202	C	0.091354	0.407506	0.598560
	C203	C	0.903703	0.407500	0.401151
	C204	C	0.897000	0.601851	0.100362
	C205	C	0.096405	0.413754	0.098344
	C206	C	0.098596	0.602127	0.900060
	C207	C	0.898111	0.413270	0.901021
	C208	C	0.096626	0.909179	0.594638
	C209	C	0.097856	0.106113	0.405686
	C210	C	0.896648	0.108162	0.595095
	C211	C	0.898715	0.908985	0.405536
	C212	C	0.591628	0.106864	0.901448
	C213	C	0.403561	0.109076	0.102823
	C214	C	0.591190	0.907402	0.100029
	C215	C	0.403468	0.907105	0.901804
	Zn216	Zn	0.497267	0.007396	0.750863
	Zn217	Zn	0.497527	0.007806	0.251957
	Zn218	Zn	0.747615	0.508138	-0.000184
	Zn219	Zn	0.247917	0.507286	-0.000470
	Zn220	Zn	-0.002486	0.758350	0.500142
	Zn221	Zn	-0.002347	0.256579	0.499946
	Zn222	Zn	-0.001856	0.507795	0.750416
	Zn223	Zn	-0.002751	0.508217	0.250595
	Zn224	Zn	0.497190	0.756672	0.000940
	Zn225	Zn	0.497937	0.257956	0.001979
	Zn226	Zn	0.747652	0.007911	0.500637
	Zn227	Zn	0.247873	0.007475	0.501107
	N228	N	0.412209	0.970064	0.679111
	N229	N	0.581570	0.045335	0.678734
	N230	N	0.583439	0.970744	0.322671
	N231	N	0.413291	0.045168	0.324541
	N232	N	0.676807	0.421522	0.962984
	N233	N	0.675515	0.593238	0.037564
	N234	N	0.319280	0.592991	0.962583
	N235	N	0.318485	0.421519	0.037318
	N236	N	0.960781	0.686141	0.415110
	N237	N	0.034813	0.687666	0.586748
	N238	N	0.960089	0.329180	0.585690
	N239	N	0.034594	0.327931	0.413610
	N240	N	0.960493	0.422976	0.678121
	N241	N	0.035447	0.592851	0.677886
	N242	N	0.960256	0.593062	0.322998
	N243	N	0.034672	0.421676	0.321444
	N244	N	0.412200	0.685151	0.963152
	N245	N	0.582381	0.685207	0.038023
	N246	N	0.583496	0.329104	0.963499
	N247	N	0.413480	0.330981	0.039190
	N248	N	0.676582	0.970777	0.414478
	N249	N	0.676029	0.045085	0.587019
	N250	N	0.317031	0.971155	0.588973
	N251	N	0.319549	0.044416	0.415684
	N252	N	0.911763	0.470378	0.178816
	N253	N	0.081489	0.545561	0.177429
	N254	N	0.083478	0.470117	0.821895
	N255	N	0.914116	0.545637	0.823938
	N256	N	0.177622	0.921062	0.463636
	N257	N	0.175216	0.092808	0.537911
	N258	N	0.818120	0.094357	0.463155
	N259	N	0.819382	0.922879	0.537630
	N260	N	0.460524	0.185943	0.916495
	N261	N	0.534705	0.187619	0.088932
	N262	N	0.460120	0.828740	0.087256
	N263	N	0.534681	0.828192	0.914996
	N264	N	0.460051	0.923089	0.179101
	N265	N	0.535001	0.093156	0.179964
	N266	N	0.459899	0.092021	0.824358
	N267	N	0.534199	0.920890	0.821707
	N268	N	0.911989	0.185525	0.462514
	N269	N	0.081955	0.184895	0.537817
	N270	N	0.082948	0.829929	0.462579
	N271	N	0.913041	0.831446	0.537875
	N272	N	0.177808	0.470380	0.912680
	N273	N	0.175530	0.544764	0.085183
	N274	N	0.818317	0.470738	0.086285
	N275	N	0.818444	0.544815	0.913744
	O276	O	0.397699	0.482506	0.541277
	H277	H	0.417889	0.487489	0.537391
	H278	H	0.396293	0.485898	0.539482
	O279	O	0.449867	0.516062	0.498459
	H280	H	0.447760	0.508119	0.495967
	H281	H	0.448511	0.520337	0.504668
	O282	O	0.512733	0.555334	0.511007
	H283	H	0.511026	0.550948	0.513903
	H284	H	0.504399	0.563213	0.512749
	O285	O	0.454756	0.569481	1.473641
	H286	H	0.450683	0.562459	1.464159
	H287	H	0.452104	0.581034	1.466181
	O288	O	-0.019388	-0.049918	0.968803
	H289	H	-0.028690	-0.061161	0.965460
	H290	H	-0.015886	-0.051816	0.980922
	O291	O	-0.514956	0.613965	0.449154
	H292	H	-0.524224	0.610990	0.441690
	H293	H	-0.511600	0.614200	0.455044
	O294	O	0.539713	0.484780	0.447600
	H295	H	0.551346	0.481461	0.443324
	H296	H	0.544826	0.474448	0.434273
	O297	O	0.575021	0.496268	0.429334
	H298	H	0.571065	0.505207	0.430995
	H299	H	0.587497	0.497106	0.436750
	O300	O	0.467408	0.554038	0.519633
	H301	H	0.465704	0.560004	0.513468
	H302	H	0.465177	0.564862	0.523670
	O303	O	0.485022	0.501616	0.471940
	H304	H	0.488401	0.494079	0.471662
	H305	H	0.481805	0.500136	0.475424
	O306	O	0.988787	-0.033940	0.989765
	H307	H	0.981459	-0.035893	0.989755
	H308	H	0.987680	-0.036466	0.983890
	O309	O	0.530532	0.504215	0.530214
	H310	H	0.538693	0.504246	0.531855
	H311	H	0.530225	0.507019	0.544589
	O312	O	0.496381	0.495031	0.510916
	H313	H	0.497425	0.494149	0.513962
	H314	H	0.484820	0.487530	0.519802
	O315	O	0.979091	-0.015012	1.001358
	H316	H	0.974008	-0.009001	1.010344
	H317	H	0.980747	-0.008364	1.000249
	O318	O	0.494301	-0.511657	-0.467814
	H319	H	0.501936	-0.504967	-0.462056
	H320	H	0.496831	-0.516372	-0.465909
	O321	O	0.508390	0.447943	0.481975
	H322	H	0.513478	0.458616	0.487893
	H323	H	0.508505	0.442268	0.477551
	O324	O	1.022861	0.004594	-0.031589
	H325	H	1.032213	0.004220	-0.028941
	H326	H	1.033070	0.012207	-0.040964
	O327	O	1.008457	0.995804	-0.072117
	H328	H	1.012348	0.991052	-0.084552
	H329	H	1.003688	0.986532	-0.072476
	O330	O	0.561717	0.507059	0.418267
	H331	H	0.558468	0.511742	0.416986
	H332	H	0.562223	0.504503	0.414699
	O333	O	0.490948	0.590132	0.479166
	H334	H	0.488695	0.587366	0.480659
	H335	H	0.486188	0.586674	0.481012
