data_Molecule from HDF5

_cell_length_a		16.314589
_cell_length_b		16.249651
_cell_length_c		16.270726
_cell_angle_alpha	89.972956
_cell_angle_beta	90.133319
_cell_angle_gamma	90.050189
_symmetry_space_group_name_H-M	'P 1'
_symmetry_Int_Tables_number		1

loop_
	_symmetry_equiv_pos_as_xyz
	x,y,z

loop_
	_atom_site_label
	_atom_site_type_symbol
	_atom_site_fract_x
	_atom_site_fract_y
	_atom_site_fract_z
	H0	H	0.408033	0.833049	0.715641
	H1	H	0.606177	0.160301	0.716793
	H2	H	0.604033	0.832719	0.287747
	H3	H	0.408112	0.160517	0.286576
	H4	H	0.720204	0.398344	0.837292
	H5	H	0.720721	0.595273	0.164961
	H6	H	0.291610	0.595796	0.837516
	H7	H	0.289649	0.395632	0.164142
	H8	H	0.841860	0.711435	0.403122
	H9	H	0.169855	0.711439	0.599551
	H10	H	0.842676	0.281360	0.600749
	H11	H	0.169697	0.282786	0.403553
	H12	H	0.842007	0.399118	0.715464
	H13	H	0.170072	0.596147	0.716543
	H14	H	0.843192	0.597358	0.284670
	H15	H	0.169417	0.398938	0.287748
	H16	H	0.408702	0.710840	0.836801
	H17	H	0.603656	0.710098	0.165439
	H18	H	0.604163	0.283169	0.837444
	H19	H	0.406921	0.281108	0.164523
	H20	H	0.721754	0.833386	0.401812
	H21	H	0.721080	0.160141	0.600702
	H22	H	0.291879	0.833214	0.599545
	H23	H	0.292505	0.160985	0.402207
	H24	H	0.908266	0.332982	0.216238
	H25	H	0.105736	0.661313	0.215714
	H26	H	0.103208	0.333070	0.787548
	H27	H	0.908758	0.661798	0.787843
	H28	H	0.219758	0.898707	0.337469
	H29	H	0.222500	0.096658	0.664622
	H30	H	0.788917	0.098468	0.338961
	H31	H	0.792463	0.897814	0.665435
	H32	H	0.342933	0.210770	0.902842
	H33	H	0.669828	0.212162	0.100414
	H34	H	0.342942	0.781128	0.100167
	H35	H	0.669873	0.782975	0.904262
	H36	H	0.342236	0.898467	0.214907
	H37	H	0.669473	0.097428	0.218486
	H38	H	0.343781	0.095833	0.784860
	H39	H	0.669682	0.897661	0.787948
	H40	H	0.907575	0.211793	0.337789
	H41	H	0.105049	0.211487	0.665365
	H42	H	0.104247	0.782995	0.338069
	H43	H	0.908740	0.782848	0.665702
	H44	H	0.220444	0.332964	0.902722
	H45	H	0.222846	0.660159	0.100863
	H46	H	0.791582	0.332681	0.101476
	H47	H	0.791962	0.660730	0.902752
	H48	H	0.412188	0.115387	0.596974
	H49	H	0.593326	0.880754	0.599143
	H50	H	0.597237	0.112565	0.412401
	H51	H	0.411094	0.880574	0.411839
	H52	H	0.595057	0.404304	0.116247
	H53	H	0.598307	0.591675	0.884594
	H54	H	0.411980	0.589610	0.118845
	H55	H	0.413145	0.394598	0.881968
	H56	H	0.123482	0.590757	0.404565
	H57	H	0.890168	0.591310	0.593411
	H58	H	0.120085	0.405890	0.590883
	H59	H	0.891678	0.404323	0.413385
	H60	H	0.122559	0.407370	0.598583
	H61	H	0.890366	0.588719	0.595313
	H62	H	0.121775	0.594264	0.411541
	H63	H	0.891252	0.408734	0.406610
	H64	H	0.414833	0.585728	0.116025
	H65	H	0.601904	0.590328	0.883678
	H66	H	0.601839	0.401120	0.118967
	H67	H	0.404831	0.410373	0.884129
	H68	H	0.601302	0.114203	0.409199
	H69	H	0.600167	0.882122	0.587890
	H70	H	0.420018	0.111362	0.593922
	H71	H	0.410625	0.878808	0.406815
	H72	H	0.914065	0.616015	0.103057
	H73	H	0.093103	0.382399	0.093431
	H74	H	0.100911	0.617102	0.899120
	H75	H	0.918243	0.381450	0.906461
	H76	H	0.100327	0.912478	0.615826
	H77	H	0.091260	0.094756	0.385741
	H78	H	0.907678	0.091441	0.619928
	H79	H	0.907130	0.910563	0.384527
	H80	H	0.619573	0.080390	0.909164
	H81	H	0.389402	0.097319	0.090966
	H82	H	0.624315	0.892237	0.092884
	H83	H	0.387099	0.900649	0.904293
	H84	H	0.618069	0.911015	0.087217
	H85	H	0.394443	0.082441	0.089317
	H86	H	0.626429	0.093750	0.900445
	H87	H	0.391432	0.902179	0.914927
	H88	H	0.914348	0.082720	0.615089
	H89	H	0.107265	0.095598	0.380980
	H90	H	0.092798	0.901026	0.617457
	H91	H	0.919947	0.908278	0.389089
	H92	H	0.091141	0.609692	0.912344
	H93	H	0.103901	0.380817	0.089765
	H94	H	0.921605	0.608338	0.088070
	H95	H	0.911235	0.381177	0.913909
	H96	H	0.413086	0.112327	0.588884
	H97	H	0.605759	0.876620	0.598098
	H98	H	0.597077	0.113146	0.407112
	H99	H	0.415120	0.880337	0.408546
	H100	H	0.601344	0.408395	0.116718
	H101	H	0.599485	0.588302	0.885013
	H102	H	0.417128	0.590875	0.117289
	H103	H	0.422135	0.408545	0.889276
	H104	H	0.120522	0.586462	0.410383
	H105	H	0.889207	0.591652	0.595768
	H106	H	0.123286	0.399537	0.595202
	H107	H	0.888148	0.401538	0.406548
	H108	H	0.904718	0.614325	0.088099
	H109	H	0.100928	0.378933	0.100961
	H110	H	0.107610	0.614952	0.915182
	H111	H	0.908894	0.377963	0.904098
	H112	H	0.105994	0.900708	0.621062
	H113	H	0.100683	0.081655	0.387992
	H114	H	0.919426	0.093567	0.618064
	H115	H	0.912878	0.897811	0.383125
	H116	H	0.621836	0.095600	0.916963
	H117	H	0.388344	0.087885	0.102785
	H118	H	0.624737	0.907509	0.106903
	H119	H	0.391745	0.911117	0.906828
	C120	C	0.385534	0.005036	0.622500
	C121	C	0.628278	0.988130	0.623740
	C122	C	0.627322	0.004909	0.380615
	C123	C	0.384006	0.988287	0.379605
	C124	C	0.627809	0.375776	0.009349
	C125	C	0.628350	0.618843	0.992700
	C126	C	0.385468	0.617922	0.009280
	C127	C	0.384103	0.374604	0.992862
	C128	C	0.013981	0.619469	0.379766
	C129	C	0.998017	0.619046	0.623449
	C130	C	0.014041	0.375412	0.623368
	C131	C	0.998120	0.375795	0.380474
	C132	C	0.884782	0.504743	0.122487
	C133	C	0.128277	0.488950	0.123119
	C134	C	0.128154	0.505522	0.879924
	C135	C	0.884706	0.488688	0.879785
	C136	C	0.127649	0.876120	0.510125
	C137	C	0.128429	0.119191	0.492783
	C138	C	0.884489	0.118645	0.510184
	C139	C	0.884877	0.875945	0.493626
	C140	C	0.514816	0.118401	0.879612
	C141	C	0.498508	0.118472	0.123431
	C142	C	0.514276	0.874846	0.123541
	C143	C	0.497822	0.875738	0.880284
	C144	C	0.387458	0.881826	0.677890
	C145	C	0.626544	0.111138	0.679283
	C146	C	0.625059	0.881725	0.325227
	C147	C	0.387334	0.111667	0.324442
	C148	C	0.682687	0.377799	0.886112
	C149	C	0.683332	0.616301	0.115955
	C150	C	0.329718	0.616375	0.886337
	C151	C	0.328571	0.376383	0.115801
	C152	C	0.890947	0.674358	0.382176
	C153	C	0.121006	0.674211	0.620797
	C154	C	0.891444	0.319584	0.620993
	C155	C	0.120867	0.320623	0.382913
	C156	C	0.891037	0.378078	0.678115
	C157	C	0.121344	0.616411	0.678496
	C158	C	0.891649	0.617605	0.323372
	C159	C	0.120695	0.378434	0.325394
	C160	C	0.387792	0.673414	0.886041
	C161	C	0.625010	0.673170	0.116164
	C162	C	0.625146	0.320445	0.886439
	C163	C	0.386642	0.319304	0.115963
	C164	C	0.683390	0.882092	0.382075
	C165	C	0.683484	0.111348	0.621281
	C166	C	0.329647	0.882022	0.620390
	C167	C	0.329817	0.111773	0.381603
	C168	C	0.887577	0.381781	0.178303
	C169	C	0.126134	0.612193	0.178024
	C170	C	0.124873	0.382100	0.824861
	C171	C	0.887838	0.612525	0.825259
	C172	C	0.182016	0.878361	0.386575
	C173	C	0.184493	0.117239	0.615790
	C174	C	0.828092	0.117485	0.387387
	C175	C	0.830129	0.877506	0.616621
	C176	C	0.391841	0.173388	0.881837
	C177	C	0.620921	0.174505	0.121338
	C178	C	0.391418	0.819503	0.120539
	C179	C	0.620956	0.820435	0.883101
	C180	C	0.391253	0.877393	0.177969
	C181	C	0.620883	0.117335	0.179915
	C182	C	0.392161	0.116225	0.823494
	C183	C	0.620832	0.877539	0.825304
	C184	C	0.886789	0.173988	0.386707
	C185	C	0.125768	0.173865	0.616408
	C186	C	0.124941	0.820623	0.386863
	C187	C	0.887989	0.820464	0.616709
	C188	C	0.182792	0.382004	0.882193
	C189	C	0.184023	0.611825	0.120648
	C190	C	0.829281	0.381898	0.121653
	C191	C	0.829905	0.612125	0.882387
	C192	C	0.408286	0.090876	0.599925
	C193	C	0.606178	0.901954	0.601629
	C194	C	0.604976	0.090890	0.402899
	C195	C	0.405896	0.902139	0.402271
	C196	C	0.605892	0.398193	0.095145
	C197	C	0.606437	0.596713	0.906751
	C198	C	0.407908	0.595323	0.095063
	C199	C	0.406637	0.397770	0.907290
	C200	C	0.099752	0.596988	0.402263
	C201	C	0.912207	0.596959	0.601365
	C202	C	0.099810	0.397667	0.601343
	C203	C	0.912434	0.398162	0.402614
	C204	C	0.907033	0.590672	0.099475
	C205	C	0.105888	0.402795	0.101012
	C206	C	0.106578	0.591667	0.902338
	C207	C	0.906372	0.402422	0.901726
	C208	C	0.105911	0.898246	0.595946
	C209	C	0.106158	0.097342	0.406941
	C210	C	0.907169	0.095977	0.595698
	C211	C	0.906967	0.898827	0.407656
	C212	C	0.600430	0.096170	0.902220
	C213	C	0.412899	0.095757	0.100880
	C214	C	0.600144	0.897124	0.102135
	C215	C	0.412141	0.898053	0.902177
	Zn216	Zn	0.506467	-0.003588	0.751723
	Zn217	Zn	0.506005	-0.003598	0.252471
	Zn218	Zn	0.756433	0.496405	0.001246
	Zn219	Zn	0.256555	0.496823	0.001411
	Zn220	Zn	0.006064	0.747892	0.501359
	Zn221	Zn	0.006069	0.246743	0.501337
	Zn222	Zn	0.006453	0.497492	0.751934
	Zn223	Zn	0.006185	0.497349	0.251173
	Zn224	Zn	0.506345	0.746721	0.001232
	Zn225	Zn	0.506275	0.247152	0.001212
	Zn226	Zn	0.755982	-0.002932	0.502042
	Zn227	Zn	0.256422	-0.002793	0.501332
	N228	N	0.421481	0.959215	0.679097
	N229	N	0.592864	0.033404	0.680838
	N230	N	0.590998	0.959063	0.324166
	N231	N	0.420292	0.033754	0.323141
	N232	N	0.684425	0.411402	0.963617
	N233	N	0.685576	0.583170	0.038273
	N234	N	0.328143	0.582536	0.964016
	N235	N	0.326884	0.410020	0.038184
	N236	N	0.968195	0.675658	0.416277
	N237	N	0.043636	0.675679	0.586937
	N238	N	0.968933	0.317784	0.587725
	N239	N	0.043565	0.318939	0.416355
	N240	N	0.968306	0.412304	0.679489
	N241	N	0.043755	0.583016	0.680352
	N242	N	0.969150	0.584094	0.321941
	N243	N	0.043235	0.412003	0.323610
	N244	N	0.421712	0.674487	0.963517
	N245	N	0.591412	0.674662	0.038498
	N246	N	0.591431	0.319262	0.963951
	N247	N	0.420294	0.318094	0.038604
	N248	N	0.685002	0.959821	0.415695
	N249	N	0.684606	0.033881	0.587411
	N250	N	0.328420	0.959687	0.586522
	N251	N	0.327543	0.034020	0.415020
	N252	N	0.921266	0.459502	0.179174
	N253	N	0.092439	0.534584	0.179904
	N254	N	0.091639	0.459868	0.823436
	N255	N	0.921340	0.534928	0.823775
	N256	N	0.183881	0.912160	0.464006
	N257	N	0.186332	0.084056	0.538055
	N258	N	0.826353	0.083965	0.465045
	N259	N	0.827912	0.911273	0.539052
	N260	N	0.469059	0.174566	0.916273
	N261	N	0.543714	0.175375	0.087132
	N262	N	0.468873	0.817691	0.087535
	N263	N	0.543592	0.819097	0.916602
	N264	N	0.468643	0.911336	0.179713
	N265	N	0.543748	0.083020	0.181270
	N266	N	0.469673	0.083071	0.821894
	N267	N	0.543393	0.911223	0.823581
	N268	N	0.921269	0.174802	0.464005
	N269	N	0.091670	0.175116	0.539021
	N270	N	0.091739	0.819047	0.464626
	N271	N	0.921118	0.819322	0.538960
	N272	N	0.184641	0.459724	0.915863
	N273	N	0.185577	0.534050	0.087421
	N274	N	0.827697	0.459238	0.087488
	N275	N	0.827784	0.534126	0.915535
	O276	O	0.972273	1.019713	0.092078
	H277	H	0.969009	1.024624	0.100955
	H278	H	0.966928	1.016527	0.100822
	O279	O	0.007936	-0.066263	0.050778
	H280	H	0.012455	-0.069230	0.049360
	H281	H	0.004686	-0.075369	0.054856
	O282	O	-0.056148	0.004764	1.051960
	H283	H	-0.058654	0.013497	1.052363
	H284	H	-0.061006	0.006131	1.059161
	O285	O	0.446758	0.492945	0.432851
	H286	H	0.448236	0.497844	0.432661
	H287	H	0.447144	0.485433	0.431113
	O288	O	0.512103	0.481400	0.487207
	H289	H	0.516509	0.481413	0.490789
	H290	H	0.516887	0.486727	0.481193
	O291	O	0.488133	0.498072	0.461130
	H292	H	0.487797	0.486049	0.447308
	H293	H	0.483288	0.492765	0.469520
	O294	O	0.034902	-0.050955	0.056129
	H295	H	0.025049	-0.058735	0.058446
	H296	H	0.037677	-0.065891	0.053210
	O297	O	0.454563	0.498805	0.493818
	H298	H	0.446443	0.501076	0.506554
	H299	H	0.456872	0.499379	0.497935
	O300	O	-0.020576	0.992562	1.036510
	H301	H	-0.022815	0.996705	1.037544
	H302	H	-0.018196	1.004395	1.036057
	O303	O	0.438557	0.477176	0.489814
	H304	H	0.440235	0.476652	0.484914
	H305	H	0.435615	0.473165	0.483885
	O306	O	-0.503301	0.474572	0.500795
	H307	H	-0.504516	0.476435	0.505816
	H308	H	-0.497065	0.480601	0.506365
	O309	O	0.998924	0.983222	0.979452
	H310	H	0.997905	0.991804	0.983157
	H311	H	0.995155	0.977577	0.981890
	O312	O	0.486423	0.410405	0.525252
	H313	H	0.482189	0.407170	0.518819
	H314	H	0.489639	0.414897	0.522664
	O315	O	0.453089	0.473056	0.489994
	H316	H	0.440035	0.469876	0.484719
	H317	H	0.445528	0.474055	0.494843
	O318	O	-0.014185	0.929242	0.052006
	H319	H	-0.013514	0.928191	0.053627
	H320	H	-0.012894	0.934894	0.046455
	O321	O	1.005997	0.979041	0.018172
	H322	H	1.010675	0.973096	0.023385
	H323	H	1.010908	0.981904	0.003148
