data_Molecule from HDF5

_cell_length_a		16.231238
_cell_length_b		16.386067
_cell_length_c		16.245640
_cell_angle_alpha	90.100330
_cell_angle_beta	90.108501
_cell_angle_gamma	89.822099
_symmetry_space_group_name_H-M	'P 1'
_symmetry_Int_Tables_number		1

loop_
	_symmetry_equiv_pos_as_xyz
	x,y,z

loop_
	_atom_site_label
	_atom_site_type_symbol
	_atom_site_fract_x
	_atom_site_fract_y
	_atom_site_fract_z
	H0	H	0.403103	0.834330	0.715841
	H1	H	0.600116	0.159661	0.716974
	H2	H	0.600546	0.834522	0.286330
	H3	H	0.402272	0.160625	0.287262
	H4	H	0.714524	0.397871	0.837576
	H5	H	0.712969	0.594064	0.166632
	H6	H	0.286259	0.594762	0.837845
	H7	H	0.287895	0.400026	0.166809
	H8	H	0.837740	0.712959	0.401748
	H9	H	0.165060	0.710815	0.601659
	H10	H	0.837912	0.282585	0.601317
	H11	H	0.164702	0.281210	0.401224
	H12	H	0.836065	0.401032	0.714347
	H13	H	0.164903	0.594293	0.716642
	H14	H	0.836579	0.595135	0.288344
	H15	H	0.165406	0.399583	0.288380
	H16	H	0.399359	0.713212	0.838436
	H17	H	0.599882	0.713171	0.164674
	H18	H	0.601238	0.280859	0.838664
	H19	H	0.401313	0.281505	0.165087
	H20	H	0.717469	0.835003	0.402097
	H21	H	0.715485	0.160122	0.600211
	H22	H	0.287410	0.833838	0.599851
	H23	H	0.284768	0.159356	0.403131
	H24	H	0.903079	0.334414	0.216341
	H25	H	0.099003	0.660750	0.217284
	H26	H	0.100933	0.334549	0.786197
	H27	H	0.901608	0.660257	0.788262
	H28	H	0.214225	0.898442	0.336599
	H29	H	0.213396	0.093596	0.666472
	H30	H	0.788349	0.094248	0.336642
	H31	H	0.788046	0.900188	0.665476
	H32	H	0.337980	0.213952	0.901179
	H33	H	0.665364	0.212244	0.101468
	H34	H	0.337592	0.782859	0.101563
	H35	H	0.663462	0.778691	0.899877
	H36	H	0.337067	0.900408	0.215171
	H37	H	0.666060	0.095433	0.216071
	H38	H	0.336837	0.095882	0.786442
	H39	H	0.665106	0.897353	0.787021
	H40	H	0.901228	0.213018	0.338157
	H41	H	0.102339	0.213583	0.664595
	H42	H	0.101651	0.779423	0.338993
	H43	H	0.901856	0.782452	0.665060
	H44	H	0.217657	0.334790	0.903102
	H45	H	0.215280	0.659984	0.101391
	H46	H	0.786897	0.333549	0.099778
	H47	H	0.784852	0.659845	0.903715
	H48	H	0.397235	0.117895	0.601313
	H49	H	0.586522	0.883093	0.594321
	H50	H	0.594727	0.113104	0.409793
	H51	H	0.401063	0.878688	0.405578
	H52	H	0.592220	0.409660	0.116135
	H53	H	0.589730	0.598000	0.883642
	H54	H	0.410163	0.592547	0.118269
	H55	H	0.407761	0.408637	0.886556
	H56	H	0.117604	0.591448	0.411527
	H57	H	0.886052	0.590505	0.590079
	H58	H	0.116187	0.410938	0.595734
	H59	H	0.884821	0.403360	0.410296
	H60	H	0.120035	0.401154	0.598158
	H61	H	0.883647	0.588373	0.598967
	H62	H	0.116874	0.586993	0.410930
	H63	H	0.883704	0.406042	0.409233
	H64	H	0.407007	0.592949	0.119198
	H65	H	0.600552	0.585765	0.883790
	H66	H	0.588595	0.399253	0.117926
	H67	H	0.413168	0.404890	0.886648
	H68	H	0.596239	0.113559	0.406613
	H69	H	0.598403	0.883215	0.586579
	H70	H	0.419186	0.110320	0.598922
	H71	H	0.414125	0.882096	0.402396
	H72	H	0.909560	0.611556	0.093879
	H73	H	0.098397	0.380340	0.095446
	H74	H	0.091893	0.610179	0.915942
	H75	H	0.906406	0.380934	0.907901
	H76	H	0.094462	0.910404	0.616085
	H77	H	0.090660	0.090358	0.385192
	H78	H	0.917809	0.098923	0.617659
	H79	H	0.902521	0.900720	0.382419
	H80	H	0.615501	0.084953	0.913784
	H81	H	0.386662	0.087634	0.091926
	H82	H	0.616216	0.909094	0.092181
	H83	H	0.384299	0.897858	0.916272
	H84	H	0.619972	0.903085	0.098944
	H85	H	0.383998	0.089626	0.097282
	H86	H	0.618870	0.087224	0.902567
	H87	H	0.388638	0.914778	0.911402
	H88	H	0.898739	0.095194	0.622598
	H89	H	0.093660	0.090834	0.384663
	H90	H	0.087540	0.901208	0.617042
	H91	H	0.909813	0.910394	0.387121
	H92	H	0.098906	0.614499	0.908401
	H93	H	0.091013	0.382455	0.097455
	H94	H	0.903734	0.612581	0.093183
	H95	H	0.907994	0.380855	0.907170
	H96	H	0.405681	0.109091	0.581275
	H97	H	0.598524	0.878504	0.600044
	H98	H	0.592907	0.113026	0.407014
	H99	H	0.410051	0.884307	0.414991
	H100	H	0.599382	0.401984	0.121177
	H101	H	0.584919	0.583486	0.889021
	H102	H	0.407771	0.590164	0.118449
	H103	H	0.407732	0.402163	0.884784
	H104	H	0.118445	0.589343	0.407336
	H105	H	0.882253	0.596879	0.595542
	H106	H	0.116399	0.402727	0.588526
	H107	H	0.883504	0.403994	0.407925
	H108	H	0.906839	0.613964	0.098677
	H109	H	0.093315	0.383517	0.090671
	H110	H	0.087437	0.611692	0.905008
	H111	H	0.907221	0.381807	0.908888
	H112	H	0.098474	0.900451	0.620947
	H113	H	0.092849	0.088101	0.385555
	H114	H	0.909869	0.080785	0.615505
	H115	H	0.914890	0.898926	0.384989
	H116	H	0.618826	0.096732	0.910824
	H117	H	0.384381	0.093829	0.093236
	H118	H	0.618093	0.899573	0.089639
	H119	H	0.381090	0.903474	0.900055
	C120	C	0.379321	0.004905	0.622704
	C121	C	0.623174	0.988981	0.623186
	C122	C	0.623226	0.005467	0.379204
	C123	C	0.379379	0.989005	0.379329
	C124	C	0.622456	0.374913	0.010261
	C125	C	0.621044	0.618237	0.993362
	C126	C	0.378951	0.620014	0.010604
	C127	C	0.380123	0.376457	0.994041
	C128	C	0.009286	0.618047	0.380874
	C129	C	0.992547	0.619184	0.623818
	C130	C	0.009164	0.376461	0.622908
	C131	C	0.992620	0.375573	0.380138
	C132	C	0.878424	0.505161	0.123625
	C133	C	0.122684	0.489232	0.124049
	C134	C	0.122496	0.505081	0.880546
	C135	C	0.878252	0.488907	0.879895
	C136	C	0.122777	0.874670	0.510002
	C137	C	0.121975	0.118368	0.493455
	C138	C	0.879944	0.119519	0.509868
	C139	C	0.880276	0.875521	0.492870
	C140	C	0.509436	0.118856	0.879654
	C141	C	0.493537	0.118803	0.123016
	C142	C	0.509684	0.876187	0.122453
	C143	C	0.492392	0.875466	0.879848
	C144	C	0.382089	0.882899	0.678266
	C145	C	0.620288	0.111109	0.678607
	C146	C	0.621048	0.883192	0.324132
	C147	C	0.381770	0.111582	0.324563
	C148	C	0.677294	0.377356	0.886772
	C149	C	0.675828	0.615195	0.117168
	C150	C	0.323639	0.616179	0.887005
	C151	C	0.325421	0.379486	0.117575
	C152	C	0.886149	0.673970	0.382261
	C153	C	0.115892	0.673426	0.622010
	C154	C	0.886430	0.320714	0.621475
	C155	C	0.115693	0.319700	0.381449
	C156	C	0.885677	0.379691	0.677521
	C157	C	0.115972	0.615301	0.679074
	C158	C	0.885728	0.615492	0.325837
	C159	C	0.115972	0.378330	0.325084
	C160	C	0.379937	0.674849	0.887223
	C161	C	0.619877	0.674350	0.116280
	C162	C	0.620877	0.319126	0.887213
	C163	C	0.381491	0.320395	0.116592
	C164	C	0.678943	0.883345	0.381925
	C165	C	0.677827	0.111407	0.620696
	C166	C	0.324667	0.882527	0.620343
	C167	C	0.323103	0.111167	0.381964
	C168	C	0.882132	0.382769	0.178645
	C169	C	0.119759	0.611745	0.179646
	C170	C	0.120744	0.383012	0.824730
	C171	C	0.880728	0.611455	0.825585
	C172	C	0.177696	0.877236	0.386314
	C173	C	0.177026	0.115297	0.616923
	C174	C	0.825620	0.115327	0.386017
	C175	C	0.825458	0.878898	0.616555
	C176	C	0.386637	0.175420	0.880998
	C177	C	0.616647	0.174035	0.121447
	C178	C	0.386318	0.821304	0.121017
	C179	C	0.615301	0.818279	0.880893
	C180	C	0.386081	0.879847	0.177373
	C181	C	0.616897	0.116239	0.178574
	C182	C	0.386167	0.116781	0.823996
	C183	C	0.616222	0.877282	0.824942
	C184	C	0.881350	0.174777	0.386698
	C185	C	0.121244	0.174531	0.616078
	C186	C	0.121720	0.818110	0.387303
	C187	C	0.882376	0.820675	0.616515
	C188	C	0.179184	0.383216	0.882473
	C189	C	0.177272	0.611681	0.122003
	C190	C	0.824008	0.382471	0.120926
	C191	C	0.822896	0.611230	0.883230
	C192	C	0.401017	0.090254	0.600437
	C193	C	0.601026	0.903567	0.600359
	C194	C	0.600992	0.091158	0.401460
	C195	C	0.401923	0.903749	0.401127
	C196	C	0.599988	0.397034	0.096105
	C197	C	0.598264	0.595667	0.907606
	C198	C	0.401560	0.598271	0.096452
	C199	C	0.402807	0.398799	0.908146
	C200	C	0.095401	0.595758	0.403462
	C201	C	0.906130	0.598046	0.601349
	C202	C	0.095241	0.398478	0.600588
	C203	C	0.906090	0.397867	0.402681
	C204	C	0.900153	0.590553	0.101682
	C205	C	0.100753	0.404135	0.101338
	C206	C	0.099674	0.590163	0.903353
	C207	C	0.900721	0.403353	0.901499
	C208	C	0.100228	0.897402	0.595899
	C209	C	0.098935	0.096164	0.407276
	C210	C	0.902238	0.097998	0.596137
	C211	C	0.902544	0.896936	0.407211
	C212	C	0.595508	0.096373	0.902412
	C213	C	0.407348	0.096943	0.100661
	C214	C	0.595809	0.897497	0.100036
	C215	C	0.406876	0.898415	0.902579
	Zn216	Zn	0.501089	-0.003270	0.751658
	Zn217	Zn	0.501636	-0.002650	0.250617
	Zn218	Zn	0.749390	0.496742	0.001521
	Zn219	Zn	0.251782	0.497585	0.002792
	Zn220	Zn	0.001015	0.746619	0.501719
	Zn221	Zn	0.001212	0.247729	0.501675
	Zn222	Zn	0.000253	0.497134	0.751476
	Zn223	Zn	0.001036	0.497079	0.252352
	Zn224	Zn	0.500379	0.747804	0.001197
	Zn225	Zn	0.501243	0.247293	0.001949
	Zn226	Zn	0.752116	-0.002389	0.501432
	Zn227	Zn	0.249840	-0.003276	0.501511
	N228	N	0.415346	0.959990	0.679792
	N229	N	0.586988	0.033924	0.680064
	N230	N	0.586970	0.960113	0.322910
	N231	N	0.415969	0.034537	0.322888
	N232	N	0.678294	0.411309	0.964174
	N233	N	0.676747	0.580921	0.039700
	N234	N	0.323000	0.582658	0.964609
	N235	N	0.324498	0.413604	0.040167
	N236	N	0.964129	0.675706	0.415674
	N237	N	0.038118	0.675670	0.588216
	N238	N	0.964321	0.318492	0.588113
	N239	N	0.037729	0.317918	0.414812
	N240	N	0.963051	0.413637	0.678255
	N241	N	0.038170	0.582404	0.680326
	N242	N	0.963317	0.581434	0.324911
	N243	N	0.038385	0.412322	0.324363
	N244	N	0.413347	0.677483	0.965067
	N245	N	0.586428	0.676291	0.038453
	N246	N	0.587378	0.317586	0.965093
	N247	N	0.414601	0.318405	0.038783
	N248	N	0.680563	0.960575	0.415384
	N249	N	0.679818	0.034349	0.586817
	N250	N	0.322857	0.959426	0.586445
	N251	N	0.321327	0.034145	0.415124
	N252	N	0.915072	0.460007	0.180500
	N253	N	0.086411	0.534504	0.180869
	N254	N	0.086096	0.459833	0.823540
	N255	N	0.914349	0.534282	0.823351
	N256	N	0.178342	0.911880	0.463783
	N257	N	0.177524	0.081033	0.539511
	N258	N	0.824593	0.081911	0.463766
	N259	N	0.824072	0.912469	0.539192
	N260	N	0.464335	0.176564	0.915030
	N261	N	0.538688	0.175944	0.087761
	N262	N	0.464038	0.818945	0.087512
	N263	N	0.537410	0.817030	0.914247
	N264	N	0.463812	0.913151	0.178454
	N265	N	0.539369	0.082724	0.179540
	N266	N	0.463449	0.082333	0.823285
	N267	N	0.539080	0.912167	0.824136
	N268	N	0.914612	0.177165	0.464597
	N269	N	0.087961	0.176576	0.538112
	N270	N	0.088031	0.816693	0.464813
	N271	N	0.915671	0.818376	0.538624
	N272	N	0.180605	0.460217	0.916120
	N273	N	0.179246	0.534762	0.088051
	N274	N	0.821994	0.459414	0.087128
	N275	N	0.821426	0.534004	0.916312
	O276	O	1.065753	0.995680	-0.050639
	H277	H	1.068326	1.000999	-0.045656
	H278	H	1.046583	0.997007	-0.053054
	O279	O	0.009115	0.033828	0.022635
	H280	H	0.010557	0.018668	0.014903
	H281	H	0.022904	0.040516	0.027637
	O282	O	-0.044042	-0.011478	0.938616
	H283	H	-0.034608	-0.010893	0.939477
	H284	H	-0.042490	-0.022167	0.947148
	O285	O	0.446283	0.513155	0.505023
	H286	H	0.450653	0.519938	0.510443
	H287	H	0.447030	0.510598	0.505750
	O288	O	0.524785	0.461128	0.500918
	H289	H	0.529492	0.457875	0.494940
	H290	H	0.527586	0.451188	0.496895
	O291	O	0.519212	0.516922	0.531886
	H292	H	0.521947	0.518920	0.527785
	H293	H	0.515925	0.510805	0.535476
	O294	O	-0.003302	0.011557	-0.066501
	H295	H	-0.009438	0.019238	-0.072076
	H296	H	-0.010946	0.016410	-0.057473
	O297	O	0.550784	0.437861	0.519547
	H298	H	0.544377	0.433038	0.516094
	H299	H	0.541597	0.443702	0.517175
	O300	O	0.111399	1.007077	1.011765
	H301	H	0.102724	1.009069	1.011785
	H302	H	0.112932	1.018738	1.000772
	O303	O	0.473480	0.444737	0.471304
	H304	H	0.469458	0.451025	0.483483
	H305	H	0.471330	0.437851	0.470204
	O306	O	-0.220139	0.206719	0.860776
	H307	H	-0.222538	0.203136	0.859772
	H308	H	-0.231747	0.202997	0.857918
	O309	O	0.974136	1.006600	0.989228
	H310	H	0.986811	1.009957	0.998316
	H311	H	0.979941	1.002250	0.982699
	O312	O	0.478033	0.506321	0.502752
	H313	H	0.478490	0.509730	0.498264
	H314	H	0.474464	0.508639	0.509890
	O315	O	0.495676	0.462956	0.541128
	H316	H	0.504276	0.465643	0.535551
	H317	H	0.502930	0.457568	0.541294
	O318	O	0.101966	0.986162	-0.034625
	H319	H	0.105838	0.980779	-0.035839
	H320	H	0.093665	0.994488	-0.039553
	O321	O	1.031642	0.991438	-0.043070
	H322	H	1.030675	0.981743	-0.042993
	H323	H	1.039413	0.993983	-0.050136
