data_Molecule from HDF5

_cell_length_a		16.257322
_cell_length_b		16.234729
_cell_length_c		16.318242
_cell_angle_alpha	89.688616
_cell_angle_beta	89.801165
_cell_angle_gamma	90.434434
_symmetry_space_group_name_H-M	'P 1'
_symmetry_Int_Tables_number		1

loop_
	_symmetry_equiv_pos_as_xyz
	x,y,z

loop_
	_atom_site_label
	_atom_site_type_symbol
	_atom_site_fract_x
	_atom_site_fract_y
	_atom_site_fract_z
	H0	H	0.396004	0.835538	0.722666
	H1	H	0.601629	0.161906	0.720667
	H2	H	0.598383	0.835930	0.289892
	H3	H	0.399514	0.162224	0.288976
	H4	H	0.714107	0.400910	0.844287
	H5	H	0.714310	0.600487	0.169206
	H6	H	0.282251	0.597708	0.843799
	H7	H	0.281867	0.397205	0.169869
	H8	H	0.834228	0.713205	0.407589
	H9	H	0.161870	0.713552	0.604999
	H10	H	0.834576	0.280585	0.608378
	H11	H	0.163267	0.289410	0.411471
	H12	H	0.834314	0.395390	0.724761
	H13	H	0.161310	0.597213	0.721451
	H14	H	0.834793	0.598321	0.290671
	H15	H	0.159841	0.398302	0.290429
	H16	H	0.399764	0.714408	0.842709
	H17	H	0.596813	0.714132	0.169504
	H18	H	0.596722	0.286566	0.843226
	H19	H	0.396384	0.279669	0.168211
	H20	H	0.714035	0.836395	0.405220
	H21	H	0.715322	0.161775	0.604584
	H22	H	0.281690	0.835243	0.604943
	H23	H	0.285736	0.163037	0.404765
	H24	H	0.892271	0.335411	0.226894
	H25	H	0.099353	0.660385	0.223821
	H26	H	0.097631	0.334747	0.793221
	H27	H	0.898083	0.660283	0.790646
	H28	H	0.212804	0.901307	0.342336
	H29	H	0.215990	0.098545	0.668137
	H30	H	0.783159	0.099918	0.343883
	H31	H	0.779221	0.896130	0.668347
	H32	H	0.334916	0.213441	0.903972
	H33	H	0.660809	0.216560	0.103866
	H34	H	0.334755	0.783146	0.106074
	H35	H	0.662226	0.785936	0.906548
	H36	H	0.335052	0.897552	0.222849
	H37	H	0.661125	0.101888	0.220679
	H38	H	0.336030	0.097835	0.788939
	H39	H	0.660938	0.898196	0.787508
	H40	H	0.899806	0.216247	0.344456
	H41	H	0.098555	0.212529	0.670077
	H42	H	0.098579	0.783057	0.343762
	H43	H	0.896567	0.781490	0.669470
	H44	H	0.210063	0.334036	0.909722
	H45	H	0.214717	0.660398	0.107892
	H46	H	0.776569	0.336239	0.110577
	H47	H	0.785906	0.662283	0.907049
	H48	H	0.398459	0.117095	0.593165
	H49	H	0.591779	0.881201	0.596348
	H50	H	0.584297	0.113132	0.412754
	H51	H	0.402198	0.881931	0.414440
	H52	H	0.589629	0.405714	0.123127
	H53	H	0.590238	0.591567	0.891260
	H54	H	0.400005	0.588529	0.122983
	H55	H	0.404974	0.418273	0.893790
	H56	H	0.114652	0.583356	0.404285
	H57	H	0.880991	0.585122	0.607165
	H58	H	0.113061	0.410356	0.602747
	H59	H	0.879487	0.403909	0.412604
	H60	H	0.116789	0.403323	0.607446
	H61	H	0.878070	0.597219	0.601173
	H62	H	0.117604	0.603326	0.413481
	H63	H	0.881904	0.401779	0.421694
	H64	H	0.409022	0.588536	0.121222
	H65	H	0.592395	0.594274	0.889918
	H66	H	0.587363	0.409327	0.121863
	H67	H	0.413182	0.398195	0.889993
	H68	H	0.595640	0.116212	0.418063
	H69	H	0.586315	0.882593	0.600849
	H70	H	0.409962	0.117822	0.607675
	H71	H	0.405577	0.881730	0.409763
	H72	H	0.913630	0.614833	0.109474
	H73	H	0.079638	0.381479	0.105918
	H74	H	0.090467	0.615216	0.911990
	H75	H	0.907235	0.380001	0.910001
	H76	H	0.086263	0.904000	0.620868
	H77	H	0.082748	0.091550	0.393336
	H78	H	0.910932	0.082053	0.618765
	H79	H	0.913654	0.910825	0.394062
	H80	H	0.612645	0.093369	0.918459
	H81	H	0.379959	0.083277	0.106628
	H82	H	0.618353	0.905169	0.108810
	H83	H	0.379339	0.899196	0.912191
	H84	H	0.615184	0.898922	0.091284
	H85	H	0.379309	0.097281	0.095002
	H86	H	0.613849	0.087219	0.910953
	H87	H	0.385447	0.908068	0.921131
	H88	H	0.909408	0.095960	0.623502
	H89	H	0.094548	0.106463	0.386677
	H90	H	0.094783	0.905512	0.624053
	H91	H	0.906451	0.898414	0.388553
	H92	H	0.088147	0.613989	0.915546
	H93	H	0.089321	0.383603	0.091041
	H94	H	0.913275	0.609176	0.089404
	H95	H	0.908296	0.384521	0.923462
	H96	H	0.415424	0.110633	0.591405
	H97	H	0.585634	0.884198	0.594034
	H98	H	0.593705	0.118495	0.405424
	H99	H	0.408207	0.883701	0.414617
	H100	H	0.585019	0.405939	0.121583
	H101	H	0.593990	0.591884	0.890381
	H102	H	0.404903	0.595270	0.123671
	H103	H	0.391931	0.402889	0.886202
	H104	H	0.109693	0.586411	0.425757
	H105	H	0.884191	0.586578	0.593186
	H106	H	0.115154	0.402594	0.598408
	H107	H	0.882668	0.411199	0.418319
	H108	H	0.895853	0.617248	0.097978
	H109	H	0.096596	0.376915	0.105438
	H110	H	0.092246	0.615392	0.916187
	H111	H	0.896592	0.379479	0.918242
	H112	H	0.089968	0.911992	0.619956
	H113	H	0.101344	0.087802	0.389297
	H114	H	0.898024	0.087195	0.624012
	H115	H	0.898525	0.911448	0.389970
	H116	H	0.616867	0.095666	0.910331
	H117	H	0.387307	0.081655	0.089861
	H118	H	0.611947	0.916418	0.096117
	H119	H	0.382004	0.912050	0.908360
	C120	C	0.377172	0.007198	0.627164
	C121	C	0.619103	0.990332	0.626467
	C122	C	0.619996	0.007731	0.383463
	C123	C	0.377089	0.990680	0.383606
	C124	C	0.617483	0.378541	0.014859
	C125	C	0.620668	0.621666	0.998195
	C126	C	0.376068	0.620001	0.014939
	C127	C	0.374834	0.376161	0.997525
	C128	C	0.006083	0.619898	0.385251
	C129	C	0.989299	0.619402	0.628872
	C130	C	0.006503	0.375844	0.631078
	C131	C	0.989393	0.377594	0.387654
	C132	C	0.875168	0.506601	0.129843
	C133	C	0.118681	0.488901	0.129308
	C134	C	0.118918	0.506673	0.886261
	C135	C	0.875922	0.489218	0.886634
	C136	C	0.119560	0.878268	0.514050
	C137	C	0.121775	0.122391	0.497455
	C138	C	0.877236	0.119605	0.514989
	C139	C	0.875685	0.876455	0.498065
	C140	C	0.506956	0.121090	0.883282
	C141	C	0.489725	0.119357	0.126466
	C142	C	0.507329	0.876961	0.128404
	C143	C	0.489894	0.877405	0.883992
	C144	C	0.376514	0.884566	0.684212
	C145	C	0.619904	0.113131	0.682252
	C146	C	0.618387	0.884860	0.327744
	C147	C	0.379076	0.113337	0.326769
	C148	C	0.674950	0.380886	0.892571
	C149	C	0.676278	0.620281	0.120355
	C150	C	0.320633	0.618125	0.892129
	C151	C	0.319524	0.377005	0.120892
	C152	C	0.883221	0.675526	0.387188
	C153	C	0.112696	0.675451	0.625836
	C154	C	0.883601	0.318815	0.628567
	C155	C	0.113381	0.325109	0.390354
	C156	C	0.883376	0.375777	0.686777
	C157	C	0.112505	0.617538	0.683758
	C158	C	0.883597	0.618386	0.329063
	C159	C	0.111723	0.379329	0.330261
	C160	C	0.378980	0.675966	0.891753
	C161	C	0.617788	0.676764	0.120701
	C162	C	0.616756	0.323988	0.892031
	C163	C	0.376564	0.318746	0.119903
	C164	C	0.675426	0.884916	0.385562
	C165	C	0.676775	0.113055	0.624736
	C166	C	0.319784	0.884336	0.625303
	C167	C	0.322654	0.113868	0.384797
	C168	C	0.873486	0.384243	0.187858
	C169	C	0.118600	0.611662	0.185074
	C170	C	0.116981	0.383631	0.831016
	C171	C	0.878395	0.611615	0.829178
	C172	C	0.174894	0.880779	0.390983
	C173	C	0.177623	0.118865	0.619856
	C174	C	0.821804	0.119382	0.392319
	C175	C	0.817907	0.876620	0.619818
	C176	C	0.384176	0.176093	0.884192
	C177	C	0.612056	0.177695	0.124153
	C178	C	0.383770	0.820829	0.126389
	C179	C	0.613145	0.822943	0.885872
	C180	C	0.384084	0.877947	0.184285
	C181	C	0.612139	0.120991	0.182832
	C182	C	0.384674	0.118698	0.826704
	C183	C	0.612536	0.878781	0.826669
	C184	C	0.879633	0.177317	0.392839
	C185	C	0.119176	0.175427	0.620961
	C186	C	0.118039	0.821966	0.391745
	C187	C	0.876173	0.819392	0.620297
	C188	C	0.173297	0.383326	0.888722
	C189	C	0.176154	0.611634	0.127724
	C190	C	0.815973	0.384514	0.130028
	C191	C	0.822750	0.612955	0.887652
	C192	C	0.401065	0.093004	0.604354
	C193	C	0.594942	0.904839	0.603665
	C194	C	0.597694	0.093750	0.405606
	C195	C	0.399011	0.904691	0.406405
	C196	C	0.594267	0.400561	0.100210
	C197	C	0.598589	0.599302	0.912562
	C198	C	0.398205	0.597478	0.100351
	C199	C	0.396844	0.399616	0.912196
	C200	C	0.091682	0.597686	0.407896
	C201	C	0.903431	0.596303	0.607029
	C202	C	0.092676	0.398621	0.609317
	C203	C	0.903464	0.399266	0.410776
	C204	C	0.900286	0.591618	0.105954
	C205	C	0.095295	0.402976	0.107177
	C206	C	0.096903	0.592567	0.908182
	C207	C	0.897645	0.403363	0.910304
	C208	C	0.096826	0.900474	0.599480
	C209	C	0.099511	0.101549	0.411888
	C210	C	0.899545	0.095515	0.599859
	C211	C	0.899237	0.899948	0.412899
	C212	C	0.592260	0.098357	0.906482
	C213	C	0.404347	0.094697	0.103589
	C214	C	0.592976	0.900087	0.105534
	C215	C	0.404508	0.899783	0.907193
	Zn216	Zn	0.499073	-0.000985	0.755758
	Zn217	Zn	0.498622	-0.000919	0.255865
	Zn218	Zn	0.747847	0.498986	0.007131
	Zn219	Zn	0.246425	0.497661	0.007180
	Zn220	Zn	-0.001659	0.748388	0.506689
	Zn221	Zn	-0.001016	0.249274	0.507672
	Zn222	Zn	-0.002701	0.497584	0.758810
	Zn223	Zn	-0.002786	0.497322	0.257682
	Zn224	Zn	0.498607	0.749512	0.006320
	Zn225	Zn	0.497008	0.248628	0.005350
	Zn226	Zn	0.747285	-0.001159	0.505738
	Zn227	Zn	0.248841	0.000029	0.504777
	N228	N	0.411401	0.961985	0.685380
	N229	N	0.584734	0.035808	0.683412
	N230	N	0.584763	0.962379	0.326407
	N231	N	0.411984	0.035608	0.325741
	N232	N	0.675642	0.414139	0.969962
	N233	N	0.678127	0.586745	0.043063
	N234	N	0.318365	0.584278	0.969640
	N235	N	0.318360	0.412090	0.043997
	N236	N	0.960591	0.676887	0.421141
	N237	N	0.035134	0.676664	0.592631
	N238	N	0.961376	0.318556	0.594790
	N239	N	0.036127	0.323789	0.425297
	N240	N	0.960661	0.410607	0.688238
	N241	N	0.034658	0.583372	0.685871
	N242	N	0.960932	0.584582	0.327736
	N243	N	0.033527	0.410965	0.328268
	N244	N	0.412676	0.677300	0.968957
	N245	N	0.584069	0.677952	0.043546
	N246	N	0.581889	0.322333	0.968986
	N247	N	0.410115	0.317921	0.042401
	N248	N	0.676714	0.962379	0.419234
	N249	N	0.676287	0.035722	0.590704
	N250	N	0.319950	0.961845	0.590714
	N251	N	0.321337	0.036467	0.419572
	N252	N	0.909567	0.461096	0.187804
	N253	N	0.083474	0.534376	0.186078
	N254	N	0.083685	0.461397	0.829264
	N255	N	0.910855	0.533729	0.828784
	N256	N	0.175855	0.915133	0.467744
	N257	N	0.179447	0.086733	0.541999
	N258	N	0.820167	0.084252	0.469097
	N259	N	0.817439	0.911277	0.542625
	N260	N	0.461205	0.177792	0.918497
	N261	N	0.534771	0.176786	0.089846
	N262	N	0.461345	0.819991	0.092212
	N263	N	0.536104	0.822013	0.920932
	N264	N	0.461742	0.912071	0.185586
	N265	N	0.535193	0.085322	0.184245
	N266	N	0.462139	0.085269	0.825719
	N267	N	0.534772	0.911842	0.825340
	N268	N	0.913450	0.177655	0.470051
	N269	N	0.085159	0.177876	0.544089
	N270	N	0.084103	0.820421	0.469129
	N271	N	0.911521	0.819141	0.543690
	N272	N	0.174495	0.460768	0.922514
	N273	N	0.176078	0.534234	0.093582
	N274	N	0.816709	0.461630	0.094833
	N275	N	0.820848	0.535695	0.922664
	O276	O	0.464016	0.367669	0.567460
	H277	H	0.465402	0.372947	0.568744
	H278	H	0.470519	0.370372	0.574970
	O279	O	0.348180	0.480212	0.567938
	H280	H	0.350561	0.487015	0.572282
	H281	H	0.340368	0.477496	0.578306
	O282	O	0.489882	0.555584	-0.551696
	H283	H	0.478856	0.553312	-0.550232
	H284	H	0.488689	0.557743	-0.553125
	O285	O	0.885056	0.053460	0.891067
	H286	H	0.879858	0.043669	0.886338
	H287	H	0.888281	0.057055	0.893690
	O288	O	0.479456	0.484352	0.588735
	H289	H	0.473167	0.482472	0.588953
	H290	H	0.479186	0.479160	0.599295
	O291	O	-0.156691	0.935560	0.080786
	H292	H	-0.151793	0.939784	0.084639
	H293	H	-0.158537	0.932207	0.081925
	O294	O	0.585068	0.404976	0.471282
	H295	H	0.577139	0.400357	0.469967
	H296	H	0.592123	0.405658	0.462878
	O297	O	-0.025375	0.044961	0.884632
	H298	H	-0.030133	0.050030	0.879131
	H299	H	-0.026936	0.055597	0.876256
	O300	O	0.584774	0.542073	0.590323
	H301	H	0.595774	0.557977	0.587824
	H302	H	0.605254	0.531844	0.592278
	O303	O	1.006847	1.089673	-0.098239
	H304	H	0.997539	1.091995	-0.093644
	H305	H	1.007371	1.092035	-0.096275
	O306	O	0.016177	0.902460	0.980321
	H307	H	0.019741	0.904659	0.985681
	H308	H	0.029450	0.909877	0.971807
	O309	O	0.498964	0.546572	0.434316
	H310	H	0.489312	0.543609	0.433501
	H311	H	0.492276	0.549481	0.434310
	O312	O	-0.090716	0.008456	-0.104257
	H313	H	-0.086349	0.010665	-0.107455
	H314	H	-0.074921	0.001518	-0.091113
	O315	O	1.032854	-0.059548	0.002860
	H316	H	1.040456	-0.058194	0.005473
	H317	H	1.019936	-0.067115	0.009861
	O318	O	1.002331	0.865153	0.956062
	H319	H	0.999370	0.852988	0.941088
	H320	H	1.022584	0.865447	0.952015
	O321	O	0.150325	0.018464	0.948467
	H322	H	0.147561	0.020463	0.946161
	H323	H	0.150561	0.020862	0.944278
	O324	O	1.046566	-0.000430	0.066523
	H325	H	1.047801	0.009102	0.069587
	H326	H	1.038962	-0.007637	0.069031
	O327	O	-0.050847	-0.090354	0.139717
	H328	H	-0.045036	-0.088595	0.144803
	H329	H	-0.055999	-0.100489	0.129774
	O330	O	0.565146	0.605975	0.521504
	H331	H	0.563751	0.614464	0.526347
	H332	H	0.567870	0.595099	0.512097
	O333	O	-0.007366	1.016920	1.034997
	H334	H	-0.018367	1.000997	1.037847
	H335	H	-0.004194	1.012023	1.028357
	O336	O	-0.046420	0.027095	0.040912
	H337	H	-0.055884	0.019301	0.029678
	H338	H	-0.038907	0.037395	0.029356
	O339	O	0.496199	0.454549	0.557461
	H340	H	0.493297	0.451142	0.564811
	H341	H	0.500205	0.450923	0.554244
	O342	O	1.479085	1.616701	1.486172
	H343	H	1.478354	1.614955	1.483008
	H344	H	1.493476	1.610912	1.476658
	O345	O	1.107115	1.068382	0.075173
	H346	H	1.103085	1.072118	0.094240
	H347	H	1.100157	1.068986	0.083549
	O348	O	0.426606	0.421047	0.477348
	H349	H	0.422972	0.417336	0.470108
	H350	H	0.413520	0.428584	0.485213
	O351	O	0.475738	0.442557	0.498255
	H352	H	0.471904	0.443424	0.497872
	H353	H	0.479310	0.441657	0.491156
	O354	O	0.486560	0.480866	0.618140
	H355	H	0.494270	0.476009	0.616719
	H356	H	0.487037	0.482477	0.620562
	O357	O	1.125386	-0.004693	0.108085
	H358	H	1.120587	-0.000201	0.089841
	H359	H	1.130367	-0.004601	0.110116
	O360	O	0.456545	0.605985	0.465407
	H361	H	0.449910	0.616021	0.469164
	H362	H	0.456741	0.614305	0.463088
	O363	O	0.555336	0.529129	0.549933
	H364	H	0.563773	0.523709	0.543296
	H365	H	0.554535	0.518968	0.548733
	O366	O	0.940552	1.042846	1.051431
	H367	H	0.943293	1.043992	1.034810
	H368	H	0.923378	1.040663	1.055467
	O369	O	1.121048	-0.084191	0.867510
	H370	H	1.128862	-0.068490	0.874778
	H371	H	1.129737	-0.078787	0.869174
	O372	O	-0.069990	-0.043312	0.078354
	H373	H	-0.072457	-0.050045	0.092108
	H374	H	-0.075647	-0.046032	0.068480
	O375	O	0.956596	-0.039096	0.141959
	H376	H	0.967210	-0.041163	0.141052
	H377	H	0.954998	-0.044189	0.151288
	O378	O	0.976019	1.050989	0.990120
	H379	H	0.974968	1.039501	0.990038
	H380	H	0.966484	1.048674	0.998297
	O381	O	0.603652	0.485412	0.446356
	H382	H	0.598860	0.487432	0.453938
	H383	H	0.604313	0.484281	0.440355
