data_Molecule from HDF5

_cell_length_a		16.434909
_cell_length_b		16.606415
_cell_length_c		16.473688
_cell_angle_alpha	89.952146
_cell_angle_beta	89.957997
_cell_angle_gamma	89.811605
_symmetry_space_group_name_H-M	'P 1'
_symmetry_Int_Tables_number		1

loop_
	_symmetry_equiv_pos_as_xyz
	x,y,z

loop_
	_atom_site_label
	_atom_site_type_symbol
	_atom_site_fract_x
	_atom_site_fract_y
	_atom_site_fract_z
	H0	H	0.389080	0.858125	0.722154
	H1	H	0.598789	0.170776	0.721551
	H2	H	0.602001	0.856838	0.277858
	H3	H	0.391492	0.172364	0.280439
	H4	H	0.714623	0.411664	0.842067
	H5	H	0.717698	0.622328	0.157188
	H6	H	0.273558	0.621089	0.842553
	H7	H	0.275705	0.413804	0.159298
	H8	H	0.837264	0.737523	0.393053
	H9	H	0.152694	0.736854	0.604926
	H10	H	0.836787	0.296399	0.603182
	H11	H	0.153209	0.293981	0.393137
	H12	H	0.836562	0.413118	0.718335
	H13	H	0.152259	0.621131	0.721475
	H14	H	0.835244	0.619802	0.280410
	H15	H	0.154067	0.413068	0.280129
	H16	H	0.387991	0.738394	0.843149
	H17	H	0.602977	0.739276	0.156756
	H18	H	0.602007	0.291967	0.843611
	H19	H	0.389945	0.294892	0.158343
	H20	H	0.716230	0.856118	0.397085
	H21	H	0.714188	0.171254	0.603972
	H22	H	0.274261	0.857980	0.603254
	H23	H	0.275455	0.172625	0.396467
	H24	H	0.890703	0.360098	0.220983
	H25	H	0.102789	0.671458	0.223562
	H26	H	0.102086	0.359238	0.777399
	H27	H	0.886878	0.670372	0.774362
	H28	H	0.216891	0.910957	0.341122
	H29	H	0.214105	0.118668	0.657808
	H30	H	0.773098	0.119066	0.343151
	H31	H	0.771155	0.905851	0.656092
	H32	H	0.337511	0.239872	0.891694
	H33	H	0.650259	0.237870	0.107346
	H34	H	0.336815	0.792155	0.109304
	H35	H	0.649505	0.789458	0.890343
	H36	H	0.336737	0.909863	0.223167
	H37	H	0.652352	0.119105	0.221156
	H38	H	0.336362	0.121541	0.778716
	H39	H	0.650785	0.907216	0.777426
	H40	H	0.888703	0.236658	0.343603
	H41	H	0.103335	0.237861	0.655577
	H42	H	0.105345	0.790766	0.342163
	H43	H	0.886390	0.788647	0.654448
	H44	H	0.218578	0.359723	0.893705
	H45	H	0.219039	0.671287	0.108031
	H46	H	0.772368	0.361303	0.106034
	H47	H	0.770520	0.671789	0.892164
	H48	H	0.405380	0.128019	0.591281
	H49	H	0.577586	0.904944	0.588936
	H50	H	0.581358	0.126414	0.405587
	H51	H	0.406709	0.903188	0.411334
	H52	H	0.584618	0.436045	0.109883
	H53	H	0.583991	0.599197	0.888445
	H54	H	0.408913	0.599968	0.110843
	H55	H	0.407650	0.426125	0.887700
	H56	H	0.106270	0.601955	0.411849
	H57	H	0.882976	0.598401	0.590130
	H58	H	0.107724	0.427558	0.589502
	H59	H	0.882110	0.426477	0.410742
	H60	H	0.110824	0.421946	0.591267
	H61	H	0.881602	0.609066	0.585188
	H62	H	0.108407	0.603251	0.408397
	H63	H	0.881065	0.424895	0.407845
	H64	H	0.410341	0.608541	0.111936
	H65	H	0.576273	0.604292	0.890756
	H66	H	0.572299	0.423357	0.110268
	H67	H	0.406040	0.425034	0.887152
	H68	H	0.581059	0.122522	0.415275
	H69	H	0.583955	0.903530	0.584254
	H70	H	0.405158	0.125701	0.589483
	H71	H	0.405718	0.902582	0.410795
	H72	H	0.902813	0.629373	0.088861
	H73	H	0.089014	0.403461	0.088147
	H74	H	0.085988	0.625681	0.916555
	H75	H	0.902878	0.401843	0.905916
	H76	H	0.084867	0.927316	0.610092
	H77	H	0.085984	0.104839	0.385910
	H78	H	0.901282	0.116541	0.618872
	H79	H	0.910429	0.925687	0.388036
	H80	H	0.605869	0.106187	0.914710
	H81	H	0.379870	0.110482	0.088840
	H82	H	0.607108	0.927958	0.091451
	H83	H	0.380243	0.926057	0.909361
	H84	H	0.607344	0.922110	0.086722
	H85	H	0.383207	0.101307	0.084822
	H86	H	0.605956	0.100481	0.912544
	H87	H	0.382559	0.924316	0.916583
	H88	H	0.897427	0.096994	0.612947
	H89	H	0.083065	0.102350	0.387351
	H90	H	0.079448	0.924855	0.609809
	H91	H	0.905706	0.927005	0.387179
	H92	H	0.085461	0.629952	0.904394
	H93	H	0.082952	0.404248	0.093166
	H94	H	0.907906	0.628447	0.091278
	H95	H	0.910707	0.405990	0.910128
	H96	H	0.403028	0.127385	0.589977
	H97	H	0.583849	0.900874	0.592437
	H98	H	0.589807	0.126401	0.412210
	H99	H	0.406704	0.903426	0.410295
	H100	H	0.589117	0.420503	0.116663
	H101	H	0.583430	0.608001	0.886344
	H102	H	0.402317	0.604716	0.114948
	H103	H	0.405938	0.427256	0.887236
	H104	H	0.108252	0.605882	0.411828
	H105	H	0.886551	0.600477	0.578702
	H106	H	0.109210	0.422927	0.584415
	H107	H	0.880785	0.423017	0.411120
	H108	H	0.907301	0.627063	0.086039
	H109	H	0.081995	0.406479	0.086156
	H110	H	0.075610	0.624800	0.910131
	H111	H	0.902239	0.405051	0.915070
	H112	H	0.084355	0.922039	0.611936
	H113	H	0.081449	0.106387	0.386320
	H114	H	0.916445	0.104929	0.610352
	H115	H	0.908729	0.930354	0.389920
	H116	H	0.608347	0.105000	0.908499
	H117	H	0.379517	0.102344	0.094687
	H118	H	0.604246	0.928391	0.084400
	H119	H	0.383535	0.932044	0.913526
	C120	C	0.372020	0.023727	0.622521
	C121	C	0.614974	1.005871	0.621273
	C122	C	0.617202	0.021949	0.377867
	C123	C	0.374381	1.006965	0.379193
	C124	C	0.615231	0.394060	0.008270
	C125	C	0.615440	0.636981	0.991896
	C126	C	0.373369	0.637128	0.008886
	C127	C	0.374310	0.394773	0.991927
	C128	C	0.003550	0.636843	0.377410
	C129	C	0.987018	0.635766	0.618950
	C130	C	0.004073	0.393615	0.620029
	C131	C	0.986333	0.393595	0.377964
	C132	C	0.873568	0.525179	0.121113
	C133	C	0.117278	0.507468	0.122089
	C134	C	0.116139	0.523638	0.877962
	C135	C	0.872541	0.507187	0.877269
	C136	C	0.116771	0.892582	0.506956
	C137	C	0.115580	0.136049	0.490926
	C138	C	0.872846	0.137106	0.509510
	C139	C	0.874742	0.893822	0.491606
	C140	C	0.502411	0.136712	0.879109
	C141	C	0.485494	0.136067	0.121204
	C142	C	0.502507	0.893567	0.121241
	C143	C	0.485673	0.893918	0.879630
	C144	C	0.370311	0.905300	0.682312
	C145	C	0.617154	0.123894	0.681263
	C146	C	0.619888	0.904101	0.317827
	C147	C	0.373081	0.125256	0.320312
	C148	C	0.675095	0.392577	0.889806
	C149	C	0.677359	0.640166	0.109890
	C150	C	0.313016	0.639772	0.890102
	C151	C	0.315168	0.394537	0.111591
	C152	C	0.884614	0.697344	0.374903
	C153	C	0.105264	0.696707	0.622942
	C154	C	0.884378	0.335819	0.621371
	C155	C	0.105557	0.333884	0.375327
	C156	C	0.884171	0.393666	0.678874
	C157	C	0.105054	0.639131	0.680969
	C158	C	0.883790	0.638781	0.318662
	C159	C	0.106101	0.393257	0.319200
	C160	C	0.370227	0.697815	0.890348
	C161	C	0.620221	0.698435	0.109746
	C162	C	0.619105	0.332925	0.890699
	C163	C	0.371935	0.335343	0.111039
	C164	C	0.676889	0.903505	0.377200
	C165	C	0.674677	0.123999	0.622913
	C166	C	0.313591	0.904973	0.623046
	C167	C	0.315115	0.125367	0.378115
	C168	C	0.871637	0.407408	0.181375
	C169	C	0.120561	0.624511	0.183281
	C170	C	0.119792	0.406155	0.817739
	C171	C	0.868838	0.623931	0.815156
	C172	C	0.177693	0.891355	0.388694
	C173	C	0.174926	0.137206	0.609904
	C174	C	0.813253	0.137920	0.390476
	C175	C	0.812671	0.889040	0.609206
	C176	C	0.384640	0.198820	0.874894
	C177	C	0.603622	0.196792	0.124652
	C178	C	0.384258	0.832636	0.126155
	C179	C	0.602909	0.831103	0.874131
	C180	C	0.384113	0.891173	0.182943
	C181	C	0.604791	0.137607	0.180991
	C182	C	0.384035	0.139884	0.818511
	C183	C	0.603485	0.889934	0.817716
	C184	C	0.870339	0.196613	0.390882
	C185	C	0.119415	0.196746	0.608811
	C186	C	0.121791	0.831749	0.389093
	C187	C	0.869738	0.830438	0.608179
	C188	C	0.177941	0.406642	0.875548
	C189	C	0.178692	0.624525	0.125633
	C190	C	0.812807	0.407918	0.124328
	C191	C	0.811061	0.624426	0.873848
	C192	C	0.397158	0.105531	0.597543
	C193	C	0.589367	0.924409	0.595762
	C194	C	0.591306	0.103800	0.403430
	C195	C	0.399221	0.924512	0.403694
	C196	C	0.589452	0.419362	0.090933
	C197	C	0.588865	0.611335	0.909947
	C198	C	0.399668	0.611580	0.091116
	C199	C	0.399256	0.419117	0.909024
	C200	C	0.086050	0.611222	0.403144
	C201	C	0.904929	0.609895	0.592379
	C202	C	0.087519	0.417285	0.595532
	C203	C	0.903142	0.417755	0.402790
	C204	C	0.898707	0.606997	0.095912
	C205	C	0.091769	0.425968	0.096293
	C206	C	0.089832	0.605586	0.903180
	C207	C	0.898109	0.425418	0.903029
	C208	C	0.090286	0.917715	0.589323
	C209	C	0.090662	0.111490	0.408030
	C210	C	0.897846	0.112976	0.592671
	C211	C	0.901031	0.920339	0.409729
	C212	C	0.585247	0.110914	0.904653
	C213	C	0.402611	0.111544	0.096381
	C214	C	0.584817	0.918763	0.094819
	C215	C	0.403496	0.919787	0.905919
	Zn216	Zn	0.493726	0.014912	0.750875
	Zn217	Zn	0.494708	0.014270	0.249613
	Zn218	Zn	0.743748	0.515875	0.000051
	Zn219	Zn	0.245192	0.516248	-0.000188
	Zn220	Zn	-0.004450	0.764588	0.497807
	Zn221	Zn	-0.004515	0.265274	0.499331
	Zn222	Zn	-0.004439	0.514934	0.748112
	Zn223	Zn	-0.005011	0.516179	0.250359
	Zn224	Zn	0.494082	0.765355	0.000720
	Zn225	Zn	0.494652	0.264783	0.000073
	Zn226	Zn	0.745195	0.014177	0.500842
	Zn227	Zn	0.244191	0.015101	0.499056
	N228	N	0.405669	0.980205	0.682323
	N229	N	0.580902	0.049466	0.680592
	N230	N	0.583570	0.978857	0.318288
	N231	N	0.409226	0.050793	0.320926
	N232	N	0.672823	0.429990	0.964070
	N233	N	0.674483	0.602732	0.035474
	N234	N	0.314536	0.603123	0.964924
	N235	N	0.316284	0.430558	0.036411
	N236	N	0.960230	0.696565	0.410403
	N237	N	0.030775	0.694805	0.585238
	N238	N	0.960064	0.335458	0.585860
	N239	N	0.029989	0.333801	0.411072
	N240	N	0.959798	0.428688	0.678318
	N241	N	0.030432	0.602001	0.678770
	N242	N	0.958868	0.601962	0.320137
	N243	N	0.030971	0.429649	0.320580
	N244	N	0.406639	0.696563	0.965396
	N245	N	0.582669	0.696850	0.035372
	N246	N	0.582649	0.333862	0.965581
	N247	N	0.407623	0.335160	0.035588
	N248	N	0.675492	0.977944	0.413680
	N249	N	0.673682	0.049536	0.586523
	N250	N	0.314106	0.979529	0.587010
	N251	N	0.315913	0.050654	0.414148
	N252	N	0.908636	0.481302	0.179567
	N253	N	0.082961	0.550890	0.180980
	N254	N	0.082075	0.480025	0.819087
	N255	N	0.906299	0.549933	0.816998
	N256	N	0.174796	0.928286	0.463206
	N257	N	0.172670	0.100105	0.535470
	N258	N	0.814518	0.101821	0.465485
	N259	N	0.815975	0.928149	0.535818
	N260	N	0.459333	0.196710	0.912079
	N261	N	0.528566	0.195822	0.088135
	N262	N	0.459042	0.833839	0.088542
	N263	N	0.528666	0.833421	0.912114
	N264	N	0.458660	0.928123	0.180137
	N265	N	0.530214	0.100550	0.179162
	N266	N	0.458344	0.101907	0.820932
	N267	N	0.529641	0.928679	0.821301
	N268	N	0.906701	0.196200	0.465993
	N269	N	0.083136	0.196111	0.533736
	N270	N	0.084672	0.832332	0.463826
	N271	N	0.907717	0.833442	0.534003
	N272	N	0.175687	0.480893	0.912409
	N273	N	0.176593	0.550883	0.087837
	N274	N	0.813720	0.482202	0.087755
	N275	N	0.813023	0.550729	0.911647
	O276	O	0.189815	0.214780	0.193120
	H277	H	0.191741	0.208372	0.213950
	H278	H	0.160937	0.198351	0.204741
	O279	O	0.428385	0.367552	0.339468
	H280	H	0.421718	0.375945	0.323131
	H281	H	0.422437	0.380831	0.344524
	O282	O	1.076518	0.984584	-0.128289
	H283	H	1.067509	0.992233	-0.122521
	H284	H	1.090166	0.981085	-0.129780
	O285	O	0.454780	0.325338	0.676851
	H286	H	0.448046	0.325390	0.677710
	H287	H	0.462513	0.309453	0.661480
	O288	O	-0.120713	0.028667	0.048681
	H289	H	-0.118084	0.022549	0.069954
	H290	H	-0.110914	0.030450	0.055962
	O291	O	1.535190	0.542060	0.559931
	H292	H	1.521012	0.531313	0.555262
	H293	H	1.552144	0.536281	0.551689
	O294	O	0.220740	1.239813	0.029254
	H295	H	0.243414	1.260540	0.048309
	H296	H	0.223157	1.242383	0.064650
	O297	O	0.319653	0.326040	0.683503
	H298	H	0.318162	0.350471	0.686936
	H299	H	0.335055	0.316478	0.676413
	O300	O	0.695516	0.311399	0.292952
	H301	H	0.686009	0.297623	0.289466
	H302	H	0.695388	0.349385	0.293523
	O303	O	0.326920	0.430705	0.440967
	H304	H	0.334907	0.432622	0.447610
	H305	H	0.331758	0.430394	0.455966
	O306	O	0.020314	1.224027	1.207010
	H307	H	0.009141	1.243579	1.209776
	H308	H	0.016237	1.211029	1.209558
	O309	O	0.334554	0.545167	0.383904
	H310	H	0.320310	0.536419	0.379646
	H311	H	0.365416	0.544859	0.381875
	O312	O	0.705228	0.545258	0.707282
	H313	H	0.699734	0.556684	0.688443
	H314	H	0.725769	0.531641	0.732083
	O315	O	0.128507	0.100146	0.861037
	H316	H	0.125017	0.104846	0.856766
	H317	H	0.125877	0.101179	0.866916
	O318	O	-0.051835	1.007870	0.209299
	H319	H	-0.071127	1.007524	0.205151
	H320	H	-0.073678	1.012269	0.213900
	O321	O	0.805993	0.206250	0.189283
	H322	H	0.800265	0.212408	0.205797
	H323	H	0.817997	0.207965	0.153948
	O324	O	0.807479	-0.120327	0.883064
	H325	H	0.835233	-0.106701	0.884756
	H326	H	0.810600	-0.097488	0.909131
	O327	O	0.833528	-0.036423	1.117859
	H328	H	0.831488	-0.049280	1.134571
	H329	H	0.839542	-0.049974	1.110994
	O330	O	0.957033	0.089770	-0.098547
	H331	H	0.962984	0.093496	-0.102647
	H332	H	0.963825	0.081619	-0.086238
	O333	O	0.592134	0.711861	0.688406
	H334	H	0.581233	0.728903	0.705706
	H335	H	0.611001	0.709966	0.660143
	O336	O	0.966975	0.232689	0.785418
	H337	H	0.956491	0.234688	0.799246
	H338	H	0.964274	0.248375	0.762967
	O339	O	0.306318	0.431869	0.639668
	H340	H	0.304504	0.438351	0.648296
	H341	H	0.299268	0.431630	0.640611
	O342	O	0.700048	0.477672	0.310883
	H343	H	0.716354	0.488649	0.297027
	H344	H	0.687740	0.493831	0.315443
	O345	O	0.196187	-0.102172	-0.201375
	H346	H	0.184214	-0.114398	-0.182423
	H347	H	0.221697	-0.073467	-0.221727
	O348	O	0.975441	-0.177253	1.220348
	H349	H	0.983171	-0.185958	1.235896
	H350	H	0.987523	-0.191371	1.218522
	O351	O	1.213019	0.795067	-0.028487
	H352	H	1.226526	0.789727	-0.036166
	H353	H	1.216219	0.778101	-0.033172
	O354	O	0.326233	0.660391	0.413280
	H355	H	0.328795	0.636253	0.429722
	H356	H	0.322872	0.671540	0.428969
	O357	O	1.013415	0.865450	0.792259
	H358	H	1.031010	0.855661	0.790817
	H359	H	1.005643	0.865139	0.776439
	O360	O	0.443349	0.708169	0.294324
	H361	H	0.417469	0.723208	0.295724
	H362	H	0.424472	0.704647	0.292152
	O363	O	0.666838	0.609796	0.567574
	H364	H	0.667876	0.609754	0.578943
	H365	H	0.683672	0.625720	0.584679
	O366	O	0.784578	0.039016	0.788212
	H367	H	0.786429	0.023625	0.806868
	H368	H	0.768278	0.033407	0.769582
	O369	O	0.516388	0.643036	0.359941
	H370	H	0.530334	0.661426	0.361273
	H371	H	0.510367	0.661297	0.370124
	O372	O	0.416758	0.346027	0.520058
	H373	H	0.420191	0.341905	0.523011
	H374	H	0.412485	0.331019	0.519214
	O375	O	-0.040005	1.226947	1.057636
	H376	H	-0.043166	1.215819	1.052326
	H377	H	-0.025688	1.228406	1.045335
	O378	O	0.497825	0.468421	0.711929
	H379	H	0.507099	0.457047	0.718459
	H380	H	0.524820	0.461515	0.702821
	O381	O	1.617014	-0.282636	-0.297793
	H382	H	1.630510	-0.275253	-0.268506
	H383	H	1.613491	-0.315339	-0.290461
	O384	O	0.211660	-0.019828	1.098266
	H385	H	0.220768	-0.016446	1.082716
	H386	H	0.209648	-0.027175	1.079463
	O387	O	-0.190605	0.827708	1.167767
	H388	H	-0.197563	0.820881	1.116887
	H389	H	-0.152022	0.815498	1.173538
	O390	O	0.059410	-0.175729	1.046918
	H391	H	0.082931	-0.172738	1.049047
	H392	H	0.039344	-0.171934	1.025478
	O393	O	0.780183	0.982056	0.053952
	H394	H	0.763667	0.987789	0.082503
	H395	H	0.795183	0.959588	0.061356
	O396	O	0.441813	0.595071	0.581074
	H397	H	0.457216	0.584880	0.576814
	H398	H	0.453914	0.579508	0.576599
	O399	O	0.878689	1.011102	0.907205
	H400	H	0.884043	1.010177	0.917316
	H401	H	0.876982	1.027310	0.911854
	O402	O	0.128820	0.055924	1.210106
	H403	H	0.134144	0.041655	1.207469
	H404	H	0.134379	0.027497	1.196697
	O405	O	-0.048332	-0.213651	-0.035952
	H406	H	-0.040752	-0.200036	-0.047777
	H407	H	-0.048885	-0.211613	-0.039651
	O408	O	1.038716	0.997823	1.103168
	H409	H	1.058393	1.008340	1.094387
	H410	H	1.016622	1.003929	1.094402
	O411	O	0.511102	0.665442	0.455712
	H412	H	0.508882	0.665659	0.455649
	H413	H	0.498880	0.666514	0.458636
	O414	O	0.401089	0.569048	0.496620
	H415	H	0.405627	0.568024	0.495116
	H416	H	0.384447	0.577603	0.508190
	O417	O	0.651514	0.394219	0.562050
	H418	H	0.663612	0.382473	0.545987
	H419	H	0.638965	0.382037	0.563489
	O420	O	0.704919	0.296287	0.466834
	H421	H	0.713016	0.289533	0.438101
	H422	H	0.719564	0.286544	0.464956
	O423	O	-0.536556	0.474098	0.285886
	H424	H	-0.518443	0.494287	0.291972
	H425	H	-0.532951	0.472635	0.285311
	O426	O	1.110331	0.882719	0.991261
	H427	H	1.110559	0.877807	0.984040
	H428	H	1.106142	0.883656	1.001663
	O429	O	0.081551	0.052519	0.002017
	H430	H	0.090999	0.065046	-0.009213
	H431	H	0.084080	0.060805	0.001626
	O432	O	0.653544	0.648560	0.474776
	H433	H	0.656623	0.661377	0.474209
	H434	H	0.654543	0.639172	0.477534
	O435	O	0.060495	0.230747	-0.063320
	H436	H	0.058196	0.225413	-0.075660
	H437	H	0.093559	0.230208	-0.044865
	O438	O	1.180345	0.017130	-0.088741
	H439	H	1.177609	0.038257	-0.086553
	H440	H	1.189048	0.033289	-0.086229
	O441	O	0.387590	0.549127	0.691686
	H442	H	0.401720	0.533667	0.694543
	H443	H	0.392410	0.545395	0.693372
	O444	O	-0.008552	1.015501	0.782974
	H445	H	-0.015845	1.020675	0.772860
	H446	H	-0.001925	1.011903	0.781685
	O447	O	0.539746	0.458843	0.296364
	H448	H	0.532061	0.464417	0.292678
	H449	H	0.531849	0.461993	0.296800
	O450	O	0.410024	0.650114	0.537930
	H451	H	0.423550	0.640715	0.539824
	H452	H	0.419250	0.641790	0.538293
	O453	O	0.464987	0.329132	0.486613
	H454	H	0.475477	0.329460	0.463402
	H455	H	0.456614	0.337757	0.486072
	O456	O	0.787186	0.227571	-0.011162
	H457	H	0.801057	0.226163	-0.001038
	H458	H	0.764868	0.233315	-0.024958
	O459	O	0.764275	0.244613	0.767212
	H460	H	0.765957	0.220774	0.792859
	H461	H	0.770060	0.235941	0.772872
	O462	O	0.373340	0.624812	0.356465
	H463	H	0.366212	0.622181	0.390813
	H464	H	0.374277	0.615148	0.347835
	O465	O	0.796868	-0.202016	0.012581
	H466	H	0.787670	-0.189783	0.001867
	H467	H	0.790421	-0.221541	0.009739
