data_Molecule from HDF5

_cell_length_a		16.457500
_cell_length_b		16.308174
_cell_length_c		16.301847
_cell_angle_alpha	89.943667
_cell_angle_beta	89.773690
_cell_angle_gamma	90.095565
_symmetry_space_group_name_H-M	'P 1'
_symmetry_Int_Tables_number		1

loop_
	_symmetry_equiv_pos_as_xyz
	x,y,z

loop_
	_atom_site_label
	_atom_site_type_symbol
	_atom_site_fract_x
	_atom_site_fract_y
	_atom_site_fract_z
	H0	H	0.405514	0.822440	0.703290
	H1	H	0.605488	0.147873	0.700567
	H2	H	0.608696	0.822799	0.269148
	H3	H	0.407551	0.147292	0.269030
	H4	H	0.727419	0.383912	0.827284
	H5	H	0.724311	0.587189	0.151251
	H6	H	0.292113	0.588304	0.826700
	H7	H	0.291240	0.384131	0.149880
	H8	H	0.845454	0.701767	0.389523
	H9	H	0.168577	0.704059	0.586684
	H10	H	0.848461	0.265884	0.593544
	H11	H	0.168542	0.267474	0.385670
	H12	H	0.848671	0.385081	0.707939
	H13	H	0.169451	0.587333	0.703683
	H14	H	0.846205	0.585769	0.272202
	H15	H	0.167659	0.383041	0.268072
	H16	H	0.411741	0.699264	0.824758
	H17	H	0.607542	0.703091	0.150351
	H18	H	0.609273	0.270244	0.825109
	H19	H	0.407373	0.267430	0.148940
	H20	H	0.727020	0.824353	0.382510
	H21	H	0.725067	0.145830	0.589112
	H22	H	0.288958	0.823005	0.586955
	H23	H	0.288947	0.145843	0.381643
	H24	H	0.903794	0.323511	0.208286
	H25	H	0.105872	0.649078	0.203543
	H26	H	0.111199	0.325349	0.770471
	H27	H	0.907366	0.647442	0.770603
	H28	H	0.228431	0.877749	0.326415
	H29	H	0.227288	0.088730	0.647196
	H30	H	0.789011	0.091978	0.325087
	H31	H	0.787166	0.883320	0.647317
	H32	H	0.349038	0.205800	0.883383
	H33	H	0.666824	0.207595	0.091168
	H34	H	0.348144	0.764987	0.090501
	H35	H	0.668734	0.767464	0.884293
	H36	H	0.347976	0.881594	0.206798
	H37	H	0.667705	0.089950	0.206013
	H38	H	0.347363	0.087747	0.768089
	H39	H	0.668410	0.884323	0.767123
	H40	H	0.906768	0.205663	0.325988
	H41	H	0.108118	0.200855	0.650358
	H42	H	0.108399	0.767949	0.324863
	H43	H	0.904761	0.768887	0.648774
	H44	H	0.228521	0.326887	0.883313
	H45	H	0.226871	0.647687	0.092832
	H46	H	0.786376	0.325071	0.094700
	H47	H	0.789305	0.646338	0.885639
	H48	H	0.411708	0.102031	0.578546
	H49	H	0.601708	0.869846	0.574934
	H50	H	0.598796	0.100840	0.393651
	H51	H	0.408112	0.866250	0.393141
	H52	H	0.596625	0.399614	0.101090
	H53	H	0.614648	0.567369	0.871820
	H54	H	0.421705	0.584759	0.104926
	H55	H	0.419221	0.397767	0.874013
	H56	H	0.121380	0.579145	0.397243
	H57	H	0.893114	0.572952	0.584445
	H58	H	0.125035	0.389354	0.582789
	H59	H	0.893053	0.394555	0.397493
	H60	H	0.121121	0.392208	0.574223
	H61	H	0.892241	0.582231	0.582510
	H62	H	0.119565	0.575690	0.395972
	H63	H	0.895450	0.394505	0.402669
	H64	H	0.407289	0.575567	0.106441
	H65	H	0.588407	0.569509	0.879139
	H66	H	0.594710	0.394372	0.102050
	H67	H	0.417931	0.393977	0.872564
	H68	H	0.598033	0.099054	0.396515
	H69	H	0.595857	0.869788	0.578221
	H70	H	0.419694	0.098384	0.579061
	H71	H	0.425319	0.871227	0.390002
	H72	H	0.924630	0.599059	0.085255
	H73	H	0.096887	0.371069	0.082383
	H74	H	0.099803	0.599872	0.902333
	H75	H	0.920735	0.371650	0.895919
	H76	H	0.102791	0.901960	0.600411
	H77	H	0.094321	0.081855	0.371193
	H78	H	0.907529	0.077204	0.604299
	H79	H	0.921460	0.887321	0.369856
	H80	H	0.622501	0.081281	0.897268
	H81	H	0.393414	0.079543	0.077654
	H82	H	0.621971	0.890398	0.078182
	H83	H	0.394914	0.895767	0.893655
	H84	H	0.620303	0.895085	0.072249
	H85	H	0.397084	0.074061	0.071312
	H86	H	0.620456	0.071480	0.894053
	H87	H	0.392020	0.890003	0.893379
	H88	H	0.915206	0.066800	0.598409
	H89	H	0.104963	0.075300	0.370120
	H90	H	0.090609	0.897206	0.598149
	H91	H	0.908432	0.895320	0.369191
	H92	H	0.105141	0.603887	0.896188
	H93	H	0.096933	0.373902	0.074036
	H94	H	0.915931	0.595868	0.070652
	H95	H	0.921783	0.374261	0.904677
	H96	H	0.415431	0.098033	0.571741
	H97	H	0.595637	0.871953	0.572245
	H98	H	0.601120	0.100200	0.396073
	H99	H	0.417962	0.873521	0.406984
	H100	H	0.600143	0.395529	0.103923
	H101	H	0.601431	0.590534	0.868017
	H102	H	0.421262	0.567655	0.099370
	H103	H	0.415456	0.397558	0.872340
	H104	H	0.122435	0.577541	0.393937
	H105	H	0.895329	0.576077	0.575723
	H106	H	0.121706	0.399272	0.581856
	H107	H	0.896562	0.398855	0.399526
	H108	H	0.908113	0.603972	0.083966
	H109	H	0.104281	0.369996	0.076984
	H110	H	0.096742	0.601725	0.893952
	H111	H	0.913402	0.370406	0.901354
	H112	H	0.099251	0.889636	0.604164
	H113	H	0.094774	0.070273	0.375775
	H114	H	0.920840	0.079897	0.600693
	H115	H	0.920338	0.902483	0.374792
	H116	H	0.623412	0.078647	0.887545
	H117	H	0.395517	0.070547	0.079317
	H118	H	0.620860	0.898270	0.079308
	H119	H	0.395375	0.891781	0.898871
	C120	C	0.385254	-0.006964	0.607551
	C121	C	0.627388	0.977200	0.605848
	C122	C	0.629797	-0.006486	0.363923
	C123	C	0.386793	0.977048	0.365161
	C124	C	0.628863	0.364997	-0.003768
	C125	C	0.630911	0.607047	0.979854
	C126	C	0.387322	0.606835	-0.003303
	C127	C	0.386775	0.364784	0.979478
	C128	C	0.015013	0.607477	0.366349
	C129	C	0.999864	0.607743	0.609729
	C130	C	0.016744	0.363367	0.610648
	C131	C	1.000165	0.364355	0.367543
	C132	C	0.885490	0.493382	0.111114
	C133	C	0.128884	0.478293	0.108952
	C134	C	0.130943	0.495511	0.866414
	C135	C	0.887970	0.478000	0.868463
	C136	C	0.128303	0.864739	0.494643
	C137	C	0.128737	0.106241	0.478850
	C138	C	0.885030	0.107342	0.494912
	C139	C	0.885760	0.864670	0.478147
	C140	C	0.516431	0.107693	0.863542
	C141	C	0.500451	0.106557	0.107539
	C142	C	0.515858	0.863372	0.108220
	C143	C	0.499960	0.862903	0.864538
	C144	C	0.385495	0.871137	0.664911
	C145	C	0.625737	0.099036	0.662574
	C146	C	0.628772	0.871601	0.307184
	C147	C	0.387768	0.098608	0.307605
	C148	C	0.687760	0.364699	0.875106
	C149	C	0.686268	0.606988	0.102387
	C150	C	0.330767	0.606992	0.874849
	C151	C	0.329711	0.364495	0.101151
	C152	C	0.894001	0.664025	0.368383
	C153	C	0.120477	0.665635	0.607734
	C154	C	0.896617	0.305298	0.612054
	C155	C	0.120761	0.306763	0.367004
	C156	C	0.896511	0.364474	0.669014
	C157	C	0.121128	0.607365	0.665571
	C158	C	0.894059	0.606064	0.310429
	C159	C	0.119957	0.363810	0.307950
	C160	C	0.390316	0.662037	0.873780
	C161	C	0.628073	0.664328	0.101903
	C162	C	0.629025	0.308268	0.874094
	C163	C	0.387488	0.306554	0.100830
	C164	C	0.687778	0.872455	0.363395
	C165	C	0.685141	0.098163	0.606938
	C166	C	0.327395	0.871331	0.607221
	C167	C	0.328482	0.097869	0.363595
	C168	C	0.884639	0.372009	0.169616
	C169	C	0.126667	0.600247	0.165732
	C170	C	0.130829	0.374019	0.808484
	C171	C	0.887977	0.599147	0.809942
	C172	C	0.187545	0.861206	0.373985
	C173	C	0.187380	0.107105	0.599569
	C174	C	0.827806	0.109811	0.373583
	C175	C	0.826635	0.863976	0.599200
	C176	C	0.396535	0.166389	0.863812
	C177	C	0.619557	0.167078	0.109225
	C178	C	0.395938	0.804319	0.109693
	C179	C	0.620698	0.806124	0.864500
	C180	C	0.395951	0.862092	0.167739
	C181	C	0.619861	0.108650	0.166730
	C182	C	0.395675	0.107757	0.806365
	C183	C	0.620360	0.863892	0.805872
	C184	C	0.886215	0.166665	0.374020
	C185	C	0.127942	0.162755	0.601194
	C186	C	0.128356	0.805888	0.373530
	C187	C	0.885166	0.807184	0.600049
	C188	C	0.189103	0.374855	0.865057
	C189	C	0.187055	0.599446	0.110579
	C190	C	0.826144	0.372719	0.113002
	C191	C	0.829226	0.598471	0.867015
	C192	C	0.408827	0.077534	0.583494
	C193	C	0.604303	0.892501	0.582196
	C194	C	0.606220	0.077995	0.388239
	C195	C	0.410304	0.892382	0.389718
	C196	C	0.604391	0.389274	0.080538
	C197	C	0.608242	0.582937	0.895065
	C198	C	0.410120	0.583035	0.081680
	C199	C	0.410705	0.389192	0.894844
	C200	C	0.099407	0.584073	0.389143
	C201	C	0.915591	0.583981	0.587478
	C202	C	0.100874	0.386860	0.586668
	C203	C	0.916741	0.388737	0.392708
	C204	C	0.909356	0.577684	0.086925
	C205	C	0.105908	0.393852	0.084744
	C206	C	0.107192	0.579873	0.890434
	C207	C	0.911985	0.393971	0.893331
	C208	C	0.104343	0.889374	0.578961
	C209	C	0.104953	0.082549	0.394438
	C210	C	0.907925	0.081899	0.579089
	C211	C	0.909776	0.888359	0.393340
	C212	C	0.600280	0.084074	0.886528
	C213	C	0.417151	0.081799	0.083263
	C214	C	0.599352	0.887732	0.083688
	C215	C	0.415929	0.885832	0.888427
	Zn216	Zn	0.507068	-0.015115	0.735325
	Zn217	Zn	0.507957	-0.014879	0.236763
	Zn218	Zn	0.758301	0.485263	-0.010632
	Zn219	Zn	0.258709	0.486857	-0.011727
	Zn220	Zn	0.007319	0.736931	0.487224
	Zn221	Zn	0.007834	0.234573	0.488136
	Zn222	Zn	0.009331	0.486268	0.739149
	Zn223	Zn	0.007356	0.485479	0.237889
	Zn224	Zn	0.508450	0.734195	-0.012755
	Zn225	Zn	0.508394	0.236327	-0.013668
	Zn226	Zn	0.757384	-0.014410	0.485883
	Zn227	Zn	0.256854	-0.015367	0.485269
	N228	N	0.420235	0.947812	0.665408
	N229	N	0.590334	0.022810	0.661852
	N230	N	0.593686	0.948066	0.307294
	N231	N	0.423021	0.022338	0.308296
	N232	N	0.687885	0.399091	0.952201
	N233	N	0.688068	0.572189	0.025652
	N234	N	0.328643	0.573618	0.952510
	N235	N	0.328927	0.399665	0.024442
	N236	N	0.970163	0.664687	0.402673
	N237	N	0.044179	0.665949	0.573635
	N238	N	0.972531	0.304442	0.576695
	N239	N	0.045286	0.307089	0.403355
	N240	N	0.972286	0.399925	0.668143
	N241	N	0.044926	0.572358	0.667156
	N242	N	0.970383	0.571843	0.308923
	N243	N	0.043968	0.398789	0.308136
	N244	N	0.424437	0.662158	0.950453
	N245	N	0.594775	0.664818	0.024574
	N246	N	0.593234	0.308323	0.950314
	N247	N	0.421808	0.306375	0.023852
	N248	N	0.688857	0.949391	0.397650
	N249	N	0.686034	0.021487	0.571987
	N250	N	0.326732	0.948222	0.572549
	N251	N	0.327875	0.021138	0.398643
	N252	N	0.920876	0.447847	0.168526
	N253	N	0.091111	0.523798	0.165128
	N254	N	0.095091	0.450128	0.809459
	N255	N	0.923802	0.523158	0.810809
	N256	N	0.187518	0.897275	0.450069
	N257	N	0.188249	0.072720	0.522441
	N258	N	0.826744	0.073663	0.449936
	N259	N	0.827022	0.899010	0.522417
	N260	N	0.472415	0.166602	0.898642
	N261	N	0.544314	0.165956	0.073116
	N262	N	0.471443	0.804871	0.073514
	N263	N	0.544903	0.805323	0.900113
	N264	N	0.471546	0.898207	0.166814
	N265	N	0.544825	0.071545	0.165645
	N266	N	0.471152	0.071975	0.805979
	N267	N	0.544115	0.898326	0.805699
	N268	N	0.920908	0.165377	0.450436
	N269	N	0.092348	0.162428	0.525081
	N270	N	0.091867	0.808204	0.449528
	N271	N	0.921043	0.807407	0.523748
	N272	N	0.189224	0.451248	0.900481
	N273	N	0.188372	0.522673	0.075857
	N274	N	0.826551	0.449090	0.077264
	N275	N	0.829150	0.522109	0.902806
	O276	O	0.442033	0.422807	0.398489
	H277	H	0.440102	0.411626	0.386393
	H278	H	0.434144	0.430943	0.401338
	O279	O	0.620546	0.563439	0.529478
	H280	H	0.622633	0.570549	0.533418
	H281	H	0.625167	0.562063	0.518776
	O282	O	0.991210	-0.192993	0.849435
	H283	H	1.000497	-0.199280	0.866909
	H284	H	0.992392	-0.179837	0.855453
	O285	O	0.584879	0.503619	0.535566
	H286	H	0.596403	0.488829	0.540049
	H287	H	0.599401	0.519726	0.537558
	O288	O	0.385886	1.390849	1.483363
	H289	H	0.393034	1.380494	1.483772
	H290	H	0.374033	1.396169	1.502163
	O291	O	0.213987	1.014362	0.128594
	H292	H	0.224857	1.026954	0.136685
	H293	H	0.217167	1.034426	0.140243
	O294	O	0.412746	0.446133	0.548539
	H295	H	0.424784	0.448758	0.552582
	H296	H	0.406297	0.450980	0.547348
	O297	O	0.576556	0.523647	0.497311
	H298	H	0.561476	0.511165	0.507966
	H299	H	0.575416	0.518133	0.490809
	O300	O	0.333694	0.455859	0.548101
	H301	H	0.330051	0.437514	0.556898
	H302	H	0.319535	0.469041	0.552496
	O303	O	0.102822	0.789425	0.946483
	H304	H	0.099886	0.796373	0.962214
	H305	H	0.112351	0.772350	0.923896
	O306	O	0.526833	0.601423	0.481215
	H307	H	0.522806	0.603353	0.480909
	H308	H	0.524272	0.602777	0.489524
	O309	O	1.116028	1.003614	0.005023
	H310	H	1.121434	1.010539	-0.005855
	H311	H	1.125149	0.993891	0.016491
	O312	O	0.094201	0.065329	-0.185459
	H313	H	0.096899	0.045009	-0.190146
	H314	H	0.102851	0.058039	-0.168551
	O315	O	0.620213	0.343850	0.392355
	H316	H	0.627745	0.334654	0.391694
	H317	H	0.623698	0.346858	0.381027
	O318	O	0.201022	0.941684	0.789821
	H319	H	0.191954	0.941075	0.781855
	H320	H	0.212608	0.926919	0.771309
	O321	O	0.516057	0.348416	0.602385
	H322	H	0.501102	0.352994	0.602748
	H323	H	0.514241	0.344513	0.600184
	O324	O	0.121703	0.897983	0.140631
	H325	H	0.107397	0.903637	0.134435
	H326	H	0.126567	0.929155	0.139416
	O327	O	0.505967	0.486566	0.465079
	H328	H	0.510654	0.487179	0.466460
	H329	H	0.496459	0.475389	0.466684
	O330	O	0.083786	0.076100	0.975009
	H331	H	0.082747	0.075513	0.953964
	H332	H	0.097052	0.070300	0.968413
	O333	O	-0.340501	-0.570020	1.561801
	H334	H	-0.346750	-0.570001	1.559863
	H335	H	-0.334497	-0.576069	1.544341
	O336	O	-0.001157	0.961021	0.981455
	H337	H	0.007262	0.970205	0.968897
	H338	H	-0.008429	0.966542	0.974477
	O339	O	1.183052	0.145850	0.095186
	H340	H	1.169670	0.160070	0.094008
	H341	H	1.183841	0.143926	0.067518
	O342	O	-0.047041	-0.134128	-0.156507
	H343	H	-0.063759	-0.131550	-0.157865
	H344	H	-0.056118	-0.131354	-0.163672
	O345	O	1.176714	0.059924	1.012554
	H346	H	1.173775	0.061945	1.019255
	H347	H	1.180974	0.065438	1.044634
	O348	O	0.536663	1.451446	0.579092
	H349	H	0.548070	1.447509	0.594911
	H350	H	0.535324	1.463174	0.585801
	O351	O	0.442118	0.472223	0.351678
	H352	H	0.420048	0.468112	0.371205
	H353	H	0.439486	0.479306	0.356635
	O354	O	0.920558	0.136562	0.830262
	H355	H	0.923784	0.142016	0.829245
	H356	H	0.909562	0.115998	0.829932
	O357	O	0.511001	0.626542	0.401759
	H358	H	0.501788	0.626356	0.404280
	H359	H	0.498772	0.637238	0.394975
	O360	O	-0.143087	0.165616	0.952769
	H361	H	-0.152587	0.155269	0.957699
	H362	H	-0.160600	0.170718	0.951490
	O363	O	0.485577	1.519049	0.568002
	H364	H	0.484335	1.509606	0.562061
	H365	H	0.490490	1.503256	0.576322
	O366	O	0.424982	0.402779	0.483981
	H367	H	0.436193	0.393137	0.491079
	H368	H	0.423354	0.402310	0.483339
	O369	O	-0.143532	0.920744	0.038975
	H370	H	-0.117269	0.909894	0.038899
	H371	H	-0.154488	0.923030	0.053753
	O372	O	0.124033	-0.149165	-0.013793
	H373	H	0.131938	-0.149348	-0.014276
	H374	H	0.121849	-0.137120	0.002765
	O375	O	0.644135	0.524741	0.439190
	H376	H	0.650855	0.532675	0.434758
	H377	H	0.638798	0.529553	0.434970
	O378	O	0.852068	1.073478	0.100707
	H379	H	0.831792	1.054377	0.099657
	H380	H	0.857142	1.053970	0.115660
	O381	O	1.042503	0.141075	-0.150083
	H382	H	1.051012	0.142953	-0.152894
	H383	H	1.044490	0.137037	-0.160211
	O384	O	0.992389	1.016714	0.178256
	H385	H	0.997915	1.033387	0.191108
	H386	H	1.002160	1.022339	0.173572
	O387	O	-0.102567	-0.193103	0.179372
	H388	H	-0.086744	-0.184905	0.163341
	H389	H	-0.094022	-0.211249	0.192514
	O390	O	-0.095697	0.913483	-0.152785
	H391	H	-0.094431	0.904504	-0.148122
	H392	H	-0.080290	0.918544	-0.143093
	O393	O	1.074177	0.862663	0.814581
	H394	H	1.052902	0.867370	0.803484
	H395	H	1.083674	0.858864	0.827189
	O396	O	0.515997	0.534957	1.437146
	H397	H	0.516106	0.523067	1.426243
	H398	H	0.504116	0.547955	1.439800
	O399	O	-0.185401	1.043819	0.850392
	H400	H	-0.184322	1.043848	0.851247
	H401	H	-0.188215	1.039795	0.863538
	O402	O	0.440788	0.521975	0.480989
	H403	H	0.437954	0.527534	0.476398
	H404	H	0.446764	0.522232	0.486373
	O405	O	1.064602	0.181369	0.185644
	H406	H	1.050054	0.184502	0.170394
	H407	H	1.058117	0.200362	0.182138
	O408	O	0.797441	0.966321	0.183712
	H409	H	0.815243	0.937970	0.181421
	H410	H	0.769731	0.957093	0.212452
	O411	O	1.016367	0.163127	1.047435
	H412	H	1.022430	0.171802	1.026626
	H413	H	0.988210	0.171061	1.042855
	O414	O	0.528050	0.497013	0.615848
	H415	H	0.548813	0.493618	0.622652
	H416	H	0.549775	0.496884	0.620929
	O417	O	0.811229	0.795248	1.021525
	H418	H	0.795671	0.770183	1.021979
	H419	H	0.821381	0.802313	1.043402
