data_Molecule from HDF5

_cell_length_a		16.208439
_cell_length_b		16.306212
_cell_length_c		16.388717
_cell_angle_alpha	89.971355
_cell_angle_beta	90.153832
_cell_angle_gamma	89.998697
_symmetry_space_group_name_H-M	'P 1'
_symmetry_Int_Tables_number		1

loop_
	_symmetry_equiv_pos_as_xyz
	x,y,z

loop_
	_atom_site_label
	_atom_site_type_symbol
	_atom_site_fract_x
	_atom_site_fract_y
	_atom_site_fract_z
	H0	H	0.379229	0.839416	0.716772
	H1	H	0.584901	0.162631	0.718495
	H2	H	0.584132	0.838828	0.282575
	H3	H	0.377308	0.162228	0.278949
	H4	H	0.701458	0.402999	0.835966
	H5	H	0.702025	0.601059	0.160493
	H6	H	0.268786	0.602223	0.836496
	H7	H	0.269048	0.400465	0.160201
	H8	H	0.819960	0.717904	0.398119
	H9	H	0.146377	0.721381	0.599405
	H10	H	0.819493	0.288163	0.598304
	H11	H	0.145963	0.285118	0.396866
	H12	H	0.822022	0.401649	0.717337
	H13	H	0.147679	0.607605	0.715954
	H14	H	0.822682	0.606644	0.278533
	H15	H	0.148102	0.401770	0.283769
	H16	H	0.383754	0.719577	0.836918
	H17	H	0.589909	0.720774	0.159183
	H18	H	0.590150	0.281007	0.837908
	H19	H	0.384761	0.284120	0.160727
	H20	H	0.699981	0.839236	0.398236
	H21	H	0.699310	0.164222	0.601414
	H22	H	0.266934	0.838651	0.597360
	H23	H	0.266735	0.164668	0.398037
	H24	H	0.885575	0.342812	0.215111
	H25	H	0.090345	0.665922	0.217151
	H26	H	0.089455	0.342376	0.778871
	H27	H	0.883479	0.666134	0.780881
	H28	H	0.197801	0.902941	0.335966
	H29	H	0.198559	0.102393	0.660070
	H30	H	0.764282	0.102581	0.337583
	H31	H	0.768011	0.903411	0.661184
	H32	H	0.321373	0.218254	0.899652
	H33	H	0.648407	0.215690	0.100935
	H34	H	0.321032	0.783852	0.097737
	H35	H	0.649318	0.789006	0.900499
	H36	H	0.318960	0.899362	0.213268
	H37	H	0.645560	0.102060	0.218595
	H38	H	0.320115	0.101811	0.783869
	H39	H	0.645480	0.898476	0.780033
	H40	H	0.878743	0.221342	0.337062
	H41	H	0.084043	0.220475	0.659244
	H42	H	0.081639	0.786862	0.336301
	H43	H	0.880496	0.784696	0.659722
	H44	H	0.200644	0.339718	0.898975
	H45	H	0.202683	0.666378	0.096490
	H46	H	0.770581	0.341138	0.098336
	H47	H	0.768830	0.665709	0.897791
	H48	H	0.384819	0.118335	0.589250
	H49	H	0.564840	0.888057	0.596003
	H50	H	0.564883	0.114820	0.405995
	H51	H	0.397054	0.884429	0.394861
	H52	H	0.579786	0.411022	0.112718
	H53	H	0.582956	0.599740	0.879865
	H54	H	0.400790	0.595012	0.111810
	H55	H	0.398984	0.414520	0.887204
	H56	H	0.102752	0.593013	0.398386
	H57	H	0.868161	0.589607	0.593074
	H58	H	0.100899	0.417049	0.598238
	H59	H	0.868819	0.408037	0.414000
	H60	H	0.102868	0.402205	0.587753
	H61	H	0.866594	0.597836	0.592180
	H62	H	0.102915	0.605058	0.411355
	H63	H	0.871313	0.423510	0.404969
	H64	H	0.392424	0.595642	0.115287
	H65	H	0.578580	0.588802	0.884965
	H66	H	0.575611	0.407534	0.112907
	H67	H	0.397406	0.402033	0.882836
	H68	H	0.571851	0.113806	0.413869
	H69	H	0.572905	0.890164	0.580419
	H70	H	0.391804	0.118874	0.598399
	H71	H	0.394989	0.891145	0.416934
	H72	H	0.902067	0.618364	0.090904
	H73	H	0.071986	0.389558	0.092565
	H74	H	0.066300	0.614379	0.910804
	H75	H	0.893446	0.389899	0.913333
	H76	H	0.071086	0.909593	0.612732
	H77	H	0.077615	0.102343	0.379598
	H78	H	0.893418	0.095118	0.612507
	H79	H	0.891867	0.910587	0.383776
	H80	H	0.604405	0.099987	0.905096
	H81	H	0.367501	0.087731	0.093141
	H82	H	0.602863	0.909537	0.100569
	H83	H	0.364459	0.904481	0.903060
	H84	H	0.599760	0.905079	0.085833
	H85	H	0.365855	0.098136	0.089634
	H86	H	0.596514	0.089135	0.916898
	H87	H	0.369428	0.906723	0.913916
	H88	H	0.890476	0.099880	0.614623
	H89	H	0.078053	0.085788	0.384446
	H90	H	0.076733	0.910959	0.614426
	H91	H	0.889307	0.909093	0.382932
	H92	H	0.087720	0.619196	0.914444
	H93	H	0.079628	0.390170	0.086725
	H94	H	0.891834	0.618520	0.083651
	H95	H	0.889766	0.384691	0.901253
	H96	H	0.396588	0.114846	0.588365
	H97	H	0.581449	0.882579	0.593303
	H98	H	0.574731	0.118002	0.405041
	H99	H	0.376771	0.881735	0.405826
	H100	H	0.580546	0.406059	0.114620
	H101	H	0.571034	0.599013	0.884009
	H102	H	0.395496	0.587986	0.110600
	H103	H	0.387711	0.410818	0.881858
	H104	H	0.096262	0.588231	0.414573
	H105	H	0.869561	0.594151	0.586278
	H106	H	0.094594	0.417486	0.580352
	H107	H	0.863551	0.409319	0.396486
	H108	H	0.891637	0.622225	0.095047
	H109	H	0.080204	0.385633	0.095266
	H110	H	0.078280	0.622650	0.895019
	H111	H	0.903013	0.390685	0.903284
	H112	H	0.073044	0.915637	0.611270
	H113	H	0.063967	0.095156	0.386097
	H114	H	0.888377	0.093860	0.614301
	H115	H	0.889028	0.912037	0.383570
	H116	H	0.600305	0.083897	0.900406
	H117	H	0.371241	0.091060	0.083288
	H118	H	0.596088	0.918935	0.090546
	H119	H	0.369063	0.915173	0.905779
	C120	C	0.360327	0.010004	0.621222
	C121	C	0.603778	0.993417	0.620953
	C122	C	0.602356	0.009027	0.378204
	C123	C	0.359494	0.992842	0.376000
	C124	C	0.608409	0.378862	0.006798
	C125	C	0.607795	0.624661	0.989674
	C126	C	0.365069	0.623192	0.006007
	C127	C	0.364950	0.379859	0.990860
	C128	C	-0.007020	0.625239	0.376919
	C129	C	0.975594	0.625101	0.620256
	C130	C	-0.008087	0.382499	0.619175
	C131	C	0.975555	0.382526	0.376285
	C132	C	0.865525	0.512500	0.119021
	C133	C	0.108396	0.495438	0.121077
	C134	C	0.107414	0.511509	0.876818
	C135	C	0.864701	0.495556	0.876414
	C136	C	0.103603	0.881642	0.506298
	C137	C	0.104190	0.124734	0.489599
	C138	C	0.859729	0.125355	0.506936
	C139	C	0.860516	0.880849	0.490169
	C140	C	0.492676	0.121922	0.877873
	C141	C	0.475556	0.122124	0.120313
	C142	C	0.491842	0.879804	0.120855
	C143	C	0.475556	0.879657	0.877887
	C144	C	0.360419	0.887860	0.677763
	C145	C	0.604160	0.114716	0.679324
	C146	C	0.603448	0.887338	0.320997
	C147	C	0.358887	0.114215	0.318209
	C148	C	0.664239	0.381451	0.884853
	C149	C	0.664427	0.622420	0.111799
	C150	C	0.307652	0.622176	0.884741
	C151	C	0.307847	0.381037	0.112159
	C152	C	0.869240	0.680263	0.377935
	C153	C	0.097920	0.682909	0.619097
	C154	C	0.868796	0.326378	0.618289
	C155	C	0.097420	0.324155	0.377428
	C156	C	0.870125	0.382797	0.677546
	C157	C	0.098566	0.626373	0.677264
	C158	C	0.870876	0.624985	0.318527
	C159	C	0.098473	0.382400	0.320960
	C160	C	0.365048	0.680502	0.884903
	C161	C	0.608501	0.681721	0.111047
	C162	C	0.608903	0.320803	0.885872
	C163	C	0.365532	0.323046	0.112361
	C164	C	0.660898	0.887574	0.378918
	C165	C	0.661005	0.115364	0.620895
	C166	C	0.304225	0.887581	0.618503
	C167	C	0.303992	0.115589	0.377830
	C168	C	0.866271	0.390515	0.175855
	C169	C	0.108890	0.617446	0.177764
	C170	C	0.107824	0.390258	0.818607
	C171	C	0.864398	0.617435	0.819396
	C172	C	0.160023	0.882872	0.384622
	C173	C	0.160809	0.123105	0.611366
	C174	C	0.802623	0.123406	0.385574
	C175	C	0.805693	0.883001	0.612499
	C176	C	0.370021	0.179652	0.879238
	C177	C	0.598673	0.178051	0.120673
	C178	C	0.369339	0.822590	0.117886
	C179	C	0.599591	0.825839	0.879856
	C180	C	0.368257	0.880174	0.175267
	C181	C	0.597326	0.121513	0.179295
	C182	C	0.369169	0.121578	0.822153
	C183	C	0.597613	0.880325	0.819992
	C184	C	0.859859	0.182185	0.385484
	C185	C	0.103577	0.181542	0.610968
	C186	C	0.101930	0.825187	0.384551
	C187	C	0.861632	0.823842	0.611633
	C188	C	0.163327	0.388882	0.878406
	C189	C	0.165169	0.617556	0.118334
	C190	C	0.809053	0.389895	0.118023
	C191	C	0.807385	0.617332	0.877629
	C192	C	0.384069	0.095271	0.598700
	C193	C	0.579998	0.908779	0.597003
	C194	C	0.577793	0.093477	0.401508
	C195	C	0.382700	0.907798	0.399089
	C196	C	0.585619	0.401663	0.091427
	C197	C	0.584467	0.602366	0.905024
	C198	C	0.389160	0.599628	0.090584
	C199	C	0.388141	0.402487	0.905895
	C200	C	0.078420	0.602127	0.401014
	C201	C	0.890267	0.600765	0.597278
	C202	C	0.077292	0.405687	0.595656
	C203	C	0.890112	0.406568	0.398729
	C204	C	0.888544	0.597636	0.096372
	C205	C	0.084354	0.410471	0.098198
	C206	C	0.084110	0.596634	0.900078
	C207	C	0.888477	0.410514	0.899374
	C208	C	0.080227	0.904866	0.590867
	C209	C	0.080165	0.101272	0.405353
	C210	C	0.883692	0.102865	0.591790
	C211	C	0.883144	0.903909	0.405452
	C212	C	0.578088	0.098015	0.900753
	C213	C	0.390309	0.098968	0.095933
	C214	C	0.577446	0.903893	0.098890
	C215	C	0.389792	0.902194	0.901056
	Zn216	Zn	0.482357	0.000569	0.749819
	Zn217	Zn	0.481649	0.000794	0.248711
	Zn218	Zn	0.736048	0.503171	-0.001778
	Zn219	Zn	0.236271	0.501905	-0.001506
	Zn220	Zn	-0.017549	0.752512	0.498717
	Zn221	Zn	-0.017407	0.253863	0.497697
	Zn222	Zn	-0.013875	0.503724	0.747977
	Zn223	Zn	-0.014497	0.504272	0.248804
	Zn224	Zn	0.485808	0.752752	-0.001581
	Zn225	Zn	0.485811	0.250390	-0.001177
	Zn226	Zn	0.731898	0.002057	0.499271
	Zn227	Zn	0.232878	0.002308	0.498388
	N228	N	0.394469	0.965117	0.679671
	N229	N	0.569315	0.037930	0.679523
	N230	N	0.567485	0.963661	0.320525
	N231	N	0.392679	0.036917	0.316883
	N232	N	0.664399	0.416688	0.961086
	N233	N	0.664094	0.587615	0.035487
	N234	N	0.307985	0.587093	0.961042
	N235	N	0.307209	0.415640	0.035446
	N236	N	0.946179	0.680484	0.413612
	N237	N	0.020512	0.682242	0.584345
	N238	N	0.945529	0.325904	0.582783
	N239	N	0.019878	0.324082	0.411212
	N240	N	0.947860	0.416742	0.678353
	N241	N	0.021576	0.590954	0.678035
	N242	N	0.948951	0.591647	0.317668
	N243	N	0.021597	0.418157	0.320124
	N244	N	0.399943	0.681267	0.961422
	N245	N	0.574116	0.683358	0.034269
	N246	N	0.574963	0.319069	0.962655
	N247	N	0.400275	0.322271	0.035949
	N248	N	0.660493	0.964313	0.413675
	N249	N	0.660806	0.038944	0.585160
	N250	N	0.304020	0.964594	0.584021
	N251	N	0.304256	0.039087	0.413095
	N252	N	0.900362	0.467755	0.176674
	N253	N	0.074607	0.540234	0.179928
	N254	N	0.073814	0.467495	0.817598
	N255	N	0.899347	0.540614	0.818566
	N256	N	0.161130	0.917110	0.461348
	N257	N	0.161166	0.088279	0.534936
	N258	N	0.802587	0.088781	0.462043
	N259	N	0.804913	0.917738	0.536077
	N260	N	0.447838	0.180153	0.912896
	N261	N	0.522108	0.178503	0.084617
	N262	N	0.447376	0.822246	0.084841
	N263	N	0.522689	0.825217	0.914894
	N264	N	0.445422	0.914983	0.177092
	N265	N	0.519638	0.087425	0.179173
	N266	N	0.446318	0.086511	0.821171
	N267	N	0.519250	0.912965	0.818532
	N268	N	0.894374	0.183619	0.462155
	N269	N	0.069111	0.182723	0.534260
	N270	N	0.067559	0.824352	0.461213
	N271	N	0.894825	0.822135	0.534470
	N272	N	0.163334	0.465274	0.913725
	N273	N	0.164849	0.540746	0.083935
	N274	N	0.808471	0.466738	0.083367
	N275	N	0.807404	0.540542	0.912311
	O276	O	-0.039209	0.030592	-0.092800
	H277	H	-0.030025	0.022876	-0.096453
	H278	H	-0.031513	0.032710	-0.092498
	O279	O	-0.577462	0.498794	-0.406067
	H280	H	-0.575847	0.495203	-0.403829
	H281	H	-0.566421	0.499324	-0.397767
	O282	O	0.865122	-0.012188	-0.021578
	H283	H	0.863536	-0.022422	-0.014487
	H284	H	0.858794	-0.009879	-0.030050
	O285	O	-0.084365	0.916024	0.017491
	H286	H	-0.080402	0.914964	0.029283
	H287	H	-0.090597	0.912854	0.017084
	O288	O	0.328321	0.626910	0.380138
	H289	H	0.327777	0.637569	0.394946
	H290	H	0.312904	0.624709	0.372618
	O291	O	1.051140	-0.018981	1.079789
	H292	H	1.062801	-0.016649	1.085036
	H293	H	1.055823	-0.012712	1.083032
	O294	O	1.433259	0.632509	0.535235
	H295	H	1.448978	0.629120	0.534397
	H296	H	1.426259	0.628654	0.550378
	O297	O	-0.068362	0.060416	-0.158881
	H298	H	-0.064085	0.051861	-0.156102
	H299	H	-0.069107	0.064192	-0.158263
	O300	O	1.010353	0.960390	1.187793
	H301	H	1.016222	0.945421	1.199987
	H302	H	0.993926	0.965670	1.176984
	O303	O	-0.174759	1.143691	0.968630
	H304	H	-0.195017	1.162449	0.963990
	H305	H	-0.165409	1.130715	0.946048
	O306	O	0.572345	0.615452	0.399685
	H307	H	0.558298	0.619244	0.400318
	H308	H	0.581546	0.602750	0.389264
	O309	O	1.003495	0.137297	0.030882
	H310	H	0.997294	0.140600	0.025560
	H311	H	0.989663	0.138373	0.048176
	O312	O	-0.059659	-0.029051	0.932900
	H313	H	-0.058571	-0.028678	0.931816
	H314	H	-0.050952	-0.032967	0.941358
	O315	O	0.345124	0.530037	0.377465
	H316	H	0.340262	0.551012	0.362268
	H317	H	0.331203	0.532232	0.399193
	O318	O	0.556804	0.544621	0.569824
	H319	H	0.568676	0.551751	0.580642
	H320	H	0.554867	0.563231	0.556955
	O321	O	0.648209	0.468071	0.444369
	H322	H	0.640060	0.471456	0.458650
	H323	H	0.652533	0.459169	0.450704
	O324	O	-0.007518	0.092480	-0.104918
	H325	H	-0.007367	0.080375	-0.107553
	H326	H	-0.013598	0.102188	-0.101009
	O327	O	0.008252	0.945183	0.959944
	H328	H	0.010978	0.941124	0.967844
	H329	H	0.007620	0.951749	0.955800
	O330	O	0.325887	0.535729	0.650919
	H331	H	0.321450	0.525837	0.668684
	H332	H	0.317750	0.507185	0.660541
	O333	O	0.037369	0.903301	1.039812
	H334	H	0.033964	0.898900	1.049192
	H335	H	0.034875	0.902362	1.042523
	O336	O	1.483158	0.365855	0.523937
	H337	H	1.472475	0.369887	0.528241
	H338	H	1.476883	0.374622	0.511167
	O339	O	0.497664	0.477426	0.377235
	H340	H	0.495519	0.481103	0.374627
	H341	H	0.515961	0.476773	0.383960
	O342	O	1.013276	0.059496	0.147820
	H343	H	1.008980	0.059430	0.155434
	H344	H	1.013976	0.057548	0.140441
	O345	O	0.547228	0.518212	0.536478
	H346	H	0.552655	0.511551	0.540044
	H347	H	0.558843	0.524386	0.535033
	O348	O	1.105934	1.066792	0.981509
	H349	H	1.102078	1.061051	0.986790
	H350	H	1.110643	1.071428	0.987501
	O351	O	1.302129	1.430551	0.605828
	H352	H	1.297969	1.415071	0.611183
	H353	H	1.316833	1.430539	0.599060
	O354	O	1.033722	-0.023743	1.023938
	H355	H	1.039164	-0.024550	1.022771
	H356	H	1.019387	-0.025525	1.025618
	O357	O	0.523345	0.450762	0.605191
	H358	H	0.525253	0.464547	0.609603
	H359	H	0.532681	0.446434	0.590015
	O360	O	0.058376	0.051545	0.016056
	H361	H	0.064264	0.053294	0.019557
	H362	H	0.059545	0.060377	0.005297
	O363	O	0.638810	0.427318	0.430914
	H364	H	0.631614	0.434206	0.444409
	H365	H	0.645231	0.427994	0.433767
	O366	O	0.545629	0.575417	0.550292
	H367	H	0.547706	0.575354	0.532449
	H368	H	0.541557	0.568552	0.549004
	O369	O	0.617745	0.571024	0.437287
	H370	H	0.616001	0.571801	0.434318
	H371	H	0.612007	0.569315	0.438016
	O372	O	-0.098222	1.026890	0.857622
	H373	H	-0.088871	1.024777	0.841095
	H374	H	-0.092601	1.012793	0.855075
	O375	O	1.462243	0.577063	0.389984
	H376	H	1.454485	0.581595	0.379838
	H377	H	1.457766	0.573280	0.397772
	O378	O	0.502267	0.319030	0.475875
	H379	H	0.504714	0.320405	0.454648
	H380	H	0.509381	0.313274	0.463019
	O381	O	1.140449	0.004844	-0.015825
	H382	H	1.148298	0.008190	-0.009993
	H383	H	1.137521	-0.003489	-0.016925
	O384	O	0.507712	1.413406	0.493896
	H385	H	0.509425	1.417743	0.490206
	H386	H	0.492977	1.411904	0.496947
	O387	O	1.443935	-0.585214	0.496408
	H388	H	1.451028	-0.590259	0.483979
	H389	H	1.428224	-0.593805	0.497475
	O390	O	-0.012232	1.001453	0.160810
	H391	H	-0.024496	0.996882	0.157972
	H392	H	-0.012825	1.008855	0.168293
	O393	O	1.394988	1.401017	0.620274
	H394	H	1.392522	1.396516	0.628174
	H395	H	1.391633	1.397607	0.630141
	O396	O	0.414684	0.478734	0.383708
	H397	H	0.419909	0.472712	0.374722
	H398	H	0.388605	0.492855	0.381006
	O399	O	-0.531016	0.514278	1.465222
	H400	H	-0.520726	0.514888	1.464853
	H401	H	-0.528001	0.507339	1.470535
	O402	O	0.978887	1.050762	0.990108
	H403	H	0.978035	1.047682	0.975803
	H404	H	0.967478	1.058451	0.987168
	O405	O	-0.078088	0.950204	-0.037512
	H406	H	-0.079360	0.948466	-0.028178
	H407	H	-0.072466	0.956004	-0.032466
