data_Molecule from HDF5

_cell_length_a		16.270319
_cell_length_b		16.301296
_cell_length_c		16.333061
_cell_angle_alpha	90.090318
_cell_angle_beta	90.054897
_cell_angle_gamma	89.979108
_symmetry_space_group_name_H-M	'P 1'
_symmetry_Int_Tables_number		1

loop_
	_symmetry_equiv_pos_as_xyz
	x,y,z

loop_
	_atom_site_label
	_atom_site_type_symbol
	_atom_site_fract_x
	_atom_site_fract_y
	_atom_site_fract_z
	H0	H	0.396981	0.834673	0.722310
	H1	H	0.594090	0.161453	0.721969
	H2	H	0.594598	0.834155	0.294076
	H3	H	0.397782	0.161738	0.292907
	H4	H	0.710112	0.400666	0.844190
	H5	H	0.710178	0.596563	0.171810
	H6	H	0.283044	0.594503	0.843613
	H7	H	0.282766	0.401350	0.171416
	H8	H	0.832846	0.712468	0.409510
	H9	H	0.160631	0.712332	0.606940
	H10	H	0.832863	0.284654	0.604764
	H11	H	0.159981	0.284628	0.409758
	H12	H	0.832597	0.400245	0.721089
	H13	H	0.160418	0.596631	0.722440
	H14	H	0.833401	0.597583	0.292513
	H15	H	0.159833	0.400167	0.293414
	H16	H	0.397085	0.712879	0.844108
	H17	H	0.594835	0.712958	0.171134
	H18	H	0.593995	0.283839	0.843939
	H19	H	0.398848	0.284399	0.171474
	H20	H	0.709874	0.834268	0.411021
	H21	H	0.709599	0.162101	0.605678
	H22	H	0.282183	0.834702	0.605553
	H23	H	0.283470	0.162814	0.411805
	H24	H	0.898514	0.335163	0.221622
	H25	H	0.095453	0.662086	0.222444
	H26	H	0.093412	0.334283	0.793679
	H27	H	0.897933	0.662485	0.794515
	H28	H	0.209819	0.901028	0.344051
	H29	H	0.210302	0.096800	0.671299
	H30	H	0.781566	0.096911	0.344665
	H31	H	0.783557	0.901360	0.671602
	H32	H	0.332560	0.210859	0.911135
	H33	H	0.660751	0.211168	0.104853
	H34	H	0.331751	0.785414	0.104101
	H35	H	0.660352	0.783674	0.910284
	H36	H	0.333062	0.899508	0.222146
	H37	H	0.661420	0.094557	0.220466
	H38	H	0.332675	0.096100	0.794068
	H39	H	0.660455	0.899381	0.793427
	H40	H	0.899626	0.211501	0.344041
	H41	H	0.095179	0.214333	0.670106
	H42	H	0.093745	0.784289	0.344593
	H43	H	0.899243	0.784828	0.670963
	H44	H	0.209098	0.333836	0.910850
	H45	H	0.210534	0.661968	0.104846
	H46	H	0.784163	0.334169	0.104116
	H47	H	0.781843	0.661607	0.911061
	H48	H	0.407774	0.112036	0.598439
	H49	H	0.584547	0.883395	0.601232
	H50	H	0.592213	0.114186	0.417884
	H51	H	0.403063	0.881991	0.413868
	H52	H	0.600378	0.412163	0.124736
	H53	H	0.586731	0.599860	0.889945
	H54	H	0.401767	0.588246	0.123006
	H55	H	0.392588	0.404050	0.888991
	H56	H	0.112037	0.585907	0.413726
	H57	H	0.882434	0.590988	0.593856
	H58	H	0.110155	0.406111	0.593338
	H59	H	0.877338	0.403678	0.406115
	H60	H	0.112802	0.412631	0.605593
	H61	H	0.880613	0.586064	0.607504
	H62	H	0.114920	0.594739	0.410822
	H63	H	0.879549	0.399774	0.419296
	H64	H	0.407177	0.592928	0.122649
	H65	H	0.597160	0.587935	0.890284
	H66	H	0.578701	0.407014	0.119297
	H67	H	0.408544	0.412150	0.895866
	H68	H	0.591489	0.116308	0.409931
	H69	H	0.591881	0.882219	0.597156
	H70	H	0.397052	0.115879	0.599898
	H71	H	0.403141	0.882884	0.414802
	H72	H	0.909168	0.615186	0.107558
	H73	H	0.087912	0.383234	0.098581
	H74	H	0.089098	0.617012	0.903597
	H75	H	0.900802	0.383240	0.921438
	H76	H	0.099585	0.908201	0.626017
	H77	H	0.087270	0.103350	0.388898
	H78	H	0.906176	0.088512	0.621650
	H79	H	0.902759	0.902058	0.390322
	H80	H	0.612406	0.082908	0.908944
	H81	H	0.381421	0.088465	0.099999
	H82	H	0.612290	0.909469	0.103395
	H83	H	0.380060	0.906221	0.913983
	H84	H	0.615100	0.900535	0.104474
	H85	H	0.378455	0.091705	0.105853
	H86	H	0.616899	0.099126	0.910790
	H87	H	0.379392	0.904802	0.912630
	H88	H	0.905965	0.097834	0.625199
	H89	H	0.101803	0.088164	0.389080
	H90	H	0.083207	0.911933	0.619073
	H91	H	0.900601	0.904738	0.391348
	H92	H	0.081154	0.610844	0.919372
	H93	H	0.092320	0.381440	0.100178
	H94	H	0.905818	0.611418	0.093662
	H95	H	0.897632	0.378855	0.906789
	H96	H	0.404377	0.116616	0.608520
	H97	H	0.590735	0.880398	0.604731
	H98	H	0.584817	0.113055	0.414176
	H99	H	0.402448	0.881878	0.414426
	H100	H	0.592278	0.391162	0.128485
	H101	H	0.582472	0.585778	0.895990
	H102	H	0.400979	0.594935	0.125047
	H103	H	0.408224	0.394008	0.890620
	H104	H	0.111807	0.592894	0.419964
	H105	H	0.876745	0.599521	0.604193
	H106	H	0.116540	0.398911	0.604174
	H107	H	0.882505	0.412959	0.415486
	H108	H	0.895640	0.618339	0.102266
	H109	H	0.088258	0.381482	0.103621
	H110	H	0.099408	0.615713	0.919160
	H111	H	0.911563	0.383378	0.910993
	H112	H	0.086739	0.895524	0.626024
	H113	H	0.082676	0.084058	0.395511
	H114	H	0.898158	0.092373	0.625540
	H115	H	0.904272	0.905182	0.391542
	H116	H	0.610514	0.090726	0.923502
	H117	H	0.379152	0.095514	0.099782
	H118	H	0.611996	0.903576	0.096130
	H119	H	0.380155	0.904446	0.914788
	C120	C	0.374917	0.006314	0.629720
	C121	C	0.617886	0.990106	0.629097
	C122	C	0.617915	0.006524	0.386275
	C123	C	0.374609	0.990364	0.386260
	C124	C	0.618462	0.375765	0.016077
	C125	C	0.617491	0.619482	1.000003
	C126	C	0.374891	0.619811	0.015597
	C127	C	0.374541	0.375619	0.999528
	C128	C	0.004730	0.619709	0.386227
	C129	C	0.988304	0.620367	0.630138
	C130	C	0.004859	0.377453	0.628851
	C131	C	0.987970	0.377194	0.385886
	C132	C	0.875541	0.506680	0.129182
	C133	C	0.118089	0.490095	0.129196
	C134	C	0.118031	0.506459	0.885835
	C135	C	0.874971	0.490144	0.885986
	C136	C	0.117900	0.877031	0.515769
	C137	C	0.118710	0.120596	0.499108
	C138	C	0.875260	0.120091	0.515947
	C139	C	0.874836	0.876372	0.499103
	C140	C	0.504871	0.119121	0.886538
	C141	C	0.488164	0.119627	0.129509
	C142	C	0.504876	0.876422	0.129389
	C143	C	0.488253	0.876439	0.886016
	C144	C	0.377342	0.883480	0.684158
	C145	C	0.615139	0.112821	0.684493
	C146	C	0.615281	0.883165	0.331674
	C147	C	0.377021	0.113078	0.331039
	C148	C	0.672277	0.379514	0.892922
	C149	C	0.672770	0.617008	0.122747
	C150	C	0.319951	0.616388	0.892597
	C151	C	0.320033	0.379638	0.122711
	C152	C	0.881696	0.674576	0.389155
	C153	C	0.111582	0.674846	0.627157
	C154	C	0.881591	0.322447	0.625679
	C155	C	0.111191	0.322475	0.389141
	C156	C	0.881613	0.379877	0.683455
	C157	C	0.111655	0.617329	0.684660
	C158	C	0.881909	0.617655	0.330765
	C159	C	0.111152	0.379663	0.331226
	C160	C	0.377163	0.674639	0.892723
	C161	C	0.615214	0.674836	0.122629
	C162	C	0.614763	0.321375	0.892901
	C163	C	0.378017	0.322059	0.122880
	C164	C	0.672372	0.883090	0.390004
	C165	C	0.672588	0.112961	0.626584
	C166	C	0.320094	0.883528	0.626243
	C167	C	0.320028	0.113554	0.389842
	C168	C	0.877758	0.383853	0.183866
	C169	C	0.115466	0.613282	0.184323
	C170	C	0.114228	0.382959	0.831641
	C171	C	0.877713	0.613408	0.832020
	C172	C	0.172168	0.880180	0.392828
	C173	C	0.172744	0.117639	0.622247
	C174	C	0.820222	0.116912	0.393170
	C175	C	0.820928	0.880600	0.622558
	C176	C	0.381484	0.173364	0.890126
	C177	C	0.611860	0.173735	0.126106
	C178	C	0.380971	0.822479	0.125533
	C179	C	0.611534	0.821544	0.889466
	C180	C	0.381749	0.879007	0.184207
	C181	C	0.612175	0.115705	0.183299
	C182	C	0.381542	0.116391	0.831982
	C183	C	0.611682	0.878999	0.831435
	C184	C	0.878288	0.174377	0.392757
	C185	C	0.115798	0.175989	0.621643
	C186	C	0.114827	0.822020	0.393209
	C187	C	0.877919	0.822254	0.622209
	C188	C	0.171966	0.382937	0.889433
	C189	C	0.172804	0.613345	0.126157
	C190	C	0.821049	0.383476	0.125547
	C191	C	0.820066	0.613147	0.889792
	C192	C	0.396854	0.092662	0.608536
	C193	C	0.595531	0.904102	0.607232
	C194	C	0.596036	0.092289	0.407682
	C195	C	0.396288	0.904410	0.407943
	C196	C	0.596869	0.397265	0.102057
	C197	C	0.595254	0.597545	0.914144
	C198	C	0.396810	0.598234	0.101243
	C199	C	0.396434	0.397178	0.913907
	C200	C	0.090798	0.597800	0.408314
	C201	C	0.902069	0.598468	0.608109
	C202	C	0.090955	0.399392	0.607218
	C203	C	0.901863	0.399119	0.407373
	C204	C	0.897270	0.592755	0.107573
	C205	C	0.095896	0.404341	0.107292
	C206	C	0.096401	0.592403	0.907593
	C207	C	0.896784	0.404042	0.906884
	C208	C	0.096283	0.898784	0.601712
	C209	C	0.096887	0.098492	0.413234
	C210	C	0.897161	0.099204	0.601916
	C211	C	0.896200	0.897643	0.413173
	C212	C	0.591036	0.097251	0.907987
	C213	C	0.401966	0.098167	0.108216
	C214	C	0.590873	0.897984	0.107703
	C215	C	0.402171	0.898504	0.907540
	Zn216	Zn	0.496456	-0.002011	0.757606
	Zn217	Zn	0.496727	-0.002186	0.257633
	Zn218	Zn	0.746645	0.498092	0.008058
	Zn219	Zn	0.246367	0.497858	0.007506
	Zn220	Zn	-0.003022	0.748002	0.508446
	Zn221	Zn	-0.003432	0.249122	0.507189
	Zn222	Zn	-0.003456	0.498707	0.757303
	Zn223	Zn	-0.003378	0.498463	0.257582
	Zn224	Zn	0.496272	0.748214	0.007878
	Zn225	Zn	0.496713	0.247561	0.007984
	Zn226	Zn	0.746527	-0.001486	0.507938
	Zn227	Zn	0.246369	-0.001559	0.508268
	N228	N	0.410653	0.960921	0.686307
	N229	N	0.581798	0.035341	0.686228
	N230	N	0.582012	0.960658	0.329398
	N231	N	0.410344	0.035499	0.328707
	N232	N	0.674889	0.412288	0.970516
	N233	N	0.674030	0.583088	0.045487
	N234	N	0.318657	0.582766	0.969789
	N235	N	0.317780	0.412275	0.045082
	N236	N	0.959112	0.675761	0.423118
	N237	N	0.033847	0.676769	0.594014
	N238	N	0.959240	0.320851	0.592306
	N239	N	0.033682	0.320997	0.422467
	N240	N	0.959146	0.413313	0.685379
	N241	N	0.033938	0.584321	0.686648
	N242	N	0.959445	0.584213	0.328886
	N243	N	0.033585	0.412958	0.329101
	N244	N	0.410481	0.677051	0.970101
	N245	N	0.581406	0.676391	0.045362
	N246	N	0.581941	0.319181	0.970407
	N247	N	0.411138	0.319341	0.045472
	N248	N	0.674224	0.960761	0.423094
	N249	N	0.674116	0.035600	0.592836
	N250	N	0.318260	0.961177	0.593268
	N251	N	0.318573	0.036212	0.423469
	N252	N	0.911158	0.461223	0.186029
	N253	N	0.082298	0.535558	0.186311
	N254	N	0.081559	0.460807	0.829283
	N255	N	0.911117	0.535741	0.829354
	N256	N	0.174205	0.913694	0.470249
	N257	N	0.174733	0.084089	0.545001
	N258	N	0.818166	0.084149	0.470663
	N259	N	0.818812	0.913542	0.544946
	N260	N	0.459069	0.175217	0.923208
	N261	N	0.534049	0.176149	0.093239
	N262	N	0.458634	0.820680	0.092155
	N263	N	0.533742	0.819782	0.922479
	N264	N	0.459523	0.911888	0.186542
	N265	N	0.534327	0.082751	0.185608
	N266	N	0.459300	0.083183	0.829778
	N267	N	0.534188	0.912531	0.829314
	N268	N	0.911880	0.176479	0.470086
	N269	N	0.082596	0.177621	0.544239
	N270	N	0.081915	0.820057	0.470623
	N271	N	0.911041	0.819665	0.544838
	N272	N	0.174313	0.460506	0.922519
	N273	N	0.174516	0.536041	0.092618
	N274	N	0.819669	0.460932	0.092135
	N275	N	0.818304	0.535739	0.922633
	O276	O	0.526303	0.549577	0.496369
	H277	H	0.525319	0.545382	0.499623
	H278	H	0.530204	0.553103	0.508435
	O279	O	0.502964	0.547558	0.496726
	H280	H	0.505524	0.551552	0.497098
	H281	H	0.502014	0.545702	0.488105
	O282	O	1.522555	0.550393	-0.502552
	H283	H	1.517729	0.558840	-0.501240
	H284	H	1.518411	0.549908	-0.506436
	O285	O	0.490089	0.566921	0.480850
	H286	H	0.485824	0.561759	0.478142
	H287	H	0.505574	0.570674	0.479885
