data_Molecule from HDF5

_cell_length_a		16.274319
_cell_length_b		16.486218
_cell_length_c		16.345440
_cell_angle_alpha	90.017504
_cell_angle_beta	89.809007
_cell_angle_gamma	89.969203
_symmetry_space_group_name_H-M	'P 1'
_symmetry_Int_Tables_number		1

loop_
	_symmetry_equiv_pos_as_xyz
	x,y,z

loop_
	_atom_site_label
	_atom_site_type_symbol
	_atom_site_fract_x
	_atom_site_fract_y
	_atom_site_fract_z
	H0	H	0.395783	0.826818	0.722533
	H1	H	0.607381	0.144399	0.724315
	H2	H	0.604270	0.826783	0.281344
	H3	H	0.393352	0.143486	0.280005
	H4	H	0.717264	0.386784	0.840048
	H5	H	0.717018	0.587752	0.163575
	H6	H	0.280516	0.590337	0.839891
	H7	H	0.277723	0.381215	0.159304
	H8	H	0.838102	0.705977	0.397847
	H9	H	0.158537	0.708508	0.609446
	H10	H	0.838519	0.265587	0.607512
	H11	H	0.157693	0.263084	0.393597
	H12	H	0.836896	0.385581	0.718306
	H13	H	0.160228	0.589385	0.720239
	H14	H	0.838323	0.589996	0.282381
	H15	H	0.158805	0.380739	0.280262
	H16	H	0.395679	0.707044	0.841553
	H17	H	0.605039	0.707346	0.162094
	H18	H	0.608723	0.264236	0.842005
	H19	H	0.392225	0.264494	0.159592
	H20	H	0.718595	0.825519	0.399146
	H21	H	0.721679	0.144858	0.606046
	H22	H	0.279709	0.826228	0.606584
	H23	H	0.277839	0.143434	0.397949
	H24	H	0.892347	0.327552	0.224158
	H25	H	0.104757	0.642940	0.223952
	H26	H	0.105854	0.326223	0.779561
	H27	H	0.897275	0.645370	0.782275
	H28	H	0.219101	0.882389	0.341177
	H29	H	0.216179	0.086849	0.663146
	H30	H	0.781650	0.087441	0.339965
	H31	H	0.782627	0.886608	0.663138
	H32	H	0.339585	0.206257	0.897047
	H33	H	0.660625	0.205414	0.105355
	H34	H	0.339059	0.766258	0.107807
	H35	H	0.661141	0.767500	0.899097
	H36	H	0.338952	0.880909	0.221801
	H37	H	0.661116	0.088276	0.219617
	H38	H	0.338286	0.088488	0.783935
	H39	H	0.661422	0.885556	0.784167
	H40	H	0.893360	0.206961	0.342075
	H41	H	0.105048	0.206606	0.660716
	H42	H	0.104949	0.764246	0.342341
	H43	H	0.894550	0.767158	0.662195
	H44	H	0.221389	0.327258	0.895550
	H45	H	0.219646	0.644141	0.105586
	H46	H	0.780175	0.326470	0.104767
	H47	H	0.782754	0.646365	0.901452
	H48	H	0.406571	0.100909	0.594975
	H49	H	0.589818	0.871788	0.595740
	H50	H	0.594137	0.102184	0.405541
	H51	H	0.413839	0.875181	0.416671
	H52	H	0.588756	0.391316	0.116983
	H53	H	0.592128	0.574658	0.888275
	H54	H	0.405665	0.574514	0.115979
	H55	H	0.419127	0.401007	0.890750
	H56	H	0.114094	0.579978	0.415585
	H57	H	0.879856	0.588476	0.592678
	H58	H	0.111052	0.399201	0.585861
	H59	H	0.884702	0.397966	0.413419
	H60	H	0.115617	0.396648	0.595966
	H61	H	0.890653	0.572461	0.579098
	H62	H	0.110264	0.570960	0.417537
	H63	H	0.884309	0.395255	0.412968
	H64	H	0.413878	0.572582	0.112931
	H65	H	0.586479	0.578490	0.888295
	H66	H	0.591797	0.396454	0.116112
	H67	H	0.414136	0.388103	0.884690
	H68	H	0.582775	0.097235	0.408854
	H69	H	0.585880	0.875010	0.590394
	H70	H	0.413486	0.097786	0.592963
	H71	H	0.402042	0.870103	0.412243
	H72	H	0.900415	0.601274	0.091632
	H73	H	0.089022	0.372201	0.089873
	H74	H	0.090657	0.598485	0.911559
	H75	H	0.908101	0.371862	0.909596
	H76	H	0.090268	0.895172	0.616674
	H77	H	0.088924	0.066097	0.390104
	H78	H	0.911941	0.072508	0.614192
	H79	H	0.917034	0.897454	0.390199
	H80	H	0.613122	0.080254	0.921004
	H81	H	0.385326	0.074652	0.090233
	H82	H	0.612688	0.899269	0.090401
	H83	H	0.384536	0.893295	0.914276
	H84	H	0.616220	0.894658	0.094521
	H85	H	0.385702	0.076123	0.089675
	H86	H	0.611477	0.066269	0.912508
	H87	H	0.385898	0.897865	0.912554
	H88	H	0.912299	0.078882	0.615445
	H89	H	0.080178	0.078824	0.388748
	H90	H	0.087170	0.897117	0.614545
	H91	H	0.911373	0.886601	0.384813
	H92	H	0.088349	0.598908	0.908412
	H93	H	0.085382	0.374219	0.090418
	H94	H	0.915195	0.599967	0.101718
	H95	H	0.909676	0.372410	0.909649
	H96	H	0.407539	0.097410	0.587979
	H97	H	0.592704	0.873116	0.588691
	H98	H	0.592121	0.097306	0.417053
	H99	H	0.413636	0.869982	0.403847
	H100	H	0.586224	0.396252	0.114791
	H101	H	0.592009	0.581367	0.885900
	H102	H	0.411913	0.581316	0.115597
	H103	H	0.405221	0.399786	0.885026
	H104	H	0.113796	0.573073	0.408194
	H105	H	0.884278	0.567115	0.601427
	H106	H	0.115388	0.388818	0.587654
	H107	H	0.885327	0.396093	0.415277
	H108	H	0.915450	0.595506	0.084923
	H109	H	0.086903	0.374105	0.087018
	H110	H	0.087221	0.596783	0.912059
	H111	H	0.908867	0.372027	0.910936
	H112	H	0.086123	0.892777	0.616259
	H113	H	0.094954	0.078807	0.384081
	H114	H	0.906808	0.075508	0.616716
	H115	H	0.903833	0.897700	0.385995
	H116	H	0.618386	0.079483	0.904785
	H117	H	0.385978	0.074794	0.089181
	H118	H	0.614171	0.892489	0.087740
	H119	H	0.383531	0.894385	0.909581
	C120	C	0.377827	-0.006131	0.623481
	C121	C	0.621681	0.978090	0.623460
	C122	C	0.621305	-0.006326	0.379611
	C123	C	0.377644	0.976794	0.379582
	C124	C	0.621023	0.364466	0.009740
	C125	C	0.621554	0.608799	0.993626
	C126	C	0.378593	0.607524	0.009178
	C127	C	0.379107	0.364528	0.992128
	C128	C	0.006836	0.606579	0.381695
	C129	C	0.990629	0.607703	0.623206
	C130	C	0.007600	0.364254	0.622168
	C131	C	0.990240	0.364401	0.380710
	C132	C	0.877776	0.494093	0.124211
	C133	C	0.120052	0.477478	0.121937
	C134	C	0.121683	0.493789	0.878202
	C135	C	0.878576	0.477863	0.880147
	C136	C	0.120437	0.863593	0.510320
	C137	C	0.120323	0.106402	0.493408
	C138	C	0.878386	0.106991	0.509600
	C139	C	0.878496	0.863678	0.493118
	C140	C	0.508338	0.107148	0.880673
	C141	C	0.491296	0.107030	0.121904
	C142	C	0.508158	0.864272	0.122796
	C143	C	0.491539	0.864673	0.880676
	C144	C	0.377129	0.874493	0.683010
	C145	C	0.624559	0.097078	0.683655
	C146	C	0.622690	0.874208	0.320916
	C147	C	0.374755	0.095884	0.319675
	C148	C	0.679637	0.365645	0.888842
	C149	C	0.678840	0.607988	0.114984
	C150	C	0.319963	0.608711	0.888360
	C151	C	0.317959	0.362762	0.111694
	C152	C	0.886238	0.666047	0.379664
	C153	C	0.110818	0.667940	0.626343
	C154	C	0.886733	0.305166	0.625424
	C155	C	0.110218	0.303779	0.376503
	C156	C	0.885917	0.364796	0.680777
	C157	C	0.111713	0.608619	0.681805
	C158	C	0.886491	0.608417	0.321878
	C159	C	0.110613	0.362102	0.319781
	C160	C	0.377117	0.667056	0.889127
	C161	C	0.622996	0.667428	0.114328
	C162	C	0.624910	0.305102	0.889624
	C163	C	0.375210	0.304563	0.111706
	C164	C	0.680011	0.873675	0.379368
	C165	C	0.681746	0.097302	0.624906
	C166	C	0.319191	0.874148	0.625075
	C167	C	0.317519	0.095954	0.378546
	C168	C	0.874751	0.374888	0.183705
	C169	C	0.122636	0.595780	0.183158
	C170	C	0.124015	0.374216	0.818924
	C171	C	0.878392	0.597955	0.822166
	C172	C	0.179658	0.863049	0.389421
	C173	C	0.178098	0.106239	0.614360
	C174	C	0.820381	0.107207	0.388376
	C175	C	0.820575	0.865755	0.614502
	C176	C	0.387416	0.166439	0.878802
	C177	C	0.612464	0.165814	0.123469
	C178	C	0.387350	0.805420	0.125600
	C179	C	0.612877	0.806745	0.880044
	C180	C	0.387371	0.862949	0.182453
	C181	C	0.612668	0.107362	0.180420
	C182	C	0.386795	0.107703	0.822620
	C183	C	0.613002	0.865196	0.822898
	C184	C	0.875955	0.166828	0.389596
	C185	C	0.122287	0.165853	0.613270
	C186	C	0.122717	0.804480	0.389867
	C187	C	0.876575	0.806529	0.614074
	C188	C	0.181540	0.374535	0.876829
	C189	C	0.180206	0.596411	0.124331
	C190	C	0.818608	0.374554	0.124597
	C191	C	0.821207	0.598346	0.881172
	C192	C	0.402098	0.077047	0.598755
	C193	C	0.596753	0.895031	0.598721
	C194	C	0.596915	0.077103	0.403829
	C195	C	0.402639	0.893512	0.403837
	C196	C	0.596108	0.387889	0.094141
	C197	C	0.597359	0.585060	0.909307
	C198	C	0.403239	0.583117	0.092984
	C199	C	0.405187	0.389418	0.908520
	C200	C	0.090838	0.581820	0.406592
	C201	C	0.906654	0.582944	0.598338
	C202	C	0.092008	0.388020	0.597050
	C203	C	0.906496	0.389159	0.406524
	C204	C	0.903020	0.577305	0.099817
	C205	C	0.094540	0.394861	0.096411
	C206	C	0.096279	0.576575	0.903310
	C207	C	0.902106	0.393747	0.903384
	C208	C	0.095195	0.888118	0.594074
	C209	C	0.095384	0.081706	0.409465
	C210	C	0.903174	0.082717	0.593579
	C211	C	0.903435	0.887262	0.408897
	C212	C	0.592539	0.082423	0.905552
	C213	C	0.407531	0.082389	0.096819
	C214	C	0.592523	0.888459	0.098036
	C215	C	0.406673	0.888322	0.905139
	Zn216	Zn	0.499630	-0.013507	0.752526
	Zn217	Zn	0.499472	-0.014472	0.250235
	Zn218	Zn	0.749278	0.486386	0.002219
	Zn219	Zn	0.250221	0.485801	0.000180
	Zn220	Zn	-0.000788	0.734972	0.501909
	Zn221	Zn	-0.001054	0.235437	0.501366
	Zn222	Zn	-0.000375	0.485320	0.749986
	Zn223	Zn	-0.001378	0.484978	0.252453
	Zn224	Zn	0.499650	0.736258	0.002309
	Zn225	Zn	0.500349	0.235885	0.000663
	Zn226	Zn	0.750281	-0.014115	0.501206
	Zn227	Zn	0.248822	-0.014887	0.501785
	N228	N	0.412838	0.950052	0.682199
	N229	N	0.587824	0.022058	0.682735
	N230	N	0.587147	0.949769	0.320792
	N231	N	0.411492	0.020702	0.320210
	N232	N	0.677378	0.401875	0.964602
	N233	N	0.678119	0.572248	0.039105
	N234	N	0.320703	0.572367	0.964152
	N235	N	0.320178	0.399295	0.036282
	N236	N	0.962314	0.665176	0.415733
	N237	N	0.034432	0.667651	0.590793
	N238	N	0.963432	0.304392	0.589823
	N239	N	0.034524	0.305168	0.413711
	N240	N	0.962268	0.400485	0.679155
	N241	N	0.036103	0.571677	0.679852
	N242	N	0.962532	0.571919	0.322999
	N243	N	0.035023	0.399219	0.322480
	N244	N	0.412836	0.666459	0.965208
	N245	N	0.588171	0.668154	0.037646
	N246	N	0.589444	0.304036	0.966046
	N247	N	0.412573	0.305682	0.036131
	N248	N	0.679329	0.949168	0.415137
	N249	N	0.680233	0.022253	0.588120
	N250	N	0.319644	0.949224	0.588586
	N251	N	0.318968	0.020755	0.414611
	N252	N	0.910376	0.450410	0.183885
	N253	N	0.085954	0.520766	0.181715
	N254	N	0.087458	0.449526	0.819628
	N255	N	0.913144	0.521995	0.821393
	N256	N	0.178295	0.898903	0.465217
	N257	N	0.176862	0.070029	0.538463
	N258	N	0.821903	0.070781	0.463784
	N259	N	0.821539	0.900547	0.538188
	N260	N	0.464157	0.166473	0.913785
	N261	N	0.535941	0.165890	0.087937
	N262	N	0.463337	0.806276	0.088969
	N263	N	0.536131	0.806561	0.915376
	N264	N	0.463554	0.898918	0.180772
	N265	N	0.536387	0.071581	0.179712
	N266	N	0.463077	0.071848	0.823545
	N267	N	0.536553	0.900364	0.823281
	N268	N	0.911203	0.166716	0.466069
	N269	N	0.087286	0.166300	0.536923
	N270	N	0.086811	0.804464	0.466161
	N271	N	0.911599	0.805107	0.537519
	N272	N	0.180411	0.449934	0.912691
	N273	N	0.178632	0.521841	0.086965
	N274	N	0.820585	0.449645	0.088071
	N275	N	0.821160	0.522574	0.916333
	O276	O	1.067039	0.962089	0.119799
	H277	H	1.074474	0.953573	0.121510
	H278	H	1.053160	0.965031	0.125937
	O279	O	0.377189	0.689949	0.459035
	H280	H	0.377928	0.700317	0.433916
	H281	H	0.377124	0.701377	0.463349
	O282	O	0.650944	0.683295	0.504300
	H283	H	0.653008	0.677842	0.529148
	H284	H	0.662954	0.696343	0.533669
	O285	O	1.057755	-0.012813	-0.040688
	H286	H	1.058017	-0.024090	-0.027871
	H287	H	1.055176	-0.021172	-0.044213
	O288	O	-0.024094	-0.157900	0.908226
	H289	H	-0.029524	-0.151034	0.913614
	H290	H	-0.027163	-0.160768	0.911261
	O291	O	0.189446	1.141623	1.105192
	H292	H	0.197913	1.135397	1.112954
	H293	H	0.182110	1.139884	1.089600
	O294	O	1.679903	0.601066	0.559193
	H295	H	1.680047	0.585129	0.572333
	H296	H	1.686181	0.593412	0.572461
	O297	O	1.069030	0.885048	0.913750
	H298	H	1.063202	0.891892	0.920787
	H299	H	1.071994	0.893307	0.911465
	O300	O	-0.493201	-0.677954	-0.531421
	H301	H	-0.498753	-0.692463	-0.513145
	H302	H	-0.508772	-0.664278	-0.517501
	O303	O	0.495329	0.535285	0.408673
	H304	H	0.504852	0.527004	0.414489
	H305	H	0.508645	0.544691	0.404624
	O306	O	0.825553	-0.077183	0.017182
	H307	H	0.813315	-0.066816	0.021754
	H308	H	0.840665	-0.069461	0.012015
	O309	O	0.304345	0.502000	0.302559
	H310	H	0.293586	0.501201	0.297086
	H311	H	0.315397	0.500900	0.294100
	O312	O	0.934393	0.827369	0.093541
	H313	H	0.928854	0.831158	0.082263
	H314	H	0.943007	0.821025	0.109958
	O315	O	0.679268	0.343780	0.336766
	H316	H	0.687384	0.380784	0.337775
	H317	H	0.643943	0.346777	0.329351
	O318	O	0.308452	0.404545	0.423802
	H319	H	0.308885	0.414120	0.402808
	H320	H	0.308428	0.431927	0.422727
	O321	O	0.977371	-0.131426	1.050888
	H322	H	0.964677	-0.126034	1.044118
	H323	H	0.981120	-0.123220	1.057176
	O324	O	0.308220	0.283747	0.513136
	H325	H	0.298085	0.280289	0.507712
	H326	H	0.298555	0.295287	0.500631
	O327	O	1.058326	1.059665	0.872429
	H328	H	1.037721	1.050748	0.867108
	H329	H	1.055404	1.067783	0.856817
	O330	O	0.448469	0.658469	0.301441
	H331	H	0.467803	0.674927	0.287265
	H332	H	0.452718	0.667996	0.335574
	O333	O	0.866184	1.029243	1.098339
	H334	H	0.857107	1.021534	1.114195
	H335	H	0.874453	1.014588	1.088806
	O336	O	0.630296	0.521028	0.571103
	H337	H	0.629914	0.499778	0.594712
	H338	H	0.625088	0.519870	0.575768
	O339	O	1.155384	-0.178232	0.852027
	H340	H	1.153824	-0.176513	0.848961
	H341	H	1.161449	-0.190133	0.850578
	O342	O	-0.058126	0.988729	1.008367
	H343	H	-0.051308	0.977052	1.019826
	H344	H	-0.052833	0.995093	1.014181
	O345	O	-0.556751	1.505913	1.489923
	H346	H	-0.572767	1.510064	1.489637
	H347	H	-0.554786	1.497896	1.508157
	O348	O	0.518802	0.688202	0.678382
	H349	H	0.520702	0.696796	0.680845
	H350	H	0.536721	0.694497	0.681904
	O351	O	0.469751	-0.473197	-0.343184
	H352	H	0.446300	-0.461118	-0.340988
	H353	H	0.476341	-0.492378	-0.349939
	O354	O	0.967552	1.066877	0.185933
	H355	H	0.961667	1.075069	0.187289
	H356	H	0.978776	1.072460	0.193695
	O357	O	-0.128435	0.811083	0.172127
	H358	H	-0.121526	0.812131	0.164848
	H359	H	-0.129986	0.799461	0.162983
	O360	O	0.057043	0.923877	0.873996
	H361	H	0.040141	0.939098	0.864934
	H362	H	0.061307	0.938012	0.877754
	O363	O	0.379172	0.403622	0.682304
	H364	H	0.386345	0.406599	0.680869
	H365	H	0.378374	0.416405	0.682059
	O366	O	0.034272	1.084141	0.098503
	H367	H	0.051237	1.089657	0.105538
	H368	H	0.053573	1.069438	0.090619
	O369	O	0.500602	0.381124	0.384717
	H370	H	0.511350	0.380949	0.374155
	H371	H	0.508881	0.382464	0.376790
	O372	O	0.587294	0.439488	0.608483
	H373	H	0.598928	0.418629	0.599365
	H374	H	0.567084	0.438431	0.603189
	O375	O	0.551860	0.561405	0.523373
	H376	H	0.558218	0.564246	0.504674
	H377	H	0.554040	0.572313	0.547877
	O378	O	0.689963	0.469346	0.311381
	H379	H	0.705115	0.477714	0.315789
	H380	H	0.700504	0.483368	0.322583
	O381	O	0.359240	0.676823	0.408163
	H382	H	0.382474	0.679464	0.416539
	H383	H	0.354643	0.640273	0.405472
	O384	O	0.080134	0.814559	1.056546
	H385	H	0.078999	0.809106	1.059775
	H386	H	0.090361	0.808331	1.049141
	O387	O	0.894583	1.024116	-0.140896
	H388	H	0.892860	1.030439	-0.129557
	H389	H	0.898958	1.025809	-0.132001
	O390	O	0.452306	0.570913	0.451396
	H391	H	0.449994	0.560850	0.462132
	H392	H	0.446275	0.584463	0.451329
	O393	O	0.902439	0.141954	0.807899
	H394	H	0.900372	0.139579	0.813092
	H395	H	0.890083	0.137937	0.799226
	O396	O	0.176955	1.027608	1.149912
	H397	H	0.191115	1.015942	1.164486
	H398	H	0.159728	1.021997	1.162300
	O399	O	0.523480	0.273274	0.665547
	H400	H	0.514238	0.253765	0.670983
	H401	H	0.509649	0.281764	0.654579
	O402	O	1.293943	0.493074	0.606042
	H403	H	1.300582	0.481428	0.602505
	H404	H	1.280785	0.486742	0.625581
	O405	O	0.173978	0.027998	-0.087714
	H406	H	0.189214	0.023223	-0.090496
	H407	H	0.169524	0.037682	-0.092229
	O408	O	0.338880	1.309812	0.670525
	H409	H	0.350174	1.313775	0.663772
	H410	H	0.332210	1.323449	0.644138
	O411	O	1.056358	1.169302	0.024759
	H412	H	1.048225	1.172802	0.036408
	H413	H	1.062121	1.184485	0.017515
	O414	O	-0.479693	-0.719620	1.297333
	H415	H	-0.477501	-0.738730	1.279300
	H416	H	-0.493631	-0.715784	1.309464
	O417	O	0.687174	0.292115	0.479512
	H418	H	0.683063	0.290605	0.460157
	H419	H	0.698944	0.277436	0.465950
	O420	O	-0.025253	1.030865	-0.024382
	H421	H	-0.013126	1.023974	-0.012878
	H422	H	-0.015531	1.024587	-0.023412
	O423	O	0.855343	-0.073250	-0.025354
	H424	H	0.848965	-0.066632	-0.017177
	H425	H	0.859916	-0.063549	-0.021762
	O426	O	-0.128612	0.196587	0.987610
	H427	H	-0.130416	0.201001	0.993226
	H428	H	-0.136447	0.205758	0.981572
	O429	O	0.686634	0.558513	0.674798
	H430	H	0.686141	0.556770	0.682676
	H431	H	0.676692	0.539286	0.684168
