data_Molecule from HDF5

_cell_length_a		16.293854
_cell_length_b		16.271741
_cell_length_c		16.294778
_cell_angle_alpha	90.138822
_cell_angle_beta	89.723026
_cell_angle_gamma	89.937475
_symmetry_space_group_name_H-M	'P 1'
_symmetry_Int_Tables_number		1

loop_
	_symmetry_equiv_pos_as_xyz
	x,y,z

loop_
	_atom_site_label
	_atom_site_type_symbol
	_atom_site_fract_x
	_atom_site_fract_y
	_atom_site_fract_z
	H0	H	0.407283	0.842145	0.719215
	H1	H	0.603795	0.170298	0.717667
	H2	H	0.604566	0.843149	0.287978
	H3	H	0.408885	0.171343	0.292053
	H4	H	0.720943	0.406975	0.840628
	H5	H	0.718956	0.604805	0.167148
	H6	H	0.292734	0.605056	0.839255
	H7	H	0.290165	0.407288	0.166839
	H8	H	0.841894	0.718280	0.407289
	H9	H	0.169568	0.721478	0.601826
	H10	H	0.841535	0.292759	0.602480
	H11	H	0.169224	0.291413	0.404845
	H12	H	0.842290	0.408225	0.718869
	H13	H	0.170186	0.604947	0.717939
	H14	H	0.841797	0.602749	0.291685
	H15	H	0.169177	0.406896	0.288143
	H16	H	0.408344	0.721648	0.839913
	H17	H	0.603025	0.720850	0.167048
	H18	H	0.604596	0.292520	0.840678
	H19	H	0.408015	0.293352	0.168011
	H20	H	0.721446	0.842308	0.403276
	H21	H	0.719531	0.170558	0.600814
	H22	H	0.290897	0.842188	0.603260
	H23	H	0.291355	0.169641	0.406175
	H24	H	0.907349	0.341852	0.217389
	H25	H	0.103476	0.669328	0.218724
	H26	H	0.104792	0.341763	0.789133
	H27	H	0.909700	0.670064	0.791600
	H28	H	0.222126	0.906456	0.339792
	H29	H	0.219844	0.104959	0.667442
	H30	H	0.793937	0.103586	0.339406
	H31	H	0.790915	0.908996	0.666897
	H32	H	0.342094	0.220961	0.906963
	H33	H	0.670441	0.219703	0.099813
	H34	H	0.342962	0.791316	0.103848
	H35	H	0.670104	0.791959	0.904567
	H36	H	0.342508	0.909145	0.218720
	H37	H	0.670504	0.105410	0.216796
	H38	H	0.342808	0.105569	0.789825
	H39	H	0.669918	0.908124	0.788322
	H40	H	0.909652	0.218852	0.339793
	H41	H	0.103735	0.221465	0.667047
	H42	H	0.105062	0.790553	0.339364
	H43	H	0.906465	0.792098	0.667697
	H44	H	0.220899	0.342056	0.905455
	H45	H	0.218021	0.671274	0.100738
	H46	H	0.792478	0.342083	0.101144
	H47	H	0.793135	0.669888	0.906769
	H48	H	0.421420	0.118605	0.595138
	H49	H	0.596707	0.886763	0.608619
	H50	H	0.605131	0.124606	0.410802
	H51	H	0.418731	0.892979	0.415409
	H52	H	0.592107	0.417679	0.117093
	H53	H	0.608173	0.604404	0.882705
	H54	H	0.408201	0.600443	0.120985
	H55	H	0.406914	0.406322	0.883304
	H56	H	0.121749	0.597478	0.412723
	H57	H	0.888013	0.600404	0.604138
	H58	H	0.122681	0.408732	0.594788
	H59	H	0.887949	0.414150	0.405003
	H60	H	0.119904	0.415837	0.592228
	H61	H	0.890137	0.603348	0.595076
	H62	H	0.122619	0.595978	0.409087
	H63	H	0.887264	0.405736	0.409930
	H64	H	0.414039	0.595241	0.117402
	H65	H	0.601844	0.589422	0.889847
	H66	H	0.598628	0.403384	0.124310
	H67	H	0.411247	0.423012	0.889732
	H68	H	0.598889	0.123974	0.406234
	H69	H	0.589338	0.895436	0.588153
	H70	H	0.406806	0.122223	0.590159
	H71	H	0.408062	0.888446	0.412561
	H72	H	0.924225	0.618839	0.094772
	H73	H	0.097931	0.388300	0.099782
	H74	H	0.106517	0.624586	0.909950
	H75	H	0.902223	0.385982	0.910201
	H76	H	0.100717	0.914046	0.619870
	H77	H	0.093473	0.095965	0.390826
	H78	H	0.913964	0.093240	0.617352
	H79	H	0.907645	0.914569	0.385995
	H80	H	0.624434	0.105358	0.907159
	H81	H	0.391380	0.097009	0.094201
	H82	H	0.624505	0.908271	0.097989
	H83	H	0.394801	0.920824	0.921059
	H84	H	0.620826	0.913256	0.089654
	H85	H	0.389723	0.098518	0.104270
	H86	H	0.621690	0.099582	0.913669
	H87	H	0.388726	0.918480	0.901327
	H88	H	0.916158	0.104334	0.620980
	H89	H	0.100844	0.105045	0.385212
	H90	H	0.096625	0.915145	0.617947
	H91	H	0.918634	0.915832	0.389758
	H92	H	0.094437	0.622375	0.904987
	H93	H	0.097013	0.391642	0.093128
	H94	H	0.902483	0.623330	0.089722
	H95	H	0.920365	0.388061	0.900922
	H96	H	0.411142	0.124827	0.605150
	H97	H	0.611071	0.888116	0.590357
	H98	H	0.598732	0.121432	0.413487
	H99	H	0.417294	0.888840	0.404002
	H100	H	0.608895	0.417263	0.122178
	H101	H	0.591474	0.603479	0.888160
	H102	H	0.415240	0.602816	0.119344
	H103	H	0.424238	0.409900	0.889133
	H104	H	0.123056	0.600320	0.408795
	H105	H	0.891559	0.594322	0.597537
	H106	H	0.122556	0.414861	0.599770
	H107	H	0.890540	0.414402	0.414618
	H108	H	0.910099	0.626975	0.110213
	H109	H	0.103078	0.388996	0.094947
	H110	H	0.097115	0.619565	0.917454
	H111	H	0.918127	0.393000	0.920232
	H112	H	0.097327	0.911135	0.619543
	H113	H	0.105431	0.093303	0.386888
	H114	H	0.905286	0.099753	0.622510
	H115	H	0.915153	0.905563	0.385949
	H116	H	0.623183	0.096283	0.905714
	H117	H	0.388535	0.106160	0.097529
	H118	H	0.621850	0.918714	0.099183
	H119	H	0.386980	0.902758	0.914044
	C120	C	0.384073	0.014058	0.625995
	C121	C	0.627322	0.998378	0.624517
	C122	C	0.628837	0.014856	0.381341
	C123	C	0.385480	0.998142	0.382496
	C124	C	0.628247	0.384268	0.012826
	C125	C	0.627994	0.627665	0.995030
	C126	C	0.384551	0.627986	0.011487
	C127	C	0.385105	0.384832	0.995558
	C128	C	0.013936	0.626272	0.382574
	C129	C	0.998076	0.627935	0.626310
	C130	C	0.013779	0.384481	0.625067
	C131	C	0.997097	0.383469	0.381277
	C132	C	0.884528	0.514628	0.125682
	C133	C	0.127334	0.498135	0.124541
	C134	C	0.128159	0.514109	0.882009
	C135	C	0.885407	0.497239	0.882620
	C136	C	0.127760	0.884073	0.511321
	C137	C	0.127964	0.127603	0.495379
	C138	C	0.884415	0.127251	0.512027
	C139	C	0.884328	0.884087	0.495271
	C140	C	0.514709	0.128514	0.881913
	C141	C	0.498238	0.128385	0.125667
	C142	C	0.514343	0.884681	0.125231
	C143	C	0.498269	0.885017	0.882480
	C144	C	0.386480	0.891095	0.681411
	C145	C	0.624551	0.121513	0.679777
	C146	C	0.625747	0.891703	0.325979
	C147	C	0.387851	0.121736	0.328809
	C148	C	0.683091	0.386913	0.889623
	C149	C	0.681791	0.625595	0.118382
	C150	C	0.330442	0.625567	0.888120
	C151	C	0.328877	0.387487	0.118355
	C152	C	0.890727	0.680899	0.386440
	C153	C	0.120906	0.683338	0.622769
	C154	C	0.890724	0.329772	0.622978
	C155	C	0.120347	0.328874	0.383917
	C156	C	0.890904	0.387382	0.680702
	C157	C	0.121262	0.625188	0.680186
	C158	C	0.890596	0.623377	0.328881
	C159	C	0.120304	0.386311	0.326109
	C160	C	0.387895	0.683230	0.888306
	C161	C	0.623918	0.683128	0.118197
	C162	C	0.625164	0.329941	0.889379
	C163	C	0.387358	0.330709	0.118954
	C164	C	0.683454	0.891317	0.383287
	C165	C	0.681945	0.121618	0.621693
	C166	C	0.328769	0.891054	0.623647
	C167	C	0.329814	0.121124	0.385834
	C168	C	0.887010	0.390873	0.179889
	C169	C	0.124175	0.621052	0.180180
	C170	C	0.125412	0.390598	0.826929
	C171	C	0.888579	0.621004	0.828683
	C172	C	0.184099	0.885621	0.388508
	C173	C	0.182241	0.125627	0.618577
	C174	C	0.831251	0.123949	0.388497
	C175	C	0.828916	0.887692	0.618255
	C176	C	0.391294	0.183600	0.885476
	C177	C	0.621680	0.182276	0.121228
	C178	C	0.391665	0.829724	0.123934
	C179	C	0.621163	0.829814	0.884156
	C180	C	0.391577	0.888170	0.181279
	C181	C	0.621656	0.125331	0.179288
	C182	C	0.391470	0.125914	0.827634
	C183	C	0.621032	0.887288	0.826377
	C184	C	0.888559	0.181367	0.388748
	C185	C	0.124368	0.183196	0.618378
	C186	C	0.125854	0.828236	0.388354
	C187	C	0.886270	0.829551	0.618591
	C188	C	0.183408	0.390947	0.884216
	C189	C	0.181239	0.621785	0.121548
	C190	C	0.830064	0.390962	0.121983
	C191	C	0.830744	0.620871	0.885921
	C192	C	0.406485	0.099740	0.603527
	C193	C	0.605509	0.912296	0.602130
	C194	C	0.607215	0.101082	0.403633
	C195	C	0.408130	0.912201	0.404164
	C196	C	0.606265	0.406299	0.099048
	C197	C	0.606865	0.605499	0.909225
	C198	C	0.406257	0.606065	0.097055
	C199	C	0.407539	0.406689	0.909581
	C200	C	0.100248	0.604155	0.403853
	C201	C	0.912130	0.605848	0.605174
	C202	C	0.099634	0.406609	0.602274
	C203	C	0.910899	0.405105	0.403339
	C204	C	0.905952	0.600773	0.104615
	C205	C	0.105574	0.412008	0.102493
	C206	C	0.105834	0.599956	0.904161
	C207	C	0.907102	0.411252	0.904310
	C208	C	0.105121	0.906912	0.596976
	C209	C	0.106491	0.104765	0.409836
	C210	C	0.905573	0.105505	0.598046
	C211	C	0.907129	0.905514	0.409425
	C212	C	0.600701	0.106905	0.902716
	C213	C	0.412098	0.106963	0.104791
	C214	C	0.600402	0.906823	0.102412
	C215	C	0.412331	0.907496	0.905421
	Zn216	Zn	0.506154	0.006274	0.754011
	Zn217	Zn	0.506663	0.007457	0.253721
	Zn218	Zn	0.756367	0.505949	0.004034
	Zn219	Zn	0.256539	0.506382	0.003171
	Zn220	Zn	0.005683	0.755385	0.503322
	Zn221	Zn	0.005399	0.255608	0.503881
	Zn222	Zn	0.006614	0.505645	0.754027
	Zn223	Zn	0.005795	0.505448	0.253588
	Zn224	Zn	0.505947	0.756144	0.003342
	Zn225	Zn	0.506361	0.256344	0.004225
	Zn226	Zn	0.756215	0.006172	0.503242
	Zn227	Zn	0.256381	0.005711	0.503785
	N228	N	0.420070	0.968513	0.682979
	N229	N	0.591101	0.043870	0.681391
	N230	N	0.592731	0.969432	0.324519
	N231	N	0.421964	0.044286	0.326729
	N232	N	0.685003	0.420129	0.967338
	N233	N	0.684093	0.591745	0.041069
	N234	N	0.327982	0.592284	0.965570
	N235	N	0.327468	0.420483	0.040640
	N236	N	0.968581	0.682702	0.418917
	N237	N	0.043340	0.685112	0.589997
	N238	N	0.968168	0.328177	0.588824
	N239	N	0.042789	0.327082	0.417697
	N240	N	0.968439	0.420628	0.682056
	N241	N	0.043760	0.591709	0.682567
	N242	N	0.968287	0.590188	0.326456
	N243	N	0.042642	0.419362	0.324287
	N244	N	0.420762	0.684919	0.965919
	N245	N	0.591120	0.684540	0.040545
	N246	N	0.591593	0.328222	0.966920
	N247	N	0.421650	0.329101	0.041698
	N248	N	0.685675	0.969053	0.417025
	N249	N	0.683606	0.044109	0.587868
	N250	N	0.327234	0.968516	0.589745
	N251	N	0.328113	0.043190	0.418348
	N252	N	0.919971	0.468610	0.182356
	N253	N	0.091503	0.543248	0.182145
	N254	N	0.091994	0.468443	0.825261
	N255	N	0.921852	0.543352	0.826453
	N256	N	0.185265	0.919681	0.465879
	N257	N	0.184455	0.091722	0.541187
	N258	N	0.828561	0.090993	0.466158
	N259	N	0.827610	0.920731	0.540670
	N260	N	0.468836	0.185221	0.918563
	N261	N	0.544048	0.184175	0.088545
	N262	N	0.468941	0.827631	0.089799
	N263	N	0.543873	0.828409	0.918257
	N264	N	0.469195	0.921636	0.182150
	N265	N	0.543806	0.092671	0.182180
	N266	N	0.469131	0.092473	0.825134
	N267	N	0.543438	0.920921	0.825232
	N268	N	0.921127	0.183321	0.466390
	N269	N	0.091536	0.184695	0.540809
	N270	N	0.091660	0.827088	0.465734
	N271	N	0.920138	0.827312	0.540997
	N272	N	0.185224	0.468619	0.917495
	N273	N	0.183477	0.544168	0.087879
	N274	N	0.828391	0.468724	0.088790
	N275	N	0.828678	0.542986	0.918719
	O276	O	0.415815	0.475666	0.529514
	H277	H	0.411398	0.461892	0.529823
	H278	H	0.418754	0.477368	0.538940
	O279	O	0.106499	-0.015483	0.000172
	H280	H	0.117019	-0.014222	0.004540
	H281	H	0.111041	-0.027926	0.004011
	O282	O	0.432478	0.494445	0.509015
	H283	H	0.427879	0.490981	0.505319
	H284	H	0.431345	0.484638	0.516011
	O285	O	0.461793	0.528454	0.492690
	H286	H	0.443554	0.534101	0.491019
	H287	H	0.463238	0.523423	0.492549
	O288	O	1.067502	0.036192	-0.015501
	H289	H	1.075560	0.040474	-0.009523
	H290	H	1.064462	0.031067	-0.006849
	O291	O	-0.576570	0.546956	-0.514494
	H292	H	-0.582004	0.555571	-0.520277
	H293	H	-0.579882	0.554282	-0.511491
	O294	O	0.445419	0.529746	0.522141
	H295	H	0.441391	0.537899	0.525809
	H296	H	0.450620	0.526452	0.527678
	O297	O	0.061098	1.010261	-0.050719
	H298	H	0.060768	1.016057	-0.053422
	H299	H	0.061584	1.018682	-0.049117
	O300	O	1.110155	-0.036284	1.023239
	H301	H	1.112879	-0.039224	1.032324
	H302	H	1.108883	-0.045179	1.015768
	O303	O	0.394352	0.477339	0.489173
	H304	H	0.397437	0.481455	0.486665
	H305	H	0.389371	0.472251	0.486674
	O306	O	0.051703	0.954013	0.972869
	H307	H	0.047262	0.962247	0.973776
	H308	H	0.048073	0.947392	0.958397
	O309	O	0.449308	0.447125	0.437050
	H310	H	0.457107	0.448066	0.440300
	H311	H	0.453824	0.452128	0.439927
