data_Molecule from HDF5

_cell_length_a		16.295014
_cell_length_b		16.328486
_cell_length_c		16.284611
_cell_angle_alpha	89.945174
_cell_angle_beta	89.710487
_cell_angle_gamma	89.307642
_symmetry_space_group_name_H-M	'P 1'
_symmetry_Int_Tables_number		1

loop_
	_symmetry_equiv_pos_as_xyz
	x,y,z

loop_
	_atom_site_label
	_atom_site_type_symbol
	_atom_site_fract_x
	_atom_site_fract_y
	_atom_site_fract_z
	H0	H	0.377987	0.841898	0.709443
	H1	H	0.577762	0.163855	0.706722
	H2	H	0.584795	0.839965	0.273861
	H3	H	0.378468	0.163998	0.274663
	H4	H	0.698596	0.399368	0.829032
	H5	H	0.692066	0.598398	0.153794
	H6	H	0.259150	0.605901	0.831493
	H7	H	0.264042	0.399708	0.154599
	H8	H	0.818199	0.721410	0.391419
	H9	H	0.142037	0.717750	0.594078
	H10	H	0.815951	0.288421	0.594955
	H11	H	0.141649	0.282747	0.391107
	H12	H	0.816531	0.403625	0.710239
	H13	H	0.141211	0.601776	0.710688
	H14	H	0.816827	0.604402	0.277367
	H15	H	0.141826	0.398824	0.274620
	H16	H	0.374831	0.721979	0.830967
	H17	H	0.581567	0.718395	0.152058
	H18	H	0.583085	0.284467	0.828055
	H19	H	0.379201	0.283552	0.152722
	H20	H	0.702852	0.842370	0.386264
	H21	H	0.690935	0.165433	0.588406
	H22	H	0.264534	0.840292	0.593540
	H23	H	0.259188	0.162891	0.387902
	H24	H	0.879799	0.339067	0.210448
	H25	H	0.077031	0.663573	0.208286
	H26	H	0.084400	0.339723	0.774139
	H27	H	0.874585	0.662815	0.775039
	H28	H	0.198247	0.899999	0.329616
	H29	H	0.196432	0.103672	0.652927
	H30	H	0.765291	0.104318	0.327686
	H31	H	0.761748	0.902849	0.653043
	H32	H	0.319028	0.223687	0.886750
	H33	H	0.643452	0.212746	0.087121
	H34	H	0.319229	0.784391	0.097327
	H35	H	0.640996	0.781861	0.888051
	H36	H	0.319816	0.901200	0.211388
	H37	H	0.643162	0.100929	0.205509
	H38	H	0.317516	0.107832	0.771954
	H39	H	0.641024	0.899587	0.772920
	H40	H	0.878280	0.221470	0.330071
	H41	H	0.078179	0.216528	0.654800
	H42	H	0.085262	0.782882	0.330437
	H43	H	0.877781	0.785850	0.653724
	H44	H	0.199289	0.339689	0.891569
	H45	H	0.196975	0.661554	0.098408
	H46	H	0.765785	0.337680	0.092088
	H47	H	0.759328	0.661774	0.890954
	H48	H	0.384744	0.115815	0.573882
	H49	H	0.564407	0.888356	0.583557
	H50	H	0.571617	0.121349	0.387015
	H51	H	0.386052	0.885028	0.396851
	H52	H	0.569521	0.403004	0.107808
	H53	H	0.567509	0.592031	0.875648
	H54	H	0.378173	0.588688	0.109403
	H55	H	0.389859	0.413956	0.877115
	H56	H	0.094150	0.591822	0.405542
	H57	H	0.864731	0.595041	0.582682
	H58	H	0.089558	0.413855	0.572507
	H59	H	0.864794	0.416492	0.399254
	H60	H	0.095141	0.415859	0.593661
	H61	H	0.865039	0.594074	0.583963
	H62	H	0.094700	0.587169	0.398253
	H63	H	0.861296	0.407176	0.398184
	H64	H	0.396363	0.586424	0.102123
	H65	H	0.571024	0.591680	0.874752
	H66	H	0.575660	0.405385	0.108607
	H67	H	0.391347	0.411737	0.876694
	H68	H	0.563035	0.113649	0.401369
	H69	H	0.574336	0.887935	0.572929
	H70	H	0.381347	0.120381	0.585068
	H71	H	0.396408	0.888014	0.397679
	H72	H	0.883053	0.617231	0.086153
	H73	H	0.079761	0.383892	0.081345
	H74	H	0.064212	0.614664	0.900851
	H75	H	0.886611	0.382662	0.896591
	H76	H	0.071979	0.910089	0.607741
	H77	H	0.068254	0.092533	0.376370
	H78	H	0.882984	0.100618	0.609876
	H79	H	0.899556	0.910331	0.378623
	H80	H	0.595448	0.091625	0.894332
	H81	H	0.366754	0.088492	0.081419
	H82	H	0.598331	0.906861	0.085944
	H83	H	0.362889	0.907664	0.903825
	H84	H	0.595469	0.904710	0.076488
	H85	H	0.361468	0.095038	0.088896
	H86	H	0.595050	0.093977	0.899829
	H87	H	0.366778	0.917189	0.904105
	H88	H	0.880848	0.091251	0.607799
	H89	H	0.068875	0.093195	0.376573
	H90	H	0.070530	0.910937	0.606479
	H91	H	0.886903	0.905771	0.373233
	H92	H	0.070036	0.615265	0.905819
	H93	H	0.069203	0.383809	0.091128
	H94	H	0.885889	0.615983	0.085236
	H95	H	0.897819	0.387047	0.900454
	H96	H	0.393025	0.116561	0.583195
	H97	H	0.578127	0.883409	0.586720
	H98	H	0.579551	0.119703	0.402650
	H99	H	0.390185	0.887885	0.406911
	H100	H	0.570917	0.409508	0.105825
	H101	H	0.569681	0.588719	0.876580
	H102	H	0.389871	0.603221	0.109965
	H103	H	0.388718	0.411594	0.875252
	H104	H	0.096870	0.595791	0.398282
	H105	H	0.863663	0.595175	0.583657
	H106	H	0.099039	0.396886	0.582930
	H107	H	0.865559	0.410860	0.407629
	H108	H	0.883263	0.616623	0.083281
	H109	H	0.066616	0.389670	0.078921
	H110	H	0.070371	0.617927	0.898525
	H111	H	0.887793	0.387385	0.909097
	H112	H	0.070199	0.909056	0.607242
	H113	H	0.069030	0.091440	0.377050
	H114	H	0.889511	0.094599	0.606132
	H115	H	0.889408	0.919937	0.377486
	H116	H	0.594437	0.088362	0.899180
	H117	H	0.363769	0.099067	0.078508
	H118	H	0.594096	0.913560	0.079718
	H119	H	0.362614	0.913810	0.896000
	C120	C	0.357126	0.011158	0.612323
	C121	C	0.600002	0.994062	0.610608
	C122	C	0.603054	0.011292	0.367445
	C123	C	0.358956	0.993583	0.369738
	C124	C	0.602310	0.377418	-0.000355
	C125	C	0.599440	0.620748	0.982496
	C126	C	0.356770	0.624183	0.000922
	C127	C	0.359362	0.381033	0.983216
	C128	C	-0.011751	0.623296	0.370845
	C129	C	0.971370	0.624033	0.614022
	C130	C	-0.012650	0.380337	0.614082
	C131	C	0.971001	0.380234	0.371077
	C132	C	0.856224	0.509460	0.114767
	C133	C	0.100612	0.492699	0.114259
	C134	C	0.100854	0.509475	0.870948
	C135	C	0.858466	0.492361	0.871507
	C136	C	0.102162	0.879585	0.500315
	C137	C	0.099113	0.122465	0.483611
	C138	C	0.856004	0.125547	0.500368
	C139	C	0.859941	0.882007	0.483214
	C140	C	0.488013	0.123351	0.867865
	C141	C	0.471636	0.122877	0.111688
	C142	C	0.489222	0.879409	0.112663
	C143	C	0.470717	0.880673	0.869767
	C144	C	0.358437	0.889860	0.670327
	C145	C	0.597650	0.115756	0.667800
	C146	C	0.604300	0.888914	0.311378
	C147	C	0.358602	0.115278	0.312775
	C148	C	0.660123	0.379113	0.877482
	C149	C	0.654779	0.618954	0.104963
	C150	C	0.298302	0.625162	0.879555
	C151	C	0.302535	0.380398	0.105580
	C152	C	0.866450	0.682146	0.371946
	C153	C	0.093416	0.679669	0.613617
	C154	C	0.865073	0.325739	0.614224
	C155	C	0.092956	0.321848	0.371257
	C156	C	0.865301	0.383089	0.671759
	C157	C	0.092983	0.622053	0.671715
	C158	C	0.865691	0.623710	0.315359
	C159	C	0.093056	0.379800	0.313381
	C160	C	0.355915	0.682839	0.879419
	C161	C	0.599379	0.678254	0.104116
	C162	C	0.602309	0.322387	0.876902
	C163	C	0.360193	0.322873	0.104754
	C164	C	0.662591	0.890123	0.367679
	C165	C	0.654206	0.116366	0.609071
	C166	C	0.301950	0.889310	0.612453
	C167	C	0.299338	0.114799	0.369390
	C168	C	0.859164	0.387561	0.171777
	C169	C	0.098006	0.614698	0.170674
	C170	C	0.102911	0.388059	0.813303
	C171	C	0.856428	0.614123	0.814034
	C172	C	0.160117	0.879945	0.378452
	C173	C	0.156809	0.122377	0.605008
	C174	C	0.802119	0.124298	0.377139
	C175	C	0.801329	0.883179	0.604925
	C176	C	0.366964	0.183648	0.867843
	C177	C	0.594413	0.176306	0.108194
	C178	C	0.367748	0.822954	0.115026
	C179	C	0.592566	0.821369	0.869028
	C180	C	0.368077	0.881039	0.172247
	C181	C	0.594229	0.120628	0.167068
	C182	C	0.366266	0.125755	0.810716
	C183	C	0.592637	0.879894	0.811892
	C184	C	0.858242	0.182663	0.378443
	C185	C	0.098306	0.178935	0.605837
	C186	C	0.103521	0.821847	0.378862
	C187	C	0.858608	0.824692	0.605237
	C188	C	0.160168	0.388031	0.871661
	C189	C	0.157557	0.613747	0.115621
	C190	C	0.802455	0.386677	0.112961
	C191	C	0.798876	0.613638	0.871465
	C192	C	0.379642	0.095688	0.587941
	C193	C	0.578399	0.908769	0.587699
	C194	C	0.578397	0.096208	0.390319
	C195	C	0.383794	0.908819	0.393519
	C196	C	0.578976	0.399648	0.085191
	C197	C	0.576279	0.597459	0.897674
	C198	C	0.380991	0.599789	0.085155
	C199	C	0.383116	0.405289	0.898389
	C200	C	0.073034	0.598752	0.393885
	C201	C	0.886720	0.601508	0.590224
	C202	C	0.072538	0.402350	0.590034
	C203	C	0.885859	0.404489	0.394821
	C204	C	0.877626	0.594583	0.091691
	C205	C	0.078289	0.407990	0.090715
	C206	C	0.075502	0.593998	0.894783
	C207	C	0.883376	0.407826	0.895070
	C208	C	0.077815	0.903356	0.585308
	C209	C	0.075618	0.099079	0.398692
	C210	C	0.878013	0.102224	0.585848
	C211	C	0.884741	0.905219	0.398320
	C212	C	0.572902	0.098478	0.891002
	C213	C	0.386349	0.100563	0.089454
	C214	C	0.573875	0.902033	0.088032
	C215	C	0.386249	0.905664	0.894312
	Zn216	Zn	0.478856	0.001955	0.740007
	Zn217	Zn	0.481269	0.002004	0.240713
	Zn218	Zn	0.728731	0.499861	-0.008317
	Zn219	Zn	0.229700	0.501680	-0.006779
	Zn220	Zn	-0.019623	0.752240	0.492016
	Zn221	Zn	-0.021376	0.251794	0.493118
	Zn222	Zn	-0.020637	0.501587	0.742686
	Zn223	Zn	-0.021041	0.501991	0.242310
	Zn224	Zn	0.479778	0.751054	-0.009023
	Zn225	Zn	0.480212	0.250897	-0.009902
	Zn226	Zn	0.729507	0.003206	0.490079
	Zn227	Zn	0.229205	0.001689	0.491375
	N228	N	0.391944	0.966655	0.670622
	N229	N	0.564870	0.038442	0.669008
	N230	N	0.567981	0.965358	0.311097
	N231	N	0.395072	0.038947	0.313016
	N232	N	0.660363	0.412526	0.954943
	N233	N	0.654872	0.583425	0.028377
	N234	N	0.298495	0.589486	0.956081
	N235	N	0.301911	0.415638	0.028992
	N236	N	0.943723	0.682106	0.405701
	N237	N	0.016863	0.680960	0.578519
	N238	N	0.942011	0.323878	0.579160
	N239	N	0.016063	0.322167	0.406329
	N240	N	0.942512	0.416406	0.671757
	N241	N	0.016067	0.588224	0.672114
	N242	N	0.942282	0.587708	0.314572
	N243	N	0.016130	0.415556	0.313283
	N244	N	0.391223	0.682519	0.955837
	N245	N	0.565781	0.679341	0.027019
	N246	N	0.567107	0.321126	0.953766
	N247	N	0.394990	0.323216	0.027484
	N248	N	0.661961	0.967148	0.401642
	N249	N	0.655546	0.039841	0.574041
	N250	N	0.300751	0.965894	0.577226
	N251	N	0.299357	0.037943	0.403911
	N252	N	0.891685	0.464949	0.173250
	N253	N	0.063217	0.538413	0.169988
	N254	N	0.066675	0.464581	0.812741
	N255	N	0.892967	0.537797	0.814018
	N256	N	0.159449	0.915137	0.455045
	N257	N	0.157309	0.087799	0.528084
	N258	N	0.800448	0.089497	0.454080
	N259	N	0.801973	0.918049	0.528016
	N260	N	0.443735	0.182571	0.902392
	N261	N	0.517104	0.178152	0.074706
	N262	N	0.443928	0.821975	0.078621
	N263	N	0.515681	0.821768	0.904283
	N264	N	0.444782	0.915259	0.171187
	N265	N	0.516865	0.087996	0.169490
	N266	N	0.442596	0.088868	0.810664
	N267	N	0.515925	0.915867	0.811998
	N268	N	0.890835	0.183703	0.456096
	N269	N	0.063237	0.179061	0.529182
	N270	N	0.068391	0.821136	0.455850
	N271	N	0.894538	0.824241	0.528711
	N272	N	0.159123	0.464695	0.906643
	N273	N	0.159258	0.536975	0.081049
	N274	N	0.800281	0.463487	0.078308
	N275	N	0.800099	0.536918	0.906652
	O276	O	-0.004499	-0.093906	0.072437
	H277	H	0.005728	-0.105434	0.067619
	H278	H	0.005912	-0.087763	0.076450
	O279	O	0.000099	1.017598	0.041255
	H280	H	0.008144	1.017715	0.048516
	H281	H	0.011679	1.016454	0.037841
	O282	O	1.085734	0.030835	-0.056341
	H283	H	1.084218	0.020966	-0.051628
	H284	H	1.093779	0.035836	-0.042673
	O285	O	0.077396	1.029351	0.047522
	H286	H	0.064839	1.033319	0.050781
	H287	H	0.073628	1.044952	0.053340
	O288	O	0.616863	0.476020	0.396840
	H289	H	0.618654	0.488223	0.392736
	H290	H	0.623853	0.478953	0.394019
	O291	O	0.973778	-0.145314	0.929856
	H292	H	0.968437	-0.134112	0.915488
	H293	H	0.985706	-0.148459	0.926036
	O294	O	1.337940	0.411957	0.658390
	H295	H	1.340675	0.414025	0.652598
	H296	H	1.343115	0.402891	0.660042
	O297	O	0.129539	-0.075913	0.025942
	H298	H	0.120772	-0.079444	0.032950
	H299	H	0.138012	-0.071353	0.031824
	O300	O	0.926210	1.072493	0.958515
	H301	H	0.921141	1.065666	0.956759
	H302	H	0.923609	1.075294	0.978109
	O303	O	-0.195395	0.991586	1.027678
	H304	H	-0.210480	0.990124	1.032035
	H305	H	-0.189318	0.971062	1.019778
	O306	O	0.547019	0.544162	0.466153
	H307	H	0.559020	0.547711	0.457099
	H308	H	0.545933	0.534285	0.476898
	O309	O	0.973976	0.012452	-0.138443
	H310	H	0.973077	0.017095	-0.132296
	H311	H	0.968221	0.007365	-0.149019
	O312	O	-0.112395	0.080389	0.942253
	H313	H	-0.109725	0.074743	0.939140
	H314	H	-0.114274	0.076708	0.941146
	O315	O	0.495258	0.598300	0.503474
	H316	H	0.486287	0.598265	0.494303
	H317	H	0.494347	0.602779	0.509019
	O318	O	0.515629	0.532636	0.612041
	H319	H	0.514639	0.530392	0.611717
	H320	H	0.513162	0.530054	0.615701
	O321	O	0.335638	0.470884	0.508047
	H322	H	0.334820	0.460820	0.517237
	H323	H	0.327186	0.469825	0.507292
	O324	O	0.462414	0.627436	0.324031
	H325	H	0.449849	0.623159	0.333644
	H326	H	0.448915	0.644775	0.312440
	O327	O	-0.054785	1.055690	1.072509
	H328	H	-0.061097	1.051977	1.063925
	H329	H	-0.050764	1.045070	1.061917
	O330	O	0.546413	0.621445	0.501005
	H331	H	0.537971	0.640972	0.499709
	H332	H	0.557001	0.622789	0.491206
	O333	O	0.047493	0.890380	0.921838
	H334	H	0.046059	0.894381	0.907490
	H335	H	0.030702	0.901427	0.911483
	O336	O	1.542269	0.508290	0.611142
	H337	H	1.551931	0.509227	0.601366
	H338	H	1.545363	0.509990	0.604640
	O339	O	0.437560	0.617527	0.470119
	H340	H	0.418014	0.616970	0.464824
	H341	H	0.436209	0.620356	0.467366
	O342	O	0.926997	0.100346	-0.059364
	H343	H	0.929785	0.106484	-0.057913
	H344	H	0.924259	0.089022	-0.059080
	O345	O	0.341827	0.631124	0.440494
	H346	H	0.346262	0.621699	0.445496
	H347	H	0.339246	0.628506	0.461801
	O348	O	1.122646	0.988220	0.934336
	H349	H	1.123732	0.994988	0.910117
	H350	H	1.137419	0.989640	0.937088
	O351	O	1.513646	1.318021	0.470225
	H352	H	1.534033	1.312288	0.475493
	H353	H	1.514056	1.317484	0.460149
	O354	O	0.969768	-0.035078	0.972039
	H355	H	0.980714	-0.024689	0.971823
	H356	H	0.967813	-0.024161	0.965472
	O357	O	0.413575	0.476210	0.448633
	H358	H	0.416635	0.488049	0.444189
	H359	H	0.421395	0.467798	0.437808
	O360	O	-0.006599	0.189653	0.037536
	H361	H	0.001317	0.185689	0.031320
	H362	H	-0.015832	0.198877	0.045255
	O363	O	0.574468	0.435680	0.380069
	H364	H	0.573538	0.428325	0.386387
	H365	H	0.574107	0.447730	0.374704
	O366	O	0.350759	0.456503	0.573218
	H367	H	0.357410	0.439619	0.567807
	H368	H	0.336346	0.457581	0.576370
	O369	O	0.410641	0.461996	0.460491
	H370	H	0.399435	0.451538	0.463088
	H371	H	0.403484	0.466575	0.468253
	O372	O	0.510351	0.518703	0.546790
	H373	H	0.514601	0.535372	0.544455
	H374	H	0.511147	0.511272	0.538613
	O375	O	1.005378	-0.081100	0.907668
	H376	H	0.998854	-0.074132	0.910931
	H377	H	0.997942	-0.090512	0.898558
	O378	O	0.655434	0.422725	0.481840
	H379	H	0.664563	0.410644	0.487856
	H380	H	0.650669	0.429991	0.470174
	O381	O	0.652145	0.279342	0.326804
	H382	H	0.654086	0.267086	0.333939
	H383	H	0.659657	0.280783	0.317445
	O384	O	0.134718	1.125776	0.104338
	H385	H	0.134165	1.130128	0.116417
	H386	H	0.125968	1.133512	0.106527
	O387	O	0.871203	-0.020474	1.030783
	H388	H	0.881644	-0.011464	1.037495
	H389	H	0.874800	-0.021663	1.030462
	O390	O	-0.012658	0.846459	0.073332
	H391	H	0.004047	0.840844	0.067065
	H392	H	-0.001979	0.830511	0.071925
	O393	O	1.576627	1.478686	0.571592
	H394	H	1.567067	1.474337	0.563377
	H395	H	1.571671	1.480190	0.583096
	O396	O	0.412619	0.520537	0.478035
	H397	H	0.421419	0.525040	0.478719
	H398	H	0.421633	0.515921	0.476924
	O399	O	-0.084438	1.115699	0.932594
	H400	H	-0.081296	1.112723	0.930399
	H401	H	-0.087228	1.113065	0.930802
	O402	O	1.004440	0.825779	0.980357
	H403	H	1.033921	0.813786	0.977929
	H404	H	0.990797	0.826779	0.966467
	O405	O	0.321693	0.480352	0.393701
	H406	H	0.322444	0.476879	0.387972
	H407	H	0.325451	0.480806	0.399741
