data_Molecule from HDF5

_cell_length_a		16.634563
_cell_length_b		16.401574
_cell_length_c		16.466935
_cell_angle_alpha	90.013509
_cell_angle_beta	90.120087
_cell_angle_gamma	90.071756
_symmetry_space_group_name_H-M	'P 1'
_symmetry_Int_Tables_number		1

loop_
	_symmetry_equiv_pos_as_xyz
	x,y,z

loop_
	_atom_site_label
	_atom_site_type_symbol
	_atom_site_fract_x
	_atom_site_fract_y
	_atom_site_fract_z
	H0	H	0.396066	0.842742	0.713676
	H1	H	0.609512	0.156370	0.720456
	H2	H	0.600917	0.840684	0.276647
	H3	H	0.394902	0.158949	0.273412
	H4	H	0.721920	0.391281	0.839143
	H5	H	0.722526	0.608470	0.151819
	H6	H	0.274134	0.609239	0.839744
	H7	H	0.275056	0.391956	0.151822
	H8	H	0.842586	0.724024	0.387811
	H9	H	0.154656	0.721983	0.598271
	H10	H	0.843506	0.275149	0.602061
	H11	H	0.153907	0.275384	0.385367
	H12	H	0.843041	0.392389	0.718183
	H13	H	0.153221	0.607004	0.717495
	H14	H	0.843556	0.608401	0.270357
	H15	H	0.153644	0.391530	0.268874
	H16	H	0.394740	0.721632	0.837445
	H17	H	0.602959	0.720994	0.153213
	H18	H	0.601994	0.280432	0.836692
	H19	H	0.393475	0.277927	0.152055
	H20	H	0.721043	0.843011	0.387964
	H21	H	0.724534	0.157447	0.604995
	H22	H	0.276232	0.844589	0.600850
	H23	H	0.275214	0.158001	0.385044
	H24	H	0.892931	0.342303	0.217896
	H25	H	0.102120	0.659852	0.213841
	H26	H	0.103950	0.341686	0.772124
	H27	H	0.894834	0.658102	0.775926
	H28	H	0.220624	0.894947	0.337899
	H29	H	0.224473	0.110911	0.651352
	H30	H	0.774421	0.111788	0.338457
	H31	H	0.777568	0.895809	0.650746
	H32	H	0.343509	0.225473	0.884997
	H33	H	0.654591	0.223934	0.101275
	H34	H	0.342980	0.778205	0.099481
	H35	H	0.655461	0.778593	0.888254
	H36	H	0.344373	0.891044	0.218584
	H37	H	0.653915	0.108604	0.218847
	H38	H	0.344310	0.110215	0.766667
	H39	H	0.655224	0.894724	0.771967
	H40	H	0.895516	0.222644	0.336901
	H41	H	0.106556	0.224519	0.652147
	H42	H	0.100244	0.782320	0.336099
	H43	H	0.895885	0.782156	0.652629
	H44	H	0.222266	0.342424	0.885772
	H45	H	0.220795	0.658583	0.101334
	H46	H	0.775823	0.342202	0.103382
	H47	H	0.776281	0.656143	0.887924
	H48	H	0.411034	0.111650	0.572796
	H49	H	0.587849	0.889501	0.579314
	H50	H	0.590824	0.113238	0.411441
	H51	H	0.406193	0.888913	0.412095
	H52	H	0.585715	0.414545	0.106408
	H53	H	0.580329	0.593926	0.883328
	H54	H	0.416208	0.590966	0.106298
	H55	H	0.412096	0.417921	0.885042
	H56	H	0.109931	0.588706	0.404999
	H57	H	0.885482	0.591861	0.585828
	H58	H	0.110490	0.413106	0.588019
	H59	H	0.892420	0.418249	0.410410
	H60	H	0.109130	0.410204	0.579219
	H61	H	0.885788	0.591016	0.582805
	H62	H	0.110729	0.591943	0.402793
	H63	H	0.887483	0.414162	0.401785
	H64	H	0.405141	0.592527	0.110922
	H65	H	0.597116	0.590922	0.878228
	H66	H	0.587433	0.410133	0.108078
	H67	H	0.412176	0.411263	0.882924
	H68	H	0.589114	0.115176	0.402895
	H69	H	0.589840	0.888092	0.581428
	H70	H	0.407346	0.116024	0.584230
	H71	H	0.405849	0.884510	0.403115
	H72	H	0.909242	0.613395	0.083018
	H73	H	0.084090	0.388543	0.081891
	H74	H	0.085052	0.614362	0.899656
	H75	H	0.904559	0.383628	0.905061
	H76	H	0.095024	0.911067	0.611084
	H77	H	0.091693	0.086024	0.382521
	H78	H	0.912363	0.088368	0.606688
	H79	H	0.907426	0.913807	0.380462
	H80	H	0.608113	0.090157	0.911634
	H81	H	0.386842	0.089883	0.085169
	H82	H	0.610673	0.909575	0.081679
	H83	H	0.389208	0.915612	0.905249
	H84	H	0.609820	0.915175	0.084414
	H85	H	0.388170	0.089362	0.081069
	H86	H	0.607266	0.084160	0.905955
	H87	H	0.386674	0.910774	0.901916
	H88	H	0.909276	0.085034	0.606147
	H89	H	0.084366	0.084614	0.386610
	H90	H	0.087694	0.916642	0.605539
	H91	H	0.910293	0.912853	0.381255
	H92	H	0.081949	0.607708	0.912787
	H93	H	0.088696	0.388218	0.078763
	H94	H	0.909864	0.612336	0.081997
	H95	H	0.913847	0.386332	0.904315
	H96	H	0.419752	0.112095	0.582401
	H97	H	0.586861	0.889059	0.582435
	H98	H	0.582942	0.111523	0.407681
	H99	H	0.413894	0.890152	0.405663
	H100	H	0.589894	0.414690	0.108509
	H101	H	0.588526	0.577702	0.886902
	H102	H	0.408148	0.581808	0.106194
	H103	H	0.406561	0.415498	0.882457
	H104	H	0.110562	0.592166	0.406374
	H105	H	0.886030	0.589005	0.584889
	H106	H	0.106324	0.418786	0.582001
	H107	H	0.888399	0.407987	0.410484
	H108	H	0.908507	0.612827	0.081710
	H109	H	0.088786	0.386050	0.084567
	H110	H	0.095297	0.613236	0.910524
	H111	H	0.909420	0.387322	0.912756
	H112	H	0.085873	0.906818	0.608729
	H113	H	0.085641	0.091856	0.383060
	H114	H	0.913443	0.084628	0.604964
	H115	H	0.907888	0.910693	0.379689
	H116	H	0.610910	0.091336	0.903864
	H117	H	0.388066	0.086029	0.083535
	H118	H	0.611713	0.910751	0.087424
	H119	H	0.388263	0.909657	0.907964
	C120	C	0.379462	0.009527	0.613810
	C121	C	0.621641	0.992345	0.615598
	C122	C	0.620089	0.008953	0.374050
	C123	C	0.376805	0.992209	0.372965
	C124	C	0.619464	0.379584	0.003722
	C125	C	0.620787	0.620992	0.986832
	C126	C	0.377553	0.621871	0.003969
	C127	C	0.377265	0.380087	0.986481
	C128	C	0.007229	0.623346	0.371931
	C129	C	0.989188	0.622727	0.616514
	C130	C	0.006558	0.379044	0.616590
	C131	C	0.991558	0.379691	0.373424
	C132	C	0.877113	0.508230	0.116041
	C133	C	0.119735	0.492207	0.115265
	C134	C	0.120395	0.507927	0.873660
	C135	C	0.877562	0.490454	0.875090
	C136	C	0.120463	0.879658	0.503744
	C137	C	0.121138	0.122317	0.486924
	C138	C	0.878220	0.121518	0.502690
	C139	C	0.877348	0.880234	0.484846
	C140	C	0.506646	0.122687	0.872160
	C141	C	0.490654	0.121806	0.116289
	C142	C	0.507622	0.878793	0.116856
	C143	C	0.490775	0.879008	0.872654
	C144	C	0.377114	0.890397	0.674254
	C145	C	0.626386	0.109689	0.678919
	C146	C	0.620694	0.889008	0.315176
	C147	C	0.375673	0.111372	0.312540
	C148	C	0.680975	0.374529	0.886113
	C149	C	0.681581	0.625134	0.104919
	C150	C	0.315797	0.626309	0.886265
	C151	C	0.315925	0.374870	0.104615
	C152	C	0.889529	0.683392	0.369558
	C153	C	0.107383	0.682327	0.617702
	C154	C	0.890037	0.316405	0.619892
	C155	C	0.107541	0.316776	0.368690
	C156	C	0.889722	0.374788	0.677640
	C157	C	0.106927	0.624965	0.676743
	C158	C	0.890202	0.626086	0.310720
	C159	C	0.107280	0.374607	0.310266
	C160	C	0.375687	0.682085	0.884993
	C161	C	0.622363	0.681556	0.105461
	C162	C	0.621113	0.319365	0.884702
	C163	C	0.374685	0.318169	0.104975
	C164	C	0.680647	0.890240	0.370502
	C165	C	0.683641	0.110007	0.621013
	C166	C	0.317716	0.891268	0.618097
	C167	C	0.316568	0.111011	0.368545
	C168	C	0.874801	0.389728	0.177572
	C169	C	0.120848	0.612012	0.174574
	C170	C	0.122705	0.389195	0.812315
	C171	C	0.875987	0.609965	0.814980
	C172	C	0.179982	0.877229	0.384987
	C173	C	0.183484	0.127545	0.604377
	C174	C	0.816181	0.127543	0.385191
	C175	C	0.817691	0.877572	0.603837
	C176	C	0.390123	0.184754	0.867347
	C177	C	0.607528	0.183539	0.119201
	C178	C	0.390271	0.817965	0.118579
	C179	C	0.608249	0.818366	0.870024
	C180	C	0.390836	0.874535	0.177783
	C181	C	0.607286	0.125909	0.177848
	C182	C	0.390777	0.127522	0.808329
	C183	C	0.608243	0.876336	0.812094
	C184	C	0.876097	0.183068	0.384482
	C185	C	0.124753	0.184156	0.604920
	C186	C	0.120040	0.821426	0.383695
	C187	C	0.876840	0.821533	0.604770
	C188	C	0.181298	0.389612	0.869398
	C189	C	0.180195	0.611015	0.118630
	C190	C	0.816261	0.389592	0.120622
	C191	C	0.816862	0.609037	0.870800
	C192	C	0.405393	0.091864	0.587476
	C193	C	0.595350	0.910119	0.588518
	C194	C	0.594891	0.091825	0.400018
	C195	C	0.401544	0.909490	0.399224
	C196	C	0.594756	0.405587	0.086246
	C197	C	0.595739	0.595000	0.904286
	C198	C	0.402791	0.596006	0.086242
	C199	C	0.402756	0.406992	0.904964
	C200	C	0.089149	0.598184	0.397654
	C201	C	0.907082	0.597694	0.591605
	C202	C	0.087604	0.406070	0.590391
	C203	C	0.910419	0.406022	0.399848
	C204	C	0.902122	0.591125	0.089835
	C205	C	0.094286	0.409366	0.089274
	C206	C	0.094576	0.590305	0.899926
	C207	C	0.902125	0.407512	0.900253
	C208	C	0.096416	0.904377	0.586866
	C209	C	0.094775	0.095250	0.405368
	C210	C	0.904278	0.093915	0.584444
	C211	C	0.901588	0.905215	0.402170
	C212	C	0.587528	0.096134	0.899244
	C213	C	0.408964	0.095755	0.090539
	C214	C	0.589401	0.904585	0.091539
	C215	C	0.409272	0.904791	0.897744
	Zn216	Zn	0.499741	0.001118	0.743089
	Zn217	Zn	0.498803	0.000592	0.246120
	Zn218	Zn	0.748825	0.499481	-0.004848
	Zn219	Zn	0.248578	0.500191	-0.005029
	Zn220	Zn	-0.001673	0.751804	0.494043
	Zn221	Zn	-0.000529	0.249842	0.494971
	Zn222	Zn	-0.001689	0.500185	0.746103
	Zn223	Zn	-0.001144	0.500614	0.243625
	Zn224	Zn	0.499650	0.750120	-0.005106
	Zn225	Zn	0.498283	0.251416	-0.005544
	Zn226	Zn	0.749099	0.001206	0.494295
	Zn227	Zn	0.249176	0.001896	0.494572
	N228	N	0.414635	0.965031	0.671825
	N229	N	0.588142	0.035578	0.675308
	N230	N	0.583922	0.963927	0.317041
	N231	N	0.412132	0.036326	0.314999
	N232	N	0.680128	0.411257	0.961189
	N233	N	0.681148	0.588577	0.029814
	N234	N	0.316769	0.589611	0.961165
	N235	N	0.317306	0.412327	0.030050
	N236	N	0.963358	0.681743	0.406919
	N237	N	0.033163	0.681040	0.580911
	N238	N	0.963780	0.318943	0.582543
	N239	N	0.034563	0.319912	0.407503
	N240	N	0.963307	0.412757	0.675831
	N241	N	0.032537	0.588696	0.676265
	N242	N	0.964370	0.589322	0.312192
	N243	N	0.034166	0.413316	0.313374
	N244	N	0.413339	0.679579	0.959245
	N245	N	0.585293	0.679104	0.030979
	N246	N	0.583650	0.322215	0.958958
	N247	N	0.411902	0.320824	0.030596
	N248	N	0.680532	0.966010	0.406226
	N249	N	0.680600	0.035846	0.582196
	N250	N	0.318951	0.966415	0.581375
	N251	N	0.316976	0.035861	0.405394
	N252	N	0.911693	0.464653	0.174802
	N253	N	0.083985	0.536914	0.172824
	N254	N	0.085583	0.463943	0.814595
	N255	N	0.913107	0.535224	0.817499
	N256	N	0.180439	0.912783	0.460587
	N257	N	0.181194	0.089851	0.529972
	N258	N	0.817475	0.089970	0.459830
	N259	N	0.817864	0.913354	0.528345
	N260	N	0.463099	0.181834	0.906415
	N261	N	0.533700	0.181197	0.081656
	N262	N	0.463978	0.820561	0.081183
	N263	N	0.534388	0.819755	0.907018
	N264	N	0.464792	0.911839	0.176718
	N265	N	0.533577	0.088238	0.176075
	N266	N	0.464488	0.089890	0.810978
	N267	N	0.534226	0.913322	0.813338
	N268	N	0.913714	0.179582	0.458773
	N269	N	0.086699	0.181183	0.530848
	N270	N	0.083893	0.822795	0.458606
	N271	N	0.913018	0.822817	0.529892
	N272	N	0.180034	0.464579	0.906610
	N273	N	0.179662	0.535377	0.082722
	N274	N	0.817556	0.464515	0.083081
	N275	N	0.817671	0.533948	0.907508
	O276	O	0.091266	0.033925	-0.183873
	H277	H	0.088776	0.026409	-0.188048
	H278	H	0.091732	0.038789	-0.185348
	O279	O	0.706103	0.607544	0.456606
	H280	H	0.703723	0.613560	0.491266
	H281	H	0.713778	0.621222	0.464835
	O282	O	1.208268	0.787765	-0.027372
	H283	H	1.206719	0.786185	-0.050929
	H284	H	1.229277	0.775934	-0.038214
	O285	O	0.712496	0.334589	0.524048
	H286	H	0.732703	0.319132	0.528068
	H287	H	0.701791	0.342131	0.500167
	O288	O	-0.614852	0.608157	0.700803
	H289	H	-0.619450	0.591255	0.699920
	H290	H	-0.616995	0.590498	0.691360
	O291	O	1.207583	1.049756	1.112515
	H292	H	1.191708	1.058086	1.089176
	H293	H	1.209726	1.046145	1.086200
	O294	O	0.060957	0.943143	0.159639
	H295	H	0.054588	0.946585	0.155299
	H296	H	0.086126	0.955343	0.158388
	O297	O	0.527531	0.293888	1.287630
	H298	H	0.526226	0.291199	1.270656
	H299	H	0.531026	0.300104	1.280966
	O300	O	0.464442	0.500675	0.425395
	H301	H	0.470508	0.490093	0.430091
	H302	H	0.466292	0.488375	0.430059
	O303	O	0.632482	0.699932	0.557095
	H304	H	0.622513	0.694973	0.542104
	H305	H	0.650981	0.710102	0.579478
	O306	O	-0.010941	0.925840	0.989284
	H307	H	-0.010139	0.938396	0.984551
	H308	H	-0.007699	0.934331	0.979440
	O309	O	0.515766	0.586989	0.447093
	H310	H	0.505270	0.583789	0.449130
	H311	H	0.525185	0.600885	0.436392
	O312	O	0.503911	0.278238	0.474397
	H313	H	0.506787	0.281109	0.455321
	H314	H	0.483377	0.280362	0.466703
	O315	O	-0.159247	-0.026191	1.086211
	H316	H	-0.159272	-0.035691	1.090477
	H317	H	-0.161107	-0.050170	1.101158
	O318	O	0.136712	1.115755	-0.126382
	H319	H	0.141717	1.101315	-0.128081
	H320	H	0.132565	1.123513	-0.120240
	O321	O	0.057354	1.069538	1.050367
	H322	H	0.072596	1.074572	1.042734
	H323	H	0.054016	1.068057	1.048691
	O324	O	0.783068	-0.013471	1.177559
	H325	H	0.786012	-0.031140	1.177841
	H326	H	0.771268	-0.031882	1.190966
	O327	O	1.193844	-0.192321	0.803931
	H328	H	1.192980	-0.202443	0.790258
	H329	H	1.180095	-0.189220	0.793569
	O330	O	1.149336	0.125377	0.143678
	H331	H	1.125904	0.128985	0.142612
	H332	H	1.148095	0.108011	0.157927
	O333	O	0.327093	0.561503	0.281998
	H334	H	0.336423	0.588457	0.293199
	H335	H	0.305566	0.578037	0.252903
	O336	O	1.223222	0.151235	0.976329
	H337	H	1.234699	0.162093	0.992170
	H338	H	1.223186	0.146709	0.987242
	O339	O	0.665857	0.493800	0.697027
	H340	H	0.647135	0.476165	0.703221
	H341	H	0.669310	0.493105	0.702100
	O342	O	0.341311	0.308031	0.463785
	H343	H	0.330258	0.332817	0.440864
	H344	H	0.323530	0.300189	0.458584
	O345	O	-0.147328	-0.114922	-0.075652
	H346	H	-0.152927	-0.123459	-0.094985
	H347	H	-0.153242	-0.109788	-0.082225
	O348	O	0.605783	0.301299	0.512214
	H349	H	0.634780	0.292193	0.500811
	H350	H	0.591162	0.299038	0.498348
	O351	O	0.933046	1.096446	0.103501
	H352	H	0.908084	1.096071	0.099571
	H353	H	0.957359	1.081178	0.105730
	O354	O	0.296237	0.637392	0.325703
	H355	H	0.306379	0.658361	0.332622
	H356	H	0.291608	0.645170	0.341609
	O357	O	1.038268	1.154515	0.818929
	H358	H	1.041363	1.157724	0.823995
	H359	H	1.057030	1.151345	0.820363
	O360	O	0.280000	0.484265	0.711290
	H361	H	0.253775	0.474847	0.739162
	H362	H	0.290443	0.435824	0.698931
	O363	O	0.493708	0.496485	0.276017
	H364	H	0.477188	0.497370	0.270339
	H365	H	0.495980	0.509044	0.281765
	O366	O	0.939255	0.070821	0.866119
	H367	H	0.931975	0.078254	0.869325
	H368	H	0.932539	0.047485	0.880032
	O369	O	0.370228	0.384325	0.510383
	H370	H	0.351975	0.371668	0.499875
	H371	H	0.379983	0.385752	0.490661
	O372	O	0.585581	0.425302	0.616674
	H373	H	0.570154	0.444050	0.622580
	H374	H	0.581624	0.390432	0.607235
	O375	O	-0.662607	1.710615	1.491041
	H376	H	-0.646507	1.711054	1.507200
	H377	H	-0.671190	1.719755	1.496864
	O378	O	0.629455	0.511469	0.274378
	H379	H	0.643991	0.518211	0.262215
	H380	H	0.626299	0.517619	0.290768
	O381	O	1.481221	-0.712203	-0.296678
	H382	H	1.498018	-0.723457	-0.315706
	H383	H	1.484139	-0.740922	-0.293125
	O384	O	-0.012061	-0.200358	1.193894
	H385	H	0.008562	-0.197081	1.181557
	H386	H	-0.000784	-0.200898	1.204924
	O387	O	-0.202312	1.009855	0.790324
	H388	H	-0.189415	1.020553	0.783422
	H389	H	-0.212845	1.036860	0.780014
	O390	O	0.065990	0.152240	0.986072
	H391	H	0.055523	0.166562	1.000627
	H392	H	0.063150	0.143691	0.972937
	O393	O	0.830806	0.785733	0.015650
	H394	H	0.807714	0.764280	0.025655
	H395	H	0.842467	0.799677	0.034278
	O396	O	1.064864	0.962451	-0.107993
	H397	H	1.071704	0.959079	-0.095856
	H398	H	1.061295	0.949501	-0.109408
	O399	O	0.876501	0.952442	0.936049
	H400	H	0.864156	0.949429	0.931669
	H401	H	0.883908	0.945603	0.933456
	O402	O	0.065388	-0.171041	0.792261
	H403	H	0.063646	-0.176236	0.792787
	H404	H	0.049408	-0.191536	0.784757
	O405	O	-0.177202	-0.152105	0.181310
	H406	H	-0.169450	-0.159395	0.179039
	H407	H	-0.158314	-0.145308	0.185232
	O408	O	1.022712	1.194644	1.193546
	H409	H	1.002160	1.195331	1.179922
	H410	H	1.010085	1.200146	1.201544
	O411	O	1.152477	0.784514	0.176808
	H412	H	1.149660	0.796688	0.164656
	H413	H	1.159096	0.785899	0.150343
	O414	O	0.637455	0.648461	0.412093
	H415	H	0.637104	0.647357	0.426991
	H416	H	0.636497	0.646729	0.427989
	O417	O	0.320907	0.328245	0.676690
	H418	H	0.340703	0.315744	0.660729
	H419	H	0.334709	0.314699	0.650787
	O420	O	0.385665	0.697399	0.617189
	H421	H	0.395129	0.682709	0.612611
	H422	H	0.399446	0.681519	0.616497
	O423	O	-0.089335	0.196639	0.791805
	H424	H	-0.087586	0.192653	0.811424
	H425	H	-0.066965	0.214557	0.774621
	O426	O	0.804232	1.142080	0.994908
	H427	H	0.808722	1.136920	1.007736
	H428	H	0.809514	1.144863	1.002335
	O429	O	0.209728	0.020124	0.204313
	H430	H	0.216534	0.021046	0.182941
	H431	H	0.236553	0.027699	0.225394
	O432	O	0.525473	0.551051	0.624492
	H433	H	0.532301	0.557917	0.624444
	H434	H	0.516409	0.544661	0.617757
	O435	O	0.539978	-0.289354	-0.297078
	H436	H	0.537580	-0.295455	-0.282542
	H437	H	0.546076	-0.277138	-0.283799
	O438	O	0.740970	-0.264523	-0.268068
	H439	H	0.736817	-0.266518	-0.264099
	H440	H	0.733505	-0.269894	-0.258445
	O441	O	0.564158	0.510809	0.577230
	H442	H	0.552149	0.500679	0.584021
	H443	H	0.573197	0.496851	0.592541
	O444	O	0.309293	1.425447	0.388732
	H445	H	0.304621	1.441763	0.375385
	H446	H	0.317282	1.443385	0.395727
	O447	O	0.691828	0.307394	0.306260
	H448	H	0.696920	0.332717	0.320939
	H449	H	0.670465	0.327979	0.296480
	O450	O	0.287064	0.549607	0.545367
	H451	H	0.297288	0.540740	0.570543
	H452	H	0.283539	0.560069	0.537926
	O453	O	0.741903	0.367946	0.624892
	H454	H	0.743017	0.366141	0.642623
	H455	H	0.747560	0.336908	0.630728
	O456	O	0.823558	0.195538	0.008176
	H457	H	0.815140	0.200618	0.009036
	H458	H	0.816771	0.180165	0.022930
	O459	O	0.664392	0.474667	0.380906
	H460	H	0.669172	0.496486	0.397388
	H461	H	0.681913	0.466603	0.381767
	O462	O	0.437615	0.701569	0.296946
	H463	H	0.439628	0.685660	0.288519
	H464	H	0.443981	0.713235	0.294258
	O465	O	1.023784	-0.187783	-0.013561
	H466	H	1.017908	-0.183083	-0.002851
	H467	H	1.018549	-0.182995	-0.017409
