data_Molecule from HDF5

_cell_length_a		16.319435
_cell_length_b		16.403559
_cell_length_c		16.323464
_cell_angle_alpha	90.350944
_cell_angle_beta	89.890893
_cell_angle_gamma	89.778046
_symmetry_space_group_name_H-M	'P 1'
_symmetry_Int_Tables_number		1

loop_
	_symmetry_equiv_pos_as_xyz
	x,y,z

loop_
	_atom_site_label
	_atom_site_type_symbol
	_atom_site_fract_x
	_atom_site_fract_y
	_atom_site_fract_z
	H0	H	0.400843	0.815579	0.707748
	H1	H	0.602224	0.137613	0.711333
	H2	H	0.604323	0.818390	0.270332
	H3	H	0.399548	0.139373	0.278757
	H4	H	0.716729	0.374014	0.831331
	H5	H	0.715926	0.580311	0.153262
	H6	H	0.281417	0.578873	0.830400
	H7	H	0.281973	0.380258	0.154441
	H8	H	0.841432	0.697725	0.386284
	H9	H	0.162114	0.692618	0.594608
	H10	H	0.840459	0.255903	0.593788
	H11	H	0.162639	0.256773	0.387175
	H12	H	0.838942	0.372713	0.709423
	H13	H	0.160235	0.577684	0.712022
	H14	H	0.837328	0.576301	0.276172
	H15	H	0.161037	0.371899	0.270409
	H16	H	0.394939	0.696637	0.831374
	H17	H	0.599342	0.695945	0.154058
	H18	H	0.600637	0.258827	0.831496
	H19	H	0.395874	0.261878	0.153961
	H20	H	0.720162	0.816196	0.387029
	H21	H	0.720484	0.136300	0.596444
	H22	H	0.285026	0.814860	0.592197
	H23	H	0.281167	0.136914	0.391456
	H24	H	0.894797	0.315541	0.209006
	H25	H	0.098662	0.636665	0.211602
	H26	H	0.102317	0.316176	0.772713
	H27	H	0.892436	0.635762	0.770427
	H28	H	0.220759	0.872483	0.329608
	H29	H	0.216184	0.075296	0.653879
	H30	H	0.781645	0.079716	0.331720
	H31	H	0.780208	0.869844	0.651458
	H32	H	0.337059	0.194217	0.891539
	H33	H	0.659875	0.199508	0.096051
	H34	H	0.337463	0.760583	0.098406
	H35	H	0.658548	0.754545	0.886704
	H36	H	0.337978	0.880545	0.210042
	H37	H	0.661655	0.083465	0.211743
	H38	H	0.337609	0.077707	0.775427
	H39	H	0.660275	0.871133	0.771701
	H40	H	0.899269	0.192286	0.330618
	H41	H	0.107671	0.196643	0.651115
	H42	H	0.108513	0.753001	0.330366
	H43	H	0.897678	0.755851	0.651640
	H44	H	0.220259	0.318232	0.886530
	H45	H	0.213791	0.638726	0.095206
	H46	H	0.778897	0.316730	0.093366
	H47	H	0.777908	0.636837	0.887958
	H48	H	0.405935	0.092617	0.583431
	H49	H	0.591686	0.863150	0.580942
	H50	H	0.597076	0.093185	0.402562
	H51	H	0.414363	0.861811	0.396712
	H52	H	0.591750	0.390268	0.107358
	H53	H	0.584474	0.563746	0.879783
	H54	H	0.401841	0.572732	0.109347
	H55	H	0.403337	0.379119	0.873305
	H56	H	0.118579	0.563848	0.388848
	H57	H	0.888534	0.567114	0.573545
	H58	H	0.115109	0.379976	0.576783
	H59	H	0.881921	0.389508	0.384978
	H60	H	0.112713	0.391360	0.579633
	H61	H	0.887110	0.560342	0.581615
	H62	H	0.115193	0.573361	0.410472
	H63	H	0.880700	0.365329	0.402976
	H64	H	0.405763	0.565954	0.106571
	H65	H	0.585282	0.570389	0.877068
	H66	H	0.585465	0.390790	0.105814
	H67	H	0.405332	0.394518	0.878631
	H68	H	0.588472	0.090990	0.399878
	H69	H	0.592205	0.862052	0.582545
	H70	H	0.409333	0.091610	0.586535
	H71	H	0.413421	0.864315	0.402392
	H72	H	0.912468	0.587111	0.077229
	H73	H	0.098958	0.361819	0.076319
	H74	H	0.086320	0.591437	0.900878
	H75	H	0.910617	0.364111	0.903288
	H76	H	0.094108	0.889663	0.604442
	H77	H	0.095944	0.068820	0.374079
	H78	H	0.920459	0.065663	0.603549
	H79	H	0.917714	0.884952	0.378791
	H80	H	0.614941	0.073969	0.904087
	H81	H	0.386342	0.072713	0.075833
	H82	H	0.611294	0.888478	0.073321
	H83	H	0.382649	0.883282	0.899558
	H84	H	0.612658	0.892804	0.084198
	H85	H	0.387557	0.061857	0.088579
	H86	H	0.612494	0.064439	0.906144
	H87	H	0.386921	0.888824	0.905415
	H88	H	0.909673	0.071903	0.608612
	H89	H	0.094263	0.060874	0.377346
	H90	H	0.086985	0.881161	0.604671
	H91	H	0.910717	0.882451	0.375822
	H92	H	0.087784	0.590456	0.903153
	H93	H	0.087196	0.360669	0.089147
	H94	H	0.899178	0.592377	0.081674
	H95	H	0.903786	0.361758	0.901603
	H96	H	0.409765	0.089951	0.582072
	H97	H	0.589664	0.863383	0.581462
	H98	H	0.591304	0.090115	0.408112
	H99	H	0.407872	0.862173	0.399406
	H100	H	0.587566	0.385451	0.107554
	H101	H	0.591348	0.565560	0.877511
	H102	H	0.410056	0.573008	0.107748
	H103	H	0.417245	0.383604	0.880303
	H104	H	0.109233	0.550724	0.406060
	H105	H	0.883296	0.570650	0.582784
	H106	H	0.117257	0.384521	0.587583
	H107	H	0.893053	0.391240	0.413165
	H108	H	0.910516	0.592462	0.091347
	H109	H	0.082721	0.367217	0.073875
	H110	H	0.089061	0.591847	0.901025
	H111	H	0.909505	0.362036	0.896160
	H112	H	0.097243	0.879775	0.608186
	H113	H	0.088601	0.066434	0.377339
	H114	H	0.909057	0.058814	0.605030
	H115	H	0.911913	0.890091	0.379069
	H116	H	0.615283	0.066630	0.896826
	H117	H	0.381038	0.076843	0.090854
	H118	H	0.615419	0.881347	0.081474
	H119	H	0.384772	0.891721	0.897482
	C120	C	0.378898	-0.014959	0.613435
	C121	C	0.622669	0.968110	0.613833
	C122	C	0.623632	-0.014022	0.370636
	C123	C	0.380358	0.968893	0.370690
	C124	C	0.619589	0.356685	0.000968
	C125	C	0.618651	0.598419	0.984003
	C126	C	0.375785	0.600572	0.000993
	C127	C	0.377152	0.356582	0.983952
	C128	C	0.008531	0.595364	0.370478
	C129	C	0.992118	0.596806	0.612197
	C130	C	0.009059	0.353872	0.612091
	C131	C	0.991844	0.351912	0.368286
	C132	C	0.876335	0.484671	0.113527
	C133	C	0.119781	0.468659	0.112479
	C134	C	0.120139	0.485363	0.869951
	C135	C	0.876337	0.468529	0.869648
	C136	C	0.124263	0.852631	0.499252
	C137	C	0.123105	0.096526	0.482741
	C138	C	0.881104	0.096322	0.499857
	C139	C	0.881081	0.854101	0.483492
	C140	C	0.507417	0.098229	0.871683
	C141	C	0.491338	0.101505	0.115245
	C142	C	0.506965	0.858044	0.112422
	C143	C	0.490646	0.855757	0.869734
	C144	C	0.380550	0.863712	0.669955
	C145	C	0.622330	0.089243	0.672294
	C146	C	0.624080	0.865810	0.310311
	C147	C	0.380200	0.090714	0.316074
	C148	C	0.677657	0.355400	0.879589
	C149	C	0.676818	0.599230	0.105190
	C150	C	0.319113	0.599357	0.879316
	C151	C	0.319951	0.359089	0.105807
	C152	C	0.888618	0.656701	0.368357
	C153	C	0.113672	0.653933	0.613608
	C154	C	0.888299	0.295450	0.612641
	C155	C	0.113771	0.295351	0.367975
	C156	C	0.887361	0.353822	0.669999
	C157	C	0.112516	0.597038	0.672262
	C158	C	0.886515	0.596089	0.313899
	C159	C	0.112811	0.352677	0.309659
	C160	C	0.375659	0.657876	0.879617
	C161	C	0.618894	0.656887	0.105511
	C162	C	0.620208	0.297894	0.879835
	C163	C	0.376660	0.300273	0.105582
	C164	C	0.681450	0.864815	0.368508
	C165	C	0.681063	0.088528	0.615170
	C166	C	0.323168	0.863331	0.612139
	C167	C	0.321137	0.089302	0.372224
	C168	C	0.875578	0.364154	0.170650
	C169	C	0.118897	0.589026	0.172247
	C170	C	0.121412	0.364609	0.811487
	C171	C	0.874291	0.588187	0.810338
	C172	C	0.182110	0.852765	0.377888
	C173	C	0.179273	0.095861	0.604907
	C174	C	0.821392	0.097672	0.379752
	C175	C	0.820743	0.852215	0.603625
	C176	C	0.385661	0.155293	0.872095
	C177	C	0.612169	0.160157	0.115284
	C178	C	0.385955	0.800462	0.115497
	C179	C	0.610670	0.794748	0.868134
	C180	C	0.386090	0.860199	0.171380
	C181	C	0.612975	0.102181	0.172701
	C182	C	0.385979	0.097432	0.814109
	C183	C	0.611610	0.852938	0.810785
	C184	C	0.879920	0.153828	0.378813
	C185	C	0.124901	0.156105	0.603437
	C186	C	0.126350	0.793214	0.378423
	C187	C	0.878978	0.795113	0.603574
	C188	C	0.179935	0.365680	0.868433
	C189	C	0.176161	0.589889	0.114213
	C190	C	0.817754	0.364738	0.113114
	C191	C	0.817355	0.588728	0.869156
	C192	C	0.401651	0.069368	0.590698
	C193	C	0.598271	0.884504	0.588918
	C194	C	0.599481	0.069601	0.396023
	C195	C	0.404851	0.884655	0.393048
	C196	C	0.595304	0.381540	0.085064
	C197	C	0.594241	0.573696	0.899990
	C198	C	0.399153	0.577576	0.085712
	C199	C	0.401444	0.379019	0.899371
	C200	C	0.092524	0.569968	0.394779
	C201	C	0.908304	0.573025	0.586680
	C202	C	0.093046	0.378264	0.588255
	C203	C	0.907086	0.375317	0.393151
	C204	C	0.900360	0.568821	0.090089
	C205	C	0.096224	0.384896	0.087142
	C206	C	0.094923	0.569415	0.894511
	C207	C	0.901000	0.384319	0.893539
	C208	C	0.099857	0.876544	0.583737
	C209	C	0.099627	0.072361	0.398265
	C210	C	0.906072	0.072428	0.583908
	C211	C	0.906152	0.878716	0.399702
	C212	C	0.592204	0.075059	0.895383
	C213	C	0.407009	0.077525	0.091923
	C214	C	0.591269	0.880967	0.087078
	C215	C	0.406446	0.880880	0.893926
	Zn216	Zn	0.500133	-0.022803	0.741972
	Zn217	Zn	0.501294	-0.021113	0.242178
	Zn218	Zn	0.748019	0.477527	-0.008320
	Zn219	Zn	0.248590	0.478286	-0.008156
	Zn220	Zn	0.002220	0.724923	0.490937
	Zn221	Zn	0.001793	0.224259	0.491282
	Zn222	Zn	-0.001480	0.476007	0.741102
	Zn223	Zn	-0.001561	0.475261	0.241248
	Zn224	Zn	0.497757	0.728157	-0.007711
	Zn225	Zn	0.499005	0.228249	-0.007348
	Zn226	Zn	0.752055	-0.024002	0.492269
	Zn227	Zn	0.251337	-0.024625	0.491732
	N228	N	0.414572	0.940272	0.670819
	N229	N	0.586979	0.013323	0.671689
	N230	N	0.588997	0.942111	0.311132
	N231	N	0.416335	0.014901	0.315024
	N232	N	0.677680	0.391087	0.955933
	N233	N	0.676834	0.563693	0.028692
	N234	N	0.318971	0.564745	0.955849
	N235	N	0.320236	0.393299	0.029171
	N236	N	0.965380	0.656395	0.402936
	N237	N	0.037745	0.654048	0.577115
	N238	N	0.964746	0.295385	0.577334
	N239	N	0.037317	0.294444	0.403590
	N240	N	0.963351	0.389434	0.669901
	N241	N	0.035867	0.562460	0.671571
	N242	N	0.962139	0.558817	0.315000
	N243	N	0.035737	0.386933	0.309690
	N244	N	0.409836	0.659036	0.956522
	N245	N	0.583595	0.656688	0.029055
	N246	N	0.584826	0.298645	0.956311
	N247	N	0.411590	0.298644	0.028883
	N248	N	0.681462	0.940600	0.405063
	N249	N	0.681340	0.012296	0.579628
	N250	N	0.321924	0.939619	0.577813
	N251	N	0.321013	0.012500	0.405424
	N252	N	0.911278	0.439728	0.170953
	N253	N	0.084637	0.512684	0.171327
	N254	N	0.084796	0.440302	0.812315
	N255	N	0.910230	0.512246	0.810470
	N256	N	0.180841	0.889024	0.453954
	N257	N	0.178283	0.059385	0.528944
	N258	N	0.822177	0.062555	0.456090
	N259	N	0.821940	0.888370	0.527849
	N260	N	0.462296	0.155980	0.907255
	N261	N	0.535540	0.159993	0.080598
	N262	N	0.461930	0.799439	0.079061
	N263	N	0.534464	0.796411	0.904240
	N264	N	0.462587	0.895289	0.169579
	N265	N	0.536786	0.066505	0.172954
	N266	N	0.462632	0.062543	0.813882
	N267	N	0.535971	0.890065	0.811655
	N268	N	0.916371	0.153211	0.454516
	N269	N	0.091086	0.156936	0.526253
	N270	N	0.091198	0.792896	0.455001
	N271	N	0.916141	0.796428	0.527972
	N272	N	0.179250	0.441924	0.903882
	N273	N	0.176937	0.514006	0.077746
	N274	N	0.817969	0.440930	0.078426
	N275	N	0.818456	0.513134	0.905139
	O276	O	0.426683	0.482962	0.550469
	H277	H	0.434213	0.471548	0.555126
	H278	H	0.420864	0.499995	0.541029
	O279	O	0.546069	0.605246	0.486479
	H280	H	0.552134	0.592018	0.468874
	H281	H	0.550103	0.611943	0.478867
	O282	O	0.837501	-0.004940	0.900914
	H283	H	0.834589	-0.002323	0.917603
	H284	H	0.823521	0.007280	0.900318
	O285	O	0.407293	0.403966	0.640963
	H286	H	0.417839	0.412378	0.652825
	H287	H	0.407931	0.420203	0.643051
	O288	O	0.526691	1.514211	1.434706
	H289	H	0.525947	1.514439	1.429332
	H290	H	0.521944	1.500871	1.430557
	O291	O	-0.066095	1.047122	0.103916
	H292	H	-0.058760	1.051386	0.111559
	H293	H	-0.043025	1.057278	0.105377
	O294	O	0.499379	0.410944	0.432750
	H295	H	0.509876	0.387498	0.429624
	H296	H	0.512595	0.406094	0.432432
	O297	O	0.428959	0.473595	0.601773
	H298	H	0.431503	0.472365	0.602295
	H299	H	0.422125	0.466854	0.601843
	O300	O	0.619505	0.586451	0.619517
	H301	H	0.629432	0.594919	0.622559
	H302	H	0.617538	0.610337	0.623482
	O303	O	0.621712	0.613501	0.602595
	H304	H	0.622091	0.627514	0.595857
	H305	H	0.626656	0.620791	0.589201
	O306	O	0.453591	0.433137	0.480472
	H307	H	0.441524	0.430519	0.475287
	H308	H	0.466101	0.434219	0.476621
	O309	O	0.829195	0.633278	0.294572
	H310	H	0.835380	0.626190	0.285824
	H311	H	0.833533	0.622120	0.297076
	O312	O	0.084730	-0.206797	-0.198518
	H313	H	0.070770	-0.196068	-0.203339
	H314	H	0.058154	-0.203627	-0.200967
	O315	O	0.582402	0.515976	0.523472
	H316	H	0.579844	0.508740	0.520696
	H317	H	0.568364	0.513238	0.518136
	O318	O	-0.044859	0.939052	1.107882
	H319	H	-0.044819	0.937767	1.111999
	H320	H	-0.060813	0.947228	1.106827
	O321	O	0.449887	0.382758	0.540590
	H322	H	0.450626	0.381140	0.551553
	H323	H	0.449053	0.386251	0.551851
	O324	O	0.210911	0.765023	-0.038384
	H325	H	0.227893	0.748739	-0.055115
	H326	H	0.216097	0.761921	-0.064995
	O327	O	0.499936	0.471169	0.381041
	H328	H	0.491661	0.478813	0.386370
	H329	H	0.497560	0.475757	0.379537
	O330	O	0.120344	0.139579	1.091063
	H331	H	0.121847	0.127089	1.080529
	H332	H	0.127077	0.154983	1.092340
	O333	O	0.106663	-0.031158	0.870123
	H334	H	0.121072	-0.044049	0.865453
	H335	H	0.092413	-0.043757	0.878498
	O336	O	0.048998	0.964639	0.822838
	H337	H	0.048248	0.958752	0.827239
	H338	H	0.032000	0.973176	0.818804
	O339	O	0.965343	0.099988	-0.038197
	H340	H	0.970045	0.105688	-0.058547
	H341	H	0.968303	0.093830	-0.044206
	O342	O	-0.005760	0.057257	0.151941
	H343	H	-0.002390	0.047816	0.147081
	H344	H	-0.005617	0.052107	0.164625
	O345	O	0.997939	-0.017947	1.128847
	H346	H	1.003067	-0.003787	1.121427
	H347	H	0.987951	-0.024593	1.130006
	O348	O	0.487665	1.620447	0.578253
	H349	H	0.495048	1.619590	0.584670
	H350	H	0.478627	1.625118	0.578832
	O351	O	0.397047	0.352117	0.580863
	H352	H	0.402369	0.354422	0.579433
	H353	H	0.391489	0.368007	0.587696
	O354	O	1.035410	0.091962	1.063836
	H355	H	1.036706	0.091859	1.056347
	H356	H	1.032852	0.105225	1.091265
	O357	O	0.457907	0.488043	0.497612
	H358	H	0.457717	0.467856	0.494749
	H359	H	0.455014	0.494044	0.493896
	O360	O	0.519617	0.580609	0.422141
	H361	H	0.517651	0.583288	0.418682
	H362	H	0.521772	0.578337	0.423133
	O363	O	-0.157907	0.880517	1.118075
	H364	H	-0.160020	0.898676	1.117055
	H365	H	-0.172031	0.867454	1.120477
	O366	O	0.633318	0.382809	0.463987
	H367	H	0.642297	0.389768	0.460787
	H368	H	0.632045	0.366205	0.462438
	O369	O	-0.040089	1.125669	-0.180175
	H370	H	-0.041316	1.124624	-0.184436
	H371	H	-0.029964	1.134260	-0.167541
	O372	O	0.403316	0.348733	0.445945
	H373	H	0.396160	0.333284	0.447227
	H374	H	0.387801	0.359556	0.461577
	O375	O	0.558398	0.499590	0.479231
	H376	H	0.565101	0.513917	0.468701
	H377	H	0.556868	0.492540	0.501159
	O378	O	0.815925	1.158294	-0.135275
	H379	H	0.849339	1.171513	-0.135310
	H380	H	0.812112	1.147508	-0.113485
	O381	O	1.146649	-0.042622	0.072436
	H382	H	1.149370	-0.061843	0.069646
	H383	H	1.148073	-0.060828	0.077179
	O384	O	0.832679	0.899811	0.060891
	H385	H	0.815592	0.894856	0.047984
	H386	H	0.867086	0.891961	0.068287
	O387	O	-0.046170	0.166570	0.107553
	H388	H	-0.040315	0.168594	0.116395
	H389	H	-0.030692	0.160968	0.111465
	O390	O	0.197085	0.855481	-0.119674
	H391	H	0.179160	0.848801	-0.117171
	H392	H	0.200322	0.858572	-0.114207
	O393	O	0.933008	0.829021	0.862112
	H394	H	0.934790	0.843658	0.873874
	H395	H	0.911976	0.822460	0.882786
	O396	O	0.977436	0.781931	1.091864
	H397	H	0.983256	0.779275	1.084217
	H398	H	0.977089	0.783971	1.080183
	O399	O	-0.169667	1.099197	0.782224
	H400	H	-0.188183	1.112317	0.756326
	H401	H	-0.162095	1.122560	0.803752
	O402	O	0.461551	0.497237	0.436652
	H403	H	0.471433	0.496251	0.450468
	H404	H	0.452718	0.499552	0.436287
	O405	O	1.103483	0.923361	0.098909
	H406	H	1.096855	0.934833	0.095397
	H407	H	1.097495	0.921618	0.094425
	O408	O	0.928965	0.873053	-0.052103
	H409	H	0.907163	0.887926	-0.042647
	H410	H	0.931854	0.881345	-0.069194
	O411	O	0.899608	-0.027751	0.862633
	H412	H	0.903523	-0.012318	0.877778
	H413	H	0.888543	-0.017450	0.852212
	O414	O	0.528683	0.353057	0.410874
	H415	H	0.527955	0.355596	0.412740
	H416	H	0.505451	0.345899	0.401556
	O417	O	1.136440	1.070685	0.937774
	H418	H	1.128402	1.057708	0.949244
	H419	H	1.145736	1.053747	0.939041
