data_Molecule from HDF5

_cell_length_a		16.438112
_cell_length_b		16.237604
_cell_length_c		16.246781
_cell_angle_alpha	89.622658
_cell_angle_beta	90.173415
_cell_angle_gamma	89.874862
_symmetry_space_group_name_H-M	'P 1'
_symmetry_Int_Tables_number		1

loop_
	_symmetry_equiv_pos_as_xyz
	x,y,z

loop_
	_atom_site_label
	_atom_site_type_symbol
	_atom_site_fract_x
	_atom_site_fract_y
	_atom_site_fract_z
	H0	H	0.383967	0.835717	0.709135
	H1	H	0.580987	0.163181	0.708256
	H2	H	0.581139	0.835288	0.280289
	H3	H	0.382357	0.163213	0.277194
	H4	H	0.699964	0.396346	0.832673
	H5	H	0.698618	0.603054	0.154883
	H6	H	0.259254	0.605640	0.833395
	H7	H	0.263195	0.395705	0.157152
	H8	H	0.820345	0.718253	0.394030
	H9	H	0.144005	0.714856	0.595186
	H10	H	0.821019	0.279350	0.598461
	H11	H	0.143340	0.283411	0.396460
	H12	H	0.820397	0.397808	0.713775
	H13	H	0.142931	0.599288	0.713163
	H14	H	0.819514	0.603648	0.276650
	H15	H	0.142470	0.400611	0.279533
	H16	H	0.379351	0.715242	0.830414
	H17	H	0.578982	0.713661	0.156886
	H18	H	0.580342	0.285314	0.830375
	H19	H	0.380356	0.280016	0.156326
	H20	H	0.699029	0.836377	0.394462
	H21	H	0.700714	0.160705	0.597728
	H22	H	0.266477	0.836138	0.596041
	H23	H	0.262582	0.161525	0.388965
	H24	H	0.878051	0.338140	0.214792
	H25	H	0.079451	0.663449	0.209153
	H26	H	0.082496	0.337133	0.781761
	H27	H	0.882228	0.662757	0.778023
	H28	H	0.198684	0.896564	0.333016
	H29	H	0.202489	0.102423	0.655314
	H30	H	0.760328	0.105623	0.334062
	H31	H	0.763361	0.891706	0.656857
	H32	H	0.320018	0.218635	0.890374
	H33	H	0.641825	0.217648	0.095505
	H34	H	0.318820	0.782375	0.093496
	H35	H	0.641340	0.781431	0.893128
	H36	H	0.319566	0.896927	0.212066
	H37	H	0.641102	0.103937	0.214563
	H38	H	0.319110	0.101517	0.775212
	H39	H	0.642423	0.899146	0.778122
	H40	H	0.880103	0.217806	0.332532
	H41	H	0.083313	0.213381	0.658036
	H42	H	0.081398	0.783622	0.332088
	H43	H	0.884163	0.782508	0.658292
	H44	H	0.200578	0.339133	0.892500
	H45	H	0.199232	0.661400	0.098387
	H46	H	0.760793	0.339000	0.100292
	H47	H	0.762053	0.661956	0.888833
	H48	H	0.392525	0.116164	0.588801
	H49	H	0.576730	0.878770	0.598166
	H50	H	0.569749	0.115484	0.397820
	H51	H	0.392506	0.886843	0.410852
	H52	H	0.572066	0.411853	0.108608
	H53	H	0.569404	0.586497	0.878797
	H54	H	0.392196	0.592865	0.109763
	H55	H	0.386067	0.416941	0.880415
	H56	H	0.091448	0.587387	0.411260
	H57	H	0.867838	0.588821	0.588267
	H58	H	0.098613	0.399025	0.591817
	H59	H	0.864828	0.408076	0.400509
	H60	H	0.093107	0.406980	0.580057
	H61	H	0.866400	0.594201	0.587391
	H62	H	0.096946	0.585362	0.394301
	H63	H	0.867426	0.405783	0.409343
	H64	H	0.384966	0.590837	0.111838
	H65	H	0.568716	0.594640	0.877527
	H66	H	0.568670	0.407695	0.108199
	H67	H	0.393535	0.410594	0.881070
	H68	H	0.566886	0.110756	0.409627
	H69	H	0.560761	0.888231	0.584096
	H70	H	0.394066	0.112237	0.578068
	H71	H	0.381012	0.881141	0.403867
	H72	H	0.889809	0.614037	0.083181
	H73	H	0.069257	0.388020	0.078713
	H74	H	0.067717	0.612218	0.911495
	H75	H	0.889011	0.387137	0.916302
	H76	H	0.075860	0.907116	0.611551
	H77	H	0.070521	0.090023	0.380024
	H78	H	0.884704	0.089482	0.612976
	H79	H	0.898736	0.907953	0.381149
	H80	H	0.592888	0.090581	0.907435
	H81	H	0.368282	0.090457	0.078965
	H82	H	0.593848	0.909082	0.087618
	H83	H	0.363612	0.901799	0.898879
	H84	H	0.595740	0.904775	0.088107
	H85	H	0.369358	0.084820	0.083848
	H86	H	0.595030	0.086816	0.895215
	H87	H	0.368164	0.909365	0.907291
	H88	H	0.890794	0.081114	0.607634
	H89	H	0.072930	0.092021	0.378449
	H90	H	0.074608	0.907123	0.610482
	H91	H	0.883615	0.903778	0.375711
	H92	H	0.077987	0.618179	0.904830
	H93	H	0.080120	0.381355	0.087118
	H94	H	0.885998	0.616029	0.082816
	H95	H	0.878941	0.380230	0.903209
	H96	H	0.382975	0.116731	0.581102
	H97	H	0.581704	0.883825	0.576189
	H98	H	0.578645	0.116044	0.407466
	H99	H	0.393543	0.882928	0.396730
	H100	H	0.573208	0.406854	0.109449
	H101	H	0.576102	0.590595	0.876103
	H102	H	0.389045	0.585560	0.107782
	H103	H	0.384508	0.407341	0.876509
	H104	H	0.099179	0.601446	0.402483
	H105	H	0.869210	0.590970	0.583514
	H106	H	0.095229	0.413279	0.592844
	H107	H	0.869121	0.414550	0.406494
	H108	H	0.888586	0.616016	0.086410
	H109	H	0.066117	0.383859	0.093040
	H110	H	0.066412	0.616925	0.898676
	H111	H	0.896197	0.384540	0.899804
	H112	H	0.075032	0.905607	0.612083
	H113	H	0.072852	0.088981	0.379187
	H114	H	0.895744	0.091093	0.610061
	H115	H	0.886778	0.919344	0.381650
	H116	H	0.597419	0.099235	0.898779
	H117	H	0.367004	0.091498	0.086127
	H118	H	0.594053	0.906250	0.083738
	H119	H	0.366198	0.913177	0.895682
	C120	C	0.360529	0.007656	0.614189
	C121	C	0.603057	0.990784	0.616099
	C122	C	0.602329	0.006956	0.374368
	C123	C	0.359236	0.991061	0.372309
	C124	C	0.601503	0.378989	0.002048
	C125	C	0.601342	0.620652	0.984582
	C126	C	0.358201	0.621184	0.002720
	C127	C	0.358376	0.379051	0.986116
	C128	C	-0.010583	0.622489	0.372661
	C129	C	0.974526	0.620385	0.616265
	C130	C	-0.010347	0.376133	0.618598
	C131	C	0.973154	0.378834	0.374866
	C132	C	0.857979	0.508641	0.116339
	C133	C	0.101604	0.491604	0.116163
	C134	C	0.101791	0.508628	0.874899
	C135	C	0.858709	0.491282	0.873775
	C136	C	0.103911	0.877570	0.503613
	C137	C	0.102924	0.119982	0.486337
	C138	C	0.859742	0.119604	0.503210
	C139	C	0.860342	0.878040	0.486764
	C140	C	0.488839	0.122565	0.869953
	C141	C	0.473475	0.120642	0.114747
	C142	C	0.488434	0.876674	0.115968
	C143	C	0.472197	0.877921	0.871517
	C144	C	0.362977	0.884679	0.671162
	C145	C	0.601706	0.113887	0.671407
	C146	C	0.601341	0.884352	0.318088
	C147	C	0.361389	0.114001	0.315012
	C148	C	0.659753	0.378453	0.880600
	C149	C	0.658901	0.621111	0.106692
	C150	C	0.299184	0.623100	0.881373
	C151	C	0.301578	0.376880	0.108277
	C152	C	0.868363	0.679837	0.373774
	C153	C	0.095528	0.676692	0.615307
	C154	C	0.868924	0.318520	0.618105
	C155	C	0.094624	0.321848	0.376265
	C156	C	0.868725	0.377174	0.675552
	C157	C	0.095089	0.619000	0.673894
	C158	C	0.867982	0.622485	0.315597
	C159	C	0.094364	0.380176	0.318037
	C160	C	0.358939	0.678024	0.880044
	C161	C	0.599483	0.676322	0.107580
	C162	C	0.600231	0.323092	0.879269
	C163	C	0.360004	0.319319	0.107817
	C164	C	0.660020	0.884865	0.374784
	C165	C	0.661246	0.112629	0.616557
	C166	C	0.304668	0.884931	0.614643
	C167	C	0.301676	0.113016	0.370441
	C168	C	0.858421	0.386667	0.175474
	C169	C	0.099819	0.614404	0.171789
	C170	C	0.101950	0.386181	0.819118
	C171	C	0.860735	0.613653	0.815531
	C172	C	0.160148	0.877856	0.381474
	C173	C	0.162122	0.120192	0.607589
	C174	C	0.800469	0.122937	0.382200
	C175	C	0.802830	0.874903	0.608482
	C176	C	0.368042	0.179888	0.870688
	C177	C	0.593620	0.179178	0.115465
	C178	C	0.367233	0.820517	0.114061
	C179	C	0.593267	0.820583	0.873619
	C180	C	0.367656	0.877577	0.173263
	C181	C	0.593315	0.122194	0.174529
	C182	C	0.367544	0.121278	0.813486
	C183	C	0.593911	0.879013	0.816034
	C184	C	0.860246	0.178629	0.381287
	C185	C	0.102912	0.175822	0.608993
	C186	C	0.101905	0.821453	0.381036
	C187	C	0.862825	0.820285	0.609471
	C188	C	0.160689	0.387021	0.874323
	C189	C	0.159642	0.613212	0.116985
	C190	C	0.800337	0.387023	0.118163
	C191	C	0.801117	0.613303	0.870962
	C192	C	0.383131	0.092896	0.589823
	C193	C	0.579925	0.905765	0.592976
	C194	C	0.578676	0.091917	0.397955
	C195	C	0.382397	0.905658	0.396666
	C196	C	0.578182	0.402146	0.086804
	C197	C	0.578268	0.597276	0.899494
	C198	C	0.381714	0.596767	0.087901
	C199	C	0.381332	0.404247	0.901151
	C200	C	0.073901	0.598418	0.395912
	C201	C	0.889735	0.597823	0.593046
	C202	C	0.073699	0.399486	0.595041
	C203	C	0.888916	0.402536	0.398640
	C204	C	0.881467	0.593501	0.091458
	C205	C	0.078441	0.406554	0.092940
	C206	C	0.077847	0.593627	0.898286
	C207	C	0.881554	0.406101	0.899132
	C208	C	0.081524	0.900057	0.589235
	C209	C	0.078958	0.096989	0.401350
	C210	C	0.883661	0.094544	0.587982
	C211	C	0.883150	0.903026	0.401808
	C212	C	0.573289	0.099226	0.893695
	C213	C	0.389878	0.096028	0.090136
	C214	C	0.572749	0.899887	0.093070
	C215	C	0.387753	0.901452	0.894009
	Zn216	Zn	0.481277	-0.000019	0.742706
	Zn217	Zn	0.481348	-0.000706	0.244488
	Zn218	Zn	0.730164	0.500345	-0.006013
	Zn219	Zn	0.229822	0.500369	-0.005011
	Zn220	Zn	-0.018117	0.750751	0.494863
	Zn221	Zn	-0.018393	0.247868	0.495729
	Zn222	Zn	-0.018542	0.498986	0.746989
	Zn223	Zn	-0.019953	0.500271	0.244389
	Zn224	Zn	0.479731	0.748328	-0.006449
	Zn225	Zn	0.480879	0.250238	-0.006830
	Zn226	Zn	0.731249	-0.001729	0.495739
	Zn227	Zn	0.231164	-0.001037	0.494016
	N228	N	0.397068	0.961941	0.671008
	N229	N	0.566237	0.037292	0.671368
	N230	N	0.566376	0.961392	0.317554
	N231	N	0.396312	0.037025	0.315871
	N232	N	0.660756	0.412334	0.957885
	N233	N	0.660137	0.587244	0.029311
	N234	N	0.298564	0.588392	0.958751
	N235	N	0.300527	0.413037	0.031594
	N236	N	0.944737	0.679979	0.408395
	N237	N	0.019347	0.677602	0.580155
	N238	N	0.945244	0.317524	0.583742
	N239	N	0.018160	0.320900	0.410663
	N240	N	0.944921	0.411958	0.676315
	N241	N	0.018784	0.584563	0.674506
	N242	N	0.944483	0.587728	0.314639
	N243	N	0.017790	0.414433	0.316644
	N244	N	0.395005	0.676685	0.956440
	N245	N	0.564258	0.676234	0.030764
	N246	N	0.564530	0.323114	0.955689
	N247	N	0.394542	0.320542	0.030713
	N248	N	0.661039	0.962338	0.408702
	N249	N	0.662258	0.035144	0.583032
	N250	N	0.303142	0.962389	0.579809
	N251	N	0.300086	0.035407	0.404981
	N252	N	0.893505	0.463409	0.174519
	N253	N	0.064504	0.537801	0.171627
	N254	N	0.065961	0.462639	0.819512
	N255	N	0.895877	0.536654	0.817227
	N256	N	0.161649	0.911752	0.458829
	N257	N	0.162126	0.086185	0.530402
	N258	N	0.800108	0.086866	0.459056
	N259	N	0.801432	0.910452	0.531354
	N260	N	0.444466	0.180697	0.905139
	N261	N	0.518104	0.178045	0.078675
	N262	N	0.443286	0.820003	0.079183
	N263	N	0.516776	0.819880	0.907418
	N264	N	0.444008	0.911986	0.174410
	N265	N	0.517816	0.086388	0.173988
	N266	N	0.443884	0.086620	0.812877
	N267	N	0.517692	0.914151	0.814652
	N268	N	0.896476	0.176685	0.457595
	N269	N	0.066650	0.175816	0.532649
	N270	N	0.067643	0.821051	0.458026
	N271	N	0.898069	0.822146	0.532836
	N272	N	0.160650	0.464178	0.908318
	N273	N	0.160995	0.535840	0.083127
	N274	N	0.799763	0.463985	0.082396
	N275	N	0.799637	0.536032	0.906110
	O276	O	0.136190	0.002169	0.013013
	H277	H	0.139762	0.006419	0.029413
	H278	H	0.142035	-0.004348	0.023024
	O279	O	-0.029367	1.048265	0.163132
	H280	H	-0.029742	1.067734	0.173092
	H281	H	-0.028567	1.039813	0.174227
	O282	O	0.922674	-0.112097	0.194237
	H283	H	0.909067	-0.141441	0.194507
	H284	H	0.904638	-0.115981	0.204165
	O285	O	-0.055462	0.947612	-0.105834
	H286	H	-0.043564	0.955701	-0.123367
	H287	H	-0.056227	0.964887	-0.108127
	O288	O	0.428679	0.645194	0.423112
	H289	H	0.432063	0.655462	0.418124
	H290	H	0.433808	0.645307	0.419858
	O291	O	0.905761	0.054860	1.004888
	H292	H	0.902998	0.063412	1.017829
	H293	H	0.909172	0.068284	0.985229
	O294	O	1.365852	0.579019	0.541417
	H295	H	1.366973	0.566299	0.545987
	H296	H	1.353317	0.578364	0.537344
	O297	O	-0.036530	-0.035315	-0.075405
	H298	H	-0.035954	-0.046034	-0.067491
	H299	H	-0.023345	-0.021230	-0.068543
	O300	O	1.016833	1.179165	1.090198
	H301	H	1.024068	1.167396	1.092701
	H302	H	1.001789	1.187254	1.083937
	O303	O	-0.156929	1.154634	0.842122
	H304	H	-0.137476	1.156538	0.845823
	H305	H	-0.165786	1.148354	0.832113
	O306	O	0.376858	0.431251	0.476940
	H307	H	0.377892	0.436055	0.487221
	H308	H	0.366353	0.421752	0.482734
	O309	O	0.932169	-0.018831	-0.049144
	H310	H	0.941628	-0.019551	-0.044306
	H311	H	0.933367	-0.012895	-0.047713
	O312	O	0.049044	0.113410	0.790431
	H313	H	0.049792	0.091464	0.809055
	H314	H	0.062880	0.135837	0.760700
	O315	O	0.364778	0.467343	0.473261
	H316	H	0.377831	0.462474	0.469993
	H317	H	0.359149	0.465846	0.458603
	O318	O	0.441274	0.468036	0.551242
	H319	H	0.446002	0.468925	0.546480
	H320	H	0.433881	0.466986	0.550481
	O321	O	0.590164	0.517076	0.486875
	H322	H	0.590551	0.505633	0.489687
	H323	H	0.598350	0.521064	0.481141
	O324	O	0.459414	0.542583	0.394330
	H325	H	0.451280	0.547206	0.387776
	H326	H	0.454924	0.541437	0.402568
	O327	O	-0.138895	0.823687	1.103769
	H328	H	-0.151306	0.816406	1.094559
	H329	H	-0.131884	0.818615	1.107037
	O330	O	0.560075	0.471556	0.505879
	H331	H	0.556828	0.481734	0.512280
	H332	H	0.552544	0.471734	0.504338
	O333	O	0.164653	1.060868	1.174470
	H334	H	0.156071	1.063940	1.162981
	H335	H	0.173312	1.050615	1.192494
	O336	O	1.577629	0.493422	0.385746
	H337	H	1.582303	0.490882	0.382083
	H338	H	1.581068	0.489076	0.390491
	O339	O	0.552559	0.504294	0.518281
	H340	H	0.557655	0.517150	0.525744
	H341	H	0.543034	0.506729	0.513492
	O342	O	0.949198	0.123329	-0.022497
	H343	H	0.939071	0.140813	-0.015009
	H344	H	0.949017	0.113595	-0.043429
	O345	O	0.352386	0.541248	0.471521
	H346	H	0.348222	0.544386	0.475470
	H347	H	0.358451	0.544113	0.474197
	O348	O	1.066398	0.910537	0.901340
	H349	H	1.050133	0.903095	0.903973
	H350	H	1.059142	0.919407	0.913645
	O351	O	1.543166	1.454571	0.622393
	H352	H	1.543435	1.447233	0.622592
	H353	H	1.549101	1.453944	0.612645
	O354	O	0.940143	0.059423	0.984337
	H355	H	0.950526	0.066169	0.985485
	H356	H	0.934980	0.063943	0.996458
	O357	O	0.474868	0.436938	0.449537
	H358	H	0.472714	0.435467	0.460274
	H359	H	0.474361	0.446673	0.446918
	O360	O	-0.028312	-0.078172	0.093924
	H361	H	-0.029194	-0.053330	0.089435
	H362	H	-0.041280	-0.066991	0.083729
	O363	O	0.499858	0.442804	0.553644
	H364	H	0.501564	0.456347	0.553863
	H365	H	0.499723	0.447570	0.556848
	O366	O	0.519385	0.483274	0.603246
	H367	H	0.525476	0.486369	0.613802
	H368	H	0.516040	0.488154	0.603397
	O369	O	0.402932	0.514592	0.415892
	H370	H	0.402326	0.527331	0.401856
	H371	H	0.406239	0.503606	0.412149
	O372	O	0.612410	0.574332	0.596076
	H373	H	0.616474	0.580590	0.603870
	H374	H	0.615611	0.568307	0.585957
	O375	O	1.001470	0.170795	1.129656
	H376	H	1.001749	0.156543	1.134877
	H377	H	0.996289	0.189684	1.126889
	O378	O	0.569966	0.404948	0.469305
	H379	H	0.562905	0.383216	0.478976
	H380	H	0.568820	0.399010	0.460482
	O381	O	0.904548	-0.008301	0.050553
	H382	H	0.892926	-0.012468	0.056435
	H383	H	0.912216	0.009549	0.059522
	O384	O	-0.013729	1.136971	-0.035852
	H385	H	-0.009159	1.137822	-0.028152
	H386	H	-0.016397	1.132730	-0.032356
	O387	O	0.867213	-0.072259	1.037636
	H388	H	0.846847	-0.070958	1.028238
	H389	H	0.856692	-0.056234	1.025769
	O390	O	0.064267	0.884204	-0.064716
	H391	H	0.043523	0.884534	-0.063325
	H392	H	0.067508	0.870658	-0.082392
	O393	O	1.368179	1.583099	0.427531
	H394	H	1.358412	1.597764	0.419673
	H395	H	1.381315	1.582759	0.434418
	O396	O	0.566054	0.397043	0.406871
	H397	H	0.547978	0.399272	0.404569
	H398	H	0.565559	0.389527	0.417728
	O399	O	0.013525	0.938793	1.021418
	H400	H	0.023263	0.951759	1.029061
	H401	H	0.027076	0.933588	1.011127
	O402	O	1.012742	0.954329	0.921949
	H403	H	1.003117	0.952560	0.923325
	H404	H	1.013995	0.948799	0.920785
	O405	O	0.036157	0.950799	-0.018494
	H406	H	0.038859	0.938186	-0.021468
	H407	H	0.043300	0.943877	-0.019795
