data_Molecule from HDF5

_cell_length_a		16.468088
_cell_length_b		16.315135
_cell_length_c		16.431258
_cell_angle_alpha	90.128007
_cell_angle_beta	89.849238
_cell_angle_gamma	89.931099
_symmetry_space_group_name_H-M	'P 1'
_symmetry_Int_Tables_number		1

loop_
	_symmetry_equiv_pos_as_xyz
	x,y,z

loop_
	_atom_site_label
	_atom_site_type_symbol
	_atom_site_fract_x
	_atom_site_fract_y
	_atom_site_fract_z
	H0	H	0.391857	0.832610	0.725052
	H1	H	0.602002	0.150988	0.728657
	H2	H	0.601403	0.832435	0.286117
	H3	H	0.392851	0.152645	0.286866
	H4	H	0.719721	0.385324	0.847766
	H5	H	0.722833	0.603152	0.162411
	H6	H	0.275946	0.600407	0.847258
	H7	H	0.274454	0.387327	0.163576
	H8	H	0.838689	0.715835	0.398195
	H9	H	0.154757	0.714259	0.608558
	H10	H	0.837101	0.274397	0.610591
	H11	H	0.154909	0.271595	0.401365
	H12	H	0.839465	0.387186	0.728854
	H13	H	0.153878	0.600678	0.726738
	H14	H	0.840155	0.601096	0.280426
	H15	H	0.154137	0.383805	0.282233
	H16	H	0.394923	0.713764	0.847291
	H17	H	0.601349	0.713185	0.165975
	H18	H	0.604749	0.268697	0.848546
	H19	H	0.393506	0.273780	0.165736
	H20	H	0.721208	0.835091	0.396025
	H21	H	0.716333	0.152044	0.612494
	H22	H	0.277030	0.832253	0.608213
	H23	H	0.276202	0.152751	0.401052
	H24	H	0.889544	0.334012	0.227441
	H25	H	0.106026	0.649697	0.229981
	H26	H	0.104276	0.334253	0.784384
	H27	H	0.888461	0.650393	0.781632
	H28	H	0.219220	0.884625	0.348066
	H29	H	0.218047	0.101050	0.663067
	H30	H	0.769971	0.104712	0.349068
	H31	H	0.770380	0.884811	0.662804
	H32	H	0.339183	0.213252	0.904216
	H33	H	0.654487	0.217348	0.114970
	H34	H	0.339604	0.771671	0.112125
	H35	H	0.655437	0.769524	0.898421
	H36	H	0.339381	0.887175	0.228283
	H37	H	0.654048	0.101531	0.231379
	H38	H	0.339147	0.099827	0.785725
	H39	H	0.652603	0.881018	0.778332
	H40	H	0.889480	0.216055	0.347305
	H41	H	0.100954	0.215858	0.663276
	H42	H	0.102502	0.770346	0.347740
	H43	H	0.886448	0.769054	0.662930
	H44	H	0.219177	0.334228	0.900037
	H45	H	0.217963	0.652373	0.112174
	H46	H	0.774332	0.334683	0.112876
	H47	H	0.770789	0.649272	0.893999
	H48	H	0.408137	0.107257	0.597720
	H49	H	0.583425	0.877728	0.597091
	H50	H	0.584655	0.108358	0.414265
	H51	H	0.411982	0.877796	0.412157
	H52	H	0.580089	0.401715	0.118447
	H53	H	0.580187	0.581028	0.894989
	H54	H	0.399587	0.580495	0.121123
	H55	H	0.408562	0.393673	0.889439
	H56	H	0.109723	0.582344	0.416875
	H57	H	0.881495	0.584504	0.596462
	H58	H	0.108193	0.411753	0.595897
	H59	H	0.885648	0.410565	0.418714
	H60	H	0.113113	0.399269	0.599850
	H61	H	0.884644	0.580951	0.591630
	H62	H	0.107241	0.580448	0.419261
	H63	H	0.882098	0.405113	0.411094
	H64	H	0.411000	0.579171	0.117017
	H65	H	0.589187	0.583890	0.890947
	H66	H	0.592235	0.405475	0.121323
	H67	H	0.400629	0.411372	0.892340
	H68	H	0.579420	0.104322	0.418519
	H69	H	0.578304	0.882418	0.589275
	H70	H	0.405884	0.106554	0.593499
	H71	H	0.406474	0.880235	0.423190
	H72	H	0.913351	0.607616	0.099625
	H73	H	0.092351	0.375946	0.094570
	H74	H	0.085707	0.609024	0.911683
	H75	H	0.911523	0.381843	0.922897
	H76	H	0.081287	0.906090	0.617316
	H77	H	0.086926	0.082738	0.391465
	H78	H	0.904554	0.088129	0.621098
	H79	H	0.902808	0.913536	0.393964
	H80	H	0.611933	0.082611	0.913599
	H81	H	0.384046	0.083229	0.098235
	H82	H	0.605899	0.911094	0.087547
	H83	H	0.385173	0.903167	0.920673
	H84	H	0.612072	0.908889	0.104972
	H85	H	0.385235	0.082655	0.094034
	H86	H	0.609611	0.081223	0.921294
	H87	H	0.385775	0.907337	0.917205
	H88	H	0.900873	0.076667	0.618627
	H89	H	0.086704	0.078541	0.392634
	H90	H	0.086600	0.901808	0.620278
	H91	H	0.917222	0.907982	0.397687
	H92	H	0.082428	0.605310	0.919394
	H93	H	0.083032	0.378423	0.097100
	H94	H	0.915819	0.602230	0.087899
	H95	H	0.906518	0.378540	0.918562
	H96	H	0.403853	0.109078	0.597254
	H97	H	0.587946	0.879175	0.587522
	H98	H	0.586272	0.106298	0.421741
	H99	H	0.400159	0.874953	0.413844
	H100	H	0.584179	0.413436	0.115239
	H101	H	0.588093	0.574185	0.894739
	H102	H	0.407689	0.590058	0.121704
	H103	H	0.418484	0.407769	0.898114
	H104	H	0.108065	0.578565	0.416313
	H105	H	0.883206	0.577835	0.597521
	H106	H	0.108149	0.400853	0.587070
	H107	H	0.883680	0.400490	0.419945
	H108	H	0.904305	0.607512	0.090816
	H109	H	0.086260	0.380484	0.088111
	H110	H	0.090787	0.608417	0.918839
	H111	H	0.913574	0.379591	0.915559
	H112	H	0.088376	0.908512	0.618290
	H113	H	0.082824	0.081252	0.393120
	H114	H	0.911695	0.080284	0.615251
	H115	H	0.906311	0.897997	0.390334
	H116	H	0.608947	0.074763	0.915503
	H117	H	0.385423	0.079729	0.096172
	H118	H	0.612801	0.894452	0.092989
	H119	H	0.384414	0.902760	0.915449
	C120	C	0.374510	0.001885	0.627559
	C121	C	0.616271	0.984383	0.625931
	C122	C	0.617797	0.001637	0.384445
	C123	C	0.374848	0.983755	0.384820
	C124	C	0.619050	0.371773	0.014475
	C125	C	0.619403	0.614242	0.997619
	C126	C	0.375234	0.615246	0.014889
	C127	C	0.376413	0.372130	0.997773
	C128	C	0.004829	0.614319	0.383380
	C129	C	0.987539	0.614578	0.627289
	C130	C	0.005071	0.371919	0.626915
	C131	C	0.988230	0.371555	0.383982
	C132	C	0.876885	0.501124	0.126317
	C133	C	0.119265	0.483557	0.126660
	C134	C	0.119292	0.502421	0.883905
	C135	C	0.876421	0.484051	0.884503
	C136	C	0.117650	0.871747	0.514110
	C137	C	0.117581	0.114481	0.496641
	C138	C	0.873433	0.115219	0.513872
	C139	C	0.874483	0.872576	0.497598
	C140	C	0.505665	0.112737	0.885354
	C141	C	0.488963	0.114894	0.129187
	C142	C	0.505891	0.872066	0.127696
	C143	C	0.488741	0.870441	0.883965
	C144	C	0.373127	0.880813	0.685783
	C145	C	0.619455	0.103450	0.688013
	C146	C	0.620575	0.881171	0.324635
	C147	C	0.374055	0.104715	0.326058
	C148	C	0.679728	0.367697	0.895603
	C149	C	0.681245	0.619276	0.115719
	C150	C	0.316048	0.618039	0.895031
	C151	C	0.315313	0.369776	0.116441
	C152	C	0.886193	0.675448	0.380109
	C153	C	0.106806	0.674863	0.627776
	C154	C	0.885146	0.313425	0.628890
	C155	C	0.107108	0.311053	0.382150
	C156	C	0.886540	0.369593	0.688222
	C157	C	0.106743	0.618133	0.686605
	C158	C	0.887049	0.617971	0.321565
	C159	C	0.106975	0.367284	0.323105
	C160	C	0.374953	0.674614	0.895005
	C161	C	0.620692	0.674120	0.117523
	C162	C	0.622511	0.309321	0.895943
	C163	C	0.374608	0.313153	0.117494
	C164	C	0.680129	0.882552	0.379756
	C165	C	0.676527	0.104039	0.630121
	C166	C	0.315800	0.880840	0.627990
	C167	C	0.316331	0.104881	0.383181
	C168	C	0.872665	0.381762	0.187289
	C169	C	0.122736	0.602558	0.188894
	C170	C	0.122226	0.382276	0.823902
	C171	C	0.871392	0.602725	0.821945
	C172	C	0.178871	0.867454	0.395545
	C173	C	0.177850	0.118752	0.615532
	C174	C	0.811684	0.120202	0.395883
	C175	C	0.811427	0.867677	0.615513
	C176	C	0.386552	0.173245	0.885006
	C177	C	0.607298	0.176259	0.132208
	C178	C	0.386906	0.811847	0.130036
	C179	C	0.607725	0.809336	0.880420
	C180	C	0.386971	0.869195	0.188219
	C181	C	0.607028	0.118965	0.190562
	C182	C	0.386599	0.116563	0.825940
	C183	C	0.606331	0.865082	0.820528
	C184	C	0.870775	0.176682	0.395175
	C185	C	0.119319	0.175778	0.615878
	C186	C	0.120557	0.810321	0.395422
	C187	C	0.869157	0.809664	0.615465
	C188	C	0.179484	0.382281	0.881516
	C189	C	0.178686	0.603844	0.129984
	C190	C	0.814937	0.382282	0.130180
	C191	C	0.812797	0.602161	0.878433
	C192	C	0.398891	0.085695	0.603385
	C193	C	0.590752	0.901243	0.599129
	C194	C	0.591322	0.084859	0.410623
	C195	C	0.399031	0.899841	0.409127
	C196	C	0.593015	0.399001	0.097037
	C197	C	0.593385	0.587727	0.915076
	C198	C	0.399217	0.590409	0.098090
	C199	C	0.401955	0.397000	0.914689
	C200	C	0.086828	0.588062	0.409677
	C201	C	0.904814	0.588517	0.602697
	C202	C	0.088092	0.396683	0.601632
	C203	C	0.905553	0.397984	0.409134
	C204	C	0.903378	0.584201	0.100195
	C205	C	0.094316	0.400180	0.100919
	C206	C	0.093706	0.585802	0.909356
	C207	C	0.903081	0.401665	0.911270
	C208	C	0.092310	0.897881	0.597053
	C209	C	0.092674	0.088259	0.413981
	C210	C	0.898743	0.089122	0.596497
	C211	C	0.901321	0.899030	0.415478
	C212	C	0.588680	0.086785	0.909690
	C213	C	0.406307	0.089143	0.103459
	C214	C	0.588846	0.897471	0.102347
	C215	C	0.406459	0.896741	0.910329
	Zn216	Zn	0.496222	-0.007941	0.755399
	Zn217	Zn	0.496929	-0.007272	0.257307
	Zn218	Zn	0.748310	0.492640	0.006185
	Zn219	Zn	0.247102	0.493261	0.005128
	Zn220	Zn	-0.004099	0.743359	0.505657
	Zn221	Zn	-0.003997	0.242876	0.505401
	Zn222	Zn	-0.002145	0.492849	0.756026
	Zn223	Zn	-0.002567	0.491932	0.254350
	Zn224	Zn	0.498133	0.742802	0.006541
	Zn225	Zn	0.497662	0.242516	0.006568
	Zn226	Zn	0.744860	-0.006535	0.505584
	Zn227	Zn	0.246663	-0.006892	0.505172
	N228	N	0.408699	0.956942	0.685833
	N229	N	0.582790	0.027851	0.685472
	N230	N	0.582608	0.956199	0.327433
	N231	N	0.409689	0.028541	0.326924
	N232	N	0.677698	0.405636	0.970390
	N233	N	0.680941	0.583170	0.039988
	N234	N	0.315972	0.581957	0.970557
	N235	N	0.316258	0.405625	0.040865
	N236	N	0.960335	0.673182	0.417931
	N237	N	0.031495	0.672957	0.591882
	N238	N	0.960005	0.314469	0.591907
	N239	N	0.032236	0.313655	0.419279
	N240	N	0.962315	0.405040	0.687228
	N241	N	0.031538	0.581741	0.686719
	N242	N	0.962016	0.580921	0.323153
	N243	N	0.031941	0.404160	0.324218
	N244	N	0.410602	0.673503	0.970519
	N245	N	0.582947	0.671157	0.042891
	N246	N	0.585534	0.311519	0.971135
	N247	N	0.411947	0.314471	0.042632
	N248	N	0.678717	0.958651	0.415955
	N249	N	0.674682	0.028995	0.592234
	N250	N	0.316197	0.957180	0.592512
	N251	N	0.316556	0.028814	0.418945
	N252	N	0.910527	0.456815	0.185010
	N253	N	0.086495	0.526755	0.187140
	N254	N	0.085557	0.457928	0.825006
	N255	N	0.910553	0.528313	0.825593
	N256	N	0.177421	0.904932	0.470548
	N257	N	0.176801	0.081124	0.540588
	N258	N	0.813078	0.082878	0.470745
	N259	N	0.814389	0.906050	0.541100
	N260	N	0.461661	0.170908	0.921246
	N261	N	0.532799	0.173735	0.094561
	N262	N	0.461809	0.813600	0.092840
	N263	N	0.533754	0.812697	0.919345
	N264	N	0.461969	0.905868	0.186836
	N265	N	0.532465	0.081375	0.188636
	N266	N	0.461671	0.079585	0.826068
	N267	N	0.531590	0.902579	0.822749
	N268	N	0.908422	0.173722	0.469699
	N269	N	0.082751	0.173447	0.540868
	N270	N	0.083126	0.812960	0.470215
	N271	N	0.907654	0.812613	0.541306
	N272	N	0.177766	0.458146	0.917906
	N273	N	0.176724	0.528854	0.092008
	N274	N	0.817504	0.457729	0.093112
	N275	N	0.815753	0.527654	0.916757
	O276	O	0.490299	0.425924	0.667636
	H277	H	0.487902	0.431400	0.667356
	H278	H	0.472326	0.425768	0.662725
	O279	O	0.291853	0.445103	0.710183
	H280	H	0.259862	0.450613	0.736483
	H281	H	0.295679	0.423419	0.685926
	O282	O	0.637380	0.457480	0.690249
	H283	H	0.617296	0.437178	0.688985
	H284	H	0.634976	0.472333	0.704887
	O285	O	0.780753	0.778465	0.027200
	H286	H	0.809935	0.764186	0.005856
	H287	H	0.758473	0.746493	0.024577
	O288	O	0.574818	0.451060	0.421472
	H289	H	0.565095	0.461459	0.424807
	H290	H	0.577551	0.468812	0.411020
	O291	O	0.603641	0.677764	0.665635
	H292	H	0.585948	0.685004	0.666217
	H293	H	0.615741	0.658504	0.679290
	O294	O	1.114564	1.188758	0.889953
	H295	H	1.098979	1.189312	0.879446
	H296	H	1.088358	1.183993	0.903114
	O297	O	0.821655	-0.185716	0.184287
	H298	H	0.805923	-0.133835	0.194871
	H299	H	0.805334	-0.198155	0.134321
	O300	O	0.552915	0.381780	0.474546
	H301	H	0.543989	0.386738	0.482061
	H302	H	0.561014	0.367686	0.464320
	O303	O	0.617070	0.363751	0.483213
	H304	H	0.612411	0.345936	0.488269
	H305	H	0.613375	0.358265	0.492995
	O306	O	0.215707	-0.032649	0.793519
	H307	H	0.244574	-0.027905	0.756655
	H308	H	0.186731	-0.009294	0.796180
	O309	O	0.783387	-0.024999	0.220070
	H310	H	0.819695	-0.005557	0.234920
	H311	H	0.763199	-0.020746	0.255105
	O312	O	0.611883	0.587805	0.495542
	H313	H	0.615405	0.603543	0.505197
	H314	H	0.614384	0.587893	0.519205
	O315	O	0.298173	0.593886	0.571921
	H316	H	0.296483	0.564057	0.581808
	H317	H	0.310194	0.593336	0.564067
	O318	O	0.192205	0.183203	0.121024
	H319	H	0.192938	0.176019	0.114284
	H320	H	0.195539	0.192242	0.094528
	O321	O	0.477774	0.679251	0.361594
	H322	H	0.470145	0.675030	0.362133
	H323	H	0.485250	0.689929	0.362606
	O324	O	1.197715	0.118423	0.993382
	H325	H	1.187197	0.107548	0.968912
	H326	H	1.185612	0.114394	0.990080
	O327	O	0.367466	0.598093	0.510196
	H328	H	0.374164	0.578921	0.523514
	H329	H	0.373732	0.605864	0.524050
	O330	O	0.063211	0.953922	1.183799
	H331	H	0.070663	0.979834	1.187301
	H332	H	0.062010	0.963331	1.173373
	O333	O	0.012983	0.914253	0.036020
	H334	H	0.021493	0.908500	0.036854
	H335	H	0.017881	0.922105	0.042572
	O336	O	1.093201	1.127873	0.213637
	H337	H	1.080779	1.132875	0.225555
	H338	H	1.114273	1.129291	0.217794
	O339	O	0.575168	1.663516	0.504900
	H340	H	0.582043	1.663751	0.484170
	H341	H	0.579220	1.664960	0.499733
	O342	O	0.611290	0.505408	0.307724
	H343	H	0.630149	0.507653	0.310851
	H344	H	0.606170	0.507609	0.302310
	O345	O	-0.129371	0.053940	1.159978
	H346	H	-0.112759	0.030625	1.155144
	H347	H	-0.117189	0.062183	1.167035
	O348	O	0.295742	0.410435	0.458771
	H349	H	0.301684	0.419891	0.453815
	H350	H	0.310682	0.416180	0.452174
	O351	O	0.790517	1.199179	-0.016487
	H352	H	0.775713	1.164687	0.006676
	H353	H	0.773962	1.214433	-0.006718
	O354	O	0.790397	0.928937	0.942826
	H355	H	0.795395	0.905011	0.960808
	H356	H	0.813032	0.922624	0.949940
	O357	O	-0.796055	0.777623	0.790102
	H358	H	-0.785081	0.814511	0.784644
	H359	H	-0.790446	0.777409	0.828826
	O360	O	0.488021	0.320695	0.561364
	H361	H	0.466704	0.324906	0.564849
	H362	H	0.495423	0.308064	0.568554
	O363	O	1.049444	-0.153214	0.119176
	H364	H	1.028648	-0.167215	0.142803
	H365	H	1.042656	-0.140517	0.114446
	O366	O	-0.612634	-0.600008	1.414799
	H367	H	-0.618963	-0.595229	1.419504
	H368	H	-0.606089	-0.603592	1.407550
	O369	O	0.547696	-0.334789	0.665696
	H370	H	0.545515	-0.347415	0.665293
	H371	H	0.555468	-0.345408	0.648625
	O372	O	0.348244	0.309780	0.688757
	H373	H	0.338279	0.306876	0.653768
	H374	H	0.342920	0.301340	0.707162
	O375	O	0.009554	-0.043965	1.045364
	H376	H	0.036231	-0.040203	1.033503
	H377	H	-0.000215	-0.050055	1.057754
	O378	O	0.484155	0.475275	0.403280
	H379	H	0.489458	0.460805	0.398702
	H380	H	0.499780	0.462531	0.393810
	O381	O	0.061160	1.058988	-0.195246
	H382	H	0.043185	1.052214	-0.195582
	H383	H	0.030500	1.077494	-0.205699
	O384	O	-0.022065	0.776852	0.217715
	H385	H	-0.063361	0.785501	0.205618
	H386	H	-0.037921	0.747959	0.248012
	O387	O	0.978142	0.196590	1.115990
	H388	H	0.983129	0.200591	1.119469
	H389	H	0.969103	0.201790	1.106796
	O390	O	1.931845	-0.220125	-0.060963
	H391	H	1.961277	-0.217680	-0.045032
	H392	H	1.953570	-0.216297	-0.096514
	O393	O	0.817278	0.176386	0.820873
	H394	H	0.805547	0.186042	0.875299
	H395	H	0.806079	0.122389	0.811041
	O396	O	1.050399	1.045374	-0.050693
	H397	H	1.050251	1.045485	-0.047233
	H398	H	1.059048	1.050245	-0.061411
	O399	O	0.205199	0.962497	1.017669
	H400	H	0.198390	0.963235	1.018260
	H401	H	0.206239	0.964295	1.007756
	O402	O	0.945842	0.944867	-0.209867
	H403	H	0.943624	0.913556	-0.222436
	H404	H	0.931884	0.937919	-0.204110
	O405	O	0.334110	0.667400	0.330378
	H406	H	0.327558	0.675013	0.357658
	H407	H	0.347098	0.665830	0.329253
	O408	O	0.383693	0.411820	0.628706
	H409	H	0.363065	0.404883	0.627090
	H410	H	0.390689	0.428707	0.615950
	O411	O	0.972834	1.214906	0.785384
	H412	H	0.950691	1.232876	0.766364
	H413	H	0.936222	1.221559	0.779442
	O414	O	0.670581	0.284885	0.501345
	H415	H	0.683267	0.281523	0.479946
	H416	H	0.678697	0.269127	0.506234
	O417	O	-0.214896	1.011807	0.794273
	H418	H	-0.235677	0.996486	0.799043
	H419	H	-0.224210	0.994273	0.797445
	O420	O	0.291667	1.524696	0.301023
	H421	H	0.277652	1.533437	0.299009
	H422	H	0.283415	1.549443	0.293888
	O423	O	0.187765	1.064817	0.191723
	H424	H	0.203227	1.052131	0.208383
	H425	H	0.187390	1.093035	0.166280
	O426	O	-0.149739	1.048174	0.057854
	H427	H	-0.153392	1.044869	0.069238
	H428	H	-0.143591	1.038833	0.059249
	O429	O	0.703119	0.551033	0.541895
	H430	H	0.685712	0.553059	0.557613
	H431	H	0.715415	0.544741	0.568435
	O432	O	0.556789	0.437864	0.345313
	H433	H	0.528083	0.435894	0.334758
	H434	H	0.553511	0.451071	0.345152
	O435	O	0.208155	-0.217279	-0.020422
	H436	H	0.216573	-0.217332	0.003911
	H437	H	0.219307	-0.228036	-0.006195
	O438	O	0.015979	0.773276	0.784589
	H439	H	0.067691	0.787837	0.798708
	H440	H	0.022335	0.735300	0.746304
	O441	O	0.690874	0.425051	0.342784
	H442	H	0.679996	0.440188	0.366457
	H443	H	0.699916	0.432892	0.316867
