data_Molecule from HDF5

_cell_length_a		16.218157
_cell_length_b		16.359235
_cell_length_c		16.212642
_cell_angle_alpha	90.033002
_cell_angle_beta	90.034282
_cell_angle_gamma	89.585182
_symmetry_space_group_name_H-M	'P 1'
_symmetry_Int_Tables_number		1

loop_
	_symmetry_equiv_pos_as_xyz
	x,y,z

loop_
	_atom_site_label
	_atom_site_type_symbol
	_atom_site_fract_x
	_atom_site_fract_y
	_atom_site_fract_z
	H0	H	0.408585	0.833536	0.712038
	H1	H	0.601858	0.159989	0.710673
	H2	H	0.605776	0.835132	0.280896
	H3	H	0.405793	0.160450	0.283749
	H4	H	0.719338	0.399176	0.833206
	H5	H	0.716085	0.593641	0.161583
	H6	H	0.288755	0.596584	0.832981
	H7	H	0.292206	0.401549	0.161471
	H8	H	0.841393	0.713845	0.397043
	H9	H	0.169131	0.709906	0.599091
	H10	H	0.840524	0.282309	0.596398
	H11	H	0.167839	0.279661	0.397227
	H12	H	0.839236	0.400683	0.709814
	H13	H	0.168120	0.593391	0.712842
	H14	H	0.839132	0.594921	0.284996
	H15	H	0.168135	0.396255	0.282593
	H16	H	0.402674	0.714644	0.833641
	H17	H	0.604225	0.712624	0.160350
	H18	H	0.605316	0.282182	0.832738
	H19	H	0.404476	0.282105	0.160302
	H20	H	0.722221	0.833901	0.397476
	H21	H	0.718214	0.160380	0.594880
	H22	H	0.293155	0.832673	0.595848
	H23	H	0.287617	0.158411	0.398362
	H24	H	0.906968	0.333255	0.211328
	H25	H	0.100002	0.659850	0.212181
	H26	H	0.102566	0.333814	0.783010
	H27	H	0.902766	0.659774	0.781932
	H28	H	0.220107	0.896807	0.332717
	H29	H	0.217065	0.091130	0.662536
	H30	H	0.792964	0.094567	0.332656
	H31	H	0.793312	0.900414	0.662181
	H32	H	0.342226	0.214119	0.895161
	H33	H	0.669062	0.210478	0.094909
	H34	H	0.341141	0.784117	0.096716
	H35	H	0.668097	0.779464	0.895929
	H36	H	0.340751	0.901334	0.210460
	H37	H	0.669591	0.094701	0.209571
	H38	H	0.340920	0.094925	0.782982
	H39	H	0.670460	0.898107	0.784477
	H40	H	0.903871	0.212405	0.333816
	H41	H	0.104805	0.211207	0.660819
	H42	H	0.106480	0.778301	0.333831
	H43	H	0.908062	0.783463	0.661883
	H44	H	0.220394	0.333972	0.898028
	H45	H	0.218471	0.659691	0.097835
	H46	H	0.791117	0.333059	0.094848
	H47	H	0.786224	0.659310	0.897657
	H48	H	0.424112	0.106058	0.583753
	H49	H	0.601367	0.882133	0.583291
	H50	H	0.605814	0.115126	0.402564
	H51	H	0.416115	0.881301	0.403241
	H52	H	0.593094	0.403591	0.112680
	H53	H	0.591291	0.580834	0.883858
	H54	H	0.414144	0.584585	0.111052
	H55	H	0.415482	0.404725	0.880625
	H56	H	0.119638	0.590075	0.411888
	H57	H	0.887165	0.593370	0.587423
	H58	H	0.123232	0.397768	0.592067
	H59	H	0.886174	0.400930	0.403243
	H60	H	0.119132	0.402077	0.583830
	H61	H	0.888752	0.589043	0.588087
	H62	H	0.119130	0.580444	0.403769
	H63	H	0.887637	0.403613	0.407925
	H64	H	0.416919	0.597212	0.113092
	H65	H	0.589363	0.595769	0.879451
	H66	H	0.598116	0.397230	0.117021
	H67	H	0.411033	0.401965	0.878523
	H68	H	0.595700	0.114185	0.397575
	H69	H	0.606846	0.877269	0.593602
	H70	H	0.397275	0.113298	0.581412
	H71	H	0.414201	0.881737	0.405393
	H72	H	0.914376	0.612594	0.095741
	H73	H	0.096200	0.382096	0.087850
	H74	H	0.092820	0.612187	0.902771
	H75	H	0.917850	0.379212	0.891327
	H76	H	0.099272	0.905697	0.612849
	H77	H	0.095641	0.086954	0.380430
	H78	H	0.910841	0.099014	0.618291
	H79	H	0.917777	0.907736	0.382634
	H80	H	0.623848	0.091424	0.901386
	H81	H	0.389403	0.093267	0.081651
	H82	H	0.621180	0.902659	0.084307
	H83	H	0.389244	0.906300	0.907269
	H84	H	0.621699	0.907362	0.091065
	H85	H	0.388613	0.084066	0.091231
	H86	H	0.622956	0.091739	0.905226
	H87	H	0.388952	0.908047	0.903473
	H88	H	0.905254	0.084335	0.614638
	H89	H	0.095526	0.089241	0.380974
	H90	H	0.096124	0.899614	0.614017
	H91	H	0.916303	0.896649	0.379179
	H92	H	0.094481	0.611336	0.908551
	H93	H	0.102918	0.380108	0.088823
	H94	H	0.908122	0.610995	0.085272
	H95	H	0.919646	0.386587	0.914838
	H96	H	0.410793	0.117119	0.605181
	H97	H	0.594274	0.882411	0.593926
	H98	H	0.597108	0.112145	0.408857
	H99	H	0.413459	0.880093	0.401859
	H100	H	0.601599	0.405995	0.114506
	H101	H	0.603321	0.589132	0.878079
	H102	H	0.404862	0.593297	0.116296
	H103	H	0.410557	0.407524	0.879389
	H104	H	0.123603	0.591117	0.400089
	H105	H	0.886999	0.591347	0.592074
	H106	H	0.120749	0.407091	0.592631
	H107	H	0.887245	0.405991	0.402960
	H108	H	0.902449	0.615553	0.095151
	H109	H	0.097803	0.379865	0.094174
	H110	H	0.099140	0.613293	0.904895
	H111	H	0.898058	0.377216	0.906183
	H112	H	0.102130	0.900042	0.615097
	H113	H	0.097055	0.087857	0.380379
	H114	H	0.920797	0.087691	0.611560
	H115	H	0.907444	0.904134	0.378744
	H116	H	0.622397	0.088398	0.903388
	H117	H	0.385281	0.096809	0.094547
	H118	H	0.624185	0.899219	0.091467
	H119	H	0.387349	0.904004	0.903556
	C120	C	0.383724	0.004270	0.618936
	C121	C	0.628161	0.988541	0.618681
	C122	C	0.628321	0.006026	0.374336
	C123	C	0.384450	0.988273	0.375193
	C124	C	0.626435	0.374546	0.005932
	C125	C	0.624055	0.617442	0.988454
	C126	C	0.381854	0.620367	0.005501
	C127	C	0.383481	0.376366	0.987964
	C128	C	0.012640	0.617154	0.376405
	C129	C	0.996328	0.618260	0.618847
	C130	C	0.012735	0.374772	0.618377
	C131	C	0.995464	0.374323	0.375918
	C132	C	0.881667	0.504764	0.119436
	C133	C	0.126104	0.488469	0.119131
	C134	C	0.125578	0.505093	0.875792
	C135	C	0.881747	0.488695	0.875664
	C136	C	0.128246	0.872614	0.505934
	C137	C	0.125618	0.116638	0.488832
	C138	C	0.883699	0.118898	0.506112
	C139	C	0.885339	0.875237	0.489156
	C140	C	0.514325	0.119185	0.874558
	C141	C	0.496456	0.119203	0.117823
	C142	C	0.513739	0.875938	0.118273
	C143	C	0.496875	0.876111	0.875861
	C144	C	0.387922	0.881874	0.673769
	C145	C	0.623286	0.111287	0.673174
	C146	C	0.626447	0.883415	0.318818
	C147	C	0.384951	0.111204	0.320282
	C148	C	0.681343	0.378277	0.881931
	C149	C	0.678866	0.614754	0.112363
	C150	C	0.325750	0.617850	0.882184
	C151	C	0.329461	0.380122	0.112109
	C152	C	0.889888	0.674654	0.377714
	C153	C	0.119880	0.672035	0.618067
	C154	C	0.889104	0.320459	0.616475
	C155	C	0.118878	0.318183	0.377285
	C156	C	0.888657	0.379138	0.672930
	C157	C	0.119472	0.614265	0.674716
	C158	C	0.888785	0.615627	0.321792
	C159	C	0.118954	0.376014	0.320230
	C160	C	0.382603	0.676165	0.882472
	C161	C	0.623076	0.673509	0.111881
	C162	C	0.624819	0.320165	0.881933
	C163	C	0.385272	0.320902	0.111423
	C164	C	0.684121	0.882896	0.377046
	C165	C	0.680983	0.111653	0.615429
	C166	C	0.330159	0.881541	0.616268
	C167	C	0.326467	0.110295	0.377244
	C168	C	0.885597	0.381893	0.173672
	C169	C	0.121503	0.611038	0.174445
	C170	C	0.123560	0.382541	0.820538
	C171	C	0.882830	0.611013	0.820062
	C172	C	0.182751	0.875679	0.381864
	C173	C	0.180447	0.113151	0.612907
	C174	C	0.829501	0.115728	0.381970
	C175	C	0.830702	0.879556	0.612929
	C176	C	0.390862	0.175320	0.875622
	C177	C	0.619969	0.173274	0.115338
	C178	C	0.390163	0.821860	0.116639
	C179	C	0.619762	0.818814	0.877084
	C180	C	0.389960	0.880396	0.173047
	C181	C	0.620366	0.115590	0.172217
	C182	C	0.390357	0.116015	0.819900
	C183	C	0.620789	0.877817	0.821618
	C184	C	0.884844	0.174162	0.382671
	C185	C	0.124381	0.172485	0.612161
	C186	C	0.126762	0.816422	0.382635
	C187	C	0.887561	0.821067	0.612939
	C188	C	0.182041	0.382604	0.877814
	C189	C	0.180194	0.611144	0.117392
	C190	C	0.828400	0.381839	0.115423
	C191	C	0.825001	0.610974	0.877751
	C192	C	0.404604	0.090032	0.596674
	C193	C	0.607038	0.902653	0.596601
	C194	C	0.606159	0.091592	0.396467
	C195	C	0.407877	0.903077	0.396922
	C196	C	0.604175	0.395902	0.092358
	C197	C	0.601270	0.595149	0.902730
	C198	C	0.405194	0.598388	0.091405
	C199	C	0.405686	0.398387	0.901664
	C200	C	0.098731	0.593875	0.398695
	C201	C	0.909943	0.597330	0.595826
	C202	C	0.098803	0.396031	0.596102
	C203	C	0.909336	0.396896	0.398091
	C204	C	0.902224	0.590771	0.098352
	C205	C	0.105058	0.402770	0.096829
	C206	C	0.102421	0.590269	0.898610
	C207	C	0.904959	0.403170	0.897786
	C208	C	0.105924	0.894949	0.591903
	C209	C	0.102753	0.094491	0.402896
	C210	C	0.905847	0.096879	0.592419
	C211	C	0.907389	0.896472	0.402584
	C212	C	0.600690	0.097077	0.896840
	C213	C	0.410025	0.097651	0.095634
	C214	C	0.600064	0.896812	0.095647
	C215	C	0.410749	0.899414	0.898210
	Zn216	Zn	0.505891	-0.003482	0.747459
	Zn217	Zn	0.505555	-0.002035	0.246117
	Zn218	Zn	0.753334	0.496750	-0.002676
	Zn219	Zn	0.255032	0.497267	-0.002892
	Zn220	Zn	0.005692	0.745595	0.497437
	Zn221	Zn	0.004218	0.246003	0.497146
	Zn222	Zn	0.003940	0.496923	0.746534
	Zn223	Zn	0.003887	0.496237	0.248173
	Zn224	Zn	0.505011	0.747225	-0.003114
	Zn225	Zn	0.504816	0.247082	-0.003456
	Zn226	Zn	0.756804	-0.002526	0.497187
	Zn227	Zn	0.255079	-0.004581	0.496928
	N228	N	0.420455	0.959192	0.675492
	N229	N	0.591233	0.033586	0.675372
	N230	N	0.592539	0.960745	0.316950
	N231	N	0.420227	0.034391	0.318949
	N232	N	0.682681	0.411150	0.960074
	N233	N	0.679600	0.580358	0.034867
	N234	N	0.325316	0.583727	0.959792
	N235	N	0.328623	0.414019	0.034476
	N236	N	0.967959	0.675518	0.410990
	N237	N	0.042050	0.674517	0.583965
	N238	N	0.966999	0.317718	0.583207
	N239	N	0.041128	0.317030	0.411018
	N240	N	0.966518	0.412226	0.674303
	N241	N	0.041598	0.581592	0.675200
	N242	N	0.966128	0.580606	0.320815
	N243	N	0.041202	0.410439	0.319308
	N244	N	0.416686	0.678018	0.960169
	N245	N	0.589848	0.675376	0.033932
	N246	N	0.591170	0.317926	0.959860
	N247	N	0.418347	0.318470	0.033166
	N248	N	0.685404	0.960078	0.410760
	N249	N	0.684094	0.034322	0.582493
	N250	N	0.327468	0.958853	0.582678
	N251	N	0.326068	0.033175	0.410857
	N252	N	0.918054	0.459292	0.176317
	N253	N	0.088616	0.533682	0.175754
	N254	N	0.089075	0.459508	0.819359
	N255	N	0.917594	0.534022	0.818745
	N256	N	0.183950	0.909835	0.459428
	N257	N	0.181409	0.079046	0.535255
	N258	N	0.828716	0.081789	0.459544
	N259	N	0.829303	0.912544	0.534808
	N260	N	0.468800	0.177363	0.908789
	N261	N	0.541793	0.175498	0.082100
	N262	N	0.468044	0.818797	0.083159
	N263	N	0.541704	0.817743	0.910450
	N264	N	0.467932	0.913234	0.174168
	N265	N	0.542501	0.082645	0.173842
	N266	N	0.468129	0.081712	0.819102
	N267	N	0.543349	0.912601	0.820795
	N268	N	0.917783	0.176254	0.460823
	N269	N	0.090940	0.174614	0.534215
	N270	N	0.093676	0.814589	0.460707
	N271	N	0.920745	0.818339	0.535051
	N272	N	0.183422	0.460003	0.911395
	N273	N	0.183496	0.533761	0.084046
	N274	N	0.825699	0.459408	0.082614
	N275	N	0.824376	0.533928	0.911686
	O276	O	1.031453	1.026192	-0.021902
	H277	H	1.030935	1.026101	-0.019371
	H278	H	1.032532	1.034935	-0.030084
	O279	O	-0.016211	-0.023086	0.944290
	H280	H	-0.021606	-0.019800	0.940080
	H281	H	-0.006778	-0.025927	0.944952
	O282	O	0.047154	-0.054128	-0.019513
	H283	H	0.038564	-0.057592	-0.022747
	H284	H	0.053225	-0.057592	-0.020075
	O285	O	0.428333	0.524867	0.473490
	H286	H	0.426835	0.536722	0.467447
	H287	H	0.426237	0.530931	0.463201
	O288	O	0.037416	-0.044093	0.033756
	H289	H	0.044266	-0.043386	0.029665
	H290	H	0.040441	-0.037610	0.032494
	O291	O	-0.044723	1.024352	-0.005884
	H292	H	-0.049428	1.022452	-0.004369
	H293	H	-0.040767	1.025507	-0.013120
	O294	O	-0.028342	1.002376	-0.011760
	H295	H	-0.035521	1.006532	-0.000339
	H296	H	-0.021430	0.999845	-0.012458
	O297	O	0.439130	0.425781	0.492116
	H298	H	0.443763	0.430177	0.489541
	H299	H	0.428132	0.426754	0.495330
	O300	O	0.501982	0.503651	0.436422
	H301	H	0.507497	0.502786	0.436784
	H302	H	0.497241	0.496587	0.438604
	O303	O	1.037498	-0.025426	1.003125
	H304	H	1.032809	-0.023303	1.005554
	H305	H	1.031318	-0.031939	1.008672
	O306	O	0.009728	0.935579	0.935125
	H307	H	0.006385	0.931756	0.932572
	H308	H	0.016739	0.946777	0.942197
	O309	O	0.010169	0.993850	1.084466
	H310	H	0.006852	1.002061	1.091910
	H311	H	0.008529	0.991187	1.076624
	O312	O	0.006481	-0.031305	1.034494
	H313	H	0.003391	-0.044148	1.027433
	H314	H	0.008021	-0.033064	1.035509
	O315	O	0.452896	0.491960	0.535662
	H316	H	0.437812	0.498166	0.532433
	H317	H	0.452856	0.506414	0.548911
	O318	O	0.028153	-0.015244	0.906145
	H319	H	0.022034	-0.008167	0.910863
	H320	H	0.031971	-0.025134	0.899732
	O321	O	0.489611	0.576146	0.442721
	H322	H	0.493648	0.567264	0.447325
	H323	H	0.494695	0.567143	0.445824
	O324	O	0.990427	0.035129	1.063834
	H325	H	0.992546	0.031459	1.058167
	H326	H	0.995546	0.028451	1.061494
	O327	O	1.036678	1.006240	1.016761
	H328	H	1.030666	0.996437	1.014890
	H329	H	1.041407	1.016891	1.018810
	O330	O	0.559878	0.476921	0.541724
	H331	H	0.550308	0.477650	0.544891
	H332	H	0.559720	0.465315	0.545281
	O333	O	0.487768	0.517563	0.490882
	H334	H	0.490774	0.516279	0.480611
	H335	H	0.487197	0.512412	0.489603
	O336	O	0.522126	0.492592	0.429929
	H337	H	0.514620	0.490653	0.427604
	H338	H	0.513701	0.488646	0.428590
	O339	O	0.348489	0.699808	0.290791
	H340	H	0.355324	0.702582	0.283272
	H341	H	0.350150	0.713874	0.284597
	O342	O	0.434067	0.580215	0.465426
	H343	H	0.438457	0.584084	0.456004
	H344	H	0.430267	0.590543	0.462183
	O345	O	0.480855	0.536677	0.478454
	H346	H	0.477231	0.548871	0.482713
	H347	H	0.494438	0.541859	0.474760
