data_Molecule from HDF5

_cell_length_a		16.340654
_cell_length_b		16.212446
_cell_length_c		16.333590
_cell_angle_alpha	90.005543
_cell_angle_beta	90.090039
_cell_angle_gamma	90.025921
_symmetry_space_group_name_H-M	'P 1'
_symmetry_Int_Tables_number		1

loop_
	_symmetry_equiv_pos_as_xyz
	x,y,z

loop_
	_atom_site_label
	_atom_site_type_symbol
	_atom_site_fract_x
	_atom_site_fract_y
	_atom_site_fract_z
	H0	H	0.405152	0.844960	0.703397
	H1	H	0.601570	0.173396	0.703788
	H2	H	0.600240	0.845381	0.276079
	H3	H	0.404916	0.173926	0.276287
	H4	H	0.716417	0.411523	0.826468
	H5	H	0.718341	0.609526	0.153106
	H6	H	0.286531	0.608660	0.827276
	H7	H	0.286754	0.409486	0.153223
	H8	H	0.838714	0.723311	0.391681
	H9	H	0.166586	0.723193	0.586554
	H10	H	0.839492	0.294419	0.587470
	H11	H	0.165851	0.294038	0.390673
	H12	H	0.839426	0.409434	0.705058
	H13	H	0.164900	0.610511	0.706603
	H14	H	0.839551	0.607698	0.274502
	H15	H	0.165149	0.410333	0.274151
	H16	H	0.403716	0.723665	0.826354
	H17	H	0.599366	0.723016	0.154138
	H18	H	0.599113	0.296767	0.826353
	H19	H	0.405196	0.294988	0.154198
	H20	H	0.715829	0.845283	0.391470
	H21	H	0.717411	0.173347	0.588813
	H22	H	0.288663	0.845172	0.588252
	H23	H	0.288337	0.174027	0.390880
	H24	H	0.905660	0.345004	0.202318
	H25	H	0.101082	0.674097	0.203400
	H26	H	0.100171	0.345200	0.775744
	H27	H	0.904056	0.674208	0.775749
	H28	H	0.217218	0.910808	0.326360
	H29	H	0.219181	0.110022	0.652676
	H30	H	0.786592	0.108073	0.327176
	H31	H	0.786965	0.908989	0.652110
	H32	H	0.339555	0.223688	0.893097
	H33	H	0.666892	0.221589	0.085931
	H34	H	0.338261	0.796953	0.085315
	H35	H	0.666451	0.794854	0.892562
	H36	H	0.339486	0.910346	0.205185
	H37	H	0.665019	0.108586	0.205640
	H38	H	0.339534	0.108717	0.774489
	H39	H	0.666098	0.911025	0.775102
	H40	H	0.904835	0.222865	0.326192
	H41	H	0.100036	0.223522	0.653093
	H42	H	0.098468	0.796067	0.325577
	H43	H	0.905099	0.794707	0.653113
	H44	H	0.217365	0.345058	0.889693
	H45	H	0.215911	0.673734	0.087138
	H46	H	0.787958	0.345168	0.088767
	H47	H	0.787809	0.673792	0.891623
	H48	H	0.415651	0.124922	0.583967
	H49	H	0.594293	0.892177	0.584775
	H50	H	0.600965	0.127829	0.397793
	H51	H	0.413350	0.894295	0.396680
	H52	H	0.598142	0.413121	0.108195
	H53	H	0.593596	0.605202	0.873931
	H54	H	0.411439	0.609002	0.107033
	H55	H	0.406498	0.420912	0.875349
	H56	H	0.118889	0.595244	0.387185
	H57	H	0.886297	0.604495	0.580847
	H58	H	0.119456	0.415877	0.587090
	H59	H	0.885726	0.412440	0.397639
	H60	H	0.118302	0.414721	0.580580
	H61	H	0.888260	0.599513	0.582822
	H62	H	0.122284	0.613828	0.394729
	H63	H	0.888804	0.419871	0.397576
	H64	H	0.401166	0.602111	0.108192
	H65	H	0.599247	0.601465	0.873818
	H66	H	0.599242	0.419866	0.106473
	H67	H	0.413469	0.417939	0.877156
	H68	H	0.592327	0.127006	0.392694
	H69	H	0.593450	0.892783	0.580960
	H70	H	0.408825	0.125200	0.577452
	H71	H	0.406761	0.892362	0.400576
	H72	H	0.912289	0.624739	0.081646
	H73	H	0.098531	0.393999	0.073888
	H74	H	0.092630	0.626161	0.894894
	H75	H	0.907977	0.393791	0.900175
	H76	H	0.096044	0.922704	0.603783
	H77	H	0.090943	0.094718	0.377955
	H78	H	0.907740	0.100813	0.605808
	H79	H	0.906967	0.918470	0.373443
	H80	H	0.620134	0.103102	0.890976
	H81	H	0.386906	0.101859	0.082302
	H82	H	0.620484	0.906162	0.079681
	H83	H	0.385591	0.912015	0.897265
	H84	H	0.614431	0.924714	0.078980
	H85	H	0.386383	0.101459	0.084436
	H86	H	0.619543	0.107143	0.898069
	H87	H	0.389063	0.919429	0.899003
	H88	H	0.910799	0.101820	0.605575
	H89	H	0.092391	0.110615	0.372299
	H90	H	0.092077	0.912495	0.605256
	H91	H	0.911249	0.916869	0.374188
	H92	H	0.094822	0.624670	0.900427
	H93	H	0.100457	0.388870	0.089212
	H94	H	0.907475	0.626755	0.079999
	H95	H	0.906446	0.391284	0.894733
	H96	H	0.407097	0.128613	0.585828
	H97	H	0.597810	0.892456	0.582057
	H98	H	0.592716	0.124652	0.402101
	H99	H	0.407497	0.891139	0.393035
	H100	H	0.593113	0.416320	0.104995
	H101	H	0.593068	0.598473	0.876074
	H102	H	0.411288	0.597011	0.103195
	H103	H	0.408140	0.413396	0.873341
	H104	H	0.114531	0.599407	0.406238
	H105	H	0.885559	0.603290	0.585904
	H106	H	0.116724	0.420498	0.583245
	H107	H	0.885336	0.416239	0.391120
	H108	H	0.908800	0.627779	0.085007
	H109	H	0.086474	0.394386	0.084253
	H110	H	0.098674	0.627223	0.896192
	H111	H	0.911807	0.392634	0.895616
	H112	H	0.102856	0.915167	0.607918
	H113	H	0.105744	0.100192	0.371250
	H114	H	0.908878	0.103506	0.606458
	H115	H	0.907686	0.913797	0.372482
	H116	H	0.617631	0.099434	0.898035
	H117	H	0.385494	0.103154	0.083720
	H118	H	0.621220	0.917729	0.095363
	H119	H	0.386209	0.918354	0.890978
	C120	C	0.381883	0.017564	0.611047
	C121	C	0.623830	1.001047	0.611142
	C122	C	0.623529	0.017955	0.368682
	C123	C	0.380898	1.001320	0.368315
	C124	C	0.624280	0.388223	-0.001499
	C125	C	0.623892	0.630860	0.982298
	C126	C	0.379944	0.631207	-0.001734
	C127	C	0.381019	0.388140	0.982604
	C128	C	0.010620	0.631355	0.367464
	C129	C	0.994495	0.631386	0.611594
	C130	C	0.010469	0.388229	0.611572
	C131	C	0.994238	0.387532	0.367529
	C132	C	0.881031	0.517910	0.110817
	C133	C	0.123593	0.501190	0.110887
	C134	C	0.123760	0.517330	0.868263
	C135	C	0.880438	0.501181	0.868700
	C136	C	0.124522	0.888069	0.497712
	C137	C	0.125038	0.131472	0.481476
	C138	C	0.880790	0.130815	0.498152
	C139	C	0.880827	0.887705	0.481378
	C140	C	0.511039	0.131643	0.867698
	C141	C	0.494301	0.130371	0.111556
	C142	C	0.510690	0.888068	0.112189
	C143	C	0.494640	0.887570	0.867718
	C144	C	0.384537	0.894108	0.665838
	C145	C	0.621686	0.124463	0.666118
	C146	C	0.620543	0.894243	0.314016
	C147	C	0.383846	0.124866	0.313444
	C148	C	0.678855	0.390770	0.875428
	C149	C	0.679750	0.629265	0.104790
	C150	C	0.324708	0.628884	0.875660
	C151	C	0.325226	0.389593	0.104895
	C152	C	0.887726	0.685873	0.370820
	C153	C	0.117437	0.686149	0.608222
	C154	C	0.887972	0.332831	0.608123
	C155	C	0.117047	0.332322	0.370653
	C156	C	0.887996	0.389747	0.666774
	C157	C	0.116508	0.630264	0.667874
	C158	C	0.887965	0.628339	0.312672
	C159	C	0.116702	0.389622	0.312239
	C160	C	0.383344	0.685795	0.875170
	C161	C	0.620959	0.685839	0.105252
	C162	C	0.620488	0.333805	0.875311
	C163	C	0.384247	0.332952	0.105354
	C164	C	0.678124	0.894332	0.371161
	C165	C	0.679142	0.124535	0.608609
	C166	C	0.326937	0.894073	0.608408
	C167	C	0.326286	0.124992	0.370880
	C168	C	0.884279	0.394163	0.165182
	C169	C	0.121306	0.624746	0.166029
	C170	C	0.121003	0.394000	0.813493
	C171	C	0.883416	0.625061	0.813614
	C172	C	0.179207	0.890210	0.374873
	C173	C	0.180614	0.129873	0.604023
	C174	C	0.825270	0.128223	0.375432
	C175	C	0.825373	0.889290	0.603915
	C176	C	0.388077	0.186121	0.871324
	C177	C	0.617664	0.184731	0.107603
	C178	C	0.387318	0.833777	0.107603
	C179	C	0.617753	0.832638	0.871220
	C180	C	0.387799	0.890447	0.166658
	C181	C	0.616977	0.128470	0.166814
	C182	C	0.388242	0.128965	0.812717
	C183	C	0.617532	0.890141	0.813022
	C184	C	0.884073	0.185012	0.374961
	C185	C	0.121638	0.186384	0.604269
	C186	C	0.119781	0.833649	0.374363
	C187	C	0.884112	0.832632	0.604389
	C188	C	0.178899	0.393950	0.870473
	C189	C	0.178512	0.624699	0.108426
	C190	C	0.826167	0.394256	0.108374
	C191	C	0.825712	0.625010	0.870985
	C192	C	0.404150	0.104031	0.589040
	C193	C	0.601593	0.914672	0.589000
	C194	C	0.601839	0.104248	0.390820
	C195	C	0.402799	0.914827	0.390227
	C196	C	0.603064	0.410045	0.084571
	C197	C	0.601812	0.608315	0.896566
	C198	C	0.401566	0.609149	0.084083
	C199	C	0.402865	0.410811	0.897270
	C200	C	0.096646	0.609108	0.389480
	C201	C	0.908765	0.609040	0.589769
	C202	C	0.095935	0.410535	0.589912
	C203	C	0.908681	0.409622	0.389174
	C204	C	0.903146	0.604226	0.088708
	C205	C	0.101453	0.414567	0.088933
	C206	C	0.101815	0.603672	0.890517
	C207	C	0.902212	0.414918	0.890450
	C208	C	0.103301	0.910296	0.583520
	C209	C	0.102850	0.108742	0.396014
	C210	C	0.902671	0.108690	0.583690
	C211	C	0.902189	0.909886	0.395691
	C212	C	0.596821	0.109698	0.889196
	C213	C	0.408471	0.108432	0.089992
	C214	C	0.596447	0.909739	0.090959
	C215	C	0.409201	0.909778	0.889308
	Zn216	Zn	0.502827	0.009405	0.739089
	Zn217	Zn	0.502483	0.009504	0.240814
	Zn218	Zn	0.752460	0.509825	-0.009831
	Zn219	Zn	0.251179	0.509032	-0.009833
	Zn220	Zn	0.002350	0.759414	0.489777
	Zn221	Zn	0.002746	0.259268	0.489516
	Zn222	Zn	0.002184	0.509665	0.740509
	Zn223	Zn	0.002716	0.509719	0.238693
	Zn224	Zn	0.502630	0.759088	-0.009994
	Zn225	Zn	0.502809	0.259716	-0.009429
	Zn226	Zn	0.751817	0.009048	0.490021
	Zn227	Zn	0.253584	0.009725	0.489944
	N228	N	0.417647	0.972136	0.667608
	N229	N	0.588014	0.046701	0.667644
	N230	N	0.587099	0.972066	0.312604
	N231	N	0.417196	0.046976	0.311951
	N232	N	0.681206	0.423935	0.952993
	N233	N	0.681767	0.596047	0.027250
	N234	N	0.322460	0.595638	0.953154
	N235	N	0.323097	0.423371	0.027471
	N236	N	0.965145	0.687652	0.404230
	N237	N	0.040447	0.686801	0.574023
	N238	N	0.965273	0.331591	0.574754
	N239	N	0.039869	0.331046	0.404357
	N240	N	0.965077	0.423789	0.668880
	N241	N	0.039161	0.596577	0.669826
	N242	N	0.965380	0.595187	0.310707
	N243	N	0.039559	0.423159	0.310173
	N244	N	0.416962	0.687246	0.952418
	N245	N	0.586678	0.686555	0.028256
	N246	N	0.587297	0.332125	0.952798
	N247	N	0.417790	0.331716	0.028383
	N248	N	0.680124	0.972129	0.404488
	N249	N	0.680638	0.046577	0.575179
	N250	N	0.325205	0.971934	0.574961
	N251	N	0.324285	0.047027	0.404032
	N252	N	0.917633	0.472021	0.166789
	N253	N	0.087825	0.546689	0.167430
	N254	N	0.087753	0.471704	0.811890
	N255	N	0.916783	0.547086	0.812088
	N256	N	0.181952	0.923646	0.452338
	N257	N	0.182902	0.096571	0.526528
	N258	N	0.823017	0.095069	0.452952
	N259	N	0.823156	0.922948	0.526513
	N260	N	0.465252	0.187744	0.904895
	N261	N	0.540476	0.186030	0.073888
	N262	N	0.464607	0.832180	0.074416
	N263	N	0.540439	0.830977	0.904667
	N264	N	0.465471	0.923368	0.169697
	N265	N	0.539524	0.095506	0.169382
	N266	N	0.465793	0.095863	0.810451
	N267	N	0.540286	0.923642	0.810846
	N268	N	0.917801	0.186598	0.452130
	N269	N	0.087769	0.187343	0.527119
	N270	N	0.086691	0.832167	0.451759
	N271	N	0.917554	0.831387	0.527313
	N272	N	0.180693	0.471940	0.904010
	N273	N	0.180139	0.546882	0.075109
	N274	N	0.824164	0.472300	0.075152
	N275	N	0.823673	0.547143	0.904374
	O276	O	0.479421	-0.487951	1.548484
	H277	H	0.480604	-0.486432	1.548749
	H278	H	0.483465	-0.495738	1.546566
	O279	O	0.439455	0.465416	0.581962
	H280	H	0.433820	0.465798	0.587243
	H281	H	0.436166	0.466320	0.590438
	O282	O	-0.565211	0.496922	1.532501
	H283	H	-0.562890	0.495431	1.532930
	H284	H	-0.568754	0.499042	1.541122
	O285	O	0.435052	0.487376	0.564181
	H286	H	0.435697	0.485406	0.572549
	H287	H	0.440801	0.490877	0.553494
	O288	O	0.478137	0.462437	0.541534
	H289	H	0.469590	0.461735	0.545012
	H290	H	0.472429	0.465200	0.540645
	O291	O	0.459400	0.507210	0.591975
	H292	H	0.452930	0.521317	0.584318
	H293	H	0.474324	0.500597	0.591999
	O294	O	0.477879	0.496714	0.541035
	H295	H	0.472419	0.491008	0.544524
	H296	H	0.471559	0.490074	0.543074
	O297	O	1.084049	-0.050922	-0.065267
	H298	H	1.088123	-0.051479	-0.071396
	H299	H	1.087902	-0.054682	-0.063418
