data_Molecule from HDF5

_cell_length_a		16.767729
_cell_length_b		16.613913
_cell_length_c		16.584433
_cell_angle_alpha	90.029773
_cell_angle_beta	89.963694
_cell_angle_gamma	89.967522
_symmetry_space_group_name_H-M	'P 1'
_symmetry_Int_Tables_number		1

loop_
	_symmetry_equiv_pos_as_xyz
	x,y,z

loop_
	_atom_site_label
	_atom_site_type_symbol
	_atom_site_fract_x
	_atom_site_fract_y
	_atom_site_fract_z
	H0	H	0.382467	0.844598	0.727385
	H1	H	0.591933	0.154527	0.726525
	H2	H	0.592095	0.844133	0.285381
	H3	H	0.381993	0.153564	0.283739
	H4	H	0.709849	0.392061	0.850370
	H5	H	0.708832	0.606028	0.160070
	H6	H	0.262943	0.606753	0.853272
	H7	H	0.267814	0.394206	0.162992
	H8	H	0.832296	0.720352	0.401353
	H9	H	0.141045	0.723342	0.612596
	H10	H	0.835721	0.274884	0.614825
	H11	H	0.140511	0.277251	0.399394
	H12	H	0.835396	0.392367	0.730233
	H13	H	0.141023	0.607482	0.729450
	H14	H	0.832818	0.604304	0.284581
	H15	H	0.141973	0.396541	0.285825
	H16	H	0.380037	0.721805	0.852041
	H17	H	0.592814	0.720543	0.160685
	H18	H	0.593680	0.277355	0.850707
	H19	H	0.385997	0.281113	0.163124
	H20	H	0.709970	0.844616	0.398847
	H21	H	0.711664	0.151984	0.614612
	H22	H	0.264805	0.844730	0.613123
	H23	H	0.263302	0.151791	0.397191
	H24	H	0.880923	0.345199	0.228139
	H25	H	0.092316	0.654557	0.227056
	H26	H	0.096542	0.346467	0.780800
	H27	H	0.880669	0.654219	0.782827
	H28	H	0.210831	0.891380	0.352247
	H29	H	0.216161	0.112825	0.655840
	H30	H	0.762592	0.108773	0.352960
	H31	H	0.763852	0.891163	0.659715
	H32	H	0.334387	0.223125	0.898841
	H33	H	0.639266	0.225588	0.116097
	H34	H	0.337237	0.773316	0.116868
	H35	H	0.637958	0.772242	0.894285
	H36	H	0.336836	0.891264	0.231438
	H37	H	0.639570	0.109356	0.231504
	H38	H	0.334123	0.107786	0.782565
	H39	H	0.638912	0.889982	0.779509
	H40	H	0.880670	0.221947	0.351510
	H41	H	0.098482	0.226483	0.656628
	H42	H	0.091921	0.778422	0.350194
	H43	H	0.881252	0.776943	0.660457
	H44	H	0.210986	0.345387	0.898240
	H45	H	0.211250	0.651822	0.115756
	H46	H	0.763904	0.346103	0.113191
	H47	H	0.761302	0.651813	0.894495
	H48	H	0.406051	0.106368	0.587523
	H49	H	0.575213	0.885435	0.601201
	H50	H	0.572226	0.107591	0.423211
	H51	H	0.401145	0.888081	0.415838
	H52	H	0.575786	0.411546	0.116667
	H53	H	0.571425	0.591953	0.892545
	H54	H	0.400653	0.585680	0.116715
	H55	H	0.400855	0.412720	0.895375
	H56	H	0.095766	0.585892	0.418698
	H57	H	0.880000	0.583869	0.591586
	H58	H	0.094836	0.413443	0.587934
	H59	H	0.875247	0.408147	0.416512
	H60	H	0.097471	0.416096	0.595747
	H61	H	0.877770	0.587600	0.597951
	H62	H	0.098536	0.588757	0.411584
	H63	H	0.877270	0.410831	0.420072
	H64	H	0.398952	0.588214	0.118269
	H65	H	0.581303	0.583867	0.892510
	H66	H	0.577596	0.413073	0.116748
	H67	H	0.397124	0.408223	0.893409
	H68	H	0.582156	0.111504	0.420809
	H69	H	0.568366	0.892318	0.589473
	H70	H	0.393682	0.110348	0.587905
	H71	H	0.400930	0.888407	0.421835
	H72	H	0.902216	0.607770	0.090378
	H73	H	0.079549	0.385596	0.094488
	H74	H	0.078426	0.610967	0.920963
	H75	H	0.903700	0.387842	0.912675
	H76	H	0.076049	0.907852	0.618336
	H77	H	0.068664	0.085729	0.396960
	H78	H	0.904146	0.084770	0.614781
	H79	H	0.899564	0.908736	0.393858
	H80	H	0.599103	0.090125	0.914236
	H81	H	0.378612	0.086927	0.092860
	H82	H	0.597167	0.910215	0.092431
	H83	H	0.381056	0.916448	0.922426
	H84	H	0.597359	0.911992	0.091879
	H85	H	0.377814	0.087978	0.096337
	H86	H	0.596685	0.089948	0.920002
	H87	H	0.375794	0.913541	0.913401
	H88	H	0.898472	0.089605	0.618364
	H89	H	0.078406	0.089363	0.392432
	H90	H	0.079490	0.914717	0.617542
	H91	H	0.895275	0.910503	0.393296
	H92	H	0.073225	0.610545	0.916921
	H93	H	0.075607	0.386312	0.097110
	H94	H	0.894724	0.611165	0.090972
	H95	H	0.903156	0.392479	0.924962
	H96	H	0.400769	0.111743	0.598368
	H97	H	0.582320	0.886405	0.587536
	H98	H	0.574285	0.112418	0.413636
	H99	H	0.396206	0.887459	0.418773
	H100	H	0.575447	0.413840	0.116709
	H101	H	0.570476	0.580058	0.897361
	H102	H	0.397577	0.585417	0.118006
	H103	H	0.394708	0.413894	0.894684
	H104	H	0.098686	0.593025	0.418610
	H105	H	0.877432	0.591126	0.591231
	H106	H	0.098789	0.407619	0.593112
	H107	H	0.876775	0.412854	0.415663
	H108	H	0.900077	0.612163	0.097361
	H109	H	0.076082	0.389008	0.092910
	H110	H	0.072723	0.607540	0.922774
	H111	H	0.893256	0.387561	0.919330
	H112	H	0.072163	0.913620	0.614999
	H113	H	0.077148	0.079107	0.395708
	H114	H	0.896617	0.081999	0.616419
	H115	H	0.898889	0.912691	0.395041
	H116	H	0.597084	0.084974	0.916203
	H117	H	0.377841	0.090532	0.093834
	H118	H	0.597659	0.911607	0.093436
	H119	H	0.377352	0.906517	0.921024
	C120	C	0.366482	0.007497	0.625847
	C121	C	0.608369	0.990363	0.626589
	C122	C	0.608773	0.008080	0.385511
	C123	C	0.366383	0.990120	0.384716
	C124	C	0.609097	0.378603	0.014430
	C125	C	0.607740	0.619621	0.996370
	C126	C	0.365645	0.620048	0.015297
	C127	C	0.366947	0.379256	0.998179
	C128	C	-0.004358	0.621326	0.384055
	C129	C	0.979475	0.621513	0.627524
	C130	C	-0.003488	0.378235	0.627089
	C131	C	0.978396	0.378201	0.384241
	C132	C	0.865996	0.508143	0.126477
	C133	C	0.109109	0.489715	0.127706
	C134	C	0.108795	0.507966	0.885521
	C135	C	0.866344	0.491003	0.884612
	C136	C	0.108323	0.878470	0.514591
	C137	C	0.109089	0.120001	0.496228
	C138	C	0.866533	0.119853	0.514453
	C139	C	0.865794	0.877892	0.497002
	C140	C	0.496164	0.121635	0.884112
	C141	C	0.479098	0.121534	0.127771
	C142	C	0.496725	0.877904	0.127049
	C143	C	0.478678	0.877752	0.884050
	C144	C	0.363833	0.891120	0.687201
	C145	C	0.610664	0.107389	0.686996
	C146	C	0.610937	0.891012	0.325100
	C147	C	0.363409	0.106709	0.323806
	C148	C	0.669745	0.374506	0.897468
	C149	C	0.668700	0.623655	0.113150
	C150	C	0.303830	0.624286	0.899371
	C151	C	0.308080	0.376801	0.115900
	C152	C	0.878954	0.680554	0.382606
	C153	C	0.094876	0.682681	0.630579
	C154	C	0.881620	0.316170	0.631793
	C155	C	0.094495	0.318039	0.381742
	C156	C	0.881348	0.374565	0.689208
	C157	C	0.094943	0.625076	0.688696
	C158	C	0.879193	0.622939	0.324422
	C159	C	0.095027	0.377196	0.325219
	C160	C	0.361875	0.681343	0.898778
	C161	C	0.610679	0.680560	0.113521
	C162	C	0.611718	0.317620	0.897505
	C163	C	0.366704	0.320381	0.116150
	C164	C	0.669264	0.891309	0.381722
	C165	C	0.669932	0.106278	0.631207
	C166	C	0.305512	0.891285	0.630265
	C167	C	0.304475	0.105878	0.380003
	C168	C	0.862931	0.391716	0.187650
	C169	C	0.110859	0.607017	0.187640
	C170	C	0.113299	0.392359	0.822566
	C171	C	0.862746	0.607137	0.823009
	C172	C	0.169787	0.874287	0.398132
	C173	C	0.173492	0.127894	0.610514
	C174	C	0.804151	0.125270	0.398829
	C175	C	0.804964	0.874189	0.613420
	C176	C	0.380829	0.182953	0.881057
	C177	C	0.593837	0.183850	0.132523
	C178	C	0.382552	0.815192	0.132938
	C179	C	0.592598	0.813957	0.877883
	C180	C	0.382466	0.873729	0.190090
	C181	C	0.593876	0.126032	0.190113
	C182	C	0.380549	0.125229	0.823188
	C183	C	0.592862	0.872448	0.820749
	C184	C	0.862882	0.181575	0.398163
	C185	C	0.115106	0.184639	0.610814
	C186	C	0.110730	0.818297	0.397337
	C187	C	0.863225	0.817251	0.613837
	C188	C	0.170476	0.392002	0.880646
	C189	C	0.170013	0.606013	0.131931
	C190	C	0.804786	0.392117	0.130572
	C191	C	0.803499	0.606333	0.878807
	C192	C	0.392732	0.088615	0.598939
	C193	C	0.582770	0.909258	0.600266
	C194	C	0.583440	0.089349	0.411692
	C195	C	0.392203	0.909204	0.411144
	C196	C	0.583680	0.405177	0.095549
	C197	C	0.581813	0.592977	0.915260
	C198	C	0.391699	0.593912	0.096582
	C199	C	0.390821	0.404304	0.915961
	C200	C	0.076539	0.596442	0.409198
	C201	C	0.899438	0.595031	0.601221
	C202	C	0.076275	0.404747	0.599892
	C203	C	0.897637	0.403474	0.410126
	C204	C	0.891799	0.589219	0.100456
	C205	C	0.084172	0.408247	0.101975
	C206	C	0.082298	0.588678	0.912675
	C207	C	0.892441	0.410274	0.911492
	C208	C	0.083021	0.904722	0.595916
	C209	C	0.082246	0.092367	0.415848
	C210	C	0.892412	0.093043	0.595264
	C211	C	0.890838	0.903535	0.415239
	C212	C	0.576608	0.095575	0.909593
	C213	C	0.399001	0.095597	0.101741
	C214	C	0.576705	0.904086	0.100177
	C215	C	0.398895	0.904686	0.911312
	Zn216	Zn	0.486840	-0.000489	0.755292
	Zn217	Zn	0.488445	-0.000330	0.256527
	Zn218	Zn	0.737320	0.499569	0.005011
	Zn219	Zn	0.237303	0.498840	0.007101
	Zn220	Zn	-0.012467	0.750056	0.505855
	Zn221	Zn	-0.012567	0.248501	0.505436
	Zn222	Zn	-0.011604	0.499761	0.756310
	Zn223	Zn	-0.013171	0.499463	0.255058
	Zn224	Zn	0.486869	0.748427	0.005702
	Zn225	Zn	0.487911	0.250328	0.006438
	Zn226	Zn	0.737827	-0.000754	0.506002
	Zn227	Zn	0.237276	-0.001401	0.505697
	N228	N	0.400879	0.964593	0.684712
	N229	N	0.572982	0.034195	0.684408
	N230	N	0.574039	0.964765	0.327261
	N231	N	0.400958	0.033572	0.326339
	N232	N	0.668504	0.411565	0.971317
	N233	N	0.667264	0.586486	0.039209
	N234	N	0.305895	0.587056	0.973059
	N235	N	0.307814	0.412465	0.041359
	N236	N	0.952496	0.679909	0.418917
	N237	N	0.021974	0.680664	0.593231
	N238	N	0.954227	0.318172	0.593941
	N239	N	0.020702	0.318227	0.417574
	N240	N	0.953923	0.412406	0.686637
	N241	N	0.022046	0.587936	0.687091
	N242	N	0.952863	0.587116	0.324904
	N243	N	0.021622	0.413504	0.326391
	N244	N	0.399684	0.678913	0.972081
	N245	N	0.573717	0.678553	0.039664
	N246	N	0.574647	0.319754	0.971348
	N247	N	0.402552	0.321458	0.041714
	N248	N	0.668278	0.965230	0.418475
	N249	N	0.668672	0.032443	0.594287
	N250	N	0.306873	0.965068	0.592992
	N251	N	0.306121	0.032144	0.417419
	N252	N	0.900535	0.464840	0.185025
	N253	N	0.073574	0.533597	0.185298
	N254	N	0.075605	0.465591	0.825410
	N255	N	0.901378	0.534438	0.826478
	N256	N	0.168745	0.910812	0.472295
	N257	N	0.169943	0.088228	0.538064
	N258	N	0.806037	0.087560	0.472253
	N259	N	0.806244	0.911047	0.539505
	N260	N	0.453882	0.181103	0.918177
	N261	N	0.521477	0.181213	0.094370
	N262	N	0.454712	0.817598	0.094321
	N263	N	0.520406	0.817113	0.916706
	N264	N	0.454546	0.912181	0.186571
	N265	N	0.521584	0.087709	0.187305
	N266	N	0.453472	0.087734	0.824667
	N267	N	0.521068	0.911740	0.824625
	N268	N	0.900967	0.178465	0.471194
	N269	N	0.075548	0.179822	0.538833
	N270	N	0.073331	0.820670	0.470781
	N271	N	0.900227	0.819306	0.540138
	N272	N	0.167768	0.464931	0.919228
	N273	N	0.169259	0.531881	0.095465
	N274	N	0.806657	0.465512	0.092819
	N275	N	0.805629	0.532950	0.916570
	O276	O	0.032438	1.043019	-0.132837
	H277	H	0.039669	1.054367	-0.122717
	H278	H	0.039086	1.051222	-0.121518
	O279	O	0.261333	0.717105	0.478628
	H280	H	0.255784	0.736982	0.462624
	H281	H	0.259824	0.730702	0.457611
	O282	O	0.762020	0.217781	0.984472
	H283	H	0.765903	0.240086	0.990801
	H284	H	0.765899	0.228023	0.991652
	O285	O	0.508092	0.647166	0.374049
	H286	H	0.516342	0.627429	0.380923
	H287	H	0.493886	0.642912	0.393387
	O288	O	0.195088	0.212045	0.212936
	H289	H	0.178016	0.179457	0.218474
	H290	H	0.206331	0.236213	0.240152
	O291	O	0.378603	0.281720	0.475384
	H292	H	0.367812	0.276753	0.506276
	H293	H	0.414049	0.280817	0.479958
	O294	O	1.464223	0.462208	0.281147
	H295	H	1.461023	0.450499	0.278363
	H296	H	1.446245	0.448171	0.278852
	O297	O	0.273521	0.351031	0.548124
	H298	H	0.277103	0.351657	0.551311
	H299	H	0.277237	0.346608	0.548118
	O300	O	0.044898	0.233732	0.946244
	H301	H	0.067079	0.234646	0.951530
	H302	H	0.061012	0.228628	0.937354
	O303	O	0.699775	0.706631	0.714507
	H304	H	0.676446	0.700510	0.704131
	H305	H	0.728672	0.740854	0.747320
	O306	O	0.390294	0.482706	0.531566
	H307	H	0.383107	0.474558	0.550774
	H308	H	0.400057	0.492666	0.529369
	O309	O	0.325037	0.583181	0.498467
	H310	H	0.327504	0.585161	0.487160
	H311	H	0.315451	0.579679	0.489614
	O312	O	0.930390	0.873368	-0.010114
	H313	H	0.928606	0.871809	-0.034904
	H314	H	0.921971	0.870010	-0.011687
	O315	O	0.794272	0.810228	0.815701
	H316	H	0.810639	0.834202	0.829475
	H317	H	0.809466	0.827216	0.833016
	O318	O	0.302157	0.564485	0.464908
	H319	H	0.308374	0.571575	0.458838
	H320	H	0.300767	0.572970	0.463586
	O321	O	-0.121550	0.968968	0.996760
	H322	H	-0.120430	0.974902	0.996467
	H323	H	-0.133566	0.978736	0.995885
	O324	O	1.046464	0.988526	0.007929
	H325	H	1.057878	0.983667	0.011764
	H326	H	1.038101	0.985967	-0.005797
	O327	O	0.200685	-0.215764	0.790907
	H328	H	0.208223	-0.179819	0.805269
	H329	H	0.233512	-0.244239	0.760806
	O330	O	0.605427	0.356668	0.342646
	H331	H	0.594272	0.349018	0.335527
	H332	H	0.607637	0.343960	0.328032
	O333	O	0.543317	0.415191	0.719079
	H334	H	0.561927	0.425614	0.711122
	H335	H	0.567757	0.401129	0.716378
	O336	O	0.734300	0.245752	0.253886
	H337	H	0.746774	0.248861	0.243916
	H338	H	0.757812	0.236908	0.235864
	O339	O	0.751726	-0.019468	0.861594
	H340	H	0.734660	-0.016989	0.849345
	H341	H	0.754294	-0.007581	0.878318
	O342	O	-0.098189	0.186587	-0.020080
	H343	H	-0.086991	0.180337	-0.018921
	H344	H	-0.074737	0.189677	-0.017668
	O345	O	0.214779	0.776569	0.989968
	H346	H	0.220256	0.753875	0.980001
	H347	H	0.213235	0.771250	0.973025
	O348	O	0.524159	0.490683	0.541909
	H349	H	0.535851	0.498549	0.542516
	H350	H	0.531424	0.500034	0.547605
	O351	O	0.298466	0.311675	0.322358
	H352	H	0.292260	0.326976	0.344131
	H353	H	0.321434	0.311323	0.339405
	O354	O	-0.112161	-0.000890	0.936122
	H355	H	-0.119717	-0.013455	0.938229
	H356	H	-0.107741	-0.000713	0.936496
	O357	O	0.275135	0.705594	0.296942
	H358	H	0.262874	0.734751	0.268714
	H359	H	0.305696	0.698236	0.303611
	O360	O	0.448745	0.283520	0.713461
	H361	H	0.466910	0.280080	0.726230
	H362	H	0.470408	0.277625	0.718077
	O363	O	0.063484	0.160689	0.002595
	H364	H	0.077136	0.151013	0.012200
	H365	H	0.072620	0.176734	0.024410
	O366	O	0.510210	0.295036	0.546866
	H367	H	0.522122	0.309632	0.555598
	H368	H	0.523327	0.296205	0.546319
	O369	O	1.209094	-0.024690	-0.216831
	H370	H	1.210333	-0.030405	-0.228276
	H371	H	1.219086	-0.017365	-0.217783
	O372	O	0.960684	1.221354	-0.216563
	H373	H	0.964568	1.251387	-0.244254
	H374	H	0.979733	1.204749	-0.206125
	O375	O	0.746321	0.057471	0.064225
	H376	H	0.753018	0.052855	0.083480
	H377	H	0.740726	0.071168	0.061828
	O378	O	0.707176	0.277917	0.490223
	H379	H	0.707369	0.267443	0.477018
	H380	H	0.713430	0.267378	0.462984
	O381	O	0.305437	0.686911	0.694221
	H382	H	0.330078	0.660392	0.689748
	H383	H	0.314949	0.674732	0.668747
	O384	O	1.173874	0.183800	0.815081
	H385	H	1.184209	0.191109	0.799877
	H386	H	1.182637	0.184959	0.812247
	O387	O	0.760982	0.976926	0.231540
	H388	H	0.760618	0.972545	0.247223
	H389	H	0.753982	0.958891	0.239584
	O390	O	0.210770	0.028196	0.221628
	H391	H	0.220566	0.027993	0.236042
	H392	H	0.221644	0.026717	0.210595
	O393	O	0.617428	0.456029	0.495719
	H394	H	0.613936	0.463232	0.505887
	H395	H	0.612411	0.452057	0.508988
	O396	O	0.021584	1.224244	1.225815
	H397	H	0.016278	1.232149	1.254515
	H398	H	0.030462	1.214168	1.232771
	O399	O	-0.046155	-0.226010	1.228335
	H400	H	-0.052367	-0.244756	1.228986
	H401	H	-0.048299	-0.245360	1.232049
	O402	O	0.444946	0.652040	0.401977
	H403	H	0.454473	0.645649	0.394568
	H404	H	0.457212	0.654104	0.403503
	O405	O	0.860711	0.152202	1.195320
	H406	H	0.878107	0.140345	1.185418
	H407	H	0.870902	0.137326	1.184463
	O408	O	0.217638	0.139479	-0.009611
	H409	H	0.227397	0.162227	-0.002719
	H410	H	0.214948	0.151734	-0.011726
	O411	O	0.669386	0.313128	0.692534
	H412	H	0.700740	0.286426	0.710304
	H413	H	0.677685	0.321506	0.669756
	O414	O	0.854688	-0.024694	1.071593
	H415	H	0.865763	-0.008998	1.054024
	H416	H	0.870070	-0.020757	1.071881
	O417	O	0.265299	0.514661	0.313283
	H418	H	0.249905	0.516666	0.303039
	H419	H	0.263775	0.536447	0.313889
	O420	O	-0.019192	-0.057840	-0.018528
	H421	H	-0.015251	-0.070824	-0.022112
	H422	H	-0.016572	-0.049014	-0.011217
	O423	O	0.026679	0.005169	1.230439
	H424	H	0.039557	-0.002225	1.225706
	H425	H	0.029361	-0.017443	1.230708
	O426	O	0.476541	0.679406	0.704044
	H427	H	0.478081	0.675739	0.696462
	H428	H	0.489725	0.677996	0.716319
	O429	O	1.130158	0.883078	0.914325
	H430	H	1.126562	0.879545	0.915449
	H431	H	1.125205	0.887850	0.912868
	O432	O	0.622665	0.643335	0.528926
	H433	H	0.622462	0.640553	0.534137
	H434	H	0.641751	0.641619	0.528686
	O435	O	0.507871	0.714848	0.606432
	H436	H	0.502529	0.718169	0.602011
	H437	H	0.507077	0.703506	0.619757
	O438	O	0.111036	0.125632	0.098554
	H439	H	0.118456	0.132118	0.106913
	H440	H	0.113288	0.117527	0.120626
	O441	O	0.593924	0.364079	0.310295
	H442	H	0.609104	0.361324	0.317187
	H443	H	0.602523	0.357501	0.285121
	O444	O	0.480309	0.409886	0.354058
	H445	H	0.471586	0.406257	0.342546
	H446	H	0.489772	0.407491	0.358192
	O447	O	0.183182	0.813332	1.196162
	H448	H	0.172075	0.825959	1.167363
	H449	H	0.178648	0.824243	1.186314
	O450	O	-0.073088	0.951876	0.869977
	H451	H	-0.069321	0.937143	0.873047
	H452	H	-0.081697	0.962174	0.874367
	O453	O	0.270179	0.469800	0.721316
	H454	H	0.247248	0.473940	0.746080
	H455	H	0.269087	0.474813	0.695839
	O456	O	-0.008554	-0.116416	0.854052
	H457	H	0.012650	-0.121669	0.852192
	H458	H	-0.014720	-0.117074	0.842329
	O459	O	0.762082	0.774665	0.023679
	H460	H	0.733995	0.748178	0.040174
	H461	H	0.762766	0.792187	0.035210
	O462	O	0.686498	0.506385	0.351884
	H463	H	0.690484	0.518653	0.355888
	H464	H	0.675106	0.503461	0.363253
	O465	O	1.280241	0.292218	-0.285466
	H466	H	1.279585	0.325815	-0.303480
	H467	H	1.325735	0.294048	-0.284797
	O468	O	0.498967	0.707042	0.390669
	H469	H	0.503652	0.720199	0.395036
	H470	H	0.489087	0.692415	0.400366
	O471	O	0.437267	0.505199	0.697238
	H472	H	0.441511	0.504116	0.703679
	H473	H	0.439286	0.492403	0.697355
	O474	O	0.677547	0.678519	0.317529
	H475	H	0.654047	0.668193	0.331974
	H476	H	0.668873	0.667813	0.326616
	O477	O	0.668102	0.539156	1.501791
	H478	H	0.672376	0.540648	1.491924
	H479	H	0.663566	0.531249	1.501634
	O480	O	0.779452	0.789706	0.209784
	H481	H	0.795910	0.812103	0.208215
	H482	H	0.760192	0.768187	0.224036
	O483	O	0.706496	0.532445	0.723164
	H484	H	0.722515	0.536147	0.716534
	H485	H	0.727233	0.551339	0.739126
	O486	O	0.974686	0.014008	0.849988
	H487	H	0.971649	-0.003705	0.842573
	H488	H	0.984793	0.020601	0.850788
	O489	O	1.225204	0.938048	0.064893
	H490	H	1.226880	0.921583	0.055107
	H491	H	1.230537	0.947913	0.049244
	O492	O	-0.225461	0.212907	-0.208895
	H493	H	-0.195930	0.201614	-0.200168
	H494	H	-0.213636	0.203763	-0.177580
	O495	O	0.033597	0.812600	1.101334
	H496	H	0.035624	0.809077	1.096395
	H497	H	0.029630	0.808912	1.073359
	O498	O	1.002878	0.779283	0.931831
	H499	H	1.013163	0.783566	0.921006
	H500	H	0.987909	0.769926	0.920654
	O501	O	0.718719	0.537062	0.551518
	H502	H	0.717988	0.544491	0.537392
	H503	H	0.717952	0.525121	0.565627
