data_Molecule from HDF5

_cell_length_a		16.254883
_cell_length_b		16.259779
_cell_length_c		16.303289
_cell_angle_alpha	89.872072
_cell_angle_beta	90.267512
_cell_angle_gamma	89.841084
_symmetry_space_group_name_H-M	'P 1'
_symmetry_Int_Tables_number		1

loop_
	_symmetry_equiv_pos_as_xyz
	x,y,z

loop_
	_atom_site_label
	_atom_site_type_symbol
	_atom_site_fract_x
	_atom_site_fract_y
	_atom_site_fract_z
	H0	H	0.395126	0.839310	0.716787
	H1	H	0.592769	0.166375	0.714751
	H2	H	0.593949	0.838629	0.286570
	H3	H	0.394549	0.166044	0.286295
	H4	H	0.707531	0.404941	0.837374
	H5	H	0.708912	0.599006	0.165066
	H6	H	0.279285	0.599258	0.837129
	H7	H	0.281331	0.403293	0.164874
	H8	H	0.830490	0.716365	0.400881
	H9	H	0.158171	0.714568	0.600596
	H10	H	0.829607	0.287729	0.597951
	H11	H	0.158200	0.286266	0.403870
	H12	H	0.830424	0.402335	0.715194
	H13	H	0.158016	0.599982	0.717146
	H14	H	0.830960	0.601540	0.285066
	H15	H	0.158332	0.402330	0.287762
	H16	H	0.391982	0.719109	0.838113
	H17	H	0.594148	0.716699	0.165058
	H18	H	0.593146	0.287510	0.837247
	H19	H	0.398808	0.288501	0.164989
	H20	H	0.708575	0.837341	0.404125
	H21	H	0.710188	0.165350	0.600608
	H22	H	0.283205	0.837316	0.598315
	H23	H	0.278148	0.165546	0.401609
	H24	H	0.895193	0.338267	0.215764
	H25	H	0.092954	0.665889	0.215993
	H26	H	0.091977	0.337751	0.788655
	H27	H	0.894453	0.665746	0.785410
	H28	H	0.209048	0.902313	0.337576
	H29	H	0.208804	0.097729	0.664961
	H30	H	0.778154	0.100236	0.338344
	H31	H	0.781361	0.901714	0.665104
	H32	H	0.330111	0.215389	0.903434
	H33	H	0.658837	0.215160	0.100393
	H34	H	0.329410	0.789499	0.098726
	H35	H	0.658008	0.788259	0.905758
	H36	H	0.330105	0.903770	0.215513
	H37	H	0.658242	0.100696	0.216183
	H38	H	0.330424	0.101861	0.785910
	H39	H	0.658109	0.903145	0.788010
	H40	H	0.893174	0.217332	0.337928
	H41	H	0.093911	0.215234	0.664986
	H42	H	0.092561	0.785847	0.337439
	H43	H	0.898064	0.786751	0.665171
	H44	H	0.207770	0.337640	0.904487
	H45	H	0.209849	0.665495	0.100604
	H46	H	0.781652	0.337675	0.098437
	H47	H	0.779368	0.666246	0.902127
	H48	H	0.398693	0.117708	0.587333
	H49	H	0.590137	0.885765	0.591729
	H50	H	0.583364	0.118803	0.403940
	H51	H	0.406979	0.887517	0.411048
	H52	H	0.578056	0.404388	0.115624
	H53	H	0.591780	0.596199	0.883667
	H54	H	0.401094	0.595074	0.117322
	H55	H	0.403086	0.413822	0.886581
	H56	H	0.110538	0.594186	0.410721
	H57	H	0.879842	0.585310	0.594699
	H58	H	0.113828	0.400513	0.599703
	H59	H	0.877114	0.408463	0.406703
	H60	H	0.108397	0.407042	0.587295
	H61	H	0.874185	0.598214	0.600311
	H62	H	0.109763	0.590753	0.408880
	H63	H	0.878377	0.409354	0.408618
	H64	H	0.402077	0.592868	0.116069
	H65	H	0.582322	0.589941	0.888267
	H66	H	0.596704	0.401153	0.121550
	H67	H	0.403767	0.403545	0.883858
	H68	H	0.584227	0.115578	0.413374
	H69	H	0.589975	0.883098	0.599632
	H70	H	0.396951	0.121644	0.597608
	H71	H	0.397641	0.885620	0.410688
	H72	H	0.898681	0.614888	0.079738
	H73	H	0.085430	0.387410	0.090310
	H74	H	0.087017	0.620126	0.903242
	H75	H	0.900975	0.385678	0.906539
	H76	H	0.091030	0.912753	0.615290
	H77	H	0.095170	0.097773	0.381350
	H78	H	0.900676	0.083074	0.614525
	H79	H	0.898860	0.905984	0.384224
	H80	H	0.612532	0.096810	0.906348
	H81	H	0.377721	0.097402	0.090932
	H82	H	0.610074	0.910191	0.094032
	H83	H	0.378393	0.909918	0.910647
	H84	H	0.611166	0.908273	0.096449
	H85	H	0.377862	0.093257	0.093693
	H86	H	0.611488	0.095599	0.909187
	H87	H	0.377217	0.913496	0.906635
	H88	H	0.912949	0.098958	0.616470
	H89	H	0.086092	0.084017	0.388245
	H90	H	0.082852	0.904200	0.616091
	H91	H	0.900004	0.911093	0.385500
	H92	H	0.081001	0.616952	0.909890
	H93	H	0.092955	0.384003	0.094453
	H94	H	0.889442	0.624436	0.101707
	H95	H	0.900659	0.385495	0.908763
	H96	H	0.407545	0.117917	0.594069
	H97	H	0.583280	0.887123	0.596011
	H98	H	0.592226	0.119452	0.408159
	H99	H	0.403832	0.884091	0.402408
	H100	H	0.591358	0.418772	0.115064
	H101	H	0.581873	0.601231	0.885085
	H102	H	0.403962	0.594994	0.116225
	H103	H	0.395079	0.409392	0.883061
	H104	H	0.111259	0.593539	0.406934
	H105	H	0.878726	0.597803	0.585324
	H106	H	0.110360	0.414662	0.599699
	H107	H	0.878389	0.410652	0.406714
	H108	H	0.914561	0.617032	0.100372
	H109	H	0.084910	0.384573	0.099198
	H110	H	0.090314	0.618695	0.911905
	H111	H	0.898978	0.384696	0.907445
	H112	H	0.093882	0.902676	0.620185
	H113	H	0.077793	0.099628	0.385938
	H114	H	0.894255	0.100163	0.621456
	H115	H	0.904189	0.907023	0.385400
	H116	H	0.611678	0.093782	0.906476
	H117	H	0.376317	0.097468	0.095885
	H118	H	0.609823	0.907429	0.093582
	H119	H	0.376029	0.907983	0.905521
	C120	C	0.372782	0.010704	0.622159
	C121	C	0.616526	0.993553	0.623636
	C122	C	0.615970	0.010030	0.379862
	C123	C	0.372879	0.993702	0.379008
	C124	C	0.616510	0.379998	0.009320
	C125	C	0.615031	0.623892	0.993068
	C126	C	0.372314	0.623646	0.009073
	C127	C	0.372914	0.380197	0.992662
	C128	C	0.002510	0.622698	0.379509
	C129	C	0.986107	0.622441	0.622481
	C130	C	0.002232	0.379338	0.622958
	C131	C	0.985813	0.379821	0.379028
	C132	C	0.872795	0.510474	0.122354
	C133	C	0.116337	0.493672	0.123330
	C134	C	0.114612	0.510143	0.880289
	C135	C	0.871304	0.493670	0.878512
	C136	C	0.117372	0.878169	0.509350
	C137	C	0.115642	0.122334	0.492899
	C138	C	0.873015	0.122906	0.509605
	C139	C	0.873335	0.879194	0.493402
	C140	C	0.503029	0.123873	0.878910
	C141	C	0.486005	0.123823	0.122607
	C142	C	0.502276	0.880365	0.123407
	C143	C	0.485473	0.881299	0.879795
	C144	C	0.375195	0.887961	0.678329
	C145	C	0.613300	0.117321	0.677169
	C146	C	0.613975	0.887264	0.324534
	C147	C	0.374307	0.117158	0.324045
	C148	C	0.670346	0.383375	0.886073
	C149	C	0.671179	0.620474	0.116129
	C150	C	0.316736	0.620692	0.886056
	C151	C	0.319124	0.383018	0.116023
	C152	C	0.879486	0.678772	0.380760
	C153	C	0.109220	0.677084	0.620674
	C154	C	0.878774	0.325308	0.619046
	C155	C	0.109157	0.324134	0.382754
	C156	C	0.879226	0.382229	0.677352
	C157	C	0.109069	0.620071	0.678656
	C158	C	0.879627	0.621297	0.323326
	C159	C	0.109262	0.381849	0.325042
	C160	C	0.373097	0.679970	0.886495
	C161	C	0.613648	0.678426	0.116445
	C162	C	0.613374	0.325090	0.886209
	C163	C	0.377434	0.325797	0.116058
	C164	C	0.670793	0.886500	0.383157
	C165	C	0.671570	0.116856	0.620318
	C166	C	0.319021	0.886961	0.619825
	C167	C	0.316576	0.116740	0.381348
	C168	C	0.875597	0.387144	0.177428
	C169	C	0.113817	0.616769	0.178549
	C170	C	0.112547	0.386638	0.825969
	C171	C	0.873828	0.616736	0.823194
	C172	C	0.171653	0.881146	0.386380
	C173	C	0.170946	0.118821	0.616154
	C174	C	0.816762	0.120641	0.386846
	C175	C	0.819213	0.881718	0.616380
	C176	C	0.379402	0.178803	0.881816
	C177	C	0.609750	0.177606	0.120226
	C178	C	0.378714	0.826105	0.120349
	C179	C	0.608927	0.825936	0.883822
	C180	C	0.379090	0.883124	0.178196
	C181	C	0.609320	0.120752	0.178150
	C182	C	0.379534	0.122172	0.823606
	C183	C	0.609024	0.883340	0.825738
	C184	C	0.873816	0.178809	0.386637
	C185	C	0.114077	0.177439	0.616051
	C186	C	0.113832	0.823384	0.386297
	C187	C	0.876563	0.823807	0.616065
	C188	C	0.169809	0.386651	0.883715
	C189	C	0.171346	0.616888	0.120779
	C190	C	0.818944	0.386768	0.119222
	C191	C	0.816645	0.617166	0.881223
	C192	C	0.394723	0.097029	0.599630
	C193	C	0.594320	0.907586	0.602132
	C194	C	0.593315	0.095810	0.402008
	C195	C	0.396128	0.907911	0.401415
	C196	C	0.595103	0.401702	0.095097
	C197	C	0.592194	0.602247	0.907772
	C198	C	0.395642	0.600833	0.094471
	C199	C	0.394375	0.402395	0.906683
	C200	C	0.088318	0.599613	0.402466
	C201	C	0.899890	0.600378	0.600072
	C202	C	0.088706	0.400934	0.601580
	C203	C	0.900087	0.402760	0.400842
	C204	C	0.894506	0.596659	0.100346
	C205	C	0.094351	0.407639	0.101226
	C206	C	0.092494	0.596363	0.901902
	C207	C	0.893523	0.407507	0.901069
	C208	C	0.095572	0.900104	0.595082
	C209	C	0.093035	0.100457	0.407335
	C210	C	0.895959	0.100539	0.595184
	C211	C	0.894531	0.901565	0.407316
	C212	C	0.589597	0.101764	0.900834
	C213	C	0.399581	0.102281	0.100203
	C214	C	0.588268	0.902102	0.101253
	C215	C	0.399473	0.903723	0.901374
	Zn216	Zn	0.494262	0.002690	0.750714
	Zn217	Zn	0.494153	0.002535	0.251156
	Zn218	Zn	0.744357	0.502097	0.000908
	Zn219	Zn	0.243814	0.501955	0.001206
	Zn220	Zn	-0.005412	0.750460	0.500821
	Zn221	Zn	-0.005768	0.251299	0.501160
	Zn222	Zn	-0.006088	0.501470	0.751240
	Zn223	Zn	-0.005501	0.501933	0.250755
	Zn224	Zn	0.493470	0.752569	0.002090
	Zn225	Zn	0.494891	0.251322	0.000775
	Zn226	Zn	0.744439	0.001245	0.501911
	Zn227	Zn	0.245002	0.001158	0.500908
	N228	N	0.407840	0.966052	0.679909
	N229	N	0.579823	0.039744	0.679399
	N230	N	0.580517	0.965064	0.322576
	N231	N	0.408501	0.039602	0.322406
	N232	N	0.672450	0.416805	0.963328
	N233	N	0.672014	0.586942	0.038651
	N234	N	0.316356	0.586371	0.963132
	N235	N	0.316247	0.416157	0.038296
	N236	N	0.956889	0.679718	0.415130
	N237	N	0.031640	0.678408	0.586440
	N238	N	0.956544	0.323345	0.586187
	N239	N	0.031346	0.322754	0.415622
	N240	N	0.957137	0.415239	0.679737
	N241	N	0.031363	0.586781	0.679909
	N242	N	0.957187	0.587318	0.322398
	N243	N	0.031596	0.415620	0.322577
	N244	N	0.407234	0.681708	0.964007
	N245	N	0.579434	0.680735	0.039150
	N246	N	0.580387	0.323132	0.963741
	N247	N	0.410253	0.324095	0.038448
	N248	N	0.672241	0.963860	0.416952
	N249	N	0.673695	0.038831	0.587736
	N250	N	0.317824	0.964270	0.585282
	N251	N	0.315539	0.038984	0.414685
	N252	N	0.908412	0.464926	0.179408
	N253	N	0.080355	0.539120	0.180051
	N254	N	0.078876	0.464392	0.823836
	N255	N	0.907015	0.538836	0.821437
	N256	N	0.173795	0.914553	0.463805
	N257	N	0.172292	0.085396	0.538792
	N258	N	0.816346	0.086393	0.464099
	N259	N	0.816941	0.915456	0.538889
	N260	N	0.457248	0.180070	0.915411
	N261	N	0.531994	0.179460	0.086337
	N262	N	0.456307	0.824248	0.087157
	N263	N	0.531140	0.824468	0.916664
	N264	N	0.456850	0.916233	0.180140
	N265	N	0.531220	0.088221	0.179765
	N266	N	0.457367	0.088770	0.821836
	N267	N	0.531262	0.916829	0.822966
	N268	N	0.907933	0.180421	0.464002
	N269	N	0.080179	0.179679	0.538525
	N270	N	0.081039	0.821306	0.463897
	N271	N	0.909716	0.822500	0.538620
	N272	N	0.171495	0.464474	0.916631
	N273	N	0.173126	0.539348	0.087271
	N274	N	0.817034	0.464642	0.085725
	N275	N	0.815073	0.539572	0.914776
	O276	O	0.430721	0.540352	0.422559
	H277	H	0.424800	0.556843	0.427362
	H278	H	0.428617	0.544006	0.410970
	O279	O	0.514318	0.492307	0.573946
	H280	H	0.522333	0.500150	0.571385
	H281	H	0.517226	0.487813	0.576245
	O282	O	0.494888	0.527419	0.440973
	H283	H	0.503030	0.527636	0.437565
	H284	H	0.491502	0.530835	0.428164
	O285	O	0.470973	0.548126	1.434201
	H286	H	0.466810	0.549730	1.422467
	H287	H	0.465321	0.559787	1.433724
	O288	O	0.025817	0.044376	1.036889
	H289	H	0.026025	0.043118	1.040115
	H290	H	0.028604	0.049054	1.033377
	O291	O	-0.490465	0.513367	0.542677
	H292	H	-0.496811	0.502728	0.542129
	H293	H	-0.490606	0.515295	0.547809
	O294	O	0.465167	0.617896	0.489825
	H295	H	0.470262	0.622803	0.493601
	H296	H	0.465499	0.625393	0.492623
	O297	O	0.453628	0.567689	0.562801
	H298	H	0.464059	0.572737	0.569584
	H299	H	0.459654	0.563773	0.571484
	O300	O	0.479350	0.433069	0.486302
	H301	H	0.474036	0.439456	0.488724
	H302	H	0.470683	0.428479	0.489607
	O303	O	0.535257	0.566076	0.571647
	H304	H	0.549364	0.561101	0.578398
	H305	H	0.522682	0.564217	0.568190
	O306	O	0.983273	0.083823	1.007319
	H307	H	0.982544	0.085719	1.005693
	H308	H	0.983691	0.081343	1.011168
	O309	O	0.557159	0.509848	0.497596
	H310	H	0.555362	0.517255	0.489639
	H311	H	0.563073	0.504333	0.500904
	O312	O	0.472710	0.517697	0.470282
	H313	H	0.483608	0.522432	0.467433
	H314	H	0.473204	0.520317	0.480270
	O315	O	0.987678	0.010873	0.994375
	H316	H	0.984425	0.004162	0.995016
	H317	H	0.976695	0.014416	0.993895
	O318	O	0.529206	-0.477013	-0.525273
	H319	H	0.527678	-0.482014	-0.513403
	H320	H	0.531502	-0.477838	-0.525429
	O321	O	0.972195	1.054780	0.006778
	H322	H	0.981039	1.059880	0.012686
	H323	H	0.976799	1.060070	0.001586
	O324	O	0.953444	0.001600	0.015773
	H325	H	0.953211	0.009510	0.015499
	H326	H	0.953439	0.007245	0.019207
	O327	O	1.029258	1.052012	-0.023466
	H328	H	1.026894	1.048789	-0.023501
	H329	H	1.029739	1.050365	-0.026816
	O330	O	0.519929	0.507164	0.526539
	H331	H	0.514292	0.506323	0.518372
	H332	H	0.511848	0.505243	0.524470
	O333	O	0.539925	0.501451	0.544835
	H334	H	0.542727	0.488560	0.547915
	H335	H	0.532035	0.501390	0.546000
