data_Molecule from HDF5

_cell_length_a		16.275257
_cell_length_b		16.273953
_cell_length_c		16.311583
_cell_angle_alpha	89.948091
_cell_angle_beta	89.695840
_cell_angle_gamma	90.050234
_symmetry_space_group_name_H-M	'P 1'
_symmetry_Int_Tables_number		1

loop_
	_symmetry_equiv_pos_as_xyz
	x,y,z

loop_
	_atom_site_label
	_atom_site_type_symbol
	_atom_site_fract_x
	_atom_site_fract_y
	_atom_site_fract_z
	H0	H	0.407018	0.843373	0.718854
	H1	H	0.608102	0.169354	0.719227
	H2	H	0.610289	0.843908	0.285801
	H3	H	0.408185	0.169708	0.286302
	H4	H	0.725505	0.403582	0.839348
	H5	H	0.724229	0.605972	0.164620
	H6	H	0.294260	0.606312	0.839120
	H7	H	0.289435	0.404397	0.163749
	H8	H	0.844204	0.723022	0.402724
	H9	H	0.171023	0.722523	0.599402
	H10	H	0.845370	0.291658	0.603049
	H11	H	0.170123	0.290449	0.398791
	H12	H	0.845325	0.407194	0.718347
	H13	H	0.170609	0.610145	0.717182
	H14	H	0.843704	0.607416	0.285919
	H15	H	0.169241	0.405451	0.283366
	H16	H	0.409055	0.722434	0.840105
	H17	H	0.608706	0.722934	0.164894
	H18	H	0.608887	0.288852	0.839811
	H19	H	0.404556	0.288875	0.164088
	H20	H	0.724300	0.843673	0.403792
	H21	H	0.722615	0.170912	0.601675
	H22	H	0.291556	0.843441	0.603457
	H23	H	0.290979	0.169485	0.401242
	H24	H	0.905487	0.343255	0.219814
	H25	H	0.106325	0.669442	0.216430
	H26	H	0.108828	0.343829	0.784114
	H27	H	0.909790	0.670145	0.788840
	H28	H	0.225636	0.906555	0.340188
	H29	H	0.222656	0.106531	0.665758
	H30	H	0.793685	0.106622	0.339280
	H31	H	0.792211	0.908207	0.665904
	H32	H	0.344033	0.220674	0.903538
	H33	H	0.670232	0.222542	0.100915
	H34	H	0.344062	0.791576	0.103239
	H35	H	0.671035	0.791104	0.903374
	H36	H	0.345746	0.905609	0.221003
	H37	H	0.670891	0.108150	0.216801
	H38	H	0.344480	0.105773	0.787060
	H39	H	0.671084	0.906009	0.785846
	H40	H	0.910010	0.221660	0.338547
	H41	H	0.107087	0.224033	0.664830
	H42	H	0.107940	0.792567	0.338907
	H43	H	0.906404	0.790750	0.665234
	H44	H	0.222867	0.342501	0.902456
	H45	H	0.221759	0.669344	0.099756
	H46	H	0.792507	0.341434	0.101817
	H47	H	0.792653	0.668913	0.902896
	H48	H	0.408514	0.125201	0.597047
	H49	H	0.602910	0.892343	0.586238
	H50	H	0.606162	0.123785	0.409516
	H51	H	0.418519	0.889724	0.403290
	H52	H	0.604760	0.414164	0.118666
	H53	H	0.600016	0.601728	0.885989
	H54	H	0.416649	0.600480	0.118077
	H55	H	0.421839	0.425379	0.891485
	H56	H	0.119875	0.594041	0.413467
	H57	H	0.889534	0.605775	0.595969
	H58	H	0.125508	0.413826	0.594544
	H59	H	0.890119	0.408751	0.413450
	H60	H	0.123283	0.415067	0.588322
	H61	H	0.894131	0.596444	0.588908
	H62	H	0.123199	0.595939	0.401786
	H63	H	0.894248	0.420641	0.414582
	H64	H	0.411296	0.597905	0.118965
	H65	H	0.603272	0.596825	0.886090
	H66	H	0.596026	0.418306	0.115187
	H67	H	0.425074	0.403408	0.885450
	H68	H	0.599185	0.123780	0.405224
	H69	H	0.604205	0.888448	0.600284
	H70	H	0.420986	0.121984	0.600175
	H71	H	0.423774	0.895022	0.417078
	H72	H	0.918225	0.621497	0.095896
	H73	H	0.092869	0.391859	0.092253
	H74	H	0.106505	0.622552	0.910484
	H75	H	0.917811	0.387634	0.900982
	H76	H	0.103815	0.908530	0.621655
	H77	H	0.114548	0.093951	0.384527
	H78	H	0.919281	0.101119	0.616859
	H79	H	0.918895	0.917770	0.389643
	H80	H	0.625459	0.103512	0.908417
	H81	H	0.388497	0.107624	0.093940
	H82	H	0.624658	0.918947	0.097946
	H83	H	0.393769	0.918020	0.912237
	H84	H	0.625992	0.908546	0.096399
	H85	H	0.396032	0.090700	0.087563
	H86	H	0.621461	0.096742	0.915650
	H87	H	0.390024	0.913590	0.905095
	H88	H	0.911987	0.104416	0.620934
	H89	H	0.090578	0.088259	0.393681
	H90	H	0.102823	0.921832	0.617042
	H91	H	0.917622	0.911682	0.385544
	H92	H	0.102452	0.624295	0.903209
	H93	H	0.101445	0.390621	0.088878
	H94	H	0.917881	0.619404	0.089901
	H95	H	0.922041	0.392845	0.913372
	H96	H	0.417118	0.119823	0.587643
	H97	H	0.591395	0.892887	0.594804
	H98	H	0.599011	0.120841	0.412171
	H99	H	0.409360	0.890309	0.415251
	H100	H	0.596400	0.408829	0.118704
	H101	H	0.598155	0.596944	0.889178
	H102	H	0.415984	0.594499	0.117341
	H103	H	0.404422	0.412895	0.881884
	H104	H	0.124368	0.605398	0.410237
	H105	H	0.890570	0.595038	0.601874
	H106	H	0.122591	0.420649	0.593145
	H107	H	0.890438	0.416688	0.403803
	H108	H	0.912165	0.622101	0.092645
	H109	H	0.100050	0.388281	0.097781
	H110	H	0.098110	0.621696	0.909432
	H111	H	0.908533	0.387000	0.911881
	H112	H	0.092146	0.911679	0.616027
	H113	H	0.095793	0.111848	0.384011
	H114	H	0.911889	0.095945	0.617629
	H115	H	0.913371	0.917248	0.386270
	H116	H	0.623221	0.093609	0.905834
	H117	H	0.389329	0.092170	0.105756
	H118	H	0.622201	0.914773	0.088685
	H119	H	0.391549	0.909070	0.913515
	C120	C	0.385974	0.014809	0.624622
	C121	C	0.628941	0.998824	0.623719
	C122	C	0.631035	0.015110	0.380157
	C123	C	0.387259	0.998815	0.381629
	C124	C	0.628802	0.384178	0.010198
	C125	C	0.629870	0.627653	0.994076
	C126	C	0.386374	0.627146	0.010550
	C127	C	0.385736	0.383734	0.993212
	C128	C	0.015004	0.628109	0.379731
	C129	C	0.999425	0.629099	0.623625
	C130	C	0.016385	0.386431	0.622525
	C131	C	0.998911	0.385650	0.380107
	C132	C	0.885926	0.513666	0.123150
	C133	C	0.127769	0.497861	0.122373
	C134	C	0.131199	0.515056	0.878576
	C135	C	0.887032	0.497460	0.880475
	C136	C	0.129589	0.884787	0.510634
	C137	C	0.129591	0.128420	0.494338
	C138	C	0.886021	0.129720	0.510885
	C139	C	0.886372	0.885791	0.494481
	C140	C	0.515444	0.126764	0.881221
	C141	C	0.498941	0.127615	0.124054
	C142	C	0.516550	0.884704	0.124614
	C143	C	0.499711	0.884431	0.881080
	C144	C	0.387233	0.892106	0.680629
	C145	C	0.627806	0.121008	0.680546
	C146	C	0.629845	0.892670	0.324331
	C147	C	0.388331	0.121201	0.325013
	C148	C	0.686425	0.384474	0.888009
	C149	C	0.685768	0.625952	0.116243
	C150	C	0.331583	0.626153	0.888079
	C151	C	0.328117	0.384804	0.115277
	C152	C	0.892707	0.684488	0.382181
	C153	C	0.122135	0.684881	0.620167
	C154	C	0.893976	0.330256	0.622199
	C155	C	0.121366	0.328807	0.379762
	C156	C	0.894157	0.387455	0.679906
	C157	C	0.121992	0.628450	0.678445
	C158	C	0.892477	0.627180	0.323947
	C159	C	0.121009	0.386022	0.322290
	C160	C	0.389018	0.683837	0.888635
	C161	C	0.628477	0.684373	0.116340
	C162	C	0.628421	0.327209	0.888173
	C163	C	0.385275	0.327082	0.115283
	C164	C	0.686948	0.892605	0.382640
	C165	C	0.684771	0.121739	0.622216
	C166	C	0.329770	0.892107	0.623168
	C167	C	0.330011	0.121010	0.382131
	C168	C	0.886446	0.391527	0.180574
	C169	C	0.126419	0.620625	0.178255
	C170	C	0.129196	0.392389	0.822516
	C171	C	0.889447	0.621017	0.826118
	C172	C	0.186493	0.886911	0.388505
	C173	C	0.184647	0.126681	0.617008
	C174	C	0.831280	0.127269	0.387942
	C175	C	0.829803	0.887232	0.616939
	C176	C	0.392832	0.182634	0.883176
	C177	C	0.621687	0.184259	0.121450
	C178	C	0.393473	0.828631	0.123752
	C179	C	0.622332	0.828724	0.882912
	C180	C	0.394093	0.885601	0.182132
	C181	C	0.621918	0.127298	0.179057
	C182	C	0.393063	0.125538	0.825169
	C183	C	0.622460	0.885873	0.824507
	C184	C	0.889125	0.184460	0.387638
	C185	C	0.127271	0.185105	0.616487
	C186	C	0.128105	0.830063	0.387968
	C187	C	0.886781	0.829111	0.616609
	C188	C	0.185831	0.391718	0.881196
	C189	C	0.183790	0.620614	0.120124
	C190	C	0.829873	0.390730	0.122274
	C191	C	0.830805	0.620210	0.882661
	C192	C	0.408793	0.100187	0.601702
	C193	C	0.606236	0.913437	0.600564
	C194	C	0.608053	0.100789	0.402453
	C195	C	0.410511	0.913765	0.405011
	C196	C	0.605664	0.407065	0.095300
	C197	C	0.607167	0.605067	0.909169
	C198	C	0.408347	0.604317	0.096176
	C199	C	0.409845	0.406944	0.908334
	C200	C	0.100374	0.605233	0.401930
	C201	C	0.913698	0.606030	0.601909
	C202	C	0.101749	0.409625	0.598979
	C203	C	0.913587	0.408793	0.403643
	C204	C	0.909305	0.598822	0.099687
	C205	C	0.104801	0.412340	0.099625
	C206	C	0.108799	0.600692	0.901050
	C207	C	0.909379	0.411507	0.902481
	C208	C	0.106320	0.907417	0.596242
	C209	C	0.106901	0.104922	0.409329
	C210	C	0.908062	0.107331	0.596254
	C211	C	0.909871	0.908873	0.409183
	C212	C	0.601280	0.104465	0.903587
	C213	C	0.413627	0.103859	0.102151
	C214	C	0.601908	0.907441	0.101319
	C215	C	0.413949	0.907028	0.903658
	Zn216	Zn	0.507880	0.006144	0.752282
	Zn217	Zn	0.508494	0.006743	0.252478
	Zn218	Zn	0.758068	0.505014	0.001971
	Zn219	Zn	0.258083	0.505777	0.001636
	Zn220	Zn	0.007342	0.756670	0.501916
	Zn221	Zn	0.007982	0.258120	0.501706
	Zn222	Zn	0.008411	0.507155	0.751529
	Zn223	Zn	0.006712	0.506030	0.251229
	Zn224	Zn	0.507555	0.755846	0.003159
	Zn225	Zn	0.507210	0.255370	0.002151
	Zn226	Zn	0.758308	0.007520	0.502921
	Zn227	Zn	0.258146	0.006600	0.503157
	N228	N	0.421578	0.969361	0.681666
	N229	N	0.593850	0.043675	0.681522
	N230	N	0.595899	0.969961	0.322662
	N231	N	0.423325	0.044339	0.324768
	N232	N	0.686837	0.419317	0.964899
	N233	N	0.686860	0.591431	0.039299
	N234	N	0.330105	0.591456	0.964860
	N235	N	0.328376	0.419516	0.038294
	N236	N	0.969692	0.685180	0.416071
	N237	N	0.044846	0.685175	0.586607
	N238	N	0.971005	0.329483	0.587280
	N239	N	0.044473	0.328520	0.415162
	N240	N	0.971395	0.421996	0.680127
	N241	N	0.044585	0.594690	0.680955
	N242	N	0.969742	0.592834	0.322264
	N243	N	0.043946	0.420594	0.322448
	N244	N	0.422276	0.684706	0.966068
	N245	N	0.594360	0.685466	0.039494
	N246	N	0.593236	0.326961	0.964878
	N247	N	0.420696	0.326474	0.038606
	N248	N	0.687910	0.969944	0.416550
	N249	N	0.685608	0.044772	0.587481
	N250	N	0.328716	0.969528	0.589204
	N251	N	0.329357	0.043968	0.416980
	N252	N	0.920223	0.468940	0.181333
	N253	N	0.092453	0.543274	0.179730
	N254	N	0.096202	0.470184	0.820654
	N255	N	0.923551	0.543607	0.824472
	N256	N	0.187527	0.920021	0.465982
	N257	N	0.186260	0.092272	0.539925
	N258	N	0.829014	0.093934	0.465447
	N259	N	0.829455	0.921745	0.539986
	N260	N	0.470095	0.183580	0.917131
	N261	N	0.544418	0.184699	0.088134
	N262	N	0.470625	0.827750	0.088875
	N263	N	0.544981	0.827607	0.917082
	N264	N	0.471549	0.919567	0.183063
	N265	N	0.544728	0.092690	0.180928
	N266	N	0.470442	0.091726	0.823867
	N267	N	0.545020	0.919786	0.823328
	N268	N	0.922437	0.186163	0.464916
	N269	N	0.094031	0.186505	0.539170
	N270	N	0.093340	0.828703	0.464995
	N271	N	0.920955	0.827762	0.539270
	N272	N	0.187246	0.468989	0.915197
	N273	N	0.184961	0.543177	0.086264
	N274	N	0.829339	0.467648	0.087214
	N275	N	0.829186	0.542389	0.915585
	O276	O	-0.102000	-0.048831	0.111177
	H277	H	-0.097871	-0.052583	0.107840
	H278	H	-0.098870	-0.056375	0.111698
	O279	O	0.626911	0.613835	0.512821
	H280	H	0.633055	0.592121	0.518559
	H281	H	0.618798	0.632430	0.510005
	O282	O	0.335444	0.441159	0.637309
	H283	H	0.331207	0.415433	0.638192
	H284	H	0.319077	0.428968	0.648822
	O285	O	-0.045430	-0.016546	1.052483
	H286	H	-0.043001	-0.020048	1.050404
	H287	H	-0.052735	-0.021894	1.052414
	O288	O	0.962090	-0.060421	0.054886
	H289	H	0.961769	-0.054754	0.038754
	H290	H	0.947454	-0.060904	0.058255
	O291	O	0.933712	0.959808	1.119875
	H292	H	0.930578	0.953614	1.131778
	H293	H	0.930815	0.951118	1.115261
	O294	O	0.427470	1.327086	0.552964
	H295	H	0.423987	1.311298	0.552490
	H296	H	0.430470	1.321803	0.550880
	O297	O	1.534822	-0.598416	0.488302
	H298	H	1.540043	-0.602405	0.482132
	H299	H	1.531997	-0.601689	0.484691
	O300	O	0.371635	0.542290	0.591908
	H301	H	0.365216	0.534399	0.590424
	H302	H	0.372789	0.527243	0.599205
	O303	O	1.460715	0.539308	-0.376283
	H304	H	1.457924	0.538042	-0.370229
	H305	H	1.447739	0.542861	-0.376021
	O306	O	-0.015377	1.009813	1.038314
	H307	H	-0.025477	1.013921	1.039035
	H308	H	-0.018135	1.015496	1.047900
	O309	O	0.416247	0.463461	0.457584
	H310	H	0.424208	0.472036	0.465700
	H311	H	0.413690	0.475296	0.449368
	O312	O	0.659712	-0.428829	1.509236
	H313	H	0.659547	-0.426780	1.520589
	H314	H	0.658716	-0.428593	1.504073
	O315	O	0.559573	0.383724	0.524136
	H316	H	0.556340	0.384570	0.518157
	H317	H	0.551249	0.382912	0.518088
	O318	O	-0.036238	0.997598	0.985315
	H319	H	-0.041393	0.997820	0.983482
	H320	H	-0.033613	0.998188	0.988388
	O321	O	1.007946	0.972318	1.063284
	H322	H	1.011155	0.963014	1.066926
	H323	H	1.011260	0.969607	1.068095
	O324	O	0.643128	0.468930	0.388947
	H325	H	0.641449	0.466891	0.386961
	H326	H	0.634614	0.468854	0.389777
	O327	O	0.664539	0.463150	0.387719
	H328	H	0.663050	0.461919	0.387421
	H329	H	0.651480	0.448014	0.387217
	O330	O	0.975072	-0.042071	1.000488
	H331	H	0.989870	-0.042754	1.004856
	H332	H	0.978793	-0.042396	0.992030
	O333	O	0.501837	0.483635	-0.360613
	H334	H	0.510264	0.483661	-0.367817
	H335	H	0.499714	0.481592	-0.351880
	O336	O	0.570502	0.544523	0.543455
	H337	H	0.569933	0.542281	0.547833
	H338	H	0.577030	0.546887	0.541555
	O339	O	0.538844	0.526143	0.335207
	H340	H	0.542167	0.528418	0.339410
	H341	H	0.530654	0.536822	0.328291
	O342	O	-0.031603	0.943100	0.071495
	H343	H	-0.033920	0.934114	0.078544
	H344	H	-0.036691	0.944073	0.059144
	O345	O	0.060782	-0.003255	-0.025118
	H346	H	0.063297	0.006872	-0.023637
	H347	H	0.060090	-0.005460	-0.028728
	O348	O	0.480242	0.579520	0.398235
	H349	H	0.481162	0.583315	0.404187
	H350	H	0.492945	0.577492	0.387570
	O351	O	0.411894	0.471172	0.512210
	H352	H	0.399921	0.466546	0.512370
	H353	H	0.428089	0.479090	0.503619
	O354	O	0.321919	0.625922	0.378092
	H355	H	0.321818	0.638328	0.389484
	H356	H	0.310399	0.632190	0.374758
	O357	O	0.460644	0.560152	0.452714
	H358	H	0.462796	0.553163	0.449839
	H359	H	0.460705	0.558981	0.460524
	O360	O	-0.353304	-0.544595	-0.349515
	H361	H	-0.345728	-0.540489	-0.346217
	H362	H	-0.345878	-0.537221	-0.354031
	O363	O	0.525344	1.531266	0.527644
	H364	H	0.519309	1.553183	0.527249
	H365	H	0.539176	1.524217	0.534018
	O366	O	-0.464796	0.622180	1.481249
	H367	H	-0.458494	0.612507	1.478739
	H368	H	-0.466107	0.635205	1.477376
	O369	O	0.388351	0.529470	0.486391
	H370	H	0.387571	0.532174	0.485779
	H371	H	0.382802	0.521883	0.483399
