data_Molecule from HDF5

_cell_length_a		16.431417
_cell_length_b		16.282505
_cell_length_c		16.375296
_cell_angle_alpha	90.293781
_cell_angle_beta	89.769215
_cell_angle_gamma	89.949676
_symmetry_space_group_name_H-M	'P 1'
_symmetry_Int_Tables_number		1

loop_
	_symmetry_equiv_pos_as_xyz
	x,y,z

loop_
	_atom_site_label
	_atom_site_type_symbol
	_atom_site_fract_x
	_atom_site_fract_y
	_atom_site_fract_z
	H0	H	0.392101	0.837531	0.715073
	H1	H	0.595072	0.161153	0.712153
	H2	H	0.602765	0.837885	0.274958
	H3	H	0.395702	0.160055	0.279152
	H4	H	0.720506	0.395988	0.837294
	H5	H	0.717811	0.604025	0.158201
	H6	H	0.279043	0.605667	0.838287
	H7	H	0.278955	0.396153	0.157626
	H8	H	0.838735	0.716093	0.397325
	H9	H	0.159212	0.722114	0.601359
	H10	H	0.838170	0.284818	0.596914
	H11	H	0.159059	0.275945	0.390205
	H12	H	0.840435	0.400806	0.715148
	H13	H	0.160437	0.605211	0.716688
	H14	H	0.839820	0.601520	0.280124
	H15	H	0.159843	0.393916	0.275620
	H16	H	0.399547	0.715097	0.835572
	H17	H	0.603040	0.720399	0.156132
	H18	H	0.600519	0.281522	0.835730
	H19	H	0.396336	0.282533	0.159004
	H20	H	0.719134	0.837661	0.390698
	H21	H	0.712191	0.161347	0.597534
	H22	H	0.278245	0.838591	0.599635
	H23	H	0.278629	0.158304	0.392559
	H24	H	0.898726	0.338310	0.214206
	H25	H	0.103145	0.660674	0.218214
	H26	H	0.105910	0.339305	0.775904
	H27	H	0.898913	0.662337	0.779980
	H28	H	0.224421	0.887082	0.339743
	H29	H	0.218360	0.104567	0.655313
	H30	H	0.779441	0.101577	0.336888
	H31	H	0.776870	0.895177	0.657093
	H32	H	0.337954	0.217762	0.896993
	H33	H	0.659737	0.217462	0.099187
	H34	H	0.339306	0.778383	0.099324
	H35	H	0.660376	0.781616	0.892793
	H36	H	0.340009	0.892625	0.217883
	H37	H	0.657611	0.103688	0.217720
	H38	H	0.337479	0.100910	0.779699
	H39	H	0.657796	0.895590	0.775605
	H40	H	0.897618	0.216231	0.335807
	H41	H	0.098722	0.216171	0.657072
	H42	H	0.103031	0.777398	0.337232
	H43	H	0.894581	0.780804	0.658427
	H44	H	0.220223	0.339036	0.892968
	H45	H	0.219813	0.660921	0.102325
	H46	H	0.782518	0.339173	0.099265
	H47	H	0.779954	0.660281	0.892645
	H48	H	0.404032	0.114142	0.586116
	H49	H	0.592692	0.883874	0.579365
	H50	H	0.584474	0.109396	0.412662
	H51	H	0.408736	0.883379	0.408362
	H52	H	0.591590	0.408539	0.112300
	H53	H	0.594350	0.590225	0.880616
	H54	H	0.413192	0.586812	0.109070
	H55	H	0.407783	0.408600	0.882593
	H56	H	0.112012	0.586701	0.409699
	H57	H	0.887947	0.585691	0.589523
	H58	H	0.112954	0.412232	0.586391
	H59	H	0.890331	0.414093	0.412365
	H60	H	0.117210	0.405710	0.590642
	H61	H	0.884948	0.592202	0.593879
	H62	H	0.113512	0.586980	0.406542
	H63	H	0.885299	0.412016	0.397897
	H64	H	0.411814	0.590667	0.111891
	H65	H	0.593632	0.585851	0.883049
	H66	H	0.592973	0.410131	0.111724
	H67	H	0.409942	0.410159	0.884278
	H68	H	0.596288	0.114496	0.409427
	H69	H	0.591576	0.879723	0.592267
	H70	H	0.407502	0.115013	0.592017
	H71	H	0.412310	0.884036	0.405071
	H72	H	0.910940	0.614935	0.090473
	H73	H	0.093874	0.383747	0.087484
	H74	H	0.108926	0.620929	0.909475
	H75	H	0.907729	0.386092	0.910933
	H76	H	0.087948	0.907193	0.611707
	H77	H	0.082099	0.083460	0.385922
	H78	H	0.901829	0.092703	0.613780
	H79	H	0.912081	0.908490	0.384833
	H80	H	0.611113	0.087641	0.905833
	H81	H	0.383829	0.090129	0.091282
	H82	H	0.610880	0.909044	0.081814
	H83	H	0.385891	0.908664	0.909365
	H84	H	0.610309	0.914497	0.084835
	H85	H	0.384244	0.092851	0.085971
	H86	H	0.613289	0.088425	0.901289
	H87	H	0.384226	0.909500	0.902666
	H88	H	0.904950	0.088681	0.610934
	H89	H	0.088649	0.094088	0.379507
	H90	H	0.091566	0.916978	0.609580
	H91	H	0.906524	0.904810	0.381880
	H92	H	0.080656	0.617031	0.892450
	H93	H	0.086006	0.386118	0.087845
	H94	H	0.908830	0.615322	0.087054
	H95	H	0.910454	0.384218	0.902177
	H96	H	0.410522	0.112530	0.586867
	H97	H	0.580935	0.885994	0.586461
	H98	H	0.586238	0.114451	0.400739
	H99	H	0.413185	0.885462	0.409588
	H100	H	0.591280	0.410106	0.110864
	H101	H	0.590219	0.589383	0.883104
	H102	H	0.408458	0.586591	0.110955
	H103	H	0.410729	0.407007	0.883161
	H104	H	0.113843	0.589758	0.409045
	H105	H	0.887385	0.592661	0.585530
	H106	H	0.114098	0.404619	0.582287
	H107	H	0.884386	0.400448	0.408316
	H108	H	0.906998	0.616967	0.090678
	H109	H	0.090128	0.386473	0.080912
	H110	H	0.082807	0.606181	0.923554
	H111	H	0.916858	0.388048	0.907789
	H112	H	0.081911	0.914391	0.606796
	H113	H	0.095644	0.081967	0.381049
	H114	H	0.906995	0.093695	0.612086
	H115	H	0.905855	0.912023	0.383612
	H116	H	0.612622	0.092545	0.904958
	H117	H	0.386777	0.087861	0.087556
	H118	H	0.613291	0.909801	0.087425
	H119	H	0.383405	0.902851	0.905577
	C120	C	0.376171	0.007440	0.618565
	C121	C	0.617956	0.990193	0.617172
	C122	C	0.620527	0.006912	0.374571
	C123	C	0.378887	0.990199	0.376239
	C124	C	0.622476	0.377903	0.005424
	C125	C	0.622748	0.621012	0.988009
	C126	C	0.379889	0.619688	0.004928
	C127	C	0.377939	0.378029	0.989374
	C128	C	0.007668	0.619364	0.377631
	C129	C	0.992214	0.622375	0.620231
	C130	C	0.008699	0.378325	0.617491
	C131	C	0.991890	0.376431	0.374242
	C132	C	0.878541	0.508889	0.119408
	C133	C	0.121139	0.491526	0.118148
	C134	C	0.122764	0.508562	0.875995
	C135	C	0.880274	0.492086	0.876095
	C136	C	0.119798	0.878312	0.504837
	C137	C	0.119727	0.119012	0.487722
	C138	C	0.875404	0.121491	0.505639
	C139	C	0.876590	0.877596	0.489429
	C140	C	0.506240	0.119917	0.875128
	C141	C	0.490636	0.121041	0.118763
	C142	C	0.506565	0.877906	0.116754
	C143	C	0.490181	0.876613	0.873979
	C144	C	0.374211	0.886108	0.676524
	C145	C	0.615927	0.112568	0.673922
	C146	C	0.621540	0.886143	0.314704
	C147	C	0.377063	0.111449	0.318013
	C148	C	0.680757	0.377141	0.884931
	C149	C	0.679606	0.622876	0.109346
	C150	C	0.319974	0.622320	0.885451
	C151	C	0.318683	0.377317	0.109744
	C152	C	0.886944	0.677445	0.377691
	C153	C	0.111802	0.682023	0.620194
	C154	C	0.887007	0.322804	0.616806
	C155	C	0.111393	0.316163	0.371973
	C156	C	0.888137	0.380120	0.675944
	C157	C	0.112624	0.623933	0.677698
	C158	C	0.887570	0.620266	0.319501
	C159	C	0.111710	0.374898	0.314784
	C160	C	0.379988	0.677090	0.883974
	C161	C	0.622245	0.680755	0.108577
	C162	C	0.621029	0.320426	0.884105
	C163	C	0.377474	0.321019	0.110560
	C164	C	0.679519	0.886149	0.372328
	C165	C	0.674169	0.112618	0.617018
	C166	C	0.317389	0.886548	0.619140
	C167	C	0.318899	0.110807	0.374640
	C168	C	0.879186	0.386869	0.175567
	C169	C	0.122066	0.612583	0.178237
	C170	C	0.124278	0.387634	0.815891
	C171	C	0.879831	0.613577	0.818484
	C172	C	0.182367	0.871858	0.386450
	C173	C	0.178440	0.121851	0.607735
	C174	C	0.818512	0.121211	0.384870
	C175	C	0.816453	0.876239	0.609389
	C176	C	0.385989	0.178528	0.876737
	C177	C	0.611446	0.178636	0.118637
	C178	C	0.387092	0.817786	0.118157
	C179	C	0.611446	0.819766	0.873519
	C180	C	0.387358	0.874695	0.177192
	C181	C	0.610316	0.122357	0.177981
	C182	C	0.385485	0.120121	0.818740
	C183	C	0.610399	0.876586	0.815037
	C184	C	0.877292	0.178061	0.384299
	C185	C	0.118977	0.177570	0.608659
	C186	C	0.122050	0.816963	0.385227
	C187	C	0.875483	0.819690	0.610114
	C188	C	0.181619	0.387501	0.873923
	C189	C	0.180154	0.612754	0.120803
	C190	C	0.821238	0.387403	0.118592
	C191	C	0.820633	0.612739	0.874755
	C192	C	0.400232	0.091911	0.594963
	C193	C	0.595136	0.905259	0.593118
	C194	C	0.595921	0.091128	0.400048
	C195	C	0.404000	0.906257	0.400772
	C196	C	0.598796	0.402436	0.089654
	C197	C	0.599503	0.595757	0.904063
	C198	C	0.404174	0.595078	0.088637
	C199	C	0.402418	0.401784	0.905235
	C200	C	0.091285	0.594957	0.401724
	C201	C	0.908402	0.597287	0.596591
	C202	C	0.092702	0.400963	0.593500
	C203	C	0.908270	0.401459	0.399291
	C204	C	0.901931	0.593570	0.096145
	C205	C	0.096997	0.407453	0.092695
	C206	C	0.098109	0.592694	0.901294
	C207	C	0.904669	0.407976	0.900128
	C208	C	0.094345	0.905132	0.587637
	C209	C	0.095781	0.093601	0.403981
	C210	C	0.897988	0.098452	0.590322
	C211	C	0.901100	0.901422	0.405367
	C212	C	0.590510	0.096398	0.897584
	C213	C	0.406811	0.097171	0.095142
	C214	C	0.589835	0.903700	0.091844
	C215	C	0.406180	0.900339	0.898611
	Zn216	Zn	0.497025	-0.002273	0.745253
	Zn217	Zn	0.498149	-0.001157	0.246732
	Zn218	Zn	0.751294	0.500378	-0.002621
	Zn219	Zn	0.250596	0.500177	-0.002046
	Zn220	Zn	-0.000711	0.749765	0.497758
	Zn221	Zn	-0.000459	0.248035	0.496106
	Zn222	Zn	0.001642	0.500426	0.747704
	Zn223	Zn	0.000227	0.499468	0.247153
	Zn224	Zn	0.499873	0.748443	-0.004394
	Zn225	Zn	0.499219	0.249760	-0.002617
	Zn226	Zn	0.747526	-0.001128	0.497429
	Zn227	Zn	0.249586	-0.001640	0.496543
	N228	N	0.410002	0.962400	0.676377
	N229	N	0.581762	0.035596	0.674124
	N230	N	0.585623	0.962355	0.316092
	N231	N	0.413424	0.035535	0.318900
	N232	N	0.681806	0.411792	0.961581
	N233	N	0.680179	0.586597	0.033358
	N234	N	0.319919	0.587125	0.961586
	N235	N	0.318776	0.411803	0.033398
	N236	N	0.962653	0.676950	0.413356
	N237	N	0.035777	0.681275	0.585345
	N238	N	0.962996	0.321439	0.581475
	N239	N	0.035641	0.316924	0.407956
	N240	N	0.964780	0.413970	0.676621
	N241	N	0.037138	0.587799	0.677611
	N242	N	0.963621	0.585069	0.319080
	N243	N	0.036241	0.411478	0.316119
	N244	N	0.416813	0.675336	0.959182
	N245	N	0.587828	0.679993	0.032164
	N246	N	0.585660	0.320709	0.960237
	N247	N	0.413713	0.321292	0.034642
	N248	N	0.679232	0.962508	0.408720
	N249	N	0.675496	0.035435	0.582484
	N250	N	0.318410	0.962885	0.583779
	N251	N	0.319588	0.034248	0.409964
	N252	N	0.913825	0.463440	0.176413
	N253	N	0.086273	0.536285	0.176700
	N254	N	0.088602	0.464025	0.816878
	N255	N	0.916338	0.537634	0.819433
	N256	N	0.180977	0.909538	0.461673
	N257	N	0.179251	0.086245	0.531395
	N258	N	0.817266	0.086807	0.461321
	N259	N	0.817067	0.911534	0.533301
	N260	N	0.462226	0.178679	0.911020
	N261	N	0.536022	0.178155	0.082787
	N262	N	0.462396	0.819799	0.081397
	N263	N	0.535752	0.819595	0.909298
	N264	N	0.462673	0.911447	0.176398
	N265	N	0.534236	0.087297	0.178154
	N266	N	0.461173	0.084385	0.817753
	N267	N	0.533933	0.911102	0.815053
	N268	N	0.911920	0.178403	0.460622
	N269	N	0.083139	0.175778	0.533094
	N270	N	0.083701	0.821191	0.459721
	N271	N	0.912193	0.820293	0.534540
	N272	N	0.181003	0.463769	0.910328
	N273	N	0.179673	0.536621	0.083954
	N274	N	0.820594	0.464296	0.084371
	N275	N	0.820803	0.536372	0.910158
	O276	O	1.116012	0.963871	-0.003381
	H277	H	1.108270	0.955926	0.011984
	H278	H	1.118265	0.979339	-0.007839
	O279	O	0.528093	0.454903	0.496952
	H280	H	0.539333	0.458253	0.492151
	H281	H	0.524145	0.465101	0.500142
	O282	O	0.321573	0.510785	0.513534
	H283	H	0.315181	0.511311	0.504616
	H284	H	0.324632	0.523704	0.500326
	O285	O	1.042359	-0.056856	-0.072606
	H286	H	1.069959	-0.068243	-0.077739
	H287	H	1.053902	-0.075210	-0.080013
	O288	O	-0.054560	0.155174	0.827248
	H289	H	-0.069424	0.155253	0.821522
	H290	H	-0.065831	0.152807	0.830285
	O291	O	0.445026	0.451939	0.606258
	H292	H	0.443784	0.433745	0.604040
	H293	H	0.441550	0.459060	0.607769
	O294	O	0.445318	0.324075	0.588657
	H295	H	0.458555	0.329485	0.608907
	H296	H	0.455129	0.311457	0.592530
	O297	O	1.002601	1.180959	1.123446
	H298	H	0.974462	1.164066	1.123405
	H299	H	1.004256	1.181008	1.139922
	O300	O	0.033578	0.042234	0.041711
	H301	H	0.028873	0.043277	0.043715
	H302	H	0.036456	0.028439	0.042164
	O303	O	0.395897	0.616003	0.522238
	H304	H	0.390638	0.613585	0.525080
	H305	H	0.391813	0.618757	0.516381
	O306	O	1.175949	0.171704	0.097563
	H307	H	1.172552	0.172858	0.063784
	H308	H	1.144225	0.181975	0.095587
	O309	O	0.558085	0.577844	0.325705
	H310	H	0.543979	0.568506	0.326383
	H311	H	0.548878	0.593436	0.316930
	O312	O	0.803779	1.167744	-0.201121
	H313	H	0.806926	1.160227	-0.187304
	H314	H	0.798259	1.149902	-0.201336
	O315	O	0.644665	0.363022	0.338837
	H316	H	0.648194	0.367665	0.340652
	H317	H	0.648810	0.360350	0.327297
	O318	O	0.574888	0.546230	0.386526
	H319	H	0.579974	0.549374	0.387882
	H320	H	0.574805	0.531768	0.386709
	O321	O	0.822401	-0.169444	0.983214
	H322	H	0.816584	-0.167221	0.979032
	H323	H	0.834871	-0.177572	0.966833
	O324	O	0.025641	-0.119488	0.919672
	H325	H	0.029337	-0.122117	0.910789
	H326	H	0.031251	-0.123194	0.924611
	O327	O	0.355580	0.420831	0.521949
	H328	H	0.359658	0.416066	0.534446
	H329	H	0.351806	0.406717	0.517431
	O330	O	0.484125	0.670833	0.414705
	H331	H	0.482687	0.672466	0.418543
	H332	H	0.471954	0.672953	0.428144
	O333	O	0.967289	0.907580	0.968848
	H334	H	0.963262	0.897659	0.973467
	H335	H	0.963159	0.895832	0.953217
	O336	O	0.577564	0.462391	0.384486
	H337	H	0.567750	0.480867	0.379986
	H338	H	0.587486	0.460433	0.378975
	O339	O	1.089485	-0.051081	0.860165
	H340	H	1.096047	-0.050852	0.862650
	H341	H	1.096715	-0.059595	0.856907
	O342	O	0.039100	0.967296	1.124998
	H343	H	0.039964	0.961958	1.128723
	H344	H	0.043775	0.976774	1.137953
	O345	O	0.058332	1.142900	0.841421
	H346	H	0.051029	1.161396	0.826963
	H347	H	0.052615	1.148661	0.841016
	O348	O	0.673968	0.443244	0.628913
	H349	H	0.681808	0.442704	0.614995
	H350	H	0.666675	0.473285	0.627907
	O351	O	0.584525	-0.565623	-0.470994
	H352	H	0.591388	-0.566196	-0.469343
	H353	H	0.590602	-0.573435	-0.478239
	O354	O	0.884391	0.834469	0.166612
	H355	H	0.897166	0.831690	0.160088
	H356	H	0.887440	0.830187	0.141298
	O357	O	-0.108626	1.147079	0.045539
	H358	H	-0.098430	1.148852	0.040481
	H359	H	-0.122150	1.136911	0.044318
	O360	O	-0.190627	0.973513	1.150801
	H361	H	-0.176439	0.950761	1.159785
	H362	H	-0.217935	0.959722	1.164635
	O363	O	0.455798	0.375038	0.425003
	H364	H	0.465085	0.383284	0.416561
	H365	H	0.460627	0.361032	0.432710
	O366	O	0.321246	0.622675	0.344721
	H367	H	0.330146	0.613236	0.344334
	H368	H	0.320170	0.620155	0.345269
	O369	O	0.572795	0.447336	0.397718
	H370	H	0.562775	0.434933	0.393682
	H371	H	0.576106	0.456253	0.395836
	O372	O	0.589896	0.634020	0.558235
	H373	H	0.590656	0.644108	0.555744
	H374	H	0.594935	0.610237	0.552625
	O375	O	0.647061	0.493793	0.492349
	H376	H	0.646681	0.492106	0.485093
	H377	H	0.643863	0.495959	0.469954
	O378	O	0.416811	0.369468	0.540926
	H379	H	0.416385	0.373546	0.553444
	H380	H	0.425261	0.366718	0.541094
	O381	O	0.492315	0.529572	0.614662
	H382	H	0.485793	0.522672	0.619330
	H383	H	0.504410	0.536138	0.620378
	O384	O	-0.114915	0.922934	0.903184
	H385	H	-0.113555	0.931836	0.923915
	H386	H	-0.094114	0.930369	0.884624
	O387	O	1.119548	1.013844	-0.109497
	H388	H	1.099297	1.015539	-0.119638
	H389	H	1.123263	1.030440	-0.110530
	O390	O	0.514395	0.480648	0.385851
	H391	H	0.504782	0.493990	0.380318
	H392	H	0.524000	0.473323	0.391633
	O393	O	1.126757	-0.157692	0.987398
	H394	H	1.141745	-0.144341	0.995042
	H395	H	1.139632	-0.150899	1.002911
	O396	O	0.086675	1.064734	0.945560
	H397	H	0.066114	1.075599	0.940752
	H398	H	0.094180	1.064674	0.935882
	O399	O	0.346724	0.371548	0.607669
	H400	H	0.360866	0.367197	0.612821
	H401	H	0.358275	0.362930	0.597871
	O402	O	1.182807	-0.029337	1.124238
	H403	H	1.190883	-0.015795	1.110505
	H404	H	1.190222	0.004855	1.136675
	O405	O	-0.076806	-0.010187	0.133701
	H406	H	-0.076788	-0.017301	0.126721
	H407	H	-0.063055	-0.025470	0.132683
	O408	O	0.861876	1.009152	0.810881
	H409	H	0.847902	1.008988	0.796701
	H410	H	0.866420	1.006933	0.825276
	O411	O	1.198657	1.083607	0.192705
	H412	H	1.202042	1.102550	0.197876
	H413	H	1.199651	1.111163	0.179783
	O414	O	-0.400002	-0.363297	1.604218
	H415	H	-0.395681	-0.358318	1.608097
	H416	H	-0.382824	-0.368305	1.606654
	O417	O	0.607840	0.584110	0.556885
	H418	H	0.607460	0.591351	0.558712
	H419	H	0.610754	0.589383	0.535602
	O420	O	-0.138853	0.974083	0.057215
	H421	H	-0.122803	0.969179	0.054433
	H422	H	-0.140759	0.974140	0.077560
	O423	O	0.802702	0.144522	-0.048455
	H424	H	0.803875	0.160863	-0.049036
	H425	H	0.800826	0.139957	-0.045065
	O426	O	0.105144	-0.096916	0.959041
	H427	H	0.113830	-0.097468	0.958515
	H428	H	0.107532	-0.083529	0.961291
	O429	O	0.434700	0.516881	0.610731
	H430	H	0.436052	0.513450	0.622573
	H431	H	0.430523	0.514021	0.614451
