data_Molecule from HDF5

_cell_length_a		16.347237
_cell_length_b		16.292713
_cell_length_c		16.264827
_cell_angle_alpha	89.953240
_cell_angle_beta	90.096391
_cell_angle_gamma	89.883092
_symmetry_space_group_name_H-M	'P 1'
_symmetry_Int_Tables_number		1

loop_
	_symmetry_equiv_pos_as_xyz
	x,y,z

loop_
	_atom_site_label
	_atom_site_type_symbol
	_atom_site_fract_x
	_atom_site_fract_y
	_atom_site_fract_z
	H0	H	0.400453	0.835284	0.722357
	H1	H	0.595398	0.162554	0.723191
	H2	H	0.594572	0.834454	0.295407
	H3	H	0.399030	0.162797	0.293201
	H4	H	0.712148	0.400069	0.845753
	H5	H	0.710692	0.596424	0.173578
	H6	H	0.281195	0.598352	0.845696
	H7	H	0.283478	0.399511	0.172941
	H8	H	0.833903	0.713919	0.410601
	H9	H	0.161258	0.712205	0.606863
	H10	H	0.833793	0.285078	0.606783
	H11	H	0.160832	0.283542	0.410975
	H12	H	0.833847	0.401196	0.723203
	H13	H	0.160614	0.596778	0.723694
	H14	H	0.834094	0.597095	0.294947
	H15	H	0.161287	0.401204	0.295116
	H16	H	0.399003	0.711643	0.844574
	H17	H	0.593663	0.712319	0.173335
	H18	H	0.593593	0.287014	0.843839
	H19	H	0.401284	0.284961	0.172350
	H20	H	0.712719	0.835432	0.409678
	H21	H	0.711552	0.162934	0.607277
	H22	H	0.283765	0.836016	0.607250
	H23	H	0.281939	0.162410	0.408330
	H24	H	0.901083	0.335531	0.223524
	H25	H	0.093751	0.663574	0.222486
	H26	H	0.094658	0.336345	0.795790
	H27	H	0.898924	0.663389	0.795027
	H28	H	0.211968	0.901007	0.344760
	H29	H	0.213217	0.096497	0.671668
	H30	H	0.783016	0.096769	0.344538
	H31	H	0.784075	0.901405	0.673316
	H32	H	0.333638	0.213386	0.910192
	H33	H	0.660805	0.212519	0.105601
	H34	H	0.333730	0.784310	0.106674
	H35	H	0.659961	0.783799	0.911219
	H36	H	0.334026	0.901594	0.222002
	H37	H	0.661408	0.096283	0.222352
	H38	H	0.333966	0.097098	0.793868
	H39	H	0.660760	0.901424	0.795514
	H40	H	0.899104	0.213923	0.344291
	H41	H	0.095676	0.211746	0.673710
	H42	H	0.094312	0.786113	0.344667
	H43	H	0.901490	0.786503	0.673639
	H44	H	0.211660	0.336004	0.910557
	H45	H	0.212728	0.662279	0.109365
	H46	H	0.784109	0.334836	0.107707
	H47	H	0.781348	0.662477	0.910122
	H48	H	0.407071	0.115902	0.603964
	H49	H	0.582328	0.885247	0.602551
	H50	H	0.588728	0.113578	0.418834
	H51	H	0.406504	0.885914	0.424822
	H52	H	0.585393	0.407196	0.123877
	H53	H	0.585945	0.592794	0.893908
	H54	H	0.403994	0.577298	0.121146
	H55	H	0.406890	0.402304	0.891544
	H56	H	0.112015	0.592235	0.418965
	H57	H	0.883302	0.589439	0.599652
	H58	H	0.112041	0.402144	0.594204
	H59	H	0.881700	0.406879	0.412845
	H60	H	0.110935	0.414664	0.605784
	H61	H	0.879533	0.593130	0.608341
	H62	H	0.113037	0.590240	0.413579
	H63	H	0.881440	0.403308	0.417273
	H64	H	0.416439	0.599658	0.123943
	H65	H	0.593509	0.595446	0.890867
	H66	H	0.591777	0.398961	0.127538
	H67	H	0.397684	0.405419	0.890236
	H68	H	0.595491	0.116935	0.415413
	H69	H	0.597651	0.882934	0.593756
	H70	H	0.405044	0.114605	0.597250
	H71	H	0.395561	0.879240	0.412803
	H72	H	0.900505	0.617409	0.103031
	H73	H	0.090882	0.383405	0.099304
	H74	H	0.094795	0.617502	0.916614
	H75	H	0.910691	0.385273	0.917838
	H76	H	0.092726	0.900443	0.627489
	H77	H	0.088652	0.096135	0.391689
	H78	H	0.907174	0.101859	0.627136
	H79	H	0.888456	0.903446	0.387346
	H80	H	0.611782	0.092489	0.920000
	H81	H	0.381770	0.096925	0.096533
	H82	H	0.609563	0.912762	0.100214
	H83	H	0.382881	0.907630	0.920871
	H84	H	0.616504	0.902278	0.110459
	H85	H	0.383471	0.086648	0.100591
	H86	H	0.613560	0.089825	0.912190
	H87	H	0.380473	0.909345	0.909371
	H88	H	0.894729	0.090110	0.626864
	H89	H	0.094769	0.090408	0.391535
	H90	H	0.096260	0.909576	0.626072
	H91	H	0.907577	0.920969	0.397709
	H92	H	0.084876	0.616753	0.912299
	H93	H	0.094338	0.382203	0.103684
	H94	H	0.904086	0.615927	0.103654
	H95	H	0.899893	0.383116	0.921352
	H96	H	0.400555	0.117015	0.602330
	H97	H	0.596524	0.878771	0.611265
	H98	H	0.588679	0.115963	0.410974
	H99	H	0.411834	0.882998	0.408210
	H100	H	0.596173	0.408668	0.125942
	H101	H	0.592999	0.587117	0.893431
	H102	H	0.391760	0.597743	0.130753
	H103	H	0.404451	0.411666	0.894059
	H104	H	0.114199	0.595093	0.414624
	H105	H	0.880362	0.598556	0.599877
	H106	H	0.117032	0.399258	0.609714
	H107	H	0.882969	0.408803	0.417821
	H108	H	0.902552	0.615264	0.100404
	H109	H	0.088958	0.382469	0.104650
	H110	H	0.086858	0.613055	0.922842
	H111	H	0.902576	0.381233	0.910871
	H112	H	0.086583	0.907598	0.623618
	H113	H	0.086786	0.088179	0.394204
	H114	H	0.909693	0.085449	0.621896
	H115	H	0.914850	0.894544	0.392138
	H116	H	0.615103	0.096960	0.914506
	H117	H	0.379246	0.094037	0.106982
	H118	H	0.613629	0.898008	0.095522
	H119	H	0.379373	0.898710	0.914528
	C120	C	0.376365	0.007383	0.629400
	C121	C	0.619662	0.990874	0.630701
	C122	C	0.619015	0.006980	0.387056
	C123	C	0.375854	0.990859	0.386395
	C124	C	0.618845	0.377227	0.017348
	C125	C	0.618394	0.620016	1.001010
	C126	C	0.375170	0.620132	0.017290
	C127	C	0.375621	0.377769	1.000283
	C128	C	0.005310	0.621103	0.387350
	C129	C	0.989075	0.621339	0.630937
	C130	C	0.005421	0.377188	0.631263
	C131	C	0.989621	0.377478	0.387461
	C132	C	0.875164	0.507550	0.130847
	C133	C	0.118998	0.491197	0.130626
	C134	C	0.118244	0.507914	0.888229
	C135	C	0.875649	0.491155	0.887538
	C136	C	0.119468	0.877680	0.517282
	C137	C	0.118715	0.120090	0.500593
	C138	C	0.875423	0.120921	0.516968
	C139	C	0.875980	0.878254	0.501050
	C140	C	0.505397	0.121153	0.886700
	C141	C	0.489429	0.120509	0.129647
	C142	C	0.505415	0.876466	0.130188
	C143	C	0.488657	0.876774	0.886796
	C144	C	0.379922	0.884242	0.684257
	C145	C	0.616332	0.113933	0.685421
	C146	C	0.615723	0.883649	0.332698
	C147	C	0.378843	0.114082	0.331553
	C148	C	0.673730	0.379790	0.894067
	C149	C	0.672615	0.617017	0.124699
	C150	C	0.319251	0.618341	0.894298
	C151	C	0.321454	0.379612	0.123891
	C152	C	0.882706	0.676100	0.390010
	C153	C	0.112189	0.675096	0.627837
	C154	C	0.882576	0.322703	0.627777
	C155	C	0.112275	0.322006	0.390235
	C156	C	0.882519	0.380611	0.685623
	C157	C	0.111922	0.617938	0.685941
	C158	C	0.882674	0.618087	0.332598
	C159	C	0.112327	0.380252	0.332566
	C160	C	0.377771	0.674717	0.893719
	C161	C	0.614605	0.674507	0.124478
	C162	C	0.615130	0.323622	0.893261
	C163	C	0.379862	0.322805	0.123738
	C164	C	0.674379	0.884031	0.389460
	C165	C	0.673936	0.114110	0.627698
	C166	C	0.321790	0.884428	0.627063
	C167	C	0.320644	0.113928	0.388723
	C168	C	0.879664	0.384124	0.185441
	C169	C	0.114992	0.614552	0.185032
	C170	C	0.115826	0.385098	0.833148
	C171	C	0.878208	0.614315	0.832502
	C172	C	0.174311	0.880248	0.393712
	C173	C	0.174200	0.117227	0.623754
	C174	C	0.820913	0.117914	0.393163
	C175	C	0.821628	0.880961	0.624375
	C176	C	0.382530	0.175666	0.889578
	C177	C	0.612315	0.174699	0.126541
	C178	C	0.382528	0.821955	0.127355
	C179	C	0.611306	0.821734	0.890136
	C180	C	0.382761	0.880034	0.184848
	C181	C	0.612437	0.116850	0.184368
	C182	C	0.382683	0.117820	0.831932
	C183	C	0.611909	0.880138	0.832943
	C184	C	0.878480	0.175897	0.393220
	C185	C	0.115946	0.174317	0.624435
	C186	C	0.115772	0.823434	0.393602
	C187	C	0.879908	0.823933	0.624535
	C188	C	0.173677	0.384931	0.890625
	C189	C	0.174108	0.613871	0.128936
	C190	C	0.821431	0.384001	0.128175
	C191	C	0.820060	0.614079	0.889849
	C192	C	0.397796	0.093594	0.607604
	C193	C	0.598362	0.904572	0.608976
	C194	C	0.597372	0.093151	0.408768
	C195	C	0.397998	0.904901	0.408855
	C196	C	0.597497	0.398644	0.103420
	C197	C	0.597042	0.598113	0.914955
	C198	C	0.397410	0.597886	0.103112
	C199	C	0.396748	0.399871	0.914255
	C200	C	0.091094	0.599036	0.409134
	C201	C	0.903193	0.599983	0.608929
	C202	C	0.091094	0.398891	0.609533
	C203	C	0.904111	0.399687	0.409577
	C204	C	0.896250	0.593864	0.108927
	C205	C	0.097549	0.404855	0.108918
	C206	C	0.095676	0.593715	0.910813
	C207	C	0.898003	0.405271	0.909830
	C208	C	0.098214	0.899441	0.603418
	C209	C	0.096579	0.098058	0.414819
	C210	C	0.897421	0.098891	0.602928
	C211	C	0.897155	0.899957	0.414720
	C212	C	0.591361	0.099422	0.908856
	C213	C	0.403555	0.099041	0.107775
	C214	C	0.591138	0.898042	0.108427
	C215	C	0.403070	0.898853	0.908428
	Zn216	Zn	0.497467	-0.000974	0.758455
	Zn217	Zn	0.497885	-0.001326	0.258619
	Zn218	Zn	0.747124	0.498593	0.008928
	Zn219	Zn	0.247032	0.499467	0.009495
	Zn220	Zn	-0.002280	0.749938	0.509054
	Zn221	Zn	-0.002609	0.248818	0.509125
	Zn222	Zn	-0.003047	0.499711	0.759421
	Zn223	Zn	-0.002622	0.499588	0.258730
	Zn224	Zn	0.496228	0.747906	0.008553
	Zn225	Zn	0.497440	0.249447	0.008144
	Zn226	Zn	0.747153	-0.000773	0.508765
	Zn227	Zn	0.247540	-0.000772	0.508348
	N228	N	0.413331	0.961621	0.685613
	N229	N	0.583341	0.036249	0.687249
	N230	N	0.582143	0.961094	0.331143
	N231	N	0.412485	0.036628	0.330025
	N232	N	0.676367	0.412296	0.972096
	N233	N	0.675226	0.583784	0.046861
	N234	N	0.317776	0.585064	0.972050
	N235	N	0.318733	0.413304	0.046281
	N236	N	0.960061	0.678046	0.423377
	N237	N	0.034783	0.677415	0.594397
	N238	N	0.959956	0.320365	0.594837
	N239	N	0.035008	0.320268	0.423644
	N240	N	0.960015	0.413764	0.687983
	N241	N	0.034383	0.585107	0.687855
	N242	N	0.959913	0.584494	0.331124
	N243	N	0.035121	0.414097	0.330703
	N244	N	0.411880	0.675906	0.971134
	N245	N	0.581608	0.676378	0.046652
	N246	N	0.581588	0.321868	0.970757
	N247	N	0.412659	0.321408	0.045922
	N248	N	0.676662	0.961892	0.422397
	N249	N	0.676068	0.036489	0.594472
	N250	N	0.319661	0.962030	0.593513
	N251	N	0.318909	0.036268	0.422288
	N252	N	0.912113	0.461837	0.187183
	N253	N	0.081504	0.537054	0.186317
	N254	N	0.081916	0.462312	0.831800
	N255	N	0.912034	0.536866	0.831225
	N256	N	0.176574	0.913405	0.471464
	N257	N	0.176314	0.084485	0.545919
	N258	N	0.818652	0.084639	0.471004
	N259	N	0.819224	0.914070	0.546451
	N260	N	0.459965	0.177781	0.922882
	N261	N	0.534829	0.177267	0.093419
	N262	N	0.459894	0.819572	0.094271
	N263	N	0.533864	0.819760	0.923081
	N264	N	0.460132	0.913235	0.186624
	N265	N	0.534963	0.083711	0.186209
	N266	N	0.460165	0.084641	0.830233
	N267	N	0.534583	0.913682	0.830562
	N268	N	0.911623	0.177767	0.470994
	N269	N	0.082098	0.176052	0.546866
	N270	N	0.082695	0.821564	0.471376
	N271	N	0.912890	0.822066	0.546852
	N272	N	0.175398	0.462606	0.923923
	N273	N	0.176449	0.536153	0.095975
	N274	N	0.818643	0.461841	0.094941
	N275	N	0.818497	0.536542	0.923522
	O276	O	0.492635	0.538004	0.448430
	H277	H	0.500675	0.532992	0.448323
	H278	H	0.493464	0.537207	0.453877
	O279	O	0.448921	0.530000	0.443867
	H280	H	0.449531	0.536578	0.444515
	H281	H	0.443876	0.529879	0.440510
	O282	O	1.496526	0.505150	-0.528874
	H283	H	1.498697	0.496412	-0.528830
	H284	H	1.490946	0.507843	-0.540370
	O285	O	0.479735	0.516143	0.441138
	H286	H	0.473134	0.517419	0.440742
	H287	H	0.483094	0.524089	0.443376
