data_Molecule from HDF5

_cell_length_a		16.113633
_cell_length_b		16.265222
_cell_length_c		16.408497
_cell_angle_alpha	90.116924
_cell_angle_beta	90.557849
_cell_angle_gamma	90.040283
_symmetry_space_group_name_H-M	'P 1'
_symmetry_Int_Tables_number		1

loop_
	_symmetry_equiv_pos_as_xyz
	x,y,z

loop_
	_atom_site_label
	_atom_site_type_symbol
	_atom_site_fract_x
	_atom_site_fract_y
	_atom_site_fract_z
	H0	H	0.395522	0.837272	0.721875
	H1	H	0.602870	0.160323	0.725040
	H2	H	0.598511	0.836091	0.290486
	H3	H	0.394847	0.161388	0.285951
	H4	H	0.715545	0.401900	0.843235
	H5	H	0.716821	0.595058	0.170175
	H6	H	0.283707	0.598608	0.845562
	H7	H	0.288548	0.398252	0.168180
	H8	H	0.832931	0.711813	0.407327
	H9	H	0.161990	0.718161	0.608676
	H10	H	0.833397	0.289074	0.602906
	H11	H	0.163635	0.286305	0.410701
	H12	H	0.835330	0.401091	0.721318
	H13	H	0.162426	0.604207	0.724838
	H14	H	0.837207	0.600786	0.287716
	H15	H	0.165963	0.399760	0.295379
	H16	H	0.400947	0.713451	0.844366
	H17	H	0.607162	0.717649	0.167455
	H18	H	0.602707	0.281416	0.843861
	H19	H	0.403467	0.280003	0.166842
	H20	H	0.712291	0.835426	0.409422
	H21	H	0.712183	0.164073	0.604201
	H22	H	0.284959	0.836212	0.601144
	H23	H	0.286169	0.164138	0.407816
	H24	H	0.901728	0.337611	0.223561
	H25	H	0.106370	0.661795	0.227530
	H26	H	0.104911	0.340028	0.786923
	H27	H	0.896217	0.662011	0.790664
	H28	H	0.209572	0.900383	0.342422
	H29	H	0.219610	0.103346	0.666825
	H30	H	0.781667	0.098447	0.342850
	H31	H	0.787128	0.905516	0.669444
	H32	H	0.338037	0.214259	0.903028
	H33	H	0.667455	0.209981	0.104671
	H34	H	0.337752	0.782883	0.101320
	H35	H	0.666970	0.785172	0.908555
	H36	H	0.335647	0.896974	0.217589
	H37	H	0.664141	0.099833	0.225797
	H38	H	0.337059	0.099724	0.788993
	H39	H	0.664390	0.896722	0.789661
	H40	H	0.896235	0.218179	0.343840
	H41	H	0.100118	0.217027	0.668100
	H42	H	0.094631	0.781793	0.345463
	H43	H	0.893671	0.782409	0.666915
	H44	H	0.213950	0.335682	0.909630
	H45	H	0.218641	0.663156	0.107270
	H46	H	0.789501	0.335706	0.104927
	H47	H	0.787223	0.663095	0.909831
	H48	H	0.412386	0.113585	0.595609
	H49	H	0.594120	0.882332	0.598066
	H50	H	0.586790	0.114655	0.415061
	H51	H	0.408590	0.883631	0.410467
	H52	H	0.592231	0.403222	0.120234
	H53	H	0.602887	0.594034	0.888143
	H54	H	0.408152	0.592699	0.123705
	H55	H	0.414852	0.407146	0.893287
	H56	H	0.115788	0.584075	0.413045
	H57	H	0.877849	0.595654	0.604859
	H58	H	0.120324	0.411713	0.613394
	H59	H	0.886082	0.416367	0.419415
	H60	H	0.117849	0.398552	0.592622
	H61	H	0.881901	0.594744	0.592744
	H62	H	0.119919	0.600725	0.414652
	H63	H	0.880695	0.413634	0.403260
	H64	H	0.413665	0.587538	0.119864
	H65	H	0.592289	0.583489	0.893735
	H66	H	0.598144	0.400580	0.123135
	H67	H	0.407544	0.398607	0.888508
	H68	H	0.590662	0.115480	0.414382
	H69	H	0.591914	0.881649	0.601170
	H70	H	0.406231	0.116525	0.597694
	H71	H	0.402475	0.883049	0.413227
	H72	H	0.909316	0.616337	0.096549
	H73	H	0.097525	0.380425	0.108410
	H74	H	0.087338	0.615100	0.916280
	H75	H	0.908806	0.384631	0.919215
	H76	H	0.087680	0.912773	0.618878
	H77	H	0.085657	0.084873	0.395583
	H78	H	0.900103	0.083319	0.619670
	H79	H	0.897944	0.915494	0.390807
	H80	H	0.619405	0.089070	0.913192
	H81	H	0.382926	0.090924	0.096941
	H82	H	0.616850	0.908458	0.097925
	H83	H	0.385625	0.910533	0.911651
	H84	H	0.619056	0.911184	0.102896
	H85	H	0.384010	0.090894	0.094543
	H86	H	0.618717	0.089342	0.916226
	H87	H	0.382066	0.903409	0.909254
	H88	H	0.919448	0.097847	0.617332
	H89	H	0.083214	0.103151	0.390569
	H90	H	0.090459	0.906306	0.621554
	H91	H	0.915369	0.906811	0.394114
	H92	H	0.094967	0.615922	0.920285
	H93	H	0.086910	0.386008	0.101660
	H94	H	0.909141	0.617433	0.103219
	H95	H	0.907270	0.380672	0.908880
	H96	H	0.411888	0.116371	0.601668
	H97	H	0.590206	0.883267	0.598396
	H98	H	0.588530	0.116102	0.410967
	H99	H	0.403534	0.881104	0.406871
	H100	H	0.598649	0.407248	0.121547
	H101	H	0.587684	0.598941	0.890771
	H102	H	0.415875	0.595216	0.122254
	H103	H	0.403186	0.410278	0.890640
	H104	H	0.113678	0.592475	0.427630
	H105	H	0.882193	0.584669	0.600783
	H106	H	0.110912	0.421511	0.592746
	H107	H	0.879172	0.401325	0.415031
	H108	H	0.915525	0.615174	0.100128
	H109	H	0.098807	0.383790	0.095330
	H110	H	0.094443	0.618200	0.911573
	H111	H	0.917490	0.384686	0.912080
	H112	H	0.095533	0.912699	0.621124
	H113	H	0.100507	0.094876	0.386967
	H114	H	0.897947	0.106468	0.626057
	H115	H	0.899951	0.896936	0.385793
	H116	H	0.618254	0.086246	0.914423
	H117	H	0.384735	0.088412	0.096055
	H118	H	0.620170	0.905763	0.101354
	H119	H	0.384715	0.904339	0.917672
	C120	C	0.378931	0.008004	0.626757
	C121	C	0.621271	0.990451	0.628249
	C122	C	0.618561	0.007676	0.385367
	C123	C	0.375768	0.990614	0.381425
	C124	C	0.624876	0.375743	0.014342
	C125	C	0.624663	0.621021	0.998043
	C126	C	0.381635	0.620493	0.014969
	C127	C	0.380202	0.375739	0.997477
	C128	C	0.008002	0.621306	0.387145
	C129	C	0.989463	0.622405	0.629089
	C130	C	0.007598	0.380818	0.628014
	C131	C	0.991072	0.380114	0.385359
	C132	C	0.881615	0.508393	0.128847
	C133	C	0.125018	0.491042	0.131214
	C134	C	0.122208	0.508756	0.886024
	C135	C	0.879956	0.491189	0.885208
	C136	C	0.119002	0.879505	0.513969
	C137	C	0.120886	0.123729	0.497875
	C138	C	0.875829	0.123927	0.513941
	C139	C	0.875565	0.878549	0.497575
	C140	C	0.510326	0.118860	0.884235
	C141	C	0.492699	0.119462	0.126728
	C142	C	0.509782	0.877969	0.127294
	C143	C	0.492721	0.876926	0.884220
	C144	C	0.377985	0.885477	0.682407
	C145	C	0.621425	0.112528	0.685576
	C146	C	0.618167	0.884611	0.329264
	C147	C	0.376471	0.113173	0.325358
	C148	C	0.678451	0.380006	0.891894
	C149	C	0.680195	0.617484	0.120994
	C150	C	0.323329	0.618680	0.893464
	C151	C	0.325677	0.377558	0.119381
	C152	C	0.883107	0.675466	0.386886
	C153	C	0.112917	0.679919	0.628454
	C154	C	0.883267	0.326060	0.624275
	C155	C	0.114960	0.324216	0.389666
	C156	C	0.884384	0.381600	0.683517
	C157	C	0.113241	0.623187	0.686254
	C158	C	0.885462	0.620650	0.327296
	C159	C	0.115879	0.380710	0.332357
	C160	C	0.381549	0.675883	0.892961
	C161	C	0.625162	0.678049	0.119664
	C162	C	0.622396	0.320084	0.892365
	C163	C	0.383047	0.318875	0.118692
	C164	C	0.674628	0.884300	0.388208
	C165	C	0.675594	0.114286	0.625318
	C166	C	0.322590	0.885237	0.622606
	C167	C	0.322074	0.114577	0.385715
	C168	C	0.882266	0.385920	0.184854
	C169	C	0.125161	0.613478	0.188220
	C170	C	0.122683	0.387635	0.827459
	C171	C	0.878267	0.613243	0.829147
	C172	C	0.172690	0.880159	0.391671
	C173	C	0.179593	0.122498	0.618820
	C174	C	0.819758	0.120163	0.391418
	C175	C	0.822661	0.883225	0.620354
	C176	C	0.387017	0.175776	0.884577
	C177	C	0.617425	0.173340	0.125556
	C178	C	0.386287	0.821241	0.122732
	C179	C	0.617120	0.822315	0.887524
	C180	C	0.385297	0.877933	0.180562
	C181	C	0.615719	0.118776	0.185754
	C182	C	0.386503	0.118832	0.827497
	C183	C	0.615734	0.877663	0.828392
	C184	C	0.876591	0.179556	0.392038
	C185	C	0.120527	0.179672	0.619435
	C186	C	0.115506	0.821148	0.393077
	C187	C	0.876017	0.822132	0.619090
	C188	C	0.177280	0.385582	0.888280
	C189	C	0.181296	0.614017	0.128758
	C190	C	0.826574	0.385029	0.125726
	C191	C	0.823963	0.613843	0.888714
	C192	C	0.403138	0.093442	0.604830
	C193	C	0.598629	0.904702	0.605856
	C194	C	0.595573	0.093082	0.407104
	C195	C	0.398344	0.904921	0.403505
	C196	C	0.602936	0.397155	0.099722
	C197	C	0.601228	0.598642	0.913027
	C198	C	0.405640	0.598350	0.100007
	C199	C	0.402111	0.398463	0.912737
	C200	C	0.093995	0.598875	0.411351
	C201	C	0.903215	0.598672	0.606132
	C202	C	0.093897	0.403867	0.605977
	C203	C	0.904473	0.403519	0.406372
	C204	C	0.904600	0.594076	0.106463
	C205	C	0.101421	0.405550	0.108548
	C206	C	0.098858	0.594396	0.909336
	C207	C	0.904161	0.405435	0.907115
	C208	C	0.097456	0.903513	0.598539
	C209	C	0.096736	0.100907	0.413083
	C210	C	0.899089	0.102340	0.598888
	C211	C	0.897951	0.900224	0.412475
	C212	C	0.596569	0.095124	0.907595
	C213	C	0.406338	0.096732	0.102794
	C214	C	0.596133	0.901699	0.106813
	C215	C	0.406423	0.899602	0.906506
	Zn216	Zn	0.500225	-0.001899	0.756116
	Zn217	Zn	0.498787	-0.000875	0.254693
	Zn218	Zn	0.753242	0.498846	0.006745
	Zn219	Zn	0.251849	0.499430	0.007333
	Zn220	Zn	-0.003719	0.749820	0.507753
	Zn221	Zn	-0.001590	0.253076	0.506160
	Zn222	Zn	0.000212	0.501581	0.757079
	Zn223	Zn	0.002043	0.500460	0.258524
	Zn224	Zn	0.502880	0.749597	0.005723
	Zn225	Zn	0.502620	0.246407	0.004949
	Zn226	Zn	0.748086	0.000202	0.505945
	Zn227	Zn	0.249688	0.000560	0.504703
	N228	N	0.412205	0.962992	0.685054
	N229	N	0.588229	0.034643	0.687436
	N230	N	0.583770	0.961977	0.327337
	N231	N	0.409029	0.034979	0.322451
	N232	N	0.680052	0.413875	0.968600
	N233	N	0.679979	0.582743	0.044554
	N234	N	0.323373	0.584892	0.970194
	N235	N	0.323890	0.412374	0.043043
	N236	N	0.960037	0.675858	0.423821
	N237	N	0.034904	0.679570	0.593664
	N238	N	0.961079	0.325425	0.590503
	N239	N	0.036367	0.323742	0.421728
	N240	N	0.962822	0.414959	0.685993
	N241	N	0.035542	0.588224	0.686750
	N242	N	0.964122	0.587745	0.327272
	N243	N	0.037696	0.414656	0.329574
	N244	N	0.417100	0.677107	0.969561
	N245	N	0.591441	0.680382	0.042269
	N246	N	0.590001	0.317193	0.969663
	N247	N	0.416094	0.317524	0.041885
	N248	N	0.674787	0.961488	0.422488
	N249	N	0.675633	0.037465	0.590338
	N250	N	0.322998	0.962355	0.588705
	N251	N	0.321496	0.037406	0.419843
	N252	N	0.915661	0.463464	0.186831
	N253	N	0.091057	0.536013	0.189884
	N254	N	0.089357	0.465480	0.825990
	N255	N	0.912509	0.535903	0.826939
	N256	N	0.174984	0.915810	0.467749
	N257	N	0.179717	0.088231	0.542250
	N258	N	0.819086	0.086387	0.468099
	N259	N	0.822374	0.917638	0.543848
	N260	N	0.465124	0.175974	0.919109
	N261	N	0.539934	0.173973	0.089727
	N262	N	0.464652	0.821092	0.090337
	N263	N	0.539528	0.821627	0.921419
	N264	N	0.463014	0.912573	0.183298
	N265	N	0.537033	0.086140	0.186494
	N266	N	0.464194	0.083964	0.827228
	N267	N	0.537289	0.911105	0.826423
	N268	N	0.910626	0.182142	0.469311
	N269	N	0.084637	0.180473	0.543175
	N270	N	0.082888	0.820606	0.470249
	N271	N	0.908254	0.819084	0.541743
	N272	N	0.176770	0.461961	0.924224
	N273	N	0.181449	0.536899	0.094105
	N274	N	0.826067	0.462282	0.091495
	N275	N	0.825089	0.536871	0.923170
	O276	O	0.545041	0.419455	0.520825
	H277	H	0.532788	0.430353	0.512723
	H278	H	0.545010	0.412299	0.515794
	O279	O	0.438730	0.556880	0.467140
	H280	H	0.440997	0.559377	0.465924
	H281	H	0.443843	0.541313	0.479695
	O282	O	0.395078	0.565082	-0.545799
	H283	H	0.399308	0.562693	-0.528522
	H284	H	0.392528	0.566140	-0.541297
	O285	O	1.078879	-0.128092	0.913804
	H286	H	1.086745	-0.116594	0.907731
	H287	H	1.086920	-0.129187	0.929502
	O288	O	0.406862	0.427669	0.619577
	H289	H	0.391701	0.423764	0.623615
	H290	H	0.424492	0.438547	0.616568
	O291	O	0.098014	0.984385	0.152896
	H292	H	0.121813	0.994502	0.172927
	H293	H	0.090305	0.993797	0.143339
	O294	O	0.518682	0.468096	0.544433
	H295	H	0.530153	0.470384	0.550566
	H296	H	0.510585	0.464132	0.536291
	O297	O	-0.015044	-0.035851	0.968925
	H298	H	-0.007348	-0.038706	0.963164
	H299	H	-0.018504	-0.032483	0.971138
	O300	O	0.508486	0.598722	0.565454
	H301	H	0.502107	0.597789	0.576979
	H302	H	0.505175	0.597190	0.569420
	O303	O	0.922580	1.117280	-0.066210
	H304	H	0.902940	1.121128	-0.074864
	H305	H	0.925167	1.104887	-0.076082
	O306	O	0.024203	1.001975	1.143652
	H307	H	0.021747	1.015192	1.143804
	H308	H	0.032984	1.011865	1.143610
	O309	O	0.493171	0.438530	0.481102
	H310	H	0.495860	0.448468	0.482922
	H311	H	0.484774	0.449934	0.468601
	O312	O	0.017540	0.109170	0.088727
	H313	H	0.017953	0.121849	0.082724
	H314	H	0.016678	0.102828	0.083469
	O315	O	0.978217	0.163545	0.025847
	H316	H	0.968418	0.166195	0.033008
	H317	H	0.971313	0.158961	0.006196
	O318	O	1.022751	1.049445	0.918621
	H319	H	1.031259	1.046483	0.924266
	H320	H	1.023745	1.042789	0.918849
	O321	O	0.032305	-0.134027	1.035642
	H322	H	0.025859	-0.135917	1.049765
	H323	H	0.040736	-0.129529	1.055544
	O324	O	1.104528	-0.075927	-0.127651
	H325	H	1.114970	-0.074483	-0.123333
	H326	H	1.105642	-0.056614	-0.118153
	O327	O	-0.036967	-0.056105	-0.170708
	H328	H	-0.031307	-0.065115	-0.166945
	H329	H	-0.021566	-0.068994	-0.179099
	O330	O	0.588603	0.477291	0.448744
	H331	H	0.591001	0.482971	0.436481
	H332	H	0.582163	0.469418	0.439031
	O333	O	0.065757	1.043665	1.076414
	H334	H	0.058437	1.051497	1.070022
	H335	H	0.060514	1.041714	1.073959
	O336	O	0.004572	0.138556	-0.038362
	H337	H	-0.009230	0.131592	-0.055847
	H338	H	-0.001045	0.140446	-0.043772
	O339	O	0.606968	0.509525	0.460449
	H340	H	0.595939	0.509371	0.457296
	H341	H	0.610099	0.499126	0.449943
	O342	O	1.483478	1.562531	1.525243
	H343	H	1.483595	1.552032	1.524687
	H344	H	1.492485	1.563903	1.529311
	O345	O	1.000398	1.026861	-0.029090
	H346	H	1.004545	1.032865	-0.033387
	H347	H	1.000452	1.036994	-0.027045
	O348	O	0.485096	0.468318	0.346891
	H349	H	0.473129	0.476752	0.338116
	H350	H	0.485317	0.480179	0.357135
	O351	O	0.470076	0.531227	0.482875
	H352	H	0.476965	0.535694	0.463938
	H353	H	0.456929	0.527182	0.491891
	O354	O	0.449037	0.437323	0.466003
	H355	H	0.451771	0.427315	0.464862
	H356	H	0.442046	0.436787	0.474200
	O357	O	0.465908	-0.529493	0.565571
	H358	H	0.451485	-0.539361	0.571202
	H359	H	0.474483	-0.537719	0.572670
	O360	O	0.479255	0.521666	0.655013
	H361	H	0.483561	0.517100	0.652285
	H362	H	0.498782	0.523955	0.654394
	O363	O	0.458918	0.543736	0.390459
	H364	H	0.453496	0.553863	0.395306
	H365	H	0.468494	0.542651	0.393935
	O366	O	0.992540	1.052618	0.941236
	H367	H	0.994355	1.046798	0.942781
	H368	H	0.983950	1.051974	0.929319
	O369	O	1.010165	-0.014640	0.962807
	H370	H	0.994485	-0.016950	0.951545
	H371	H	1.018077	-0.020191	0.965497
	O372	O	0.029079	-0.083594	-0.017634
	H373	H	0.026120	-0.081752	-0.020879
	H374	H	0.025469	-0.080533	-0.003394
	O375	O	1.002615	-0.006254	0.102989
	H376	H	1.003907	0.000047	0.102806
	H377	H	1.004974	0.004100	0.106040
	O378	O	0.963434	1.068111	1.053934
	H379	H	0.960101	1.060944	1.050569
	H380	H	0.965679	1.062449	1.064717
	O381	O	0.465783	0.445625	0.525364
	H382	H	0.464693	0.451989	0.520917
	H383	H	0.466436	0.447592	0.512469
