data_Molecule from HDF5

_cell_length_a		16.227903
_cell_length_b		16.302500
_cell_length_c		16.215275
_cell_angle_alpha	90.488298
_cell_angle_beta	90.436500
_cell_angle_gamma	90.475617
_symmetry_space_group_name_H-M	'P 1'
_symmetry_Int_Tables_number		1

loop_
	_symmetry_equiv_pos_as_xyz
	x,y,z

loop_
	_atom_site_label
	_atom_site_type_symbol
	_atom_site_fract_x
	_atom_site_fract_y
	_atom_site_fract_z
	H0	H	0.399950	0.834952	0.718379
	H1	H	0.602204	0.161983	0.724359
	H2	H	0.597211	0.837132	0.289400
	H3	H	0.400608	0.162651	0.289992
	H4	H	0.712344	0.400810	0.842718
	H5	H	0.716440	0.601482	0.170718
	H6	H	0.283958	0.594178	0.842760
	H7	H	0.286466	0.400495	0.171453
	H8	H	0.836445	0.711713	0.405364
	H9	H	0.163724	0.718856	0.609469
	H10	H	0.838639	0.281288	0.606224
	H11	H	0.164812	0.285095	0.406431
	H12	H	0.837107	0.398486	0.720251
	H13	H	0.164932	0.600974	0.724501
	H14	H	0.837436	0.596628	0.291284
	H15	H	0.164890	0.402034	0.293815
	H16	H	0.400186	0.710090	0.841536
	H17	H	0.604556	0.719824	0.168847
	H18	H	0.599075	0.281983	0.843262
	H19	H	0.400327	0.283900	0.170846
	H20	H	0.711868	0.835438	0.406274
	H21	H	0.719419	0.161600	0.608607
	H22	H	0.283343	0.836349	0.602983
	H23	H	0.286672	0.163481	0.407754
	H24	H	0.901569	0.336572	0.220030
	H25	H	0.102374	0.662808	0.223569
	H26	H	0.100226	0.337047	0.789602
	H27	H	0.900882	0.662921	0.790987
	H28	H	0.210963	0.900994	0.340785
	H29	H	0.218748	0.100758	0.669049
	H30	H	0.784736	0.096311	0.341981
	H31	H	0.784434	0.898585	0.669331
	H32	H	0.335787	0.210901	0.905706
	H33	H	0.662301	0.218434	0.110629
	H34	H	0.336492	0.783376	0.102124
	H35	H	0.663570	0.783239	0.904915
	H36	H	0.335747	0.899593	0.218254
	H37	H	0.663031	0.101531	0.223853
	H38	H	0.336062	0.094113	0.791413
	H39	H	0.663928	0.898672	0.790686
	H40	H	0.900902	0.212287	0.342237
	H41	H	0.105171	0.217587	0.668772
	H42	H	0.096127	0.783614	0.341860
	H43	H	0.899546	0.784131	0.669989
	H44	H	0.211660	0.335668	0.908125
	H45	H	0.219916	0.661440	0.110007
	H46	H	0.782901	0.337221	0.106860
	H47	H	0.784481	0.663432	0.907517
	H48	H	0.409933	0.114802	0.598453
	H49	H	0.595079	0.883447	0.593376
	H50	H	0.595189	0.115807	0.416465
	H51	H	0.405783	0.883383	0.410688
	H52	H	0.589802	0.404202	0.124640
	H53	H	0.592350	0.592938	0.889395
	H54	H	0.419525	0.594188	0.121558
	H55	H	0.404435	0.404869	0.890677
	H56	H	0.118721	0.592041	0.412331
	H57	H	0.882386	0.596872	0.601499
	H58	H	0.114704	0.411680	0.593163
	H59	H	0.879583	0.395955	0.406684
	H60	H	0.119227	0.413536	0.605581
	H61	H	0.885500	0.591913	0.592750
	H62	H	0.118648	0.597802	0.418594
	H63	H	0.887133	0.403332	0.425113
	H64	H	0.405492	0.599036	0.127023
	H65	H	0.594255	0.590937	0.889035
	H66	H	0.596738	0.408979	0.125088
	H67	H	0.407545	0.404601	0.889894
	H68	H	0.594022	0.116319	0.413610
	H69	H	0.595384	0.880542	0.602435
	H70	H	0.409326	0.116162	0.600545
	H71	H	0.405501	0.883037	0.411273
	H72	H	0.912929	0.614645	0.099944
	H73	H	0.089494	0.384564	0.097164
	H74	H	0.088511	0.616319	0.909971
	H75	H	0.911737	0.383083	0.904058
	H76	H	0.097544	0.911577	0.623345
	H77	H	0.096321	0.088739	0.388398
	H78	H	0.915066	0.094336	0.621707
	H79	H	0.899218	0.901345	0.386081
	H80	H	0.619003	0.091231	0.908148
	H81	H	0.386593	0.090087	0.087887
	H82	H	0.617526	0.907581	0.099161
	H83	H	0.381632	0.901250	0.907706
	H84	H	0.615986	0.909356	0.095591
	H85	H	0.382960	0.083359	0.105527
	H86	H	0.617160	0.099677	0.922052
	H87	H	0.383424	0.901294	0.914732
	H88	H	0.906922	0.092362	0.624076
	H89	H	0.088318	0.093342	0.389318
	H90	H	0.088778	0.912501	0.620372
	H91	H	0.906262	0.912688	0.391945
	H92	H	0.088862	0.611737	0.925019
	H93	H	0.098364	0.381509	0.099238
	H94	H	0.905561	0.615497	0.096804
	H95	H	0.911519	0.389130	0.923258
	H96	H	0.412071	0.114539	0.600308
	H97	H	0.586863	0.884733	0.598402
	H98	H	0.591900	0.115385	0.416502
	H99	H	0.405244	0.883445	0.411128
	H100	H	0.589835	0.411427	0.121829
	H101	H	0.591893	0.589748	0.889796
	H102	H	0.408175	0.584806	0.121322
	H103	H	0.405463	0.402099	0.889441
	H104	H	0.115633	0.590271	0.420921
	H105	H	0.884940	0.586280	0.601895
	H106	H	0.120072	0.401817	0.599248
	H107	H	0.885796	0.415206	0.408350
	H108	H	0.908506	0.618543	0.104805
	H109	H	0.091333	0.381329	0.106291
	H110	H	0.101350	0.618183	0.917984
	H111	H	0.895019	0.380708	0.914307
	H112	H	0.090783	0.904294	0.623032
	H113	H	0.096077	0.097543	0.386063
	H114	H	0.911858	0.087058	0.620668
	H115	H	0.913307	0.900201	0.390567
	H116	H	0.612645	0.083710	0.921386
	H117	H	0.378849	0.101206	0.101725
	H118	H	0.615816	0.911511	0.098550
	H119	H	0.384003	0.907509	0.911493
	C120	C	0.379635	0.007500	0.627169
	C121	C	0.623117	0.990539	0.628679
	C122	C	0.621786	0.008132	0.384948
	C123	C	0.377683	0.991294	0.383345
	C124	C	0.620763	0.378143	0.015402
	C125	C	0.622864	0.622082	0.997545
	C126	C	0.380054	0.619771	0.014858
	C127	C	0.377746	0.376156	0.998475
	C128	C	0.009210	0.620688	0.386784
	C129	C	0.992093	0.622351	0.629337
	C130	C	0.009915	0.378496	0.627861
	C131	C	0.992310	0.376965	0.384517
	C132	C	0.879313	0.508326	0.128683
	C133	C	0.123075	0.490553	0.130219
	C134	C	0.121398	0.507750	0.886976
	C135	C	0.877837	0.491983	0.885299
	C136	C	0.120335	0.879259	0.514086
	C137	C	0.123716	0.122639	0.496606
	C138	C	0.880298	0.120015	0.514070
	C139	C	0.877258	0.876240	0.497598
	C140	C	0.508523	0.119371	0.886377
	C141	C	0.490672	0.121852	0.128896
	C142	C	0.508251	0.879086	0.125872
	C143	C	0.491549	0.875497	0.882788
	C144	C	0.380176	0.884046	0.681089
	C145	C	0.622369	0.113221	0.686057
	C146	C	0.618072	0.885663	0.327895
	C147	C	0.380553	0.114190	0.328331
	C148	C	0.675401	0.379836	0.892059
	C149	C	0.678816	0.621616	0.121408
	C150	C	0.322415	0.615694	0.891607
	C151	C	0.323563	0.379478	0.122296
	C152	C	0.885795	0.674632	0.386391
	C153	C	0.114972	0.680095	0.629260
	C154	C	0.887100	0.320588	0.625976
	C155	C	0.115652	0.322575	0.386785
	C156	C	0.886292	0.379088	0.682453
	C157	C	0.115867	0.620975	0.685733
	C158	C	0.886249	0.617329	0.329578
	C159	C	0.115746	0.380786	0.330644
	C160	C	0.380316	0.673323	0.890984
	C161	C	0.623006	0.680344	0.120399
	C162	C	0.618598	0.321151	0.892299
	C163	C	0.380240	0.321660	0.121880
	C164	C	0.675240	0.884776	0.386061
	C165	C	0.680825	0.112805	0.628645
	C166	C	0.322115	0.884792	0.623737
	C167	C	0.323948	0.114642	0.386770
	C168	C	0.881062	0.385342	0.182924
	C169	C	0.122385	0.613630	0.186032
	C170	C	0.119522	0.385673	0.828853
	C171	C	0.880524	0.614477	0.829640
	C172	C	0.174365	0.880622	0.390213
	C173	C	0.180376	0.120678	0.620047
	C174	C	0.823024	0.116901	0.391194
	C175	C	0.822423	0.878654	0.620648
	C176	C	0.384887	0.173734	0.886456
	C177	C	0.613508	0.179664	0.129489
	C178	C	0.385367	0.821627	0.123335
	C179	C	0.614597	0.820674	0.884650
	C180	C	0.385008	0.879707	0.180832
	C181	C	0.613998	0.121553	0.185762
	C182	C	0.385113	0.115524	0.829387
	C183	C	0.614761	0.878105	0.827899
	C184	C	0.880838	0.174787	0.391242
	C185	C	0.124237	0.179230	0.619931
	C186	C	0.117315	0.822206	0.390655
	C187	C	0.879340	0.821292	0.620877
	C188	C	0.175058	0.384695	0.888044
	C189	C	0.180718	0.613091	0.129308
	C190	C	0.822015	0.385745	0.126566
	C191	C	0.822827	0.614710	0.887667
	C192	C	0.403404	0.092978	0.606069
	C193	C	0.599548	0.905058	0.604868
	C194	C	0.600219	0.093742	0.408776
	C195	C	0.399137	0.905601	0.404783
	C196	C	0.598698	0.401544	0.101519
	C197	C	0.599596	0.598269	0.911662
	C198	C	0.403961	0.598889	0.100884
	C199	C	0.399403	0.397536	0.912227
	C200	C	0.095363	0.599512	0.410425
	C201	C	0.906449	0.598627	0.605706
	C202	C	0.095671	0.402085	0.605847
	C203	C	0.906285	0.398522	0.406736
	C204	C	0.902250	0.593815	0.106949
	C205	C	0.099991	0.404819	0.107466
	C206	C	0.099514	0.593313	0.910822
	C207	C	0.899804	0.406479	0.907322
	C208	C	0.098575	0.902608	0.600009
	C209	C	0.100223	0.099878	0.410318
	C210	C	0.904421	0.097860	0.599980
	C211	C	0.899755	0.898165	0.411884
	C212	C	0.594217	0.097753	0.910215
	C213	C	0.404895	0.098392	0.105253
	C214	C	0.594241	0.902698	0.104160
	C215	C	0.405415	0.896979	0.904875
	Zn216	Zn	0.500538	-0.001941	0.757027
	Zn217	Zn	0.499695	0.000278	0.255957
	Zn218	Zn	0.749577	0.500337	0.007457
	Zn219	Zn	0.250489	0.498468	0.007808
	Zn220	Zn	-0.000514	0.749451	0.506570
	Zn221	Zn	0.001742	0.249744	0.505980
	Zn222	Zn	0.000367	0.499973	0.757216
	Zn223	Zn	0.001147	0.499714	0.257828
	Zn224	Zn	0.501271	0.749217	0.005217
	Zn225	Zn	0.499330	0.249046	0.007303
	Zn226	Zn	0.750939	-0.001778	0.505981
	Zn227	Zn	0.250069	0.000088	0.505171
	N228	N	0.415388	0.961248	0.683248
	N229	N	0.587541	0.035898	0.686496
	N230	N	0.585682	0.963437	0.326962
	N231	N	0.413296	0.036544	0.325916
	N232	N	0.677033	0.414392	0.969779
	N233	N	0.678832	0.586065	0.044229
	N234	N	0.322304	0.583171	0.969613
	N235	N	0.321587	0.412630	0.044562
	N236	N	0.963183	0.676566	0.421597
	N237	N	0.037236	0.680995	0.594845
	N238	N	0.965039	0.319758	0.593058
	N239	N	0.037855	0.320162	0.419662
	N240	N	0.963674	0.414258	0.684101
	N241	N	0.038370	0.586021	0.686114
	N242	N	0.964044	0.584479	0.329569
	N243	N	0.038078	0.414007	0.329051
	N244	N	0.415342	0.676046	0.968564
	N245	N	0.588980	0.680730	0.042185
	N246	N	0.585664	0.319960	0.970161
	N247	N	0.413036	0.319410	0.043970
	N248	N	0.677596	0.962024	0.420882
	N249	N	0.681399	0.035621	0.593925
	N250	N	0.321754	0.962341	0.590812
	N251	N	0.322121	0.037372	0.420088
	N252	N	0.915805	0.462602	0.184518
	N253	N	0.087118	0.536481	0.186608
	N254	N	0.086595	0.463229	0.828127
	N255	N	0.913934	0.537210	0.827827
	N256	N	0.176510	0.915157	0.468005
	N257	N	0.180026	0.086232	0.542249
	N258	N	0.822579	0.083654	0.468991
	N259	N	0.821048	0.912142	0.543187
	N260	N	0.462518	0.176146	0.921398
	N261	N	0.535911	0.180005	0.094870
	N262	N	0.462950	0.821148	0.089897
	N263	N	0.536806	0.818634	0.917733
	N264	N	0.462546	0.914766	0.182513
	N265	N	0.536580	0.086409	0.185574
	N266	N	0.462870	0.082581	0.829129
	N267	N	0.537194	0.911527	0.826714
	N268	N	0.915836	0.176629	0.468661
	N269	N	0.089596	0.180299	0.542149
	N270	N	0.084917	0.820885	0.468818
	N271	N	0.912841	0.819673	0.543215
	N272	N	0.176386	0.461690	0.923578
	N273	N	0.181470	0.535508	0.095498
	N274	N	0.820842	0.463250	0.093490
	N275	N	0.820920	0.537393	0.921241
	O276	O	0.392554	0.588356	0.524680
	H277	H	0.385179	0.585331	0.517602
	H278	H	0.385850	0.587252	0.526745
	O279	O	0.495265	0.637445	0.403351
	H280	H	0.496817	0.633432	0.407245
	H281	H	0.487663	0.645809	0.407263
	O282	O	0.395291	0.593175	-0.503590
	H283	H	0.405473	0.599594	-0.500925
	H284	H	0.396537	0.590391	-0.501923
	O285	O	0.960065	0.064395	0.916295
	H286	H	0.950661	0.074070	0.921528
	H287	H	0.961207	0.064412	0.915757
	O288	O	0.427649	0.452836	0.473970
	H289	H	0.421817	0.449682	0.471235
	H290	H	0.431040	0.449003	0.483567
	O291	O	0.039941	0.898342	-0.033500
	H292	H	0.042739	0.884640	-0.043154
	H293	H	0.047142	0.903378	-0.029223
	O294	O	0.525749	0.515717	0.546028
	H295	H	0.531955	0.520997	0.546462
	H296	H	0.524204	0.523772	0.558995
	O297	O	-0.056360	-0.006941	1.034861
	H298	H	-0.053053	-0.008281	1.035134
	H299	H	-0.060826	-0.009173	1.027870
	O300	O	0.561368	0.510740	0.517931
	H301	H	0.564929	0.505354	0.517637
	H302	H	0.554717	0.506601	0.520156
	O303	O	1.065313	0.853911	-0.024024
	H304	H	1.060770	0.849298	-0.030267
	H305	H	1.068432	0.860669	-0.029925
	O306	O	0.037182	0.894646	0.958337
	H307	H	0.029783	0.883639	0.948519
	H308	H	0.034599	0.900552	0.953568
	O309	O	0.574660	0.522000	0.571307
	H310	H	0.575012	0.528992	0.561803
	H311	H	0.577041	0.520181	0.575050
	O312	O	0.132808	0.049704	-0.003390
	H313	H	0.127826	0.061564	0.001176
	H314	H	0.140378	0.043063	0.010474
	O315	O	1.021649	-0.015132	0.035277
	H316	H	1.019032	-0.017087	0.020530
	H317	H	1.026735	-0.011320	0.028741
	O318	O	0.979000	1.062421	1.008168
	H319	H	0.981511	1.055127	1.013977
	H320	H	0.982934	1.060170	1.010444
	O321	O	-0.028187	0.159534	0.835819
	H322	H	-0.023397	0.161213	0.830636
	H323	H	-0.037724	0.165191	0.837440
	O324	O	0.957838	0.118185	-0.036854
	H325	H	0.956557	0.109041	-0.040892
	H326	H	0.956531	0.135801	-0.031176
	O327	O	-0.010847	0.135076	0.064622
	H328	H	-0.017887	0.127744	0.061676
	H329	H	-0.012239	0.137333	0.082899
	O330	O	0.359302	0.424887	0.520829
	H331	H	0.361792	0.422148	0.521451
	H332	H	0.358548	0.419341	0.509851
	O333	O	0.008751	1.037568	1.155278
	H334	H	0.009377	1.037389	1.153926
	H335	H	-0.010748	1.027640	1.157939
	O336	O	0.057714	0.018401	0.052665
	H337	H	0.057665	0.020649	0.042602
	H338	H	0.045177	0.017880	0.051050
	O339	O	0.518654	0.444162	0.471256
	H340	H	0.508120	0.437251	0.455597
	H341	H	0.518213	0.439350	0.474872
	O342	O	1.516681	1.404251	1.514864
	H343	H	1.509301	1.403320	1.514755
	H344	H	1.522680	1.398058	1.517352
	O345	O	0.969395	0.931599	-0.127542
	H346	H	0.969507	0.933702	-0.129086
	H347	H	0.981082	0.920116	-0.133664
	O348	O	0.517538	0.492018	0.541454
	H349	H	0.527741	0.484411	0.543269
	H350	H	0.510919	0.501175	0.536382
	O351	O	0.618173	0.533082	0.540966
	H352	H	0.619056	0.535131	0.541313
	H353	H	0.619223	0.528973	0.552822
	O354	O	0.587275	0.445610	0.477952
	H355	H	0.600633	0.454148	0.475051
	H356	H	0.593751	0.450583	0.466731
	O357	O	0.482773	-0.458683	0.416615
	H358	H	0.479908	-0.449138	0.408699
	H359	H	0.476737	-0.458182	0.422469
	O360	O	0.548704	0.435323	0.487554
	H361	H	0.547343	0.435663	0.487412
	H362	H	0.551766	0.428659	0.484929
	O363	O	0.561959	0.459867	0.464159
	H364	H	0.560009	0.463223	0.466269
	H365	H	0.563959	0.458586	0.455059
	O366	O	0.964705	1.072530	1.088061
	H367	H	0.975145	1.067597	1.096040
	H368	H	0.958527	1.077072	1.095226
	O369	O	0.915371	-0.115509	1.087670
	H370	H	0.904118	-0.118291	1.080912
	H371	H	0.908835	-0.118744	1.079633
	O372	O	-0.049618	-0.047299	-0.065106
	H373	H	-0.050402	-0.036546	-0.061080
	H374	H	-0.039811	-0.031179	-0.064329
	O375	O	0.961037	-0.047838	-0.038301
	H376	H	0.963267	-0.055573	-0.049408
	H377	H	0.965403	-0.035025	-0.035351
	O378	O	0.942972	1.123395	0.969513
	H379	H	0.944593	1.119980	0.975118
	H380	H	0.952548	1.136492	0.976902
	O381	O	0.592881	0.535473	0.577621
	H382	H	0.602514	0.537905	0.590333
	H383	H	0.587569	0.536857	0.581525
