data_Molecule from HDF5

_cell_length_a		16.301582
_cell_length_b		16.485954
_cell_length_c		16.107284
_cell_angle_alpha	90.136966
_cell_angle_beta	89.723280
_cell_angle_gamma	90.197879
_symmetry_space_group_name_H-M	'P 1'
_symmetry_Int_Tables_number		1

loop_
	_symmetry_equiv_pos_as_xyz
	x,y,z

loop_
	_atom_site_label
	_atom_site_type_symbol
	_atom_site_fract_x
	_atom_site_fract_y
	_atom_site_fract_z
	H0	H	0.387455	0.846698	0.711617
	H1	H	0.591121	0.168365	0.711039
	H2	H	0.592859	0.845765	0.275103
	H3	H	0.393614	0.167270	0.277711
	H4	H	0.708619	0.404593	0.829865
	H5	H	0.704996	0.604057	0.158472
	H6	H	0.278252	0.602579	0.829149
	H7	H	0.273075	0.402909	0.157154
	H8	H	0.828599	0.725495	0.392487
	H9	H	0.149508	0.730712	0.602561
	H10	H	0.830107	0.288133	0.600395
	H11	H	0.150851	0.288005	0.386832
	H12	H	0.827513	0.409055	0.709196
	H13	H	0.153285	0.607813	0.709072
	H14	H	0.826174	0.604474	0.280576
	H15	H	0.152701	0.409554	0.277560
	H16	H	0.388358	0.721644	0.830778
	H17	H	0.596846	0.725811	0.155786
	H18	H	0.596183	0.287022	0.830602
	H19	H	0.389050	0.288522	0.157507
	H20	H	0.712577	0.848138	0.388801
	H21	H	0.708906	0.168072	0.596569
	H22	H	0.266176	0.849323	0.601083
	H23	H	0.272805	0.167119	0.389785
	H24	H	0.892353	0.345471	0.208151
	H25	H	0.090820	0.668183	0.209423
	H26	H	0.089519	0.345344	0.775627
	H27	H	0.895137	0.669392	0.781092
	H28	H	0.204502	0.909360	0.329393
	H29	H	0.206082	0.109246	0.658190
	H30	H	0.779907	0.104551	0.328889
	H31	H	0.773033	0.908746	0.658572
	H32	H	0.329918	0.223581	0.890854
	H33	H	0.651840	0.225317	0.096970
	H34	H	0.330260	0.786296	0.098049
	H35	H	0.653291	0.788221	0.887588
	H36	H	0.328359	0.905626	0.209825
	H37	H	0.655284	0.101458	0.205084
	H38	H	0.327130	0.102079	0.782519
	H39	H	0.653411	0.909328	0.776381
	H40	H	0.890884	0.223709	0.330690
	H41	H	0.092821	0.226225	0.657288
	H42	H	0.094826	0.788557	0.332642
	H43	H	0.886068	0.791045	0.658497
	H44	H	0.206991	0.344163	0.891340
	H45	H	0.212538	0.665330	0.097415
	H46	H	0.773255	0.346795	0.095409
	H47	H	0.772826	0.667033	0.891597
	H48	H	0.396732	0.122209	0.587228
	H49	H	0.580429	0.893595	0.582446
	H50	H	0.591743	0.123691	0.400437
	H51	H	0.402756	0.895126	0.407286
	H52	H	0.578536	0.403959	0.113266
	H53	H	0.584604	0.597143	0.875954
	H54	H	0.413765	0.597130	0.107683
	H55	H	0.393789	0.414166	0.875149
	H56	H	0.105776	0.599982	0.402468
	H57	H	0.877490	0.598799	0.578691
	H58	H	0.102746	0.422323	0.578702
	H59	H	0.874265	0.412119	0.404426
	H60	H	0.107907	0.417610	0.587246
	H61	H	0.874299	0.595539	0.591459
	H62	H	0.105728	0.602847	0.404664
	H63	H	0.874675	0.415695	0.404118
	H64	H	0.396560	0.605161	0.114665
	H65	H	0.581714	0.593889	0.877591
	H66	H	0.590579	0.417702	0.112559
	H67	H	0.405037	0.416777	0.879250
	H68	H	0.581333	0.122148	0.394660
	H69	H	0.583279	0.894539	0.581479
	H70	H	0.400785	0.120660	0.586733
	H71	H	0.391893	0.891729	0.406818
	H72	H	0.900719	0.620525	0.083045
	H73	H	0.094200	0.388437	0.083504
	H74	H	0.087552	0.620284	0.903313
	H75	H	0.897771	0.392224	0.901825
	H76	H	0.075650	0.928574	0.605992
	H77	H	0.088786	0.099371	0.375150
	H78	H	0.897947	0.100886	0.612354
	H79	H	0.898709	0.914995	0.376491
	H80	H	0.605612	0.097939	0.905370
	H81	H	0.378179	0.093525	0.078838
	H82	H	0.610278	0.909220	0.089479
	H83	H	0.373993	0.901121	0.907143
	H84	H	0.605330	0.909888	0.073487
	H85	H	0.374636	0.094400	0.092306
	H86	H	0.607128	0.096257	0.900065
	H87	H	0.379727	0.918230	0.911627
	H88	H	0.899572	0.098485	0.611849
	H89	H	0.077879	0.093817	0.379927
	H90	H	0.070538	0.909686	0.611236
	H91	H	0.902168	0.918290	0.379075
	H92	H	0.086493	0.620665	0.901472
	H93	H	0.076904	0.390641	0.096093
	H94	H	0.893696	0.623351	0.085006
	H95	H	0.899087	0.392077	0.900231
	H96	H	0.398151	0.120098	0.583148
	H97	H	0.582726	0.893721	0.584356
	H98	H	0.582984	0.118173	0.406202
	H99	H	0.397624	0.890965	0.397251
	H100	H	0.573231	0.420014	0.106000
	H101	H	0.580485	0.597761	0.876987
	H102	H	0.396552	0.586363	0.108676
	H103	H	0.402766	0.405716	0.874909
	H104	H	0.104239	0.598855	0.405713
	H105	H	0.871876	0.607745	0.587329
	H106	H	0.105386	0.411719	0.578253
	H107	H	0.872853	0.413564	0.401213
	H108	H	0.899192	0.622887	0.090558
	H109	H	0.076842	0.396967	0.075324
	H110	H	0.085314	0.619502	0.902865
	H111	H	0.899895	0.393189	0.901713
	H112	H	0.088632	0.916983	0.616353
	H113	H	0.078111	0.106151	0.376222
	H114	H	0.900847	0.101156	0.612083
	H115	H	0.904145	0.912740	0.377608
	H116	H	0.608569	0.101479	0.902374
	H117	H	0.373030	0.105527	0.084184
	H118	H	0.604397	0.922473	0.083051
	H119	H	0.373096	0.914263	0.894339
	C120	C	0.367527	0.015620	0.616373
	C121	C	0.611957	0.999932	0.614242
	C122	C	0.614868	0.015304	0.370191
	C123	C	0.368939	0.998494	0.372967
	C124	C	0.612226	0.384101	0.002214
	C125	C	0.612528	0.626789	0.984909
	C126	C	0.371902	0.625324	0.002313
	C127	C	0.369686	0.382907	0.984685
	C128	C	-0.001917	0.629428	0.373828
	C129	C	0.981622	0.630364	0.616198
	C130	C	-0.001154	0.386932	0.613996
	C131	C	0.981355	0.385106	0.372042
	C132	C	0.868880	0.515673	0.115434
	C133	C	0.113498	0.497692	0.115845
	C134	C	0.114753	0.513923	0.871094
	C135	C	0.869930	0.498849	0.871984
	C136	C	0.110259	0.887329	0.503400
	C137	C	0.111758	0.129903	0.485139
	C138	C	0.870489	0.128688	0.503272
	C139	C	0.869232	0.886308	0.486170
	C140	C	0.499697	0.127444	0.872893
	C141	C	0.482586	0.127119	0.114602
	C142	C	0.500000	0.883389	0.114469
	C143	C	0.482311	0.882795	0.871768
	C144	C	0.367661	0.895146	0.673571
	C145	C	0.611057	0.120033	0.672375
	C146	C	0.613409	0.894391	0.313398
	C147	C	0.372533	0.119468	0.315947
	C148	C	0.670280	0.385098	0.879069
	C149	C	0.667767	0.624922	0.108988
	C150	C	0.315829	0.623252	0.878684
	C151	C	0.311881	0.383570	0.108066
	C152	C	0.876674	0.686409	0.373356
	C153	C	0.102223	0.689786	0.619051
	C154	C	0.877749	0.328482	0.617206
	C155	C	0.102611	0.327407	0.369394
	C156	C	0.876781	0.388423	0.671723
	C157	C	0.104073	0.628597	0.672072
	C158	C	0.875613	0.626528	0.317346
	C159	C	0.103722	0.387842	0.314807
	C160	C	0.370945	0.682359	0.879465
	C161	C	0.614056	0.685493	0.107518
	C162	C	0.613957	0.326567	0.879330
	C163	C	0.369328	0.326407	0.108121
	C164	C	0.673006	0.895497	0.369848
	C165	C	0.669839	0.120169	0.615318
	C166	C	0.307302	0.896492	0.618456
	C167	C	0.312477	0.119257	0.371975
	C168	C	0.871529	0.393974	0.170829
	C169	C	0.112004	0.619298	0.171900
	C170	C	0.110929	0.393602	0.813745
	C171	C	0.873400	0.620722	0.817921
	C172	C	0.167356	0.888345	0.379501
	C173	C	0.167741	0.128753	0.609127
	C174	C	0.816288	0.125854	0.378644
	C175	C	0.811668	0.888247	0.609485
	C176	C	0.377812	0.183904	0.873090
	C177	C	0.604190	0.184852	0.114950
	C178	C	0.378582	0.825382	0.116580
	C179	C	0.604623	0.826992	0.869460
	C180	C	0.377736	0.884810	0.172196
	C181	C	0.605768	0.123569	0.168789
	C182	C	0.376536	0.123785	0.818713
	C183	C	0.604767	0.887442	0.814303
	C184	C	0.871567	0.184831	0.379549
	C185	C	0.111751	0.187279	0.608613
	C186	C	0.112606	0.828328	0.380998
	C187	C	0.867867	0.829795	0.609498
	C188	C	0.169300	0.392769	0.871538
	C189	C	0.172207	0.618055	0.116013
	C190	C	0.812610	0.394432	0.114457
	C191	C	0.812617	0.619310	0.872881
	C192	C	0.391473	0.099227	0.592602
	C193	C	0.588725	0.915736	0.589696
	C194	C	0.591961	0.099570	0.393611
	C195	C	0.391013	0.914538	0.396907
	C196	C	0.587875	0.407244	0.088285
	C197	C	0.589003	0.603202	0.898973
	C198	C	0.395342	0.602694	0.088101
	C199	C	0.393584	0.405577	0.898768
	C200	C	0.083172	0.606901	0.397345
	C201	C	0.896535	0.607363	0.592506
	C202	C	0.083364	0.410470	0.588795
	C203	C	0.895995	0.407344	0.396222
	C204	C	0.891231	0.600346	0.092832
	C205	C	0.089781	0.413838	0.091932
	C206	C	0.093006	0.598392	0.895405
	C207	C	0.892313	0.414218	0.894582
	C208	C	0.085605	0.911327	0.589018
	C209	C	0.088615	0.106542	0.399525
	C210	C	0.892802	0.106542	0.589606
	C211	C	0.894353	0.908758	0.400104
	C212	C	0.584944	0.105255	0.895911
	C213	C	0.397263	0.104482	0.091603
	C214	C	0.584701	0.907064	0.089344
	C215	C	0.397547	0.904772	0.896957
	Zn216	Zn	0.490092	0.006930	0.744450
	Zn217	Zn	0.491047	0.005558	0.242840
	Zn218	Zn	0.740263	0.506175	-0.006345
	Zn219	Zn	0.243134	0.504885	-0.006048
	Zn220	Zn	-0.009731	0.758434	0.495532
	Zn221	Zn	-0.009501	0.257467	0.494600
	Zn222	Zn	-0.008830	0.507750	0.742363
	Zn223	Zn	-0.009827	0.507314	0.244584
	Zn224	Zn	0.491966	0.754221	-0.006655
	Zn225	Zn	0.491203	0.255868	-0.006315
	Zn226	Zn	0.742376	0.008161	0.493771
	Zn227	Zn	0.238476	0.008112	0.494267
	N228	N	0.404535	0.970197	0.672377
	N229	N	0.575702	0.044196	0.671795
	N230	N	0.577960	0.969667	0.313667
	N231	N	0.406765	0.043281	0.316239
	N232	N	0.669363	0.420163	0.956569
	N233	N	0.667020	0.589066	0.031829
	N234	N	0.316164	0.588210	0.956140
	N235	N	0.312024	0.418074	0.030362
	N236	N	0.953755	0.688377	0.407500
	N237	N	0.025173	0.690759	0.584819
	N238	N	0.954646	0.327487	0.582100
	N239	N	0.025476	0.325651	0.404369
	N240	N	0.953015	0.424580	0.669598
	N241	N	0.028067	0.592267	0.670570
	N242	N	0.952328	0.591738	0.317481
	N243	N	0.027416	0.423010	0.316287
	N244	N	0.405370	0.683579	0.957242
	N245	N	0.580216	0.686632	0.029383
	N246	N	0.578637	0.325838	0.957031
	N247	N	0.404506	0.325865	0.030452
	N248	N	0.674071	0.971858	0.404476
	N249	N	0.670525	0.044167	0.579854
	N250	N	0.307011	0.972341	0.583391
	N251	N	0.310058	0.043217	0.406796
	N252	N	0.905939	0.470425	0.171495
	N253	N	0.076498	0.543623	0.172121
	N254	N	0.077749	0.470237	0.813414
	N255	N	0.908205	0.544845	0.817314
	N256	N	0.166006	0.924387	0.456659
	N257	N	0.168191	0.094105	0.531350
	N258	N	0.815462	0.091630	0.456415
	N259	N	0.812348	0.922431	0.531732
	N260	N	0.455507	0.186564	0.905933
	N261	N	0.526421	0.187170	0.082248
	N262	N	0.455662	0.824350	0.081464
	N263	N	0.527407	0.823961	0.904282
	N264	N	0.454294	0.920152	0.171218
	N265	N	0.529150	0.088511	0.168696
	N266	N	0.453181	0.089248	0.818610
	N267	N	0.527690	0.920967	0.815035
	N268	N	0.904721	0.186574	0.458036
	N269	N	0.077783	0.188279	0.530644
	N270	N	0.078091	0.827502	0.459030
	N271	N	0.902993	0.828469	0.531544
	N272	N	0.171848	0.468860	0.906424
	N273	N	0.173428	0.541398	0.081917
	N274	N	0.810814	0.470955	0.080866
	N275	N	0.810339	0.542382	0.905687
	O276	O	1.031966	-0.027676	1.049241
	H277	H	1.020127	-0.027136	1.062553
	H278	H	1.030400	-0.035375	1.036234
	O279	O	0.616808	0.422400	0.330761
	H280	H	0.616661	0.426710	0.333691
	H281	H	0.617926	0.416578	0.325004
	O282	O	0.384854	0.536905	0.558241
	H283	H	0.384484	0.526553	0.564405
	H284	H	0.393784	0.524595	0.569964
	O285	O	0.442918	0.658063	0.526651
	H286	H	0.433341	0.659901	0.516975
	H287	H	0.435070	0.648925	0.521849
	O288	O	1.033618	0.061776	0.035342
	H289	H	1.043500	0.060335	0.035978
	H290	H	1.034377	0.060076	0.029688
	O291	O	-0.084390	0.099984	0.994220
	H292	H	-0.090088	0.112385	0.990057
	H293	H	-0.095521	0.113344	0.991154
	O294	O	1.042064	0.992232	-0.094466
	H295	H	1.049464	1.000461	-0.104697
	H296	H	1.055249	0.989657	-0.100050
	O297	O	0.992525	0.952573	0.032631
	H298	H	1.002160	0.946730	0.041223
	H299	H	0.988883	0.948050	0.029688
	O300	O	0.302789	0.648308	0.536387
	H301	H	0.305452	0.650476	0.511306
	H302	H	0.283340	0.653722	0.535580
	O303	O	0.306717	0.453698	0.369057
	H304	H	0.306717	0.436569	0.393777
	H305	H	0.290314	0.443248	0.362811
	O306	O	0.562283	0.619110	0.512043
	H307	H	0.555899	0.620538	0.512698
	H308	H	0.556675	0.634255	0.521749
	O309	O	0.574548	0.557632	0.497267
	H310	H	0.558706	0.569745	0.483144
	H311	H	0.581050	0.573212	0.499989
	O312	O	1.461039	1.380108	0.414795
	H313	H	1.446327	1.382480	0.412378
	H314	H	1.451162	1.378068	0.423888
	O315	O	0.874501	1.047767	-0.001008
	H316	H	0.872384	1.041769	0.003087
	H317	H	0.874691	1.049292	-0.002964
	O318	O	0.504807	0.363955	0.631295
	H319	H	0.521305	0.349764	0.621690
	H320	H	0.497246	0.363493	0.635039
	O321	O	0.416753	0.473261	0.544196
	H322	H	0.427373	0.480900	0.564132
	H323	H	0.423931	0.482645	0.542633
	O324	O	0.050681	1.015021	0.902271
	H325	H	0.048461	1.021547	0.907644
	H326	H	0.055834	1.021304	0.899891
	O327	O	-0.621236	0.594860	1.454363
	H328	H	-0.592470	0.595247	1.444669
	H329	H	-0.622685	0.575517	1.447399
	O330	O	-0.370919	0.365771	0.435619
	H331	H	-0.349674	0.362082	0.439437
	H332	H	-0.377443	0.375734	0.430817
	O333	O	0.606723	0.636613	0.646092
	H334	H	0.620631	0.642124	0.645668
	H335	H	0.614169	0.665381	0.659136
	O336	O	-0.045666	-0.071022	0.033895
	H337	H	-0.042220	-0.079434	0.029393
	H338	H	-0.045291	-0.072462	0.030655
	O339	O	0.350135	0.305088	-0.427360
	H340	H	0.329422	0.282274	-0.428493
	H341	H	0.364031	0.320818	-0.389769
	O342	O	0.573759	0.657248	0.480032
	H343	H	0.576348	0.637403	0.491309
	H344	H	0.556933	0.653096	0.471997
	O345	O	0.301734	0.399904	0.679022
	H346	H	0.318669	0.410260	0.677011
	H347	H	0.296748	0.413653	0.699304
	O348	O	0.548816	0.366263	0.588576
	H349	H	0.549423	0.379422	0.589458
	H350	H	0.552136	0.371252	0.585008
	O351	O	0.569529	0.505145	0.462522
	H352	H	0.572491	0.516257	0.446218
	H353	H	0.561502	0.512244	0.473491
	O354	O	0.110346	1.001074	-0.049872
	H355	H	0.101577	0.991457	-0.044210
	H356	H	0.117250	1.007118	-0.049872
	O357	O	-0.060567	-0.070760	1.035188
	H358	H	-0.058353	-0.076318	1.037658
	H359	H	-0.056668	-0.067763	1.039482
	O360	O	1.066318	0.036813	1.032290
	H361	H	1.078062	0.031741	1.031456
	H362	H	1.065187	0.036195	1.032563
	O363	O	0.407858	0.649844	0.308874
	H364	H	0.414709	0.653356	0.326983
	H365	H	0.397541	0.641076	0.307688
	O366	O	0.556740	0.355258	0.423462
	H367	H	0.551292	0.346329	0.440273
	H368	H	0.558812	0.356303	0.414122
	O369	O	1.049136	0.055446	0.065199
	H370	H	1.043895	0.049358	0.073681
	H371	H	1.045056	0.050689	0.066141
	O372	O	0.513806	0.599600	0.398501
	H373	H	0.504260	0.591417	0.391077
	H374	H	0.502128	0.609108	0.392911
	O375	O	0.927483	-0.013684	0.982399
	H376	H	0.922915	-0.017814	0.983049
	H377	H	0.929050	-0.012828	0.996415
	O378	O	0.668654	0.640360	0.570302
	H379	H	0.662169	0.636493	0.559813
	H380	H	0.679616	0.652272	0.573941
	O381	O	0.581423	0.459009	0.384905
	H382	H	0.579206	0.447367	0.379138
	H383	H	0.574213	0.465926	0.379381
	O384	O	1.014022	1.015864	1.113457
	H385	H	1.013405	1.015170	1.121624
	H386	H	1.018125	1.013670	1.108022
	O387	O	0.986222	-0.019630	1.043495
	H388	H	0.978365	-0.011755	1.050235
	H389	H	0.987772	-0.019565	1.047690
	O390	O	0.909287	1.063789	-0.056591
	H391	H	0.903714	1.064198	-0.055241
	H392	H	0.912136	1.075878	-0.059352
	O393	O	0.374664	0.593677	0.532123
	H394	H	0.377355	0.598047	0.517288
	H395	H	0.374165	0.594242	0.524315
