data_Molecule from HDF5

_cell_length_a		16.539086
_cell_length_b		16.516475
_cell_length_c		16.443575
_cell_angle_alpha	89.888662
_cell_angle_beta	89.796634
_cell_angle_gamma	89.956223
_symmetry_space_group_name_H-M	'P 1'
_symmetry_Int_Tables_number		1

loop_
	_symmetry_equiv_pos_as_xyz
	x,y,z

loop_
	_atom_site_label
	_atom_site_type_symbol
	_atom_site_fract_x
	_atom_site_fract_y
	_atom_site_fract_z
	H0	H	0.400388	0.843834	0.720462
	H1	H	0.609350	0.158920	0.718687
	H2	H	0.612929	0.843109	0.274183
	H3	H	0.401813	0.156699	0.276926
	H4	H	0.726744	0.395423	0.839827
	H5	H	0.727672	0.607719	0.155184
	H6	H	0.283933	0.606868	0.841262
	H7	H	0.283777	0.397284	0.155683
	H8	H	0.848057	0.726582	0.388750
	H9	H	0.160946	0.720399	0.601266
	H10	H	0.846504	0.278264	0.604876
	H11	H	0.161704	0.282053	0.395631
	H12	H	0.845490	0.395792	0.719896
	H13	H	0.161725	0.602240	0.715479
	H14	H	0.846846	0.609411	0.273426
	H15	H	0.161059	0.396855	0.276483
	H16	H	0.398892	0.724106	0.842408
	H17	H	0.610814	0.722626	0.155521
	H18	H	0.611019	0.279017	0.840372
	H19	H	0.402336	0.281530	0.157156
	H20	H	0.732385	0.845287	0.386977
	H21	H	0.727650	0.158692	0.603689
	H22	H	0.282591	0.843337	0.605662
	H23	H	0.284197	0.156425	0.393800
	H24	H	0.900654	0.342821	0.218155
	H25	H	0.110177	0.658474	0.220497
	H26	H	0.106386	0.342463	0.780942
	H27	H	0.899194	0.658822	0.775635
	H28	H	0.226012	0.895747	0.339795
	H29	H	0.222287	0.101898	0.656720
	H30	H	0.783156	0.108192	0.339875
	H31	H	0.780119	0.893908	0.653635
	H32	H	0.347732	0.219537	0.896013
	H33	H	0.661943	0.224112	0.106219
	H34	H	0.349360	0.776909	0.106025
	H35	H	0.660925	0.775601	0.888408
	H36	H	0.348449	0.895100	0.219997
	H37	H	0.662464	0.105368	0.219884
	H38	H	0.346909	0.101675	0.781153
	H39	H	0.661394	0.892249	0.772547
	H40	H	0.899233	0.223414	0.339735
	H41	H	0.105704	0.217664	0.657005
	H42	H	0.109336	0.780154	0.339024
	H43	H	0.896417	0.777800	0.654741
	H44	H	0.223611	0.343175	0.895714
	H45	H	0.229726	0.657066	0.107502
	H46	H	0.782817	0.343527	0.103883
	H47	H	0.781806	0.658229	0.889865
	H48	H	0.411072	0.112623	0.582693
	H49	H	0.589248	0.893752	0.578592
	H50	H	0.599815	0.113297	0.409386
	H51	H	0.415638	0.887998	0.412691
	H52	H	0.592891	0.413083	0.109717
	H53	H	0.587615	0.593329	0.887044
	H54	H	0.419180	0.586934	0.110364
	H55	H	0.413993	0.410527	0.883348
	H56	H	0.115521	0.593492	0.409210
	H57	H	0.887481	0.598094	0.587522
	H58	H	0.117167	0.410572	0.592327
	H59	H	0.889723	0.409015	0.406910
	H60	H	0.118213	0.405123	0.591800
	H61	H	0.894788	0.586145	0.577237
	H62	H	0.113139	0.587175	0.413219
	H63	H	0.892049	0.410876	0.413701
	H64	H	0.417630	0.588549	0.110942
	H65	H	0.599959	0.590062	0.883092
	H66	H	0.593241	0.409730	0.111853
	H67	H	0.415468	0.410015	0.884591
	H68	H	0.588424	0.111457	0.403268
	H69	H	0.596758	0.889317	0.582030
	H70	H	0.408746	0.116566	0.591687
	H71	H	0.412382	0.884913	0.407553
	H72	H	0.913796	0.613481	0.087216
	H73	H	0.096262	0.391916	0.077317
	H74	H	0.095080	0.613369	0.911757
	H75	H	0.912366	0.388987	0.912117
	H76	H	0.093027	0.907906	0.611523
	H77	H	0.098971	0.086000	0.383795
	H78	H	0.913067	0.088543	0.609973
	H79	H	0.917519	0.917527	0.386142
	H80	H	0.617557	0.088972	0.910221
	H81	H	0.395330	0.090685	0.082891
	H82	H	0.616742	0.912480	0.084985
	H83	H	0.397929	0.916209	0.917426
	H84	H	0.616796	0.910991	0.084062
	H85	H	0.393357	0.086095	0.090031
	H86	H	0.618505	0.088487	0.905702
	H87	H	0.393097	0.916550	0.902525
	H88	H	0.915881	0.088780	0.609496
	H89	H	0.089558	0.092005	0.385294
	H90	H	0.095644	0.910972	0.611606
	H91	H	0.922850	0.915174	0.387878
	H92	H	0.100222	0.617487	0.905550
	H93	H	0.101255	0.385523	0.092765
	H94	H	0.918861	0.612146	0.085586
	H95	H	0.915589	0.388108	0.906624
	H96	H	0.418024	0.112754	0.590003
	H97	H	0.589157	0.890554	0.587303
	H98	H	0.590344	0.107645	0.415900
	H99	H	0.419117	0.886417	0.407113
	H100	H	0.596184	0.412383	0.111308
	H101	H	0.592002	0.580859	0.888898
	H102	H	0.416651	0.586694	0.110509
	H103	H	0.414619	0.408304	0.883578
	H104	H	0.114636	0.586420	0.405281
	H105	H	0.890974	0.582557	0.593528
	H106	H	0.115666	0.407744	0.586932
	H107	H	0.891785	0.415834	0.408225
	H108	H	0.914594	0.612554	0.081911
	H109	H	0.084896	0.390813	0.090678
	H110	H	0.092104	0.614731	0.903024
	H111	H	0.918129	0.391541	0.911930
	H112	H	0.091935	0.911590	0.609817
	H113	H	0.098508	0.096834	0.380725
	H114	H	0.914506	0.090728	0.610993
	H115	H	0.918437	0.911950	0.384972
	H116	H	0.619621	0.092541	0.908281
	H117	H	0.391615	0.094583	0.089611
	H118	H	0.616476	0.912608	0.083570
	H119	H	0.391071	0.903368	0.911399
	C120	C	0.382020	0.009578	0.620242
	C121	C	0.624984	0.994123	0.616711
	C122	C	0.627393	0.008287	0.375278
	C123	C	0.384083	0.990883	0.376743
	C124	C	0.626621	0.379296	0.006630
	C125	C	0.625938	0.621504	0.989886
	C126	C	0.384532	0.621184	0.006971
	C127	C	0.383303	0.378847	0.989285
	C128	C	0.011202	0.622756	0.375501
	C129	C	0.995249	0.620806	0.618006
	C130	C	0.012279	0.377193	0.621609
	C131	C	0.995333	0.380300	0.377560
	C132	C	0.883291	0.508904	0.118233
	C133	C	0.126447	0.493201	0.119769
	C134	C	0.126249	0.510003	0.876644
	C135	C	0.883006	0.493326	0.876595
	C136	C	0.125839	0.878445	0.506383
	C137	C	0.125805	0.121516	0.488939
	C138	C	0.882974	0.122147	0.505805
	C139	C	0.884519	0.880667	0.489444
	C140	C	0.514098	0.121523	0.877530
	C141	C	0.497285	0.122391	0.120166
	C142	C	0.513673	0.879232	0.118426
	C143	C	0.497034	0.878449	0.876170
	C144	C	0.381309	0.890984	0.680417
	C145	C	0.627697	0.111991	0.678198
	C146	C	0.631475	0.890466	0.314157
	C147	C	0.382430	0.109265	0.316453
	C148	C	0.686856	0.377101	0.887458
	C149	C	0.686886	0.625124	0.108209
	C150	C	0.323833	0.625169	0.888622
	C151	C	0.324231	0.378215	0.108854
	C152	C	0.894532	0.685351	0.371452
	C153	C	0.113763	0.680307	0.619561
	C154	C	0.893804	0.318036	0.623318
	C155	C	0.114405	0.321669	0.376534
	C156	C	0.893123	0.376601	0.680586
	C157	C	0.114240	0.621515	0.676327
	C158	C	0.894071	0.626908	0.313959
	C159	C	0.114092	0.378726	0.317419
	C160	C	0.381188	0.682875	0.888859
	C161	C	0.629033	0.682658	0.108213
	C162	C	0.629387	0.319144	0.887776
	C163	C	0.382807	0.320641	0.109287
	C164	C	0.690928	0.891629	0.370177
	C165	C	0.686483	0.111726	0.620801
	C166	C	0.322943	0.890681	0.623109
	C167	C	0.324111	0.109293	0.374605
	C168	C	0.881732	0.390235	0.178412
	C169	C	0.128626	0.611259	0.180144
	C170	C	0.125928	0.390368	0.819435
	C171	C	0.880792	0.611602	0.815953
	C172	C	0.185990	0.876828	0.387129
	C173	C	0.183133	0.121149	0.608884
	C174	C	0.823257	0.125684	0.387077
	C175	C	0.821394	0.876251	0.606979
	C176	C	0.395107	0.180448	0.876829
	C177	C	0.614703	0.183390	0.123622
	C178	C	0.395987	0.817999	0.122850
	C179	C	0.614124	0.816485	0.871438
	C180	C	0.395635	0.876503	0.179915
	C181	C	0.615174	0.124251	0.180404
	C182	C	0.394745	0.121858	0.819699
	C183	C	0.614207	0.874551	0.813425
	C184	C	0.881109	0.183047	0.387183
	C185	C	0.125174	0.178818	0.609054
	C186	C	0.127837	0.819542	0.386837
	C187	C	0.879123	0.818439	0.607319
	C188	C	0.184115	0.390782	0.876905
	C189	C	0.188241	0.610436	0.123795
	C190	C	0.823359	0.390555	0.121235
	C191	C	0.822126	0.611082	0.872945
	C192	C	0.405661	0.092404	0.595224
	C193	C	0.599005	0.912543	0.590285
	C194	C	0.600538	0.089569	0.401789
	C195	C	0.408801	0.907983	0.401945
	C196	C	0.601337	0.404439	0.089341
	C197	C	0.600396	0.595752	0.907782
	C198	C	0.410288	0.595004	0.089113
	C199	C	0.407556	0.402799	0.905717
	C200	C	0.093058	0.596578	0.401688
	C201	C	0.912742	0.596121	0.593367
	C202	C	0.095294	0.400875	0.597431
	C203	C	0.912792	0.404927	0.402510
	C204	C	0.908611	0.591171	0.092330
	C205	C	0.101308	0.410813	0.094331
	C206	C	0.102578	0.593292	0.900175
	C207	C	0.908364	0.411091	0.902733
	C208	C	0.100671	0.903187	0.589296
	C209	C	0.102557	0.098300	0.405092
	C210	C	0.907450	0.096625	0.588568
	C211	C	0.911760	0.907149	0.407729
	C212	C	0.596986	0.097035	0.901468
	C213	C	0.414855	0.097340	0.095011
	C214	C	0.595472	0.904737	0.091826
	C215	C	0.415326	0.904638	0.902983
	Zn216	Zn	0.505470	0.001055	0.747632
	Zn217	Zn	0.505788	-0.000601	0.247368
	Zn218	Zn	0.754200	0.500896	-0.002393
	Zn219	Zn	0.255382	0.501734	-0.001969
	Zn220	Zn	0.003919	0.750456	0.497700
	Zn221	Zn	0.003610	0.250294	0.498215
	Zn222	Zn	0.003688	0.500846	0.748174
	Zn223	Zn	0.003562	0.501097	0.247433
	Zn224	Zn	0.504943	0.749741	-0.001877
	Zn225	Zn	0.505752	0.250711	-0.001663
	Zn226	Zn	0.755443	0.001082	0.496825
	Zn227	Zn	0.254149	-0.000703	0.497861
	N228	N	0.417307	0.965870	0.678893
	N229	N	0.590078	0.037937	0.675667
	N230	N	0.592826	0.963907	0.317210
	N231	N	0.418805	0.034591	0.317767
	N232	N	0.685394	0.413632	0.962458
	N233	N	0.685305	0.587944	0.033655
	N234	N	0.325935	0.587327	0.963060
	N235	N	0.324335	0.413515	0.033212
	N236	N	0.968384	0.682670	0.409074
	N237	N	0.038785	0.679852	0.583743
	N238	N	0.968943	0.317970	0.587682
	N239	N	0.039590	0.322477	0.412958
	N240	N	0.968027	0.412732	0.679809
	N241	N	0.039554	0.585265	0.675556
	N242	N	0.967666	0.588406	0.316759
	N243	N	0.039011	0.414573	0.317872
	N244	N	0.418166	0.680457	0.963349
	N245	N	0.591981	0.680493	0.033556
	N246	N	0.592668	0.320346	0.962754
	N247	N	0.418760	0.320993	0.033753
	N248	N	0.688853	0.966106	0.407397
	N249	N	0.684901	0.037495	0.583285
	N250	N	0.323229	0.965415	0.586262
	N251	N	0.324950	0.034446	0.411162
	N252	N	0.918119	0.465022	0.176796
	N253	N	0.090807	0.537268	0.177693
	N254	N	0.090614	0.465621	0.818994
	N255	N	0.917717	0.537333	0.818247
	N256	N	0.184988	0.912415	0.462496
	N257	N	0.183859	0.086355	0.533011
	N258	N	0.824244	0.088554	0.461768
	N259	N	0.824631	0.914145	0.532670
	N260	N	0.470501	0.180392	0.911921
	N261	N	0.540248	0.182342	0.086863
	N262	N	0.470318	0.819640	0.085267
	N263	N	0.540208	0.818729	0.909879
	N264	N	0.469866	0.913667	0.177447
	N265	N	0.541014	0.086903	0.178268
	N266	N	0.469641	0.085882	0.819849
	N267	N	0.540274	0.912319	0.816255
	N268	N	0.917329	0.181097	0.462222
	N269	N	0.090398	0.179496	0.533304
	N270	N	0.091222	0.820141	0.462130
	N271	N	0.917634	0.821020	0.533213
	N272	N	0.184805	0.466347	0.911416
	N273	N	0.186798	0.535863	0.086794
	N274	N	0.823879	0.465461	0.084856
	N275	N	0.823343	0.536338	0.910232
	O276	O	0.050413	0.043039	-0.196793
	H277	H	0.053338	0.012765	-0.187613
	H278	H	0.049037	0.025291	-0.195473
	O279	O	0.485930	0.680698	0.611612
	H280	H	0.474770	0.676301	0.610566
	H281	H	0.503811	0.678067	0.608761
	O282	O	1.204711	0.861129	-0.204015
	H283	H	1.189895	0.856777	-0.213531
	H284	H	1.212868	0.859647	-0.185573
	O285	O	0.557766	0.577312	0.628986
	H286	H	0.556233	0.564859	0.637913
	H287	H	0.570513	0.590546	0.595077
	O288	O	-0.273823	0.474717	0.280276
	H289	H	-0.274265	0.459977	0.264113
	H290	H	-0.264358	0.444688	0.267578
	O291	O	1.202231	1.073747	0.802549
	H292	H	1.192111	1.057008	0.808462
	H293	H	1.201354	1.049531	0.808234
	O294	O	-0.145118	0.921585	-0.138841
	H295	H	-0.154818	0.933713	-0.143911
	H296	H	-0.138713	0.916553	-0.128132
	O297	O	0.247521	0.244677	1.225458
	H298	H	0.247064	0.221704	1.216698
	H299	H	0.274075	0.272838	1.258675
	O300	O	0.438868	0.511306	0.670697
	H301	H	0.417975	0.516704	0.682425
	H302	H	0.452114	0.533834	0.676489
	O303	O	0.447777	0.622441	0.519469
	H304	H	0.462192	0.624375	0.524022
	H305	H	0.464978	0.605264	0.517103
	O306	O	0.038991	0.794655	0.791891
	H307	H	0.033294	0.773454	0.774873
	H308	H	0.058300	0.794358	0.811959
	O309	O	0.771157	0.692969	0.300764
	H310	H	0.802439	0.689584	0.300655
	H311	H	0.758471	0.713690	0.301433
	O312	O	0.619860	0.687545	0.389419
	H313	H	0.621374	0.660871	0.400233
	H314	H	0.612556	0.682912	0.396407
	O315	O	-0.203539	-0.057409	1.118477
	H316	H	-0.198093	-0.060818	1.115277
	H317	H	-0.209583	-0.064233	1.127964
	O318	O	0.182538	1.210718	0.027418
	H319	H	0.177988	1.218426	0.036722
	H320	H	0.193465	1.216057	0.029117
	O321	O	0.296126	0.701624	0.728962
	H322	H	0.295847	0.702611	0.746068
	H323	H	0.299768	0.698286	0.718043
	O324	O	0.815420	0.182883	0.811070
	H325	H	0.824445	0.197277	0.821835
	H326	H	0.838834	0.167887	0.806466
	O327	O	1.086418	-0.040122	0.962314
	H328	H	1.078859	-0.031714	0.965805
	H329	H	1.076874	-0.050235	0.962687
	O330	O	0.940089	0.154451	0.157469
	H331	H	0.944313	0.171000	0.151472
	H332	H	0.955830	0.146760	0.152841
	O333	O	0.314801	0.693545	0.303913
	H334	H	0.330995	0.685581	0.318423
	H335	H	0.321183	0.660700	0.298404
	O336	O	0.974300	-0.052639	0.908272
	H337	H	0.949061	-0.056024	0.911285
	H338	H	0.972541	-0.041057	0.913647
	O339	O	0.577842	0.497528	0.677276
	H340	H	0.578070	0.509729	0.677937
	H341	H	0.582470	0.504318	0.689322
	O342	O	0.669150	0.288161	0.505872
	H343	H	0.681449	0.288591	0.506521
	H344	H	0.682754	0.283756	0.516704
	O345	O	0.053637	0.027598	-0.024466
	H346	H	0.048964	0.041149	-0.012359
	H347	H	0.057104	0.028860	-0.030518
	O348	O	0.700365	0.347501	0.469301
	H349	H	0.702385	0.373145	0.473080
	H350	H	0.703698	0.344025	0.473455
	O351	O	1.010428	1.215999	0.028366
	H352	H	1.006398	1.214277	0.040964
	H353	H	0.990527	1.218995	0.021737
	O354	O	0.329649	0.606413	0.601195
	H355	H	0.341281	0.595923	0.613476
	H356	H	0.309233	0.625776	0.618421
	O357	O	0.978851	1.206138	0.790676
	H358	H	0.990700	1.200246	0.785818
	H359	H	0.983793	1.213857	0.778897
	O360	O	0.520864	0.547224	0.297553
	H361	H	0.528153	0.552595	0.288289
	H362	H	0.542531	0.539995	0.298559
	O363	O	0.543507	0.480092	0.482497
	H364	H	0.538408	0.473439	0.485077
	H365	H	0.540734	0.474242	0.488195
	O366	O	0.790698	0.019125	0.794122
	H367	H	0.792631	0.034689	0.803904
	H368	H	0.780465	0.017480	0.781855
	O369	O	0.719945	0.602421	0.527641
	H370	H	0.727519	0.604207	0.513117
	H371	H	0.718810	0.614228	0.515477
	O372	O	0.308818	0.346970	0.339918
	H373	H	0.325124	0.358806	0.360026
	H374	H	0.317239	0.363478	0.356557
	O375	O	-0.702434	1.484129	1.386769
	H376	H	-0.704098	1.480530	1.397272
	H377	H	-0.706883	1.480986	1.388439
	O378	O	0.472449	0.285882	0.449940
	H379	H	0.458605	0.283941	0.469550
	H380	H	0.483750	0.288865	0.451537
	O381	O	1.599319	-0.662295	-0.338326
	H382	H	1.591500	-0.660528	-0.312994
	H383	H	1.580808	-0.645588	-0.346672
	O384	O	0.157109	-0.024004	1.077333
	H385	H	0.160041	-0.027865	1.077664
	H386	H	0.149471	-0.025649	1.070962
	O387	O	0.015332	0.880750	1.209689
	H388	H	0.027446	0.870178	1.221336
	H389	H	0.010532	0.891469	1.195115
	O390	O	0.072248	0.019180	1.203708
	H391	H	0.071276	0.030580	1.196718
	H392	H	0.081738	0.028658	1.211486
	O393	O	0.985359	0.812982	-0.089817
	H394	H	0.983065	0.821432	-0.083037
	H395	H	0.991520	0.805832	-0.098215
	O396	O	0.964314	0.853936	0.119095
	H397	H	0.980413	0.863088	0.115357
	H398	H	0.961888	0.858868	0.113115
	O399	O	0.795825	1.024387	1.030755
	H400	H	0.792865	1.005140	1.026763
	H401	H	0.802428	1.022446	1.019215
	O402	O	0.177522	-0.052926	1.148489
	H403	H	0.182008	-0.062118	1.149483
	H404	H	0.186057	-0.057112	1.159148
	O405	O	-0.204100	-0.023686	0.207438
	H406	H	-0.201885	-0.016039	0.228373
	H407	H	-0.195866	-0.004619	0.215806
	O408	O	1.210940	0.857566	0.965131
	H409	H	1.214701	0.844683	0.982538
	H410	H	1.205449	0.872968	0.989827
	O411	O	0.357430	0.718420	0.470105
	H412	H	0.361678	0.728369	0.461350
	H413	H	0.346099	0.729260	0.445608
	O414	O	0.284141	0.283234	0.533220
	H415	H	0.272244	0.278405	0.544066
	H416	H	0.275038	0.268494	0.539230
	O417	O	0.428759	0.517650	0.299180
	H418	H	0.425435	0.526518	0.288603
	H419	H	0.437169	0.527420	0.307083
	O420	O	0.641820	0.703882	0.648851
	H421	H	0.644842	0.712552	0.643488
	H422	H	0.629843	0.709898	0.647223
	O423	O	-0.505827	0.287692	0.613621
	H424	H	-0.482924	0.277805	0.608487
	H425	H	-0.484337	0.301297	0.626108
	O426	O	1.088779	1.108508	0.957235
	H427	H	1.089949	1.098650	0.946297
	H428	H	1.077853	1.124572	0.964180
	O429	O	0.057397	0.184565	0.195586
	H430	H	0.061986	0.200955	0.190395
	H431	H	0.080253	0.195014	0.198296
	O432	O	0.484613	0.324640	0.320747
	H433	H	0.474310	0.318559	0.322323
	H434	H	0.472248	0.333806	0.336192
	O435	O	0.604931	-0.352003	-0.437689
	H436	H	0.606065	-0.339178	-0.427468
	H437	H	0.600217	-0.361611	-0.445592
	O438	O	1.073420	-0.190447	0.059038
	H439	H	1.062161	-0.198174	0.066834
	H440	H	1.069953	-0.198481	0.062656
	O441	O	0.291998	0.538387	0.639725
	H442	H	0.293245	0.529806	0.650563
	H443	H	0.288339	0.530821	0.640411
	O444	O	0.208740	1.238587	0.794895
	H445	H	0.241798	1.223795	0.805166
	H446	H	0.184185	1.225722	0.828357
	O447	O	0.653442	0.312683	0.309208
	H448	H	0.648524	0.298234	0.332566
	H449	H	0.635747	0.306473	0.312801
	O450	O	0.297480	0.373063	0.706591
	H451	H	0.289569	0.370028	0.701811
	H452	H	0.276873	0.341943	0.717247
	O453	O	0.710281	0.595886	0.638854
	H454	H	0.717218	0.588965	0.648846
	H455	H	0.718677	0.597426	0.631867
	O456	O	0.792795	0.212635	-0.027511
	H457	H	0.790614	0.189549	-0.035931
	H458	H	0.760089	0.232454	-0.031689
	O459	O	0.503319	0.473768	0.528742
	H460	H	0.493984	0.472337	0.544765
	H461	H	0.500150	0.457678	0.527428
	O462	O	0.438735	0.659932	0.302787
	H463	H	0.442299	0.654736	0.307325
	H464	H	0.429448	0.663988	0.304033
	O465	O	0.787426	-0.214444	0.016485
	H466	H	0.772811	-0.229196	0.032520
	H467	H	0.782266	-0.218167	0.046187
