data_Molecule from HDF5

_cell_length_a		16.263592
_cell_length_b		16.296437
_cell_length_c		16.215932
_cell_angle_alpha	89.845293
_cell_angle_beta	89.925825
_cell_angle_gamma	89.907714
_symmetry_space_group_name_H-M	'P 1'
_symmetry_Int_Tables_number		1

loop_
	_symmetry_equiv_pos_as_xyz
	x,y,z

loop_
	_atom_site_label
	_atom_site_type_symbol
	_atom_site_fract_x
	_atom_site_fract_y
	_atom_site_fract_z
	H0	H	0.411654	0.836425	0.714242
	H1	H	0.608026	0.163800	0.711530
	H2	H	0.609430	0.836308	0.285193
	H3	H	0.411895	0.163586	0.283181
	H4	H	0.726186	0.401540	0.834994
	H5	H	0.723647	0.596675	0.163822
	H6	H	0.296576	0.599532	0.834511
	H7	H	0.297879	0.402315	0.163746
	H8	H	0.846956	0.715386	0.399024
	H9	H	0.173140	0.715794	0.598924
	H10	H	0.848063	0.284653	0.599483
	H11	H	0.173510	0.284455	0.398417
	H12	H	0.846593	0.401715	0.713109
	H13	H	0.174410	0.597996	0.713343
	H14	H	0.846910	0.598638	0.285083
	H15	H	0.174398	0.402333	0.285039
	H16	H	0.411796	0.715777	0.834804
	H17	H	0.609874	0.714601	0.163265
	H18	H	0.610666	0.285962	0.834788
	H19	H	0.412077	0.284427	0.162455
	H20	H	0.726546	0.837125	0.398923
	H21	H	0.725304	0.163463	0.597209
	H22	H	0.294428	0.837224	0.599774
	H23	H	0.295159	0.163874	0.399284
	H24	H	0.913104	0.336137	0.213935
	H25	H	0.108548	0.664323	0.212831
	H26	H	0.110568	0.336560	0.784473
	H27	H	0.911821	0.663134	0.784468
	H28	H	0.226272	0.900391	0.334990
	H29	H	0.224185	0.098451	0.663545
	H30	H	0.796708	0.099950	0.334126
	H31	H	0.795969	0.902994	0.662805
	H32	H	0.346673	0.215102	0.899216
	H33	H	0.674247	0.213772	0.097100
	H34	H	0.347366	0.785185	0.098219
	H35	H	0.674424	0.785575	0.899736
	H36	H	0.347848	0.900109	0.214333
	H37	H	0.674934	0.097178	0.211776
	H38	H	0.346196	0.099133	0.783858
	H39	H	0.674906	0.901916	0.785235
	H40	H	0.911636	0.216074	0.334952
	H41	H	0.110327	0.215611	0.662250
	H42	H	0.110596	0.784468	0.335216
	H43	H	0.908840	0.784273	0.662645
	H44	H	0.226767	0.337414	0.900731
	H45	H	0.226607	0.663807	0.098863
	H46	H	0.796521	0.336523	0.098747
	H47	H	0.796186	0.662959	0.900800
	H48	H	0.416011	0.118377	0.597584
	H49	H	0.599314	0.883039	0.597610
	H50	H	0.597929	0.113887	0.408866
	H51	H	0.421148	0.885262	0.406816
	H52	H	0.600144	0.405499	0.114578
	H53	H	0.607081	0.598371	0.879933
	H54	H	0.420406	0.598104	0.116870
	H55	H	0.420700	0.407323	0.882507
	H56	H	0.128807	0.588889	0.396328
	H57	H	0.894762	0.598337	0.582152
	H58	H	0.127142	0.411637	0.593781
	H59	H	0.894777	0.409119	0.408102
	H60	H	0.129575	0.403638	0.593075
	H61	H	0.897404	0.582746	0.592321
	H62	H	0.129465	0.603395	0.408560
	H63	H	0.892773	0.408305	0.403678
	H64	H	0.412803	0.590480	0.116700
	H65	H	0.607345	0.588374	0.883021
	H66	H	0.605009	0.401635	0.117467
	H67	H	0.417502	0.406702	0.881282
	H68	H	0.610586	0.117860	0.408205
	H69	H	0.602900	0.885303	0.586134
	H70	H	0.424303	0.113326	0.589375
	H71	H	0.416507	0.884507	0.409845
	H72	H	0.915913	0.616993	0.092633
	H73	H	0.100156	0.383439	0.099273
	H74	H	0.105526	0.616058	0.911117
	H75	H	0.923101	0.384733	0.905719
	H76	H	0.105964	0.900623	0.619250
	H77	H	0.100354	0.088505	0.384086
	H78	H	0.921769	0.090093	0.613550
	H79	H	0.914052	0.908147	0.380767
	H80	H	0.630886	0.095890	0.894961
	H81	H	0.393972	0.086054	0.097741
	H82	H	0.630522	0.909439	0.103541
	H83	H	0.394028	0.907048	0.907454
	H84	H	0.630443	0.894602	0.089618
	H85	H	0.391051	0.101281	0.092366
	H86	H	0.627654	0.100669	0.912835
	H87	H	0.394542	0.908530	0.906611
	H88	H	0.918538	0.097634	0.616187
	H89	H	0.100293	0.098413	0.381750
	H90	H	0.106590	0.914724	0.613960
	H91	H	0.921069	0.910833	0.383447
	H92	H	0.106663	0.617963	0.902378
	H93	H	0.101872	0.387642	0.085402
	H94	H	0.917416	0.617119	0.092359
	H95	H	0.916953	0.384461	0.912599
	H96	H	0.412174	0.116381	0.585650
	H97	H	0.611157	0.880414	0.593722
	H98	H	0.602336	0.118205	0.397119
	H99	H	0.417073	0.882703	0.404251
	H100	H	0.605506	0.408701	0.116525
	H101	H	0.598359	0.594374	0.883913
	H102	H	0.423046	0.589315	0.112693
	H103	H	0.418857	0.409815	0.881636
	H104	H	0.122645	0.586322	0.414376
	H105	H	0.889437	0.597454	0.600178
	H106	H	0.125303	0.407135	0.586892
	H107	H	0.893454	0.404385	0.407215
	H108	H	0.916305	0.615637	0.092286
	H109	H	0.113107	0.381630	0.093623
	H110	H	0.098021	0.615555	0.904976
	H111	H	0.914547	0.380743	0.903720
	H112	H	0.094007	0.907001	0.613115
	H113	H	0.108418	0.093364	0.380429
	H114	H	0.913360	0.090480	0.615411
	H115	H	0.920813	0.903187	0.380909
	H116	H	0.623225	0.083400	0.906672
	H117	H	0.396968	0.089957	0.082184
	H118	H	0.623851	0.913160	0.084500
	H119	H	0.392909	0.907799	0.905514
	C120	C	0.388623	0.008287	0.620371
	C121	C	0.632356	0.991567	0.620149
	C122	C	0.632318	0.008540	0.376782
	C123	C	0.388583	0.991940	0.377095
	C124	C	0.632920	0.377341	0.007625
	C125	C	0.632307	0.621310	0.990846
	C126	C	0.389642	0.621858	0.007207
	C127	C	0.389989	0.378840	0.990271
	C128	C	0.018719	0.621853	0.377738
	C129	C	1.001898	0.621795	0.620800
	C130	C	0.019314	0.378554	0.620526
	C131	C	1.001706	0.378502	0.377095
	C132	C	0.888486	0.508591	0.121419
	C133	C	0.133031	0.492138	0.121133
	C134	C	0.132428	0.508738	0.877586
	C135	C	0.889606	0.491203	0.878174
	C136	C	0.131653	0.878487	0.507213
	C137	C	0.132076	0.122064	0.490438
	C138	C	0.889054	0.121893	0.506778
	C139	C	0.889157	0.879030	0.490300
	C140	C	0.519103	0.122190	0.875937
	C141	C	0.502296	0.120732	0.119371
	C142	C	0.519546	0.877504	0.120845
	C143	C	0.502143	0.879247	0.877799
	C144	C	0.391146	0.885422	0.676223
	C145	C	0.629281	0.114597	0.674764
	C146	C	0.629693	0.885190	0.322590
	C147	C	0.391161	0.114775	0.321223
	C148	C	0.688339	0.380785	0.884130
	C149	C	0.686751	0.618178	0.114554
	C150	C	0.334137	0.620002	0.883652
	C151	C	0.335072	0.381471	0.114217
	C152	C	0.895696	0.677104	0.379332
	C153	C	0.124551	0.677536	0.619048
	C154	C	0.896438	0.323170	0.618919
	C155	C	0.124724	0.322749	0.378574
	C156	C	0.895799	0.380915	0.675732
	C157	C	0.125012	0.619155	0.676013
	C158	C	0.895771	0.619344	0.322492
	C159	C	0.125114	0.381159	0.321978
	C160	C	0.391756	0.677415	0.883721
	C161	C	0.629784	0.676346	0.114304
	C162	C	0.630944	0.323208	0.883883
	C163	C	0.391574	0.322683	0.113566
	C164	C	0.688029	0.885678	0.379040
	C165	C	0.687057	0.114739	0.617315
	C166	C	0.333085	0.885525	0.619197
	C167	C	0.332919	0.114829	0.378732
	C168	C	0.892175	0.385213	0.176421
	C169	C	0.129556	0.615480	0.175536
	C170	C	0.130616	0.385450	0.822352
	C171	C	0.891702	0.614351	0.822720
	C172	C	0.187925	0.880433	0.383967
	C173	C	0.186954	0.118976	0.614083
	C174	C	0.833884	0.120258	0.383410
	C175	C	0.834059	0.882329	0.614078
	C176	C	0.395700	0.177551	0.878445
	C177	C	0.625454	0.175638	0.117042
	C178	C	0.396520	0.822378	0.118853
	C179	C	0.625565	0.823790	0.879798
	C180	C	0.396611	0.879744	0.176553
	C181	C	0.625845	0.117540	0.173897
	C182	C	0.395471	0.119901	0.821126
	C183	C	0.625891	0.881909	0.823177
	C184	C	0.891135	0.177850	0.383733
	C185	C	0.130424	0.177355	0.613608
	C186	C	0.130438	0.822689	0.384110
	C187	C	0.890156	0.823363	0.613827
	C188	C	0.188798	0.385977	0.879758
	C189	C	0.188099	0.615332	0.118672
	C190	C	0.833891	0.385296	0.119420
	C191	C	0.834049	0.614242	0.880308
	C192	C	0.410863	0.093991	0.597475
	C193	C	0.610865	0.905297	0.598695
	C194	C	0.610180	0.094448	0.398297
	C195	C	0.411424	0.906370	0.400143
	C196	C	0.610097	0.398898	0.093990
	C197	C	0.610564	0.599836	0.904569
	C198	C	0.412167	0.599221	0.093249
	C199	C	0.412435	0.401282	0.904106
	C200	C	0.104877	0.599416	0.400045
	C201	C	0.916073	0.599621	0.598112
	C202	C	0.105082	0.400857	0.597894
	C203	C	0.915817	0.400680	0.399633
	C204	C	0.910049	0.594502	0.098988
	C205	C	0.111498	0.406381	0.099252
	C206	C	0.109962	0.594333	0.899640
	C207	C	0.911826	0.405404	0.900662
	C208	C	0.108820	0.900663	0.593119
	C209	C	0.109532	0.100004	0.404405
	C210	C	0.911466	0.099288	0.592909
	C211	C	0.911900	0.900929	0.404007
	C212	C	0.604919	0.099869	0.898089
	C213	C	0.416235	0.098891	0.097240
	C214	C	0.605828	0.899116	0.098895
	C215	C	0.416202	0.901288	0.900048
	Zn216	Zn	0.510594	-0.000272	0.748623
	Zn217	Zn	0.511089	-0.000121	0.248426
	Zn218	Zn	0.760127	0.499580	-0.000424
	Zn219	Zn	0.261310	0.500765	-0.000986
	Zn220	Zn	0.010036	0.749932	0.498888
	Zn221	Zn	0.010252	0.250402	0.499068
	Zn222	Zn	0.010520	0.499409	0.749053
	Zn223	Zn	0.010787	0.500453	0.249505
	Zn224	Zn	0.510900	0.749995	-0.001393
	Zn225	Zn	0.510795	0.249407	-0.001883
	Zn226	Zn	0.760811	0.000346	0.498078
	Zn227	Zn	0.259866	0.000206	0.499355
	N228	N	0.425160	0.962706	0.676904
	N229	N	0.595908	0.037164	0.676514
	N230	N	0.595677	0.962592	0.321121
	N231	N	0.424774	0.037233	0.319938
	N232	N	0.689687	0.413591	0.962058
	N233	N	0.688217	0.584578	0.036848
	N234	N	0.332588	0.586309	0.961521
	N235	N	0.333933	0.415750	0.036434
	N236	N	0.973412	0.678844	0.412900
	N237	N	0.046892	0.679369	0.585613
	N238	N	0.974157	0.321516	0.585376
	N239	N	0.047089	0.321131	0.412342
	N240	N	0.973293	0.414581	0.676932
	N241	N	0.047634	0.585243	0.677144
	N242	N	0.973319	0.585620	0.321590
	N243	N	0.047648	0.414953	0.321079
	N244	N	0.425679	0.678468	0.961464
	N245	N	0.596579	0.678402	0.036367
	N246	N	0.597064	0.320947	0.961772
	N247	N	0.425098	0.321121	0.035682
	N248	N	0.689422	0.963207	0.412349
	N249	N	0.689085	0.037074	0.584113
	N250	N	0.331315	0.963044	0.585391
	N251	N	0.331276	0.037359	0.412799
	N252	N	0.925463	0.462802	0.177827
	N253	N	0.096011	0.538008	0.177263
	N254	N	0.096224	0.462772	0.820853
	N255	N	0.925439	0.536887	0.821256
	N256	N	0.188961	0.914122	0.461554
	N257	N	0.188036	0.085271	0.536406
	N258	N	0.832493	0.086097	0.461056
	N259	N	0.833426	0.916194	0.536323
	N260	N	0.473593	0.179270	0.911576
	N261	N	0.547594	0.177768	0.083918
	N262	N	0.474065	0.820811	0.085072
	N263	N	0.547784	0.821983	0.913185
	N264	N	0.474191	0.913160	0.178028
	N265	N	0.548249	0.084052	0.175481
	N266	N	0.473070	0.086099	0.819569
	N267	N	0.548174	0.915352	0.821558
	N268	N	0.924911	0.178862	0.461450
	N269	N	0.096969	0.179413	0.535774
	N270	N	0.095923	0.821434	0.461738
	N271	N	0.923699	0.821176	0.535822
	N272	N	0.190016	0.463371	0.913226
	N273	N	0.190374	0.537780	0.085750
	N274	N	0.831897	0.462805	0.085534
	N275	N	0.832618	0.536720	0.914282
	O276	O	1.018372	1.049940	0.086219
	H277	H	1.023843	1.049463	0.086185
	H278	H	1.010303	1.045717	0.079163
	O279	O	-0.013783	-0.027221	0.910998
	H280	H	-0.007680	-0.032700	0.906232
	H281	H	-0.019093	-0.032066	0.912187
	O282	O	0.030374	-0.037484	-0.087370
	H283	H	0.028415	-0.044929	-0.085275
	H284	H	0.027661	-0.031946	-0.081566
	O285	O	0.393354	0.505000	0.469852
	H286	H	0.402165	0.503981	0.456727
	H287	H	0.383949	0.495118	0.469061
	O288	O	-0.002970	0.010166	-0.020677
	H289	H	-0.006640	0.009648	-0.018207
	H290	H	-0.012148	0.004302	-0.031748
	O291	O	0.024624	1.005733	-0.002236
	H292	H	0.032075	1.003822	-0.003683
	H293	H	0.026307	1.007596	-0.005109
	O294	O	0.038312	0.984332	-0.003183
	H295	H	0.042166	0.988392	0.001929
	H296	H	0.037826	0.980245	0.000274
	O297	O	0.545497	0.524837	0.438980
	H298	H	0.551378	0.522029	0.442991
	H299	H	0.550459	0.525014	0.439339
	O300	O	0.538018	0.494382	0.587787
	H301	H	0.532195	0.489889	0.592681
	H302	H	0.530840	0.491231	0.595255
	O303	O	0.734932	-0.260929	1.226304
	H304	H	0.735065	-0.268229	1.236897
	H305	H	0.733838	-0.258987	1.219577
	O306	O	0.004539	1.036811	1.000177
	H307	H	0.001604	1.040582	0.985925
	H308	H	-0.002640	1.035858	1.003685
	O309	O	0.055826	0.927955	1.013575
	H310	H	0.060063	0.927281	1.015893
	H311	H	0.060533	0.928824	1.023290
	O312	O	0.038249	0.023768	1.030135
	H313	H	0.046216	0.028389	1.035734
	H314	H	0.035345	0.024678	1.025131
	O315	O	0.528552	0.549012	0.530449
	H316	H	0.533871	0.549077	0.526743
	H317	H	0.517456	0.543507	0.522940
	O318	O	0.057123	-0.050851	0.955181
	H319	H	0.054078	-0.052868	0.951241
	H320	H	0.065923	-0.049991	0.960100
	O321	O	0.412196	0.501946	0.446892
	H322	H	0.408546	0.496001	0.448577
	H323	H	0.419108	0.501954	0.436789
	O324	O	1.054409	-0.015989	1.107615
	H325	H	1.055613	-0.015375	1.101687
	H326	H	1.052950	-0.009445	1.108932
	O327	O	0.998800	0.990858	0.997031
	H328	H	0.995216	0.985370	0.992960
	H329	H	1.002082	1.000284	1.001620
	O330	O	0.445494	0.456976	0.518464
	H331	H	0.447168	0.453063	0.513599
	H332	H	0.440161	0.455767	0.515072
	O333	O	0.514666	0.532884	0.495273
	H334	H	0.510718	0.534649	0.491805
	H335	H	0.504851	0.543360	0.502453
	O336	O	0.498563	0.460853	0.512317
	H337	H	0.495749	0.458658	0.509337
	H338	H	0.499176	0.465570	0.511613
	O339	O	-0.528715	0.465793	-0.454283
	H340	H	-0.536341	0.459987	-0.452013
	H341	H	-0.531839	0.469220	-0.458973
	O342	O	0.495807	0.514265	0.559895
	H343	H	0.501642	0.511857	0.572727
	H344	H	0.500878	0.528518	0.553201
	O345	O	0.524075	0.512491	0.442959
	H346	H	0.525671	0.513821	0.446368
	H347	H	0.526367	0.521509	0.453821
