data_Molecule from HDF5

_cell_length_a		16.617610
_cell_length_b		16.596679
_cell_length_c		16.594407
_cell_angle_alpha	90.080687
_cell_angle_beta	90.136292
_cell_angle_gamma	89.939311
_symmetry_space_group_name_H-M	'P 1'
_symmetry_Int_Tables_number		1

loop_
	_symmetry_equiv_pos_as_xyz
	x,y,z

loop_
	_atom_site_label
	_atom_site_type_symbol
	_atom_site_fract_x
	_atom_site_fract_y
	_atom_site_fract_z
	H0	H	0.373505	0.854184	0.710530
	H1	H	0.579035	0.168228	0.710376
	H2	H	0.578480	0.852364	0.271846
	H3	H	0.367969	0.165981	0.267846
	H4	H	0.694638	0.407412	0.836045
	H5	H	0.700697	0.619608	0.147850
	H6	H	0.257479	0.611975	0.834709
	H7	H	0.255387	0.405754	0.149111
	H8	H	0.819087	0.730392	0.388932
	H9	H	0.130706	0.732351	0.599227
	H10	H	0.819602	0.290811	0.594608
	H11	H	0.133380	0.290274	0.388792
	H12	H	0.819532	0.406388	0.712156
	H13	H	0.131555	0.614970	0.714468
	H14	H	0.820276	0.616215	0.271029
	H15	H	0.133536	0.406141	0.273209
	H16	H	0.375692	0.726165	0.834126
	H17	H	0.584418	0.735524	0.147448
	H18	H	0.578947	0.290567	0.836546
	H19	H	0.370397	0.289006	0.149030
	H20	H	0.695842	0.852992	0.387514
	H21	H	0.694107	0.168373	0.592785
	H22	H	0.256760	0.854349	0.594627
	H23	H	0.251590	0.165231	0.383169
	H24	H	0.872143	0.354944	0.214006
	H25	H	0.082488	0.666103	0.214843
	H26	H	0.076494	0.352793	0.774872
	H27	H	0.874944	0.668743	0.776633
	H28	H	0.198407	0.902756	0.336954
	H29	H	0.196908	0.113865	0.647896
	H30	H	0.755277	0.116006	0.335393
	H31	H	0.756884	0.909123	0.647893
	H32	H	0.319616	0.230504	0.887735
	H33	H	0.631099	0.231761	0.097689
	H34	H	0.320227	0.787848	0.096421
	H35	H	0.633786	0.792682	0.891428
	H36	H	0.320356	0.904125	0.213228
	H37	H	0.631576	0.114709	0.213690
	H38	H	0.319898	0.113676	0.771707
	H39	H	0.633860	0.909001	0.774481
	H40	H	0.870736	0.232846	0.335967
	H41	H	0.077675	0.229081	0.648784
	H42	H	0.083237	0.786135	0.337472
	H43	H	0.874694	0.793446	0.648383
	H44	H	0.195147	0.353288	0.889505
	H45	H	0.198083	0.665969	0.098379
	H46	H	0.755377	0.354900	0.097632
	H47	H	0.759129	0.668834	0.892848
	H48	H	0.384175	0.123759	0.581646
	H49	H	0.569424	0.898631	0.578742
	H50	H	0.569710	0.122709	0.404411
	H51	H	0.385931	0.898829	0.401393
	H52	H	0.562732	0.425505	0.103044
	H53	H	0.562548	0.599616	0.883034
	H54	H	0.385380	0.598188	0.104487
	H55	H	0.387300	0.424977	0.883586
	H56	H	0.086830	0.597252	0.404576
	H57	H	0.865008	0.596920	0.584796
	H58	H	0.088513	0.423890	0.587804
	H59	H	0.862770	0.422784	0.395431
	H60	H	0.090445	0.414944	0.585315
	H61	H	0.861025	0.604202	0.586412
	H62	H	0.088055	0.599704	0.404480
	H63	H	0.864046	0.414571	0.407169
	H64	H	0.389141	0.598564	0.103606
	H65	H	0.567636	0.602186	0.879980
	H66	H	0.563171	0.418501	0.104810
	H67	H	0.388507	0.414452	0.879819
	H68	H	0.564809	0.123802	0.396241
	H69	H	0.570524	0.895971	0.585173
	H70	H	0.390136	0.123018	0.582290
	H71	H	0.390025	0.900433	0.402093
	H72	H	0.882004	0.624897	0.082598
	H73	H	0.064737	0.399661	0.080830
	H74	H	0.066862	0.623186	0.903545
	H75	H	0.880235	0.395978	0.901159
	H76	H	0.061075	0.923617	0.601195
	H77	H	0.061330	0.104725	0.379610
	H78	H	0.889062	0.102479	0.603618
	H79	H	0.887852	0.923296	0.380260
	H80	H	0.586189	0.097297	0.906337
	H81	H	0.364948	0.091695	0.084458
	H82	H	0.585820	0.928670	0.082855
	H83	H	0.362867	0.916812	0.899679
	H84	H	0.589724	0.917142	0.084233
	H85	H	0.361649	0.105089	0.080920
	H86	H	0.589495	0.098027	0.897079
	H87	H	0.363717	0.919676	0.900294
	H88	H	0.882938	0.102893	0.605271
	H89	H	0.070318	0.099172	0.378105
	H90	H	0.065852	0.917076	0.605685
	H91	H	0.887964	0.918572	0.378759
	H92	H	0.067397	0.623401	0.902387
	H93	H	0.066181	0.399220	0.082501
	H94	H	0.892333	0.623133	0.086956
	H95	H	0.887042	0.396526	0.898261
	H96	H	0.387280	0.121060	0.577235
	H97	H	0.564270	0.898927	0.583433
	H98	H	0.560778	0.118938	0.404216
	H99	H	0.387049	0.900375	0.405547
	H100	H	0.568845	0.423000	0.106060
	H101	H	0.568000	0.596429	0.882675
	H102	H	0.386962	0.601564	0.104830
	H103	H	0.378739	0.419614	0.877882
	H104	H	0.086650	0.599246	0.407125
	H105	H	0.863947	0.603164	0.578912
	H106	H	0.087000	0.421503	0.578413
	H107	H	0.868988	0.428297	0.407189
	H108	H	0.889779	0.619260	0.076219
	H109	H	0.063689	0.398933	0.082284
	H110	H	0.065994	0.623294	0.902383
	H111	H	0.885403	0.398763	0.905170
	H112	H	0.069918	0.924799	0.603716
	H113	H	0.062425	0.094560	0.382304
	H114	H	0.884962	0.097697	0.602804
	H115	H	0.883866	0.920994	0.378459
	H116	H	0.589499	0.106213	0.902740
	H117	H	0.368224	0.097094	0.071713
	H118	H	0.585075	0.920506	0.073636
	H119	H	0.362864	0.918759	0.897986
	C120	C	0.355595	0.019247	0.612202
	C121	C	0.598272	1.002108	0.613209
	C122	C	0.596997	0.018235	0.369999
	C123	C	0.354401	1.002190	0.369774
	C124	C	0.596963	0.390067	0.001591
	C125	C	0.598630	0.632472	0.984688
	C126	C	0.355614	0.630545	0.000581
	C127	C	0.353642	0.388024	0.984140
	C128	C	-0.015652	0.631723	0.372229
	C129	C	0.966932	0.632462	0.614849
	C130	C	-0.015266	0.388899	0.614329
	C131	C	0.968389	0.389343	0.371737
	C132	C	0.855495	0.519419	0.114237
	C133	C	0.097503	0.502348	0.114026
	C134	C	0.096969	0.518895	0.871774
	C135	C	0.854582	0.501865	0.871899
	C136	C	0.097842	0.888577	0.500671
	C137	C	0.096643	0.131108	0.483612
	C138	C	0.854285	0.132677	0.500269
	C139	C	0.855283	0.890257	0.482969
	C140	C	0.484651	0.131769	0.870584
	C141	C	0.467678	0.130871	0.112457
	C142	C	0.483963	0.888948	0.112429
	C143	C	0.467618	0.888626	0.869785
	C144	C	0.354511	0.901246	0.670820
	C145	C	0.598421	0.120727	0.671239
	C146	C	0.597930	0.899823	0.311257
	C147	C	0.350327	0.118854	0.308258
	C148	C	0.655300	0.388653	0.883321
	C149	C	0.659672	0.636564	0.101470
	C150	C	0.297366	0.630747	0.881904
	C151	C	0.294901	0.386898	0.102077
	C152	C	0.866631	0.691440	0.369710
	C153	C	0.084316	0.692148	0.617298
	C154	C	0.866766	0.330184	0.614389
	C155	C	0.086329	0.329909	0.370386
	C156	C	0.866644	0.387696	0.672563
	C157	C	0.084384	0.633925	0.674668
	C158	C	0.867102	0.634336	0.311278
	C159	C	0.086456	0.387864	0.312980
	C160	C	0.355845	0.687736	0.881638
	C161	C	0.601643	0.694283	0.101156
	C162	C	0.597846	0.330662	0.883553
	C163	C	0.352336	0.328885	0.101917
	C164	C	0.656293	0.900124	0.368684
	C165	C	0.655526	0.120935	0.612872
	C166	C	0.296516	0.901236	0.613155
	C167	C	0.292198	0.118620	0.365548
	C168	C	0.853588	0.401747	0.173976
	C169	C	0.100480	0.619245	0.174565
	C170	C	0.096235	0.400009	0.813955
	C171	C	0.855216	0.621173	0.815187
	C172	C	0.158178	0.885196	0.383680
	C173	C	0.156343	0.132650	0.601352
	C174	C	0.794880	0.134686	0.382408
	C175	C	0.796584	0.889789	0.600984
	C176	C	0.366780	0.190764	0.869062
	C177	C	0.584660	0.191378	0.115840
	C178	C	0.366944	0.828099	0.114920
	C179	C	0.586445	0.831390	0.871237
	C180	C	0.366883	0.885899	0.172817
	C181	C	0.584791	0.133209	0.173298
	C182	C	0.366917	0.132658	0.811266
	C183	C	0.586577	0.889108	0.813195
	C184	C	0.852605	0.192563	0.382798
	C185	C	0.097348	0.189550	0.601970
	C186	C	0.100921	0.827063	0.383933
	C187	C	0.854916	0.832515	0.601535
	C188	C	0.154954	0.400216	0.870986
	C189	C	0.158155	0.619132	0.116886
	C190	C	0.795737	0.401743	0.116096
	C191	C	0.797817	0.621238	0.873120
	C192	C	0.380229	0.101264	0.587484
	C193	C	0.574807	0.919338	0.589289
	C194	C	0.572258	0.100254	0.394577
	C195	C	0.380400	0.921037	0.395690
	C196	C	0.572028	0.415238	0.083400
	C197	C	0.573276	0.606533	0.903054
	C198	C	0.379966	0.606455	0.083010
	C199	C	0.377923	0.412590	0.901853
	C200	C	0.065959	0.606052	0.397977
	C201	C	0.884740	0.608247	0.590126
	C202	C	0.067113	0.413011	0.590581
	C203	C	0.886702	0.414638	0.396268
	C204	C	0.880767	0.601140	0.089113
	C205	C	0.072242	0.420558	0.088908
	C206	C	0.073581	0.601500	0.895872
	C207	C	0.877542	0.418785	0.894910
	C208	C	0.072764	0.914513	0.582385
	C209	C	0.071922	0.106467	0.401204
	C210	C	0.878629	0.107871	0.582493
	C211	C	0.879763	0.914015	0.400600
	C212	C	0.566954	0.107453	0.895064
	C213	C	0.386272	0.105322	0.086469
	C214	C	0.565509	0.914727	0.087425
	C215	C	0.384740	0.911873	0.892656
	Zn216	Zn	0.476805	0.010711	0.741699
	Zn217	Zn	0.475240	0.009950	0.241252
	Zn218	Zn	0.726539	0.510797	-0.006770
	Zn219	Zn	0.226236	0.510256	-0.007165
	Zn220	Zn	-0.024131	0.760836	0.492689
	Zn221	Zn	-0.023485	0.260748	0.491970
	Zn222	Zn	-0.024753	0.510676	0.742735
	Zn223	Zn	-0.023136	0.510420	0.243320
	Zn224	Zn	0.476193	0.759993	-0.008471
	Zn225	Zn	0.475789	0.260725	-0.007440
	Zn226	Zn	0.725990	0.011036	0.490609
	Zn227	Zn	0.226173	0.010469	0.491114
	N228	N	0.390409	0.975593	0.670536
	N229	N	0.563861	0.045608	0.671741
	N230	N	0.561905	0.974320	0.311718
	N231	N	0.388364	0.045384	0.310792
	N232	N	0.655187	0.424694	0.957846
	N233	N	0.657753	0.598696	0.028023
	N234	N	0.296844	0.596052	0.956981
	N235	N	0.295419	0.422917	0.027630
	N236	N	0.940666	0.690137	0.406757
	N237	N	0.010112	0.691602	0.580785
	N238	N	0.941235	0.330788	0.578723
	N239	N	0.011801	0.330487	0.405882
	N240	N	0.941132	0.423339	0.672895
	N241	N	0.010364	0.597485	0.673122
	N242	N	0.941469	0.598040	0.312478
	N243	N	0.012002	0.423980	0.313281
	N244	N	0.391091	0.688053	0.956605
	N245	N	0.564278	0.691887	0.027458
	N246	N	0.562328	0.331217	0.958215
	N247	N	0.387957	0.329408	0.027350
	N248	N	0.655976	0.974943	0.404277
	N249	N	0.655812	0.045943	0.577589
	N250	N	0.296963	0.975795	0.577418
	N251	N	0.294467	0.045008	0.403163
	N252	N	0.889894	0.475987	0.173240
	N253	N	0.063682	0.545375	0.173284
	N254	N	0.061083	0.474871	0.814066
	N255	N	0.889450	0.545791	0.813872
	N256	N	0.156396	0.922795	0.457303
	N257	N	0.156270	0.097431	0.526585
	N258	N	0.795990	0.097953	0.456438
	N259	N	0.796353	0.924585	0.526127
	N260	N	0.441077	0.190530	0.905280
	N261	N	0.510597	0.190319	0.079025
	N262	N	0.440880	0.829760	0.078282
	N263	N	0.511210	0.830740	0.905454
	N264	N	0.440701	0.923087	0.171391
	N265	N	0.510980	0.096411	0.171463
	N266	N	0.441349	0.096835	0.812069
	N267	N	0.511557	0.923519	0.811700
	N268	N	0.888888	0.191569	0.457133
	N269	N	0.061205	0.188860	0.527592
	N270	N	0.064035	0.828921	0.457966
	N271	N	0.890522	0.832465	0.526981
	N272	N	0.155699	0.475137	0.906105
	N273	N	0.156440	0.545309	0.079841
	N274	N	0.796598	0.476045	0.079964
	N275	N	0.796940	0.545897	0.907231
	O276	O	-0.232817	0.803218	0.018225
	H277	H	-0.229748	0.791677	0.015108
	H278	H	-0.242903	0.804660	0.031271
	O279	O	0.755446	0.230176	-0.162859
	H280	H	0.727916	0.257332	-0.188207
	H281	H	0.780512	0.224181	-0.178437
	O282	O	0.795786	0.105604	0.772304
	H283	H	0.774040	0.113312	0.754540
	H284	H	0.796583	0.125158	0.767615
	O285	O	0.493810	0.539589	0.510953
	H286	H	0.489692	0.535575	0.520389
	H287	H	0.488275	0.535708	0.495217
	O288	O	0.258017	0.546349	0.552275
	H289	H	0.261507	0.537542	0.533535
	H290	H	0.258429	0.520692	0.543177
	O291	O	0.687833	0.717187	0.700752
	H292	H	0.679603	0.724690	0.660416
	H293	H	0.715720	0.744739	0.708608
	O294	O	0.657923	-0.327394	1.350782
	H295	H	0.645311	-0.345342	1.366931
	H296	H	0.633374	-0.339681	1.347773
	O297	O	0.032699	1.012132	0.796862
	H298	H	0.049188	1.004781	0.796056
	H299	H	0.030893	1.009935	0.795158
	O300	O	-0.077229	-0.166454	0.904194
	H301	H	-0.064911	-0.168979	0.885249
	H302	H	-0.074090	-0.160226	0.904927
	O303	O	0.801986	0.226092	-0.010174
	H304	H	0.792336	0.232056	-0.030665
	H305	H	0.796895	0.241069	-0.027486
	O306	O	1.008566	0.801905	0.781046
	H307	H	1.017680	0.800916	0.766917
	H308	H	1.034035	0.794492	0.771015
	O309	O	0.647658	0.401144	0.593123
	H310	H	0.644818	0.416869	0.601033
	H311	H	0.621712	0.418773	0.589331
	O312	O	0.282152	0.295741	0.559793
	H313	H	0.307248	0.293525	0.535384
	H314	H	0.259052	0.270062	0.549818
	O315	O	1.269253	0.720825	1.287095
	H316	H	1.279457	0.713295	1.319391
	H317	H	1.306501	0.719505	1.294633
	O318	O	0.195127	0.230200	1.019855
	H319	H	0.219208	0.241714	1.013864
	H320	H	0.196740	0.226102	1.034743
	O321	O	-0.052375	-0.002302	-0.219400
	H322	H	-0.067298	0.009840	-0.221969
	H323	H	-0.046352	-0.007858	-0.217016
	O324	O	1.010090	1.131974	0.133420
	H325	H	0.998949	1.137837	0.137683
	H326	H	1.010068	1.126234	0.119833
	O327	O	0.000306	-0.014405	1.160880
	H328	H	-0.009649	-0.014429	1.158214
	H329	H	0.000105	-0.009626	1.158163
	O330	O	0.783433	0.819152	1.189920
	H331	H	0.809474	0.808820	1.170078
	H332	H	0.789834	0.798380	1.210817
	O333	O	0.172941	0.058124	0.177294
	H334	H	0.162473	0.053347	0.174370
	H335	H	0.188904	0.052421	0.194713
	O336	O	0.880693	-0.107280	0.115163
	H337	H	0.856183	-0.110822	0.132587
	H338	H	0.884063	-0.126952	0.101483
	O339	O	1.251311	-0.519828	0.707056
	H340	H	1.235170	-0.541236	0.726824
	H341	H	1.243044	-0.546794	0.717430
	O342	O	0.514816	0.736357	-0.283908
	H343	H	0.520417	0.758495	-0.264390
	H344	H	0.540289	0.738040	-0.283713
	O345	O	-0.033645	1.124776	0.931566
	H346	H	-0.040152	1.115412	0.931237
	H347	H	-0.034764	1.125001	0.918946
	O348	O	0.506175	0.340797	0.488446
	H349	H	0.521177	0.347153	0.488868
	H350	H	0.502728	0.330350	0.503027
	O351	O	0.980938	1.121299	-0.080307
	H352	H	0.971443	1.113215	-0.078623
	H353	H	0.982816	1.131930	-0.065826
	O354	O	0.189581	-0.020735	0.774778
	H355	H	0.188020	-0.041124	0.784434
	H356	H	0.206660	-0.031828	0.757175
	O357	O	0.260935	0.774115	0.733195
	H358	H	0.272866	0.753841	0.710384
	H359	H	0.276236	0.773287	0.718430
	O360	O	1.167238	0.200362	1.179075
	H361	H	1.138345	0.202673	1.172777
	H362	H	1.170125	0.166534	1.172952
	O363	O	-0.394239	-0.516414	-0.604968
	H364	H	-0.412142	-0.511723	-0.594048
	H365	H	-0.381468	-0.515030	-0.598374
	O366	O	0.389840	0.512910	0.391838
	H367	H	0.378053	0.498700	0.387567
	H368	H	0.399375	0.498775	0.402803
	O369	O	0.896424	0.219080	0.201903
	H370	H	0.899178	0.215962	0.207922
	H371	H	0.897226	0.200800	0.205628
	O372	O	1.694879	1.481503	0.267951
	H373	H	1.693767	1.453836	0.282468
	H374	H	1.726999	1.475526	0.239015
	O375	O	1.162940	0.197003	-0.198327
	H376	H	1.147642	0.175171	-0.178721
	H377	H	1.148218	0.177970	-0.179886
	O378	O	-0.057786	-0.205994	1.206437
	H379	H	-0.050046	-0.215512	1.215732
	H380	H	-0.041748	-0.203889	1.203711
	O381	O	0.112095	0.806895	1.134185
	H382	H	0.105999	0.814478	1.140190
	H383	H	0.126458	0.799673	1.149792
	O384	O	1.114400	-0.092481	1.178011
	H385	H	1.119270	-0.090695	1.185706
	H386	H	1.116586	-0.082273	1.170429
	O387	O	1.427462	0.711847	0.274190
	H388	H	1.440287	0.722218	0.249116
	H389	H	1.446562	0.683496	0.263730
	O390	O	0.502383	0.290478	0.270809
	H391	H	0.513611	0.265872	0.240248
	H392	H	0.541052	0.296665	0.276103
	O393	O	0.426396	0.712099	0.585165
	H394	H	0.423421	0.700379	0.587989
	H395	H	0.447996	0.716715	0.597536
	O396	O	-0.213064	0.820730	0.797717
	H397	H	-0.208601	0.824590	0.810190
	H398	H	-0.197720	0.841424	0.814158
	O399	O	-0.667873	0.721811	0.445458
	H400	H	-0.679764	0.704774	0.448457
	H401	H	-0.679204	0.723104	0.449942
	O402	O	0.263721	0.300208	0.704449
	H403	H	0.255579	0.291021	0.651132
	H404	H	0.230620	0.265592	0.732836
	O405	O	0.750485	0.058412	1.043350
	H406	H	0.743014	0.071801	1.061038
	H407	H	0.753018	0.059555	1.052191
	O408	O	0.144733	0.009405	0.004670
	H409	H	0.134033	0.007985	0.001381
	H410	H	0.147674	0.006856	0.031340
	O411	O	1.085852	1.111822	0.976745
	H412	H	1.086501	1.094931	0.977674
	H413	H	1.086812	1.108606	0.988194
	O414	O	1.161846	-0.068774	0.014647
	H415	H	1.162719	-0.076102	0.025173
	H416	H	1.160101	-0.074292	0.014979
	O417	O	0.683672	0.306384	0.456271
	H418	H	0.689311	0.317741	0.471623
	H419	H	0.679818	0.307142	0.466245
	O420	O	0.510031	0.670601	0.460091
	H421	H	0.481387	0.672531	0.438482
	H422	H	0.506727	0.665240	0.473096
	O423	O	0.607155	-0.379799	1.470221
	H424	H	0.577932	-0.376789	1.461838
	H425	H	0.606921	-0.384338	1.485456
	O426	O	0.701179	0.291442	0.273312
	H427	H	0.717719	0.285441	0.282796
	H428	H	0.719322	0.279393	0.275869
	O429	O	0.916821	1.174674	0.821357
	H430	H	0.922576	1.185957	0.816200
	H431	H	0.917459	1.165595	0.827846
	O432	O	0.301409	0.558649	0.375653
	H433	H	0.300438	0.563571	0.378652
	H434	H	0.306057	0.556006	0.369979
	O435	O	0.378718	0.434114	0.494363
	H436	H	0.370981	0.430151	0.489816
	H437	H	0.380543	0.443618	0.501730
	O438	O	-0.083137	0.063485	0.195205
	H439	H	-0.090794	0.047932	0.189838
	H440	H	-0.083416	0.050988	0.186499
	O441	O	0.446676	0.383953	0.428710
	H442	H	0.464610	0.379863	0.436058
	H443	H	0.454246	0.382316	0.410584
	O444	O	0.517876	0.318035	0.505021
	H445	H	0.530796	0.317038	0.513032
	H446	H	0.511369	0.320209	0.506104
	O447	O	-0.242229	0.978632	0.878779
	H448	H	-0.250505	1.004964	0.877321
	H449	H	-0.247843	0.982438	0.876952
	O450	O	-0.133710	1.096553	1.020692
	H451	H	-0.138763	1.083393	1.032388
	H452	H	-0.139614	1.109328	1.009939
	O453	O	0.276778	0.415250	0.276630
	H454	H	0.262825	0.431566	0.274434
	H455	H	0.283156	0.418177	0.253556
	O456	O	-0.200386	0.049258	1.207655
	H457	H	-0.194801	0.008282	1.203655
	H458	H	-0.214771	0.039437	1.213894
	O459	O	1.108149	0.856042	-0.041721
	H460	H	1.090338	0.858662	-0.035364
	H461	H	1.117008	0.843122	-0.037377
	O462	O	1.656943	0.683473	0.531474
	H463	H	1.646331	0.691801	0.519383
	H464	H	1.649961	0.684800	0.513890
	O465	O	1.184910	-0.197757	-0.167290
	H466	H	1.200378	-0.210380	-0.129684
	H467	H	1.204517	-0.211337	-0.198994
	O468	O	0.419196	0.547656	0.694916
	H469	H	0.419797	0.548462	0.691944
	H470	H	0.392390	0.541670	0.706878
	O471	O	0.545889	0.591116	0.265279
	H472	H	0.557350	0.572601	0.268596
	H473	H	0.548986	0.569495	0.271397
	O474	O	0.507890	0.468793	0.684227
	H475	H	0.525186	0.480368	0.692367
	H476	H	0.487077	0.471161	0.689531
	O477	O	0.461878	0.436227	1.381349
	H478	H	0.464495	0.440545	1.364444
	H479	H	0.468017	0.416484	1.387624
	O480	O	0.267647	0.604071	0.522236
	H481	H	0.260605	0.591831	0.538560
	H482	H	0.262093	0.578840	0.514107
	O483	O	0.702452	0.546892	0.716715
	H484	H	0.734245	0.546964	0.753828
	H485	H	0.694661	0.598183	0.710827
	O486	O	0.445337	0.328684	0.711370
	H487	H	0.422256	0.327468	0.717925
	H488	H	0.438438	0.313102	0.728570
	O489	O	0.690284	1.305172	-0.305388
	H490	H	0.685241	1.318839	-0.320215
	H491	H	0.668585	1.322232	-0.329690
