data_Molecule from HDF5

_cell_length_a		16.246234
_cell_length_b		16.337448
_cell_length_c		16.244937
_cell_angle_alpha	89.986632
_cell_angle_beta	89.882283
_cell_angle_gamma	89.976460
_symmetry_space_group_name_H-M	'P 1'
_symmetry_Int_Tables_number		1

loop_
	_symmetry_equiv_pos_as_xyz
	x,y,z

loop_
	_atom_site_label
	_atom_site_type_symbol
	_atom_site_fract_x
	_atom_site_fract_y
	_atom_site_fract_z
	H0	H	0.398476	0.839453	0.718481
	H1	H	0.595446	0.165611	0.718990
	H2	H	0.595720	0.840400	0.288979
	H3	H	0.397496	0.167197	0.289894
	H4	H	0.708770	0.405170	0.839210
	H5	H	0.706795	0.600608	0.167775
	H6	H	0.281006	0.602514	0.839110
	H7	H	0.280405	0.406027	0.168101
	H8	H	0.832681	0.718918	0.404537
	H9	H	0.159245	0.718075	0.602714
	H10	H	0.831841	0.287051	0.603270
	H11	H	0.160159	0.290129	0.404451
	H12	H	0.830764	0.404604	0.717617
	H13	H	0.159061	0.600795	0.718056
	H14	H	0.830594	0.602417	0.290846
	H15	H	0.158743	0.404851	0.287150
	H16	H	0.394564	0.720787	0.840540
	H17	H	0.594430	0.717948	0.167015
	H18	H	0.594388	0.287693	0.840186
	H19	H	0.395019	0.288119	0.168004
	H20	H	0.711796	0.840454	0.404634
	H21	H	0.712240	0.165496	0.603301
	H22	H	0.281032	0.839988	0.602682
	H23	H	0.281244	0.166944	0.405630
	H24	H	0.894383	0.341101	0.219512
	H25	H	0.092447	0.666870	0.217682
	H26	H	0.093690	0.339694	0.789603
	H27	H	0.895844	0.666484	0.788191
	H28	H	0.211334	0.905938	0.339631
	H29	H	0.208153	0.099851	0.668739
	H30	H	0.781717	0.102157	0.340002
	H31	H	0.781850	0.904317	0.666647
	H32	H	0.331260	0.217698	0.904469
	H33	H	0.658243	0.218931	0.104183
	H34	H	0.331990	0.788757	0.104292
	H35	H	0.659565	0.788459	0.906021
	H36	H	0.332526	0.905253	0.219422
	H37	H	0.659823	0.101214	0.217055
	H38	H	0.332356	0.100676	0.789757
	H39	H	0.660715	0.904774	0.791137
	H40	H	0.897432	0.218610	0.339781
	H41	H	0.096838	0.219876	0.666685
	H42	H	0.096978	0.787614	0.339042
	H43	H	0.898004	0.788417	0.667368
	H44	H	0.210975	0.340923	0.904182
	H45	H	0.209446	0.666722	0.102542
	H46	H	0.779485	0.340577	0.102314
	H47	H	0.779682	0.667373	0.904512
	H48	H	0.403221	0.117906	0.595057
	H49	H	0.596316	0.884187	0.597224
	H50	H	0.591391	0.115246	0.426404
	H51	H	0.405031	0.888998	0.413989
	H52	H	0.586852	0.411178	0.120402
	H53	H	0.587329	0.598198	0.885354
	H54	H	0.408393	0.605039	0.120207
	H55	H	0.411787	0.409405	0.889582
	H56	H	0.110528	0.596209	0.417259
	H57	H	0.877654	0.605825	0.591282
	H58	H	0.110079	0.421220	0.599498
	H59	H	0.876064	0.404546	0.407668
	H60	H	0.116090	0.402694	0.601872
	H61	H	0.882902	0.588428	0.589870
	H62	H	0.111336	0.589091	0.407387
	H63	H	0.881365	0.409083	0.419414
	H64	H	0.392113	0.598424	0.123173
	H65	H	0.588271	0.594812	0.887311
	H66	H	0.586811	0.408356	0.121136
	H67	H	0.398928	0.403277	0.884221
	H68	H	0.602225	0.125552	0.402625
	H69	H	0.586937	0.885442	0.603566
	H70	H	0.400838	0.119500	0.598147
	H71	H	0.401712	0.887304	0.411930
	H72	H	0.893920	0.621992	0.097023
	H73	H	0.086457	0.387279	0.097452
	H74	H	0.087308	0.619108	0.909304
	H75	H	0.901613	0.386634	0.904773
	H76	H	0.079479	0.898422	0.620742
	H77	H	0.089396	0.092387	0.388050
	H78	H	0.904620	0.094026	0.619133
	H79	H	0.901972	0.911810	0.386171
	H80	H	0.612597	0.096483	0.910867
	H81	H	0.376790	0.098301	0.100808
	H82	H	0.613592	0.910658	0.099050
	H83	H	0.377138	0.905858	0.909912
	H84	H	0.612998	0.907079	0.095788
	H85	H	0.378543	0.097628	0.093550
	H86	H	0.611748	0.097256	0.912223
	H87	H	0.381121	0.911305	0.917093
	H88	H	0.905968	0.096232	0.619659
	H89	H	0.086448	0.100022	0.386837
	H90	H	0.101795	0.907535	0.624362
	H91	H	0.906930	0.910841	0.387472
	H92	H	0.087969	0.618839	0.910771
	H93	H	0.085765	0.388775	0.094141
	H94	H	0.902927	0.621079	0.103221
	H95	H	0.906377	0.390237	0.914148
	H96	H	0.404813	0.118482	0.599190
	H97	H	0.586927	0.888992	0.592711
	H98	H	0.575858	0.117214	0.404100
	H99	H	0.405472	0.887910	0.410398
	H100	H	0.589588	0.409673	0.120498
	H101	H	0.584904	0.596124	0.886764
	H102	H	0.404877	0.587425	0.115801
	H103	H	0.399743	0.417750	0.888986
	H104	H	0.114547	0.600940	0.406580
	H105	H	0.875897	0.594760	0.606060
	H106	H	0.108665	0.408897	0.585040
	H107	H	0.879862	0.417093	0.408334
	H108	H	0.902976	0.618496	0.093023
	H109	H	0.088718	0.387714	0.095232
	H110	H	0.089309	0.619792	0.909586
	H111	H	0.895494	0.387129	0.914029
	H112	H	0.083956	0.921343	0.614836
	H113	H	0.093741	0.098771	0.385413
	H114	H	0.903844	0.096484	0.620491
	H115	H	0.903944	0.906815	0.385483
	H116	H	0.612301	0.096068	0.912229
	H117	H	0.379747	0.091762	0.098538
	H118	H	0.610953	0.911822	0.094313
	H119	H	0.379896	0.915142	0.908592
	C120	C	0.374549	0.011001	0.626034
	C121	C	0.618664	0.994377	0.626083
	C122	C	0.618296	0.011672	0.382327
	C123	C	0.374797	0.995619	0.382657
	C124	C	0.616609	0.381131	0.012148
	C125	C	0.615353	0.624383	0.995157
	C126	C	0.373302	0.625600	0.011615
	C127	C	0.374015	0.381713	0.995671
	C128	C	0.003935	0.624564	0.381897
	C129	C	0.987152	0.624812	0.624851
	C130	C	0.003637	0.381526	0.624986
	C131	C	0.987013	0.381937	0.382107
	C132	C	0.871963	0.512361	0.125755
	C133	C	0.115964	0.495376	0.124925
	C134	C	0.116957	0.511559	0.881296
	C135	C	0.872565	0.495708	0.881997
	C136	C	0.118159	0.880834	0.511869
	C137	C	0.118417	0.125390	0.495202
	C138	C	0.875647	0.124486	0.511635
	C139	C	0.875362	0.881500	0.494494
	C140	C	0.504037	0.125000	0.882578
	C141	C	0.486614	0.124635	0.125805
	C142	C	0.504485	0.881513	0.125918
	C143	C	0.487456	0.881801	0.883046
	C144	C	0.377490	0.888251	0.680874
	C145	C	0.615942	0.116984	0.681056
	C146	C	0.615991	0.889158	0.326923
	C147	C	0.377207	0.118325	0.327486
	C148	C	0.671351	0.384195	0.888564
	C149	C	0.669810	0.621399	0.118687
	C150	C	0.318686	0.622837	0.888115
	C151	C	0.317992	0.384638	0.119094
	C152	C	0.881183	0.680609	0.384153
	C153	C	0.110323	0.680135	0.623201
	C154	C	0.880740	0.325351	0.623354
	C155	C	0.110922	0.327517	0.383957
	C156	C	0.880066	0.383423	0.680330
	C157	C	0.110197	0.621585	0.680111
	C158	C	0.880172	0.622131	0.328144
	C159	C	0.110109	0.384324	0.325701
	C160	C	0.374943	0.681908	0.888881
	C161	C	0.613632	0.679621	0.118318
	C162	C	0.614199	0.326052	0.889020
	C163	C	0.375060	0.326363	0.119080
	C164	C	0.673523	0.888922	0.384578
	C165	C	0.673867	0.116848	0.623469
	C166	C	0.319387	0.888534	0.623100
	C167	C	0.319273	0.118271	0.385118
	C168	C	0.874499	0.389594	0.181011
	C169	C	0.113374	0.618100	0.180087
	C170	C	0.114487	0.388833	0.826560
	C171	C	0.875163	0.618190	0.826295
	C172	C	0.173794	0.884170	0.388557
	C173	C	0.171864	0.121509	0.619280
	C174	C	0.819612	0.122675	0.388770
	C175	C	0.820067	0.883917	0.618117
	C176	C	0.380511	0.179727	0.884423
	C177	C	0.609684	0.180341	0.124038
	C178	C	0.380936	0.826867	0.124135
	C179	C	0.610631	0.825964	0.884974
	C180	C	0.381243	0.884418	0.181543
	C181	C	0.610479	0.121963	0.179949
	C182	C	0.381007	0.121707	0.827230
	C183	C	0.611262	0.884084	0.828354
	C184	C	0.877169	0.180408	0.388626
	C185	C	0.116552	0.180933	0.618224
	C186	C	0.116888	0.825722	0.388296
	C187	C	0.877627	0.826430	0.618202
	C188	C	0.172581	0.389243	0.883888
	C189	C	0.171118	0.618141	0.122324
	C190	C	0.817332	0.389351	0.122775
	C191	C	0.817572	0.618608	0.884231
	C192	C	0.396613	0.096613	0.604065
	C193	C	0.596825	0.908464	0.604198
	C194	C	0.596329	0.097308	0.404528
	C195	C	0.397358	0.910279	0.405466
	C196	C	0.594323	0.403247	0.098363
	C197	C	0.593206	0.602668	0.908849
	C198	C	0.395183	0.603439	0.097595
	C199	C	0.396714	0.403702	0.909960
	C200	C	0.090008	0.601911	0.403828
	C201	C	0.900980	0.602697	0.602275
	C202	C	0.089469	0.404351	0.602329
	C203	C	0.901204	0.403655	0.405002
	C204	C	0.893478	0.598227	0.103903
	C205	C	0.093468	0.409950	0.102424
	C206	C	0.094748	0.597138	0.903476
	C207	C	0.894755	0.410250	0.904435
	C208	C	0.095175	0.902604	0.597751
	C209	C	0.096355	0.103481	0.408955
	C210	C	0.898360	0.102000	0.597461
	C211	C	0.897575	0.903378	0.408674
	C212	C	0.590045	0.103113	0.905349
	C213	C	0.400660	0.102496	0.103888
	C214	C	0.590254	0.903439	0.103073
	C215	C	0.401632	0.904158	0.905393
	Zn216	Zn	0.496531	0.002864	0.754582
	Zn217	Zn	0.496384	0.003559	0.253761
	Zn218	Zn	0.743717	0.504424	0.003630
	Zn219	Zn	0.245442	0.503504	0.003810
	Zn220	Zn	-0.003707	0.752722	0.502550
	Zn221	Zn	-0.003352	0.253418	0.503453
	Zn222	Zn	-0.005483	0.502931	0.753176
	Zn223	Zn	-0.005318	0.503832	0.253755
	Zn224	Zn	0.495524	0.753291	0.003814
	Zn225	Zn	0.494806	0.252654	0.004530
	Zn226	Zn	0.747032	0.002892	0.503836
	Zn227	Zn	0.245468	0.004056	0.504134
	N228	N	0.411128	0.965466	0.682729
	N229	N	0.582499	0.039790	0.682766
	N230	N	0.582056	0.966313	0.325639
	N231	N	0.410945	0.041006	0.325848
	N232	N	0.673083	0.417854	0.966206
	N233	N	0.670785	0.587553	0.041119
	N234	N	0.317356	0.588779	0.965575
	N235	N	0.317149	0.418485	0.041401
	N236	N	0.959016	0.682017	0.417156
	N237	N	0.032740	0.682009	0.589521
	N238	N	0.958573	0.324079	0.589793
	N239	N	0.033429	0.325749	0.418236
	N240	N	0.957495	0.417666	0.681478
	N241	N	0.032452	0.588059	0.681308
	N242	N	0.957688	0.588116	0.326649
	N243	N	0.032291	0.417471	0.324447
	N244	N	0.408080	0.683804	0.966740
	N245	N	0.580563	0.681475	0.040430
	N246	N	0.580966	0.324063	0.966954
	N247	N	0.409125	0.324454	0.041615
	N248	N	0.675151	0.966173	0.418304
	N249	N	0.675520	0.039508	0.589965
	N250	N	0.317344	0.966007	0.589943
	N251	N	0.317626	0.040958	0.418669
	N252	N	0.907850	0.466894	0.182815
	N253	N	0.079707	0.540905	0.181523
	N254	N	0.080511	0.466039	0.824944
	N255	N	0.908785	0.540883	0.824817
	N256	N	0.174735	0.917838	0.466261
	N257	N	0.173275	0.087796	0.541632
	N258	N	0.818635	0.088560	0.466209
	N259	N	0.818603	0.917559	0.540551
	N260	N	0.458177	0.181868	0.917888
	N261	N	0.531741	0.182336	0.091116
	N262	N	0.458626	0.824639	0.090256
	N263	N	0.532770	0.824502	0.918246
	N264	N	0.458835	0.917687	0.182789
	N265	N	0.532937	0.087824	0.181236
	N266	N	0.458861	0.088363	0.825890
	N267	N	0.533777	0.918141	0.826985
	N268	N	0.911116	0.181859	0.466096
	N269	N	0.084144	0.183494	0.540152
	N270	N	0.083003	0.823569	0.465951
	N271	N	0.911268	0.824634	0.540330
	N272	N	0.174120	0.466484	0.917291
	N273	N	0.172853	0.540833	0.088668
	N274	N	0.815451	0.466746	0.089224
	N275	N	0.816068	0.541441	0.918205
	O276	O	0.479966	0.446918	0.540917
	H277	H	0.479319	0.449087	0.539230
	H278	H	0.474578	0.442353	0.543781
	O279	O	0.487939	0.540129	0.505183
	H280	H	0.484423	0.548125	0.494743
	H281	H	0.486828	0.533144	0.500392
	O282	O	0.501330	0.518600	0.456555
	H283	H	0.494568	0.508195	0.464326
	H284	H	0.503799	0.523630	0.466923
	O285	O	0.473436	0.520873	1.476526
	H286	H	0.467735	0.519610	1.478119
	H287	H	0.480170	0.518257	1.470892
	O288	O	-0.002373	0.050537	0.962275
	H289	H	0.004712	0.047235	0.953889
	H290	H	-0.006419	0.046862	0.969497
	O291	O	-0.478867	0.494351	0.432170
	H292	H	-0.475873	0.491271	0.430783
	H293	H	-0.480116	0.497464	0.438567
	O294	O	0.484324	0.502172	0.480150
	H295	H	0.474876	0.495487	0.478960
	H296	H	0.477261	0.502650	0.473514
	O297	O	0.356153	0.577747	0.438157
	H298	H	0.357655	0.578908	0.434002
	H299	H	0.351611	0.579751	0.446082
	O300	O	0.460261	0.509121	0.532878
	H301	H	0.474232	0.508308	0.540866
	H302	H	0.455790	0.519018	0.537558
	O303	O	0.408908	0.538896	0.530399
	H304	H	0.397908	0.533670	0.529687
	H305	H	0.411138	0.538164	0.544788
	O306	O	1.000637	0.056830	0.933550
	H307	H	1.004155	0.063673	0.939514
	H308	H	0.998285	0.056234	0.928616
	O309	O	0.485335	0.514636	0.519399
	H310	H	0.477706	0.514527	0.513218
	H311	H	0.481838	0.518307	0.511671
	O312	O	0.482512	0.467137	0.555021
	H313	H	0.487102	0.453410	0.556523
	H314	H	0.479169	0.459312	0.544543
	O315	O	1.023846	0.026439	0.924185
	H316	H	1.027094	0.032500	0.926273
	H317	H	1.026229	0.031972	0.931289
	O318	O	0.518877	-0.515914	-0.454844
	H319	H	0.516426	-0.513066	-0.458362
	H320	H	0.522580	-0.511983	-0.449212
	O321	O	1.010165	1.019748	-0.042022
	H322	H	1.012606	1.022791	-0.036533
	H323	H	0.999015	1.020841	-0.045775
	O324	O	1.017421	0.031848	-0.017859
	H325	H	1.008996	0.034991	-0.030119
	H326	H	1.020912	0.033993	-0.024739
	O327	O	1.005557	1.067287	-0.044886
	H328	H	1.005262	1.061464	-0.053150
	H329	H	1.006014	1.055694	-0.045027
	O330	O	0.508684	0.486930	0.482515
	H331	H	0.506656	0.486725	0.471920
	H332	H	0.525402	0.496852	0.481158
	O333	O	0.506349	0.518575	0.472418
	H334	H	0.505999	0.526169	0.475647
	H335	H	0.508411	0.512586	0.474210
