data_Molecule from HDF5

_cell_length_a		16.301326
_cell_length_b		16.280968
_cell_length_c		16.355919
_cell_angle_alpha	89.968081
_cell_angle_beta	90.080046
_cell_angle_gamma	89.925910
_symmetry_space_group_name_H-M	'P 1'
_symmetry_Int_Tables_number		1

loop_
	_symmetry_equiv_pos_as_xyz
	x,y,z

loop_
	_atom_site_label
	_atom_site_type_symbol
	_atom_site_fract_x
	_atom_site_fract_y
	_atom_site_fract_z
	H0	H	0.401237	0.836264	0.714735
	H1	H	0.598177	0.162818	0.714422
	H2	H	0.597676	0.836484	0.286523
	H3	H	0.400693	0.163687	0.285050
	H4	H	0.714899	0.401134	0.836699
	H5	H	0.714218	0.597319	0.163721
	H6	H	0.284763	0.598533	0.837377
	H7	H	0.286726	0.402582	0.163664
	H8	H	0.835683	0.712798	0.403203
	H9	H	0.163632	0.714113	0.597896
	H10	H	0.836596	0.286245	0.597461
	H11	H	0.163440	0.285764	0.402862
	H12	H	0.836298	0.402047	0.714251
	H13	H	0.163101	0.599344	0.715845
	H14	H	0.836987	0.598640	0.284532
	H15	H	0.163134	0.401279	0.285163
	H16	H	0.403509	0.712572	0.836253
	H17	H	0.598177	0.714818	0.162823
	H18	H	0.596857	0.286378	0.836637
	H19	H	0.403204	0.285057	0.163215
	H20	H	0.713277	0.835944	0.402692
	H21	H	0.713201	0.163769	0.597688
	H22	H	0.286618	0.835734	0.596751
	H23	H	0.286196	0.164074	0.402690
	H24	H	0.902702	0.336994	0.214589
	H25	H	0.098202	0.663638	0.214086
	H26	H	0.097081	0.336553	0.786269
	H27	H	0.902381	0.663832	0.785653
	H28	H	0.215035	0.901784	0.336780
	H29	H	0.215777	0.098548	0.662700
	H30	H	0.785276	0.097035	0.336897
	H31	H	0.784339	0.900180	0.662647
	H32	H	0.336441	0.213285	0.902808
	H33	H	0.664280	0.212913	0.097226
	H34	H	0.336243	0.786521	0.097030
	H35	H	0.663623	0.785778	0.902547
	H36	H	0.336368	0.902235	0.213854
	H37	H	0.663288	0.098436	0.215485
	H38	H	0.336670	0.098673	0.785248
	H39	H	0.663244	0.901472	0.785628
	H40	H	0.901161	0.215013	0.336955
	H41	H	0.097804	0.214265	0.663544
	H42	H	0.098650	0.785277	0.337178
	H43	H	0.902305	0.785897	0.663693
	H44	H	0.214093	0.336350	0.902101
	H45	H	0.213238	0.663822	0.097388
	H46	H	0.787058	0.336346	0.097570
	H47	H	0.786107	0.664179	0.902095
	H48	H	0.415757	0.113245	0.591478
	H49	H	0.588281	0.886157	0.589028
	H50	H	0.583669	0.115536	0.401701
	H51	H	0.401516	0.883051	0.409796
	H52	H	0.588049	0.410828	0.112747
	H53	H	0.599042	0.589853	0.883586
	H54	H	0.407118	0.590150	0.115368
	H55	H	0.406376	0.405510	0.883613
	H56	H	0.116949	0.598626	0.409467
	H57	H	0.880567	0.603113	0.593827
	H58	H	0.115039	0.412486	0.593963
	H59	H	0.884154	0.405574	0.409285
	H60	H	0.118568	0.404489	0.599379
	H61	H	0.887279	0.589256	0.585410
	H62	H	0.113796	0.588283	0.409877
	H63	H	0.883746	0.411091	0.405773
	H64	H	0.408517	0.597437	0.116206
	H65	H	0.588303	0.590462	0.886620
	H66	H	0.592693	0.397293	0.118008
	H67	H	0.405235	0.408931	0.884503
	H68	H	0.593556	0.113579	0.415754
	H69	H	0.599542	0.881964	0.591123
	H70	H	0.400944	0.116082	0.586361
	H71	H	0.407502	0.881894	0.399130
	H72	H	0.905955	0.615894	0.088823
	H73	H	0.093434	0.385252	0.085738
	H74	H	0.097586	0.617057	0.909578
	H75	H	0.909875	0.385699	0.910324
	H76	H	0.089883	0.907813	0.614019
	H77	H	0.089414	0.090593	0.386292
	H78	H	0.910119	0.108111	0.618887
	H79	H	0.916117	0.907211	0.387720
	H80	H	0.611194	0.081143	0.912294
	H81	H	0.381498	0.094390	0.099723
	H82	H	0.619655	0.901933	0.100157
	H83	H	0.381377	0.899229	0.906584
	H84	H	0.615407	0.902780	0.086956
	H85	H	0.383343	0.098326	0.087492
	H86	H	0.620333	0.091550	0.892151
	H87	H	0.386618	0.910259	0.912291
	H88	H	0.892060	0.088337	0.618863
	H89	H	0.092106	0.097810	0.382996
	H90	H	0.093865	0.902570	0.617508
	H91	H	0.902354	0.897739	0.381316
	H92	H	0.092534	0.617717	0.902160
	H93	H	0.100499	0.380472	0.097856
	H94	H	0.903799	0.618563	0.095471
	H95	H	0.902295	0.382529	0.907845
	H96	H	0.404629	0.119869	0.601406
	H97	H	0.590785	0.881454	0.600092
	H98	H	0.600554	0.120192	0.401838
	H99	H	0.412739	0.886043	0.409192
	H100	H	0.602473	0.409165	0.117610
	H101	H	0.593416	0.599337	0.881914
	H102	H	0.401507	0.594989	0.117840
	H103	H	0.408488	0.407649	0.885581
	H104	H	0.118030	0.592473	0.400524
	H105	H	0.883210	0.588041	0.601788
	H106	H	0.116053	0.403704	0.589627
	H107	H	0.882325	0.405711	0.402753
	H108	H	0.910660	0.615950	0.095177
	H109	H	0.086243	0.384016	0.098160
	H110	H	0.088746	0.615139	0.909911
	H111	H	0.909342	0.383488	0.903055
	H112	H	0.096793	0.909482	0.616156
	H113	H	0.097464	0.091361	0.384110
	H114	H	0.916761	0.084075	0.609896
	H115	H	0.900193	0.914601	0.384272
	H116	H	0.618344	0.104209	0.913254
	H117	H	0.386453	0.086124	0.091565
	H118	H	0.614865	0.913786	0.095256
	H119	H	0.382452	0.910066	0.899358
	C120	C	0.378937	0.007939	0.620926
	C121	C	0.621195	0.991423	0.621392
	C122	C	0.621202	0.008292	0.378442
	C123	C	0.378381	0.991950	0.377959
	C124	C	0.622328	0.378112	0.008061
	C125	C	0.621700	0.621283	0.991980
	C126	C	0.377814	0.621922	0.008316
	C127	C	0.378713	0.378630	0.991833
	C128	C	0.008265	0.621936	0.378221
	C129	C	0.991837	0.621747	0.621828
	C130	C	0.008274	0.378677	0.621897
	C131	C	0.991687	0.378967	0.378651
	C132	C	0.878716	0.508453	0.121333
	C133	C	0.121461	0.491467	0.121748
	C134	C	0.121584	0.508522	0.878584
	C135	C	0.878790	0.492020	0.878659
	C136	C	0.121915	0.878364	0.508024
	C137	C	0.121328	0.121530	0.492129
	C138	C	0.877614	0.122020	0.508286
	C139	C	0.878156	0.878455	0.492356
	C140	C	0.508547	0.121178	0.878161
	C141	C	0.492211	0.121117	0.121376
	C142	C	0.508233	0.878323	0.121748
	C143	C	0.491593	0.878326	0.878089
	C144	C	0.380953	0.884901	0.676318
	C145	C	0.618794	0.114376	0.676478
	C146	C	0.618372	0.885162	0.324077
	C147	C	0.380447	0.114923	0.322977
	C148	C	0.676846	0.381017	0.885331
	C149	C	0.676481	0.618411	0.114777
	C150	C	0.323277	0.618445	0.885658
	C151	C	0.324062	0.381519	0.114924
	C152	C	0.884821	0.676195	0.381655
	C153	C	0.114961	0.675964	0.618271
	C154	C	0.885285	0.323969	0.618609
	C155	C	0.114777	0.323567	0.381606
	C156	C	0.885239	0.381230	0.676796
	C157	C	0.114673	0.619225	0.676967
	C158	C	0.885333	0.619190	0.322927
	C159	C	0.114634	0.381277	0.323685
	C160	C	0.381921	0.675358	0.885073
	C161	C	0.618814	0.676456	0.114672
	C162	C	0.618558	0.323669	0.885250
	C163	C	0.381851	0.323325	0.114626
	C164	C	0.675826	0.885096	0.381623
	C165	C	0.675562	0.114665	0.618172
	C166	C	0.324054	0.884696	0.617797
	C167	C	0.323392	0.115197	0.381190
	C168	C	0.881961	0.385601	0.176338
	C169	C	0.118846	0.614762	0.176389
	C170	C	0.118577	0.385336	0.823600
	C171	C	0.881432	0.615032	0.823464
	C172	C	0.176969	0.881135	0.385534
	C173	C	0.176857	0.118665	0.614727
	C174	C	0.822620	0.118687	0.385695
	C175	C	0.822795	0.880628	0.614425
	C176	C	0.385349	0.175886	0.881483
	C177	C	0.615254	0.175680	0.118370
	C178	C	0.384908	0.824357	0.117818
	C179	C	0.614784	0.823408	0.881299
	C180	C	0.385149	0.881602	0.176032
	C181	C	0.614967	0.118776	0.176878
	C182	C	0.385443	0.118839	0.823231
	C183	C	0.614606	0.880997	0.823513
	C184	C	0.880807	0.176651	0.385520
	C185	C	0.118737	0.176398	0.614974
	C186	C	0.119187	0.823239	0.385634
	C187	C	0.881443	0.823659	0.614962
	C188	C	0.176085	0.385078	0.881532
	C189	C	0.175805	0.614987	0.118286
	C190	C	0.824532	0.385316	0.118305
	C191	C	0.823844	0.615229	0.881299
	C192	C	0.400643	0.094064	0.599229
	C193	C	0.599280	0.905581	0.599829
	C194	C	0.599150	0.094342	0.400087
	C195	C	0.400684	0.906007	0.399654
	C196	C	0.600755	0.399466	0.093901
	C197	C	0.599827	0.599623	0.906208
	C198	C	0.399368	0.600621	0.094347
	C199	C	0.400266	0.400835	0.906605
	C200	C	0.094091	0.599676	0.400100
	C201	C	0.905919	0.599885	0.600110
	C202	C	0.094316	0.400436	0.600598
	C203	C	0.905675	0.400975	0.399803
	C204	C	0.900532	0.594762	0.099646
	C205	C	0.099861	0.405566	0.100117
	C206	C	0.099339	0.594209	0.900650
	C207	C	0.900776	0.405916	0.900672
	C208	C	0.100068	0.900337	0.593712
	C209	C	0.099377	0.099616	0.406605
	C210	C	0.899785	0.100078	0.593678
	C211	C	0.899925	0.900246	0.406473
	C212	C	0.594579	0.098963	0.899613
	C213	C	0.406088	0.099254	0.099456
	C214	C	0.594403	0.899809	0.100447
	C215	C	0.405596	0.900015	0.899767
	Zn216	Zn	0.499778	-0.000204	0.749823
	Zn217	Zn	0.500164	0.000129	0.249916
	Zn218	Zn	0.750615	0.499974	-0.000040
	Zn219	Zn	0.249351	0.499998	0.000241
	Zn220	Zn	-0.000319	0.750199	0.500161
	Zn221	Zn	0.000083	0.250614	0.500370
	Zn222	Zn	0.000292	0.500156	0.750456
	Zn223	Zn	0.000171	0.500231	0.249704
	Zn224	Zn	0.499805	0.750079	-0.000302
	Zn225	Zn	0.500526	0.249291	-0.000226
	Zn226	Zn	0.749005	-0.000292	0.499999
	Zn227	Zn	0.250407	0.000016	0.499814
	N228	N	0.414600	0.962432	0.678120
	N229	N	0.585235	0.036790	0.678306
	N230	N	0.584893	0.962758	0.322130
	N231	N	0.413864	0.037229	0.320858
	N232	N	0.679080	0.414353	0.962725
	N233	N	0.678371	0.584914	0.037521
	N234	N	0.320659	0.586148	0.963258
	N235	N	0.321953	0.415267	0.037699
	N236	N	0.962171	0.677942	0.415293
	N237	N	0.037545	0.677565	0.584602
	N238	N	0.962846	0.322459	0.585227
	N239	N	0.037291	0.322065	0.414947
	N240	N	0.962682	0.414648	0.678837
	N241	N	0.037147	0.586092	0.679177
	N242	N	0.963099	0.586224	0.320640
	N243	N	0.037217	0.415003	0.321741
	N244	N	0.415234	0.677475	0.962362
	N245	N	0.585353	0.678327	0.037255
	N246	N	0.585395	0.321787	0.962447
	N247	N	0.414922	0.321270	0.037299
	N248	N	0.677572	0.962586	0.414785
	N249	N	0.677182	0.037180	0.584770
	N250	N	0.322698	0.962183	0.584188
	N251	N	0.322011	0.037679	0.414810
	N252	N	0.914825	0.463342	0.178340
	N253	N	0.085557	0.537112	0.178616
	N254	N	0.085450	0.463110	0.821720
	N255	N	0.915056	0.537492	0.821895
	N256	N	0.178744	0.914689	0.462713
	N257	N	0.178807	0.085454	0.537386
	N258	N	0.820641	0.085335	0.462946
	N259	N	0.820904	0.914033	0.537108
	N260	N	0.462836	0.177382	0.914838
	N261	N	0.537828	0.177158	0.084720
	N262	N	0.462513	0.822182	0.084648
	N263	N	0.537359	0.821837	0.914740
	N264	N	0.462911	0.914349	0.178409
	N265	N	0.537325	0.085613	0.178771
	N266	N	0.463075	0.085667	0.821009
	N267	N	0.537015	0.914448	0.821553
	N268	N	0.914307	0.178693	0.462765
	N269	N	0.084833	0.178078	0.537894
	N270	N	0.085615	0.821494	0.462758
	N271	N	0.915220	0.822277	0.537926
	N272	N	0.177804	0.462454	0.915113
	N273	N	0.177656	0.537384	0.085242
	N274	N	0.822603	0.462879	0.084921
	N275	N	0.822101	0.537693	0.914753
