data_Molecule from HDF5

_cell_length_a		16.389957
_cell_length_b		16.318878
_cell_length_c		16.407818
_cell_angle_alpha	90.258382
_cell_angle_beta	89.977811
_cell_angle_gamma	90.084721
_symmetry_space_group_name_H-M	'P 1'
_symmetry_Int_Tables_number		1

loop_
	_symmetry_equiv_pos_as_xyz
	x,y,z

loop_
	_atom_site_label
	_atom_site_type_symbol
	_atom_site_fract_x
	_atom_site_fract_y
	_atom_site_fract_z
	H0	H	0.396821	0.837462	0.713095
	H1	H	0.603383	0.158558	0.716393
	H2	H	0.604487	0.839956	0.273848
	H3	H	0.395211	0.159701	0.277737
	H4	H	0.720285	0.392891	0.837677
	H5	H	0.719928	0.606287	0.156115
	H6	H	0.280533	0.598189	0.834582
	H7	H	0.279125	0.397468	0.156090
	H8	H	0.838674	0.718527	0.392595
	H9	H	0.159796	0.717196	0.598213
	H10	H	0.838551	0.278818	0.599303
	H11	H	0.159153	0.280164	0.395184
	H12	H	0.838773	0.393729	0.717313
	H13	H	0.159354	0.602302	0.715092
	H14	H	0.839391	0.603906	0.275439
	H15	H	0.159069	0.396550	0.277536
	H16	H	0.397291	0.713910	0.834203
	H17	H	0.600650	0.719491	0.156434
	H18	H	0.601287	0.279285	0.835893
	H19	H	0.396428	0.282333	0.157297
	H20	H	0.717973	0.838452	0.390544
	H21	H	0.718527	0.158550	0.600330
	H22	H	0.280833	0.838029	0.598564
	H23	H	0.280370	0.159859	0.394974
	H24	H	0.892497	0.339105	0.216606
	H25	H	0.103291	0.659783	0.216227
	H26	H	0.102569	0.338693	0.775868
	H27	H	0.896345	0.659618	0.779441
	H28	H	0.220605	0.893277	0.337299
	H29	H	0.219175	0.104409	0.655991
	H30	H	0.775570	0.106898	0.338433
	H31	H	0.778704	0.895303	0.654034
	H32	H	0.337674	0.216934	0.893680
	H33	H	0.657540	0.223096	0.102397
	H34	H	0.336382	0.782284	0.096333
	H35	H	0.658049	0.778778	0.892156
	H36	H	0.338783	0.894471	0.217037
	H37	H	0.657413	0.108773	0.220167
	H38	H	0.338585	0.102760	0.776507
	H39	H	0.658830	0.896215	0.777661
	H40	H	0.895258	0.218119	0.336491
	H41	H	0.102961	0.219512	0.656242
	H42	H	0.103654	0.778313	0.336087
	H43	H	0.897529	0.781852	0.655582
	H44	H	0.215647	0.337673	0.892763
	H45	H	0.215728	0.660612	0.097465
	H46	H	0.776757	0.339450	0.102469
	H47	H	0.778953	0.657978	0.893421
	H48	H	0.415793	0.110906	0.587025
	H49	H	0.590900	0.884422	0.581806
	H50	H	0.585685	0.113095	0.405285
	H51	H	0.403358	0.883449	0.406794
	H52	H	0.586510	0.404366	0.111422
	H53	H	0.587833	0.587207	0.883498
	H54	H	0.409914	0.584843	0.107407
	H55	H	0.404877	0.398004	0.878164
	H56	H	0.114687	0.587984	0.400250
	H57	H	0.881396	0.597429	0.589626
	H58	H	0.113600	0.407127	0.586709
	H59	H	0.886191	0.409573	0.408949
	H60	H	0.110410	0.410644	0.583097
	H61	H	0.887877	0.588053	0.579836
	H62	H	0.112425	0.592698	0.410162
	H63	H	0.884231	0.411446	0.403885
	H64	H	0.408999	0.597472	0.111493
	H65	H	0.588976	0.587342	0.883004
	H66	H	0.592717	0.414329	0.109662
	H67	H	0.399764	0.413213	0.881531
	H68	H	0.584572	0.110916	0.411664
	H69	H	0.591699	0.881857	0.589449
	H70	H	0.403733	0.113881	0.582277
	H71	H	0.413117	0.883989	0.400774
	H72	H	0.907540	0.611432	0.076604
	H73	H	0.089160	0.384881	0.083975
	H74	H	0.092023	0.615890	0.900178
	H75	H	0.908490	0.382013	0.900086
	H76	H	0.086715	0.912748	0.608137
	H77	H	0.085119	0.084394	0.385592
	H78	H	0.906247	0.094854	0.612269
	H79	H	0.906710	0.902476	0.378777
	H80	H	0.611445	0.086195	0.905262
	H81	H	0.384763	0.087818	0.090398
	H82	H	0.611702	0.908330	0.085559
	H83	H	0.382645	0.906653	0.903602
	H84	H	0.611194	0.910639	0.083507
	H85	H	0.385400	0.091555	0.085070
	H86	H	0.612480	0.089332	0.905560
	H87	H	0.383723	0.906871	0.904207
	H88	H	0.904263	0.082669	0.609477
	H89	H	0.088078	0.093588	0.380947
	H90	H	0.087806	0.904994	0.610790
	H91	H	0.904678	0.913966	0.381313
	H92	H	0.085396	0.613530	0.905121
	H93	H	0.090880	0.382607	0.088143
	H94	H	0.904756	0.616079	0.092436
	H95	H	0.917187	0.387191	0.908485
	H96	H	0.407032	0.116681	0.594232
	H97	H	0.584080	0.885296	0.586513
	H98	H	0.590699	0.113759	0.409382
	H99	H	0.412813	0.887878	0.411262
	H100	H	0.580201	0.414492	0.106011
	H101	H	0.588979	0.585664	0.883711
	H102	H	0.399018	0.589970	0.112279
	H103	H	0.414884	0.408943	0.884977
	H104	H	0.109522	0.582519	0.408171
	H105	H	0.884145	0.583509	0.593815
	H106	H	0.112017	0.412458	0.588446
	H107	H	0.883484	0.405463	0.405713
	H108	H	0.919854	0.609497	0.087785
	H109	H	0.085858	0.384515	0.088224
	H110	H	0.093515	0.614634	0.908561
	H111	H	0.905235	0.384672	0.912280
	H112	H	0.094256	0.909769	0.610719
	H113	H	0.095175	0.085932	0.381933
	H114	H	0.915851	0.088127	0.607388
	H115	H	0.915143	0.909292	0.383100
	H116	H	0.611572	0.087356	0.908581
	H117	H	0.386947	0.085791	0.084655
	H118	H	0.612508	0.911516	0.086440
	H119	H	0.384213	0.908036	0.903294
	C120	C	0.377876	0.007581	0.618047
	C121	C	0.620727	0.989692	0.617744
	C122	C	0.619698	0.007566	0.374985
	C123	C	0.378088	0.991078	0.375457
	C124	C	0.619306	0.378020	0.004225
	C125	C	0.620013	0.620026	0.988793
	C126	C	0.376260	0.620026	0.004120
	C127	C	0.375965	0.377000	0.987661
	C128	C	0.006943	0.620165	0.374462
	C129	C	0.990586	0.620715	0.618259
	C130	C	0.006744	0.377845	0.617784
	C131	C	0.989996	0.376884	0.374313
	C132	C	0.877829	0.507078	0.117488
	C133	C	0.119724	0.490726	0.117694
	C134	C	0.120318	0.507684	0.874013
	C135	C	0.878044	0.490273	0.875592
	C136	C	0.121801	0.876555	0.504800
	C137	C	0.120825	0.120269	0.488319
	C138	C	0.876980	0.120501	0.504554
	C139	C	0.877718	0.877641	0.486514
	C140	C	0.506569	0.119655	0.874882
	C141	C	0.490692	0.121720	0.118878
	C142	C	0.506158	0.878602	0.116754
	C143	C	0.489282	0.876120	0.873297
	C144	C	0.377564	0.886006	0.674772
	C145	C	0.622134	0.110449	0.677046
	C146	C	0.622360	0.887560	0.313823
	C147	C	0.376888	0.111889	0.317426
	C148	C	0.679737	0.375122	0.885038
	C149	C	0.679536	0.623265	0.108322
	C150	C	0.319059	0.618441	0.882773
	C151	C	0.318138	0.377832	0.108350
	C152	C	0.886942	0.679570	0.373361
	C153	C	0.111672	0.678366	0.617707
	C154	C	0.886339	0.318362	0.618404
	C155	C	0.111098	0.319150	0.374693
	C156	C	0.886408	0.376022	0.676863
	C157	C	0.111182	0.621171	0.676139
	C158	C	0.886958	0.622185	0.315154
	C159	C	0.110958	0.376808	0.316329
	C160	C	0.376988	0.676216	0.882671
	C161	C	0.620411	0.679962	0.108614
	C162	C	0.620412	0.318468	0.884164
	C163	C	0.376500	0.320640	0.108862
	C164	C	0.678935	0.887068	0.372086
	C165	C	0.679431	0.110487	0.619397
	C166	C	0.319979	0.886108	0.617538
	C167	C	0.319567	0.111928	0.375602
	C168	C	0.874638	0.386889	0.177092
	C169	C	0.121070	0.611642	0.176384
	C170	C	0.121265	0.386872	0.815219
	C171	C	0.876899	0.611224	0.817772
	C172	C	0.181014	0.874683	0.384974
	C173	C	0.179314	0.122329	0.608222
	C174	C	0.816598	0.123650	0.385490
	C175	C	0.818611	0.876741	0.606528
	C176	C	0.385933	0.178017	0.874687
	C177	C	0.609965	0.182489	0.120684
	C178	C	0.385205	0.820576	0.116799
	C179	C	0.610168	0.818033	0.873234
	C180	C	0.386442	0.876590	0.176834
	C181	C	0.609971	0.125535	0.179411
	C182	C	0.386514	0.121108	0.816198
	C183	C	0.610309	0.876047	0.815846
	C184	C	0.876059	0.179342	0.384594
	C185	C	0.121438	0.179890	0.608293
	C186	C	0.122639	0.817465	0.384510
	C187	C	0.877732	0.820403	0.607477
	C188	C	0.177461	0.386311	0.873668
	C189	C	0.177342	0.612080	0.117314
	C190	C	0.816839	0.387330	0.120203
	C191	C	0.818617	0.610346	0.874708
	C192	C	0.401880	0.091894	0.594432
	C193	C	0.596171	0.905774	0.592893
	C194	C	0.594373	0.090897	0.401143
	C195	C	0.402719	0.906797	0.399395
	C196	C	0.594127	0.403814	0.087481
	C197	C	0.595680	0.594171	0.905115
	C198	C	0.399488	0.597552	0.088408
	C199	C	0.399611	0.399955	0.903541
	C200	C	0.090412	0.595016	0.399078
	C201	C	0.906386	0.596667	0.594690
	C202	C	0.090206	0.402863	0.593304
	C203	C	0.906503	0.401522	0.398958
	C204	C	0.903358	0.590592	0.092774
	C205	C	0.095617	0.405989	0.093525
	C206	C	0.097066	0.592564	0.897608
	C207	C	0.903090	0.406370	0.899947
	C208	C	0.096958	0.901813	0.588352
	C209	C	0.096513	0.095165	0.404573
	C210	C	0.901634	0.095585	0.587955
	C211	C	0.901921	0.901494	0.402856
	C212	C	0.590297	0.094927	0.899519
	C213	C	0.407396	0.095740	0.093931
	C214	C	0.589925	0.903065	0.092238
	C215	C	0.405297	0.900045	0.896983
	Zn216	Zn	0.499070	-0.001291	0.745769
	Zn217	Zn	0.499260	-0.000332	0.246765
	Zn218	Zn	0.749210	0.498674	-0.002955
	Zn219	Zn	0.247690	0.498742	-0.004343
	Zn220	Zn	-0.000956	0.748823	0.496071
	Zn221	Zn	-0.001244	0.248522	0.496348
	Zn222	Zn	-0.001373	0.499150	0.747216
	Zn223	Zn	-0.001560	0.498464	0.245674
	Zn224	Zn	0.498224	0.748765	-0.004294
	Zn225	Zn	0.497849	0.248709	-0.003741
	Zn226	Zn	0.748544	-0.000933	0.495239
	Zn227	Zn	0.249504	-0.001203	0.497266
	N228	N	0.412735	0.962471	0.675260
	N229	N	0.586463	0.034171	0.676346
	N230	N	0.586625	0.963668	0.315348
	N231	N	0.412426	0.035753	0.317385
	N232	N	0.678936	0.411374	0.960743
	N233	N	0.679397	0.586881	0.032464
	N234	N	0.318513	0.584125	0.959163
	N235	N	0.317400	0.411796	0.031949
	N236	N	0.962511	0.678377	0.409539
	N237	N	0.035627	0.678264	0.582340
	N238	N	0.962025	0.319457	0.582386
	N239	N	0.035043	0.319057	0.409809
	N240	N	0.962326	0.412032	0.676778
	N241	N	0.034794	0.586139	0.676594
	N242	N	0.962635	0.586013	0.315726
	N243	N	0.034670	0.411827	0.315888
	N244	N	0.411777	0.677440	0.958965
	N245	N	0.584086	0.677933	0.033155
	N246	N	0.583724	0.320058	0.959489
	N247	N	0.411478	0.319847	0.032741
	N248	N	0.677425	0.962669	0.409422
	N249	N	0.678769	0.034348	0.583168
	N250	N	0.319946	0.962737	0.583090
	N251	N	0.320255	0.035574	0.410960
	N252	N	0.911995	0.462199	0.175519
	N253	N	0.085846	0.535146	0.176415
	N254	N	0.086440	0.463233	0.815485
	N255	N	0.912921	0.535331	0.818142
	N256	N	0.180572	0.910699	0.460793
	N257	N	0.179135	0.086070	0.532456
	N258	N	0.817111	0.087764	0.461168
	N259	N	0.818396	0.911332	0.530309
	N260	N	0.461907	0.177443	0.910399
	N261	N	0.534926	0.180094	0.083770
	N262	N	0.460647	0.821765	0.080180
	N263	N	0.533914	0.817819	0.907988
	N264	N	0.462573	0.912101	0.176882
	N265	N	0.534482	0.088377	0.178340
	N266	N	0.462471	0.085562	0.816216
	N267	N	0.534264	0.911364	0.815687
	N268	N	0.912912	0.177551	0.459651
	N269	N	0.085433	0.178529	0.532702
	N270	N	0.086440	0.818568	0.459990
	N271	N	0.913734	0.820713	0.531820
	N272	N	0.176944	0.462565	0.909655
	N273	N	0.176729	0.535642	0.081695
	N274	N	0.818719	0.462960	0.083775
	N275	N	0.819270	0.534055	0.909918
	O276	O	0.639747	0.560115	0.650064
	H277	H	0.620912	0.566732	0.621865
	H278	H	0.651066	0.573974	0.656090
	O279	O	0.680830	0.473346	0.657378
	H280	H	0.690365	0.470881	0.672174
	H281	H	0.681960	0.504623	0.662142
	O282	O	0.540925	0.655140	0.538556
	H283	H	0.554746	0.653414	0.526553
	H284	H	0.545923	0.652010	0.539841
	O285	O	0.856349	-0.119436	-0.194997
	H286	H	0.870037	-0.109067	-0.196970
	H287	H	0.871684	-0.115368	-0.185461
	O288	O	-0.194947	-0.045981	1.086172
	H289	H	-0.214341	-0.067515	1.114383
	H290	H	-0.182595	-0.070175	1.065165
	O291	O	0.393898	0.377456	0.536045
	H292	H	0.391072	0.382523	0.541901
	H293	H	0.385570	0.381451	0.549762
	O294	O	0.577004	0.393750	0.463585
	H295	H	0.590587	0.391702	0.467294
	H296	H	0.596605	0.384810	0.467862
	O297	O	1.093407	0.863590	1.072233
	H298	H	1.104125	0.871836	1.063310
	H299	H	1.111415	0.875009	1.081825
	O300	O	0.035130	0.175529	0.072554
	H301	H	0.029616	0.185837	0.083523
	H302	H	0.017430	0.172360	0.073879
	O303	O	0.459757	0.490339	0.589582
	H304	H	0.455299	0.508466	0.609269
	H305	H	0.446271	0.485378	0.573659
	O306	O	1.043217	-0.003699	0.184119
	H307	H	1.032364	-0.001059	0.186777
	H308	H	1.045991	-0.001761	0.172920
	O309	O	0.301921	0.565885	0.425260
	H310	H	0.295006	0.551485	0.425572
	H311	H	0.304079	0.558702	0.400855
	O312	O	1.016400	0.885694	0.014498
	H313	H	1.022447	0.892602	0.006422
	H314	H	1.024944	0.899706	0.016944
	O315	O	0.653775	0.549994	0.431429
	H316	H	0.647222	0.551829	0.428998
	H317	H	0.647419	0.537310	0.444309
	O318	O	0.469654	0.419460	0.433597
	H319	H	0.481141	0.424075	0.431803
	H320	H	0.474899	0.414938	0.446215
	O321	O	0.970041	-0.107385	0.897542
	H322	H	0.977082	-0.108676	0.907262
	H323	H	0.976973	-0.104747	0.901297
	O324	O	0.046938	0.070765	1.096960
	H325	H	0.053101	0.073644	1.105108
	H326	H	0.026329	0.074310	1.099763
	O327	O	0.588797	0.525302	0.584115
	H328	H	0.592340	0.522201	0.570123
	H329	H	0.603265	0.529703	0.590380
	O330	O	0.397050	0.583924	0.515240
	H331	H	0.397563	0.584635	0.528447
	H332	H	0.391906	0.587029	0.507812
	O333	O	0.834790	1.136911	0.825442
	H334	H	0.851025	1.142422	0.835767
	H335	H	0.822853	1.109709	0.825716
	O336	O	0.514404	0.417676	0.603834
	H337	H	0.506288	0.422560	0.616332
	H338	H	0.507009	0.414778	0.593302
	O339	O	1.098313	0.076738	0.973148
	H340	H	1.091828	0.089640	0.991699
	H341	H	1.101808	0.085218	0.982748
	O342	O	0.095196	1.133361	1.082027
	H343	H	0.077054	1.149407	1.095538
	H344	H	0.089783	1.135129	1.070246
	O345	O	0.038069	1.031070	1.128788
	H346	H	0.039349	1.047164	1.118552
	H347	H	0.037696	1.032583	1.127828
	O348	O	0.373964	0.685023	0.490216
	H349	H	0.379222	0.683750	0.493175
	H350	H	0.364749	0.686315	0.489505
	O351	O	0.020991	-0.127898	-0.013287
	H352	H	0.007204	-0.117307	-0.008518
	H353	H	0.007705	-0.112348	-0.028324
	O354	O	0.976826	0.809802	-0.031643
	H355	H	0.989090	0.804210	-0.024372
	H356	H	0.980002	0.811873	-0.015928
	O357	O	0.085965	0.904099	-0.146394
	H358	H	0.094357	0.914753	-0.132404
	H359	H	0.096686	0.902600	-0.160173
	O360	O	0.331103	0.459608	0.639363
	H361	H	0.336980	0.466683	0.626618
	H362	H	0.327932	0.461709	0.649639
	O363	O	0.598968	0.410690	0.368740
	H364	H	0.597728	0.426803	0.364019
	H365	H	0.600029	0.414005	0.383779
	O366	O	0.521177	0.653688	0.664914
	H367	H	0.523679	0.667516	0.683346
	H368	H	0.550080	0.658197	0.665393
	O369	O	0.477629	0.674291	0.436419
	H370	H	0.469748	0.688543	0.447158
	H371	H	0.456372	0.672003	0.436990
	O372	O	0.630470	0.443198	0.461012
	H373	H	0.628977	0.439974	0.456561
	H374	H	0.617007	0.451807	0.450859
	O375	O	0.619820	0.415767	0.450460
	H376	H	0.621585	0.419855	0.448029
	H377	H	0.624565	0.419402	0.445249
	O378	O	0.446889	0.588471	0.317034
	H379	H	0.440847	0.599100	0.309872
	H380	H	0.454022	0.584201	0.325982
	O381	O	0.492941	0.432524	0.575163
	H382	H	0.504698	0.429374	0.582917
	H383	H	0.498332	0.453812	0.580360
	O384	O	0.040940	1.169430	0.918182
	H385	H	0.037655	1.176126	0.929689
	H386	H	0.040719	1.148288	0.918820
	O387	O	1.160580	1.030938	0.201047
	H388	H	1.158305	1.049135	0.200726
	H389	H	1.173514	1.038352	0.207504
	O390	O	0.689814	0.393475	0.344547
	H391	H	0.701996	0.376348	0.351574
	H392	H	0.691025	0.414550	0.356510
	O393	O	0.873450	0.204541	0.865911
	H394	H	0.852344	0.220942	0.855635
	H395	H	0.866457	0.206576	0.847788
	O396	O	-0.029786	1.033421	1.060573
	H397	H	-0.029730	1.045141	1.058574
	H398	H	-0.048329	1.029842	1.064457
	O399	O	0.310693	0.619351	0.340762
	H400	H	0.313779	0.621078	0.344192
	H401	H	0.311810	0.600622	0.350042
	O402	O	0.921435	-0.172627	1.167184
	H403	H	0.931355	-0.159274	1.178797
	H404	H	0.948851	-0.165584	1.179724
	O405	O	-0.152017	-0.020991	-0.033656
	H406	H	-0.148793	-0.011292	-0.041660
	H407	H	-0.150402	-0.037312	-0.044276
	O408	O	0.802876	0.831273	1.086741
	H409	H	0.804812	0.827187	1.093788
	H410	H	0.809383	0.809106	1.085442
	O411	O	1.048838	1.178269	0.016313
	H412	H	1.056620	1.176300	0.010478
	H413	H	1.028916	1.186795	0.009179
	O414	O	0.163640	-0.004275	0.898346
	H415	H	0.167546	-0.009969	0.905985
	H416	H	0.172402	-0.002928	0.894296
	O417	O	0.452759	0.452122	0.319541
	H418	H	0.461837	0.448293	0.326327
	H419	H	0.456168	0.445670	0.314005
	O420	O	0.159501	0.874331	-0.145337
	H421	H	0.169353	0.869371	-0.150974
	H422	H	0.163231	0.877773	-0.136914
	O423	O	1.076659	0.022011	-0.026235
	H424	H	1.080014	0.027174	-0.010645
	H425	H	1.094387	0.040293	-0.018097
	O426	O	-0.165204	0.101211	0.906735
	H427	H	-0.168075	0.091779	0.909451
	H428	H	-0.175675	0.098086	0.912484
	O429	O	0.468524	0.373616	0.510115
	H430	H	0.467862	0.370155	0.512531
	H431	H	0.486559	0.387413	0.517629
