data_Molecule from HDF5

_cell_length_a		16.361375
_cell_length_b		16.213987
_cell_length_c		16.178671
_cell_angle_alpha	89.561851
_cell_angle_beta	90.254252
_cell_angle_gamma	89.276901
_symmetry_space_group_name_H-M	'P 1'
_symmetry_Int_Tables_number		1

loop_
	_symmetry_equiv_pos_as_xyz
	x,y,z

loop_
	_atom_site_label
	_atom_site_type_symbol
	_atom_site_fract_x
	_atom_site_fract_y
	_atom_site_fract_z
	H0	H	0.406335	0.835557	0.722615
	H1	H	0.597471	0.164310	0.720589
	H2	H	0.600697	0.834212	0.296259
	H3	H	0.399914	0.162978	0.290246
	H4	H	0.715572	0.397351	0.842433
	H5	H	0.716074	0.600239	0.167790
	H6	H	0.279821	0.604991	0.843111
	H7	H	0.283487	0.398760	0.169942
	H8	H	0.839551	0.721007	0.402587
	H9	H	0.163421	0.709934	0.605136
	H10	H	0.836354	0.284745	0.606293
	H11	H	0.162572	0.280513	0.408399
	H12	H	0.836190	0.401401	0.720586
	H13	H	0.161940	0.594138	0.722312
	H14	H	0.836554	0.602175	0.289296
	H15	H	0.161864	0.396582	0.289667
	H16	H	0.395857	0.718300	0.842592
	H17	H	0.594743	0.707243	0.171051
	H18	H	0.598135	0.285344	0.842163
	H19	H	0.402034	0.285402	0.170607
	H20	H	0.718158	0.836390	0.407630
	H21	H	0.713256	0.164122	0.604311
	H22	H	0.288741	0.835042	0.608250
	H23	H	0.280945	0.161304	0.402163
	H24	H	0.901270	0.336253	0.222333
	H25	H	0.095917	0.663861	0.219963
	H26	H	0.099732	0.335104	0.795825
	H27	H	0.896963	0.662317	0.788835
	H28	H	0.218472	0.896387	0.342378
	H29	H	0.217038	0.097508	0.669028
	H30	H	0.782021	0.103594	0.341946
	H31	H	0.787871	0.899494	0.670151
	H32	H	0.337527	0.219216	0.904259
	H33	H	0.661907	0.215182	0.108710
	H34	H	0.337365	0.784649	0.108428
	H35	H	0.661865	0.781949	0.909801
	H36	H	0.338276	0.900563	0.224803
	H37	H	0.663915	0.093343	0.219875
	H38	H	0.338084	0.102238	0.788691
	H39	H	0.663388	0.899259	0.795160
	H40	H	0.897999	0.217255	0.342860
	H41	H	0.097734	0.208270	0.671079
	H42	H	0.099313	0.785088	0.340407
	H43	H	0.905522	0.786020	0.670575
	H44	H	0.219503	0.338726	0.904870
	H45	H	0.213566	0.663266	0.107696
	H46	H	0.783962	0.336260	0.107501
	H47	H	0.779212	0.661739	0.900922
	H48	H	0.413166	0.115858	0.603729
	H49	H	0.597363	0.882269	0.601887
	H50	H	0.593964	0.116005	0.415883
	H51	H	0.409086	0.883071	0.419649
	H52	H	0.583626	0.406609	0.120093
	H53	H	0.588040	0.592383	0.887585
	H54	H	0.401694	0.591153	0.124601
	H55	H	0.411361	0.414581	0.891577
	H56	H	0.116185	0.583941	0.404031
	H57	H	0.885718	0.590602	0.591080
	H58	H	0.117747	0.396354	0.605754
	H59	H	0.881495	0.399008	0.413998
	H60	H	0.114515	0.399859	0.595039
	H61	H	0.883079	0.590589	0.603189
	H62	H	0.118155	0.600031	0.412995
	H63	H	0.889041	0.412912	0.423734
	H64	H	0.406087	0.588138	0.122240
	H65	H	0.590878	0.591929	0.887029
	H66	H	0.597781	0.398653	0.127076
	H67	H	0.409279	0.405295	0.889006
	H68	H	0.592477	0.117764	0.409601
	H69	H	0.593612	0.883479	0.600918
	H70	H	0.409366	0.112347	0.587078
	H71	H	0.408489	0.881121	0.413971
	H72	H	0.903730	0.616270	0.094805
	H73	H	0.095291	0.384833	0.090275
	H74	H	0.080882	0.614278	0.914972
	H75	H	0.909489	0.384386	0.921019
	H76	H	0.094401	0.892174	0.625436
	H77	H	0.095052	0.078530	0.391050
	H78	H	0.903588	0.086978	0.622874
	H79	H	0.922264	0.909014	0.392065
	H80	H	0.615168	0.098940	0.924593
	H81	H	0.384748	0.092107	0.099889
	H82	H	0.613964	0.895113	0.090247
	H83	H	0.384703	0.903593	0.921849
	H84	H	0.613204	0.914781	0.102126
	H85	H	0.383957	0.094132	0.096111
	H86	H	0.612297	0.081549	0.915293
	H87	H	0.386613	0.918937	0.914986
	H88	H	0.910420	0.090193	0.621596
	H89	H	0.079206	0.090613	0.391974
	H90	H	0.106164	0.909268	0.624692
	H91	H	0.901070	0.899893	0.383116
	H92	H	0.094191	0.617241	0.918691
	H93	H	0.096010	0.380334	0.101494
	H94	H	0.906105	0.615574	0.096034
	H95	H	0.899464	0.379847	0.915732
	H96	H	0.397133	0.119725	0.596785
	H97	H	0.595842	0.883382	0.597412
	H98	H	0.587425	0.115804	0.413845
	H99	H	0.413048	0.883153	0.414605
	H100	H	0.597714	0.415876	0.122164
	H101	H	0.589404	0.589859	0.888815
	H102	H	0.406489	0.593777	0.123285
	H103	H	0.402005	0.412682	0.888718
	H104	H	0.111403	0.585682	0.422437
	H105	H	0.882146	0.601015	0.596481
	H106	H	0.115121	0.407832	0.602904
	H107	H	0.884247	0.415269	0.405718
	H108	H	0.905169	0.615659	0.093594
	H109	H	0.085780	0.385829	0.098561
	H110	H	0.088959	0.619838	0.905764
	H111	H	0.909640	0.381042	0.908362
	H112	H	0.086065	0.909973	0.618617
	H113	H	0.096628	0.097680	0.384972
	H114	H	0.904091	0.094226	0.625355
	H115	H	0.901791	0.923651	0.391035
	H116	H	0.619693	0.096609	0.905091
	H117	H	0.385709	0.090492	0.097321
	H118	H	0.621472	0.895184	0.112126
	H119	H	0.379913	0.905736	0.906062
	C120	C	0.379678	0.007695	0.626991
	C121	C	0.622790	0.991482	0.628653
	C122	C	0.621463	0.007888	0.385518
	C123	C	0.379263	0.990281	0.384754
	C124	C	0.621367	0.378016	0.014560
	C125	C	0.618816	0.619388	0.996576
	C126	C	0.374987	0.622815	0.015396
	C127	C	0.378248	0.380190	0.997785
	C128	C	0.008580	0.621635	0.383151
	C129	C	0.991389	0.620398	0.626921
	C130	C	0.007887	0.375044	0.629644
	C131	C	0.991599	0.377023	0.384545
	C132	C	0.877087	0.507939	0.125857
	C133	C	0.120361	0.491716	0.126876
	C134	C	0.119443	0.508813	0.884884
	C135	C	0.875935	0.489942	0.883551
	C136	C	0.124237	0.875225	0.514371
	C137	C	0.120179	0.117905	0.497418
	C138	C	0.876612	0.121456	0.514922
	C139	C	0.880168	0.879580	0.497200
	C140	C	0.508544	0.122902	0.884249
	C141	C	0.491694	0.120508	0.127936
	C142	C	0.508705	0.874907	0.130796
	C143	C	0.491297	0.878551	0.886174
	C144	C	0.384518	0.884428	0.684134
	C145	C	0.618140	0.115251	0.682673
	C146	C	0.620819	0.884079	0.332131
	C147	C	0.379767	0.113516	0.327774
	C148	C	0.677055	0.378637	0.891341
	C149	C	0.676417	0.618503	0.119306
	C150	C	0.318339	0.623771	0.892076
	C151	C	0.322080	0.379910	0.120910
	C152	C	0.887251	0.681037	0.383148
	C153	C	0.114311	0.673152	0.625434
	C154	C	0.885236	0.321785	0.626739
	C155	C	0.113775	0.319039	0.387462
	C156	C	0.885161	0.379869	0.683766
	C157	C	0.113391	0.615669	0.684063
	C158	C	0.885684	0.621583	0.327102
	C159	C	0.113514	0.376841	0.328383
	C160	C	0.376126	0.680425	0.892034
	C161	C	0.615943	0.671721	0.121138
	C162	C	0.619073	0.322426	0.891335
	C163	C	0.380884	0.323285	0.121418
	C164	C	0.679288	0.885075	0.387685
	C165	C	0.676096	0.115038	0.625475
	C166	C	0.326158	0.884122	0.627061
	C167	C	0.320808	0.112929	0.383751
	C168	C	0.880131	0.385152	0.184003
	C169	C	0.117172	0.614877	0.182529
	C170	C	0.119704	0.384912	0.831539
	C171	C	0.876962	0.613177	0.826739
	C172	C	0.180048	0.876630	0.391196
	C173	C	0.177896	0.116802	0.620341
	C174	C	0.820070	0.122395	0.391363
	C175	C	0.825619	0.879919	0.620966
	C176	C	0.386257	0.180410	0.884742
	C177	C	0.613637	0.176215	0.127702
	C178	C	0.386172	0.821873	0.128744
	C179	C	0.613242	0.820555	0.889048
	C180	C	0.386788	0.879389	0.186701
	C181	C	0.614708	0.115811	0.183149
	C182	C	0.386565	0.122449	0.826935
	C183	C	0.613970	0.878965	0.831836
	C184	C	0.878033	0.178875	0.391608
	C185	C	0.118285	0.171831	0.621499
	C186	C	0.121089	0.821055	0.390288
	C187	C	0.883938	0.823125	0.620876
	C188	C	0.179211	0.386760	0.885942
	C189	C	0.175551	0.614571	0.126642
	C190	C	0.821566	0.385201	0.127047
	C191	C	0.818470	0.612988	0.882720
	C192	C	0.400483	0.093697	0.602920
	C193	C	0.601881	0.905331	0.606570
	C194	C	0.598125	0.094211	0.406997
	C195	C	0.403090	0.904445	0.409034
	C196	C	0.599333	0.400428	0.100875
	C197	C	0.596211	0.597818	0.910180
	C198	C	0.397934	0.598284	0.101309
	C199	C	0.400674	0.403996	0.912036
	C200	C	0.093492	0.596856	0.406376
	C201	C	0.905867	0.599925	0.603683
	C202	C	0.093664	0.395338	0.607619
	C203	C	0.906839	0.401812	0.407828
	C204	C	0.898691	0.593578	0.101809
	C205	C	0.098763	0.406117	0.103589
	C206	C	0.095129	0.594701	0.906677
	C207	C	0.899362	0.404010	0.907851
	C208	C	0.102164	0.897260	0.600586
	C209	C	0.097179	0.095512	0.411777
	C210	C	0.899299	0.097564	0.600940
	C211	C	0.901909	0.903758	0.410905
	C212	C	0.593609	0.099123	0.908009
	C213	C	0.406851	0.098674	0.104535
	C214	C	0.594179	0.895464	0.108187
	C215	C	0.405793	0.902614	0.907928
	Zn216	Zn	0.500919	-0.000042	0.756527
	Zn217	Zn	0.501068	-0.001276	0.257167
	Zn218	Zn	0.747791	0.499255	0.004866
	Zn219	Zn	0.247821	0.501162	0.005565
	Zn220	Zn	0.001161	0.750105	0.505113
	Zn221	Zn	-0.000947	0.247302	0.507228
	Zn222	Zn	-0.001318	0.497980	0.757127
	Zn223	Zn	-0.000629	0.499881	0.254396
	Zn224	Zn	0.498545	0.748019	0.006597
	Zn225	Zn	0.499598	0.251267	0.006652
	Zn226	Zn	0.750254	-0.000321	0.506059
	Zn227	Zn	0.250409	-0.002052	0.505683
	N228	N	0.416779	0.962277	0.684312
	N229	N	0.585791	0.037324	0.684795
	N230	N	0.585470	0.961464	0.330712
	N231	N	0.415386	0.036189	0.328332
	N232	N	0.678827	0.412227	0.969223
	N233	N	0.678348	0.586778	0.040737
	N234	N	0.317270	0.588772	0.969624
	N235	N	0.320425	0.414797	0.043041
	N236	N	0.964289	0.680939	0.417272
	N237	N	0.037502	0.676295	0.590625
	N238	N	0.962587	0.318485	0.593928
	N239	N	0.036748	0.319331	0.421680
	N240	N	0.962614	0.412073	0.685726
	N241	N	0.035978	0.583483	0.685021
	N242	N	0.962337	0.585299	0.326934
	N243	N	0.036662	0.412163	0.326466
	N244	N	0.410728	0.679777	0.969835
	N245	N	0.580473	0.672244	0.043892
	N246	N	0.585208	0.321869	0.968997
	N247	N	0.414965	0.323507	0.044003
	N248	N	0.679811	0.963133	0.420213
	N249	N	0.679102	0.037091	0.592611
	N250	N	0.322971	0.961874	0.592202
	N251	N	0.320300	0.035145	0.418371
	N252	N	0.913816	0.462442	0.183345
	N253	N	0.083761	0.537436	0.182941
	N254	N	0.083006	0.461790	0.830885
	N255	N	0.912186	0.535754	0.827186
	N256	N	0.182493	0.909296	0.469434
	N257	N	0.178912	0.083692	0.542329
	N258	N	0.819029	0.087434	0.469175
	N259	N	0.823096	0.914273	0.542947
	N260	N	0.463120	0.180900	0.919503
	N261	N	0.536270	0.179298	0.093938
	N262	N	0.462952	0.818897	0.094573
	N263	N	0.535808	0.820231	0.922078
	N264	N	0.463982	0.911813	0.187814
	N265	N	0.537953	0.082103	0.183535
	N266	N	0.463666	0.087578	0.826474
	N267	N	0.537143	0.914268	0.829819
	N268	N	0.912526	0.178415	0.469363
	N269	N	0.083074	0.172956	0.544142
	N270	N	0.087192	0.819978	0.468004
	N271	N	0.917111	0.823089	0.542869
	N272	N	0.179147	0.464717	0.918448
	N273	N	0.177754	0.536942	0.092726
	N274	N	0.819656	0.462486	0.091472
	N275	N	0.817557	0.535174	0.917147
	O276	O	0.602274	0.491516	0.473728
	H277	H	0.599312	0.481220	0.465010
	H278	H	0.605451	0.496774	0.477271
	O279	O	0.488332	0.402866	0.474706
	H280	H	0.479009	0.414045	0.466561
	H281	H	0.491173	0.396382	0.478676
	O282	O	0.490578	0.558705	-0.457477
	H283	H	0.486975	0.557153	-0.466305
	H284	H	0.496839	0.562670	-0.466115
	O285	O	1.041955	-0.020730	1.018400
	H286	H	1.021797	-0.030773	1.007935
	H287	H	1.036570	-0.022387	1.025873
	O288	O	0.492583	0.545407	0.522482
	H289	H	0.487241	0.556804	0.525837
	H290	H	0.494248	0.549522	0.515065
	O291	O	0.124824	0.934967	-0.086484
	H292	H	0.123762	0.958114	-0.076299
	H293	H	0.133524	0.932632	-0.086456
	O294	O	0.495145	0.415848	0.488104
	H295	H	0.489320	0.419539	0.476911
	H296	H	0.492308	0.420661	0.499794
	O297	O	-0.021476	-0.076628	1.019668
	H298	H	-0.022006	-0.065932	1.015907
	H299	H	-0.014941	-0.079969	1.028942
	O300	O	0.571211	0.461073	0.426049
	H301	H	0.572658	0.457889	0.429457
	H302	H	0.566426	0.459814	0.431864
	O303	O	0.867112	1.058908	-0.062571
	H304	H	0.863375	1.061061	-0.072530
	H305	H	0.861643	1.066667	-0.058907
	O306	O	-0.042292	1.040911	1.058824
	H307	H	-0.035083	1.044143	1.062387
	H308	H	-0.043924	1.046707	1.057057
	O309	O	0.376147	0.580765	0.516614
	H310	H	0.383065	0.582585	0.516943
	H311	H	0.374220	0.591063	0.499330
	O312	O	-0.084339	0.048680	-0.088106
	H313	H	-0.088455	0.056592	-0.087310
	H314	H	-0.085065	0.037654	-0.099702
	O315	O	1.055170	0.095572	0.079284
	H316	H	1.067127	0.099334	0.074162
	H317	H	1.059810	0.091318	0.069629
	O318	O	1.048775	0.954374	1.024334
	H319	H	1.053332	0.956765	1.022458
	H320	H	1.058994	0.958142	1.022790
	O321	O	0.056297	0.001032	1.035078
	H322	H	0.056394	-0.001508	1.033111
	H323	H	0.058165	-0.004505	1.026522
	O324	O	0.903004	-0.028867	0.052548
	H325	H	0.908630	-0.041440	0.049779
	H326	H	0.888784	-0.026429	0.058870
	O327	O	0.176614	-0.027972	0.039551
	H328	H	0.192685	-0.044814	0.027597
	H329	H	0.167827	-0.036641	0.045080
	O330	O	0.468672	0.519339	0.490764
	H331	H	0.469346	0.522976	0.494571
	H332	H	0.474558	0.525076	0.488786
	O333	O	-0.014302	1.085178	1.007319
	H334	H	-0.011622	1.077185	1.001360
	H335	H	-0.004965	1.088011	1.009101
	O336	O	0.025222	0.065484	-0.011876
	H337	H	0.026211	0.070890	-0.011864
	H338	H	0.031305	0.061255	-0.021822
	O339	O	0.500739	0.553376	0.565857
	H340	H	0.489138	0.544603	0.566557
	H341	H	0.503106	0.550444	0.567357
	O342	O	1.362130	1.599295	1.423260
	H343	H	1.361179	1.603746	1.415705
	H344	H	1.363990	1.610789	1.411158
	O345	O	0.986748	1.130187	0.033517
	H346	H	0.978498	1.136663	0.018974
	H347	H	0.995329	1.138976	0.038766
	O348	O	0.489597	0.554014	0.585613
	H349	H	0.487283	0.561094	0.582396
	H350	H	0.478701	0.545484	0.582394
	O351	O	0.557664	0.524912	0.551890
	H352	H	0.553127	0.523651	0.551472
	H353	H	0.552494	0.527178	0.545234
	O354	O	0.534077	0.520959	0.357212
	H355	H	0.539107	0.515139	0.369525
	H356	H	0.533176	0.517970	0.345106
	O357	O	0.593633	-0.516992	0.529362
	H358	H	0.599697	-0.531655	0.532311
	H359	H	0.592665	-0.514591	0.544911
	O360	O	0.366815	0.483871	0.506569
	H361	H	0.358296	0.478637	0.503974
	H362	H	0.367112	0.490541	0.507689
	O363	O	0.577878	0.440216	0.527717
	H364	H	0.584431	0.459979	0.522822
	H365	H	0.578308	0.435388	0.534967
	O366	O	0.992226	0.996952	0.959419
	H367	H	0.983254	0.993578	0.963666
	H368	H	0.994211	1.002391	0.948666
	O369	O	0.944937	-0.097103	1.089091
	H370	H	0.931028	-0.095257	1.093519
	H371	H	0.949797	-0.101576	1.093431
	O372	O	-0.035525	0.086037	-0.118891
	H373	H	-0.046226	0.085433	-0.107364
	H374	H	-0.032941	0.095106	-0.115424
	O375	O	1.113027	-0.025890	-0.117581
	H376	H	1.109171	-0.033731	-0.123998
	H377	H	1.103430	-0.017712	-0.125857
	O378	O	0.974245	0.918277	1.078722
	H379	H	0.972348	0.931567	1.095813
	H380	H	0.974328	0.923245	1.083477
	O381	O	0.583850	0.458704	0.490861
	H382	H	0.586864	0.461718	0.501455
	H383	H	0.588480	0.446046	0.486823
