data_Molecule from HDF5

_cell_length_a		16.287955
_cell_length_b		16.161358
_cell_length_c		16.346816
_cell_angle_alpha	89.649893
_cell_angle_beta	89.508339
_cell_angle_gamma	90.868198
_symmetry_space_group_name_H-M	'P 1'
_symmetry_Int_Tables_number		1

loop_
	_symmetry_equiv_pos_as_xyz
	x,y,z

loop_
	_atom_site_label
	_atom_site_type_symbol
	_atom_site_fract_x
	_atom_site_fract_y
	_atom_site_fract_z
	H0	H	0.395803	0.836288	0.716359
	H1	H	0.605412	0.163506	0.710469
	H2	H	0.602017	0.836213	0.282557
	H3	H	0.407653	0.162968	0.282582
	H4	H	0.717577	0.403188	0.835809
	H5	H	0.717318	0.601748	0.161227
	H6	H	0.287925	0.600562	0.836490
	H7	H	0.279849	0.393806	0.160642
	H8	H	0.835926	0.710024	0.402741
	H9	H	0.164474	0.718205	0.593315
	H10	H	0.838196	0.281820	0.599093
	H11	H	0.166054	0.290322	0.398747
	H12	H	0.839161	0.395294	0.718043
	H13	H	0.164015	0.604737	0.712700
	H14	H	0.837572	0.598794	0.282451
	H15	H	0.163018	0.402476	0.279127
	H16	H	0.406120	0.715658	0.836248
	H17	H	0.599856	0.714605	0.161940
	H18	H	0.600207	0.287990	0.834647
	H19	H	0.398373	0.279511	0.160620
	H20	H	0.713697	0.834668	0.397635
	H21	H	0.719538	0.162533	0.594204
	H22	H	0.282424	0.836772	0.598941
	H23	H	0.291860	0.164099	0.397618
	H24	H	0.896733	0.336697	0.215176
	H25	H	0.101766	0.665025	0.209353
	H26	H	0.101157	0.336523	0.781878
	H27	H	0.905157	0.664625	0.782698
	H28	H	0.218681	0.901982	0.335679
	H29	H	0.220072	0.102228	0.660511
	H30	H	0.790274	0.097811	0.333349
	H31	H	0.781055	0.894388	0.658361
	H32	H	0.337541	0.212444	0.899836
	H33	H	0.665621	0.217596	0.093565
	H34	H	0.339125	0.782822	0.097940
	H35	H	0.667058	0.790429	0.900359
	H36	H	0.341278	0.893287	0.217685
	H37	H	0.666014	0.103361	0.212450
	H38	H	0.339184	0.100166	0.780638
	H39	H	0.663630	0.900807	0.778523
	H40	H	0.906666	0.216310	0.334970
	H41	H	0.101885	0.216007	0.661967
	H42	H	0.097221	0.790100	0.333436
	H43	H	0.899723	0.783078	0.659667
	H44	H	0.214722	0.335573	0.897864
	H45	H	0.218236	0.663810	0.096293
	H46	H	0.782131	0.336924	0.099165
	H47	H	0.792004	0.666077	0.899934
	H48	H	0.413280	0.116319	0.589183
	H49	H	0.592959	0.877751	0.599591
	H50	H	0.602110	0.119480	0.400716
	H51	H	0.409751	0.883221	0.411328
	H52	H	0.590767	0.408429	0.113632
	H53	H	0.595679	0.587399	0.885766
	H54	H	0.408516	0.587159	0.113567
	H55	H	0.401932	0.399805	0.879663
	H56	H	0.118070	0.599232	0.402920
	H57	H	0.885040	0.586800	0.593432
	H58	H	0.119707	0.409803	0.598004
	H59	H	0.886256	0.402979	0.414564
	H60	H	0.117874	0.404149	0.586648
	H61	H	0.884230	0.591260	0.594500
	H62	H	0.115408	0.593034	0.405734
	H63	H	0.887924	0.414628	0.406195
	H64	H	0.410538	0.591570	0.114263
	H65	H	0.592223	0.602492	0.881996
	H66	H	0.590763	0.410148	0.112265
	H67	H	0.403354	0.416321	0.884783
	H68	H	0.592420	0.116197	0.400527
	H69	H	0.579162	0.885805	0.588531
	H70	H	0.412340	0.116108	0.588458
	H71	H	0.404605	0.880576	0.407441
	H72	H	0.919475	0.615947	0.091865
	H73	H	0.091517	0.379785	0.098629
	H74	H	0.098428	0.616761	0.906467
	H75	H	0.908383	0.384030	0.909550
	H76	H	0.101246	0.909190	0.615711
	H77	H	0.090943	0.096800	0.384455
	H78	H	0.914123	0.089526	0.610958
	H79	H	0.885534	0.911499	0.375341
	H80	H	0.617470	0.096269	0.903661
	H81	H	0.385634	0.086556	0.095138
	H82	H	0.619494	0.904070	0.088576
	H83	H	0.389561	0.919402	0.903547
	H84	H	0.617110	0.913786	0.088642
	H85	H	0.387598	0.090227	0.090053
	H86	H	0.616708	0.092715	0.904690
	H87	H	0.381741	0.898795	0.899183
	H88	H	0.906275	0.092951	0.614887
	H89	H	0.102256	0.099641	0.380261
	H90	H	0.087797	0.916238	0.609659
	H91	H	0.922166	0.920472	0.388454
	H92	H	0.096792	0.618056	0.903426
	H93	H	0.080795	0.385994	0.089016
	H94	H	0.904138	0.617197	0.082638
	H95	H	0.906807	0.383297	0.908534
	H96	H	0.412163	0.116526	0.589539
	H97	H	0.597179	0.882471	0.580652
	H98	H	0.598079	0.115807	0.409379
	H99	H	0.410633	0.882100	0.404290
	H100	H	0.588677	0.408456	0.113229
	H101	H	0.606856	0.597285	0.878945
	H102	H	0.406396	0.590468	0.115410
	H103	H	0.417209	0.406208	0.885138
	H104	H	0.117894	0.593654	0.398727
	H105	H	0.886289	0.590317	0.589441
	H106	H	0.114943	0.416931	0.588225
	H107	H	0.881476	0.402822	0.401081
	H108	H	0.904064	0.622067	0.100019
	H109	H	0.094882	0.383469	0.084101
	H110	H	0.094047	0.616471	0.905897
	H111	H	0.908596	0.383994	0.907962
	H112	H	0.087421	0.900713	0.614585
	H113	H	0.099087	0.088283	0.384241
	H114	H	0.906455	0.083955	0.611738
	H115	H	0.912690	0.883338	0.376460
	H116	H	0.617609	0.093482	0.901227
	H117	H	0.388548	0.084037	0.090414
	H118	H	0.621242	0.909476	0.096929
	H119	H	0.388043	0.903510	0.919307
	C120	C	0.380239	0.008143	0.619522
	C121	C	0.621913	0.990551	0.617777
	C122	C	0.624690	0.008589	0.375289
	C123	C	0.381598	0.990445	0.377470
	C124	C	0.621228	0.380376	0.006315
	C125	C	0.625588	0.624137	0.989910
	C126	C	0.381126	0.619779	0.007047
	C127	C	0.377045	0.375852	0.990114
	C128	C	0.009105	0.622562	0.375143
	C129	C	0.992982	0.621335	0.619476
	C130	C	0.009954	0.378485	0.621046
	C131	C	0.992710	0.379381	0.376836
	C132	C	0.878044	0.509847	0.121119
	C133	C	0.120671	0.491609	0.118898
	C134	C	0.123970	0.508570	0.876019
	C135	C	0.881192	0.492431	0.878604
	C136	C	0.121501	0.880327	0.505816
	C137	C	0.126069	0.123960	0.490173
	C138	C	0.881247	0.119362	0.505264
	C139	C	0.877257	0.875636	0.487767
	C140	C	0.509919	0.122391	0.874982
	C141	C	0.494851	0.119659	0.119839
	C142	C	0.511760	0.877402	0.121287
	C143	C	0.493930	0.878910	0.877026
	C144	C	0.378158	0.885275	0.676946
	C145	C	0.623731	0.114096	0.672548
	C146	C	0.622202	0.884909	0.319948
	C147	C	0.386181	0.114066	0.320696
	C148	C	0.678889	0.382842	0.884317
	C149	C	0.679813	0.621677	0.112508
	C150	C	0.326325	0.619587	0.884910
	C151	C	0.319091	0.374832	0.112115
	C152	C	0.885244	0.674577	0.380179
	C153	C	0.115723	0.679646	0.615014
	C154	C	0.887252	0.320459	0.619508
	C155	C	0.116572	0.326933	0.378572
	C156	C	0.887751	0.377042	0.678423
	C157	C	0.115371	0.623165	0.674456
	C158	C	0.886183	0.618868	0.320700
	C159	C	0.115059	0.382567	0.318781
	C160	C	0.384781	0.677430	0.885001
	C161	C	0.621208	0.677738	0.113174
	C162	C	0.620273	0.325741	0.883425
	C163	C	0.378019	0.318040	0.112082
	C164	C	0.677438	0.884175	0.377354
	C165	C	0.680648	0.113593	0.614649
	C166	C	0.321728	0.885311	0.618818
	C167	C	0.328623	0.114623	0.377906
	C168	C	0.877750	0.385918	0.177208
	C169	C	0.121215	0.615617	0.172771
	C170	C	0.121053	0.385503	0.820064
	C171	C	0.884777	0.615897	0.821580
	C172	C	0.178938	0.882453	0.383769
	C173	C	0.181874	0.122224	0.612011
	C174	C	0.827573	0.118108	0.382554
	C175	C	0.820104	0.875857	0.609948
	C176	C	0.386838	0.175839	0.878607
	C177	C	0.616868	0.178789	0.115482
	C178	C	0.388490	0.820403	0.119078
	C179	C	0.617288	0.826147	0.879475
	C180	C	0.389638	0.875325	0.178684
	C181	C	0.617177	0.121684	0.174419
	C182	C	0.387508	0.119931	0.819412
	C183	C	0.615840	0.881276	0.819007
	C184	C	0.885483	0.176857	0.383118
	C185	C	0.122745	0.178671	0.612791
	C186	C	0.119017	0.826490	0.382567
	C187	C	0.878892	0.820036	0.610750
	C188	C	0.177480	0.384783	0.877979
	C189	C	0.179240	0.614776	0.116371
	C190	C	0.820746	0.385990	0.119241
	C191	C	0.828482	0.616642	0.879817
	C192	C	0.405349	0.094404	0.595869
	C193	C	0.596997	0.904314	0.596062
	C194	C	0.603925	0.094714	0.397201
	C195	C	0.402275	0.904340	0.400866
	C196	C	0.597021	0.402730	0.091033
	C197	C	0.604339	0.602360	0.904269
	C198	C	0.402316	0.596573	0.092450
	C199	C	0.400549	0.400217	0.905273
	C200	C	0.094957	0.601794	0.396340
	C201	C	0.907408	0.596622	0.598469
	C202	C	0.095457	0.403026	0.597720
	C203	C	0.907376	0.400383	0.400466
	C204	C	0.902192	0.596265	0.098250
	C205	C	0.096181	0.405307	0.097042
	C206	C	0.102639	0.594749	0.898640
	C207	C	0.901870	0.406064	0.901824
	C208	C	0.098649	0.902130	0.591218
	C209	C	0.103850	0.101582	0.404986
	C210	C	0.902673	0.095736	0.590420
	C211	C	0.900077	0.898333	0.402141
	C212	C	0.595328	0.100545	0.896866
	C213	C	0.409377	0.094289	0.098139
	C214	C	0.597335	0.901987	0.098151
	C215	C	0.408495	0.900843	0.900411
	Zn216	Zn	0.501078	0.000057	0.746752
	Zn217	Zn	0.503718	-0.001532	0.249698
	Zn218	Zn	0.751763	0.501710	-0.001348
	Zn219	Zn	0.249929	0.498846	-0.001203
	Zn220	Zn	0.000275	0.750231	0.497091
	Zn221	Zn	0.002619	0.250445	0.498635
	Zn222	Zn	0.001440	0.500193	0.749425
	Zn223	Zn	0.000529	0.500847	0.247626
	Zn224	Zn	0.502860	0.750334	-0.000537
	Zn225	Zn	0.500895	0.249530	-0.002410
	Zn226	Zn	0.749879	-0.002517	0.495926
	Zn227	Zn	0.252969	0.000849	0.498362
	N228	N	0.413776	0.963087	0.677433
	N229	N	0.587883	0.036428	0.674601
	N230	N	0.590055	0.963058	0.318604
	N231	N	0.418157	0.035901	0.320046
	N232	N	0.679718	0.415897	0.961746
	N233	N	0.682742	0.589124	0.034872
	N234	N	0.323919	0.584341	0.961798
	N235	N	0.318318	0.410054	0.035210
	N236	N	0.962539	0.677174	0.413397
	N237	N	0.038506	0.678653	0.581418
	N238	N	0.964417	0.321298	0.584500
	N239	N	0.039693	0.324584	0.414008
	N240	N	0.965054	0.412370	0.679442
	N241	N	0.038204	0.587648	0.677273
	N242	N	0.964093	0.587268	0.317612
	N243	N	0.037142	0.414436	0.317504
	N244	N	0.418154	0.677534	0.961913
	N245	N	0.588285	0.679548	0.035964
	N246	N	0.584837	0.324196	0.959961
	N247	N	0.413400	0.318651	0.035345
	N248	N	0.679256	0.961871	0.410996
	N249	N	0.679600	0.035622	0.581335
	N250	N	0.323175	0.962876	0.583855
	N251	N	0.325656	0.036798	0.412630
	N252	N	0.912667	0.463964	0.178340
	N253	N	0.085511	0.537882	0.174437
	N254	N	0.088597	0.463559	0.818745
	N255	N	0.916579	0.537498	0.820572
	N256	N	0.180488	0.915039	0.461381
	N257	N	0.184264	0.089188	0.534747
	N258	N	0.825020	0.082786	0.459476
	N259	N	0.818949	0.909428	0.532494
	N260	N	0.463902	0.177483	0.912435
	N261	N	0.539600	0.177601	0.082273
	N262	N	0.465472	0.821483	0.084091
	N263	N	0.540363	0.824578	0.915051
	N264	N	0.467156	0.910335	0.180000
	N265	N	0.540148	0.085449	0.176978
	N266	N	0.465200	0.087555	0.816696
	N267	N	0.538190	0.913422	0.817515
	N268	N	0.918112	0.177654	0.460294
	N269	N	0.089334	0.180489	0.535741
	N270	N	0.083793	0.825031	0.459377
	N271	N	0.913966	0.819842	0.533865
	N272	N	0.179614	0.462401	0.912083
	N273	N	0.178898	0.536591	0.083482
	N274	N	0.820576	0.464183	0.085504
	N275	N	0.826199	0.538956	0.914817
	O276	O	0.453954	0.456366	0.468494
	H277	H	0.455882	0.456626	0.478006
	H278	H	0.454746	0.465084	0.471342
	O279	O	0.481538	0.525278	0.351664
	H280	H	0.476018	0.523199	0.335990
	H281	H	0.483321	0.514082	0.345251
	O282	O	1.064491	1.071825	0.012698
	H283	H	1.068151	1.066447	0.009342
	H284	H	1.068499	1.067897	0.016388
	O285	O	0.942123	0.101178	1.058286
	H286	H	0.921916	0.095982	1.066714
	H287	H	0.948487	0.105556	1.051737
	O288	O	0.501786	0.527574	0.528333
	H289	H	0.508655	0.520985	0.533485
	H290	H	0.495850	0.532976	0.529185
	O291	O	0.415464	0.448195	0.539974
	H292	H	0.418881	0.450546	0.535433
	H293	H	0.402356	0.445323	0.552089
	O294	O	0.552633	0.563633	0.490775
	H295	H	0.548627	0.561840	0.501609
	H296	H	0.556637	0.571549	0.494241
	O297	O	0.112357	0.051719	0.986088
	H298	H	0.121192	0.055871	0.989119
	H299	H	0.118464	0.048123	0.989161
	O300	O	0.521940	0.534182	0.491495
	H301	H	0.525814	0.527931	0.475739
	H302	H	0.521287	0.532731	0.492359
	O303	O	0.955075	1.085940	-0.070809
	H304	H	0.949544	1.086255	-0.071888
	H305	H	0.959462	1.098549	-0.068666
	O306	O	-0.056772	0.981555	0.991333
	H307	H	-0.067730	0.983061	0.989234
	H308	H	-0.066770	0.973377	0.991501
	O309	O	0.593372	0.391611	0.423186
	H310	H	0.587444	0.392120	0.426497
	H311	H	0.595118	0.390934	0.430128
	O312	O	0.041300	0.004882	0.086006
	H313	H	0.038358	0.012205	0.081575
	H314	H	0.028880	0.004739	0.091091
	O315	O	0.955264	-0.059924	0.038501
	H316	H	0.955249	-0.049330	0.035008
	H317	H	0.959230	-0.054845	0.038778
	O318	O	1.025641	0.971111	1.055686
	H319	H	1.028317	0.980142	1.060950
	H320	H	1.026068	0.968224	1.056445
	O321	O	-0.008765	-0.063911	0.998654
	H322	H	-0.007954	-0.066695	1.002026
	H323	H	-0.004477	-0.069751	0.997778
	O324	O	0.464430	0.585225	0.552459
	H325	H	0.460520	0.585815	0.548697
	H326	H	0.458758	0.578530	0.549491
	O327	O	-0.048955	0.016099	-0.047401
	H328	H	-0.048185	0.019473	-0.042213
	H329	H	-0.039668	0.014896	-0.059399
	O330	O	0.512177	0.524072	0.454642
	H331	H	0.520376	0.530288	0.454734
	H332	H	0.505487	0.525605	0.453921
	O333	O	0.024315	1.057917	1.042512
	H334	H	0.019139	1.062939	1.031116
	H335	H	0.032409	1.057079	1.055177
	O336	O	-0.028423	0.005131	-0.007923
	H337	H	-0.018027	-0.005138	0.010100
	H338	H	-0.026584	-0.003221	-0.014957
	O339	O	0.441907	0.544932	0.435202
	H340	H	0.444987	0.545960	0.429089
	H341	H	0.441315	0.541562	0.430847
	O342	O	1.559481	1.535414	1.583655
	H343	H	1.559235	1.538636	1.584842
	H344	H	1.567485	1.541661	1.585586
	O345	O	0.948708	0.936287	-0.027423
	H346	H	0.944450	0.933269	-0.020349
	H347	H	0.939382	0.936127	-0.031799
	O348	O	0.447880	0.472806	0.639774
	H349	H	0.432316	0.462805	0.638471
	H350	H	0.454471	0.479344	0.644659
	O351	O	0.507469	0.469419	0.376585
	H352	H	0.511396	0.465469	0.376481
	H353	H	0.507282	0.478070	0.382690
	O354	O	0.419458	0.360633	0.551023
	H355	H	0.425555	0.359904	0.544786
	H356	H	0.425005	0.360926	0.562012
	O357	O	0.540732	-0.448234	0.453627
	H358	H	0.537602	-0.449218	0.465665
	H359	H	0.541448	-0.439737	0.454204
	O360	O	0.449942	0.449461	0.550927
	H361	H	0.450414	0.443198	0.561601
	H362	H	0.443371	0.437856	0.555137
	O363	O	0.486192	0.578693	0.533320
	H364	H	0.484261	0.579713	0.527069
	H365	H	0.485387	0.578395	0.531047
	O366	O	0.970480	0.973255	0.993367
	H367	H	0.973310	0.984269	0.990312
	H368	H	0.974254	0.971445	1.002291
	O369	O	1.165402	0.000410	1.084510
	H370	H	1.153921	0.015454	1.085728
	H371	H	1.177151	0.008692	1.102042
	O372	O	-0.042753	0.063904	-0.040581
	H373	H	-0.039205	0.057948	-0.037274
	H374	H	-0.044484	0.065293	-0.048750
	O375	O	0.961692	0.014171	-0.082519
	H376	H	0.961170	0.013428	-0.093690
	H377	H	0.961008	0.003307	-0.081295
	O378	O	0.557496	0.434271	0.585456
	H379	H	0.557409	0.431512	0.584073
	H380	H	0.563177	0.439449	0.579245
	O381	O	0.473005	0.459900	0.631439
	H382	H	0.463371	0.459900	0.621648
	H383	H	0.479097	0.463149	0.634955
