data_Molecule from HDF5

_cell_length_a		16.418385
_cell_length_b		16.289262
_cell_length_c		16.377836
_cell_angle_alpha	89.952579
_cell_angle_beta	89.960404
_cell_angle_gamma	89.640594
_symmetry_space_group_name_H-M	'P 1'
_symmetry_Int_Tables_number		1

loop_
	_symmetry_equiv_pos_as_xyz
	x,y,z

loop_
	_atom_site_label
	_atom_site_type_symbol
	_atom_site_fract_x
	_atom_site_fract_y
	_atom_site_fract_z
	H0	H	0.393090	0.836773	0.719337
	H1	H	0.602180	0.156090	0.719453
	H2	H	0.606577	0.836519	0.277686
	H3	H	0.392723	0.156498	0.277328
	H4	H	0.721788	0.388564	0.839313
	H5	H	0.718989	0.599392	0.157590
	H6	H	0.279275	0.599624	0.839153
	H7	H	0.278889	0.388571	0.158185
	H8	H	0.836329	0.718470	0.396875
	H9	H	0.156564	0.716332	0.602494
	H10	H	0.836293	0.279612	0.603263
	H11	H	0.154505	0.273668	0.393127
	H12	H	0.839053	0.393064	0.722126
	H13	H	0.157193	0.600418	0.718398
	H14	H	0.838202	0.605968	0.277065
	H15	H	0.154853	0.390382	0.276879
	H16	H	0.395461	0.714491	0.838675
	H17	H	0.605102	0.717148	0.157363
	H18	H	0.602575	0.276540	0.837407
	H19	H	0.399251	0.276854	0.158516
	H20	H	0.722377	0.839230	0.392194
	H21	H	0.714180	0.158463	0.602346
	H22	H	0.275309	0.838095	0.606306
	H23	H	0.276620	0.156608	0.393784
	H24	H	0.893322	0.338355	0.221740
	H25	H	0.101760	0.658030	0.217686
	H26	H	0.101546	0.335539	0.781143
	H27	H	0.894226	0.658224	0.781199
	H28	H	0.220308	0.888601	0.340145
	H29	H	0.216984	0.102146	0.657778
	H30	H	0.773690	0.107163	0.340207
	H31	H	0.777318	0.895126	0.658406
	H32	H	0.339777	0.216611	0.894261
	H33	H	0.658776	0.213298	0.102069
	H34	H	0.338168	0.776445	0.101469
	H35	H	0.657498	0.772456	0.891725
	H36	H	0.339253	0.889785	0.220107
	H37	H	0.657105	0.098973	0.219656
	H38	H	0.339839	0.101213	0.778090
	H39	H	0.657788	0.889701	0.776224
	H40	H	0.891379	0.219548	0.339034
	H41	H	0.096223	0.213854	0.659454
	H42	H	0.100087	0.777107	0.338640
	H43	H	0.892824	0.779365	0.659381
	H44	H	0.218217	0.335015	0.895430
	H45	H	0.218180	0.656993	0.102812
	H46	H	0.778991	0.336148	0.105495
	H47	H	0.774336	0.654919	0.891359
	H48	H	0.406603	0.110586	0.585724
	H49	H	0.589570	0.881455	0.587908
	H50	H	0.581980	0.114002	0.397476
	H51	H	0.410762	0.883272	0.411199
	H52	H	0.590135	0.402517	0.113318
	H53	H	0.580212	0.581651	0.887936
	H54	H	0.408657	0.589162	0.114400
	H55	H	0.405935	0.410953	0.885741
	H56	H	0.109875	0.588065	0.410880
	H57	H	0.882905	0.587820	0.591997
	H58	H	0.105825	0.411909	0.580423
	H59	H	0.884729	0.412181	0.410061
	H60	H	0.112111	0.411397	0.599603
	H61	H	0.882294	0.589334	0.590448
	H62	H	0.109713	0.584273	0.408666
	H63	H	0.882905	0.410272	0.410056
	H64	H	0.404614	0.583790	0.113890
	H65	H	0.589681	0.588883	0.882276
	H66	H	0.591851	0.407213	0.111802
	H67	H	0.412549	0.404420	0.884444
	H68	H	0.576232	0.105789	0.415359
	H69	H	0.585577	0.883383	0.587434
	H70	H	0.405679	0.111743	0.588097
	H71	H	0.406908	0.881783	0.410468
	H72	H	0.905171	0.613464	0.091199
	H73	H	0.087361	0.383622	0.087283
	H74	H	0.088737	0.612281	0.906493
	H75	H	0.916114	0.383156	0.909243
	H76	H	0.086600	0.905834	0.613001
	H77	H	0.082493	0.087107	0.385011
	H78	H	0.898484	0.086929	0.615311
	H79	H	0.914118	0.916584	0.389178
	H80	H	0.612522	0.079378	0.905412
	H81	H	0.388352	0.080695	0.082611
	H82	H	0.614001	0.906778	0.095500
	H83	H	0.384833	0.907171	0.907042
	H84	H	0.613128	0.898245	0.083863
	H85	H	0.383555	0.084001	0.094435
	H86	H	0.615100	0.088599	0.903867
	H87	H	0.385399	0.905452	0.908702
	H88	H	0.908775	0.083701	0.610171
	H89	H	0.088749	0.087322	0.382956
	H90	H	0.089735	0.909160	0.612874
	H91	H	0.911454	0.901610	0.383696
	H92	H	0.087650	0.610757	0.911721
	H93	H	0.090382	0.382078	0.088387
	H94	H	0.915463	0.609112	0.087437
	H95	H	0.908743	0.383629	0.915613
	H96	H	0.409288	0.111092	0.587703
	H97	H	0.587819	0.883069	0.583859
	H98	H	0.595572	0.113874	0.413070
	H99	H	0.410385	0.881214	0.407337
	H100	H	0.586909	0.406714	0.110773
	H101	H	0.591760	0.575961	0.886182
	H102	H	0.411614	0.582632	0.111996
	H103	H	0.403860	0.403077	0.881889
	H104	H	0.111337	0.587921	0.406442
	H105	H	0.884000	0.587624	0.590323
	H106	H	0.113891	0.395223	0.588377
	H107	H	0.884245	0.410902	0.411785
	H108	H	0.906544	0.609077	0.080070
	H109	H	0.087839	0.381729	0.090490
	H110	H	0.092468	0.612309	0.910211
	H111	H	0.908142	0.380341	0.907171
	H112	H	0.085573	0.909686	0.611094
	H113	H	0.086149	0.081618	0.386090
	H114	H	0.907592	0.095068	0.614060
	H115	H	0.899980	0.912679	0.382917
	H116	H	0.611701	0.085556	0.912650
	H117	H	0.383354	0.092926	0.085079
	H118	H	0.608180	0.912045	0.083884
	H119	H	0.385647	0.907870	0.908908
	C120	C	0.376014	0.005536	0.619908
	C121	C	0.618336	0.988701	0.618810
	C122	C	0.619348	0.005955	0.376397
	C123	C	0.376720	0.987694	0.377377
	C124	C	0.621428	0.373426	0.006417
	C125	C	0.619661	0.615489	0.990326
	C126	C	0.377159	0.616859	0.007482
	C127	C	0.377265	0.374033	0.989810
	C128	C	0.005207	0.620042	0.377100
	C129	C	0.988786	0.619129	0.621262
	C130	C	0.005114	0.375715	0.620959
	C131	C	0.988383	0.376944	0.377778
	C132	C	0.876922	0.505234	0.119750
	C133	C	0.119973	0.488394	0.120687
	C134	C	0.120455	0.505108	0.877940
	C135	C	0.877939	0.487972	0.878168
	C136	C	0.119614	0.874980	0.507326
	C137	C	0.116893	0.117521	0.490170
	C138	C	0.873652	0.120803	0.507370
	C139	C	0.875890	0.878073	0.490481
	C140	C	0.507673	0.117021	0.876184
	C141	C	0.490591	0.116381	0.118983
	C142	C	0.506443	0.873742	0.119596
	C143	C	0.490342	0.873870	0.875960
	C144	C	0.374563	0.885135	0.679884
	C145	C	0.619721	0.108764	0.678899
	C146	C	0.623994	0.885146	0.317168
	C147	C	0.374279	0.108293	0.317211
	C148	C	0.681498	0.370786	0.886775
	C149	C	0.679409	0.618109	0.109942
	C150	C	0.318616	0.618121	0.887025
	C151	C	0.318915	0.371474	0.110309
	C152	C	0.884735	0.679516	0.376885
	C153	C	0.108633	0.677251	0.621400
	C154	C	0.884687	0.318185	0.622171
	C155	C	0.107277	0.314591	0.375057
	C156	C	0.885961	0.374845	0.681136
	C157	C	0.109316	0.619316	0.678971
	C158	C	0.885514	0.623262	0.317508
	C159	C	0.107424	0.372747	0.317098
	C160	C	0.376406	0.675407	0.886776
	C161	C	0.622215	0.676410	0.109904
	C162	C	0.622314	0.314981	0.885676
	C163	C	0.378480	0.315607	0.110632
	C164	C	0.681808	0.886629	0.374236
	C165	C	0.675815	0.109902	0.620830
	C166	C	0.315876	0.885546	0.623363
	C167	C	0.316352	0.108492	0.374863
	C168	C	0.875047	0.385640	0.181352
	C169	C	0.121091	0.609512	0.179148
	C170	C	0.120749	0.383882	0.819752
	C171	C	0.875504	0.609379	0.819579
	C172	C	0.179762	0.871438	0.387796
	C173	C	0.176782	0.119904	0.610163
	C174	C	0.813824	0.124296	0.387794
	C175	C	0.816728	0.876400	0.610603
	C176	C	0.387642	0.177286	0.875025
	C177	C	0.610737	0.174248	0.120492
	C178	C	0.386423	0.815068	0.120750
	C179	C	0.609745	0.812825	0.873489
	C180	C	0.387031	0.871813	0.179770
	C181	C	0.609859	0.117369	0.179300
	C182	C	0.387721	0.119830	0.817312
	C183	C	0.609698	0.870995	0.815688
	C184	C	0.872358	0.180397	0.387085
	C185	C	0.116689	0.175384	0.611195
	C186	C	0.120217	0.815676	0.387100
	C187	C	0.874376	0.818817	0.611036
	C188	C	0.178426	0.383352	0.877187
	C189	C	0.179397	0.608798	0.122016
	C190	C	0.817879	0.384809	0.123520
	C191	C	0.815844	0.607818	0.874775
	C192	C	0.400184	0.089352	0.594659
	C193	C	0.594491	0.904514	0.593657
	C194	C	0.592351	0.089426	0.401344
	C195	C	0.401927	0.903903	0.402708
	C196	C	0.596863	0.398121	0.090222
	C197	C	0.594341	0.589774	0.907012
	C198	C	0.401334	0.592390	0.091395
	C199	C	0.400708	0.398819	0.905912
	C200	C	0.088487	0.594234	0.401605
	C201	C	0.904798	0.595268	0.597779
	C202	C	0.088785	0.399328	0.596466
	C203	C	0.905560	0.403631	0.403298
	C204	C	0.901703	0.588740	0.093717
	C205	C	0.095550	0.404390	0.096095
	C206	C	0.096637	0.589668	0.902289
	C207	C	0.903654	0.404251	0.903254
	C208	C	0.094557	0.900829	0.590744
	C209	C	0.092680	0.092544	0.406408
	C210	C	0.898067	0.095975	0.591147
	C211	C	0.901080	0.903102	0.407048
	C212	C	0.591069	0.091858	0.900460
	C213	C	0.406975	0.092762	0.094355
	C214	C	0.590080	0.898492	0.094814
	C215	C	0.406956	0.899392	0.901140
	Zn216	Zn	0.498567	-0.003565	0.747295
	Zn217	Zn	0.497998	-0.004633	0.248839
	Zn218	Zn	0.748873	0.495181	-0.001744
	Zn219	Zn	0.248297	0.495754	-0.000642
	Zn220	Zn	-0.003448	0.748256	0.499343
	Zn221	Zn	-0.004243	0.247345	0.499099
	Zn222	Zn	-0.001478	0.497311	0.749665
	Zn223	Zn	-0.002713	0.498481	0.248285
	Zn224	Zn	0.498632	0.744784	-0.001667
	Zn225	Zn	0.499428	0.245818	-0.002420
	Zn226	Zn	0.746554	-0.000959	0.498840
	Zn227	Zn	0.247171	-0.003080	0.498584
	N228	N	0.411222	0.960811	0.677757
	N229	N	0.584736	0.032398	0.677669
	N230	N	0.585627	0.960340	0.318492
	N231	N	0.410856	0.032010	0.318326
	N232	N	0.681076	0.406195	0.962943
	N233	N	0.677844	0.581055	0.034636
	N234	N	0.318868	0.582459	0.963194
	N235	N	0.318196	0.407208	0.034349
	N236	N	0.960090	0.677693	0.413159
	N237	N	0.032718	0.677292	0.586138
	N238	N	0.959906	0.318757	0.585038
	N239	N	0.032270	0.317127	0.412000
	N240	N	0.961713	0.409928	0.680392
	N241	N	0.033659	0.583918	0.679083
	N242	N	0.961586	0.586998	0.317375
	N243	N	0.032693	0.411057	0.319090
	N244	N	0.412301	0.674577	0.962483
	N245	N	0.586244	0.675152	0.034127
	N246	N	0.585585	0.316460	0.961144
	N247	N	0.414187	0.317087	0.034644
	N248	N	0.679354	0.962896	0.409982
	N249	N	0.674836	0.034240	0.583728
	N250	N	0.316327	0.961546	0.586937
	N251	N	0.317447	0.032459	0.411281
	N252	N	0.910889	0.461559	0.179179
	N253	N	0.084955	0.533541	0.178586
	N254	N	0.085510	0.460751	0.819931
	N255	N	0.913247	0.533770	0.821415
	N256	N	0.179676	0.907359	0.463831
	N257	N	0.177212	0.084706	0.533718
	N258	N	0.814629	0.087906	0.463525
	N259	N	0.817645	0.912694	0.534762
	N260	N	0.463411	0.176117	0.910701
	N261	N	0.535519	0.173778	0.083722
	N262	N	0.461997	0.815795	0.084561
	N263	N	0.534328	0.814230	0.910048
	N264	N	0.462862	0.907256	0.179367
	N265	N	0.534072	0.082096	0.178422
	N266	N	0.463167	0.083232	0.817902
	N267	N	0.534235	0.908062	0.816923
	N268	N	0.908836	0.178372	0.462495
	N269	N	0.080524	0.174368	0.535557
	N270	N	0.083632	0.817677	0.462618
	N271	N	0.910541	0.819692	0.535316
	N272	N	0.178587	0.459797	0.912413
	N273	N	0.179043	0.532410	0.086599
	N274	N	0.819046	0.460282	0.085738
	N275	N	0.817117	0.531402	0.910523
	O276	O	0.945361	0.857185	0.181033
	H277	H	0.949079	0.847884	0.190512
	H278	H	0.963846	0.865614	0.170719
	O279	O	0.364247	0.431189	0.427225
	H280	H	0.351380	0.421110	0.448463
	H281	H	0.355856	0.432601	0.419886
	O282	O	0.357972	0.307358	0.542058
	H283	H	0.367035	0.301556	0.539821
	H284	H	0.355119	0.323835	0.557717
	O285	O	1.129768	-0.105791	0.051481
	H286	H	1.138191	-0.089987	0.051447
	H287	H	1.128245	-0.087760	0.060149
	O288	O	0.008198	-0.049301	0.901238
	H289	H	0.015926	-0.044025	0.899815
	H290	H	-0.002058	-0.046229	0.878432
	O291	O	0.635320	0.579976	0.504624
	H292	H	0.628338	0.556363	0.492544
	H293	H	0.622787	0.578946	0.505066
	O294	O	0.535253	0.335610	0.404232
	H295	H	0.517943	0.331841	0.394961
	H296	H	0.533672	0.340344	0.417545
	O297	O	1.101396	1.188556	1.050226
	H298	H	1.106749	1.201955	1.045104
	H299	H	1.092094	1.165581	1.030114
	O300	O	-0.107973	-0.099502	0.128593
	H301	H	-0.119090	-0.112844	0.125144
	H302	H	-0.077847	-0.107620	0.144744
	O303	O	0.485962	0.318873	0.672049
	H304	H	0.496265	0.322710	0.671970
	H305	H	0.493381	0.312275	0.667691
	O306	O	1.003678	0.189926	0.136285
	H307	H	0.986397	0.206991	0.126175
	H308	H	1.005144	0.171884	0.123754
	O309	O	0.515805	0.430623	0.395449
	H310	H	0.507583	0.432912	0.395932
	H311	H	0.517536	0.429377	0.401603
	O312	O	0.826694	1.175309	-0.180022
	H313	H	0.857313	1.176784	-0.185910
	H314	H	0.822876	1.139898	-0.192699
	O315	O	0.677968	0.526159	0.475354
	H316	H	0.684780	0.523876	0.483527
	H317	H	0.677738	0.511228	0.473496
	O318	O	0.298874	0.485448	0.373212
	H319	H	0.280154	0.477079	0.361758
	H320	H	0.311199	0.492730	0.386604
	O321	O	0.816327	0.007850	0.799146
	H322	H	0.821830	-0.008664	0.807456
	H323	H	0.803970	-0.000136	0.802308
	O324	O	0.308262	0.460516	0.679248
	H325	H	0.298609	0.472804	0.684827
	H326	H	0.324265	0.466570	0.664131
	O327	O	0.403387	0.518261	0.676103
	H328	H	0.409858	0.532756	0.666122
	H329	H	0.400868	0.521103	0.682855
	O330	O	0.291070	0.593111	0.516215
	H331	H	0.276263	0.607296	0.505132
	H332	H	0.294086	0.579423	0.494218
	O333	O	0.819014	0.820469	0.978461
	H334	H	0.824084	0.822159	1.014477
	H335	H	0.798206	0.802762	0.995962
	O336	O	0.618959	0.609213	0.369462
	H337	H	0.601293	0.617209	0.362509
	H338	H	0.622228	0.610031	0.368073
	O339	O	1.130967	0.056703	0.933553
	H340	H	1.136839	0.042019	0.923558
	H341	H	1.109954	0.041207	0.929834
	O342	O	0.190606	0.819842	0.966751
	H343	H	0.192190	0.825376	0.962798
	H344	H	0.202899	0.813835	0.977762
	O345	O	0.102116	1.136803	0.905498
	H346	H	0.104687	1.144046	0.909328
	H347	H	0.100549	1.119904	0.908936
	O348	O	0.624669	0.492422	0.587656
	H349	H	0.619938	0.478003	0.577475
	H350	H	0.632814	0.494830	0.580920
	O351	O	0.371668	-0.668761	-0.496692
	H352	H	0.366466	-0.675150	-0.478950
	H353	H	0.384630	-0.671354	-0.475544
	O354	O	1.001339	1.071804	0.141622
	H355	H	1.000784	1.087295	0.152322
	H356	H	0.986433	1.062803	0.124721
	O357	O	-0.076490	0.913926	0.173341
	H358	H	-0.075385	0.914380	0.193382
	H359	H	-0.047640	0.934215	0.180234
	O360	O	-0.074957	0.911625	1.021600
	H361	H	-0.069195	0.898041	1.015487
	H362	H	-0.090702	0.925357	1.015737
	O363	O	0.543788	0.356732	0.326847
	H364	H	0.528982	0.365994	0.329030
	H365	H	0.529870	0.359102	0.315855
	O366	O	0.343648	0.588671	0.319587
	H367	H	0.329572	0.593826	0.353749
	H368	H	0.340674	0.563191	0.319044
	O369	O	0.515436	0.433513	0.408017
	H370	H	0.508515	0.439880	0.409802
	H371	H	0.514078	0.436735	0.412539
	O372	O	0.527702	0.700959	0.558007
	H373	H	0.528868	0.714321	0.568464
	H374	H	0.545058	0.706020	0.561439
	O375	O	0.485726	0.707260	0.313432
	H376	H	0.472173	0.721410	0.299152
	H377	H	0.482115	0.713863	0.311938
	O378	O	0.692200	0.310160	0.424789
	H379	H	0.678976	0.300554	0.404514
	H380	H	0.711978	0.312495	0.407808
	O381	O	0.565528	0.550625	0.452451
	H382	H	0.564038	0.563366	0.457871
	H383	H	0.570045	0.541775	0.447033
	O384	O	-0.019823	0.958772	0.847902
	H385	H	-0.015216	0.946361	0.868196
	H386	H	-0.039240	0.958037	0.836063
	O387	O	1.066914	1.156226	-0.086002
	H388	H	1.067292	1.150167	-0.082420
	H389	H	1.067046	1.159951	-0.086745
	O390	O	0.614907	0.621467	0.665934
	H391	H	0.617781	0.625376	0.657511
	H392	H	0.623900	0.608434	0.667881
	O393	O	1.029938	-0.201396	0.806166
	H394	H	1.022921	-0.217088	0.798445
	H395	H	1.023955	-0.195607	0.802779
	O396	O	0.179079	1.174395	1.133252
	H397	H	0.173830	1.178435	1.112706
	H398	H	0.159940	1.180830	1.110082
	O399	O	0.540699	0.382460	0.658096
	H400	H	0.529138	0.396121	0.653639
	H401	H	0.563320	0.385838	0.647544
	O402	O	1.160699	0.013473	0.833539
	H403	H	1.180086	0.007956	0.825347
	H404	H	1.160080	0.001822	0.830030
	O405	O	-0.093050	0.010084	0.131032
	H406	H	-0.093836	0.014252	0.149812
	H407	H	-0.093938	0.041347	0.134814
	O408	O	0.826328	0.984597	0.979494
	H409	H	0.826090	1.006044	0.998481
	H410	H	0.818165	0.966862	0.989489
	O411	O	1.205112	1.022327	0.204780
	H412	H	1.204369	1.049688	0.197480
	H413	H	1.227196	1.040837	0.225326
	O414	O	-0.691094	-0.313049	1.421902
	H415	H	-0.692332	-0.323455	1.425313
	H416	H	-0.679838	-0.301333	1.426824
	O417	O	0.621523	0.515801	0.638197
	H418	H	0.622572	0.508836	0.615709
	H419	H	0.631048	0.521569	0.639679
	O420	O	-0.188596	0.901172	0.157710
	H421	H	-0.203653	0.923398	0.158798
	H422	H	-0.166311	0.888911	0.164270
	O423	O	0.788217	0.203353	-0.023407
	H424	H	0.772153	0.221287	-0.041559
	H425	H	0.792140	0.209504	-0.054047
	O426	O	0.181740	-0.151036	0.816805
	H427	H	0.192912	-0.158312	0.836149
	H428	H	0.153399	-0.155540	0.810331
	O429	O	0.483444	0.662789	0.658303
	H430	H	0.494111	0.671695	0.671314
	H431	H	0.497182	0.670778	0.652070
