data_Molecule from HDF5

_cell_length_a		16.615181
_cell_length_b		16.557060
_cell_length_c		16.606259
_cell_angle_alpha	90.093516
_cell_angle_beta	90.004953
_cell_angle_gamma	89.887426
_symmetry_space_group_name_H-M	'P 1'
_symmetry_Int_Tables_number		1

loop_
	_symmetry_equiv_pos_as_xyz
	x,y,z

loop_
	_atom_site_label
	_atom_site_type_symbol
	_atom_site_fract_x
	_atom_site_fract_y
	_atom_site_fract_z
	H0	H	0.372599	0.830656	0.717402
	H1	H	0.577794	0.144725	0.719308
	H2	H	0.575364	0.831480	0.280354
	H3	H	0.368585	0.145283	0.277803
	H4	H	0.693768	0.383483	0.842225
	H5	H	0.694363	0.592105	0.154421
	H6	H	0.254557	0.591293	0.841291
	H7	H	0.253502	0.385444	0.155263
	H8	H	0.818500	0.709439	0.393673
	H9	H	0.131081	0.707749	0.602028
	H10	H	0.817002	0.269554	0.600767
	H11	H	0.127689	0.263410	0.390506
	H12	H	0.816802	0.387179	0.716502
	H13	H	0.130285	0.591513	0.718799
	H14	H	0.819358	0.593771	0.275568
	H15	H	0.128345	0.380385	0.274009
	H16	H	0.372314	0.706404	0.840798
	H17	H	0.576269	0.707891	0.155074
	H18	H	0.576919	0.268006	0.841689
	H19	H	0.368326	0.267474	0.154730
	H20	H	0.691437	0.831484	0.396807
	H21	H	0.695566	0.143894	0.603996
	H22	H	0.256031	0.830471	0.600582
	H23	H	0.252174	0.144580	0.393680
	H24	H	0.866557	0.332937	0.221384
	H25	H	0.077213	0.644696	0.218593
	H26	H	0.077126	0.331218	0.779007
	H27	H	0.870186	0.646396	0.779783
	H28	H	0.193626	0.884457	0.341323
	H29	H	0.195524	0.094519	0.653980
	H30	H	0.749828	0.095762	0.343506
	H31	H	0.754994	0.885351	0.654659
	H32	H	0.318157	0.210137	0.893226
	H33	H	0.629566	0.209811	0.103660
	H34	H	0.315701	0.771782	0.099184
	H35	H	0.630640	0.767116	0.893850
	H36	H	0.317239	0.885686	0.218923
	H37	H	0.629918	0.093585	0.219759
	H38	H	0.318319	0.093315	0.776470
	H39	H	0.630663	0.883534	0.777582
	H40	H	0.863557	0.213601	0.344694
	H41	H	0.077919	0.209338	0.654816
	H42	H	0.075847	0.769610	0.341063
	H43	H	0.873708	0.770176	0.655304
	H44	H	0.194063	0.332011	0.893144
	H45	H	0.192007	0.645539	0.100826
	H46	H	0.751142	0.332731	0.105250
	H47	H	0.751079	0.644533	0.892695
	H48	H	0.387603	0.099462	0.587294
	H49	H	0.570720	0.874138	0.586979
	H50	H	0.566581	0.103022	0.409247
	H51	H	0.383292	0.875758	0.406907
	H52	H	0.565132	0.405205	0.109383
	H53	H	0.557907	0.580481	0.887516
	H54	H	0.382027	0.584665	0.112493
	H55	H	0.385843	0.401477	0.888613
	H56	H	0.088941	0.578828	0.403989
	H57	H	0.860356	0.577962	0.592357
	H58	H	0.088611	0.394394	0.590045
	H59	H	0.863262	0.407335	0.405852
	H60	H	0.085042	0.398225	0.584855
	H61	H	0.860679	0.582830	0.587677
	H62	H	0.085232	0.580874	0.413568
	H63	H	0.859560	0.395686	0.407233
	H64	H	0.377734	0.577741	0.111781
	H65	H	0.568217	0.578624	0.884106
	H66	H	0.556844	0.398065	0.109072
	H67	H	0.385258	0.396806	0.886097
	H68	H	0.559746	0.101637	0.406740
	H69	H	0.562866	0.873977	0.594416
	H70	H	0.381508	0.100091	0.585448
	H71	H	0.385961	0.876475	0.408964
	H72	H	0.892795	0.598377	0.091726
	H73	H	0.063388	0.376872	0.082499
	H74	H	0.061367	0.604169	0.896899
	H75	H	0.882120	0.374991	0.906100
	H76	H	0.063868	0.895849	0.610528
	H77	H	0.059311	0.075986	0.389223
	H78	H	0.885749	0.077666	0.609788
	H79	H	0.887327	0.891055	0.384201
	H80	H	0.584369	0.078515	0.914296
	H81	H	0.362305	0.077492	0.086710
	H82	H	0.586073	0.900904	0.091138
	H83	H	0.364784	0.902172	0.907188
	H84	H	0.587999	0.894622	0.093337
	H85	H	0.362427	0.076369	0.087421
	H86	H	0.584385	0.072828	0.908261
	H87	H	0.360313	0.896683	0.904372
	H88	H	0.884757	0.076047	0.609262
	H89	H	0.062589	0.078794	0.386041
	H90	H	0.067220	0.897560	0.611759
	H91	H	0.876191	0.898213	0.382756
	H92	H	0.057943	0.597440	0.914412
	H93	H	0.065679	0.374782	0.088093
	H94	H	0.886326	0.595176	0.077057
	H95	H	0.886189	0.376170	0.906481
	H96	H	0.383102	0.102123	0.591446
	H97	H	0.561269	0.878186	0.584531
	H98	H	0.562066	0.100410	0.413650
	H99	H	0.382911	0.876764	0.410237
	H100	H	0.566647	0.395266	0.112876
	H101	H	0.561951	0.570084	0.888465
	H102	H	0.385607	0.577851	0.110062
	H103	H	0.381526	0.400689	0.886741
	H104	H	0.083634	0.571692	0.408950
	H105	H	0.864079	0.576441	0.586473
	H106	H	0.085730	0.401156	0.591479
	H107	H	0.865437	0.401555	0.416502
	H108	H	0.877835	0.602928	0.088489
	H109	H	0.060038	0.376426	0.088003
	H110	H	0.075303	0.604392	0.909891
	H111	H	0.883576	0.377097	0.910104
	H112	H	0.064236	0.899371	0.610255
	H113	H	0.063961	0.073507	0.387299
	H114	H	0.886515	0.076260	0.608160
	H115	H	0.887167	0.903474	0.388838
	H116	H	0.587387	0.080834	0.906789
	H117	H	0.362679	0.077845	0.088057
	H118	H	0.586340	0.895776	0.086522
	H119	H	0.362666	0.896217	0.911524
	C120	C	0.353205	-0.003415	0.619488
	C121	C	0.595637	0.979587	0.619843
	C122	C	0.593950	-0.002361	0.378384
	C123	C	0.352571	0.980029	0.377457
	C124	C	0.594667	0.367056	0.006983
	C125	C	0.594302	0.608582	0.989918
	C126	C	0.351570	0.610503	0.007198
	C127	C	0.352364	0.367433	0.990359
	C128	C	-0.017069	0.609314	0.376826
	C129	C	0.965470	0.609814	0.619797
	C130	C	-0.017534	0.367210	0.619525
	C131	C	0.965170	0.367215	0.376588
	C132	C	0.852511	0.496345	0.119147
	C133	C	0.094325	0.479855	0.118360
	C134	C	0.095449	0.497793	0.876428
	C135	C	0.851884	0.479970	0.876407
	C136	C	0.095999	0.866433	0.506819
	C137	C	0.094760	0.109444	0.490183
	C138	C	0.852007	0.109720	0.506663
	C139	C	0.853022	0.866940	0.489398
	C140	C	0.482496	0.109749	0.877345
	C141	C	0.465540	0.109658	0.119887
	C142	C	0.482471	0.867034	0.120455
	C143	C	0.466151	0.866670	0.876461
	C144	C	0.352998	0.877798	0.677776
	C145	C	0.596769	0.097821	0.679239
	C146	C	0.594801	0.878781	0.319609
	C147	C	0.350362	0.098160	0.317967
	C148	C	0.653862	0.365017	0.889088
	C149	C	0.654006	0.610776	0.107720
	C150	C	0.293648	0.610699	0.888469
	C151	C	0.293103	0.366461	0.108285
	C152	C	0.865333	0.669243	0.375085
	C153	C	0.083979	0.668046	0.620707
	C154	C	0.864034	0.309399	0.619748
	C155	C	0.081590	0.304777	0.372872
	C156	C	0.864028	0.367489	0.677501
	C157	C	0.083615	0.610577	0.678893
	C158	C	0.865575	0.611859	0.316526
	C159	C	0.081794	0.362563	0.314877
	C160	C	0.352179	0.667748	0.888373
	C161	C	0.595501	0.668026	0.108129
	C162	C	0.595826	0.307456	0.889054
	C163	C	0.350488	0.308014	0.108037
	C164	C	0.652257	0.878760	0.377493
	C165	C	0.655196	0.097154	0.622060
	C166	C	0.295220	0.877682	0.619825
	C167	C	0.292532	0.097913	0.375684
	C168	C	0.848791	0.379589	0.180740
	C169	C	0.095755	0.597688	0.178303
	C170	C	0.096222	0.378929	0.817966
	C171	C	0.850429	0.598408	0.817908
	C172	C	0.154031	0.865789	0.388514
	C173	C	0.155154	0.112526	0.607238
	C174	C	0.790120	0.113824	0.390225
	C175	C	0.794770	0.866463	0.607665
	C176	C	0.365079	0.170089	0.874727
	C177	C	0.582682	0.169860	0.122067
	C178	C	0.363449	0.810103	0.119567
	C179	C	0.583689	0.807074	0.875150
	C180	C	0.364030	0.866750	0.178853
	C181	C	0.582868	0.112065	0.179839
	C182	C	0.365010	0.111913	0.817003
	C183	C	0.583815	0.864828	0.817219
	C184	C	0.847044	0.172069	0.390699
	C185	C	0.096732	0.169777	0.607466
	C186	C	0.095965	0.808244	0.388426
	C187	C	0.853370	0.809089	0.608056
	C188	C	0.154462	0.379352	0.874932
	C189	C	0.152524	0.598435	0.119661
	C190	C	0.791413	0.379492	0.122877
	C191	C	0.791605	0.597651	0.874633
	C192	C	0.377218	0.079140	0.595126
	C193	C	0.571655	0.896899	0.595728
	C194	C	0.569633	0.080223	0.402535
	C195	C	0.377259	0.897753	0.401674
	C196	C	0.570051	0.392446	0.089093
	C197	C	0.569725	0.583468	0.908222
	C198	C	0.374976	0.586865	0.089837
	C199	C	0.377299	0.392502	0.908335
	C200	C	0.064667	0.584175	0.401650
	C201	C	0.883097	0.585803	0.595673
	C202	C	0.064942	0.391001	0.595614
	C203	C	0.883979	0.393981	0.402420
	C204	C	0.878354	0.577622	0.093055
	C205	C	0.070181	0.397353	0.093305
	C206	C	0.071560	0.580735	0.900362
	C207	C	0.876869	0.397580	0.900726
	C208	C	0.072064	0.890653	0.589427
	C209	C	0.069198	0.083421	0.408708
	C210	C	0.878255	0.083876	0.587983
	C211	C	0.876800	0.890766	0.406696
	C212	C	0.564236	0.084544	0.902524
	C213	C	0.383797	0.084398	0.094664
	C214	C	0.565115	0.890462	0.097150
	C215	C	0.384088	0.891482	0.900692
	Zn216	Zn	0.474456	-0.011573	0.748425
	Zn217	Zn	0.473809	-0.010691	0.248573
	Zn218	Zn	0.723636	0.488041	-0.001835
	Zn219	Zn	0.223479	0.488537	-0.002073
	Zn220	Zn	-0.025070	0.738001	0.498096
	Zn221	Zn	-0.026855	0.238106	0.497943
	Zn222	Zn	-0.026230	0.488640	0.748676
	Zn223	Zn	-0.026414	0.488075	0.247581
	Zn224	Zn	0.474112	0.738610	-0.001771
	Zn225	Zn	0.473546	0.238812	-0.000943
	Zn226	Zn	0.723963	-0.011451	0.497837
	Zn227	Zn	0.224063	-0.011957	0.498514
	N228	N	0.388215	0.952768	0.677856
	N229	N	0.560533	0.023448	0.678170
	N230	N	0.559091	0.953690	0.319868
	N231	N	0.386896	0.023770	0.318713
	N232	N	0.653565	0.401089	0.963637
	N233	N	0.653559	0.574728	0.033214
	N234	N	0.292984	0.575872	0.963487
	N235	N	0.293972	0.402593	0.033859
	N236	N	0.939184	0.667575	0.412074
	N237	N	0.009570	0.667696	0.584583
	N238	N	0.938737	0.309163	0.584386
	N239	N	0.007913	0.307300	0.410313
	N240	N	0.938759	0.402539	0.677676
	N241	N	0.009021	0.575008	0.678467
	N242	N	0.939591	0.575165	0.317608
	N243	N	0.008452	0.400642	0.317057
	N244	N	0.387200	0.668030	0.963202
	N245	N	0.559272	0.667038	0.033889
	N246	N	0.559893	0.308608	0.963392
	N247	N	0.386273	0.308327	0.033562
	N248	N	0.652092	0.953627	0.412918
	N249	N	0.654625	0.022628	0.586031
	N250	N	0.295066	0.952622	0.584515
	N251	N	0.293782	0.023512	0.411972
	N252	N	0.886440	0.453218	0.178533
	N253	N	0.060469	0.522813	0.177802
	N254	N	0.060253	0.453665	0.818554
	N255	N	0.887229	0.524165	0.818859
	N256	N	0.154369	0.901040	0.463388
	N257	N	0.154314	0.075929	0.533078
	N258	N	0.793220	0.075683	0.463444
	N259	N	0.794228	0.901461	0.532714
	N260	N	0.439220	0.168999	0.911412
	N261	N	0.508661	0.168583	0.085467
	N262	N	0.438178	0.809890	0.084206
	N263	N	0.509554	0.808320	0.911423
	N264	N	0.439185	0.901117	0.179830
	N265	N	0.508821	0.075614	0.178731
	N266	N	0.439111	0.075154	0.818382
	N267	N	0.509546	0.901061	0.817676
	N268	N	0.885000	0.169665	0.464105
	N269	N	0.059859	0.168093	0.533510
	N270	N	0.060772	0.808281	0.463200
	N271	N	0.888717	0.809099	0.533344
	N272	N	0.154231	0.454263	0.910591
	N273	N	0.152055	0.523838	0.083262
	N274	N	0.793549	0.453138	0.085170
	N275	N	0.792421	0.522888	0.910309
	O276	O	0.188915	1.022824	0.216317
	H277	H	0.192597	1.019422	0.203445
	H278	H	0.198007	1.015590	0.231943
	O279	O	0.446188	0.339054	0.684458
	H280	H	0.463617	0.343950	0.693032
	H281	H	0.456347	0.344036	0.698252
	O282	O	0.754186	0.207100	0.968768
	H283	H	0.755516	0.221034	0.942838
	H284	H	0.740775	0.227749	0.954609
	O285	O	0.470447	0.525316	0.334424
	H286	H	0.452061	0.535672	0.332481
	H287	H	0.456637	0.518994	0.321837
	O288	O	0.601898	0.443606	0.507308
	H289	H	0.611517	0.444463	0.518581
	H290	H	0.599602	0.445144	0.503915
	O291	O	0.688226	0.513011	0.714552
	H292	H	0.698528	0.538254	0.730831
	H293	H	0.689316	0.539001	0.727020
	O294	O	1.018535	0.125570	0.899929
	H295	H	1.046170	0.123368	0.886722
	H296	H	1.002059	0.137626	0.887171
	O297	O	0.575504	0.548323	0.544453
	H298	H	0.565123	0.557865	0.542368
	H299	H	0.577812	0.540505	0.550708
	O300	O	-0.066163	0.208283	0.780012
	H301	H	-0.060674	0.223897	0.755824
	H302	H	-0.102010	0.208944	0.776685
	O303	O	0.719026	0.137412	0.148068
	H304	H	0.721712	0.158013	0.134292
	H305	H	0.713291	0.146856	0.154048
	O306	O	1.162811	0.803951	0.801568
	H307	H	1.151589	0.793279	0.784108
	H308	H	1.173079	0.798259	0.850794
	O309	O	0.680595	0.279474	0.422918
	H310	H	0.677978	0.295106	0.436605
	H311	H	0.692188	0.257584	0.419373
	O312	O	0.700102	0.530017	0.456347
	H313	H	0.697868	0.523788	0.466062
	H314	H	0.705359	0.544270	0.465282
	O315	O	0.914188	1.200555	1.034999
	H316	H	0.911001	1.194597	1.017862
	H317	H	0.924477	1.206649	1.012249
	O318	O	0.476893	0.685901	0.688650
	H319	H	0.477116	0.699111	0.696983
	H320	H	0.474471	0.685963	0.665349
	O321	O	0.270912	0.671136	0.691236
	H322	H	0.273336	0.666911	0.664481
	H323	H	0.265352	0.677424	0.693797
	O324	O	1.049573	1.194847	0.029861
	H325	H	1.053470	1.193212	0.007030
	H326	H	1.064970	1.198932	0.023192
	O327	O	-0.243418	-0.079381	0.964628
	H328	H	-0.245035	-0.067011	0.977411
	H329	H	-0.252744	-0.089911	0.982594
	O330	O	0.760522	0.946141	1.214375
	H331	H	0.769278	0.951979	1.206491
	H332	H	0.740879	0.957337	1.221171
	O333	O	0.333698	0.261997	0.388173
	H334	H	0.317138	0.259451	0.370955
	H335	H	0.332513	0.256360	0.389827
	O336	O	1.105628	0.173453	0.048503
	H337	H	1.098759	0.166796	0.037503
	H338	H	1.123737	0.186829	0.039725
	O339	O	1.124211	-0.131501	0.895874
	H340	H	1.135003	-0.145611	0.907565
	H341	H	1.115974	-0.132817	0.903129
	O342	O	0.502768	0.268649	-0.390295
	H343	H	0.486867	0.276324	-0.384298
	H344	H	0.490556	0.252517	-0.390091
	O345	O	0.001940	1.202587	1.218928
	H346	H	0.002640	1.205344	1.225704
	H347	H	0.010464	1.211456	1.220253
	O348	O	0.660407	0.299976	0.681446
	H349	H	0.642417	0.323510	0.671297
	H350	H	0.649499	0.309204	0.669829
	O351	O	0.948181	0.757264	0.121094
	H352	H	0.933580	0.750760	0.129422
	H353	H	0.916216	0.751503	0.121410
	O354	O	-0.078799	-0.048693	0.795153
	H355	H	-0.061716	-0.028862	0.796237
	H356	H	-0.082168	-0.025546	0.800930
	O357	O	0.406686	0.560728	0.470838
	H358	H	0.406723	0.554853	0.458638
	H359	H	0.415825	0.572133	0.482022
	O360	O	0.503668	0.436252	0.722264
	H361	H	0.488757	0.451757	0.723616
	H362	H	0.509622	0.453925	0.727165
	O363	O	-0.244003	-0.231740	-0.259669
	H364	H	-0.231347	-0.205352	-0.242695
	H365	H	-0.223447	-0.220543	-0.260963
	O366	O	0.413541	0.429612	0.280834
	H367	H	0.425280	0.425316	0.268566
	H368	H	0.406012	0.418072	0.279228
	O369	O	0.829793	-0.018151	0.045838
	H370	H	0.816927	-0.015638	0.039373
	H371	H	0.842288	-0.006120	0.048569
	O372	O	1.342645	1.641390	0.549717
	H373	H	1.323524	1.635694	0.538610
	H374	H	1.354004	1.633602	0.538033
	O375	O	0.889090	0.038507	-0.071792
	H376	H	0.892137	0.048383	-0.056485
	H377	H	0.893465	0.052989	-0.067884
	O378	O	0.270655	0.283306	0.705394
	H379	H	0.267604	0.290973	0.664763
	H380	H	0.301676	0.297748	0.705129
	O381	O	-0.015524	0.939352	1.167069
	H382	H	-0.034633	0.946148	1.165561
	H383	H	-0.023466	0.956517	1.171999
	O384	O	1.196273	-0.042761	0.776472
	H385	H	1.201235	-0.069431	0.777873
	H386	H	1.213846	-0.060077	0.755010
	O387	O	1.189285	1.049914	-0.049132
	H388	H	1.184621	1.033719	-0.063829
	H389	H	1.193712	1.040754	-0.037230
	O390	O	0.656838	0.697898	0.512115
	H391	H	0.653765	0.708593	0.515137
	H392	H	0.660197	0.694543	0.529080
	O393	O	0.274625	0.524369	0.503979
	H394	H	0.284117	0.518571	0.501666
	H395	H	0.271141	0.521250	0.500083
	O396	O	-0.062578	1.024315	1.163623
	H397	H	-0.064515	1.030478	1.151083
	H398	H	-0.064359	1.030086	1.171811
	O399	O	-0.237477	0.203734	0.786863
	H400	H	-0.258884	0.197479	0.770043
	H401	H	-0.239759	0.184758	0.774350
	O402	O	0.435307	0.386509	0.412661
	H403	H	0.429368	0.363468	0.404976
	H404	H	0.451913	0.380238	0.416536
	O405	O	0.758017	0.036798	0.786796
	H406	H	0.765187	0.014965	0.785045
	H407	H	0.746477	0.028954	0.782933
	O408	O	-0.248649	-0.232064	0.026920
	H409	H	-0.272426	-0.252705	0.037948
	H410	H	-0.242963	-0.234696	0.064235
	O411	O	1.004755	0.825867	0.841151
	H412	H	0.998514	0.829515	0.834023
	H413	H	1.004760	0.821056	0.850560
	O414	O	0.829461	0.130250	0.187924
	H415	H	0.818974	0.149354	0.189637
	H416	H	0.832414	0.130549	0.180969
	O417	O	0.425457	0.559020	0.717204
	H418	H	0.415812	0.576749	0.718191
	H419	H	0.407806	0.567210	0.713164
	O420	O	0.300143	0.497639	0.281132
	H421	H	0.296012	0.485496	0.272931
	H422	H	0.300472	0.476850	0.286884
	O423	O	0.156158	0.175567	0.814603
	H424	H	0.181071	0.180898	0.796879
	H425	H	0.171858	0.163624	0.829026
	O426	O	0.257452	0.272685	0.533792
	H427	H	0.255401	0.268888	0.523126
	H428	H	0.250546	0.260245	0.522833
	O429	O	0.974313	0.868543	0.887652
	H430	H	0.981904	0.870811	0.896079
	H431	H	0.962434	0.881540	0.886730
	O432	O	0.658606	0.678414	0.702396
	H433	H	0.639252	0.685749	0.682659
	H434	H	0.673824	0.708446	0.726841
	O435	O	0.264670	0.695728	0.290446
	H436	H	0.237882	0.718581	0.280367
	H437	H	0.256508	0.644219	0.283980
	O438	O	-0.046568	-0.117463	0.067755
	H439	H	-0.039170	-0.116541	0.058527
	H440	H	-0.041276	-0.094721	0.067348
	O441	O	0.490225	0.281174	0.284962
	H442	H	0.490882	0.265449	0.273646
	H443	H	0.527448	0.282147	0.286448
	O444	O	0.594906	0.331858	0.410432
	H445	H	0.606068	0.321242	0.422499
	H446	H	0.597791	0.350713	0.417912
	O447	O	0.193656	0.881859	1.009498
	H448	H	0.196804	0.874011	1.016918
	H449	H	0.177123	0.878586	1.010613
	O450	O	-0.049396	0.819202	0.844209
	H451	H	-0.042695	0.809093	0.828459
	H452	H	-0.039986	0.820226	0.855572
	O453	O	0.308206	0.359962	0.439698
	H454	H	0.317499	0.360228	0.453852
	H455	H	0.305012	0.356241	0.414576
	O456	O	0.139956	-0.022493	1.065773
	H457	H	0.126228	-0.020152	1.063164
	H458	H	0.140534	-0.013315	1.070818
	O459	O	1.075080	0.837061	0.151285
	H460	H	1.065292	0.840486	0.148063
	H461	H	1.052424	0.834739	0.161568
	O462	O	0.763301	0.777428	0.207434
	H463	H	0.769405	0.817451	0.214159
	H464	H	0.731286	0.747701	0.242216
	O465	O	1.168181	0.158124	0.161483
	H466	H	1.162256	0.145864	0.141835
	H467	H	1.138860	0.137796	0.157276
	O468	O	0.438127	0.712115	0.275882
	H469	H	0.396266	0.711247	0.280104
	H470	H	0.427088	0.739764	0.248209
	O471	O	0.343493	0.629421	0.448534
	H472	H	0.337102	0.629881	0.441310
	H473	H	0.337272	0.626054	0.422915
	O474	O	0.681214	0.473074	0.300974
	H475	H	0.669644	0.475832	0.298250
	H476	H	0.693951	0.480741	0.308070
	O477	O	0.664811	0.678734	1.309881
	H478	H	0.642515	0.656470	1.319234
	H479	H	0.652062	0.667119	1.337978
	O480	O	0.261972	0.456044	0.695780
	H481	H	0.237323	0.465453	0.715059
	H482	H	0.272609	0.445325	0.681394
	O483	O	0.373897	0.461945	0.473457
	H484	H	0.379673	0.454216	0.471565
	H485	H	0.378966	0.451092	0.468979
	O486	O	0.536099	0.655844	0.392338
	H487	H	0.533198	0.671664	0.395774
	H488	H	0.530940	0.655136	0.389224
	O489	O	1.131720	0.795545	0.141768
	H490	H	1.116693	0.828056	0.133120
	H491	H	1.100170	0.794836	0.121784
