data_Molecule from HDF5

_cell_length_a		16.253335
_cell_length_b		16.226504
_cell_length_c		16.270107
_cell_angle_alpha	89.973717
_cell_angle_beta	90.056623
_cell_angle_gamma	90.241681
_symmetry_space_group_name_H-M	'P 1'
_symmetry_Int_Tables_number		1

loop_
	_symmetry_equiv_pos_as_xyz
	x,y,z

loop_
	_atom_site_label
	_atom_site_type_symbol
	_atom_site_fract_x
	_atom_site_fract_y
	_atom_site_fract_z
	H0	H	0.418384	0.835361	0.704654
	H1	H	0.619243	0.162821	0.706482
	H2	H	0.613670	0.834772	0.277763
	H3	H	0.418603	0.163889	0.276747
	H4	H	0.731975	0.401226	0.827511
	H5	H	0.732406	0.598393	0.155617
	H6	H	0.303291	0.599052	0.827012
	H7	H	0.302835	0.399783	0.153637
	H8	H	0.853365	0.712167	0.391995
	H9	H	0.181501	0.714407	0.588381
	H10	H	0.854746	0.283283	0.590321
	H11	H	0.181790	0.285834	0.393537
	H12	H	0.853498	0.400259	0.705186
	H13	H	0.181765	0.599202	0.705331
	H14	H	0.854289	0.597453	0.275599
	H15	H	0.181484	0.399811	0.276184
	H16	H	0.420731	0.712803	0.826856
	H17	H	0.617163	0.715552	0.154508
	H18	H	0.616722	0.285290	0.826998
	H19	H	0.419848	0.286615	0.154953
	H20	H	0.730480	0.835144	0.392215
	H21	H	0.732152	0.162783	0.589197
	H22	H	0.301765	0.835286	0.589328
	H23	H	0.303575	0.163657	0.392331
	H24	H	0.917958	0.335716	0.205779
	H25	H	0.117388	0.662838	0.205263
	H26	H	0.114298	0.335885	0.776660
	H27	H	0.920065	0.663830	0.776704
	H28	H	0.230200	0.901471	0.326505
	H29	H	0.233425	0.098639	0.653827
	H30	H	0.803734	0.097920	0.327005
	H31	H	0.801453	0.898831	0.654156
	H32	H	0.353061	0.213076	0.892116
	H33	H	0.680918	0.214248	0.089655
	H34	H	0.353448	0.784758	0.088492
	H35	H	0.682196	0.786728	0.892449
	H36	H	0.352531	0.900473	0.204238
	H37	H	0.681054	0.099486	0.206205
	H38	H	0.353404	0.098336	0.774220
	H39	H	0.681887	0.901752	0.775998
	H40	H	0.919253	0.214258	0.327449
	H41	H	0.117500	0.213622	0.654571
	H42	H	0.114116	0.786388	0.326457
	H43	H	0.919091	0.785409	0.654936
	H44	H	0.231440	0.335515	0.891088
	H45	H	0.233001	0.663159	0.088983
	H46	H	0.802302	0.335504	0.090774
	H47	H	0.803691	0.664005	0.891474
	H48	H	0.427808	0.115776	0.582626
	H49	H	0.616436	0.877279	0.591511
	H50	H	0.608409	0.115913	0.397899
	H51	H	0.422910	0.880044	0.388031
	H52	H	0.612090	0.406555	0.108305
	H53	H	0.614011	0.584306	0.876190
	H54	H	0.424725	0.592548	0.107856
	H55	H	0.421655	0.402281	0.872067
	H56	H	0.136380	0.593928	0.390260
	H57	H	0.902014	0.591404	0.580639
	H58	H	0.133826	0.411883	0.588323
	H59	H	0.898182	0.405214	0.388850
	H60	H	0.136762	0.402677	0.587317
	H61	H	0.901002	0.588692	0.586887
	H62	H	0.135605	0.599921	0.402227
	H63	H	0.900236	0.398830	0.404422
	H64	H	0.424698	0.590540	0.106774
	H65	H	0.602579	0.595105	0.876439
	H66	H	0.610129	0.408833	0.106424
	H67	H	0.421768	0.409313	0.874203
	H68	H	0.613142	0.116524	0.399486
	H69	H	0.598109	0.884790	0.586549
	H70	H	0.424575	0.116022	0.580789
	H71	H	0.431228	0.885741	0.401236
	H72	H	0.914438	0.622063	0.089762
	H73	H	0.103044	0.382641	0.088432
	H74	H	0.106169	0.615573	0.899661
	H75	H	0.923924	0.382585	0.898057
	H76	H	0.107111	0.902865	0.607340
	H77	H	0.106274	0.100566	0.372758
	H78	H	0.933601	0.095544	0.606684
	H79	H	0.922918	0.901793	0.372745
	H80	H	0.634539	0.093280	0.892810
	H81	H	0.397319	0.098501	0.086099
	H82	H	0.636597	0.906185	0.091418
	H83	H	0.401538	0.906152	0.897492
	H84	H	0.633934	0.903305	0.078533
	H85	H	0.402084	0.091308	0.078949
	H86	H	0.633882	0.096636	0.901217
	H87	H	0.400523	0.906034	0.897137
	H88	H	0.916786	0.096852	0.611854
	H89	H	0.118504	0.090953	0.371634
	H90	H	0.115703	0.906670	0.609504
	H91	H	0.919789	0.907320	0.373000
	H92	H	0.115812	0.616394	0.902244
	H93	H	0.110527	0.384267	0.075120
	H94	H	0.936601	0.615032	0.091127
	H95	H	0.924975	0.382623	0.897501
	H96	H	0.424622	0.116639	0.585182
	H97	H	0.612677	0.884083	0.573004
	H98	H	0.611321	0.117449	0.394234
	H99	H	0.414771	0.880920	0.403085
	H100	H	0.609502	0.405868	0.107129
	H101	H	0.617522	0.599020	0.871568
	H102	H	0.425937	0.591660	0.106696
	H103	H	0.428407	0.405329	0.874626
	H104	H	0.132284	0.586202	0.401252
	H105	H	0.899048	0.595283	0.585525
	H106	H	0.133443	0.406953	0.579316
	H107	H	0.904781	0.414652	0.401135
	H108	H	0.925448	0.612493	0.070547
	H109	H	0.117704	0.378375	0.087424
	H110	H	0.113391	0.619149	0.892908
	H111	H	0.924531	0.383406	0.898507
	H112	H	0.109247	0.911320	0.605203
	H113	H	0.104943	0.086086	0.377932
	H114	H	0.923487	0.081485	0.604818
	H115	H	0.925578	0.907094	0.375805
	H116	H	0.631444	0.087118	0.899141
	H117	H	0.399523	0.087939	0.088628
	H118	H	0.631366	0.915737	0.084024
	H119	H	0.400897	0.906234	0.897406
	C120	C	0.396031	0.007804	0.611606
	C121	C	0.638932	0.990446	0.612342
	C122	C	0.638826	0.007967	0.368809
	C123	C	0.395244	0.990973	0.368983
	C124	C	0.639200	0.378228	-0.000561
	C125	C	0.640393	0.622006	0.982806
	C126	C	0.396788	0.620537	-0.001132
	C127	C	0.395608	0.377191	0.981868
	C128	C	0.026017	0.621102	0.369415
	C129	C	1.009152	0.621277	0.612832
	C130	C	0.026486	0.377834	0.613504
	C131	C	1.009118	0.377575	0.369569
	C132	C	0.896274	0.508126	0.112151
	C133	C	0.139896	0.490173	0.112576
	C134	C	0.139116	0.508351	0.869656
	C135	C	0.895812	0.491170	0.869175
	C136	C	0.138715	0.878159	0.499060
	C137	C	0.139425	0.121329	0.482245
	C138	C	0.896252	0.120409	0.499625
	C139	C	0.894461	0.876852	0.482192
	C140	C	0.525336	0.120715	0.868925
	C141	C	0.508326	0.121173	0.112741
	C142	C	0.525813	0.878315	0.112585
	C143	C	0.509438	0.877866	0.868504
	C144	C	0.397769	0.884311	0.666903
	C145	C	0.637915	0.114054	0.667599
	C146	C	0.634859	0.884006	0.314916
	C147	C	0.397945	0.114566	0.314018
	C148	C	0.694317	0.380594	0.876190
	C149	C	0.695342	0.619566	0.106230
	C150	C	0.341554	0.618755	0.875764
	C151	C	0.340768	0.379762	0.105044
	C152	C	0.902566	0.674989	0.371807
	C153	C	0.132696	0.676613	0.609353
	C154	C	0.903337	0.321634	0.611083
	C155	C	0.132744	0.323244	0.372824
	C156	C	0.902871	0.379804	0.668089
	C157	C	0.132598	0.619608	0.667580
	C158	C	0.903012	0.617922	0.313791
	C159	C	0.132591	0.379861	0.314264
	C160	C	0.399776	0.675603	0.875759
	C161	C	0.637704	0.677452	0.105869
	C162	C	0.636847	0.323000	0.876030
	C163	C	0.398689	0.323186	0.105561
	C164	C	0.692961	0.884298	0.371879
	C165	C	0.694444	0.113925	0.609558
	C166	C	0.339996	0.884383	0.609465
	C167	C	0.340667	0.114549	0.371401
	C168	C	0.897933	0.384567	0.167699
	C169	C	0.137763	0.613888	0.167315
	C170	C	0.135282	0.384532	0.814756
	C171	C	0.898935	0.614938	0.814286
	C172	C	0.192851	0.880885	0.375553
	C173	C	0.195159	0.118991	0.605195
	C174	C	0.841361	0.118267	0.376152
	C175	C	0.839634	0.878964	0.605445
	C176	C	0.401993	0.175780	0.871196
	C177	C	0.631842	0.176461	0.110309
	C178	C	0.402278	0.822627	0.109322
	C179	C	0.633052	0.824093	0.871955
	C180	C	0.401832	0.880030	0.166890
	C181	C	0.631929	0.119109	0.167970
	C182	C	0.402312	0.118927	0.812497
	C183	C	0.632894	0.881055	0.813605
	C184	C	0.898920	0.175954	0.376244
	C185	C	0.137506	0.175984	0.605585
	C186	C	0.135007	0.823819	0.375602
	C187	C	0.897801	0.822316	0.605739
	C188	C	0.193268	0.384366	0.871763
	C189	C	0.195049	0.614052	0.109480
	C190	C	0.840598	0.384611	0.110259
	C191	C	0.841341	0.614865	0.871616
	C192	C	0.418901	0.093965	0.589388
	C193	C	0.615810	0.904292	0.590286
	C194	C	0.617453	0.094427	0.390733
	C195	C	0.416758	0.904490	0.390967
	C196	C	0.616955	0.400467	0.085234
	C197	C	0.617920	0.599471	0.896959
	C198	C	0.418741	0.598155	0.084858
	C199	C	0.417498	0.399085	0.895769
	C200	C	0.112426	0.599640	0.391536
	C201	C	0.922778	0.598509	0.590793
	C202	C	0.112469	0.400544	0.591576
	C203	C	0.923368	0.399612	0.391644
	C204	C	0.918900	0.594249	0.090161
	C205	C	0.117198	0.404165	0.090423
	C206	C	0.118072	0.594693	0.891789
	C207	C	0.917961	0.405084	0.891509
	C208	C	0.117090	0.900319	0.585293
	C209	C	0.116636	0.099164	0.396336
	C210	C	0.918175	0.097941	0.585531
	C211	C	0.916297	0.898880	0.396265
	C212	C	0.611218	0.098823	0.891315
	C213	C	0.422104	0.098965	0.090818
	C214	C	0.611720	0.901478	0.091041
	C215	C	0.423266	0.899640	0.890570
	Zn216	Zn	0.517709	-0.000592	0.739832
	Zn217	Zn	0.516647	-0.000638	0.240949
	Zn218	Zn	0.767846	0.499524	-0.009171
	Zn219	Zn	0.267786	0.498876	-0.009361
	Zn220	Zn	0.017219	0.749644	0.491089
	Zn221	Zn	0.017934	0.249349	0.491744
	Zn222	Zn	0.017142	0.500038	0.741315
	Zn223	Zn	0.017840	0.499120	0.240458
	Zn224	Zn	0.518021	0.750213	-0.008921
	Zn225	Zn	0.517173	0.249579	-0.009085
	Zn226	Zn	0.767000	-0.001034	0.491006
	Zn227	Zn	0.267383	-0.000430	0.489916
	N228	N	0.431781	0.962128	0.668495
	N229	N	0.604026	0.036259	0.669424
	N230	N	0.601916	0.961942	0.312921
	N231	N	0.431173	0.036643	0.312388
	N232	N	0.695899	0.413935	0.953848
	N233	N	0.697118	0.585858	0.028798
	N234	N	0.339646	0.585047	0.953359
	N235	N	0.338668	0.412625	0.027144
	N236	N	0.980238	0.677176	0.405463
	N237	N	0.054931	0.677782	0.576010
	N238	N	0.981008	0.320580	0.577497
	N239	N	0.055218	0.321869	0.406717
	N240	N	0.980377	0.414062	0.669534
	N241	N	0.054654	0.586065	0.669623
	N242	N	0.980895	0.585067	0.312148
	N243	N	0.054953	0.413209	0.312158
	N244	N	0.433438	0.676817	0.953363
	N245	N	0.604077	0.678906	0.028174
	N246	N	0.603215	0.321307	0.953579
	N247	N	0.432227	0.321580	0.027913
	N248	N	0.695352	0.962479	0.404766
	N249	N	0.695043	0.036175	0.575908
	N250	N	0.338818	0.962221	0.575819
	N251	N	0.338722	0.036612	0.404588
	N252	N	0.932016	0.462216	0.168987
	N253	N	0.104122	0.536056	0.169354
	N254	N	0.102200	0.462442	0.813483
	N255	N	0.932085	0.537162	0.812776
	N256	N	0.195240	0.913963	0.453278
	N257	N	0.196293	0.085523	0.527509
	N258	N	0.839392	0.084652	0.453844
	N259	N	0.837263	0.912037	0.527620
	N260	N	0.479414	0.176997	0.905623
	N261	N	0.554191	0.177618	0.076604
	N262	N	0.480233	0.821500	0.076374
	N263	N	0.555299	0.822021	0.905363
	N264	N	0.479595	0.914159	0.168980
	N265	N	0.553986	0.085681	0.170038
	N266	N	0.479963	0.085443	0.810974
	N267	N	0.554993	0.913793	0.811615
	N268	N	0.932238	0.177513	0.454078
	N269	N	0.103624	0.177661	0.528084
	N270	N	0.101968	0.822065	0.453435
	N271	N	0.931390	0.821028	0.528167
	N272	N	0.196012	0.462303	0.905134
	N273	N	0.196465	0.536102	0.076138
	N274	N	0.839555	0.462298	0.076420
	N275	N	0.839397	0.537028	0.905101
	O276	O	0.977755	0.996481	-0.011474
	H277	H	0.983369	0.988955	-0.010248
	H278	H	0.969281	0.986039	-0.011518
	O279	O	-0.001563	-0.077696	1.054082
	H280	H	0.016772	-0.069110	1.059611
	H281	H	-0.003743	-0.085171	1.064155
	O282	O	-0.486292	0.512798	0.496010
	H283	H	-0.481586	0.516770	0.487606
	H284	H	-0.488277	0.521172	0.486081
	O285	O	0.529469	0.525472	0.486189
	H286	H	0.527576	0.522206	0.491172
	H287	H	0.529591	0.530842	0.491861
	O288	O	0.026978	0.035587	-0.006621
	H289	H	0.023299	0.041444	-0.009294
	H290	H	0.017316	0.022698	-0.005125
	O291	O	0.008935	0.997752	-0.007114
	H292	H	0.013374	1.000842	-0.009936
	H293	H	0.009090	0.991731	-0.009709
	O294	O	-0.012163	1.050245	-0.032345
	H295	H	-0.011825	1.047406	-0.036403
	H296	H	-0.011480	1.037883	-0.033873
	O297	O	0.507348	0.471387	0.520505
	H298	H	0.507337	0.467299	0.520833
	H299	H	0.507971	0.474631	0.512284
	O300	O	0.509601	0.527586	0.574977
	H301	H	0.510082	0.520902	0.575826
	H302	H	0.505995	0.530850	0.581031
	O303	O	0.538716	-0.459201	1.436354
	H304	H	0.543813	-0.457047	1.435048
	H305	H	0.529754	-0.455484	1.430988
	O306	O	0.024993	1.012666	0.948955
	H307	H	0.025130	1.002473	0.944294
	H308	H	0.032893	1.023346	0.952308
	O309	O	0.004734	0.973598	0.972411
	H310	H	0.008042	0.966749	0.978099
	H311	H	0.002873	0.979065	0.974661
	O312	O	0.050818	0.028407	1.027086
	H313	H	0.048563	0.030267	1.030254
	H314	H	0.047821	0.040039	1.022200
	O315	O	0.513591	0.493757	0.466672
	H316	H	0.516057	0.493466	0.460613
	H317	H	0.508363	0.490599	0.470555
	O318	O	0.028519	0.039638	1.061344
	H319	H	0.036685	0.035749	1.056057
	H320	H	0.026516	0.057304	1.058517
	O321	O	0.557856	0.537449	0.540378
	H322	H	0.563636	0.535354	0.551262
	H323	H	0.562872	0.544428	0.543645
	O324	O	0.930867	-0.038311	1.070886
	H325	H	0.928750	-0.033076	1.078555
	H326	H	0.929834	-0.034448	1.080519
	O327	O	0.963085	0.966193	0.946946
	H328	H	0.961875	0.965333	0.953733
	H329	H	0.956118	0.967942	0.939885
	O330	O	0.029262	0.087614	0.971021
	H331	H	0.012987	0.097416	0.972149
	H332	H	0.029238	0.085839	0.956490
	O333	O	0.588450	0.536481	0.566746
	H334	H	0.588152	0.532492	0.572122
	H335	H	0.596610	0.533018	0.563154
	O336	O	0.540002	0.476172	0.437354
	H337	H	0.538847	0.475058	0.444322
	H338	H	0.534222	0.477838	0.436293
	O339	O	-0.460417	0.508235	-0.539565
	H340	H	-0.467820	0.504115	-0.525906
	H341	H	-0.462840	0.508005	-0.548907
	O342	O	0.555288	0.547668	0.503377
	H343	H	0.554627	0.548051	0.506465
	H344	H	0.552144	0.551875	0.505705
	O345	O	0.448308	0.495861	0.502947
	H346	H	0.446832	0.496375	0.507243
	H347	H	0.449771	0.484231	0.498834
