data_Molecule from HDF5

_cell_length_a		16.524757
_cell_length_b		16.488671
_cell_length_c		16.490661
_cell_angle_alpha	89.993812
_cell_angle_beta	89.989501
_cell_angle_gamma	90.207005
_symmetry_space_group_name_H-M	'P 1'
_symmetry_Int_Tables_number		1

loop_
	_symmetry_equiv_pos_as_xyz
	x,y,z

loop_
	_atom_site_label
	_atom_site_type_symbol
	_atom_site_fract_x
	_atom_site_fract_y
	_atom_site_fract_z
	H0	H	0.386645	0.846521	0.720760
	H1	H	0.600417	0.161492	0.715945
	H2	H	0.596497	0.843971	0.275536
	H3	H	0.388820	0.159834	0.274728
	H4	H	0.717555	0.395438	0.837693
	H5	H	0.714454	0.606201	0.151986
	H6	H	0.269690	0.611599	0.838360
	H7	H	0.272125	0.397396	0.151542
	H8	H	0.838390	0.720364	0.392894
	H9	H	0.150089	0.729073	0.607370
	H10	H	0.837995	0.279817	0.600082
	H11	H	0.152915	0.280319	0.389900
	H12	H	0.839048	0.393614	0.718690
	H13	H	0.151032	0.611656	0.722056
	H14	H	0.839182	0.606496	0.274455
	H15	H	0.153015	0.396601	0.273403
	H16	H	0.385127	0.727998	0.838906
	H17	H	0.597372	0.722516	0.152339
	H18	H	0.601494	0.278550	0.838166
	H19	H	0.388351	0.281508	0.152788
	H20	H	0.713144	0.843707	0.392186
	H21	H	0.716869	0.160170	0.600806
	H22	H	0.267873	0.846962	0.607901
	H23	H	0.270007	0.158183	0.388487
	H24	H	0.894172	0.343587	0.211533
	H25	H	0.102606	0.660209	0.217558
	H26	H	0.104373	0.346986	0.770353
	H27	H	0.889812	0.658496	0.772638
	H28	H	0.220445	0.891772	0.341597
	H29	H	0.219833	0.111278	0.651868
	H30	H	0.776340	0.104236	0.337776
	H31	H	0.771910	0.895017	0.653166
	H32	H	0.337065	0.225647	0.886643
	H33	H	0.651004	0.220960	0.097869
	H34	H	0.336333	0.777561	0.103699
	H35	H	0.650783	0.782414	0.891048
	H36	H	0.337132	0.891960	0.221209
	H37	H	0.651908	0.103819	0.212792
	H38	H	0.337474	0.110038	0.771308
	H39	H	0.651052	0.898638	0.773853
	H40	H	0.889537	0.223577	0.339012
	H41	H	0.104215	0.227356	0.651956
	H42	H	0.100799	0.779927	0.339158
	H43	H	0.887468	0.777569	0.652701
	H44	H	0.219243	0.346446	0.885733
	H45	H	0.219131	0.659880	0.101457
	H46	H	0.775808	0.344345	0.097246
	H47	H	0.773887	0.659350	0.889016
	H48	H	0.408219	0.114246	0.583891
	H49	H	0.586202	0.888532	0.587595
	H50	H	0.583740	0.115567	0.402286
	H51	H	0.406626	0.890356	0.408378
	H52	H	0.581331	0.416946	0.104623
	H53	H	0.583537	0.591562	0.881814
	H54	H	0.413465	0.589021	0.102307
	H55	H	0.407620	0.414132	0.882854
	H56	H	0.108240	0.588535	0.404702
	H57	H	0.882751	0.589876	0.588573
	H58	H	0.107015	0.418880	0.588573
	H59	H	0.880904	0.410683	0.396940
	H60	H	0.108378	0.408304	0.581641
	H61	H	0.884511	0.592068	0.580076
	H62	H	0.110794	0.592761	0.406250
	H63	H	0.881598	0.404551	0.407746
	H64	H	0.404702	0.595318	0.109209
	H65	H	0.583026	0.591627	0.881706
	H66	H	0.581738	0.407031	0.109444
	H67	H	0.406326	0.414589	0.882086
	H68	H	0.586440	0.114630	0.407405
	H69	H	0.579002	0.891254	0.587092
	H70	H	0.409173	0.112214	0.581413
	H71	H	0.407447	0.891584	0.410574
	H72	H	0.905871	0.616068	0.085754
	H73	H	0.085020	0.391345	0.082060
	H74	H	0.081409	0.612063	0.911014
	H75	H	0.904518	0.389273	0.908212
	H76	H	0.085112	0.920176	0.608256
	H77	H	0.087450	0.091360	0.382352
	H78	H	0.904887	0.087539	0.607745
	H79	H	0.903244	0.912720	0.383478
	H80	H	0.606682	0.093881	0.905425
	H81	H	0.380331	0.087484	0.085968
	H82	H	0.603458	0.914836	0.081684
	H83	H	0.383482	0.919175	0.908439
	H84	H	0.604325	0.915505	0.087640
	H85	H	0.378519	0.092768	0.088554
	H86	H	0.605127	0.092388	0.909133
	H87	H	0.381499	0.915108	0.905793
	H88	H	0.908391	0.090332	0.607633
	H89	H	0.082005	0.083955	0.386807
	H90	H	0.074180	0.918044	0.604245
	H91	H	0.905871	0.909668	0.383110
	H92	H	0.083866	0.613638	0.908689
	H93	H	0.084394	0.389793	0.085661
	H94	H	0.903166	0.617297	0.084775
	H95	H	0.905635	0.388867	0.906107
	H96	H	0.406379	0.113875	0.581090
	H97	H	0.583898	0.891743	0.580693
	H98	H	0.588883	0.117185	0.402731
	H99	H	0.404888	0.890527	0.409816
	H100	H	0.590778	0.413651	0.108866
	H101	H	0.583529	0.592006	0.881198
	H102	H	0.402527	0.583117	0.105754
	H103	H	0.407394	0.415382	0.883252
	H104	H	0.108101	0.590607	0.409027
	H105	H	0.886494	0.584308	0.582684
	H106	H	0.103409	0.419212	0.576693
	H107	H	0.885647	0.416734	0.407307
	H108	H	0.903888	0.617592	0.087375
	H109	H	0.081734	0.391280	0.083605
	H110	H	0.080141	0.613859	0.907903
	H111	H	0.906706	0.390560	0.907717
	H112	H	0.079934	0.909915	0.609590
	H113	H	0.077425	0.092999	0.384221
	H114	H	0.904983	0.091394	0.609672
	H115	H	0.901940	0.908918	0.382169
	H116	H	0.606241	0.090063	0.905610
	H117	H	0.379937	0.091956	0.082193
	H118	H	0.605834	0.910045	0.084872
	H119	H	0.383370	0.914247	0.910591
	C120	C	0.373562	0.010473	0.616955
	C121	C	0.615811	0.994715	0.617054
	C122	C	0.615991	0.010514	0.373907
	C123	C	0.372968	0.994038	0.375524
	C124	C	0.616325	0.380532	0.003227
	C125	C	0.615131	0.623766	0.985866
	C126	C	0.372894	0.623780	0.002948
	C127	C	0.373454	0.381578	0.986404
	C128	C	0.004719	0.622192	0.375136
	C129	C	0.987416	0.623299	0.617827
	C130	C	0.003274	0.381313	0.615769
	C131	C	0.986903	0.379152	0.372595
	C132	C	0.873968	0.511639	0.115992
	C133	C	0.117196	0.494727	0.116685
	C134	C	0.115983	0.510452	0.874473
	C135	C	0.873547	0.493153	0.873956
	C136	C	0.114614	0.881690	0.504436
	C137	C	0.116135	0.123308	0.487858
	C138	C	0.874214	0.122080	0.504224
	C139	C	0.871673	0.878179	0.487406
	C140	C	0.502472	0.125132	0.873083
	C141	C	0.484421	0.122476	0.116382
	C142	C	0.501178	0.879769	0.118045
	C143	C	0.485808	0.882731	0.874870
	C144	C	0.368797	0.893400	0.679932
	C145	C	0.618658	0.113617	0.676532
	C146	C	0.616109	0.891412	0.315008
	C147	C	0.370359	0.112462	0.314750
	C148	C	0.677021	0.377672	0.885031
	C149	C	0.674899	0.625406	0.104557
	C150	C	0.310659	0.628719	0.885224
	C151	C	0.312163	0.378443	0.104322
	C152	C	0.885810	0.681124	0.373877
	C153	C	0.103886	0.687106	0.623564
	C154	C	0.885217	0.319787	0.618822
	C155	C	0.105536	0.319983	0.371158
	C156	C	0.885679	0.376689	0.677617
	C157	C	0.104317	0.628333	0.680541
	C158	C	0.886230	0.624465	0.314977
	C159	C	0.105479	0.377757	0.312924
	C160	C	0.367969	0.686774	0.885510
	C161	C	0.616472	0.682941	0.104715
	C162	C	0.619051	0.319499	0.885221
	C163	C	0.370139	0.320917	0.105021
	C164	C	0.673942	0.891268	0.373187
	C165	C	0.676373	0.113170	0.618783
	C166	C	0.309578	0.893720	0.623665
	C167	C	0.311322	0.111652	0.371293
	C168	C	0.874216	0.391611	0.173325
	C169	C	0.120490	0.612982	0.177380
	C170	C	0.121178	0.393500	0.811442
	C171	C	0.871300	0.611496	0.812794
	C172	C	0.178378	0.875864	0.387863
	C173	C	0.178801	0.128361	0.604960
	C174	C	0.815330	0.123458	0.385447
	C175	C	0.811972	0.876377	0.605685
	C176	C	0.384384	0.185649	0.869225
	C177	C	0.603610	0.181072	0.116591
	C178	C	0.383665	0.818049	0.121385
	C179	C	0.603817	0.822547	0.872248
	C180	C	0.384081	0.875002	0.180328
	C181	C	0.603851	0.123070	0.174233
	C182	C	0.384694	0.127851	0.811450
	C183	C	0.603905	0.880128	0.813935
	C184	C	0.871724	0.182819	0.386077
	C185	C	0.121127	0.186299	0.605096
	C186	C	0.118760	0.819980	0.386645
	C187	C	0.869421	0.818044	0.605599
	C188	C	0.178582	0.393484	0.868963
	C189	C	0.178434	0.612787	0.119510
	C190	C	0.815275	0.392065	0.116478
	C191	C	0.813688	0.611773	0.870792
	C192	C	0.400275	0.092122	0.589637
	C193	C	0.590290	0.911958	0.592249
	C194	C	0.592757	0.094020	0.397412
	C195	C	0.398848	0.912118	0.401947
	C196	C	0.591559	0.405410	0.086199
	C197	C	0.590431	0.598850	0.903121
	C198	C	0.399287	0.597042	0.084323
	C199	C	0.399637	0.407336	0.904232
	C200	C	0.087285	0.597798	0.399721
	C201	C	0.906085	0.596280	0.591354
	C202	C	0.084767	0.407996	0.589802
	C203	C	0.904127	0.403764	0.397071
	C204	C	0.897402	0.595216	0.092679
	C205	C	0.091330	0.412279	0.091089
	C206	C	0.089457	0.591823	0.901393
	C207	C	0.898603	0.411092	0.899719
	C208	C	0.087597	0.908545	0.585952
	C209	C	0.089809	0.096765	0.405732
	C210	C	0.899138	0.096948	0.586707
	C211	C	0.896640	0.903143	0.404543
	C212	C	0.584428	0.099585	0.899125
	C213	C	0.401281	0.097808	0.092273
	C214	C	0.583344	0.905853	0.092032
	C215	C	0.404228	0.908514	0.900866
	Zn216	Zn	0.494340	0.003351	0.745206
	Zn217	Zn	0.492712	0.002041	0.246194
	Zn218	Zn	0.744732	0.502673	-0.005372
	Zn219	Zn	0.244567	0.502472	-0.005451
	Zn220	Zn	-0.004448	0.751633	0.496172
	Zn221	Zn	-0.004712	0.251319	0.495755
	Zn222	Zn	-0.004364	0.501473	0.745989
	Zn223	Zn	-0.004270	0.502328	0.245037
	Zn224	Zn	0.493029	0.752479	-0.005320
	Zn225	Zn	0.493495	0.252313	-0.004491
	Zn226	Zn	0.744377	0.001892	0.496410
	Zn227	Zn	0.244269	0.001989	0.496605
	N228	N	0.407788	0.966955	0.675721
	N229	N	0.581652	0.038955	0.675512
	N230	N	0.580916	0.966618	0.315205
	N231	N	0.407885	0.038219	0.317336
	N232	N	0.675210	0.414953	0.959537
	N233	N	0.674391	0.589437	0.029390
	N234	N	0.313573	0.590113	0.959049
	N235	N	0.313938	0.415166	0.029541
	N236	N	0.960471	0.679918	0.410545
	N237	N	0.030240	0.683972	0.585149
	N238	N	0.959281	0.322457	0.581302
	N239	N	0.030738	0.320637	0.407518
	N240	N	0.960014	0.414102	0.676077
	N241	N	0.030902	0.589230	0.676914
	N242	N	0.961040	0.588627	0.315503
	N243	N	0.030633	0.413674	0.313686
	N244	N	0.405997	0.683758	0.959565
	N245	N	0.580136	0.682146	0.029865
	N246	N	0.581761	0.321128	0.959778
	N247	N	0.407281	0.322491	0.030490
	N248	N	0.674124	0.966477	0.408936
	N249	N	0.674854	0.037988	0.582667
	N250	N	0.312409	0.967752	0.585248
	N251	N	0.312676	0.037007	0.408250
	N252	N	0.910032	0.467023	0.173291
	N253	N	0.083206	0.538450	0.175755
	N254	N	0.082813	0.467130	0.814968
	N255	N	0.907638	0.536655	0.814217
	N256	N	0.176184	0.913366	0.462335
	N257	N	0.175742	0.089931	0.531031
	N258	N	0.816838	0.086186	0.459896
	N259	N	0.813105	0.912906	0.530992
	N260	N	0.458672	0.184381	0.906574
	N261	N	0.528208	0.180972	0.081590
	N262	N	0.457613	0.820986	0.083420
	N263	N	0.529488	0.823939	0.909331
	N264	N	0.458323	0.912758	0.178465
	N265	N	0.528566	0.087267	0.174378
	N266	N	0.459270	0.091163	0.813585
	N267	N	0.529476	0.916657	0.815310
	N268	N	0.907711	0.181950	0.461041
	N269	N	0.082869	0.183161	0.531130
	N270	N	0.079921	0.823350	0.460243
	N271	N	0.905649	0.818773	0.530629
	N272	N	0.175588	0.467296	0.907353
	N273	N	0.176296	0.538200	0.082409
	N274	N	0.814557	0.467814	0.082021
	N275	N	0.814962	0.537339	0.907936
	O276	O	0.593719	0.436145	0.381972
	H277	H	0.587611	0.429823	0.413613
	H278	H	0.584056	0.452646	0.364376
	O279	O	0.497901	0.715842	0.678134
	H280	H	0.499704	0.725906	0.666961
	H281	H	0.488473	0.726540	0.685386
	O282	O	1.189128	1.170717	0.161727
	H283	H	1.178375	1.156998	0.153242
	H284	H	1.189692	1.159411	0.142850
	O285	O	0.480153	0.297455	0.326038
	H286	H	0.479501	0.293937	0.330977
	H287	H	0.475212	0.290657	0.317843
	O288	O	0.004544	0.024354	-0.125042
	H289	H	-0.009597	0.041257	-0.110843
	H290	H	0.004250	0.020526	-0.123826
	O291	O	1.272775	0.725071	0.293243
	H292	H	1.282854	0.729845	0.311546
	H293	H	1.262718	0.706432	0.278056
	O294	O	-0.119882	1.114098	0.048153
	H295	H	-0.110487	1.105897	0.059417
	H296	H	-0.112946	1.101965	0.060222
	O297	O	0.295880	0.451841	0.432749
	H298	H	0.302103	0.462528	0.436516
	H299	H	0.285838	0.415122	0.450491
	O300	O	0.538456	0.500101	0.296558
	H301	H	0.523117	0.500571	0.295366
	H302	H	0.525626	0.515018	0.295537
	O303	O	0.299053	0.315143	0.681115
	H304	H	0.320040	0.338209	0.688925
	H305	H	0.320859	0.334907	0.687825
	O306	O	0.203368	0.794053	0.974727
	H307	H	0.234415	0.779090	0.984358
	H308	H	0.203999	0.821035	0.997879
	O309	O	0.707449	0.620383	0.623694
	H310	H	0.738149	0.644759	0.634533
	H311	H	0.702190	0.618851	0.623253
	O312	O	0.339284	0.539945	0.377744
	H313	H	0.347696	0.544338	0.365910
	H314	H	0.307868	0.536598	0.369986
	O315	O	0.201794	-0.075841	1.056144
	H316	H	0.193502	-0.046532	1.049240
	H317	H	0.198837	-0.055364	1.071034
	O318	O	0.014119	1.192234	-0.044848
	H319	H	-0.009810	1.192889	-0.055950
	H320	H	0.005381	1.192812	-0.042919
	O321	O	0.587128	0.413566	0.485008
	H322	H	0.600152	0.402704	0.480708
	H323	H	0.591719	0.416614	0.479022
	O324	O	0.811404	0.179120	0.809245
	H325	H	0.800025	0.153030	0.812473
	H326	H	0.797267	0.170843	0.834581
	O327	O	0.817960	-0.021518	0.885973
	H328	H	0.809206	-0.039580	0.888756
	H329	H	0.819626	-0.026838	0.885060
	O330	O	0.960888	-0.208760	0.208921
	H331	H	0.966061	-0.231706	0.217352
	H332	H	0.957491	-0.211742	0.193772
	O333	O	0.918224	0.930921	0.786007
	H334	H	0.932074	0.932837	0.793542
	H335	H	0.922338	0.920273	0.787432
	O336	O	0.970000	0.221212	0.774379
	H337	H	0.957130	0.252037	0.745181
	H338	H	0.927967	0.211977	0.779931
	O339	O	0.286033	0.292897	0.511143
	H340	H	0.282614	0.279964	0.535981
	H341	H	0.291664	0.280641	0.533759
	O342	O	0.476117	0.401015	0.563386
	H343	H	0.479483	0.418257	0.577014
	H344	H	0.478322	0.412095	0.556268
	O345	O	0.048002	-0.160592	0.077386
	H346	H	0.052894	-0.146212	0.056671
	H347	H	0.057697	-0.159883	0.067100
	O348	O	0.778817	0.026915	0.937843
	H349	H	0.778145	0.005737	0.956088
	H350	H	0.763089	0.015693	0.931677
	O351	O	1.032526	0.920255	0.163855
	H352	H	1.016375	0.920503	0.164853
	H353	H	1.008063	0.899844	0.171588
	O354	O	0.714492	0.368237	0.515230
	H355	H	0.712754	0.363591	0.502845
	H356	H	0.726979	0.368538	0.515271
	O357	O	1.008563	1.123910	0.979212
	H358	H	0.997362	1.135018	0.981913
	H359	H	1.015457	1.121739	0.975213
	O360	O	0.466744	0.288484	0.708715
	H361	H	0.475224	0.277809	0.736713
	H362	H	0.488638	0.309023	0.724693
	O363	O	0.489247	0.496437	0.382613
	H364	H	0.499815	0.478567	0.384477
	H365	H	0.479770	0.514163	0.384316
	O366	O	1.095983	0.109624	0.795761
	H367	H	1.071154	0.112230	0.799227
	H368	H	1.081066	0.127501	0.786019
	O369	O	0.406206	0.658207	0.294509
	H370	H	0.388103	0.648207	0.303335
	H371	H	0.396810	0.664299	0.281611
	O372	O	0.517511	0.405605	0.630218
	H373	H	0.513641	0.408445	0.635258
	H374	H	0.542066	0.405550	0.625111
	O375	O	0.205794	0.980836	0.787343
	H376	H	0.222835	0.989419	0.756919
	H377	H	0.180318	1.007889	0.786163
	O378	O	0.676246	0.288400	0.283145
	H379	H	0.674423	0.295136	0.302120
	H380	H	0.656182	0.295530	0.278892
	O381	O	0.958025	-0.048933	-0.007203
	H382	H	0.967070	-0.051649	0.001601
	H383	H	0.968887	-0.042479	-0.002384
	O384	O	-0.041810	0.066771	1.196301
	H385	H	-0.034431	0.084444	1.202238
	H386	H	-0.060450	0.065190	1.189838
	O387	O	0.012227	0.788904	0.788108
	H388	H	0.057541	0.803301	0.796615
	H389	H	0.020359	0.762119	0.758767
	O390	O	0.203581	0.071385	0.939016
	H391	H	0.200303	0.095882	0.939522
	H392	H	0.199455	0.063410	0.910168
	O393	O	0.782622	0.791909	0.031613
	H394	H	0.774064	0.779422	0.056807
	H395	H	0.786942	0.773697	0.035555
	O396	O	0.267610	0.560104	0.553421
	H397	H	0.256632	0.576134	0.540811
	H398	H	0.275295	0.548648	0.560196
	O399	O	0.616920	0.308506	0.578779
	H400	H	0.611813	0.309860	0.591765
	H401	H	0.602639	0.315588	0.567006
	O402	O	-0.189133	0.185232	1.172575
	H403	H	-0.167680	0.175528	1.170319
	H404	H	-0.196683	0.189859	1.170140
	O405	O	0.212903	0.216834	0.020684
	H406	H	0.202307	0.218405	0.011737
	H407	H	0.234201	0.244515	0.015604
	O408	O	0.775491	0.829836	0.832987
	H409	H	0.796565	0.836869	0.831284
	H410	H	0.783813	0.824245	0.843931
	O411	O	0.477838	0.666548	0.536881
	H412	H	0.456817	0.659622	0.548018
	H413	H	0.480767	0.662926	0.520237
	O414	O	0.663908	0.684240	0.306518
	H415	H	0.655301	0.669508	0.333747
	H416	H	0.636185	0.666660	0.316601
	O417	O	0.496045	0.636493	0.459959
	H418	H	0.489554	0.627778	0.470503
	H419	H	0.514540	0.632573	0.459293
	O420	O	0.705607	0.448307	0.285350
	H421	H	0.690732	0.452292	0.275642
	H422	H	0.706008	0.437512	0.267028
	O423	O	-0.208570	0.815583	0.197992
	H424	H	-0.220706	0.795561	0.225170
	H425	H	-0.192931	0.812498	0.197040
	O426	O	1.015578	0.812103	1.004851
	H427	H	1.025090	0.818373	0.982998
	H428	H	1.022092	0.823390	0.997415
	O429	O	0.619728	0.703429	0.496295
	H430	H	0.616845	0.693002	0.501581
	H431	H	0.637189	0.690163	0.502072
	O432	O	0.434910	0.559505	0.711056
	H433	H	0.437955	0.560176	0.702163
	H434	H	0.443364	0.576603	0.708793
	O435	O	0.203408	0.020148	0.204638
	H436	H	0.204200	0.016363	0.219286
	H437	H	0.194523	0.013097	0.226042
	O438	O	1.016235	0.213142	0.209483
	H439	H	1.020331	0.236607	0.218630
	H440	H	1.034648	0.213484	0.202463
	O441	O	0.283597	0.479114	0.705676
	H442	H	0.265824	0.491382	0.728339
	H443	H	0.295210	0.498815	0.701789
	O444	O	0.171106	0.820605	0.813715
	H445	H	0.183904	0.872551	0.804786
	H446	H	0.184526	0.810286	0.865944
	O447	O	0.654569	0.699216	0.692152
	H448	H	0.656360	0.720839	0.699921
	H449	H	0.653227	0.686821	0.703358
	O450	O	0.614155	0.570764	0.399826
	H451	H	0.616104	0.574662	0.381105
	H452	H	0.615739	0.570359	0.407203
	O453	O	0.706391	0.525471	0.553202
	H454	H	0.717822	0.518891	0.550326
	H455	H	0.714243	0.531096	0.540314
	O456	O	0.793129	0.188949	-0.016943
	H457	H	0.787182	0.183486	-0.005234
	H458	H	0.789608	0.180428	-0.005305
	O459	O	0.425296	0.315814	0.382358
	H460	H	0.418528	0.311251	0.379965
	H461	H	0.423299	0.318129	0.403281
	O462	O	0.288343	0.711178	0.500250
	H463	H	0.296286	0.696556	0.485986
	H464	H	0.263417	0.734645	0.500348
	O465	O	0.797502	-0.027581	0.206014
	H466	H	0.787018	-0.037803	0.219071
	H467	H	0.794214	-0.049033	0.214710
