data_Molecule from HDF5

_cell_length_a		16.557992
_cell_length_b		16.561510
_cell_length_c		16.535415
_cell_angle_alpha	89.946587
_cell_angle_beta	90.195565
_cell_angle_gamma	89.963803
_symmetry_space_group_name_H-M	'P 1'
_symmetry_Int_Tables_number		1

loop_
	_symmetry_equiv_pos_as_xyz
	x,y,z

loop_
	_atom_site_label
	_atom_site_type_symbol
	_atom_site_fract_x
	_atom_site_fract_y
	_atom_site_fract_z
	H0	H	0.391908	0.847925	0.716211
	H1	H	0.600025	0.161649	0.715792
	H2	H	0.605573	0.848013	0.272128
	H3	H	0.390847	0.160521	0.273974
	H4	H	0.716434	0.399590	0.841337
	H5	H	0.724185	0.614568	0.152417
	H6	H	0.279553	0.604582	0.838873
	H7	H	0.272167	0.394822	0.152934
	H8	H	0.839174	0.728019	0.387445
	H9	H	0.152609	0.723354	0.598298
	H10	H	0.840865	0.282009	0.601912
	H11	H	0.151814	0.280426	0.389026
	H12	H	0.840179	0.399323	0.717151
	H13	H	0.153097	0.605960	0.714623
	H14	H	0.839928	0.612450	0.270875
	H15	H	0.153333	0.398857	0.275192
	H16	H	0.396243	0.720373	0.838919
	H17	H	0.606829	0.728887	0.152889
	H18	H	0.600852	0.283322	0.840617
	H19	H	0.387521	0.278407	0.152474
	H20	H	0.721933	0.849341	0.387181
	H21	H	0.716130	0.161548	0.599456
	H22	H	0.275401	0.848193	0.599496
	H23	H	0.273994	0.159767	0.389168
	H24	H	0.886182	0.349606	0.224432
	H25	H	0.104196	0.659617	0.219021
	H26	H	0.096967	0.346548	0.778476
	H27	H	0.890492	0.660030	0.775815
	H28	H	0.218620	0.897035	0.339180
	H29	H	0.216457	0.108019	0.651707
	H30	H	0.767419	0.117796	0.341653
	H31	H	0.775874	0.901821	0.652902
	H32	H	0.338986	0.223261	0.892953
	H33	H	0.652039	0.227918	0.105260
	H34	H	0.340258	0.782316	0.101660
	H35	H	0.651959	0.780391	0.889347
	H36	H	0.340971	0.897674	0.217615
	H37	H	0.651760	0.112005	0.221715
	H38	H	0.338735	0.106277	0.777134
	H39	H	0.653251	0.899476	0.775721
	H40	H	0.883411	0.232893	0.341066
	H41	H	0.099972	0.224679	0.652051
	H42	H	0.101397	0.781721	0.338967
	H43	H	0.892226	0.786170	0.653879
	H44	H	0.215419	0.346768	0.893138
	H45	H	0.219167	0.659073	0.103551
	H46	H	0.770666	0.349094	0.107537
	H47	H	0.771666	0.657880	0.889334
	H48	H	0.404807	0.117071	0.582292
	H49	H	0.590359	0.890033	0.586306
	H50	H	0.573166	0.109164	0.413444
	H51	H	0.409052	0.893749	0.407711
	H52	H	0.580846	0.415094	0.108912
	H53	H	0.580230	0.598158	0.886533
	H54	H	0.406803	0.595100	0.111215
	H55	H	0.406182	0.415735	0.885590
	H56	H	0.109044	0.601447	0.409289
	H57	H	0.880660	0.599764	0.586718
	H58	H	0.109380	0.412634	0.585283
	H59	H	0.887336	0.422495	0.410303
	H60	H	0.107327	0.416935	0.584628
	H61	H	0.883646	0.594686	0.583738
	H62	H	0.103532	0.590264	0.414080
	H63	H	0.885555	0.418176	0.408842
	H64	H	0.405616	0.593089	0.111478
	H65	H	0.591620	0.592416	0.883785
	H66	H	0.585038	0.415780	0.109540
	H67	H	0.407277	0.412775	0.885152
	H68	H	0.589664	0.115413	0.415300
	H69	H	0.582436	0.891710	0.589421
	H70	H	0.404054	0.118509	0.588172
	H71	H	0.405931	0.891684	0.408303
	H72	H	0.912943	0.612955	0.081822
	H73	H	0.085129	0.392567	0.081181
	H74	H	0.085447	0.616409	0.910378
	H75	H	0.907954	0.392217	0.908908
	H76	H	0.082645	0.916179	0.604601
	H77	H	0.085272	0.100256	0.379641
	H78	H	0.910002	0.099987	0.607998
	H79	H	0.907058	0.914978	0.382598
	H80	H	0.609781	0.090936	0.901072
	H81	H	0.387061	0.089568	0.081249
	H82	H	0.607095	0.916112	0.078765
	H83	H	0.383709	0.910533	0.909346
	H84	H	0.607040	0.921303	0.084706
	H85	H	0.385021	0.089827	0.085897
	H86	H	0.611670	0.099719	0.904844
	H87	H	0.384747	0.917810	0.904959
	H88	H	0.902079	0.089500	0.607478
	H89	H	0.089092	0.087177	0.383133
	H90	H	0.086260	0.910986	0.609013
	H91	H	0.906868	0.920531	0.385277
	H92	H	0.093537	0.619593	0.905531
	H93	H	0.088126	0.389233	0.088455
	H94	H	0.911482	0.611479	0.079379
	H95	H	0.905219	0.390174	0.908347
	H96	H	0.409265	0.116545	0.586238
	H97	H	0.584704	0.894552	0.581342
	H98	H	0.581522	0.117580	0.399887
	H99	H	0.407284	0.890630	0.405270
	H100	H	0.582784	0.419115	0.107466
	H101	H	0.581795	0.585312	0.889440
	H102	H	0.407648	0.592649	0.110157
	H103	H	0.404288	0.413539	0.884827
	H104	H	0.107858	0.590789	0.401422
	H105	H	0.880387	0.593844	0.589689
	H106	H	0.109413	0.415316	0.588690
	H107	H	0.887116	0.418773	0.413373
	H108	H	0.909673	0.612570	0.081597
	H109	H	0.080595	0.392480	0.087989
	H110	H	0.084458	0.618114	0.900418
	H111	H	0.908122	0.391034	0.905827
	H112	H	0.089928	0.917176	0.607839
	H113	H	0.076019	0.091042	0.385756
	H114	H	0.914206	0.088689	0.602117
	H115	H	0.912331	0.917540	0.384838
	H116	H	0.608375	0.092571	0.910658
	H117	H	0.385493	0.093481	0.083071
	H118	H	0.609631	0.914062	0.086270
	H119	H	0.381998	0.910249	0.901326
	C120	C	0.374589	0.013368	0.617044
	C121	C	0.617383	0.995907	0.617135
	C122	C	0.616843	0.012038	0.375206
	C123	C	0.374500	0.995084	0.373928
	C124	C	0.616157	0.383605	0.005595
	C125	C	0.619055	0.625899	0.989253
	C126	C	0.376240	0.624088	0.005954
	C127	C	0.373451	0.380904	0.988365
	C128	C	0.004065	0.627201	0.373902
	C129	C	0.986249	0.626238	0.617606
	C130	C	0.004851	0.383290	0.617756
	C131	C	0.989025	0.385021	0.376518
	C132	C	0.876050	0.510930	0.117222
	C133	C	0.117787	0.494851	0.118241
	C134	C	0.117363	0.512962	0.875334
	C135	C	0.874169	0.494576	0.875075
	C136	C	0.118415	0.881928	0.503782
	C137	C	0.116339	0.125073	0.486233
	C138	C	0.873729	0.127519	0.503701
	C139	C	0.875781	0.885257	0.487761
	C140	C	0.505217	0.124965	0.875112
	C141	C	0.488139	0.125195	0.117782
	C142	C	0.504862	0.883702	0.116438
	C143	C	0.487381	0.881492	0.873847
	C144	C	0.373200	0.895016	0.676090
	C145	C	0.618855	0.114212	0.676379
	C146	C	0.622501	0.895170	0.312749
	C147	C	0.372154	0.113095	0.313556
	C148	C	0.676582	0.381016	0.888139
	C149	C	0.682395	0.630765	0.105918
	C150	C	0.318616	0.623992	0.886542
	C151	C	0.312609	0.377313	0.105801
	C152	C	0.886351	0.688012	0.369821
	C153	C	0.105287	0.684050	0.617762
	C154	C	0.887188	0.323146	0.619648
	C155	C	0.105422	0.321867	0.371863
	C156	C	0.887186	0.381168	0.677126
	C157	C	0.105473	0.625693	0.675334
	C158	C	0.886783	0.630114	0.311987
	C159	C	0.106103	0.380950	0.315341
	C160	C	0.377023	0.681153	0.886357
	C161	C	0.623871	0.687946	0.106180
	C162	C	0.618944	0.323167	0.887911
	C163	C	0.369978	0.319041	0.105526
	C164	C	0.680587	0.895806	0.370109
	C165	C	0.676463	0.114364	0.618412
	C166	C	0.315330	0.895098	0.618074
	C167	C	0.314099	0.112944	0.371019
	C168	C	0.869642	0.395718	0.182251
	C169	C	0.121619	0.612388	0.179098
	C170	C	0.116986	0.393940	0.817312
	C171	C	0.871511	0.612458	0.815132
	C172	C	0.178495	0.879006	0.386135
	C173	C	0.176599	0.127002	0.604566
	C174	C	0.809561	0.133562	0.387676
	C175	C	0.815727	0.883159	0.605807
	C176	C	0.386416	0.183562	0.874288
	C177	C	0.605321	0.187166	0.122253
	C178	C	0.387471	0.822697	0.119413
	C179	C	0.605338	0.821255	0.871753
	C180	C	0.387603	0.880133	0.177230
	C181	C	0.605279	0.129323	0.180186
	C182	C	0.386085	0.125618	0.816458
	C183	C	0.605659	0.880037	0.814770
	C184	C	0.867103	0.191475	0.387867
	C185	C	0.118881	0.184964	0.604687
	C186	C	0.120143	0.821608	0.386095
	C187	C	0.873344	0.825339	0.606151
	C188	C	0.175494	0.394001	0.874440
	C189	C	0.178942	0.612030	0.121444
	C190	C	0.811969	0.395410	0.124152
	C191	C	0.812911	0.611674	0.871987
	C192	C	0.399018	0.095939	0.592400
	C193	C	0.592976	0.913456	0.592630
	C194	C	0.589403	0.093014	0.401838
	C195	C	0.400136	0.913225	0.399596
	C196	C	0.590363	0.409347	0.087401
	C197	C	0.592392	0.599446	0.907836
	C198	C	0.399827	0.600532	0.089155
	C199	C	0.398661	0.406711	0.906414
	C200	C	0.085574	0.601565	0.400756
	C201	C	0.903216	0.602907	0.593550
	C202	C	0.087350	0.407998	0.593140
	C203	C	0.907732	0.411962	0.403168
	C204	C	0.903686	0.591442	0.089009
	C205	C	0.091908	0.412868	0.093132
	C206	C	0.094303	0.596184	0.898704
	C207	C	0.899959	0.412500	0.900461
	C208	C	0.093282	0.907679	0.585750
	C209	C	0.090471	0.100027	0.404314
	C210	C	0.901229	0.100199	0.584754
	C211	C	0.901313	0.910420	0.405732
	C212	C	0.588146	0.101205	0.898685
	C213	C	0.406883	0.098513	0.091139
	C214	C	0.586594	0.909832	0.090616
	C215	C	0.404889	0.906007	0.898297
	Zn216	Zn	0.496436	0.004043	0.746015
	Zn217	Zn	0.496649	0.003536	0.246246
	Zn218	Zn	0.746442	0.503282	-0.002317
	Zn219	Zn	0.246087	0.503545	-0.002996
	Zn220	Zn	-0.005378	0.755084	0.495753
	Zn221	Zn	-0.004074	0.254622	0.495831
	Zn222	Zn	-0.004009	0.504303	0.746764
	Zn223	Zn	-0.003722	0.504404	0.246339
	Zn224	Zn	0.497175	0.753963	-0.002845
	Zn225	Zn	0.496206	0.253575	-0.003178
	Zn226	Zn	0.746076	0.005251	0.495162
	Zn227	Zn	0.245775	0.004336	0.494763
	N228	N	0.409203	0.969665	0.675787
	N229	N	0.582874	0.039468	0.675908
	N230	N	0.583580	0.968515	0.315621
	N231	N	0.408784	0.038659	0.315054
	N232	N	0.675110	0.417793	0.962466
	N233	N	0.679592	0.592879	0.031970
	N234	N	0.317744	0.589352	0.962038
	N235	N	0.314615	0.415160	0.031879
	N236	N	0.960440	0.686492	0.407424
	N237	N	0.029990	0.684748	0.582684
	N238	N	0.961690	0.324197	0.583311
	N239	N	0.031334	0.324237	0.408951
	N240	N	0.961321	0.417927	0.675892
	N241	N	0.030289	0.590846	0.675700
	N242	N	0.960993	0.593021	0.314269
	N243	N	0.032673	0.419533	0.318171
	N244	N	0.411814	0.681660	0.961807
	N245	N	0.585215	0.685141	0.032700
	N246	N	0.582339	0.324496	0.962215
	N247	N	0.407274	0.321210	0.031531
	N248	N	0.677411	0.969547	0.407865
	N249	N	0.675706	0.039835	0.582277
	N250	N	0.316066	0.969782	0.582063
	N251	N	0.315111	0.038480	0.407570
	N252	N	0.908675	0.468724	0.178081
	N253	N	0.084199	0.538310	0.177463
	N254	N	0.081659	0.468989	0.817844
	N255	N	0.908933	0.538598	0.816854
	N256	N	0.177627	0.915790	0.460444
	N257	N	0.175246	0.090452	0.529978
	N258	N	0.813651	0.094135	0.460841
	N259	N	0.816836	0.919462	0.531077
	N260	N	0.461338	0.183500	0.909731
	N261	N	0.531335	0.184767	0.084327
	N262	N	0.461675	0.824538	0.082587
	N263	N	0.530627	0.821829	0.907708
	N264	N	0.461727	0.917275	0.175690
	N265	N	0.531478	0.091508	0.177667
	N266	N	0.461057	0.089924	0.816727
	N267	N	0.531370	0.916850	0.815897
	N268	N	0.906407	0.187689	0.460922
	N269	N	0.082154	0.183865	0.530139
	N270	N	0.083435	0.823289	0.460322
	N271	N	0.909884	0.826447	0.531636
	N272	N	0.176040	0.469033	0.909794
	N273	N	0.176783	0.537925	0.084395
	N274	N	0.815962	0.468146	0.084438
	N275	N	0.814222	0.537206	0.908519
	O276	O	0.959392	1.193913	-0.196667
	H277	H	0.968229	1.195210	-0.192067
	H278	H	0.971846	1.197661	-0.185498
	O279	O	0.003741	-0.183939	0.981886
	H280	H	-0.005326	-0.175935	0.972981
	H281	H	-0.005029	-0.175252	0.989477
	O282	O	0.469448	0.515553	0.276510
	H283	H	0.456946	0.484211	0.274746
	H284	H	0.497961	0.507237	0.273968
	O285	O	0.556302	0.449018	0.586648
	H286	H	0.552423	0.456190	0.593279
	H287	H	0.558046	0.453609	0.584780
	O288	O	1.372702	-0.505604	1.471992
	H289	H	1.365439	-0.537958	1.448610
	H290	H	1.355249	-0.473166	1.462742
	O291	O	0.334613	0.699844	0.656147
	H292	H	0.344880	0.687540	0.643778
	H293	H	0.343363	0.682124	0.644138
	O294	O	0.086574	0.089457	-0.128329
	H295	H	0.085936	0.091228	-0.125544
	H296	H	0.077231	0.074754	-0.136580
	O297	O	1.104646	0.219455	-0.017883
	H298	H	1.104133	0.227244	-0.004881
	H299	H	1.117216	0.207101	-0.015408
	O300	O	0.195441	-0.036375	-0.213446
	H301	H	0.201982	-0.024370	-0.216830
	H302	H	0.205074	-0.043556	-0.217193
	O303	O	-0.026624	-0.169360	0.043900
	H304	H	0.001180	-0.165855	0.046204
	H305	H	-0.013319	-0.177705	0.034661
	O306	O	0.780697	-0.213346	0.017662
	H307	H	0.792658	-0.226214	0.017023
	H308	H	0.768650	-0.227884	0.028070
	O309	O	0.675718	0.326361	0.673392
	H310	H	0.679896	0.337946	0.667330
	H311	H	0.695783	0.302509	0.689769
	O312	O	0.559729	0.505362	0.642895
	H313	H	0.570949	0.497055	0.651276
	H314	H	0.557438	0.508466	0.642158
	O315	O	0.559382	0.675662	0.432997
	H316	H	0.561559	0.662176	0.433553
	H317	H	0.570231	0.680861	0.440610
	O318	O	1.028140	0.784038	-0.223066
	H319	H	1.050913	0.779547	-0.231696
	H320	H	1.051899	0.769524	-0.240587
	O321	O	0.003696	0.964427	0.809716
	H322	H	0.003332	0.961189	0.808469
	H323	H	0.006440	0.942661	0.795972
	O324	O	0.969027	-0.212720	1.214815
	H325	H	0.978557	-0.232647	1.227006
	H326	H	0.960496	-0.215637	1.219292
	O327	O	0.203943	0.796446	0.785305
	H328	H	0.232997	0.778656	0.764074
	H329	H	0.206050	0.813557	0.814128
	O330	O	0.207867	0.220821	0.209268
	H331	H	0.206860	0.219300	0.191069
	H332	H	0.194554	0.216943	0.221538
	O333	O	0.715593	0.741004	0.727681
	H334	H	0.707740	0.734099	0.741208
	H335	H	0.728250	0.735428	0.731363
	O336	O	0.638345	0.495886	0.509253
	H337	H	0.640208	0.492802	0.534930
	H338	H	0.631429	0.485981	0.502584
	O339	O	0.580785	0.423026	0.481222
	H340	H	0.577236	0.425317	0.473196
	H341	H	0.592379	0.410717	0.466879
	O342	O	-0.204833	1.051354	-0.220546
	H343	H	-0.199596	1.076259	-0.225346
	H344	H	-0.223260	1.046110	-0.233671
	O345	O	0.522653	0.521095	0.477287
	H346	H	0.510559	0.521835	0.482141
	H347	H	0.518493	0.536478	0.477790
	O348	O	0.279723	0.425260	0.427374
	H349	H	0.274789	0.406143	0.420352
	H350	H	0.284460	0.418403	0.429885
	O351	O	0.071313	-0.115746	1.140259
	H352	H	0.088575	-0.113762	1.123281
	H353	H	0.068011	-0.111382	1.139904
	O354	O	1.180467	0.110339	0.888002
	H355	H	1.154956	0.101116	0.892203
	H356	H	1.182333	0.098601	0.911904
	O357	O	0.471920	0.717457	0.278179
	H358	H	0.489959	0.720383	0.284618
	H359	H	0.479988	0.737362	0.270339
	O360	O	0.826354	0.839375	0.848717
	H361	H	0.841579	0.838340	0.873061
	H362	H	0.826611	0.850601	0.839894
	O363	O	0.713445	0.720180	0.527745
	H364	H	0.711804	0.717905	0.544181
	H365	H	0.735260	0.730624	0.529260
	O366	O	0.461376	0.286996	0.495868
	H367	H	0.446530	0.286208	0.523142
	H368	H	0.478116	0.289423	0.496132
	O369	O	-0.036154	0.098143	0.930629
	H370	H	-0.041615	0.101037	0.931860
	H371	H	-0.037568	0.089640	0.937389
	O372	O	0.109122	1.143846	1.081996
	H373	H	0.131856	1.158793	1.086176
	H374	H	0.114939	1.131949	1.084810
	O375	O	1.143636	-0.008459	0.022042
	H376	H	1.136603	-0.014147	0.024931
	H377	H	1.138917	-0.014641	0.007026
	O378	O	0.679860	0.398549	0.307313
	H379	H	0.677051	0.413126	0.303573
	H380	H	0.678762	0.396712	0.335388
	O381	O	0.383280	0.686165	0.379904
	H382	H	0.378921	0.670156	0.404131
	H383	H	0.409189	0.691924	0.377751
	O384	O	0.282288	0.298536	0.543822
	H385	H	0.279629	0.296362	0.541497
	H386	H	0.275682	0.296026	0.563405
	O387	O	-0.049325	1.215225	1.049903
	H388	H	-0.055906	1.221098	1.074656
	H389	H	-0.046308	1.211629	1.039454
	O390	O	0.218805	0.778894	0.952857
	H391	H	0.243419	0.749249	0.957249
	H392	H	0.203668	0.780614	0.956389
	O393	O	1.020973	0.221425	0.215885
	H394	H	1.005648	0.205871	0.227093
	H395	H	1.030044	0.235684	0.237799
	O396	O	0.455234	0.302129	0.707815
	H397	H	0.440893	0.295974	0.703845
	H398	H	0.447064	0.286832	0.729746
	O399	O	0.392216	0.393615	0.295217
	H400	H	0.399600	0.395052	0.292881
	H401	H	0.389345	0.395585	0.309262
	O402	O	0.794839	0.211466	0.788400
	H403	H	0.801394	0.203675	0.819279
	H404	H	0.825950	0.208780	0.801439
	O405	O	0.497197	0.527476	0.648398
	H406	H	0.497288	0.529036	0.644199
	H407	H	0.507193	0.513478	0.655237
	O408	O	0.793118	0.981446	0.920544
	H409	H	0.798451	0.982951	0.922372
	H410	H	0.786238	0.989204	0.901307
	O411	O	0.779507	0.988212	0.217524
	H412	H	0.773843	0.969096	0.217483
	H413	H	0.766074	0.993935	0.231303
	O414	O	-0.208227	0.097962	0.080759
	H415	H	-0.200844	0.100210	0.090440
	H416	H	-0.207833	0.065092	0.065261
	O417	O	0.813177	0.227838	0.209123
	H418	H	0.816927	0.236160	0.208433
	H419	H	0.802557	0.218734	0.227662
	O420	O	0.956431	-0.029745	1.006147
	H421	H	0.951753	-0.026889	0.998506
	H422	H	0.969257	-0.038991	1.004636
	O423	O	1.182383	1.011222	0.000547
	H424	H	1.178811	0.999430	0.004775
	H425	H	1.195641	1.003823	0.013237
	O426	O	0.536225	0.455529	0.701253
	H427	H	0.534074	0.452336	0.701759
	H428	H	0.533646	0.443703	0.703960
	O429	O	0.296135	0.559191	0.291163
	H430	H	0.313320	0.572383	0.288960
	H431	H	0.284158	0.542382	0.272201
	O432	O	0.790161	0.220550	0.975558
	H433	H	0.801347	0.213871	1.000484
	H434	H	0.760245	0.239025	0.983416
	O435	O	0.518850	0.709216	0.705632
	H436	H	0.523868	0.720079	0.726534
	H437	H	0.523073	0.705678	0.695082
	O438	O	0.815708	0.834112	0.174036
	H439	H	0.819848	0.823915	0.153959
	H440	H	0.834402	0.859594	0.175654
	O441	O	0.468152	0.541303	0.589713
	H442	H	0.458859	0.534138	0.603165
	H443	H	0.467883	0.525439	0.589527
	O444	O	0.677380	0.559630	0.453831
	H445	H	0.685628	0.569938	0.462722
	H446	H	0.676120	0.550346	0.456592
	O447	O	0.699963	0.303439	0.480236
	H448	H	0.692762	0.319333	0.494655
	H449	H	0.717937	0.286240	0.482265
	O450	O	1.122708	-0.195527	0.135175
	H451	H	1.122154	-0.194128	0.143767
	H452	H	1.136199	-0.199502	0.135878
	O453	O	0.494364	0.284842	0.331710
	H454	H	0.512809	0.296866	0.340928
	H455	H	0.501539	0.264628	0.318722
	O456	O	0.215683	1.032387	1.218486
	H457	H	0.201068	1.047568	1.206281
	H458	H	0.249678	1.036330	1.252735
	O459	O	0.645878	0.516944	0.274164
	H460	H	0.649529	0.514105	0.293333
	H461	H	0.665274	0.530670	0.247885
	O462	O	0.294337	0.704199	0.463045
	H463	H	0.289824	0.708697	0.467223
	H464	H	0.295422	0.703014	0.447215
	O465	O	0.461508	0.732176	0.525032
	H466	H	0.461881	0.728389	0.533863
	H467	H	0.470319	0.735167	0.521088
	O468	O	0.030127	0.980868	0.172258
	H469	H	0.023044	0.967778	0.175111
	H470	H	0.026194	0.973401	0.181297
	O471	O	0.283474	0.473968	0.706314
	H472	H	0.282802	0.467349	0.698262
	H473	H	0.278029	0.480411	0.719876
	O474	O	1.091705	1.013998	0.011370
	H475	H	1.091117	1.020470	0.026268
	H476	H	1.090947	0.996629	0.011368
	O477	O	0.279745	0.290704	0.712354
	H478	H	0.272499	0.292966	0.694779
	H479	H	0.274815	0.282714	0.732283
