data_Molecule from HDF5

_cell_length_a		16.225162
_cell_length_b		16.293359
_cell_length_c		16.255207
_cell_angle_alpha	90.243496
_cell_angle_beta	90.046727
_cell_angle_gamma	89.684958
_symmetry_space_group_name_H-M	'P 1'
_symmetry_Int_Tables_number		1

loop_
	_symmetry_equiv_pos_as_xyz
	x,y,z

loop_
	_atom_site_label
	_atom_site_type_symbol
	_atom_site_fract_x
	_atom_site_fract_y
	_atom_site_fract_z
	H0	H	0.412590	0.836450	0.710890
	H1	H	0.607199	0.164175	0.712618
	H2	H	0.610247	0.837190	0.281978
	H3	H	0.409924	0.164196	0.282162
	H4	H	0.726982	0.400686	0.833008
	H5	H	0.726121	0.597724	0.161136
	H6	H	0.298079	0.597295	0.833589
	H7	H	0.299584	0.402593	0.161656
	H8	H	0.846943	0.715132	0.396625
	H9	H	0.175295	0.714899	0.596112
	H10	H	0.846591	0.287363	0.595647
	H11	H	0.174386	0.281410	0.396850
	H12	H	0.847652	0.402762	0.712156
	H13	H	0.175938	0.599533	0.711038
	H14	H	0.847137	0.597601	0.282636
	H15	H	0.176062	0.399396	0.283018
	H16	H	0.410960	0.714767	0.834162
	H17	H	0.611383	0.715013	0.160546
	H18	H	0.612949	0.283457	0.833840
	H19	H	0.414956	0.286506	0.161076
	H20	H	0.725751	0.837218	0.398092
	H21	H	0.723114	0.164967	0.595770
	H22	H	0.298191	0.835960	0.593523
	H23	H	0.293381	0.163572	0.397930
	H24	H	0.914506	0.335540	0.210548
	H25	H	0.110705	0.662455	0.213534
	H26	H	0.112659	0.336519	0.780942
	H27	H	0.912988	0.664507	0.783763
	H28	H	0.225457	0.900106	0.332591
	H29	H	0.224105	0.097932	0.661215
	H30	H	0.796699	0.097533	0.332818
	H31	H	0.799080	0.904607	0.661448
	H32	H	0.348498	0.216928	0.897095
	H33	H	0.676060	0.212762	0.096424
	H34	H	0.347866	0.785820	0.095969
	H35	H	0.675829	0.784108	0.897255
	H36	H	0.346705	0.903869	0.210077
	H37	H	0.674843	0.099260	0.212792
	H38	H	0.346103	0.098716	0.784295
	H39	H	0.674764	0.900810	0.782689
	H40	H	0.909836	0.215088	0.333420
	H41	H	0.108703	0.214471	0.661088
	H42	H	0.109662	0.785031	0.332702
	H43	H	0.912784	0.786899	0.660746
	H44	H	0.227265	0.335869	0.898943
	H45	H	0.225943	0.663579	0.096069
	H46	H	0.798564	0.336265	0.095081
	H47	H	0.795986	0.663101	0.898922
	H48	H	0.411449	0.118667	0.591552
	H49	H	0.611103	0.883428	0.587836
	H50	H	0.605201	0.117833	0.404502
	H51	H	0.417673	0.883094	0.400986
	H52	H	0.601303	0.407240	0.112546
	H53	H	0.607948	0.592069	0.879364
	H54	H	0.417002	0.585418	0.113135
	H55	H	0.416781	0.413438	0.881698
	H56	H	0.127626	0.579337	0.394147
	H57	H	0.896897	0.588964	0.588800
	H58	H	0.129985	0.403706	0.594543
	H59	H	0.896091	0.405353	0.411924
	H60	H	0.127806	0.402502	0.582859
	H61	H	0.892367	0.595433	0.597305
	H62	H	0.133219	0.607026	0.399994
	H63	H	0.896240	0.415661	0.400163
	H64	H	0.427417	0.596928	0.112678
	H65	H	0.603116	0.588976	0.881440
	H66	H	0.606857	0.400730	0.115498
	H67	H	0.428442	0.407533	0.882959
	H68	H	0.600332	0.117323	0.402846
	H69	H	0.603703	0.882535	0.596577
	H70	H	0.420557	0.116826	0.594580
	H71	H	0.421064	0.885481	0.402291
	H72	H	0.920751	0.616278	0.095700
	H73	H	0.111308	0.384767	0.078833
	H74	H	0.100650	0.614758	0.904798
	H75	H	0.932821	0.387561	0.904482
	H76	H	0.095605	0.897167	0.614118
	H77	H	0.103597	0.088097	0.381555
	H78	H	0.921956	0.092225	0.612166
	H79	H	0.909094	0.905680	0.376465
	H80	H	0.624652	0.085371	0.912129
	H81	H	0.395285	0.095323	0.087144
	H82	H	0.629639	0.901125	0.088804
	H83	H	0.394466	0.902888	0.906171
	H84	H	0.625224	0.910360	0.084942
	H85	H	0.394371	0.092770	0.090603
	H86	H	0.630037	0.087128	0.894539
	H87	H	0.395404	0.910237	0.907576
	H88	H	0.916502	0.101106	0.616483
	H89	H	0.098409	0.090205	0.382257
	H90	H	0.116266	0.905032	0.617975
	H91	H	0.921126	0.916133	0.384202
	H92	H	0.109419	0.616883	0.907226
	H93	H	0.113759	0.378496	0.098217
	H94	H	0.922712	0.614297	0.085871
	H95	H	0.912672	0.383613	0.912476
	H96	H	0.417766	0.114192	0.585246
	H97	H	0.599731	0.886739	0.586109
	H98	H	0.602015	0.115661	0.407540
	H99	H	0.417446	0.884073	0.404836
	H100	H	0.610136	0.409746	0.113673
	H101	H	0.601859	0.595258	0.879908
	H102	H	0.413138	0.599186	0.117951
	H103	H	0.417021	0.400088	0.877704
	H104	H	0.122984	0.590416	0.420780
	H105	H	0.893763	0.599837	0.586566
	H106	H	0.126443	0.413077	0.588346
	H107	H	0.891087	0.400967	0.397717
	H108	H	0.913949	0.617450	0.088837
	H109	H	0.095336	0.386180	0.091963
	H110	H	0.106421	0.618913	0.897979
	H111	H	0.916797	0.379812	0.890244
	H112	H	0.100902	0.917762	0.609014
	H113	H	0.102145	0.093453	0.380027
	H114	H	0.911272	0.092041	0.614654
	H115	H	0.924569	0.899203	0.379534
	H116	H	0.630559	0.101316	0.906228
	H117	H	0.392795	0.096810	0.091056
	H118	H	0.629566	0.909231	0.095173
	H119	H	0.393636	0.907386	0.900337
	C120	C	0.388932	0.008447	0.618459
	C121	C	0.632671	0.992218	0.619251
	C122	C	0.632167	0.009325	0.375246
	C123	C	0.388572	0.992214	0.374486
	C124	C	0.634946	0.377062	0.005664
	C125	C	0.633303	0.620626	0.988640
	C126	C	0.390468	0.621630	0.006161
	C127	C	0.392170	0.378996	0.989271
	C128	C	0.019387	0.620952	0.375931
	C129	C	1.003011	0.622813	0.618915
	C130	C	0.019358	0.378787	0.617842
	C131	C	1.002699	0.377333	0.374705
	C132	C	0.891047	0.507771	0.118280
	C133	C	0.134455	0.491037	0.119032
	C134	C	0.134494	0.508367	0.874747
	C135	C	0.890949	0.491933	0.874794
	C136	C	0.133033	0.877604	0.505141
	C137	C	0.130920	0.120335	0.489132
	C138	C	0.888195	0.122680	0.505689
	C139	C	0.889701	0.879204	0.488308
	C140	C	0.519799	0.120776	0.875667
	C141	C	0.502754	0.122308	0.118761
	C142	C	0.519919	0.879014	0.118212
	C143	C	0.502675	0.877727	0.875420
	C144	C	0.391838	0.885218	0.673184
	C145	C	0.628973	0.115336	0.674974
	C146	C	0.630260	0.886028	0.319765
	C147	C	0.389800	0.115364	0.319897
	C148	C	0.689528	0.380040	0.882190
	C149	C	0.688485	0.618280	0.112141
	C150	C	0.335247	0.618636	0.882895
	C151	C	0.337230	0.381906	0.112566
	C152	C	0.896025	0.676693	0.377272
	C153	C	0.126437	0.677326	0.616258
	C154	C	0.895583	0.325102	0.615739
	C155	C	0.125800	0.320441	0.377022
	C156	C	0.896091	0.382462	0.673476
	C157	C	0.126635	0.620027	0.673686
	C158	C	0.896119	0.618441	0.320229
	C159	C	0.126525	0.378674	0.320082
	C160	C	0.391784	0.676701	0.883036
	C161	C	0.631731	0.676585	0.111838
	C162	C	0.632943	0.321585	0.882550
	C163	C	0.394910	0.324655	0.112449
	C164	C	0.687653	0.886009	0.377490
	C165	C	0.686141	0.115746	0.616490
	C166	C	0.335306	0.884897	0.614494
	C167	C	0.331749	0.114908	0.377303
	C168	C	0.893594	0.384617	0.173160
	C169	C	0.131330	0.614012	0.175053
	C170	C	0.133002	0.385475	0.818937
	C171	C	0.892782	0.615353	0.821147
	C172	C	0.187664	0.880095	0.381619
	C173	C	0.186606	0.118686	0.612136
	C174	C	0.833390	0.119155	0.382020
	C175	C	0.835799	0.883183	0.612154
	C176	C	0.396796	0.177722	0.877675
	C177	C	0.626610	0.175831	0.116563
	C178	C	0.396398	0.824014	0.116095
	C179	C	0.626617	0.822508	0.877619
	C180	C	0.395925	0.882491	0.172790
	C181	C	0.626116	0.119422	0.174579
	C182	C	0.395618	0.119062	0.821439
	C183	C	0.626041	0.880057	0.820079
	C184	C	0.890228	0.176908	0.382249
	C185	C	0.129101	0.176325	0.612207
	C186	C	0.130433	0.822415	0.381836
	C187	C	0.892448	0.824902	0.611819
	C188	C	0.189975	0.385196	0.877583
	C189	C	0.188568	0.614504	0.116844
	C190	C	0.836233	0.384821	0.115589
	C191	C	0.834767	0.614542	0.878464
	C192	C	0.410348	0.094400	0.596978
	C193	C	0.611064	0.906576	0.596831
	C194	C	0.609184	0.094915	0.398101
	C195	C	0.411935	0.906402	0.396349
	C196	C	0.612641	0.399225	0.091678
	C197	C	0.610849	0.598649	0.902633
	C198	C	0.412783	0.600224	0.092316
	C199	C	0.414418	0.400545	0.903055
	C200	C	0.105892	0.598954	0.398446
	C201	C	0.916775	0.601191	0.597333
	C202	C	0.105560	0.400142	0.595280
	C203	C	0.916661	0.400414	0.396724
	C204	C	0.912806	0.593587	0.096478
	C205	C	0.112944	0.405251	0.096443
	C206	C	0.112172	0.594515	0.896819
	C207	C	0.914247	0.405931	0.896051
	C208	C	0.110945	0.899999	0.591377
	C209	C	0.108116	0.097365	0.403387
	C210	C	0.910175	0.101453	0.592051
	C211	C	0.911619	0.900539	0.402327
	C212	C	0.606064	0.097879	0.897673
	C213	C	0.416596	0.101172	0.096332
	C214	C	0.605798	0.900701	0.096234
	C215	C	0.416684	0.900314	0.898070
	Zn216	Zn	0.510061	-0.000431	0.747406
	Zn217	Zn	0.510679	0.000842	0.246507
	Zn218	Zn	0.762416	0.499513	-0.002937
	Zn219	Zn	0.262937	0.499901	-0.002415
	Zn220	Zn	0.010837	0.750164	0.496965
	Zn221	Zn	0.010039	0.249997	0.497243
	Zn222	Zn	0.012058	0.500128	0.746080
	Zn223	Zn	0.011843	0.499106	0.247179
	Zn224	Zn	0.511831	0.749884	-0.002825
	Zn225	Zn	0.512597	0.249189	-0.003118
	Zn226	Zn	0.761106	0.000690	0.497055
	Zn227	Zn	0.260325	-0.000359	0.496544
	N228	N	0.424805	0.962877	0.675448
	N229	N	0.596520	0.037559	0.676921
	N230	N	0.596433	0.963732	0.318202
	N231	N	0.424529	0.038082	0.318050
	N232	N	0.690853	0.413809	0.959802
	N233	N	0.689520	0.584057	0.034562
	N234	N	0.334388	0.584985	0.960253
	N235	N	0.335458	0.414963	0.034841
	N236	N	0.973863	0.678214	0.411171
	N237	N	0.048433	0.679401	0.583015
	N238	N	0.973224	0.322964	0.581950
	N239	N	0.047686	0.319437	0.410023
	N240	N	0.974126	0.415314	0.674799
	N241	N	0.049024	0.586467	0.675204
	N242	N	0.973777	0.584394	0.319488
	N243	N	0.049184	0.413560	0.318802
	N244	N	0.425434	0.678784	0.960785
	N245	N	0.598189	0.678129	0.034200
	N246	N	0.599418	0.319825	0.960247
	N247	N	0.428243	0.322643	0.034611
	N248	N	0.688889	0.963484	0.411374
	N249	N	0.688672	0.038329	0.582524
	N250	N	0.333306	0.962504	0.581267
	N251	N	0.330884	0.037225	0.410330
	N252	N	0.927106	0.462034	0.174820
	N253	N	0.098905	0.536244	0.176823
	N254	N	0.099084	0.463059	0.817121
	N255	N	0.927208	0.537889	0.818761
	N256	N	0.189494	0.913521	0.459525
	N257	N	0.187708	0.084487	0.534678
	N258	N	0.832544	0.085713	0.459665
	N259	N	0.833904	0.916030	0.534396
	N260	N	0.474986	0.178840	0.910646
	N261	N	0.548919	0.177821	0.082559
	N262	N	0.474445	0.821559	0.082998
	N263	N	0.548816	0.820669	0.911055
	N264	N	0.473389	0.916328	0.173842
	N265	N	0.548121	0.086920	0.176110
	N266	N	0.473082	0.084358	0.820197
	N267	N	0.548047	0.913652	0.818590
	N268	N	0.923345	0.179350	0.460121
	N269	N	0.095167	0.177482	0.534552
	N270	N	0.096877	0.821048	0.459553
	N271	N	0.925629	0.822471	0.534061
	N272	N	0.191093	0.462721	0.911527
	N273	N	0.190519	0.537098	0.082502
	N274	N	0.834565	0.462255	0.082180
	N275	N	0.833469	0.536799	0.910950
	O276	O	1.099589	1.015828	0.059915
	H277	H	1.111362	1.012829	0.058460
	H278	H	1.098994	1.007211	0.059994
	O279	O	0.032015	0.003271	0.921095
	H280	H	0.039664	0.010084	0.919392
	H281	H	0.024470	0.010195	0.910385
	O282	O	0.024844	0.062191	0.082295
	H283	H	0.026215	0.067015	0.080630
	H284	H	0.024009	0.076532	0.077731
	O285	O	0.552999	0.493186	0.462773
	H286	H	0.549550	0.500726	0.467127
	H287	H	0.556515	0.491397	0.474012
	O288	O	0.000888	0.041501	-0.015836
	H289	H	0.003253	0.030073	-0.010695
	H290	H	-0.001787	0.043661	-0.021055
	O291	O	0.086698	0.986371	0.005930
	H292	H	0.089380	0.986141	0.011669
	H293	H	0.095424	0.984547	0.005783
	O294	O	0.003801	0.950641	0.043635
	H295	H	0.004481	0.943966	0.036234
	H296	H	-0.007173	0.958085	0.040099
	O297	O	0.499047	0.499827	0.518685
	H298	H	0.497804	0.496132	0.504489
	H299	H	0.496103	0.515683	0.517862
	O300	O	0.552075	0.504987	0.487493
	H301	H	0.555036	0.507599	0.483992
	H302	H	0.551864	0.511894	0.477104
	O303	O	0.468021	-0.493078	1.508966
	H304	H	0.464625	-0.488475	1.505823
	H305	H	0.472622	-0.496660	1.508866
	O306	O	-0.034126	1.072598	0.948136
	H307	H	-0.041752	1.079043	0.946590
	H308	H	-0.041617	1.080543	0.941051
	O309	O	0.035251	0.978237	0.971492
	H310	H	0.030663	0.986272	0.975780
	H311	H	0.038236	0.977834	0.965764
	O312	O	0.029246	-0.025397	0.914735
	H313	H	0.029080	-0.024031	0.917828
	H314	H	0.029494	-0.029669	0.915306
	O315	O	0.452885	0.511231	0.521715
	H316	H	0.453356	0.498277	0.507997
	H317	H	0.441428	0.493623	0.527437
	O318	O	0.024594	-0.020682	1.070933
	H319	H	0.029498	-0.017730	1.071118
	H320	H	0.025479	-0.025838	1.072872
	O321	O	0.441681	0.496980	0.585155
	H322	H	0.440055	0.486337	0.600479
	H323	H	0.440605	0.491017	0.584125
	O324	O	1.040258	-0.059974	1.026496
	H325	H	1.044682	-0.066492	1.024762
	H326	H	1.030850	-0.058648	1.016322
	O327	O	1.018899	1.032063	1.033533
	H328	H	1.028973	1.017920	1.037671
	H329	H	1.023457	1.031229	1.041367
	O330	O	0.438281	0.433459	0.588328
	H331	H	0.450896	0.428169	0.591063
	H332	H	0.447498	0.428812	0.584228
	O333	O	0.493057	0.480243	0.470534
	H334	H	0.498612	0.496138	0.475405
	H335	H	0.494426	0.478154	0.465934
	O336	O	0.513084	0.532287	0.474490
	H337	H	0.503636	0.532874	0.492099
	H338	H	0.516010	0.545458	0.467913
	O339	O	-0.472649	0.537026	-0.565349
	H340	H	-0.480552	0.539009	-0.572883
	H341	H	-0.474198	0.543844	-0.561449
	O342	O	0.491380	0.593636	0.449354
	H343	H	0.493384	0.602161	0.447146
	H344	H	0.483686	0.586450	0.442013
	O345	O	0.497915	0.540201	0.489340
	H346	H	0.497138	0.547288	0.482378
	H347	H	0.497880	0.529430	0.480480
