data_Molecule from HDF5

_cell_length_a		16.259104
_cell_length_b		16.291076
_cell_length_c		16.316018
_cell_angle_alpha	89.984851
_cell_angle_beta	89.939323
_cell_angle_gamma	90.034902
_symmetry_space_group_name_H-M	'P 1'
_symmetry_Int_Tables_number		1

loop_
	_symmetry_equiv_pos_as_xyz
	x,y,z

loop_
	_atom_site_label
	_atom_site_type_symbol
	_atom_site_fract_x
	_atom_site_fract_y
	_atom_site_fract_z
	H0	H	0.414824	0.843336	0.720203
	H1	H	0.612522	0.170012	0.719071
	H2	H	0.613216	0.843953	0.288902
	H3	H	0.414148	0.170584	0.289943
	H4	H	0.727725	0.409229	0.840520
	H5	H	0.726678	0.604490	0.167651
	H6	H	0.298152	0.604987	0.840813
	H7	H	0.298664	0.407741	0.167805
	H8	H	0.850063	0.720646	0.406626
	H9	H	0.176594	0.721645	0.603729
	H10	H	0.849277	0.292024	0.602209
	H11	H	0.177554	0.292653	0.406966
	H12	H	0.849492	0.407653	0.718600
	H13	H	0.177136	0.605584	0.719223
	H14	H	0.849220	0.604378	0.291394
	H15	H	0.177061	0.407238	0.289686
	H16	H	0.414446	0.720662	0.839673
	H17	H	0.611553	0.721807	0.167221
	H18	H	0.612321	0.292451	0.840503
	H19	H	0.414050	0.291218	0.167054
	H20	H	0.727853	0.842790	0.405831
	H21	H	0.727677	0.170368	0.601054
	H22	H	0.298449	0.842772	0.604554
	H23	H	0.300105	0.170377	0.407169
	H24	H	0.916001	0.343052	0.218338
	H25	H	0.113823	0.669673	0.220273
	H26	H	0.112104	0.342755	0.789440
	H27	H	0.912955	0.669654	0.789092
	H28	H	0.227950	0.908302	0.340374
	H29	H	0.229022	0.104602	0.667478
	H30	H	0.800717	0.103889	0.340285
	H31	H	0.798051	0.907920	0.667360
	H32	H	0.349562	0.221432	0.904938
	H33	H	0.677666	0.220673	0.101259
	H34	H	0.348663	0.794210	0.100284
	H35	H	0.676681	0.792052	0.903701
	H36	H	0.349580	0.908169	0.219123
	H37	H	0.677221	0.105546	0.218055
	H38	H	0.350128	0.106379	0.788020
	H39	H	0.676526	0.908001	0.789064
	H40	H	0.916447	0.219816	0.341297
	H41	H	0.112341	0.220718	0.668322
	H42	H	0.112017	0.791993	0.341336
	H43	H	0.914217	0.792569	0.668027
	H44	H	0.226684	0.342158	0.907578
	H45	H	0.227179	0.670617	0.102122
	H46	H	0.798564	0.342981	0.103124
	H47	H	0.799211	0.669763	0.906924
	H48	H	0.429275	0.120687	0.599663
	H49	H	0.604763	0.890107	0.598049
	H50	H	0.602717	0.120881	0.415442
	H51	H	0.424655	0.892146	0.414963
	H52	H	0.605725	0.413918	0.120197
	H53	H	0.607213	0.600254	0.887143
	H54	H	0.419446	0.593732	0.118010
	H55	H	0.416835	0.405325	0.884270
	H56	H	0.132205	0.605845	0.412494
	H57	H	0.893992	0.609327	0.595472
	H58	H	0.131787	0.412371	0.600987
	H59	H	0.900898	0.415015	0.423717
	H60	H	0.129596	0.411305	0.594763
	H61	H	0.900945	0.592886	0.589188
	H62	H	0.127385	0.594844	0.416756
	H63	H	0.897474	0.422776	0.402585
	H64	H	0.426787	0.604596	0.119810
	H65	H	0.606815	0.598871	0.888501
	H66	H	0.605439	0.411585	0.120506
	H67	H	0.414390	0.422534	0.889157
	H68	H	0.615080	0.124613	0.412483
	H69	H	0.605815	0.890228	0.595967
	H70	H	0.420221	0.119751	0.588201
	H71	H	0.415923	0.889079	0.411227
	H72	H	0.929295	0.618395	0.092251
	H73	H	0.110089	0.390000	0.096934
	H74	H	0.112534	0.624073	0.911285
	H75	H	0.922901	0.387721	0.901513
	H76	H	0.116510	0.916464	0.622291
	H77	H	0.110078	0.105117	0.386183
	H78	H	0.909132	0.095222	0.622735
	H79	H	0.928476	0.913363	0.390237
	H80	H	0.629842	0.103843	0.913374
	H81	H	0.395215	0.103412	0.100053
	H82	H	0.629908	0.917909	0.100486
	H83	H	0.395702	0.911158	0.908886
	H84	H	0.631430	0.909008	0.098080
	H85	H	0.398184	0.099855	0.091049
	H86	H	0.628448	0.096478	0.912746
	H87	H	0.396382	0.912494	0.913824
	H88	H	0.928130	0.092092	0.615597
	H89	H	0.110838	0.095738	0.388320
	H90	H	0.100407	0.921112	0.616731
	H91	H	0.918006	0.906516	0.385269
	H92	H	0.101924	0.623498	0.905075
	H93	H	0.105234	0.389482	0.101802
	H94	H	0.909569	0.624924	0.093461
	H95	H	0.927806	0.393576	0.917566
	H96	H	0.415675	0.125915	0.600659
	H97	H	0.606714	0.890685	0.597779
	H98	H	0.605675	0.125194	0.402811
	H99	H	0.423942	0.889510	0.405579
	H100	H	0.608208	0.412395	0.120800
	H101	H	0.605900	0.600025	0.887500
	H102	H	0.413860	0.604746	0.122993
	H103	H	0.430083	0.415715	0.891568
	H104	H	0.131187	0.596111	0.405030
	H105	H	0.895030	0.594284	0.607468
	H106	H	0.129175	0.417165	0.597134
	H107	H	0.892380	0.401222	0.408028
	H108	H	0.922025	0.625926	0.110065
	H109	H	0.104035	0.391926	0.095495
	H110	H	0.102730	0.619646	0.916589
	H111	H	0.911586	0.388152	0.914545
	H112	H	0.103425	0.904741	0.621765
	H113	H	0.102753	0.099770	0.389542
	H114	H	0.923110	0.110238	0.623454
	H115	H	0.916402	0.919090	0.388742
	H116	H	0.631645	0.099891	0.906527
	H117	H	0.398350	0.093910	0.098998
	H118	H	0.627321	0.914646	0.091395
	H119	H	0.397127	0.916387	0.909734
	C120	C	0.392478	0.014238	0.625611
	C121	C	0.635075	0.998088	0.625368
	C122	C	0.635997	0.015403	0.381762
	C123	C	0.392650	0.998510	0.382430
	C124	C	0.635041	0.384893	0.012521
	C125	C	0.635064	0.628498	0.995865
	C126	C	0.391179	0.629141	0.012113
	C127	C	0.391835	0.385403	0.995975
	C128	C	0.021900	0.627536	0.383321
	C129	C	1.004849	0.627857	0.625947
	C130	C	0.021738	0.384617	0.626080
	C131	C	1.005081	0.384612	0.383063
	C132	C	0.891834	0.514865	0.126380
	C133	C	0.135404	0.498354	0.126569
	C134	C	0.134564	0.514274	0.882934
	C135	C	0.892121	0.497976	0.883025
	C136	C	0.135790	0.884680	0.512602
	C137	C	0.135875	0.128295	0.496221
	C138	C	0.892047	0.127790	0.512708
	C139	C	0.891818	0.884459	0.496059
	C140	C	0.521590	0.128470	0.882479
	C141	C	0.505348	0.128213	0.125351
	C142	C	0.521525	0.885128	0.125354
	C143	C	0.504817	0.885421	0.882713
	C144	C	0.394052	0.891713	0.681952
	C145	C	0.632811	0.121335	0.680639
	C146	C	0.633517	0.892449	0.326873
	C147	C	0.394054	0.121568	0.327653
	C148	C	0.689970	0.388149	0.889187
	C149	C	0.689438	0.625510	0.118824
	C150	C	0.336028	0.625925	0.889335
	C151	C	0.336333	0.387534	0.118887
	C152	C	0.898794	0.682658	0.386257
	C153	C	0.128135	0.683078	0.623775
	C154	C	0.898237	0.329769	0.622914
	C155	C	0.128527	0.330155	0.386181
	C156	C	0.898222	0.387207	0.680531
	C157	C	0.128213	0.625393	0.681217
	C158	C	0.898320	0.625152	0.328768
	C159	C	0.128331	0.387373	0.328088
	C160	C	0.393973	0.683398	0.888906
	C161	C	0.632391	0.683990	0.118448
	C162	C	0.632570	0.330178	0.889294
	C163	C	0.393639	0.329507	0.118593
	C164	C	0.690316	0.891927	0.385036
	C165	C	0.690017	0.121473	0.622185
	C166	C	0.336419	0.891623	0.624394
	C167	C	0.337373	0.121340	0.385990
	C168	C	0.894604	0.391840	0.180972
	C169	C	0.133180	0.621179	0.181824
	C170	C	0.132296	0.391302	0.827844
	C171	C	0.893685	0.620836	0.827559
	C172	C	0.190359	0.887553	0.389394
	C173	C	0.190754	0.125175	0.619005
	C174	C	0.838269	0.124419	0.389264
	C175	C	0.836291	0.887446	0.618819
	C176	C	0.398297	0.183500	0.884551
	C177	C	0.628792	0.182751	0.121933
	C178	C	0.397892	0.830874	0.122108
	C179	C	0.627975	0.830306	0.884226
	C180	C	0.398361	0.887549	0.181033
	C181	C	0.628609	0.125657	0.180012
	C182	C	0.398686	0.126172	0.826639
	C183	C	0.627929	0.887663	0.827198
	C184	C	0.895470	0.182427	0.389799
	C185	C	0.133165	0.183182	0.619262
	C186	C	0.132741	0.829640	0.389970
	C187	C	0.893985	0.829910	0.619012
	C188	C	0.189557	0.391346	0.886132
	C189	C	0.189840	0.621576	0.123423
	C190	C	0.836823	0.391744	0.123353
	C191	C	0.837166	0.621089	0.886254
	C192	C	0.415082	0.099881	0.602968
	C193	C	0.612454	0.912425	0.603589
	C194	C	0.614193	0.101407	0.403710
	C195	C	0.414986	0.912470	0.404222
	C196	C	0.613111	0.406528	0.098276
	C197	C	0.613010	0.606409	0.909938
	C198	C	0.413552	0.607388	0.098115
	C199	C	0.414146	0.407882	0.910499
	C200	C	0.107956	0.605311	0.404795
	C201	C	0.918946	0.605458	0.603845
	C202	C	0.107891	0.407046	0.604074
	C203	C	0.918891	0.406607	0.404959
	C204	C	0.913658	0.600753	0.104941
	C205	C	0.112995	0.412441	0.104704
	C206	C	0.112196	0.600291	0.904677
	C207	C	0.914238	0.411908	0.904725
	C208	C	0.113483	0.907175	0.598275
	C209	C	0.114198	0.106788	0.410154
	C210	C	0.913859	0.105863	0.598403
	C211	C	0.914348	0.906479	0.410224
	C212	C	0.607699	0.106624	0.904557
	C213	C	0.419437	0.105665	0.103215
	C214	C	0.607463	0.907297	0.103298
	C215	C	0.418698	0.906964	0.904503
	Zn216	Zn	0.513703	0.006396	0.754586
	Zn217	Zn	0.513776	0.006962	0.254099
	Zn218	Zn	0.763511	0.506191	0.004361
	Zn219	Zn	0.263257	0.506866	0.004520
	Zn220	Zn	0.013674	0.756146	0.504769
	Zn221	Zn	0.013694	0.256508	0.504918
	Zn222	Zn	0.013148	0.506201	0.754144
	Zn223	Zn	0.013618	0.506928	0.254746
	Zn224	Zn	0.513580	0.756716	0.003342
	Zn225	Zn	0.513218	0.256738	0.003591
	Zn226	Zn	0.763707	0.006131	0.503801
	Zn227	Zn	0.264184	0.006077	0.504047
	N228	N	0.428222	0.968847	0.682778
	N229	N	0.599324	0.043732	0.682727
	N230	N	0.600146	0.970036	0.324891
	N231	N	0.427899	0.044183	0.325472
	N232	N	0.691734	0.421381	0.966756
	N233	N	0.691336	0.591906	0.041506
	N234	N	0.334154	0.593092	0.966967
	N235	N	0.335441	0.422104	0.041884
	N236	N	0.976466	0.684243	0.419351
	N237	N	0.050696	0.684663	0.590087
	N238	N	0.976189	0.328114	0.589921
	N239	N	0.050932	0.328495	0.419775
	N240	N	0.975934	0.420526	0.682613
	N241	N	0.050426	0.592027	0.682925
	N242	N	0.975949	0.591482	0.326896
	N243	N	0.050601	0.420604	0.326197
	N244	N	0.427636	0.685335	0.966347
	N245	N	0.599287	0.685846	0.040869
	N246	N	0.599214	0.328076	0.966852
	N247	N	0.427149	0.328106	0.041237
	N248	N	0.692076	0.969417	0.418266
	N249	N	0.691434	0.044026	0.588523
	N250	N	0.335362	0.968831	0.590127
	N251	N	0.336457	0.043754	0.419406
	N252	N	0.928089	0.469321	0.182949
	N253	N	0.100090	0.543446	0.183891
	N254	N	0.099158	0.468905	0.825437
	N255	N	0.927335	0.543268	0.825848
	N256	N	0.192548	0.920831	0.466721
	N257	N	0.192520	0.091925	0.541601
	N258	N	0.835842	0.091243	0.466795
	N259	N	0.834860	0.920615	0.541251
	N260	N	0.475721	0.184777	0.918569
	N261	N	0.551217	0.184233	0.088549
	N262	N	0.475351	0.829341	0.088256
	N263	N	0.550490	0.828708	0.917966
	N264	N	0.476281	0.920749	0.183063
	N265	N	0.550779	0.092532	0.182356
	N266	N	0.476267	0.092641	0.825227
	N267	N	0.550485	0.921376	0.826310
	N268	N	0.928565	0.184296	0.467330
	N269	N	0.099779	0.185158	0.541775
	N270	N	0.099514	0.827927	0.467651
	N271	N	0.927888	0.828077	0.541718
	N272	N	0.190795	0.468881	0.919705
	N273	N	0.191301	0.544324	0.089749
	N274	N	0.835198	0.469292	0.089907
	N275	N	0.836107	0.543823	0.920114
	O276	O	0.464002	0.498765	0.457849
	H277	H	0.467936	0.491894	0.454312
	H278	H	0.466403	0.509780	0.455281
	O279	O	0.012515	-0.067176	-0.011824
	H280	H	0.012461	-0.071519	-0.011841
	H281	H	0.007171	-0.066010	-0.011539
	O282	O	0.469629	0.471703	0.499448
	H283	H	0.467571	0.480441	0.499185
	H284	H	0.472001	0.471287	0.504653
	O285	O	0.498356	0.455439	0.517585
	H286	H	0.496347	0.458236	0.522419
	H287	H	0.495750	0.447605	0.511235
	O288	O	1.496520	0.541044	-0.497720
	H289	H	1.499475	0.543707	-0.506091
	H290	H	1.488950	0.535679	-0.496420
	O291	O	-0.994309	-0.028905	-0.007360
	H292	H	-0.989214	-0.021421	-0.005953
	H293	H	-0.992740	-0.033588	-0.002019
	O294	O	0.486044	0.573148	0.463338
	H295	H	0.495653	0.569176	0.466552
	H296	H	0.488397	0.576669	0.453648
	O297	O	0.024309	0.950827	-0.010215
	H298	H	0.023129	0.947030	-0.013007
	H299	H	0.032113	0.949908	-0.011031
	O300	O	0.471168	0.542752	0.471033
	H301	H	0.458220	0.538227	0.469078
	H302	H	0.468276	0.537289	0.473652
	O303	O	0.464326	0.536028	0.496218
	H304	H	0.456825	0.529805	0.497188
	H305	H	0.461901	0.538213	0.492302
	O306	O	-0.038228	0.938790	0.958208
	H307	H	-0.032121	0.942205	0.960998
	H308	H	-0.033560	0.933284	0.956413
	O309	O	-0.045085	-0.028355	0.977171
	H310	H	-0.047732	-0.025919	0.974560
	H311	H	-0.059983	-0.030312	0.973312
