data_Molecule from HDF5

_cell_length_a		16.274963
_cell_length_b		16.331896
_cell_length_c		16.291239
_cell_angle_alpha	90.132054
_cell_angle_beta	89.874675
_cell_angle_gamma	89.776866
_symmetry_space_group_name_H-M	'P 1'
_symmetry_Int_Tables_number		1

loop_
	_symmetry_equiv_pos_as_xyz
	x,y,z

loop_
	_atom_site_label
	_atom_site_type_symbol
	_atom_site_fract_x
	_atom_site_fract_y
	_atom_site_fract_z
	H0	H	0.399019	0.843457	0.711062
	H1	H	0.593603	0.169865	0.712671
	H2	H	0.595722	0.843111	0.283293
	H3	H	0.396429	0.169622	0.282664
	H4	H	0.712481	0.408045	0.833956
	H5	H	0.710459	0.604363	0.161830
	H6	H	0.284701	0.602742	0.834377
	H7	H	0.282953	0.409103	0.162014
	H8	H	0.833520	0.722875	0.400795
	H9	H	0.160621	0.723735	0.595952
	H10	H	0.833888	0.293845	0.598707
	H11	H	0.160345	0.291655	0.398260
	H12	H	0.833670	0.412115	0.712156
	H13	H	0.161173	0.606574	0.711063
	H14	H	0.833695	0.608579	0.283648
	H15	H	0.161275	0.408719	0.282726
	H16	H	0.398882	0.719951	0.834581
	H17	H	0.595078	0.721363	0.161449
	H18	H	0.597033	0.291298	0.833951
	H19	H	0.399245	0.292803	0.161818
	H20	H	0.713199	0.844435	0.398837
	H21	H	0.709118	0.170874	0.596036
	H22	H	0.281905	0.844313	0.595597
	H23	H	0.281912	0.170388	0.399735
	H24	H	0.897937	0.344796	0.214545
	H25	H	0.094416	0.670745	0.211866
	H26	H	0.098152	0.345385	0.780959
	H27	H	0.899152	0.671369	0.785169
	H28	H	0.210924	0.909907	0.333959
	H29	H	0.209566	0.105175	0.661421
	H30	H	0.782612	0.106563	0.334138
	H31	H	0.783829	0.912353	0.661715
	H32	H	0.333248	0.221049	0.900417
	H33	H	0.660619	0.220181	0.096684
	H34	H	0.333274	0.793646	0.095732
	H35	H	0.660665	0.790831	0.897426
	H36	H	0.332973	0.909496	0.211759
	H37	H	0.660454	0.104397	0.212758
	H38	H	0.332621	0.104473	0.785126
	H39	H	0.661038	0.908578	0.783324
	H40	H	0.897105	0.223878	0.334615
	H41	H	0.093506	0.221798	0.661626
	H42	H	0.096851	0.792311	0.334775
	H43	H	0.897217	0.794098	0.661282
	H44	H	0.211209	0.343894	0.900005
	H45	H	0.209629	0.671034	0.095205
	H46	H	0.783971	0.343195	0.096441
	H47	H	0.780491	0.669258	0.898906
	H48	H	0.408791	0.120388	0.587978
	H49	H	0.594604	0.891237	0.585077
	H50	H	0.584598	0.122339	0.401723
	H51	H	0.409598	0.891988	0.402620
	H52	H	0.599873	0.414646	0.116267
	H53	H	0.586415	0.593554	0.884926
	H54	H	0.407813	0.610612	0.116747
	H55	H	0.397263	0.408116	0.878401
	H56	H	0.109030	0.594457	0.413094
	H57	H	0.879498	0.606798	0.591442
	H58	H	0.113761	0.410731	0.587149
	H59	H	0.879490	0.406955	0.409122
	H60	H	0.111895	0.419154	0.587662
	H61	H	0.882074	0.600809	0.588034
	H62	H	0.115841	0.596516	0.394132
	H63	H	0.886128	0.424264	0.412781
	H64	H	0.392763	0.600201	0.117853
	H65	H	0.586352	0.605038	0.880835
	H66	H	0.584000	0.422178	0.109727
	H67	H	0.403359	0.421833	0.883953
	H68	H	0.587317	0.120856	0.409414
	H69	H	0.594795	0.888175	0.595796
	H70	H	0.396246	0.123890	0.589252
	H71	H	0.403987	0.892412	0.410324
	H72	H	0.900867	0.624791	0.094963
	H73	H	0.094960	0.391492	0.086596
	H74	H	0.090647	0.624713	0.901075
	H75	H	0.899876	0.388801	0.902997
	H76	H	0.088466	0.916675	0.613543
	H77	H	0.100956	0.100605	0.378195
	H78	H	0.904072	0.116999	0.618044
	H79	H	0.906608	0.918344	0.383101
	H80	H	0.613911	0.096403	0.901330
	H81	H	0.384192	0.096993	0.082439
	H82	H	0.617807	0.908066	0.099337
	H83	H	0.378747	0.912871	0.897148
	H84	H	0.612931	0.907530	0.081024
	H85	H	0.379979	0.094125	0.097919
	H86	H	0.614799	0.103313	0.904132
	H87	H	0.379276	0.906478	0.907135
	H88	H	0.889957	0.095913	0.615692
	H89	H	0.084216	0.092138	0.385605
	H90	H	0.089102	0.914913	0.613755
	H91	H	0.906914	0.912056	0.381434
	H92	H	0.088797	0.622514	0.906408
	H93	H	0.092976	0.388450	0.096237
	H94	H	0.908245	0.621477	0.091282
	H95	H	0.910920	0.391750	0.899777
	H96	H	0.404195	0.124825	0.599602
	H97	H	0.585333	0.892097	0.591563
	H98	H	0.592418	0.123863	0.404105
	H99	H	0.399884	0.888276	0.401871
	H100	H	0.584766	0.403824	0.114527
	H101	H	0.596490	0.598588	0.879747
	H102	H	0.408843	0.593109	0.111240
	H103	H	0.412602	0.408471	0.883294
	H104	H	0.116211	0.612119	0.406969
	H105	H	0.880482	0.600668	0.595271
	H106	H	0.115235	0.415105	0.594488
	H107	H	0.878986	0.419978	0.395548
	H108	H	0.900762	0.622054	0.086241
	H109	H	0.085432	0.392436	0.090824
	H110	H	0.094174	0.625241	0.905373
	H111	H	0.907566	0.393973	0.910479
	H112	H	0.089857	0.916142	0.614259
	H113	H	0.084167	0.111770	0.379398
	H114	H	0.914203	0.095209	0.608589
	H115	H	0.901168	0.915466	0.380689
	H116	H	0.612058	0.097685	0.908222
	H117	H	0.378107	0.109053	0.091550
	H118	H	0.610699	0.923774	0.091066
	H119	H	0.382352	0.917827	0.907606
	C120	C	0.374644	0.015314	0.619965
	C121	C	0.618606	0.998461	0.619367
	C122	C	0.618153	0.015098	0.375790
	C123	C	0.375201	0.998673	0.376244
	C124	C	0.619135	0.384568	0.005740
	C125	C	0.618220	0.627702	0.989869
	C126	C	0.375490	0.628513	0.006848
	C127	C	0.375720	0.385107	0.990033
	C128	C	0.005594	0.629999	0.376426
	C129	C	0.988881	0.630886	0.619706
	C130	C	0.005615	0.387000	0.619149
	C131	C	0.989433	0.387281	0.376603
	C132	C	0.875173	0.515188	0.119827
	C133	C	0.118682	0.498967	0.119142
	C134	C	0.119816	0.516240	0.875504
	C135	C	0.876800	0.499285	0.876499
	C136	C	0.117947	0.886920	0.506158
	C137	C	0.117716	0.129412	0.489237
	C138	C	0.874248	0.131170	0.505980
	C139	C	0.875993	0.887174	0.489830
	C140	C	0.505122	0.127760	0.876559
	C141	C	0.488701	0.128094	0.119649
	C142	C	0.505306	0.885390	0.118922
	C143	C	0.488716	0.884209	0.875582
	C144	C	0.377599	0.892401	0.674165
	C145	C	0.614780	0.121363	0.674735
	C146	C	0.616651	0.892096	0.320819
	C147	C	0.376721	0.121051	0.320842
	C148	C	0.674562	0.387175	0.882822
	C149	C	0.672867	0.625037	0.112988
	C150	C	0.321583	0.624307	0.883347
	C151	C	0.321015	0.388494	0.113231
	C152	C	0.882468	0.685677	0.379359
	C153	C	0.111967	0.685860	0.616710
	C154	C	0.882576	0.332223	0.618204
	C155	C	0.111975	0.330359	0.378178
	C156	C	0.882624	0.390807	0.674916
	C157	C	0.112196	0.627693	0.673728
	C158	C	0.882623	0.628499	0.321345
	C159	C	0.112412	0.388840	0.321163
	C160	C	0.378523	0.682496	0.883488
	C161	C	0.615607	0.683355	0.112869
	C162	C	0.617653	0.328844	0.883028
	C163	C	0.378413	0.330388	0.113028
	C164	C	0.674843	0.892956	0.378206
	C165	C	0.672052	0.121805	0.616651
	C166	C	0.319748	0.892838	0.616691
	C167	C	0.320139	0.121652	0.379271
	C168	C	0.878095	0.392951	0.175753
	C169	C	0.115137	0.622156	0.173820
	C170	C	0.117927	0.393856	0.819540
	C171	C	0.878651	0.622264	0.822569
	C172	C	0.173539	0.889071	0.382943
	C173	C	0.172226	0.126470	0.612633
	C174	C	0.819527	0.127909	0.383232
	C175	C	0.821387	0.891332	0.612844
	C176	C	0.381912	0.182961	0.879749
	C177	C	0.611746	0.182650	0.117124
	C178	C	0.381958	0.831427	0.116157
	C179	C	0.611792	0.829221	0.877857
	C180	C	0.381703	0.889195	0.173570
	C181	C	0.611644	0.125003	0.174758
	C182	C	0.381658	0.124986	0.822504
	C183	C	0.611842	0.887487	0.820646
	C184	C	0.876766	0.186073	0.383436
	C185	C	0.114551	0.184256	0.612799
	C186	C	0.116691	0.831015	0.383157
	C187	C	0.877931	0.832705	0.612663
	C188	C	0.174579	0.393172	0.878285
	C189	C	0.172582	0.622151	0.116239
	C190	C	0.820843	0.392232	0.117529
	C191	C	0.819765	0.621204	0.879045
	C192	C	0.396526	0.101028	0.598678
	C193	C	0.597783	0.912644	0.597247
	C194	C	0.594780	0.100338	0.398299
	C195	C	0.397805	0.913033	0.398401
	C196	C	0.596349	0.407088	0.091489
	C197	C	0.596256	0.605651	0.903960
	C198	C	0.396726	0.607582	0.093042
	C199	C	0.397989	0.406469	0.904042
	C200	C	0.091509	0.607630	0.398403
	C201	C	0.902946	0.609192	0.598016
	C202	C	0.091450	0.408508	0.596394
	C203	C	0.903680	0.410271	0.399312
	C204	C	0.896934	0.600633	0.097448
	C205	C	0.097457	0.413367	0.097659
	C206	C	0.097697	0.602022	0.897751
	C207	C	0.899595	0.413713	0.898125
	C208	C	0.095632	0.909349	0.591708
	C209	C	0.096051	0.107905	0.403368
	C210	C	0.896241	0.109272	0.592052
	C211	C	0.898433	0.908823	0.403874
	C212	C	0.591307	0.105557	0.898252
	C213	C	0.402953	0.106289	0.097424
	C214	C	0.591632	0.906904	0.096882
	C215	C	0.402280	0.906063	0.897572
	Zn216	Zn	0.496436	0.006628	0.748010
	Zn217	Zn	0.496408	0.006376	0.247719
	Zn218	Zn	0.747525	0.506126	-0.002280
	Zn219	Zn	0.247392	0.506933	-0.001853
	Zn220	Zn	-0.002895	0.758426	0.498073
	Zn221	Zn	-0.003176	0.258832	0.497872
	Zn222	Zn	-0.002272	0.508355	0.747266
	Zn223	Zn	-0.002751	0.508087	0.247791
	Zn224	Zn	0.496985	0.756711	-0.002322
	Zn225	Zn	0.497462	0.256376	-0.002377
	Zn226	Zn	0.746809	0.008235	0.497536
	Zn227	Zn	0.246506	0.007559	0.497649
	N228	N	0.411067	0.969527	0.676323
	N229	N	0.582041	0.043763	0.676555
	N230	N	0.581984	0.968993	0.319454
	N231	N	0.410420	0.043680	0.318996
	N232	N	0.675757	0.420779	0.960288
	N233	N	0.674685	0.591191	0.035701
	N234	N	0.319872	0.591122	0.960840
	N235	N	0.319092	0.421718	0.035725
	N236	N	0.959888	0.686473	0.413115
	N237	N	0.034161	0.687916	0.583931
	N238	N	0.960000	0.329878	0.584200
	N239	N	0.034346	0.329401	0.411939
	N240	N	0.960100	0.424182	0.675389
	N241	N	0.034853	0.594173	0.675623
	N242	N	0.960186	0.594432	0.319506
	N243	N	0.035301	0.423574	0.320233
	N244	N	0.411345	0.685250	0.961163
	N245	N	0.582341	0.685050	0.035242
	N246	N	0.583883	0.327078	0.960553
	N247	N	0.411742	0.328195	0.035342
	N248	N	0.675939	0.970468	0.411678
	N249	N	0.674548	0.044548	0.582983
	N250	N	0.317784	0.970168	0.583635
	N251	N	0.318949	0.044475	0.413016
	N252	N	0.911094	0.470494	0.177348
	N253	N	0.082306	0.544771	0.175824
	N254	N	0.084699	0.471289	0.817792
	N255	N	0.913511	0.545448	0.821037
	N256	N	0.174401	0.923138	0.460258
	N257	N	0.174070	0.092687	0.535306
	N258	N	0.817787	0.094494	0.460682
	N259	N	0.820074	0.924487	0.535318
	N260	N	0.459560	0.184643	0.912771
	N261	N	0.534336	0.184764	0.083472
	N262	N	0.459733	0.829039	0.083080
	N263	N	0.534070	0.827350	0.911274
	N264	N	0.459616	0.922073	0.175353
	N265	N	0.534119	0.091809	0.176372
	N266	N	0.459282	0.091240	0.820569
	N267	N	0.534158	0.921105	0.819348
	N268	N	0.909768	0.188286	0.461040
	N269	N	0.081558	0.186371	0.535028
	N270	N	0.082947	0.829313	0.460502
	N271	N	0.911100	0.829979	0.535024
	N272	N	0.175820	0.470267	0.912506
	N273	N	0.174927	0.544585	0.082909
	N274	N	0.819074	0.469132	0.083463
	N275	N	0.818565	0.543758	0.911969
	O276	O	0.362556	-0.422206	1.328962
	H277	H	0.359437	-0.429757	1.329449
	H278	H	0.357859	-0.419931	1.327146
	O279	O	0.552384	0.480722	0.436213
	H280	H	0.558504	0.477369	0.437977
	H281	H	0.550137	0.478268	0.436481
	O282	O	0.600230	0.449482	0.465979
	H283	H	0.611308	0.445374	0.470772
	H284	H	0.601580	0.444087	0.466905
	O285	O	0.546018	0.400822	0.430934
	H286	H	0.542661	0.396546	0.428269
	H287	H	0.554470	0.398871	0.429315
	O288	O	0.584231	0.411992	0.453098
	H289	H	0.575010	0.415471	0.448954
	H290	H	0.584137	0.413459	0.441848
	O291	O	-0.036808	0.970486	1.003009
	H292	H	-0.039084	0.970220	1.000235
	H293	H	-0.037897	0.967959	1.002836
	O294	O	0.555382	0.404742	0.499223
	H295	H	0.554981	0.400418	0.501948
	H296	H	0.558375	0.402348	0.499656
	O297	O	0.950474	-0.008311	0.004588
	H298	H	0.949656	-0.010931	0.007726
	H299	H	0.950288	-0.008829	0.008586
