data_Molecule from HDF5

_cell_length_a		16.299605
_cell_length_b		16.301044
_cell_length_c		16.195216
_cell_angle_alpha	90.012400
_cell_angle_beta	89.909103
_cell_angle_gamma	90.381865
_symmetry_space_group_name_H-M	'P 1'
_symmetry_Int_Tables_number		1

loop_
	_symmetry_equiv_pos_as_xyz
	x,y,z

loop_
	_atom_site_label
	_atom_site_type_symbol
	_atom_site_fract_x
	_atom_site_fract_y
	_atom_site_fract_z
	H0	H	0.402265	0.835701	0.715323
	H1	H	0.601255	0.162385	0.712237
	H2	H	0.602096	0.835658	0.282146
	H3	H	0.405348	0.161953	0.285191
	H4	H	0.717499	0.400658	0.835982
	H5	H	0.717129	0.600011	0.164201
	H6	H	0.288160	0.598124	0.835978
	H7	H	0.285447	0.398435	0.164061
	H8	H	0.838924	0.711218	0.400984
	H9	H	0.164267	0.715542	0.602826
	H10	H	0.840213	0.277771	0.601404
	H11	H	0.166357	0.283056	0.400712
	H12	H	0.838120	0.395741	0.715618
	H13	H	0.165606	0.596391	0.714512
	H14	H	0.837795	0.593412	0.287718
	H15	H	0.164626	0.398621	0.283457
	H16	H	0.403327	0.713276	0.835821
	H17	H	0.602344	0.715288	0.163450
	H18	H	0.600529	0.286146	0.834865
	H19	H	0.399195	0.281343	0.162702
	H20	H	0.717534	0.834377	0.397994
	H21	H	0.721455	0.159730	0.601070
	H22	H	0.287073	0.835137	0.599433
	H23	H	0.286790	0.160840	0.398899
	H24	H	0.902007	0.333185	0.212446
	H25	H	0.099176	0.661508	0.215520
	H26	H	0.098190	0.333855	0.787600
	H27	H	0.904212	0.660876	0.784344
	H28	H	0.216620	0.898001	0.335766
	H29	H	0.217596	0.097135	0.664216
	H30	H	0.788610	0.095818	0.336851
	H31	H	0.785518	0.896127	0.663982
	H32	H	0.338821	0.213685	0.898361
	H33	H	0.665042	0.217138	0.098262
	H34	H	0.340249	0.781915	0.100492
	H35	H	0.666196	0.784409	0.899345
	H36	H	0.340078	0.898436	0.214854
	H37	H	0.666793	0.099828	0.213597
	H38	H	0.338392	0.096504	0.784494
	H39	H	0.666767	0.903744	0.784846
	H40	H	0.905012	0.209354	0.336363
	H41	H	0.103844	0.212563	0.663821
	H42	H	0.101275	0.781843	0.336635
	H43	H	0.902852	0.781350	0.664975
	H44	H	0.216992	0.336006	0.900133
	H45	H	0.217911	0.662188	0.101082
	H46	H	0.783004	0.335829	0.100100
	H47	H	0.789471	0.662845	0.901853
	H48	H	0.409311	0.117459	0.598769
	H49	H	0.589039	0.886221	0.580632
	H50	H	0.600922	0.112919	0.414842
	H51	H	0.413214	0.884563	0.412007
	H52	H	0.588944	0.399855	0.116873
	H53	H	0.593994	0.602478	0.880143
	H54	H	0.404855	0.585591	0.117182
	H55	H	0.403037	0.402931	0.880041
	H56	H	0.119672	0.594697	0.408710
	H57	H	0.887220	0.578642	0.598713
	H58	H	0.116867	0.411938	0.596281
	H59	H	0.887580	0.404459	0.409960
	H60	H	0.121039	0.398453	0.597998
	H61	H	0.881665	0.598817	0.596403
	H62	H	0.116188	0.587662	0.412852
	H63	H	0.884157	0.400087	0.403103
	H64	H	0.416152	0.590774	0.114863
	H65	H	0.606183	0.588686	0.881098
	H66	H	0.599804	0.410125	0.117738
	H67	H	0.407632	0.415201	0.885244
	H68	H	0.599732	0.115703	0.402383
	H69	H	0.604626	0.878857	0.592364
	H70	H	0.415308	0.112041	0.588993
	H71	H	0.403831	0.880781	0.408744
	H72	H	0.906550	0.614702	0.092099
	H73	H	0.089805	0.386898	0.082444
	H74	H	0.095927	0.615280	0.905530
	H75	H	0.914351	0.387087	0.916148
	H76	H	0.088627	0.904556	0.615087
	H77	H	0.090042	0.097915	0.382702
	H78	H	0.908949	0.091817	0.619590
	H79	H	0.912551	0.908359	0.385235
	H80	H	0.618297	0.095030	0.906574
	H81	H	0.387617	0.093655	0.084388
	H82	H	0.620691	0.906047	0.094692
	H83	H	0.385562	0.907368	0.903600
	H84	H	0.618776	0.904146	0.087561
	H85	H	0.388278	0.082811	0.094310
	H86	H	0.618519	0.093643	0.905035
	H87	H	0.386220	0.900236	0.908978
	H88	H	0.908398	0.083585	0.617960
	H89	H	0.106561	0.090950	0.378992
	H90	H	0.098280	0.898814	0.620966
	H91	H	0.912684	0.899392	0.383765
	H92	H	0.092186	0.614169	0.907645
	H93	H	0.104030	0.379679	0.091282
	H94	H	0.908204	0.615807	0.098392
	H95	H	0.897636	0.379717	0.911861
	H96	H	0.403262	0.115960	0.587650
	H97	H	0.585950	0.881070	0.600707
	H98	H	0.589049	0.111069	0.408493
	H99	H	0.411290	0.881689	0.401037
	H100	H	0.587026	0.414058	0.112387
	H101	H	0.588346	0.585573	0.887325
	H102	H	0.406984	0.597884	0.119437
	H103	H	0.416117	0.404008	0.884069
	H104	H	0.117953	0.586594	0.403990
	H105	H	0.889843	0.588869	0.580181
	H106	H	0.116055	0.403218	0.585128
	H107	H	0.885289	0.396332	0.410093
	H108	H	0.912051	0.612808	0.094345
	H109	H	0.088361	0.381552	0.100661
	H110	H	0.095968	0.613335	0.909471
	H111	H	0.910221	0.380792	0.899534
	H112	H	0.099450	0.910963	0.617497
	H113	H	0.093586	0.080224	0.386819
	H114	H	0.915423	0.087479	0.615961
	H115	H	0.905353	0.903354	0.382956
	H116	H	0.618617	0.095271	0.905209
	H117	H	0.383205	0.095734	0.098584
	H118	H	0.617465	0.911257	0.089526
	H119	H	0.389300	0.908619	0.912238
	C120	C	0.380571	0.007212	0.621421
	C121	C	0.623741	0.989621	0.621044
	C122	C	0.624896	0.005951	0.377976
	C123	C	0.380896	0.989972	0.378029
	C124	C	0.621841	0.379028	0.007579
	C125	C	0.624555	0.621316	0.991392
	C126	C	0.380734	0.620223	0.008414
	C127	C	0.379229	0.377332	0.991313
	C128	C	0.009982	0.617899	0.379509
	C129	C	0.993929	0.618354	0.621518
	C130	C	0.010361	0.374386	0.622586
	C131	C	0.993937	0.373505	0.378412
	C132	C	0.879238	0.506570	0.123136
	C133	C	0.123253	0.490053	0.121799
	C134	C	0.123041	0.506685	0.878868
	C135	C	0.879889	0.490245	0.879354
	C136	C	0.124060	0.875619	0.509033
	C137	C	0.125241	0.118780	0.491454
	C138	C	0.881936	0.117002	0.509339
	C139	C	0.880477	0.874370	0.492154
	C140	C	0.510635	0.122055	0.877057
	C141	C	0.494417	0.120861	0.120769
	C142	C	0.511485	0.877230	0.120646
	C143	C	0.494694	0.877547	0.878236
	C144	C	0.382170	0.884403	0.677267
	C145	C	0.622127	0.113051	0.675650
	C146	C	0.622308	0.883954	0.320884
	C147	C	0.384615	0.112841	0.323056
	C148	C	0.678733	0.380631	0.884572
	C149	C	0.679308	0.619793	0.115011
	C150	C	0.325432	0.618473	0.885106
	C151	C	0.323520	0.378683	0.114810
	C152	C	0.887523	0.673251	0.381352
	C153	C	0.115832	0.676164	0.621722
	C154	C	0.888497	0.316722	0.621335
	C155	C	0.117016	0.319945	0.380175
	C156	C	0.887458	0.375617	0.678112
	C157	C	0.116585	0.616716	0.677209
	C158	C	0.886752	0.614205	0.325348
	C159	C	0.116410	0.377427	0.321996
	C160	C	0.383197	0.675457	0.885044
	C161	C	0.622136	0.677222	0.114592
	C162	C	0.620400	0.323860	0.884040
	C163	C	0.380017	0.320218	0.114056
	C164	C	0.679817	0.883296	0.378515
	C165	C	0.681709	0.111523	0.620052
	C166	C	0.324916	0.884075	0.619570
	C167	C	0.325147	0.112050	0.379200
	C168	C	0.881487	0.382618	0.175939
	C169	C	0.120609	0.612963	0.177801
	C170	C	0.119877	0.383345	0.824382
	C171	C	0.883296	0.612562	0.822667
	C172	C	0.179110	0.877743	0.385176
	C173	C	0.180117	0.117103	0.615032
	C174	C	0.826726	0.115463	0.385906
	C175	C	0.824167	0.876151	0.615330
	C176	C	0.387612	0.176260	0.878680
	C177	C	0.616692	0.178214	0.118652
	C178	C	0.388909	0.820535	0.119855
	C179	C	0.617527	0.822538	0.879194
	C180	C	0.388804	0.878751	0.176508
	C181	C	0.617581	0.119519	0.175802
	C182	C	0.387466	0.118100	0.821833
	C183	C	0.617897	0.881904	0.822534
	C184	C	0.884765	0.171739	0.385571
	C185	C	0.123462	0.174538	0.614838
	C186	C	0.121835	0.819993	0.385474
	C187	C	0.882417	0.819113	0.615744
	C188	C	0.178510	0.384314	0.880634
	C189	C	0.179432	0.613108	0.120888
	C190	C	0.822307	0.383923	0.119935
	C191	C	0.826402	0.613681	0.881260
	C192	C	0.402651	0.092945	0.598526
	C193	C	0.600044	0.904305	0.597869
	C194	C	0.602884	0.091230	0.401523
	C195	C	0.403050	0.904362	0.400748
	C196	C	0.598733	0.401449	0.093412
	C197	C	0.602682	0.598788	0.905078
	C198	C	0.403010	0.597952	0.094777
	C199	C	0.402163	0.400635	0.905396
	C200	C	0.095680	0.596143	0.401987
	C201	C	0.908264	0.595311	0.598453
	C202	C	0.095930	0.397796	0.599894
	C203	C	0.908003	0.394172	0.401106
	C204	C	0.902046	0.592419	0.101340
	C205	C	0.100578	0.404889	0.098492
	C206	C	0.101114	0.592100	0.901057
	C207	C	0.900936	0.404563	0.902442
	C208	C	0.102138	0.898048	0.595333
	C209	C	0.103394	0.096244	0.405122
	C210	C	0.904203	0.094347	0.595488
	C211	C	0.903570	0.896905	0.406211
	C212	C	0.596267	0.101047	0.899031
	C213	C	0.408701	0.097582	0.098985
	C214	C	0.596884	0.900424	0.097469
	C215	C	0.409269	0.898930	0.901459
	Zn216	Zn	0.502230	-0.000623	0.749073
	Zn217	Zn	0.503292	-0.001113	0.249176
	Zn218	Zn	0.751458	0.499286	0.000991
	Zn219	Zn	0.251733	0.499388	-0.000090
	Zn220	Zn	0.002398	0.746888	0.500666
	Zn221	Zn	0.002984	0.245048	0.500745
	Zn222	Zn	0.001596	0.497276	0.750001
	Zn223	Zn	0.001432	0.496830	0.250968
	Zn224	Zn	0.502536	0.748262	-0.000445
	Zn225	Zn	0.501111	0.250244	-0.001312
	Zn226	Zn	0.753176	-0.003243	0.499900
	Zn227	Zn	0.251890	-0.002055	0.500200
	N228	N	0.415958	0.961942	0.678422
	N229	N	0.586539	0.036249	0.676065
	N230	N	0.588656	0.961035	0.320744
	N231	N	0.418350	0.035737	0.321951
	N232	N	0.679581	0.414600	0.962342
	N233	N	0.680852	0.585658	0.037394
	N234	N	0.323739	0.584856	0.963060
	N235	N	0.322843	0.413484	0.037311
	N236	N	0.965230	0.675420	0.414581
	N237	N	0.038580	0.677127	0.587637
	N238	N	0.965979	0.315766	0.587500
	N239	N	0.039645	0.317032	0.414149
	N240	N	0.964373	0.410904	0.678884
	N241	N	0.039665	0.581475	0.677176
	N242	N	0.963945	0.580714	0.323935
	N243	N	0.038809	0.409989	0.320755
	N244	N	0.417111	0.676403	0.962686
	N245	N	0.588747	0.678122	0.036663
	N246	N	0.585856	0.322793	0.961502
	N247	N	0.413617	0.318975	0.036192
	N248	N	0.681726	0.960254	0.413306
	N249	N	0.682753	0.033809	0.586789
	N250	N	0.323754	0.961405	0.585566
	N251	N	0.322950	0.034560	0.412907
	N252	N	0.915840	0.459904	0.178241
	N253	N	0.086316	0.535572	0.178505
	N254	N	0.085972	0.460066	0.823289
	N255	N	0.915801	0.534980	0.821417
	N256	N	0.180683	0.911712	0.463018
	N257	N	0.181322	0.083178	0.537334
	N258	N	0.824955	0.082193	0.463835
	N259	N	0.822815	0.909732	0.537386
	N260	N	0.465083	0.178920	0.912180
	N261	N	0.539092	0.179212	0.085242
	N262	N	0.466262	0.819508	0.085791
	N263	N	0.539933	0.819580	0.912946
	N264	N	0.466072	0.913179	0.177350
	N265	N	0.540436	0.084771	0.177298
	N266	N	0.464745	0.084985	0.820725
	N267	N	0.540658	0.915337	0.821872
	N268	N	0.918755	0.172639	0.463356
	N269	N	0.090162	0.175785	0.536827
	N270	N	0.088423	0.818487	0.463377
	N271	N	0.916586	0.817892	0.538060
	N272	N	0.180670	0.462136	0.913899
	N273	N	0.181109	0.535869	0.086789
	N274	N	0.820977	0.461974	0.087825
	N275	N	0.823884	0.536455	0.915581
	O276	O	0.020084	-0.029095	0.082128
	H277	H	0.025824	-0.028789	0.076931
	H278	H	0.011022	-0.023420	0.081091
	O279	O	0.608478	0.448262	0.418584
	H280	H	0.624979	0.432718	0.417619
	H281	H	0.618296	0.458791	0.424168
	O282	O	0.644429	0.573945	0.598530
	H283	H	0.638780	0.569641	0.604079
	H284	H	0.655885	0.582751	0.610031
	O285	O	0.030368	-0.030546	0.928664
	H286	H	0.029343	-0.018374	0.921133
	H287	H	0.026596	-0.029013	0.924920
	O288	O	1.079347	-0.029019	-0.003041
	H289	H	1.086434	-0.034124	-0.004618
	H290	H	1.075624	-0.028003	0.002758
	O291	O	1.038398	1.037589	1.052358
	H292	H	1.050747	1.036242	1.063844
	H293	H	1.031621	1.040018	1.054498
	O294	O	0.525677	1.371473	0.541345
	H295	H	0.530595	1.359691	0.542483
	H296	H	0.527355	1.373286	0.528429
	O297	O	0.963126	-0.019710	1.040637
	H298	H	0.966550	-0.024563	1.046162
	H299	H	0.965718	-0.029745	1.046423
	O300	O	0.451251	0.540681	0.445605
	H301	H	0.456895	0.546244	0.449820
	H302	H	0.454065	0.537736	0.452775
	O303	O	1.607273	0.590788	-0.544725
	H304	H	1.625524	0.592719	-0.551490
	H305	H	1.592859	0.600376	-0.540830
	O306	O	0.020959	1.005676	1.001712
	H307	H	0.026923	1.000586	1.009319
	H308	H	0.020860	1.002860	1.002093
	O309	O	0.485318	0.527437	0.454132
	H310	H	0.489995	0.531322	0.440168
	H311	H	0.478929	0.530754	0.450346
	O312	O	0.730947	-0.304556	1.369672
	H313	H	0.727677	-0.301597	1.372836
	H314	H	0.723494	-0.306234	1.370513
	O315	O	0.455967	0.419900	0.451442
	H316	H	0.459597	0.419519	0.446797
	H317	H	0.443669	0.429470	0.444958
	O318	O	0.050809	1.042275	0.998567
	H319	H	0.050313	1.044992	1.002394
	H320	H	0.050894	1.043551	0.995121
	O321	O	0.990824	1.007611	0.988620
	H322	H	0.993996	1.007608	0.985033
	H323	H	0.984275	1.004292	0.989540
	O324	O	0.487555	0.450885	0.410160
	H325	H	0.499229	0.451961	0.412083
	H326	H	0.497647	0.452288	0.414465
	O327	O	0.434051	0.503774	0.550146
	H328	H	0.432511	0.503644	0.555986
	H329	H	0.433625	0.506017	0.544942
	O330	O	1.047260	0.002375	0.993503
	H331	H	1.039464	0.004826	0.996315
	H332	H	1.049277	0.004886	1.000935
	O333	O	1.028538	0.967643	-0.029406
	H334	H	1.039989	0.974503	-0.039067
	H335	H	1.033292	0.960579	-0.027690
	O336	O	0.380721	0.505959	0.494029
	H337	H	0.370392	0.505449	0.497126
	H338	H	0.374396	0.514546	0.491595
	O339	O	0.535689	0.621003	0.507680
	H340	H	0.544495	0.619869	0.506743
	H341	H	0.541563	0.620438	0.509358
	O342	O	0.065675	1.007228	-0.000969
	H343	H	0.059393	1.008812	-0.001085
	H344	H	0.066523	1.004066	-0.000670
	O345	O	-0.031953	-0.030222	0.050800
	H346	H	-0.033670	-0.030092	0.056431
	H347	H	-0.037839	-0.024576	0.051041
	O348	O	0.506758	0.367097	0.424246
	H349	H	0.510032	0.361205	0.417739
	H350	H	0.499551	0.375351	0.416289
	O351	O	0.500052	0.624098	0.656378
	H352	H	0.504213	0.620271	0.674106
	H353	H	0.488962	0.607104	0.666529
	O354	O	0.475777	0.489671	0.450833
	H355	H	0.482833	0.496145	0.448484
	H356	H	0.473356	0.479446	0.447395
	O357	O	0.607480	0.486113	0.455028
	H358	H	0.600453	0.481452	0.464802
	H359	H	0.607126	0.501549	0.460103
	O360	O	-0.551637	-0.464779	-0.373972
	H361	H	-0.543170	-0.469436	-0.384445
	H362	H	-0.560164	-0.480496	-0.377238
	O363	O	0.364724	1.533514	0.455321
	H364	H	0.353978	1.536294	0.454958
	H365	H	0.367460	1.544234	0.449865
	O366	O	-0.451720	0.536760	1.449870
	H367	H	-0.459207	0.540903	1.457225
	H368	H	-0.450182	0.545652	1.453066
	O369	O	0.539559	0.381768	0.553042
	H370	H	0.530970	0.382636	0.546828
	H371	H	0.533976	0.368730	0.555128
