data_Molecule from HDF5

_cell_length_a		16.331222
_cell_length_b		16.204623
_cell_length_c		16.226456
_cell_angle_alpha	90.005878
_cell_angle_beta	90.010006
_cell_angle_gamma	89.783711
_symmetry_space_group_name_H-M	'P 1'
_symmetry_Int_Tables_number		1

loop_
	_symmetry_equiv_pos_as_xyz
	x,y,z

loop_
	_atom_site_label
	_atom_site_type_symbol
	_atom_site_fract_x
	_atom_site_fract_y
	_atom_site_fract_z
	H0	H	0.404424	0.837199	0.706780
	H1	H	0.598558	0.166271	0.707924
	H2	H	0.598287	0.836844	0.281549
	H3	H	0.400353	0.165537	0.278723
	H4	H	0.714883	0.401144	0.828001
	H5	H	0.717094	0.602348	0.155683
	H6	H	0.284696	0.602045	0.828123
	H7	H	0.283814	0.401925	0.156308
	H8	H	0.837890	0.719623	0.392530
	H9	H	0.164742	0.715221	0.589958
	H10	H	0.836586	0.290316	0.588699
	H11	H	0.164128	0.286137	0.392873
	H12	H	0.837072	0.404657	0.705113
	H13	H	0.163349	0.599998	0.707765
	H14	H	0.837539	0.603133	0.276615
	H15	H	0.164095	0.404015	0.277001
	H16	H	0.401274	0.717385	0.828553
	H17	H	0.596336	0.713865	0.158406
	H18	H	0.597679	0.287273	0.828848
	H19	H	0.402416	0.288461	0.157958
	H20	H	0.717705	0.838450	0.394380
	H21	H	0.714458	0.166525	0.593577
	H22	H	0.285973	0.838194	0.594302
	H23	H	0.283959	0.164969	0.393421
	H24	H	0.901080	0.338761	0.207297
	H25	H	0.097321	0.666729	0.204491
	H26	H	0.098131	0.337395	0.778138
	H27	H	0.902368	0.666417	0.778241
	H28	H	0.217893	0.901265	0.330251
	H29	H	0.215794	0.101925	0.657493
	H30	H	0.783747	0.103395	0.330340
	H31	H	0.787896	0.904111	0.657464
	H32	H	0.336973	0.216272	0.896459
	H33	H	0.663905	0.216305	0.093403
	H34	H	0.336068	0.789922	0.090706
	H35	H	0.663974	0.786420	0.895747
	H36	H	0.337505	0.902531	0.209597
	H37	H	0.663699	0.099119	0.208412
	H38	H	0.337100	0.100915	0.778745
	H39	H	0.664329	0.902499	0.779673
	H40	H	0.903422	0.215129	0.328130
	H41	H	0.098192	0.216650	0.657571
	H42	H	0.099956	0.788641	0.327626
	H43	H	0.904503	0.789676	0.657087
	H44	H	0.217267	0.338764	0.889444
	H45	H	0.214078	0.666510	0.090755
	H46	H	0.787004	0.337516	0.090311
	H47	H	0.782988	0.665063	0.890977
	H48	H	0.413714	0.116487	0.585316
	H49	H	0.602466	0.881218	0.589005
	H50	H	0.585423	0.114763	0.408963
	H51	H	0.420966	0.892594	0.415556
	H52	H	0.599727	0.397767	0.114578
	H53	H	0.588705	0.601014	0.875520
	H54	H	0.415521	0.598122	0.107367
	H55	H	0.402393	0.402466	0.872879
	H56	H	0.119532	0.599353	0.392697
	H57	H	0.886269	0.593684	0.581154
	H58	H	0.115392	0.414495	0.586426
	H59	H	0.886956	0.418702	0.398042
	H60	H	0.120240	0.405129	0.589695
	H61	H	0.884487	0.593921	0.587595
	H62	H	0.115830	0.599559	0.403550
	H63	H	0.882070	0.405881	0.392161
	H64	H	0.398247	0.600480	0.113114
	H65	H	0.599926	0.593034	0.874108
	H66	H	0.602124	0.421304	0.108274
	H67	H	0.403765	0.418809	0.878299
	H68	H	0.602552	0.120846	0.404538
	H69	H	0.590226	0.884628	0.591524
	H70	H	0.404182	0.118607	0.580554
	H71	H	0.390619	0.880575	0.407592
	H72	H	0.907034	0.617546	0.076795
	H73	H	0.100859	0.382955	0.084383
	H74	H	0.090034	0.616995	0.902761
	H75	H	0.905213	0.383269	0.895916
	H76	H	0.102018	0.915863	0.610378
	H77	H	0.098704	0.090190	0.375924
	H78	H	0.907612	0.098312	0.611141
	H79	H	0.910665	0.918384	0.378683
	H80	H	0.616324	0.094850	0.899723
	H81	H	0.386090	0.088513	0.087618
	H82	H	0.615084	0.903594	0.079743
	H83	H	0.382343	0.905107	0.897073
	H84	H	0.614127	0.915832	0.089369
	H85	H	0.381653	0.098966	0.090936
	H86	H	0.617079	0.094724	0.899584
	H87	H	0.385389	0.908981	0.904162
	H88	H	0.905368	0.098035	0.611246
	H89	H	0.088476	0.090795	0.378811
	H90	H	0.084961	0.911563	0.606224
	H91	H	0.912022	0.905661	0.375760
	H92	H	0.098749	0.620385	0.899780
	H93	H	0.088708	0.385038	0.090002
	H94	H	0.902111	0.621222	0.085488
	H95	H	0.909115	0.383781	0.897051
	H96	H	0.405439	0.121526	0.590295
	H97	H	0.594836	0.887367	0.579701
	H98	H	0.590129	0.120985	0.391723
	H99	H	0.415137	0.880848	0.384482
	H100	H	0.581483	0.409920	0.105757
	H101	H	0.588134	0.588174	0.879528
	H102	H	0.403757	0.584373	0.106993
	H103	H	0.417710	0.407975	0.878554
	H104	H	0.115189	0.589198	0.397486
	H105	H	0.883596	0.600465	0.584240
	H106	H	0.115890	0.405922	0.579400
	H107	H	0.886051	0.406899	0.406234
	H108	H	0.912403	0.618239	0.085581
	H109	H	0.090719	0.387287	0.076699
	H110	H	0.090092	0.620577	0.893913
	H111	H	0.905533	0.384383	0.899294
	H112	H	0.095975	0.899162	0.613226
	H113	H	0.093793	0.099578	0.375811
	H114	H	0.907066	0.096290	0.611011
	H115	H	0.900725	0.911994	0.374268
	H116	H	0.616628	0.095082	0.899751
	H117	H	0.386675	0.097321	0.080102
	H118	H	0.620801	0.902533	0.095213
	H119	H	0.384845	0.913957	0.897747
	C120	C	0.379632	0.010474	0.614988
	C121	C	0.623066	0.993264	0.615524
	C122	C	0.622040	0.010206	0.373112
	C123	C	0.379344	0.993078	0.372592
	C124	C	0.622249	0.380544	0.001024
	C125	C	0.621230	0.622867	0.984689
	C126	C	0.377412	0.623711	0.000839
	C127	C	0.378908	0.380883	0.984934
	C128	C	0.008863	0.625146	0.369387
	C129	C	0.992428	0.624245	0.613532
	C130	C	0.009319	0.380541	0.613548
	C131	C	0.992496	0.380725	0.369643
	C132	C	0.878882	0.510664	0.112134
	C133	C	0.121521	0.493679	0.112440
	C134	C	0.121825	0.510487	0.870158
	C135	C	0.878192	0.492810	0.869369
	C136	C	0.122972	0.880176	0.501510
	C137	C	0.122177	0.122882	0.485177
	C138	C	0.878469	0.124901	0.501962
	C139	C	0.880117	0.882808	0.484571
	C140	C	0.508825	0.123735	0.871443
	C141	C	0.492410	0.123200	0.115279
	C142	C	0.508838	0.879146	0.116492
	C143	C	0.492413	0.880203	0.871914
	C144	C	0.383260	0.886481	0.669644
	C145	C	0.619673	0.117091	0.670792
	C146	C	0.619815	0.886371	0.318354
	C147	C	0.380491	0.116383	0.316690
	C148	C	0.676823	0.381761	0.877214
	C149	C	0.677870	0.621633	0.107445
	C150	C	0.322744	0.622079	0.877250
	C151	C	0.322768	0.382772	0.107865
	C152	C	0.886297	0.681235	0.371978
	C153	C	0.115584	0.678287	0.611017
	C154	C	0.885776	0.326869	0.610152
	C155	C	0.115285	0.324396	0.372137
	C156	C	0.885948	0.383718	0.667999
	C157	C	0.115070	0.620961	0.669273
	C158	C	0.886336	0.623601	0.313980
	C159	C	0.115284	0.382919	0.314487
	C160	C	0.380437	0.679684	0.877534
	C161	C	0.617938	0.677171	0.108838
	C162	C	0.618869	0.324919	0.877664
	C163	C	0.381593	0.326237	0.108765
	C164	C	0.678857	0.887236	0.374729
	C165	C	0.677289	0.117112	0.613937
	C166	C	0.324664	0.886856	0.613556
	C167	C	0.322574	0.116106	0.373612
	C168	C	0.881092	0.387473	0.168879
	C169	C	0.118367	0.617619	0.167240
	C170	C	0.119118	0.386660	0.815332
	C171	C	0.881315	0.617023	0.815323
	C172	C	0.179111	0.881810	0.378536
	C173	C	0.177674	0.121701	0.608308
	C174	C	0.822282	0.123207	0.379054
	C175	C	0.825500	0.884086	0.608437
	C176	C	0.385849	0.178865	0.875013
	C177	C	0.615108	0.178133	0.112909
	C178	C	0.385431	0.826200	0.112606
	C179	C	0.615351	0.824795	0.875136
	C180	C	0.386207	0.881967	0.171635
	C181	C	0.615048	0.120407	0.170881
	C182	C	0.385791	0.121362	0.816709
	C183	C	0.615451	0.882565	0.817327
	C184	C	0.881847	0.178796	0.377756
	C185	C	0.119051	0.178596	0.608546
	C186	C	0.120479	0.825777	0.377346
	C187	C	0.883477	0.827281	0.608127
	C188	C	0.178310	0.387458	0.870832
	C189	C	0.176167	0.617482	0.110524
	C190	C	0.824564	0.386721	0.110531
	C191	C	0.822437	0.616413	0.871635
	C192	C	0.401377	0.096602	0.592107
	C193	C	0.601858	0.906812	0.593388
	C194	C	0.599388	0.096692	0.395280
	C195	C	0.402251	0.907076	0.395554
	C196	C	0.600884	0.403147	0.087136
	C197	C	0.598633	0.600728	0.898644
	C198	C	0.399384	0.601014	0.087074
	C199	C	0.401434	0.403074	0.898824
	C200	C	0.094656	0.602647	0.391406
	C201	C	0.906929	0.602460	0.590990
	C202	C	0.094772	0.402262	0.591582
	C203	C	0.907216	0.403709	0.392312
	C204	C	0.900790	0.596723	0.089224
	C205	C	0.099785	0.407687	0.090215
	C206	C	0.099487	0.596946	0.892319
	C207	C	0.900118	0.406144	0.891017
	C208	C	0.100808	0.902355	0.587579
	C209	C	0.100016	0.100107	0.399120
	C210	C	0.900236	0.103811	0.588741
	C211	C	0.901414	0.905436	0.398520
	C212	C	0.594432	0.101421	0.893238
	C213	C	0.406879	0.101307	0.092686
	C214	C	0.594447	0.900929	0.094642
	C215	C	0.406493	0.902664	0.893290
	Zn216	Zn	0.501015	0.001682	0.742591
	Zn217	Zn	0.500761	0.001640	0.244320
	Zn218	Zn	0.750215	0.501450	-0.008353
	Zn219	Zn	0.249620	0.501963	-0.008063
	Zn220	Zn	0.001001	0.753505	0.491952
	Zn221	Zn	0.000576	0.252095	0.492462
	Zn222	Zn	0.000398	0.501749	0.742115
	Zn223	Zn	0.000491	0.502762	0.240443
	Zn224	Zn	0.499615	0.751547	-0.006303
	Zn225	Zn	0.500707	0.252305	-0.006464
	Zn226	Zn	0.751107	0.002842	0.494091
	Zn227	Zn	0.251378	0.001436	0.494011
	N228	N	0.416646	0.964338	0.670657
	N229	N	0.586482	0.039109	0.671820
	N230	N	0.585179	0.963932	0.317292
	N231	N	0.415192	0.038740	0.315977
	N232	N	0.678973	0.415749	0.954931
	N233	N	0.680066	0.588647	0.029379
	N234	N	0.320749	0.588150	0.954993
	N235	N	0.320965	0.415890	0.029702
	N236	N	0.963729	0.682680	0.405365
	N237	N	0.038304	0.680458	0.577111
	N238	N	0.963290	0.324664	0.576951
	N239	N	0.037797	0.322702	0.405553
	N240	N	0.963605	0.416194	0.670435
	N241	N	0.037667	0.587920	0.670860
	N242	N	0.963542	0.589400	0.312327
	N243	N	0.038195	0.417179	0.312958
	N244	N	0.413899	0.680580	0.955361
	N245	N	0.583568	0.678206	0.031309
	N246	N	0.585705	0.323943	0.955576
	N247	N	0.415483	0.324792	0.031330
	N248	N	0.680268	0.965361	0.407868
	N249	N	0.679641	0.039160	0.580409
	N250	N	0.322141	0.964912	0.580410
	N251	N	0.321631	0.038500	0.407483
	N252	N	0.914081	0.465546	0.170158
	N253	N	0.085130	0.539846	0.168628
	N254	N	0.084626	0.464282	0.814745
	N255	N	0.915130	0.539132	0.813819
	N256	N	0.180940	0.914741	0.456766
	N257	N	0.179581	0.087788	0.530641
	N258	N	0.819982	0.090779	0.457347
	N259	N	0.823582	0.918075	0.530835
	N260	N	0.463186	0.180396	0.908143
	N261	N	0.537746	0.180086	0.079396
	N262	N	0.462729	0.824129	0.078799
	N263	N	0.537978	0.823090	0.908189
	N264	N	0.463808	0.914313	0.174117
	N265	N	0.537855	0.086695	0.172235
	N266	N	0.463297	0.087706	0.814320
	N267	N	0.537923	0.916492	0.815314
	N268	N	0.915884	0.180136	0.455333
	N269	N	0.085288	0.179797	0.530806
	N270	N	0.086352	0.824660	0.454879
	N271	N	0.916416	0.825945	0.530060
	N272	N	0.180106	0.465493	0.904042
	N273	N	0.178334	0.539367	0.077216
	N274	N	0.822989	0.464236	0.076093
	N275	N	0.820254	0.538162	0.904348
	O276	O	0.016719	-0.057091	-0.027204
	H277	H	0.012474	-0.048943	-0.045271
	H278	H	0.023422	-0.057398	-0.029162
	O279	O	0.444232	0.471886	0.475826
	H280	H	0.446748	0.461994	0.474721
	H281	H	0.441563	0.479015	0.470763
	O282	O	0.506656	0.618526	0.463721
	H283	H	0.499529	0.623971	0.463832
	H284	H	0.504839	0.619994	0.470024
	O285	O	0.964472	0.024270	1.028311
	H286	H	0.965174	0.014301	1.028981
	H287	H	0.963536	0.017543	1.029823
	O288	O	1.040349	-0.019079	0.058111
	H289	H	1.037598	-0.015094	0.060397
	H290	H	1.042922	-0.029925	0.054841
	O291	O	0.478543	0.441095	0.387298
	H292	H	0.481199	0.440403	0.376114
	H293	H	0.466455	0.440167	0.379080
	O294	O	1.001488	0.032753	0.936219
	H295	H	1.001270	0.029021	0.945426
	H296	H	1.000230	0.033610	0.934416
	O297	O	-0.001618	-0.009042	0.083263
	H298	H	0.000400	-0.020143	0.083795
	H299	H	0.004274	-0.004651	0.090651
	O300	O	0.492165	0.455773	0.637563
	H301	H	0.496605	0.459761	0.632720
	H302	H	0.496727	0.454330	0.639070
	O303	O	1.003892	0.032208	-0.015347
	H304	H	1.001892	0.033554	-0.007790
	H305	H	1.004079	0.043322	-0.017972
	O306	O	1.002756	0.025926	0.067844
	H307	H	0.998800	0.029128	0.077601
	H308	H	0.995022	0.018846	0.061191
	O309	O	0.079577	0.041116	0.990260
	H310	H	0.082352	0.030756	1.003533
	H311	H	0.087100	0.048943	0.991396
	O312	O	1.027607	1.043200	1.013284
	H313	H	1.026058	1.047193	1.011696
	H314	H	1.030545	1.047273	1.018464
	O315	O	0.546405	0.461924	0.510960
	H316	H	0.546504	0.472448	0.512632
	H317	H	0.549380	0.462773	0.519453
	O318	O	0.418582	0.473707	0.491903
	H319	H	0.416478	0.466076	0.499803
	H320	H	0.419360	0.475895	0.487993
	O321	O	0.064830	1.052711	1.031060
	H322	H	0.065170	1.052814	1.028961
	H323	H	0.057853	1.051417	1.031008
	O324	O	0.474029	0.479010	0.544314
	H325	H	0.478627	0.459511	0.540053
	H326	H	0.477323	0.479478	0.542033
	O327	O	0.577515	0.568677	0.472128
	H328	H	0.573633	0.570221	0.474984
	H329	H	0.574043	0.560613	0.469560
	O330	O	0.574125	0.460328	0.517137
	H331	H	0.568491	0.461206	0.522747
	H332	H	0.588559	0.451550	0.519294
	O333	O	0.594277	0.519857	0.454421
	H334	H	0.598674	0.523089	0.441642
	H335	H	0.593065	0.530330	0.460926
	O336	O	0.526272	0.472628	0.451668
	H337	H	0.525092	0.490431	0.450831
	H338	H	0.533074	0.472169	0.450509
	O339	O	0.986012	1.020657	-0.069922
	H340	H	0.980417	1.033940	-0.076999
	H341	H	0.985617	1.016304	-0.068504
	O342	O	0.612161	0.451864	0.500164
	H343	H	0.612752	0.463242	0.495852
	H344	H	0.616603	0.443869	0.509349
	O345	O	0.481851	0.458298	0.426829
	H346	H	0.485602	0.462644	0.426005
	H347	H	0.470099	0.449230	0.430740
	O348	O	0.467575	0.534946	0.476163
	H349	H	0.461260	0.521604	0.476810
	H350	H	0.460788	0.542753	0.479753
	O351	O	-0.034183	0.976400	1.035159
	H352	H	-0.036094	0.987728	1.034899
	H353	H	-0.034899	0.974584	1.022837
	O354	O	0.420915	0.464358	0.564758
	H355	H	0.425205	0.465362	0.571367
	H356	H	0.419358	0.450015	0.572194
	O357	O	-0.495183	1.501508	1.546991
	H358	H	-0.491110	1.498314	1.544265
	H359	H	-0.490019	1.509255	1.542629
