data_Molecule from HDF5

_cell_length_a		16.307271
_cell_length_b		16.411981
_cell_length_c		16.496985
_cell_angle_alpha	89.978433
_cell_angle_beta	89.991306
_cell_angle_gamma	89.992628
_symmetry_space_group_name_H-M	'P 1'
_symmetry_Int_Tables_number		1

loop_
	_symmetry_equiv_pos_as_xyz
	x,y,z

loop_
	_atom_site_label
	_atom_site_type_symbol
	_atom_site_fract_x
	_atom_site_fract_y
	_atom_site_fract_z
	H0	H	0.389086	0.836962	0.725579
	H1	H	0.607817	0.151485	0.726195
	H2	H	0.604493	0.836029	0.280222
	H3	H	0.392554	0.153510	0.280547
	H4	H	0.721235	0.386979	0.843910
	H5	H	0.718670	0.597308	0.159882
	H6	H	0.276765	0.598019	0.842439
	H7	H	0.278464	0.389583	0.160631
	H8	H	0.839592	0.716102	0.394436
	H9	H	0.158845	0.713896	0.606535
	H10	H	0.837960	0.273957	0.604815
	H11	H	0.159324	0.274306	0.397472
	H12	H	0.839045	0.386746	0.723337
	H13	H	0.157625	0.599165	0.723625
	H14	H	0.840107	0.599055	0.279944
	H15	H	0.158480	0.387389	0.280856
	H16	H	0.388950	0.719106	0.844243
	H17	H	0.603775	0.714920	0.159241
	H18	H	0.607667	0.269684	0.844921
	H19	H	0.394799	0.273690	0.160347
	H20	H	0.719538	0.835791	0.397249
	H21	H	0.721350	0.153014	0.607909
	H22	H	0.278787	0.835403	0.605104
	H23	H	0.280892	0.154880	0.400067
	H24	H	0.891287	0.335603	0.224609
	H25	H	0.107890	0.649972	0.225902
	H26	H	0.105962	0.336820	0.778697
	H27	H	0.887095	0.650109	0.776051
	H28	H	0.218009	0.891514	0.342737
	H29	H	0.219359	0.098109	0.660067
	H30	H	0.776514	0.100728	0.344484
	H31	H	0.774905	0.886369	0.658419
	H32	H	0.340542	0.217415	0.895696
	H33	H	0.658500	0.215009	0.106970
	H34	H	0.340232	0.772011	0.106820
	H35	H	0.658479	0.772500	0.895646
	H36	H	0.339262	0.889240	0.221452
	H37	H	0.656555	0.103131	0.225701
	H38	H	0.340936	0.103675	0.778495
	H39	H	0.656756	0.885842	0.777366
	H40	H	0.892773	0.216910	0.344481
	H41	H	0.105354	0.217035	0.659473
	H42	H	0.104262	0.772474	0.343668
	H43	H	0.889043	0.767848	0.657306
	H44	H	0.217962	0.334557	0.897979
	H45	H	0.218588	0.652369	0.105579
	H46	H	0.778541	0.334558	0.105331
	H47	H	0.778114	0.652793	0.897109
	H48	H	0.409367	0.107363	0.590170
	H49	H	0.581958	0.882959	0.590788
	H50	H	0.584188	0.108289	0.410032
	H51	H	0.411207	0.881422	0.411153
	H52	H	0.594753	0.407343	0.115489
	H53	H	0.584642	0.584464	0.888967
	H54	H	0.408705	0.591822	0.116138
	H55	H	0.411719	0.406103	0.890507
	H56	H	0.112743	0.580903	0.412303
	H57	H	0.885997	0.577578	0.589749
	H58	H	0.113486	0.405410	0.592756
	H59	H	0.883626	0.403682	0.409544
	H60	H	0.111378	0.404739	0.588485
	H61	H	0.883269	0.583414	0.591654
	H62	H	0.113155	0.583562	0.411964
	H63	H	0.885279	0.403827	0.416159
	H64	H	0.402472	0.578150	0.113764
	H65	H	0.588899	0.582850	0.888039
	H66	H	0.582480	0.410014	0.110258
	H67	H	0.409290	0.401317	0.887682
	H68	H	0.584575	0.106311	0.414834
	H69	H	0.584722	0.883825	0.586085
	H70	H	0.409865	0.108276	0.592634
	H71	H	0.406971	0.880071	0.411640
	H72	H	0.913028	0.607878	0.098803
	H73	H	0.088133	0.375782	0.103002
	H74	H	0.087595	0.609437	0.909041
	H75	H	0.912967	0.382718	0.915328
	H76	H	0.085082	0.904046	0.613469
	H77	H	0.081556	0.082053	0.391979
	H78	H	0.914806	0.079633	0.611947
	H79	H	0.906641	0.903775	0.387107
	H80	H	0.612803	0.087851	0.919467
	H81	H	0.384186	0.086150	0.089106
	H82	H	0.610291	0.909523	0.085829
	H83	H	0.388860	0.909784	0.920523
	H84	H	0.614815	0.907814	0.098149
	H85	H	0.386975	0.080133	0.088226
	H86	H	0.608533	0.073736	0.914428
	H87	H	0.385237	0.911751	0.908573
	H88	H	0.912963	0.089091	0.615006
	H89	H	0.089230	0.093355	0.385372
	H90	H	0.088013	0.901858	0.615271
	H91	H	0.911062	0.910646	0.391697
	H92	H	0.081519	0.605354	0.912098
	H93	H	0.076628	0.383782	0.088000
	H94	H	0.915901	0.602834	0.085832
	H95	H	0.906889	0.379574	0.913665
	H96	H	0.412313	0.106334	0.591301
	H97	H	0.587294	0.881003	0.590198
	H98	H	0.589013	0.108339	0.413011
	H99	H	0.409011	0.879195	0.407658
	H100	H	0.585127	0.397505	0.115273
	H101	H	0.586171	0.579993	0.890250
	H102	H	0.417063	0.581094	0.109832
	H103	H	0.406134	0.406351	0.888476
	H104	H	0.111896	0.582988	0.413584
	H105	H	0.886437	0.582393	0.586049
	H106	H	0.111254	0.408888	0.590775
	H107	H	0.886408	0.409380	0.412433
	H108	H	0.903008	0.608563	0.088632
	H109	H	0.096312	0.378921	0.084634
	H110	H	0.088276	0.606221	0.916118
	H111	H	0.912448	0.380207	0.909067
	H112	H	0.088769	0.905811	0.614427
	H113	H	0.096095	0.080352	0.387744
	H114	H	0.905629	0.082055	0.615382
	H115	H	0.915514	0.902732	0.389918
	H116	H	0.616507	0.083500	0.904928
	H117	H	0.384086	0.082183	0.094814
	H118	H	0.616019	0.898093	0.089452
	H119	H	0.383814	0.900614	0.913394
	C120	C	0.376907	0.002829	0.623598
	C121	C	0.619445	0.986471	0.622931
	C122	C	0.619138	0.003080	0.380469
	C123	C	0.377288	0.985788	0.379714
	C124	C	0.620939	0.371720	0.010100
	C125	C	0.619560	0.614850	0.993234
	C126	C	0.376338	0.616353	0.009298
	C127	C	0.377048	0.372249	0.993394
	C128	C	0.007530	0.615099	0.379920
	C129	C	0.990249	0.614223	0.622118
	C130	C	0.006612	0.373135	0.622782
	C131	C	0.990660	0.372868	0.380841
	C132	C	0.877667	0.501878	0.123155
	C133	C	0.120153	0.484304	0.124042
	C134	C	0.118738	0.502421	0.880523
	C135	C	0.876957	0.484839	0.879778
	C136	C	0.120246	0.872374	0.510094
	C137	C	0.120756	0.116537	0.493015
	C138	C	0.877809	0.115991	0.510222
	C139	C	0.877247	0.872248	0.493204
	C140	C	0.507496	0.115329	0.880410
	C141	C	0.490447	0.115320	0.122742
	C142	C	0.507843	0.873003	0.122924
	C143	C	0.490421	0.873411	0.880350
	C144	C	0.372339	0.884417	0.684767
	C145	C	0.624675	0.104407	0.685104
	C146	C	0.622491	0.883833	0.320040
	C147	C	0.374802	0.105744	0.320570
	C148	C	0.681326	0.369267	0.891342
	C149	C	0.679476	0.616381	0.112163
	C150	C	0.315646	0.617984	0.890433
	C151	C	0.317841	0.370792	0.112945
	C152	C	0.887563	0.675778	0.376673
	C153	C	0.110532	0.674551	0.624808
	C154	C	0.886379	0.312960	0.624132
	C155	C	0.111078	0.313301	0.378995
	C156	C	0.886727	0.369548	0.682710
	C157	C	0.109915	0.617270	0.682981
	C158	C	0.887900	0.617930	0.319427
	C159	C	0.110629	0.369943	0.320936
	C160	C	0.372105	0.677786	0.891147
	C161	C	0.622178	0.674836	0.112083
	C162	C	0.624639	0.310433	0.891955
	C163	C	0.376143	0.313280	0.112802
	C164	C	0.679662	0.883467	0.378247
	C165	C	0.681586	0.105019	0.626312
	C166	C	0.317133	0.883468	0.624769
	C167	C	0.318947	0.106423	0.380039
	C168	C	0.874165	0.382895	0.183706
	C169	C	0.124426	0.602983	0.184848
	C170	C	0.122638	0.383625	0.819525
	C171	C	0.871476	0.603334	0.817557
	C172	C	0.179140	0.871802	0.390586
	C173	C	0.180188	0.117467	0.612487
	C174	C	0.816709	0.118795	0.391766
	C175	C	0.814945	0.868338	0.610926
	C176	C	0.388292	0.176970	0.877418
	C177	C	0.610287	0.175791	0.125458
	C178	C	0.387932	0.812672	0.124701
	C179	C	0.610270	0.812395	0.877051
	C180	C	0.387356	0.871105	0.181795
	C181	C	0.609439	0.119653	0.184242
	C182	C	0.388169	0.120038	0.819238
	C183	C	0.609555	0.868915	0.818294
	C184	C	0.874448	0.176853	0.391831
	C185	C	0.123384	0.176547	0.611997
	C186	C	0.122384	0.812793	0.390974
	C187	C	0.871902	0.809292	0.610460
	C188	C	0.178583	0.382499	0.878894
	C189	C	0.179864	0.604074	0.125103
	C190	C	0.817854	0.382436	0.124279
	C191	C	0.816623	0.604472	0.877565
	C192	C	0.403052	0.085920	0.598567
	C193	C	0.592315	0.904292	0.596624
	C194	C	0.593572	0.085900	0.405608
	C195	C	0.401931	0.902195	0.403480
	C196	C	0.594983	0.397571	0.092264
	C197	C	0.593886	0.589678	0.910601
	C198	C	0.401952	0.591054	0.091744
	C199	C	0.401762	0.397237	0.910507
	C200	C	0.090831	0.589867	0.405461
	C201	C	0.906993	0.588533	0.596502
	C202	C	0.090270	0.398771	0.597921
	C203	C	0.906878	0.398293	0.405674
	C204	C	0.903352	0.584839	0.098387
	C205	C	0.094402	0.401172	0.099004
	C206	C	0.093017	0.585362	0.905341
	C207	C	0.903275	0.402549	0.905252
	C208	C	0.094722	0.896955	0.592744
	C209	C	0.096097	0.092240	0.410063
	C210	C	0.903431	0.090661	0.592739
	C211	C	0.903594	0.898348	0.411112
	C212	C	0.590779	0.089251	0.905677
	C213	C	0.406812	0.090123	0.097640
	C214	C	0.591730	0.898032	0.098271
	C215	C	0.407518	0.899808	0.906485
	Zn216	Zn	0.498394	-0.005833	0.751948
	Zn217	Zn	0.498447	-0.004973	0.251272
	Zn218	Zn	0.749123	0.494151	0.001178
	Zn219	Zn	0.247705	0.493456	0.001746
	Zn220	Zn	-0.001108	0.742832	0.501269
	Zn221	Zn	-0.000869	0.245178	0.502042
	Zn222	Zn	-0.002344	0.493643	0.751379
	Zn223	Zn	-0.000880	0.493817	0.252281
	Zn224	Zn	0.499216	0.745011	0.000812
	Zn225	Zn	0.499389	0.243410	0.001947
	Zn226	Zn	0.748696	-0.005438	0.501512
	Zn227	Zn	0.248959	-0.006137	0.501370
	N228	N	0.408784	0.959949	0.684204
	N229	N	0.586835	0.029611	0.683112
	N230	N	0.585734	0.959307	0.321033
	N231	N	0.410338	0.029850	0.320158
	N232	N	0.678960	0.406905	0.965721
	N233	N	0.677997	0.579783	0.037232
	N234	N	0.318209	0.580398	0.964863
	N235	N	0.318182	0.406647	0.037695
	N236	N	0.963099	0.674263	0.413471
	N237	N	0.034988	0.672949	0.587731
	N238	N	0.962119	0.315137	0.587536
	N239	N	0.035319	0.314935	0.415531
	N240	N	0.962604	0.405830	0.682219
	N241	N	0.034004	0.580859	0.681589
	N242	N	0.963497	0.581083	0.321133
	N243	N	0.034679	0.406360	0.321838
	N244	N	0.409004	0.677125	0.966038
	N245	N	0.585754	0.674000	0.037066
	N246	N	0.587530	0.312063	0.966695
	N247	N	0.412048	0.313805	0.037383
	N248	N	0.678187	0.958631	0.414824
	N249	N	0.678631	0.030387	0.588442
	N250	N	0.319836	0.958210	0.587534
	N251	N	0.320257	0.030852	0.416086
	N252	N	0.910660	0.458372	0.183242
	N253	N	0.088181	0.527471	0.184418
	N254	N	0.086189	0.459204	0.820237
	N255	N	0.908320	0.528064	0.818742
	N256	N	0.178067	0.907810	0.465655
	N257	N	0.178667	0.080880	0.537703
	N258	N	0.818456	0.081870	0.466622
	N259	N	0.818170	0.906788	0.537075
	N260	N	0.463571	0.174345	0.914509
	N261	N	0.535427	0.172707	0.087416
	N262	N	0.463758	0.813943	0.088554
	N263	N	0.535137	0.815288	0.914864
	N264	N	0.463126	0.908062	0.180809
	N265	N	0.533811	0.082807	0.182755
	N266	N	0.463598	0.082638	0.820697
	N267	N	0.533983	0.906149	0.820167
	N268	N	0.911624	0.175250	0.466443
	N269	N	0.087177	0.176246	0.536733
	N270	N	0.086370	0.812930	0.466165
	N271	N	0.909896	0.811483	0.536162
	N272	N	0.176405	0.457274	0.916224
	N273	N	0.177143	0.529300	0.087849
	N274	N	0.819908	0.457441	0.087419
	N275	N	0.819711	0.529954	0.915496
	O276	O	0.294128	0.680038	0.445380
	H277	H	0.291597	0.689959	0.433935
	H278	H	0.291519	0.687337	0.435182
	O279	O	0.350429	0.434672	0.639530
	H280	H	0.343787	0.445052	0.621099
	H281	H	0.348490	0.445043	0.644963
	O282	O	0.617320	0.564569	0.398116
	H283	H	0.622414	0.557599	0.390973
	H284	H	0.619025	0.553323	0.400371
	O285	O	0.872394	0.953522	-0.077589
	H286	H	0.877246	0.962721	-0.077407
	H287	H	0.877083	0.952760	-0.095505
	O288	O	0.449247	0.321623	0.585419
	H289	H	0.449998	0.336381	0.596229
	H290	H	0.451544	0.310175	0.600955
	O291	O	0.314269	0.676362	0.367456
	H292	H	0.308017	0.701895	0.354574
	H293	H	0.343632	0.674140	0.370180
	O294	O	1.184082	1.173971	1.079296
	H295	H	1.170264	1.192789	1.093783
	H296	H	1.175520	1.157410	1.100002
	O297	O	0.477147	0.352567	0.351651
	H298	H	0.460947	0.356797	0.370350
	H299	H	0.465006	0.361099	0.357536
	O300	O	0.687635	0.690210	0.598106
	H301	H	0.685523	0.678949	0.562491
	H302	H	0.708993	0.674203	0.603054
	O303	O	0.540341	0.530153	0.447246
	H304	H	0.540022	0.511085	0.456823
	H305	H	0.535615	0.539225	0.438973
	O306	O	0.200962	-0.031466	0.948689
	H307	H	0.183498	-0.035071	0.949555
	H308	H	0.201701	-0.015503	0.950864
	O309	O	1.136998	-0.212131	-0.028605
	H310	H	1.142180	-0.211565	-0.004378
	H311	H	1.139501	-0.218231	-0.030365
	O312	O	0.687135	0.463258	0.590024
	H313	H	0.679145	0.445369	0.594717
	H314	H	0.676427	0.466512	0.584133
	O315	O	0.641691	0.468691	0.371503
	H316	H	0.641586	0.464569	0.367158
	H317	H	0.642823	0.456050	0.358196
	O318	O	-0.043059	0.065480	0.181692
	H319	H	-0.037398	0.044471	0.179886
	H320	H	-0.040915	0.063524	0.165934
	O321	O	0.533888	0.517287	0.671181
	H322	H	0.529989	0.535100	0.669060
	H323	H	0.539095	0.506879	0.672512
	O324	O	1.120000	0.101930	1.209628
	H325	H	1.122759	0.111078	1.214077
	H326	H	1.113434	0.102123	1.213097
	O327	O	0.468641	0.621610	0.618075
	H328	H	0.486814	0.639297	0.620512
	H329	H	0.475308	0.634238	0.615893
	O330	O	-0.151287	1.017204	1.193926
	H331	H	-0.146292	0.996116	1.202236
	H332	H	-0.159900	1.007571	1.209423
	O333	O	-0.200115	0.847188	0.020109
	H334	H	-0.187265	0.857861	0.007159
	H335	H	-0.210226	0.834758	0.020817
	O336	O	1.066153	1.147625	-0.008909
	H337	H	1.072856	1.164272	-0.006478
	H338	H	1.048688	1.143385	-0.002941
	O339	O	-0.140252	1.028124	1.020771
	H340	H	-0.126720	1.019366	1.033234
	H341	H	-0.151725	1.028470	1.028072
	O342	O	0.290572	0.514086	0.312735
	H343	H	0.282834	0.541441	0.312759
	H344	H	0.277546	0.528776	0.294838
	O345	O	-0.062636	-0.092608	0.847342
	H346	H	-0.047052	-0.113609	0.838388
	H347	H	-0.048500	-0.078198	0.863349
	O348	O	0.310299	0.404439	0.610339
	H349	H	0.292479	0.395651	0.622593
	H350	H	0.332145	0.422663	0.627630
	O351	O	1.162663	0.968910	0.100674
	H352	H	1.167485	0.975593	0.083635
	H353	H	1.160895	0.971125	0.107987
	O354	O	0.788760	1.009039	0.790747
	H355	H	0.781387	0.995019	0.774034
	H356	H	0.793394	0.991278	0.778445
	O357	O	-0.518284	0.527835	0.561076
	H358	H	-0.523017	0.520255	0.563887
	H359	H	-0.511851	0.522937	0.553770
	O360	O	0.396376	0.348726	0.577617
	H361	H	0.375350	0.357535	0.574001
	H362	H	0.394310	0.353429	0.591692
	O363	O	0.829300	-0.175974	0.187870
	H364	H	0.818250	-0.188259	0.137166
	H365	H	0.843029	-0.175386	0.195119
	O366	O	-0.459796	-0.605517	1.447840
	H367	H	-0.452562	-0.601285	1.437613
	H368	H	-0.476720	-0.627170	1.460873
	O369	O	0.368965	-0.515149	0.573331
	H370	H	0.371936	-0.493457	0.577910
	H371	H	0.385280	-0.517946	0.582150
	O372	O	0.630599	0.605937	0.710917
	H373	H	0.631089	0.602652	0.707484
	H374	H	0.660287	0.604459	0.722002
	O375	O	0.132171	0.210583	1.126664
	H376	H	0.118562	0.197353	1.147189
	H377	H	0.150812	0.236984	1.138336
	O378	O	0.574601	0.504021	0.344449
	H379	H	0.568648	0.499574	0.348567
	H380	H	0.569129	0.496918	0.340153
	O381	O	-0.178475	1.018371	0.141704
	H382	H	-0.188153	1.018655	0.162108
	H383	H	-0.177797	0.999664	0.136956
	O384	O	-0.014958	0.786495	0.211233
	H385	H	-0.034603	0.798592	0.213053
	H386	H	-0.023216	0.769137	0.226988
	O387	O	0.976885	-0.023207	0.919135
	H388	H	0.981359	-0.028541	0.912160
	H389	H	0.972226	-0.030424	0.925109
	O390	O	1.896121	0.036169	-0.033762
	H391	H	1.907299	0.044250	-0.037067
	H392	H	1.901292	0.037116	-0.055922
	O393	O	0.815473	0.183814	0.864437
	H394	H	0.795923	0.153713	0.856024
	H395	H	0.812668	0.178317	0.903848
	O396	O	1.173127	0.827332	-0.164321
	H397	H	1.180759	0.855351	-0.165425
	H398	H	1.186541	0.836898	-0.135121
	O399	O	0.015211	1.047535	1.099612
	H400	H	0.006827	1.043852	1.094803
	H401	H	0.018521	1.027341	1.097954
	O402	O	1.067756	1.052281	-0.187869
	H403	H	1.066621	1.071228	-0.194385
	H404	H	1.057165	1.057810	-0.187280
	O405	O	0.532679	0.615361	0.674869
	H406	H	0.548159	0.622408	0.665163
	H407	H	0.540827	0.611027	0.659788
	O408	O	0.529617	0.673206	0.455701
	H409	H	0.531250	0.663451	0.462247
	H410	H	0.527817	0.670065	0.469569
	O411	O	1.042932	1.058297	0.964964
	H412	H	1.054406	1.057534	0.968710
	H413	H	1.024842	1.052866	0.951479
	O414	O	0.607558	0.328256	0.395227
	H415	H	0.610738	0.301908	0.383392
	H416	H	0.574779	0.328246	0.406166
	O417	O	-0.057899	1.199552	0.792725
	H418	H	-0.092465	1.178481	0.803258
	H419	H	-0.067567	1.227876	0.779594
	O420	O	0.406612	1.371659	0.645554
	H421	H	0.393815	1.391140	0.646131
	H422	H	0.399961	1.375990	0.652300
	O423	O	0.208192	0.983348	-0.190154
	H424	H	0.226223	0.996594	-0.193576
	H425	H	0.209537	1.007052	-0.193158
	O426	O	0.059504	0.953681	0.108902
	H427	H	0.054159	0.963817	0.094058
	H428	H	0.064929	0.964543	0.104675
	O429	O	0.630925	0.348553	0.567473
	H430	H	0.625797	0.338688	0.566811
	H431	H	0.624833	0.337816	0.572590
	O432	O	0.688577	0.321454	0.355323
	H433	H	0.690617	0.307219	0.370623
	H434	H	0.662126	0.306088	0.361456
	O435	O	0.125071	-0.199957	0.120498
	H436	H	0.094979	-0.190782	0.123869
	H437	H	0.127255	-0.192331	0.093332
	O438	O	0.027224	0.774890	0.783406
	H439	H	0.072754	0.786665	0.789408
	H440	H	0.027565	0.744629	0.751472
	O441	O	0.483042	0.689304	0.299771
	H442	H	0.499484	0.689276	0.300290
	H443	H	0.495126	0.683921	0.296114
