data_Molecule from HDF5

_cell_length_a		16.516289
_cell_length_b		16.444833
_cell_length_c		16.386006
_cell_angle_alpha	90.209487
_cell_angle_beta	90.017538
_cell_angle_gamma	90.015505
_symmetry_space_group_name_H-M	'P 1'
_symmetry_Int_Tables_number		1

loop_
	_symmetry_equiv_pos_as_xyz
	x,y,z

loop_
	_atom_site_label
	_atom_site_type_symbol
	_atom_site_fract_x
	_atom_site_fract_y
	_atom_site_fract_z
	H0	H	0.384960	0.839270	0.735362
	H1	H	0.593257	0.156722	0.735234
	H2	H	0.598019	0.840726	0.291141
	H3	H	0.387565	0.157184	0.294605
	H4	H	0.711794	0.391094	0.855988
	H5	H	0.713524	0.606065	0.172625
	H6	H	0.268497	0.604573	0.856962
	H7	H	0.267699	0.390576	0.173317
	H8	H	0.833386	0.721290	0.407307
	H9	H	0.148034	0.721727	0.622926
	H10	H	0.834672	0.275131	0.621256
	H11	H	0.148617	0.275960	0.407180
	H12	H	0.834283	0.390433	0.737691
	H13	H	0.147362	0.605774	0.738905
	H14	H	0.832518	0.603418	0.292152
	H15	H	0.148090	0.391069	0.290914
	H16	H	0.385611	0.718066	0.856227
	H17	H	0.599790	0.723533	0.171279
	H18	H	0.593893	0.277291	0.855563
	H19	H	0.384768	0.275982	0.173825
	H20	H	0.714558	0.840731	0.406804
	H21	H	0.713957	0.155106	0.624681
	H22	H	0.267092	0.840104	0.619981
	H23	H	0.268940	0.156753	0.407910
	H24	H	0.887749	0.339784	0.233749
	H25	H	0.097700	0.655490	0.239049
	H26	H	0.094314	0.341434	0.792763
	H27	H	0.883355	0.655469	0.792142
	H28	H	0.213809	0.890269	0.355602
	H29	H	0.212557	0.104419	0.671024
	H30	H	0.766292	0.105954	0.358220
	H31	H	0.768337	0.890099	0.672437
	H32	H	0.334568	0.219936	0.909684
	H33	H	0.646653	0.222402	0.124365
	H34	H	0.335856	0.772559	0.124401
	H35	H	0.646963	0.773800	0.905922
	H36	H	0.335744	0.888222	0.240308
	H37	H	0.647868	0.104206	0.237446
	H38	H	0.334657	0.103659	0.792674
	H39	H	0.646975	0.890248	0.791011
	H40	H	0.885189	0.219108	0.356289
	H41	H	0.095998	0.220703	0.671043
	H42	H	0.099779	0.772903	0.356875
	H43	H	0.884812	0.775941	0.672549
	H44	H	0.213610	0.342238	0.907549
	H45	H	0.217500	0.653749	0.127706
	H46	H	0.766307	0.341960	0.122694
	H47	H	0.765547	0.654618	0.905454
	H48	H	0.400952	0.111018	0.604447
	H49	H	0.574423	0.885081	0.607966
	H50	H	0.573269	0.107537	0.430445
	H51	H	0.401793	0.886361	0.428253
	H52	H	0.580271	0.413448	0.127644
	H53	H	0.576610	0.585742	0.901758
	H54	H	0.406859	0.591875	0.129727
	H55	H	0.403178	0.404467	0.901098
	H56	H	0.102400	0.589232	0.427621
	H57	H	0.879650	0.585933	0.602310
	H58	H	0.103672	0.406249	0.600861
	H59	H	0.876071	0.398750	0.428708
	H60	H	0.100901	0.414382	0.598509
	H61	H	0.878818	0.588334	0.603098
	H62	H	0.100665	0.583995	0.428631
	H63	H	0.882454	0.416118	0.430142
	H64	H	0.397949	0.583386	0.128053
	H65	H	0.580987	0.586630	0.899869
	H66	H	0.576789	0.409749	0.127367
	H67	H	0.397168	0.410930	0.900985
	H68	H	0.584914	0.109874	0.432398
	H69	H	0.579145	0.887567	0.594531
	H70	H	0.402250	0.109951	0.602638
	H71	H	0.401255	0.885666	0.426786
	H72	H	0.906321	0.610781	0.104804
	H73	H	0.077408	0.386726	0.102835
	H74	H	0.081483	0.610438	0.933459
	H75	H	0.903228	0.385232	0.922240
	H76	H	0.082889	0.906302	0.629103
	H77	H	0.075334	0.085871	0.400934
	H78	H	0.903043	0.082322	0.626540
	H79	H	0.902866	0.910757	0.401857
	H80	H	0.604574	0.084834	0.923236
	H81	H	0.378676	0.085998	0.102790
	H82	H	0.598730	0.914957	0.096131
	H83	H	0.375903	0.900926	0.927946
	H84	H	0.603824	0.913627	0.107873
	H85	H	0.377319	0.086303	0.104974
	H86	H	0.605102	0.089655	0.925513
	H87	H	0.382237	0.913349	0.932482
	H88	H	0.906712	0.089995	0.627672
	H89	H	0.080258	0.090926	0.397703
	H90	H	0.081313	0.916155	0.625483
	H91	H	0.902700	0.911961	0.402777
	H92	H	0.081766	0.613431	0.924047
	H93	H	0.080037	0.387115	0.098931
	H94	H	0.902641	0.608470	0.097100
	H95	H	0.903826	0.388439	0.929264
	H96	H	0.399875	0.110653	0.602356
	H97	H	0.587508	0.881892	0.604245
	H98	H	0.579704	0.113064	0.421513
	H99	H	0.402735	0.886377	0.426832
	H100	H	0.581172	0.408901	0.129448
	H101	H	0.579937	0.583112	0.902380
	H102	H	0.409181	0.580826	0.124693
	H103	H	0.405456	0.412510	0.904798
	H104	H	0.103489	0.585600	0.423339
	H105	H	0.878939	0.587729	0.600534
	H106	H	0.104079	0.412712	0.606592
	H107	H	0.876260	0.410142	0.414609
	H108	H	0.897512	0.612892	0.103366
	H109	H	0.081870	0.384426	0.102741
	H110	H	0.073396	0.609639	0.927378
	H111	H	0.897606	0.384146	0.927474
	H112	H	0.073321	0.909039	0.624944
	H113	H	0.082566	0.084188	0.399502
	H114	H	0.898822	0.089512	0.629757
	H115	H	0.904419	0.911140	0.402772
	H116	H	0.603052	0.085863	0.929224
	H117	H	0.378275	0.088144	0.103893
	H118	H	0.604842	0.904397	0.099631
	H119	H	0.377319	0.912241	0.919289
	C120	C	0.368335	0.006507	0.635820
	C121	C	0.612221	0.989368	0.636114
	C122	C	0.612707	0.006415	0.393955
	C123	C	0.369669	0.990345	0.393737
	C124	C	0.611512	0.377150	0.023248
	C125	C	0.612808	0.619631	1.005392
	C126	C	0.370523	0.618879	0.023456
	C127	C	0.369210	0.376142	1.007179
	C128	C	-0.001593	0.619209	0.393138
	C129	C	0.982467	0.620706	0.636387
	C130	C	-0.000955	0.377911	0.635053
	C131	C	0.982514	0.375921	0.391744
	C132	C	0.869515	0.506645	0.135094
	C133	C	0.112982	0.489801	0.136221
	C134	C	0.111605	0.507164	0.894603
	C135	C	0.868174	0.489750	0.892979
	C136	C	0.112446	0.876742	0.522153
	C137	C	0.111640	0.119284	0.504439
	C138	C	0.869399	0.120188	0.523772
	C139	C	0.870118	0.877632	0.506432
	C140	C	0.500180	0.119061	0.893593
	C141	C	0.482240	0.119391	0.136573
	C142	C	0.499638	0.876489	0.135829
	C143	C	0.482138	0.875881	0.892910
	C144	C	0.366279	0.886950	0.695588
	C145	C	0.613030	0.108643	0.696361
	C146	C	0.615900	0.888009	0.331879
	C147	C	0.368286	0.109506	0.333614
	C148	C	0.671533	0.373779	0.903627
	C149	C	0.673743	0.623975	0.124671
	C150	C	0.308914	0.621981	0.904570
	C151	C	0.308396	0.373074	0.125776
	C152	C	0.880359	0.680601	0.389585
	C153	C	0.100805	0.681514	0.639957
	C154	C	0.881407	0.315859	0.638762
	C155	C	0.101143	0.316112	0.389153
	C156	C	0.881210	0.373655	0.696761
	C157	C	0.100272	0.623859	0.698268
	C158	C	0.879901	0.621823	0.332263
	C159	C	0.101040	0.373575	0.331205
	C160	C	0.367119	0.678853	0.904061
	C161	C	0.616789	0.682331	0.124106
	C162	C	0.612999	0.316884	0.903448
	C163	C	0.366499	0.315445	0.125899
	C164	C	0.673957	0.888108	0.389604
	C165	C	0.672795	0.108050	0.640851
	C166	C	0.307661	0.887476	0.638315
	C167	C	0.309644	0.109465	0.390395
	C168	C	0.868092	0.387386	0.194614
	C169	C	0.116048	0.607973	0.198502
	C170	C	0.113586	0.388507	0.833316
	C171	C	0.865338	0.608058	0.832113
	C172	C	0.173705	0.872616	0.403358
	C173	C	0.172054	0.122328	0.623672
	C174	C	0.807661	0.123318	0.405241
	C175	C	0.809156	0.873485	0.625137
	C176	C	0.381705	0.179587	0.891276
	C177	C	0.600084	0.180983	0.140708
	C178	C	0.382668	0.813556	0.141056
	C179	C	0.599819	0.814462	0.888720
	C180	C	0.382602	0.871391	0.198808
	C181	C	0.600609	0.122283	0.197507
	C182	C	0.381645	0.121730	0.833085
	C183	C	0.599949	0.872631	0.831555
	C184	C	0.866654	0.179946	0.404344
	C185	C	0.114329	0.179998	0.623964
	C186	C	0.116563	0.814175	0.403820
	C187	C	0.867378	0.816411	0.625141
	C188	C	0.172630	0.389129	0.890334
	C189	C	0.175845	0.607020	0.142896
	C190	C	0.807829	0.388625	0.139520
	C191	C	0.806946	0.607774	0.889216
	C192	C	0.393603	0.088860	0.610530
	C193	C	0.587466	0.906551	0.609768
	C194	C	0.586893	0.088697	0.420643
	C195	C	0.394749	0.907828	0.419689
	C196	C	0.586665	0.403116	0.106348
	C197	C	0.586737	0.592886	0.923122
	C198	C	0.397123	0.592993	0.105935
	C199	C	0.394641	0.401879	0.924104
	C200	C	0.080545	0.593517	0.418925
	C201	C	0.900578	0.594911	0.609691
	C202	C	0.081220	0.403771	0.609262
	C203	C	0.899948	0.400991	0.417081
	C204	C	0.894886	0.589238	0.109251
	C205	C	0.087016	0.407667	0.109183
	C206	C	0.086054	0.589866	0.920845
	C207	C	0.894114	0.407293	0.919041
	C208	C	0.086531	0.903059	0.604962
	C209	C	0.086475	0.094160	0.421037
	C210	C	0.895490	0.094534	0.606404
	C211	C	0.895977	0.903911	0.423830
	C212	C	0.582584	0.093885	0.918887
	C213	C	0.399844	0.094134	0.111198
	C214	C	0.581279	0.903288	0.108923
	C215	C	0.399727	0.901474	0.919174
	Zn216	Zn	0.490321	-0.002714	0.764221
	Zn217	Zn	0.490907	-0.002165	0.265011
	Zn218	Zn	0.740303	0.497964	0.014683
	Zn219	Zn	0.241835	0.498555	0.015436
	Zn220	Zn	-0.009244	0.748569	0.514363
	Zn221	Zn	-0.008656	0.248376	0.514214
	Zn222	Zn	-0.009427	0.498884	0.764849
	Zn223	Zn	-0.009434	0.498022	0.263826
	Zn224	Zn	0.490857	0.747289	0.014061
	Zn225	Zn	0.491228	0.248000	0.015547
	Zn226	Zn	0.741210	-0.001587	0.515616
	Zn227	Zn	0.239918	-0.001324	0.513486
	N228	N	0.403224	0.961865	0.694280
	N229	N	0.576175	0.033801	0.693605
	N230	N	0.578328	0.962464	0.334493
	N231	N	0.404718	0.034327	0.335295
	N232	N	0.670902	0.410555	0.979232
	N233	N	0.671476	0.585814	0.049967
	N234	N	0.310554	0.585760	0.980143
	N235	N	0.310049	0.410086	0.050842
	N236	N	0.955080	0.679385	0.426413
	N237	N	0.026379	0.679768	0.602325
	N238	N	0.955666	0.318403	0.600987
	N239	N	0.026299	0.317318	0.425836
	N240	N	0.955358	0.411499	0.694610
	N241	N	0.025682	0.587088	0.696344
	N242	N	0.954491	0.584773	0.333935
	N243	N	0.026088	0.410113	0.332548
	N244	N	0.404479	0.677157	0.979006
	N245	N	0.579674	0.679992	0.048954
	N246	N	0.576706	0.318831	0.978845
	N247	N	0.403491	0.317253	0.050773
	N248	N	0.672030	0.962847	0.427461
	N249	N	0.672590	0.032742	0.604283
	N250	N	0.308482	0.962808	0.602154
	N251	N	0.310322	0.034320	0.426739
	N252	N	0.905702	0.461768	0.192038
	N253	N	0.077718	0.533925	0.194751
	N254	N	0.076346	0.463067	0.835862
	N255	N	0.902792	0.533547	0.834432
	N256	N	0.171155	0.910862	0.477994
	N257	N	0.170458	0.085461	0.548439
	N258	N	0.808979	0.087248	0.480612
	N259	N	0.810926	0.911014	0.550424
	N260	N	0.456268	0.177898	0.928285
	N261	N	0.525631	0.179155	0.103437
	N262	N	0.456577	0.816646	0.102459
	N263	N	0.525531	0.816422	0.926224
	N264	N	0.456327	0.909815	0.195658
	N265	N	0.526412	0.084487	0.195006
	N266	N	0.456279	0.084880	0.834382
	N267	N	0.525485	0.909980	0.833949
	N268	N	0.904178	0.178288	0.479210
	N269	N	0.077664	0.178222	0.548660
	N270	N	0.079239	0.816453	0.478745
	N271	N	0.904698	0.818899	0.550137
	N272	N	0.171356	0.464028	0.927730
	N273	N	0.174002	0.532475	0.104972
	N274	N	0.808469	0.463898	0.103375
	N275	N	0.808592	0.532922	0.926160
	O276	O	0.759144	0.949426	0.961688
	H277	H	0.763325	0.920404	0.955239
	H278	H	0.747302	0.947633	0.947847
	O279	O	0.810042	-0.208124	1.000046
	H280	H	0.801080	-0.202631	0.993539
	H281	H	0.792907	-0.211945	0.993059
	O282	O	0.444620	0.297262	0.715548
	H283	H	0.466642	0.291464	0.726115
	H284	H	0.461182	0.302070	0.708439
	O285	O	0.359364	0.647425	0.339809
	H286	H	0.351751	0.662652	0.373612
	H287	H	0.377145	0.638348	0.337620
	O288	O	1.205238	1.139575	0.105141
	H289	H	1.219165	1.169814	0.116520
	H290	H	1.216323	1.126823	0.126771
	O291	O	0.491011	0.698777	0.310543
	H292	H	0.494440	0.705930	0.335045
	H293	H	0.489533	0.718778	0.295615
	O294	O	0.192104	0.102012	0.995790
	H295	H	0.198087	0.113195	0.988546
	H296	H	0.192203	0.085809	0.979959
	O297	O	0.418319	0.551305	0.594968
	H298	H	0.417221	0.531770	0.601959
	H299	H	0.419152	0.537647	0.581148
	O300	O	0.434736	0.629324	0.581264
	H301	H	0.428008	0.622946	0.580345
	H302	H	0.444849	0.622453	0.573651
	O303	O	0.024050	0.925391	0.184159
	H304	H	0.017689	0.914387	0.182028
	H305	H	0.026878	0.920304	0.187779
	O306	O	0.538845	0.371121	0.551528
	H307	H	0.547023	0.370611	0.539792
	H308	H	0.546571	0.363847	0.545962
	O309	O	1.391046	-0.652955	0.431265
	H310	H	1.365953	-0.652362	0.449069
	H311	H	1.398650	-0.659155	0.442595
	O312	O	0.015152	1.112512	0.808631
	H313	H	0.012884	1.112614	0.794825
	H314	H	0.034284	1.105071	0.831116
	O315	O	0.281473	0.484515	0.694075
	H316	H	0.283242	0.469411	0.695842
	H317	H	0.268333	0.466456	0.702001
	O318	O	1.184762	-0.219050	-0.005627
	H319	H	1.179119	-0.214676	0.012142
	H320	H	1.206624	-0.233584	0.004209
	O321	O	-0.059764	-0.212127	0.226368
	H322	H	-0.071151	-0.219588	0.229010
	H323	H	-0.065623	-0.231251	0.227748
	O324	O	0.296126	0.692350	0.474384
	H325	H	0.285670	0.690462	0.489562
	H326	H	0.290346	0.677011	0.498009
	O327	O	0.688983	0.341551	0.431076
	H328	H	0.677727	0.353041	0.403160
	H329	H	0.716389	0.307383	0.420496
	O330	O	0.192831	0.896584	0.104077
	H331	H	0.200669	0.894350	0.111430
	H332	H	0.182248	0.911172	0.111457
	O333	O	0.999077	-0.206982	0.807675
	H334	H	0.990451	-0.230594	0.783803
	H335	H	0.975087	-0.199328	0.823024
	O336	O	-0.061249	-0.100465	0.036112
	H337	H	-0.049537	-0.109116	0.050144
	H338	H	-0.069809	-0.087507	0.031286
	O339	O	0.025336	1.097866	1.070299
	H340	H	0.048214	1.105952	1.074174
	H341	H	0.020010	1.082913	1.068825
	O342	O	-0.034549	1.177856	1.162307
	H343	H	-0.030797	1.185173	1.181387
	H344	H	-0.043157	1.171375	1.148555
	O345	O	0.960591	0.954975	-0.155226
	H346	H	0.979942	0.940932	-0.150983
	H347	H	0.956406	0.971395	-0.156489
	O348	O	0.058719	0.762777	0.087128
	H349	H	0.065165	0.762022	0.110412
	H350	H	0.045832	0.760568	0.086730
	O351	O	-0.099862	1.143898	1.115816
	H352	H	-0.096754	1.145377	1.111566
	H353	H	-0.097352	1.143966	1.117786
	O354	O	0.174400	0.818418	-0.165141
	H355	H	0.138421	0.806059	-0.161296
	H356	H	0.169043	0.802776	-0.131212
	O357	O	-0.192404	0.002266	1.216206
	H358	H	-0.185769	0.006996	1.226343
	H359	H	-0.201557	0.001076	1.224234
	O360	O	0.538687	0.401976	0.381734
	H361	H	0.520549	0.411424	0.386019
	H362	H	0.525861	0.401996	0.388708
	O363	O	0.590662	-0.494259	0.471259
	H364	H	0.586043	-0.502658	0.473071
	H365	H	0.591344	-0.494804	0.454018
	O366	O	0.606135	0.305283	0.346042
	H367	H	0.570751	0.298549	0.339318
	H368	H	0.616882	0.336107	0.330139
	O369	O	0.671387	0.677620	0.647028
	H370	H	0.647422	0.688439	0.653274
	H371	H	0.672230	0.675763	0.630304
	O372	O	0.793000	0.009723	0.841399
	H373	H	0.799833	0.008058	0.834937
	H374	H	0.779957	0.011906	0.824204
	O375	O	0.500191	0.397904	0.594786
	H376	H	0.511085	0.413103	0.608823
	H377	H	0.505559	0.390978	0.581216
	O378	O	0.320036	0.301712	0.464741
	H379	H	0.319809	0.293511	0.487237
	H380	H	0.311631	0.291642	0.479730
	O381	O	0.704688	0.403710	0.545610
	H382	H	0.712718	0.409928	0.545164
	H383	H	0.712142	0.377611	0.534461
	O384	O	0.520919	0.525098	0.332404
	H385	H	0.506896	0.532614	0.334034
	H386	H	0.505371	0.521656	0.338161
	O387	O	-0.499757	0.514568	0.668796
	H388	H	-0.496835	0.519306	0.661821
	H389	H	-0.486755	0.497856	0.678563
	O390	O	-0.029636	0.185817	-0.085645
	H391	H	-0.022394	0.179648	-0.076469
	H392	H	-0.021391	0.181488	-0.082484
	O393	O	0.966712	1.003381	1.041629
	H394	H	0.967639	1.013412	1.054738
	H395	H	0.961057	0.999147	1.028398
	O396	O	0.893688	-0.143625	-0.013376
	H397	H	0.886818	-0.126195	-0.013795
	H398	H	0.882106	-0.140076	-0.010805
	O399	O	1.204750	0.044830	1.128962
	H400	H	1.195673	0.031108	1.122514
	H401	H	1.220583	0.034937	1.148525
	O402	O	1.285022	0.310560	0.713207
	H403	H	1.328674	0.310629	0.717134
	H404	H	1.256796	0.281651	0.745531
	O405	O	0.823117	1.176942	-0.165253
	H406	H	0.872470	1.182583	-0.168452
	H407	H	0.812041	1.149607	-0.163270
	O408	O	0.778069	0.211777	-0.012261
	H409	H	0.749146	0.236465	-0.017188
	H410	H	0.798956	0.207059	-0.037325
	O411	O	0.800055	0.926131	-0.088767
	H412	H	0.806654	0.937200	-0.081318
	H413	H	0.783791	0.939154	-0.100013
	O414	O	-0.194734	0.811846	1.164780
	H415	H	-0.215841	0.818695	1.154966
	H416	H	-0.189291	0.819360	1.142569
	O417	O	0.698730	0.402217	0.317165
	H418	H	0.725792	0.390211	0.279746
	H419	H	0.666492	0.421230	0.316235
	O420	O	0.415253	0.384707	0.505366
	H421	H	0.405276	0.382145	0.495945
	H422	H	0.423602	0.374882	0.504452
	O423	O	0.650997	1.675574	0.508915
	H424	H	0.661673	1.660494	0.500667
	H425	H	0.648858	1.673577	0.508633
	O426	O	1.075100	1.004685	-0.085679
	H427	H	1.087098	1.006165	-0.080525
	H428	H	1.086126	0.996472	-0.080384
	O429	O	0.537955	0.681290	0.484290
	H430	H	0.533880	0.668491	0.489580
	H431	H	0.540147	0.673633	0.491955
	O432	O	1.212134	-0.022801	-0.202745
	H433	H	1.246167	-0.033207	-0.236668
	H434	H	1.197068	-0.072054	-0.190972
	O435	O	0.513785	0.696501	0.712074
	H436	H	0.500483	0.701619	0.705152
	H437	H	0.502659	0.687694	0.723597
	O438	O	-0.077760	0.085544	0.228491
	H439	H	-0.068559	0.066171	0.223651
	H440	H	-0.090583	0.083081	0.237608
	O441	O	1.160060	0.187491	-0.154689
	H442	H	1.134087	0.176260	-0.142976
	H443	H	1.161218	0.163752	-0.132680
	O444	O	0.686660	1.514370	0.718808
	H445	H	0.686530	1.536201	0.723790
	H446	H	0.703234	1.513624	0.717924
	O447	O	0.169155	0.175185	0.191998
	H448	H	0.175156	0.160460	0.173701
	H449	H	0.125199	0.184236	0.204037
	O450	O	0.306332	0.513525	0.528909
	H451	H	0.309279	0.493323	0.512011
	H452	H	0.299799	0.502085	0.538341
	O453	O	0.301463	0.509001	0.307071
	H454	H	0.287248	0.514449	0.283841
	H455	H	0.301973	0.536691	0.311150
