data_Molecule from HDF5

_cell_length_a		16.505441
_cell_length_b		16.417548
_cell_length_c		16.414309
_cell_angle_alpha	90.035434
_cell_angle_beta	90.103565
_cell_angle_gamma	90.005239
_symmetry_space_group_name_H-M	'P 1'
_symmetry_Int_Tables_number		1

loop_
	_symmetry_equiv_pos_as_xyz
	x,y,z

loop_
	_atom_site_label
	_atom_site_type_symbol
	_atom_site_fract_x
	_atom_site_fract_y
	_atom_site_fract_z
	H0	H	0.391286	0.846286	0.726417
	H1	H	0.603426	0.162372	0.728482
	H2	H	0.601350	0.845053	0.285236
	H3	H	0.390992	0.160802	0.281924
	H4	H	0.719814	0.396979	0.847873
	H5	H	0.720714	0.612991	0.162302
	H6	H	0.275397	0.609299	0.847343
	H7	H	0.273259	0.396944	0.163029
	H8	H	0.838363	0.727654	0.397547
	H9	H	0.154593	0.724494	0.607513
	H10	H	0.837954	0.283929	0.608649
	H11	H	0.153582	0.283010	0.397174
	H12	H	0.837638	0.400356	0.725278
	H13	H	0.154187	0.608913	0.724567
	H14	H	0.838719	0.613086	0.280196
	H15	H	0.153026	0.399358	0.281343
	H16	H	0.391930	0.724349	0.847267
	H17	H	0.602681	0.726121	0.164060
	H18	H	0.602619	0.282257	0.847420
	H19	H	0.392993	0.284795	0.165589
	H20	H	0.719257	0.847008	0.399326
	H21	H	0.720360	0.162480	0.613615
	H22	H	0.274029	0.847150	0.611953
	H23	H	0.274388	0.161517	0.395957
	H24	H	0.891329	0.347901	0.224627
	H25	H	0.103623	0.663602	0.228560
	H26	H	0.100357	0.346754	0.784705
	H27	H	0.890286	0.664034	0.783300
	H28	H	0.222079	0.894315	0.348323
	H29	H	0.217987	0.109744	0.662670
	H30	H	0.772116	0.111525	0.348303
	H31	H	0.774157	0.896819	0.662640
	H32	H	0.338950	0.225963	0.900943
	H33	H	0.652402	0.227370	0.114113
	H34	H	0.338941	0.780100	0.112214
	H35	H	0.654316	0.782783	0.901575
	H36	H	0.339509	0.893609	0.231047
	H37	H	0.653804	0.108403	0.227589
	H38	H	0.339566	0.109930	0.784300
	H39	H	0.653960	0.897515	0.784129
	H40	H	0.890477	0.225070	0.346025
	H41	H	0.102198	0.226200	0.662598
	H42	H	0.104453	0.780014	0.347090
	H43	H	0.888946	0.780847	0.662188
	H44	H	0.216618	0.346511	0.900307
	H45	H	0.221655	0.662502	0.114620
	H46	H	0.774846	0.348167	0.110258
	H47	H	0.772932	0.662549	0.896684
	H48	H	0.409718	0.116942	0.592933
	H49	H	0.584539	0.890421	0.599039
	H50	H	0.580928	0.115790	0.416562
	H51	H	0.402862	0.890608	0.422837
	H52	H	0.580374	0.420711	0.115470
	H53	H	0.587011	0.591533	0.891735
	H54	H	0.408256	0.591809	0.118883
	H55	H	0.404560	0.415649	0.891671
	H56	H	0.110914	0.595813	0.411487
	H57	H	0.885857	0.591888	0.587332
	H58	H	0.106672	0.422335	0.595311
	H59	H	0.884130	0.419831	0.412262
	H60	H	0.111521	0.412219	0.600385
	H61	H	0.882688	0.589282	0.598992
	H62	H	0.106653	0.596628	0.422555
	H63	H	0.881704	0.412374	0.414473
	H64	H	0.407838	0.591164	0.118777
	H65	H	0.582574	0.591192	0.893545
	H66	H	0.585327	0.410232	0.120334
	H67	H	0.407852	0.417601	0.894007
	H68	H	0.583422	0.115641	0.421727
	H69	H	0.583027	0.894105	0.590912
	H70	H	0.406442	0.118308	0.592631
	H71	H	0.407191	0.888434	0.412172
	H72	H	0.908059	0.618225	0.089439
	H73	H	0.081172	0.398854	0.080550
	H74	H	0.093098	0.618633	0.921042
	H75	H	0.909521	0.391947	0.913785
	H76	H	0.086638	0.915274	0.617642
	H77	H	0.090719	0.097429	0.388181
	H78	H	0.907523	0.097145	0.620352
	H79	H	0.904760	0.909037	0.387934
	H80	H	0.609105	0.091476	0.914786
	H81	H	0.383494	0.094513	0.091669
	H82	H	0.609353	0.911117	0.095383
	H83	H	0.381697	0.914286	0.911512
	H84	H	0.606181	0.916712	0.090472
	H85	H	0.385884	0.089790	0.092321
	H86	H	0.610995	0.095743	0.916538
	H87	H	0.383664	0.911241	0.919718
	H88	H	0.906557	0.090387	0.618133
	H89	H	0.087370	0.087292	0.392189
	H90	H	0.085604	0.921355	0.615204
	H91	H	0.901813	0.925578	0.393246
	H92	H	0.086447	0.621840	0.908525
	H93	H	0.098442	0.388019	0.094682
	H94	H	0.906490	0.620340	0.093192
	H95	H	0.907183	0.393636	0.917986
	H96	H	0.408388	0.117833	0.596369
	H97	H	0.591219	0.890599	0.592360
	H98	H	0.586384	0.118191	0.417396
	H99	H	0.413616	0.894300	0.420213
	H100	H	0.592401	0.420424	0.118622
	H101	H	0.584087	0.595287	0.892461
	H102	H	0.408880	0.591325	0.118951
	H103	H	0.408939	0.413661	0.892035
	H104	H	0.104887	0.586208	0.416324
	H105	H	0.879987	0.600384	0.594279
	H106	H	0.107804	0.411906	0.588395
	H107	H	0.885634	0.417012	0.419185
	H108	H	0.910795	0.618462	0.092336
	H109	H	0.075748	0.392772	0.103670
	H110	H	0.079203	0.615529	0.919644
	H111	H	0.905103	0.391158	0.914269
	H112	H	0.080555	0.916905	0.615401
	H113	H	0.080084	0.095647	0.391553
	H114	H	0.912556	0.093515	0.616038
	H115	H	0.917729	0.917826	0.396177
	H116	H	0.608391	0.093513	0.919703
	H117	H	0.382867	0.091817	0.096465
	H118	H	0.607803	0.918589	0.098567
	H119	H	0.385626	0.919867	0.917547
	C120	C	0.375695	0.013076	0.626625
	C121	C	0.619061	0.996117	0.627482
	C122	C	0.616972	0.012338	0.385301
	C123	C	0.374710	0.994806	0.383683
	C124	C	0.618551	0.383328	0.013897
	C125	C	0.617512	0.625651	0.996902
	C126	C	0.375421	0.624826	0.014310
	C127	C	0.374983	0.382973	0.997393
	C128	C	0.003956	0.626714	0.382788
	C129	C	0.987314	0.626441	0.625999
	C130	C	0.004500	0.383168	0.626468
	C131	C	0.987635	0.383553	0.382420
	C132	C	0.875852	0.514557	0.124378
	C133	C	0.118390	0.497289	0.126591
	C134	C	0.117497	0.513631	0.884334
	C135	C	0.874290	0.496560	0.882564
	C136	C	0.117702	0.883972	0.512415
	C137	C	0.118177	0.126142	0.495360
	C138	C	0.875373	0.125946	0.513680
	C139	C	0.874958	0.883464	0.496479
	C140	C	0.505229	0.125848	0.884462
	C141	C	0.487863	0.124629	0.126933
	C142	C	0.504286	0.881484	0.128001
	C143	C	0.487989	0.882731	0.884457
	C144	C	0.373155	0.893775	0.686369
	C145	C	0.621747	0.114975	0.688319
	C146	C	0.619441	0.892731	0.325324
	C147	C	0.372314	0.113573	0.322251
	C148	C	0.679170	0.379459	0.895292
	C149	C	0.679435	0.629868	0.115467
	C150	C	0.315308	0.627696	0.894919
	C151	C	0.314107	0.379631	0.115949
	C152	C	0.885569	0.687763	0.379174
	C153	C	0.106892	0.685181	0.626696
	C154	C	0.885487	0.323376	0.627774
	C155	C	0.105930	0.322882	0.379428
	C156	C	0.885562	0.381332	0.685996
	C157	C	0.106625	0.627758	0.685066
	C158	C	0.885713	0.630418	0.321166
	C159	C	0.105761	0.381120	0.321860
	C160	C	0.373316	0.684975	0.895003
	C161	C	0.620668	0.686401	0.116292
	C162	C	0.620975	0.322040	0.895138
	C163	C	0.373761	0.323688	0.117168
	C164	C	0.678202	0.893838	0.381964
	C165	C	0.680251	0.114847	0.631376
	C166	C	0.314804	0.894426	0.629194
	C167	C	0.314454	0.113863	0.379278
	C168	C	0.873396	0.395363	0.184745
	C169	C	0.121803	0.616097	0.188050
	C170	C	0.118851	0.394349	0.824501
	C171	C	0.871811	0.615912	0.822518
	C172	C	0.180410	0.878054	0.394858
	C173	C	0.178328	0.128381	0.614793
	C174	C	0.813110	0.129399	0.395399
	C175	C	0.814362	0.879789	0.615199
	C176	C	0.386345	0.185892	0.882308
	C177	C	0.605771	0.186124	0.131078
	C178	C	0.386202	0.819960	0.130942
	C179	C	0.606848	0.822581	0.883014
	C180	C	0.386439	0.877065	0.189665
	C181	C	0.606043	0.127278	0.187999
	C182	C	0.386621	0.128049	0.824355
	C183	C	0.606584	0.879927	0.824555
	C184	C	0.872023	0.185908	0.394167
	C185	C	0.120571	0.186390	0.614913
	C186	C	0.121628	0.821204	0.394283
	C187	C	0.871521	0.821641	0.614865
	C188	C	0.176734	0.394156	0.882034
	C189	C	0.180340	0.615628	0.130977
	C190	C	0.815120	0.395642	0.128008
	C191	C	0.813462	0.615428	0.879242
	C192	C	0.401076	0.096059	0.601353
	C193	C	0.593692	0.913324	0.601556
	C194	C	0.590946	0.094879	0.411125
	C195	C	0.400553	0.912328	0.410594
	C196	C	0.593117	0.409464	0.096557
	C197	C	0.591869	0.599888	0.914250
	C198	C	0.400915	0.598888	0.097360
	C199	C	0.400024	0.408371	0.914122
	C200	C	0.086008	0.600505	0.409172
	C201	C	0.904587	0.601247	0.600848
	C202	C	0.087336	0.408235	0.601830
	C203	C	0.905168	0.409106	0.407906
	C204	C	0.901166	0.597253	0.098883
	C205	C	0.092451	0.414690	0.100589
	C206	C	0.093139	0.597158	0.909311
	C207	C	0.899683	0.413768	0.908041
	C208	C	0.091622	0.910282	0.594576
	C209	C	0.093219	0.100878	0.412422
	C210	C	0.901432	0.100743	0.596528
	C211	C	0.900898	0.909993	0.413897
	C212	C	0.587794	0.100744	0.909557
	C213	C	0.405679	0.099108	0.100888
	C214	C	0.586368	0.907789	0.102160
	C215	C	0.405304	0.907945	0.909184
	Zn216	Zn	0.497027	0.004348	0.755356
	Zn217	Zn	0.496646	0.003183	0.256294
	Zn218	Zn	0.746637	0.505672	0.004388
	Zn219	Zn	0.246577	0.504524	0.005080
	Zn220	Zn	-0.003907	0.755139	0.504230
	Zn221	Zn	-0.003998	0.254573	0.503822
	Zn222	Zn	-0.003943	0.505425	0.755328
	Zn223	Zn	-0.004157	0.506232	0.253740
	Zn224	Zn	0.496449	0.753142	0.005994
	Zn225	Zn	0.496660	0.254603	0.006179
	Zn226	Zn	0.746709	0.004830	0.505499
	Zn227	Zn	0.247259	0.004510	0.504507
	N228	N	0.410499	0.968560	0.684645
	N229	N	0.584632	0.040106	0.686198
	N230	N	0.581948	0.967352	0.327463
	N231	N	0.408944	0.038409	0.324576
	N232	N	0.677959	0.416775	0.970243
	N233	N	0.677449	0.592731	0.040442
	N234	N	0.316290	0.591363	0.970318
	N235	N	0.314916	0.415784	0.040489
	N236	N	0.960031	0.685584	0.416692
	N237	N	0.031556	0.684699	0.591007
	N238	N	0.960537	0.324257	0.591564
	N239	N	0.031194	0.324112	0.416211
	N240	N	0.960608	0.417603	0.685462
	N241	N	0.031220	0.592301	0.685003
	N242	N	0.960467	0.593535	0.322908
	N243	N	0.031012	0.417873	0.323344
	N244	N	0.409640	0.683530	0.970430
	N245	N	0.583101	0.684115	0.041426
	N246	N	0.584175	0.324114	0.970143
	N247	N	0.410875	0.325576	0.042182
	N248	N	0.676758	0.969059	0.418667
	N249	N	0.678744	0.039801	0.594318
	N250	N	0.316131	0.969752	0.592778
	N251	N	0.315861	0.039040	0.416468
	N252	N	0.910383	0.470345	0.182841
	N253	N	0.084197	0.541542	0.185716
	N254	N	0.082694	0.469755	0.825797
	N255	N	0.909050	0.541035	0.824489
	N256	N	0.177743	0.916653	0.469013
	N257	N	0.177124	0.091736	0.539493
	N258	N	0.815054	0.092921	0.470769
	N259	N	0.816347	0.917478	0.540330
	N260	N	0.461111	0.184742	0.918892
	N261	N	0.531244	0.184690	0.093776
	N262	N	0.460514	0.822702	0.093201
	N263	N	0.532019	0.823944	0.919542
	N264	N	0.460818	0.914467	0.187991
	N265	N	0.531732	0.089623	0.185389
	N266	N	0.461630	0.091562	0.825398
	N267	N	0.531739	0.916514	0.825288
	N268	N	0.909889	0.184056	0.468729
	N269	N	0.084357	0.185577	0.539446
	N270	N	0.082942	0.824766	0.468390
	N271	N	0.908492	0.823733	0.539965
	N272	N	0.175949	0.469446	0.918483
	N273	N	0.178504	0.540545	0.093779
	N274	N	0.816518	0.470771	0.091479
	N275	N	0.814950	0.540309	0.915838
	O276	O	0.606585	0.711807	0.607204
	H277	H	0.618799	0.703053	0.595491
	H278	H	0.617860	0.730428	0.616372
	O279	O	1.181864	0.191464	1.196948
	H280	H	1.194964	0.143251	1.205514
	H281	H	1.191747	0.196615	1.148413
	O282	O	0.479039	0.641748	0.404405
	H283	H	0.488714	0.650468	0.400912
	H284	H	0.485328	0.636406	0.404133
	O285	O	0.316534	0.674534	0.335872
	H286	H	0.361639	0.687961	0.330360
	H287	H	0.313214	0.673754	0.372753
	O288	O	1.037286	0.963503	0.057386
	H289	H	1.031991	0.962929	0.074985
	H290	H	1.029978	0.954559	0.052899
	O291	O	0.680797	0.298440	0.377073
	H292	H	0.655652	0.289701	0.397388
	H293	H	0.690274	0.301489	0.379074
	O294	O	-0.160846	0.182492	0.826855
	H295	H	-0.164359	0.192210	0.860168
	H296	H	-0.167870	0.155140	0.830393
	O297	O	0.585769	0.580598	0.639758
	H298	H	0.599298	0.572017	0.628884
	H299	H	0.583285	0.582690	0.650688
	O300	O	0.440846	0.570616	0.509914
	H301	H	0.430691	0.547046	0.519354
	H302	H	0.451740	0.563853	0.515755
	O303	O	0.008761	1.078508	-0.058845
	H304	H	-0.005428	1.100059	-0.056584
	H305	H	-0.007841	1.068871	-0.057759
	O306	O	0.296427	0.477458	0.358840
	H307	H	0.293496	0.490534	0.347549
	H308	H	0.303037	0.501511	0.354702
	O309	O	0.875918	0.215610	0.122643
	H310	H	0.868807	0.216548	0.127191
	H311	H	0.874171	0.221700	0.158769
	O312	O	-0.204299	0.899213	1.004005
	H313	H	-0.197613	0.912404	0.993255
	H314	H	-0.220280	0.901087	0.994578
	O315	O	0.450419	0.334035	0.424567
	H316	H	0.449647	0.333537	0.430329
	H317	H	0.427675	0.333927	0.438946
	O318	O	1.186926	-0.184511	-0.184455
	H319	H	1.177116	-0.191545	-0.160068
	H320	H	1.193143	-0.147705	-0.176862
	O321	O	-0.110881	-0.118934	0.209876
	H322	H	-0.109153	-0.133165	0.236682
	H323	H	-0.130366	-0.102702	0.189447
	O324	O	0.376361	0.523803	0.700310
	H325	H	0.372914	0.547658	0.695660
	H326	H	0.377687	0.522953	0.714833
	O327	O	0.285346	0.293176	0.615030
	H328	H	0.268256	0.302423	0.606468
	H329	H	0.257568	0.269253	0.597045
	O330	O	-0.024221	1.029305	0.168802
	H331	H	-0.004140	1.034755	0.172213
	H332	H	-0.018098	1.030950	0.177207
	O333	O	0.803381	-0.077358	1.140820
	H334	H	0.795731	-0.049742	1.153294
	H335	H	0.794528	-0.068821	1.114499
	O336	O	0.023351	0.162033	-0.122845
	H337	H	0.015285	0.172431	-0.139211
	H338	H	0.000812	0.163638	-0.102300
	O339	O	-0.044893	1.226646	0.851605
	H340	H	-0.070757	1.223198	0.871671
	H341	H	-0.050635	1.254853	0.832688
	O342	O	-0.025797	0.995738	0.955072
	H343	H	-0.017315	0.980545	0.967495
	H344	H	-0.019898	1.002968	0.953321
	O345	O	0.784747	1.173230	0.010322
	H346	H	0.776180	1.186018	0.021787
	H347	H	0.775900	1.168671	0.021444
	O348	O	0.583873	0.693033	0.594535
	H349	H	0.593558	0.657796	0.611526
	H350	H	0.581558	0.708399	0.579074
	O351	O	-0.217127	1.043565	0.949008
	H352	H	-0.199780	1.061523	0.954333
	H353	H	-0.232724	1.033700	0.925048
	O354	O	-0.121714	1.011533	0.092010
	H355	H	-0.109205	1.002282	0.098838
	H356	H	-0.119916	1.035488	0.084164
	O357	O	0.058384	0.149752	0.921626
	H358	H	0.053670	0.133014	0.931409
	H359	H	0.049486	0.146399	0.945679
	O360	O	0.349287	0.359046	0.395344
	H361	H	0.342339	0.377589	0.387322
	H362	H	0.325200	0.341747	0.389882
	O363	O	0.304493	-0.601029	0.700325
	H364	H	0.289596	-0.616125	0.685057
	H365	H	0.294249	-0.595601	0.710461
	O366	O	0.322934	0.655140	0.498982
	H367	H	0.336792	0.651430	0.509274
	H368	H	0.316092	0.650691	0.504029
	O369	O	0.581470	0.556536	0.420114
	H370	H	0.571185	0.552658	0.412215
	H371	H	0.585141	0.541458	0.414434
	O372	O	1.199982	0.210616	1.030796
	H373	H	1.210524	0.220034	1.018023
	H374	H	1.193358	0.209178	1.013247
	O375	O	0.467117	0.290134	0.715324
	H376	H	0.445066	0.269464	0.734697
	H377	H	0.436414	0.293637	0.720617
	O378	O	0.532651	0.538143	0.633663
	H379	H	0.537042	0.533590	0.631768
	H380	H	0.529451	0.540272	0.648273
	O381	O	0.621340	0.424551	0.607430
	H382	H	0.614138	0.439036	0.613918
	H383	H	0.628930	0.409954	0.601387
	O384	O	0.687409	0.595310	0.530580
	H385	H	0.680213	0.599891	0.510411
	H386	H	0.689178	0.595803	0.524262
	O387	O	-0.096163	-0.000557	0.796081
	H388	H	-0.102566	-0.014358	0.785167
	H389	H	-0.082592	-0.016652	0.792768
	O390	O	0.105152	-0.126154	0.141781
	H391	H	0.074221	-0.115898	0.137988
	H392	H	0.101203	-0.163256	0.153709
	O393	O	1.182058	1.052283	0.966483
	H394	H	1.186506	1.040021	0.952552
	H395	H	1.166011	1.050915	0.973629
	O396	O	0.844323	-0.168338	-0.054262
	H397	H	0.834961	-0.162894	-0.066264
	H398	H	0.845158	-0.174203	-0.061384
	O399	O	1.056703	-0.208772	1.059002
	H400	H	1.045842	-0.214771	1.090639
	H401	H	1.051628	-0.202500	1.049229
	O402	O	1.515386	0.324785	0.303546
	H403	H	1.501699	0.309485	0.292278
	H404	H	1.500928	0.321845	0.318962
	O405	O	0.943523	0.904597	-0.113509
	H406	H	0.953204	0.924424	-0.101313
	H407	H	0.955341	0.883708	-0.107687
	O408	O	0.927234	-0.116979	0.132050
	H409	H	0.910923	-0.106169	0.124541
	H410	H	0.924107	-0.133592	0.127356
	O411	O	1.211831	0.791496	-0.019023
	H412	H	1.236297	0.769190	-0.025437
	H413	H	1.190838	0.792016	0.003605
	O414	O	0.027214	0.785554	0.781661
	H415	H	0.039879	0.778798	0.780862
	H416	H	0.036479	0.762400	0.769554
	O417	O	0.320928	0.644535	0.640587
	H418	H	0.312679	0.666938	0.638596
	H419	H	0.340901	0.650728	0.636633
	O420	O	0.666667	0.569784	0.588509
	H421	H	0.690294	0.561477	0.599808
	H422	H	0.658982	0.548182	0.580806
	O423	O	0.231928	0.798696	0.248721
	H424	H	0.249580	0.815020	0.269077
	H425	H	0.223863	0.793632	0.216778
	O426	O	0.545146	0.291275	0.551208
	H427	H	0.535569	0.287284	0.580797
	H428	H	0.535310	0.303458	0.554191
	O429	O	0.551121	0.646577	0.329473
	H430	H	0.553651	0.636650	0.319225
	H431	H	0.556016	0.644294	0.343964
	O432	O	0.691273	0.325236	0.401560
	H433	H	0.667957	0.318703	0.387229
	H434	H	0.692327	0.317964	0.435238
	O435	O	0.511093	0.476964	0.377216
	H436	H	0.499343	0.476253	0.376930
	H437	H	0.520877	0.462832	0.389956
	O438	O	0.201814	-0.014117	-0.187823
	H439	H	0.176968	-0.007651	-0.184719
	H440	H	0.224580	-0.011700	-0.202784
	O441	O	1.207683	-0.005536	0.150035
	H442	H	1.229465	0.003714	0.151158
	H443	H	1.178381	-0.027178	0.145647
	O444	O	0.018386	1.221521	1.217609
	H445	H	0.027246	1.256061	1.251912
	H446	H	0.064630	1.206356	1.205901
	O447	O	0.590673	0.699696	0.700847
	H448	H	0.607245	0.701357	0.680163
	H449	H	0.607188	0.688987	0.711307
	O450	O	0.711927	0.486573	0.340554
	H451	H	0.736012	0.489422	0.319439
	H452	H	0.688948	0.465490	0.346345
	O453	O	0.386258	0.442067	0.561109
	H454	H	0.372155	0.450065	0.546055
	H455	H	0.393721	0.461746	0.562104
