data_Molecule from HDF5

_cell_length_a		16.208252
_cell_length_b		16.295968
_cell_length_c		16.220999
_cell_angle_alpha	90.052983
_cell_angle_beta	90.592610
_cell_angle_gamma	89.513063
_symmetry_space_group_name_H-M	'P 1'
_symmetry_Int_Tables_number		1

loop_
	_symmetry_equiv_pos_as_xyz
	x,y,z

loop_
	_atom_site_label
	_atom_site_type_symbol
	_atom_site_fract_x
	_atom_site_fract_y
	_atom_site_fract_z
	H0	H	0.408905	0.840204	0.712141
	H1	H	0.604263	0.167840	0.713357
	H2	H	0.606678	0.841288	0.282064
	H3	H	0.402133	0.167408	0.282683
	H4	H	0.717704	0.403638	0.832992
	H5	H	0.719138	0.601671	0.161839
	H6	H	0.285279	0.604222	0.833526
	H7	H	0.295016	0.409406	0.162282
	H8	H	0.841287	0.719384	0.396329
	H9	H	0.169752	0.715131	0.598698
	H10	H	0.841247	0.288396	0.595842
	H11	H	0.168936	0.286989	0.399260
	H12	H	0.840312	0.405269	0.710006
	H13	H	0.168860	0.598381	0.713089
	H14	H	0.840278	0.602969	0.282789
	H15	H	0.170596	0.404312	0.287054
	H16	H	0.399398	0.720836	0.833720
	H17	H	0.604324	0.718776	0.161718
	H18	H	0.603175	0.287296	0.834057
	H19	H	0.408236	0.292225	0.161630
	H20	H	0.720687	0.839899	0.400575
	H21	H	0.719965	0.167009	0.598977
	H22	H	0.294747	0.838846	0.594727
	H23	H	0.286684	0.166048	0.397079
	H24	H	0.908818	0.339393	0.210419
	H25	H	0.103701	0.667312	0.215388
	H26	H	0.103994	0.340383	0.785232
	H27	H	0.901118	0.666166	0.780588
	H28	H	0.218110	0.903794	0.332383
	H29	H	0.219434	0.098183	0.662154
	H30	H	0.787125	0.103250	0.334496
	H31	H	0.796281	0.906756	0.663550
	H32	H	0.340253	0.219053	0.897432
	H33	H	0.668802	0.218579	0.099772
	H34	H	0.339672	0.792138	0.095208
	H35	H	0.667461	0.784426	0.897267
	H36	H	0.340264	0.908335	0.210839
	H37	H	0.668596	0.103022	0.215048
	H38	H	0.341493	0.104660	0.780788
	H39	H	0.670740	0.904299	0.787069
	H40	H	0.902752	0.218428	0.333578
	H41	H	0.107078	0.217221	0.661280
	H42	H	0.104380	0.786489	0.333320
	H43	H	0.909885	0.789465	0.661503
	H44	H	0.218491	0.341016	0.901200
	H45	H	0.217875	0.668407	0.098149
	H46	H	0.793387	0.339663	0.094487
	H47	H	0.786245	0.666738	0.897335
	H48	H	0.402936	0.124728	0.595637
	H49	H	0.604006	0.888664	0.583379
	H50	H	0.595380	0.118062	0.413761
	H51	H	0.417802	0.889838	0.408138
	H52	H	0.600592	0.412340	0.113950
	H53	H	0.586940	0.596596	0.882882
	H54	H	0.402370	0.595168	0.116670
	H55	H	0.420017	0.416428	0.884361
	H56	H	0.121973	0.594191	0.406143
	H57	H	0.888953	0.599919	0.581661
	H58	H	0.124136	0.403451	0.593164
	H59	H	0.886542	0.408263	0.402974
	H60	H	0.120638	0.409627	0.586843
	H61	H	0.889180	0.590480	0.589402
	H62	H	0.122700	0.596395	0.407529
	H63	H	0.889297	0.411529	0.406259
	H64	H	0.418739	0.593495	0.110536
	H65	H	0.597343	0.599735	0.877862
	H66	H	0.596671	0.410974	0.113544
	H67	H	0.409490	0.401009	0.876318
	H68	H	0.603264	0.122836	0.404660
	H69	H	0.608326	0.883379	0.599212
	H70	H	0.422663	0.118501	0.595348
	H71	H	0.407141	0.885377	0.404292
	H72	H	0.913704	0.622895	0.100778
	H73	H	0.111464	0.385572	0.087487
	H74	H	0.092114	0.619867	0.905801
	H75	H	0.909973	0.387427	0.907119
	H76	H	0.113036	0.898523	0.620568
	H77	H	0.095698	0.097214	0.379739
	H78	H	0.916995	0.104164	0.615610
	H79	H	0.913915	0.910994	0.381381
	H80	H	0.622849	0.094225	0.903900
	H81	H	0.390392	0.090911	0.088382
	H82	H	0.622828	0.907902	0.092382
	H83	H	0.387862	0.909213	0.906542
	H84	H	0.620578	0.908923	0.086727
	H85	H	0.383743	0.102096	0.097606
	H86	H	0.623670	0.100230	0.905491
	H87	H	0.390259	0.918470	0.904482
	H88	H	0.907317	0.095598	0.616781
	H89	H	0.097806	0.094450	0.379562
	H90	H	0.104492	0.922282	0.611326
	H91	H	0.911786	0.909332	0.380130
	H92	H	0.095829	0.620746	0.906658
	H93	H	0.101462	0.384025	0.104471
	H94	H	0.919859	0.615674	0.084293
	H95	H	0.909383	0.385136	0.900253
	H96	H	0.410906	0.116629	0.577880
	H97	H	0.592834	0.888635	0.595482
	H98	H	0.590473	0.119461	0.402518
	H99	H	0.416513	0.885920	0.397071
	H100	H	0.599041	0.408498	0.115778
	H101	H	0.595343	0.588954	0.883275
	H102	H	0.413221	0.608264	0.116596
	H103	H	0.401291	0.418543	0.878673
	H104	H	0.121381	0.593781	0.408135
	H105	H	0.884824	0.601544	0.592717
	H106	H	0.122185	0.412384	0.595124
	H107	H	0.887196	0.413131	0.400869
	H108	H	0.901147	0.621406	0.085472
	H109	H	0.091958	0.390597	0.088644
	H110	H	0.094209	0.621394	0.903553
	H111	H	0.915451	0.387584	0.902802
	H112	H	0.087834	0.901675	0.612765
	H113	H	0.094682	0.094952	0.380783
	H114	H	0.919028	0.091586	0.611142
	H115	H	0.910786	0.912050	0.380921
	H116	H	0.622041	0.095514	0.909351
	H117	H	0.387546	0.105241	0.081722
	H118	H	0.620969	0.914131	0.091166
	H119	H	0.386888	0.912916	0.898349
	C120	C	0.384998	0.011545	0.618440
	C121	C	0.629049	0.995087	0.621324
	C122	C	0.626450	0.012222	0.377626
	C123	C	0.382962	0.994958	0.374818
	C124	C	0.626842	0.381344	0.006189
	C125	C	0.624122	0.624557	0.989450
	C126	C	0.380594	0.627691	0.005965
	C127	C	0.383477	0.384152	0.988520
	C128	C	0.013639	0.624720	0.376662
	C129	C	0.996051	0.624456	0.618330
	C130	C	0.013582	0.380897	0.619194
	C131	C	0.996580	0.381774	0.376126
	C132	C	0.884240	0.511960	0.118458
	C133	C	0.128222	0.495487	0.121569
	C134	C	0.124347	0.512787	0.877292
	C135	C	0.881108	0.494666	0.874416
	C136	C	0.129088	0.879127	0.506011
	C137	C	0.126219	0.123652	0.488698
	C138	C	0.883329	0.125887	0.506586
	C139	C	0.885116	0.882846	0.489540
	C140	C	0.513890	0.125915	0.876004
	C141	C	0.495906	0.126944	0.119657
	C142	C	0.512787	0.883301	0.118804
	C143	C	0.496568	0.882656	0.875289
	C144	C	0.388886	0.888697	0.673671
	C145	C	0.624985	0.118721	0.675827
	C146	C	0.625713	0.889679	0.321154
	C147	C	0.383018	0.118176	0.320173
	C148	C	0.680612	0.383601	0.882403
	C149	C	0.680903	0.622315	0.112862
	C150	C	0.323604	0.625002	0.882657
	C151	C	0.331358	0.388154	0.112788
	C152	C	0.890403	0.681572	0.376577
	C153	C	0.120344	0.677843	0.617956
	C154	C	0.890092	0.326349	0.616012
	C155	C	0.119963	0.325421	0.379084
	C156	C	0.889650	0.384322	0.672954
	C157	C	0.119725	0.620084	0.675196
	C158	C	0.889851	0.623451	0.320293
	C159	C	0.120773	0.383855	0.323104
	C160	C	0.380286	0.683081	0.882866
	C161	C	0.623465	0.680232	0.112785
	C162	C	0.623568	0.325716	0.882669
	C163	C	0.387255	0.329508	0.112289
	C164	C	0.682581	0.888947	0.379834
	C165	C	0.682894	0.118321	0.619092
	C166	C	0.331916	0.887986	0.615479
	C167	C	0.325280	0.117298	0.377092
	C168	C	0.887874	0.388471	0.173172
	C169	C	0.124370	0.618685	0.177111
	C170	C	0.123506	0.389279	0.822712
	C171	C	0.880993	0.617403	0.818567
	C172	C	0.181889	0.882360	0.381822
	C173	C	0.182003	0.119708	0.612586
	C174	C	0.825952	0.123501	0.383207
	C175	C	0.832262	0.885757	0.613777
	C176	C	0.389817	0.181539	0.877049
	C177	C	0.619706	0.180842	0.119044
	C178	C	0.388910	0.829525	0.115760
	C179	C	0.619141	0.824134	0.877862
	C180	C	0.389319	0.887125	0.173365
	C181	C	0.619525	0.123696	0.176702
	C182	C	0.390358	0.124396	0.819341
	C183	C	0.620824	0.883992	0.823052
	C184	C	0.883443	0.180596	0.382664
	C185	C	0.126092	0.178910	0.612224
	C186	C	0.125059	0.824261	0.382261
	C187	C	0.888719	0.827447	0.613029
	C188	C	0.180543	0.389635	0.880360
	C189	C	0.181079	0.619160	0.118642
	C190	C	0.830496	0.388449	0.115493
	C191	C	0.824282	0.617666	0.876969
	C192	C	0.405935	0.097532	0.596078
	C193	C	0.608018	0.909118	0.599146
	C194	C	0.603366	0.097910	0.400412
	C195	C	0.406763	0.909160	0.396794
	C196	C	0.605049	0.403864	0.092279
	C197	C	0.600202	0.601821	0.903632
	C198	C	0.404365	0.605526	0.092333
	C199	C	0.404062	0.405677	0.902196
	C200	C	0.099726	0.601610	0.400291
	C201	C	0.909847	0.603513	0.594669
	C202	C	0.100155	0.402381	0.598044
	C203	C	0.910114	0.404324	0.397080
	C204	C	0.905476	0.597861	0.096702
	C205	C	0.107761	0.409154	0.099776
	C206	C	0.100903	0.598587	0.898974
	C207	C	0.904764	0.409007	0.896740
	C208	C	0.108111	0.901057	0.592424
	C209	C	0.102825	0.101908	0.402292
	C210	C	0.907422	0.103849	0.592498
	C211	C	0.905904	0.904526	0.403417
	C212	C	0.600329	0.103380	0.899552
	C213	C	0.409638	0.105746	0.096207
	C214	C	0.599007	0.904269	0.096933
	C215	C	0.410443	0.906416	0.896794
	Zn216	Zn	0.506382	0.004191	0.747647
	Zn217	Zn	0.504952	0.004756	0.247487
	Zn218	Zn	0.754115	0.503344	-0.002375
	Zn219	Zn	0.254003	0.504750	-0.002460
	Zn220	Zn	0.005390	0.753027	0.497487
	Zn221	Zn	0.004947	0.253245	0.497171
	Zn222	Zn	0.003939	0.503316	0.747394
	Zn223	Zn	0.005338	0.503770	0.248624
	Zn224	Zn	0.503425	0.754459	-0.002937
	Zn225	Zn	0.504492	0.254804	-0.002782
	Zn226	Zn	0.756073	0.003593	0.498611
	Zn227	Zn	0.255270	0.001999	0.496936
	N228	N	0.421018	0.966602	0.675590
	N229	N	0.592469	0.041070	0.677372
	N230	N	0.591580	0.967270	0.319600
	N231	N	0.418259	0.041144	0.318821
	N232	N	0.682618	0.417556	0.960135
	N233	N	0.681249	0.588246	0.035193
	N234	N	0.323642	0.591168	0.960374
	N235	N	0.328880	0.421554	0.034965
	N236	N	0.968325	0.682445	0.410975
	N237	N	0.042488	0.680852	0.583525
	N238	N	0.968233	0.324071	0.583541
	N239	N	0.041675	0.324083	0.411396
	N240	N	0.967412	0.417685	0.675155
	N241	N	0.041516	0.587589	0.675534
	N242	N	0.967486	0.588591	0.320328
	N243	N	0.043030	0.418499	0.321093
	N244	N	0.414927	0.684865	0.960713
	N245	N	0.588593	0.681533	0.034967
	N246	N	0.591115	0.324146	0.960664
	N247	N	0.419040	0.326913	0.034013
	N248	N	0.683044	0.966217	0.414433
	N249	N	0.685664	0.040453	0.585920
	N250	N	0.329494	0.965380	0.581576
	N251	N	0.325188	0.039580	0.410560
	N252	N	0.920739	0.466247	0.175077
	N253	N	0.092192	0.540798	0.178938
	N254	N	0.089275	0.466831	0.820526
	N255	N	0.915660	0.539952	0.816783
	N256	N	0.184539	0.915760	0.459707
	N257	N	0.182531	0.086282	0.534589
	N258	N	0.825659	0.090215	0.461117
	N259	N	0.829958	0.919541	0.536049
	N260	N	0.467639	0.182507	0.911748
	N261	N	0.541849	0.183145	0.084151
	N262	N	0.466683	0.826759	0.082585
	N263	N	0.540632	0.823143	0.909767
	N264	N	0.467352	0.919881	0.175043
	N265	N	0.541719	0.090655	0.176965
	N266	N	0.468575	0.090745	0.818485
	N267	N	0.543709	0.919717	0.821470
	N268	N	0.918599	0.182174	0.460268
	N269	N	0.091780	0.181218	0.534331
	N270	N	0.093116	0.822092	0.460502
	N271	N	0.920821	0.825367	0.534932
	N272	N	0.181009	0.467346	0.913779
	N273	N	0.183783	0.541578	0.085044
	N274	N	0.827788	0.466166	0.082449
	N275	N	0.824210	0.540339	0.910797
	O276	O	0.001600	0.108058	-0.101308
	H277	H	-0.017399	0.102923	-0.101046
	H278	H	0.004022	0.108054	-0.112787
	O279	O	0.554728	0.529884	0.544191
	H280	H	0.558205	0.530561	0.543111
	H281	H	0.557236	0.539943	0.539741
	O282	O	0.483150	0.553620	0.498707
	H283	H	0.486456	0.549059	0.502128
	H284	H	0.482267	0.552334	0.508727
	O285	O	1.025383	0.039967	0.978576
	H286	H	1.028312	0.036638	0.975969
	H287	H	1.022185	0.037826	0.987796
	O288	O	0.997960	-0.000264	0.015953
	H289	H	1.008966	-0.001415	0.014172
	H290	H	1.004839	-0.000929	0.004173
	O291	O	0.502218	0.529947	0.507275
	H292	H	0.504134	0.520784	0.506192
	H293	H	0.501613	0.528019	0.515677
	O294	O	1.055683	0.053167	1.052522
	H295	H	1.062221	0.047753	1.056449
	H296	H	1.059719	0.056438	1.053958
	O297	O	0.028717	0.023888	0.015006
	H298	H	0.032950	0.020922	0.011345
	H299	H	0.029631	0.022457	0.017409
	O300	O	0.532654	0.499031	0.480059
	H301	H	0.530071	0.509237	0.485828
	H302	H	0.524515	0.501994	0.477160
	O303	O	0.590681	0.400096	0.441892
	H304	H	0.590876	0.396715	0.436336
	H305	H	0.594877	0.399707	0.436934
	O306	O	0.991039	-0.064394	0.026619
	H307	H	0.995573	-0.061120	0.020191
	H308	H	0.990267	-0.064972	0.034488
	O309	O	0.032817	0.001563	1.047217
	H310	H	0.031106	0.001007	1.045966
	H311	H	0.030081	0.015091	1.048167
	O312	O	0.988530	0.946153	0.963207
	H313	H	0.992225	0.941413	0.961206
	H314	H	0.984791	0.947781	0.965854
	O315	O	0.582459	0.385361	0.408279
	H316	H	0.582414	0.392921	0.398898
	H317	H	0.588676	0.391365	0.414555
	O318	O	0.466379	0.563188	0.502133
	H319	H	0.458457	0.580287	0.495537
	H320	H	0.468391	0.559584	0.492980
	O321	O	-0.051360	1.051480	0.957372
	H322	H	-0.051511	1.051187	0.951138
	H323	H	-0.045950	1.049980	0.968392
	O324	O	0.549425	0.535521	0.591638
	H325	H	0.553148	0.531151	0.584359
	H326	H	0.544859	0.543504	0.588331
	O327	O	0.476119	0.490812	0.497312
	H328	H	0.463739	0.493001	0.503415
	H329	H	0.481121	0.495116	0.496469
	O330	O	0.469741	0.579663	0.525652
	H331	H	0.474030	0.573398	0.527828
	H332	H	0.472380	0.584758	0.528865
	O333	O	0.491583	0.528564	0.528984
	H334	H	0.482157	0.517132	0.527080
	H335	H	0.494276	0.530801	0.537526
	O336	O	0.511376	0.550492	0.523639
	H337	H	0.517082	0.547235	0.527522
	H338	H	0.503077	0.545030	0.520027
	O339	O	0.919608	1.054922	-0.042402
	H340	H	0.907999	1.056355	-0.043191
	H341	H	0.927300	1.048708	-0.041270
	O342	O	0.466302	0.572383	0.455244
	H343	H	0.459494	0.579556	0.453187
	H344	H	0.467333	0.559008	0.460500
	O345	O	0.441382	0.477260	0.492138
	H346	H	0.438798	0.481986	0.494925
	H347	H	0.438067	0.478913	0.482558
	O348	O	-0.002225	0.009320	-0.042107
	H349	H	-0.002031	0.009399	-0.042174
	H350	H	-0.008509	0.017363	-0.049181
	O351	O	0.026644	0.883941	1.028952
	H352	H	0.021382	0.885530	1.025559
	H353	H	0.015571	0.877248	1.028726
	O354	O	0.505368	0.455671	0.475105
	H355	H	0.511409	0.450206	0.474175
	H356	H	0.509593	0.447869	0.470463
	O357	O	-0.024883	1.001074	0.934714
	H358	H	-0.021500	1.003941	0.940373
	H359	H	-0.030490	1.001083	0.929215
