data_Molecule from HDF5

_cell_length_a		16.320430
_cell_length_b		16.258695
_cell_length_c		16.330817
_cell_angle_alpha	90.002952
_cell_angle_beta	90.223488
_cell_angle_gamma	89.904200
_symmetry_space_group_name_H-M	'P 1'
_symmetry_Int_Tables_number		1

loop_
	_symmetry_equiv_pos_as_xyz
	x,y,z

loop_
	_atom_site_label
	_atom_site_type_symbol
	_atom_site_fract_x
	_atom_site_fract_y
	_atom_site_fract_z
	H0	H	0.398293	0.835926	0.723432
	H1	H	0.594323	0.163376	0.722882
	H2	H	0.594835	0.834987	0.295588
	H3	H	0.396801	0.163073	0.293457
	H4	H	0.711129	0.399547	0.845357
	H5	H	0.711589	0.596343	0.171124
	H6	H	0.281106	0.597069	0.845280
	H7	H	0.282153	0.399395	0.171531
	H8	H	0.832938	0.712771	0.410278
	H9	H	0.159948	0.712863	0.607043
	H10	H	0.832544	0.286305	0.604090
	H11	H	0.160324	0.284235	0.412265
	H12	H	0.832271	0.402261	0.720507
	H13	H	0.159915	0.597563	0.723983
	H14	H	0.832931	0.597150	0.293289
	H15	H	0.160778	0.399511	0.295268
	H16	H	0.396982	0.713691	0.845142
	H17	H	0.595221	0.711919	0.172441
	H18	H	0.593739	0.284599	0.845159
	H19	H	0.400242	0.285072	0.172144
	H20	H	0.710279	0.835407	0.411628
	H21	H	0.710443	0.163320	0.607058
	H22	H	0.283235	0.835218	0.607258
	H23	H	0.281466	0.163288	0.409963
	H24	H	0.898828	0.335063	0.221852
	H25	H	0.095900	0.662204	0.224128
	H26	H	0.094400	0.334781	0.794593
	H27	H	0.897457	0.663187	0.793957
	H28	H	0.211421	0.900047	0.345179
	H29	H	0.212007	0.097328	0.671436
	H30	H	0.781196	0.097767	0.345644
	H31	H	0.783043	0.901186	0.671960
	H32	H	0.332333	0.212054	0.912612
	H33	H	0.660655	0.211527	0.106465
	H34	H	0.333518	0.783853	0.107080
	H35	H	0.659554	0.784875	0.911983
	H36	H	0.333166	0.901830	0.222038
	H37	H	0.659494	0.097167	0.223986
	H38	H	0.332952	0.098806	0.793087
	H39	H	0.658971	0.899488	0.794165
	H40	H	0.898478	0.212770	0.345328
	H41	H	0.093463	0.211902	0.672878
	H42	H	0.093203	0.785294	0.345027
	H43	H	0.899836	0.785090	0.672381
	H44	H	0.210979	0.335000	0.910328
	H45	H	0.211184	0.662765	0.106636
	H46	H	0.783090	0.335262	0.105811
	H47	H	0.781933	0.662809	0.910044
	H48	H	0.407561	0.113576	0.597212
	H49	H	0.600231	0.878407	0.606867
	H50	H	0.595285	0.118879	0.410593
	H51	H	0.409165	0.884981	0.416171
	H52	H	0.593345	0.406328	0.124270
	H53	H	0.601244	0.590393	0.889600
	H54	H	0.404271	0.589988	0.122919
	H55	H	0.407160	0.408057	0.894138
	H56	H	0.113470	0.600050	0.418679
	H57	H	0.880903	0.591124	0.601426
	H58	H	0.115385	0.401663	0.605472
	H59	H	0.878684	0.396250	0.418038
	H60	H	0.111169	0.404827	0.597310
	H61	H	0.879521	0.592690	0.602796
	H62	H	0.109128	0.585137	0.422097
	H63	H	0.884671	0.412959	0.420371
	H64	H	0.404995	0.592957	0.124097
	H65	H	0.582111	0.583521	0.896293
	H66	H	0.588577	0.407934	0.123397
	H67	H	0.402905	0.399406	0.890974
	H68	H	0.580611	0.114366	0.412407
	H69	H	0.580295	0.883341	0.609427
	H70	H	0.398900	0.116646	0.600225
	H71	H	0.398911	0.882761	0.419684
	H72	H	0.902388	0.617853	0.106602
	H73	H	0.094515	0.380558	0.103559
	H74	H	0.084531	0.615684	0.911412
	H75	H	0.904280	0.382121	0.913867
	H76	H	0.087549	0.913700	0.621648
	H77	H	0.086609	0.098451	0.391580
	H78	H	0.902086	0.088276	0.624372
	H79	H	0.900504	0.905253	0.391868
	H80	H	0.612050	0.087019	0.912886
	H81	H	0.379886	0.096551	0.100079
	H82	H	0.612189	0.898422	0.094550
	H83	H	0.380456	0.907803	0.916390
	H84	H	0.609725	0.915772	0.102638
	H85	H	0.381395	0.089772	0.100240
	H86	H	0.614435	0.095387	0.913739
	H87	H	0.380054	0.906109	0.914083
	H88	H	0.906643	0.095781	0.625002
	H89	H	0.096847	0.091112	0.390988
	H90	H	0.085403	0.897410	0.624812
	H91	H	0.902609	0.908337	0.393385
	H92	H	0.086738	0.612619	0.921900
	H93	H	0.084829	0.382376	0.105847
	H94	H	0.909696	0.613630	0.100827
	H95	H	0.903491	0.382924	0.915639
	H96	H	0.406447	0.116924	0.605990
	H97	H	0.589895	0.886130	0.591375
	H98	H	0.590871	0.114047	0.424257
	H99	H	0.402044	0.880340	0.409200
	H100	H	0.589359	0.403557	0.124797
	H101	H	0.584316	0.603032	0.890078
	H102	H	0.402002	0.591533	0.124541
	H103	H	0.397543	0.407939	0.891415
	H104	H	0.114745	0.588699	0.407285
	H105	H	0.880156	0.593021	0.601295
	H106	H	0.111947	0.411222	0.605139
	H107	H	0.878407	0.407573	0.404583
	H108	H	0.900761	0.614867	0.097204
	H109	H	0.089073	0.384199	0.095986
	H110	H	0.094537	0.616934	0.915298
	H111	H	0.902525	0.381900	0.913661
	H112	H	0.100414	0.904514	0.628085
	H113	H	0.086138	0.086722	0.394377
	H114	H	0.898428	0.095561	0.626954
	H115	H	0.904480	0.904880	0.392882
	H116	H	0.611134	0.091744	0.920464
	H117	H	0.379492	0.092526	0.106007
	H118	H	0.616669	0.901831	0.112779
	H119	H	0.379665	0.905234	0.916365
	C120	C	0.375465	0.007661	0.629969
	C121	C	0.618378	0.990915	0.630928
	C122	C	0.617402	0.007304	0.387675
	C123	C	0.374630	0.991184	0.386820
	C124	C	0.618656	0.377102	0.016539
	C125	C	0.617935	0.620294	0.999977
	C126	C	0.374861	0.620423	0.016379
	C127	C	0.374697	0.376994	1.000108
	C128	C	0.004566	0.619875	0.387204
	C129	C	0.988479	0.620358	0.630230
	C130	C	0.004751	0.377534	0.630110
	C131	C	0.988831	0.376882	0.386772
	C132	C	0.875588	0.507416	0.129470
	C133	C	0.118308	0.490549	0.130465
	C134	C	0.117100	0.506751	0.887852
	C135	C	0.874324	0.490481	0.886267
	C136	C	0.118955	0.876940	0.516849
	C137	C	0.117778	0.120459	0.500544
	C138	C	0.874458	0.120954	0.516992
	C139	C	0.874654	0.877475	0.500506
	C140	C	0.504433	0.120397	0.887278
	C141	C	0.488445	0.120483	0.130290
	C142	C	0.504850	0.877098	0.130893
	C143	C	0.487849	0.877618	0.887363
	C144	C	0.377717	0.884707	0.685350
	C145	C	0.615494	0.114227	0.685616
	C146	C	0.615141	0.883988	0.333269
	C147	C	0.376845	0.114371	0.331704
	C148	C	0.673212	0.379360	0.893942
	C149	C	0.673724	0.617410	0.122601
	C150	C	0.318949	0.618097	0.893903
	C151	C	0.320405	0.379578	0.123051
	C152	C	0.881711	0.675226	0.389389
	C153	C	0.111350	0.675184	0.627495
	C154	C	0.881431	0.323652	0.625513
	C155	C	0.111743	0.321968	0.390955
	C156	C	0.881513	0.381047	0.683526
	C157	C	0.111159	0.618009	0.685819
	C158	C	0.881750	0.617926	0.331214
	C159	C	0.111759	0.379047	0.332543
	C160	C	0.376848	0.675720	0.893775
	C161	C	0.615845	0.674844	0.123190
	C162	C	0.614999	0.322042	0.893814
	C163	C	0.379164	0.322963	0.123489
	C164	C	0.672328	0.884188	0.391141
	C165	C	0.672785	0.114379	0.627880
	C166	C	0.320401	0.884389	0.627773
	C167	C	0.319729	0.114488	0.389769
	C168	C	0.878254	0.384017	0.184240
	C169	C	0.116464	0.613542	0.185867
	C170	C	0.114830	0.383469	0.832615
	C171	C	0.877124	0.614183	0.831739
	C172	C	0.173535	0.879582	0.393910
	C173	C	0.173472	0.118114	0.623123
	C174	C	0.819161	0.118144	0.394285
	C175	C	0.820690	0.880174	0.623400
	C176	C	0.381174	0.174912	0.890727
	C177	C	0.611612	0.174548	0.127468
	C178	C	0.382046	0.822266	0.127219
	C179	C	0.610666	0.822409	0.890532
	C180	C	0.381720	0.880998	0.184138
	C181	C	0.610941	0.117902	0.186106
	C182	C	0.381671	0.118848	0.831446
	C183	C	0.610520	0.879733	0.832391
	C184	C	0.877546	0.175115	0.394015
	C185	C	0.115018	0.175179	0.623650
	C186	C	0.114951	0.822491	0.393782
	C187	C	0.878779	0.822684	0.623579
	C188	C	0.172634	0.383520	0.890122
	C189	C	0.173400	0.613877	0.127498
	C190	C	0.821117	0.383969	0.126147
	C191	C	0.819611	0.614011	0.889067
	C192	C	0.397750	0.093478	0.607503
	C193	C	0.596744	0.904888	0.609176
	C194	C	0.595249	0.093503	0.409270
	C195	C	0.396807	0.904836	0.408634
	C196	C	0.596951	0.399412	0.102224
	C197	C	0.595658	0.598640	0.914227
	C198	C	0.397335	0.597936	0.101912
	C199	C	0.396022	0.398844	0.914264
	C200	C	0.090316	0.597804	0.409497
	C201	C	0.902519	0.598752	0.608133
	C202	C	0.090808	0.399380	0.608871
	C203	C	0.902796	0.399024	0.407871
	C204	C	0.897659	0.593334	0.107712
	C205	C	0.095993	0.404667	0.108380
	C206	C	0.094971	0.592702	0.909911
	C207	C	0.896683	0.404674	0.908137
	C208	C	0.097616	0.898886	0.602578
	C209	C	0.096076	0.098818	0.414558
	C210	C	0.896101	0.099554	0.603109
	C211	C	0.896151	0.899588	0.414916
	C212	C	0.590321	0.097914	0.909266
	C213	C	0.402359	0.099233	0.108543
	C214	C	0.590710	0.898962	0.109661
	C215	C	0.402044	0.899973	0.909198
	Zn216	Zn	0.496408	-0.000679	0.758682
	Zn217	Zn	0.496730	-0.000763	0.259302
	Zn218	Zn	0.746875	0.499116	0.008092
	Zn219	Zn	0.246230	0.498559	0.008591
	Zn220	Zn	-0.003324	0.748977	0.508391
	Zn221	Zn	-0.003617	0.248890	0.508763
	Zn222	Zn	-0.003857	0.498788	0.759053
	Zn223	Zn	-0.003317	0.498859	0.258639
	Zn224	Zn	0.496264	0.748587	0.008779
	Zn225	Zn	0.496888	0.248917	0.008484
	Zn226	Zn	0.745981	-0.000707	0.509318
	Zn227	Zn	0.246860	-0.000640	0.508815
	N228	N	0.411326	0.962270	0.686785
	N229	N	0.582320	0.036585	0.687590
	N230	N	0.581579	0.961667	0.331191
	N231	N	0.410186	0.036537	0.329645
	N232	N	0.675607	0.412780	0.971364
	N233	N	0.674903	0.584167	0.045252
	N234	N	0.317713	0.584346	0.971119
	N235	N	0.317628	0.412542	0.045368
	N236	N	0.958786	0.676351	0.423655
	N237	N	0.034079	0.676736	0.593571
	N238	N	0.959138	0.321482	0.592901
	N239	N	0.034212	0.320405	0.423938
	N240	N	0.959063	0.413997	0.686110
	N241	N	0.033686	0.584708	0.687503
	N242	N	0.959171	0.584208	0.329824
	N243	N	0.034206	0.412493	0.330034
	N244	N	0.410857	0.677213	0.970975
	N245	N	0.581984	0.676955	0.045799
	N246	N	0.581621	0.320667	0.970949
	N247	N	0.411989	0.321006	0.046000
	N248	N	0.673533	0.961789	0.424511
	N249	N	0.674757	0.036593	0.594582
	N250	N	0.318993	0.961826	0.593796
	N251	N	0.318273	0.036799	0.423163
	N252	N	0.911504	0.461701	0.186388
	N253	N	0.082950	0.536006	0.187814
	N254	N	0.081136	0.461103	0.831035
	N255	N	0.910350	0.536433	0.829690
	N256	N	0.176077	0.912721	0.471508
	N257	N	0.175147	0.084684	0.545857
	N258	N	0.817197	0.084984	0.471931
	N259	N	0.818165	0.913621	0.546183
	N260	N	0.458587	0.176246	0.924510
	N261	N	0.534347	0.176313	0.093447
	N262	N	0.459680	0.819794	0.094758
	N263	N	0.533564	0.821104	0.924097
	N264	N	0.459121	0.914119	0.186641
	N265	N	0.533498	0.084801	0.187658
	N266	N	0.459295	0.085546	0.829536
	N267	N	0.532978	0.913132	0.830171
	N268	N	0.911178	0.176807	0.471193
	N269	N	0.080797	0.176319	0.546399
	N270	N	0.081914	0.820540	0.471186
	N271	N	0.911666	0.820780	0.546071
	N272	N	0.174179	0.461077	0.923761
	N273	N	0.174630	0.536323	0.093693
	N274	N	0.819438	0.461643	0.092744
	N275	N	0.817631	0.536252	0.922286
	O276	O	0.520438	0.536840	0.473743
	H277	H	0.521820	0.541829	0.476980
	H278	H	0.515438	0.538300	0.474170
	O279	O	0.524893	0.503021	0.439397
	H280	H	0.534479	0.502815	0.439680
	H281	H	0.518428	0.509487	0.434954
	O282	O	1.497133	0.532007	-0.545219
	H283	H	1.495557	0.533152	-0.548373
	H284	H	1.503939	0.526439	-0.539086
	O285	O	0.499891	0.538244	0.465210
	H286	H	0.498801	0.542655	0.465279
	H287	H	0.497607	0.531564	0.456690
