data_Molecule from HDF5

_cell_length_a		16.278489
_cell_length_b		16.391076
_cell_length_c		16.331054
_cell_angle_alpha	89.851664
_cell_angle_beta	90.287912
_cell_angle_gamma	90.462790
_symmetry_space_group_name_H-M	'P 1'
_symmetry_Int_Tables_number		1

loop_
	_symmetry_equiv_pos_as_xyz
	x,y,z

loop_
	_atom_site_label
	_atom_site_type_symbol
	_atom_site_fract_x
	_atom_site_fract_y
	_atom_site_fract_z
	H0	H	0.395337	0.815610	0.713697
	H1	H	0.603202	0.136901	0.709995
	H2	H	0.602504	0.815220	0.274233
	H3	H	0.399562	0.137372	0.274424
	H4	H	0.718147	0.375387	0.830905
	H5	H	0.723336	0.577273	0.153933
	H6	H	0.285627	0.578714	0.831766
	H7	H	0.286564	0.373819	0.155050
	H8	H	0.837746	0.689703	0.389394
	H9	H	0.162764	0.696248	0.594208
	H10	H	0.841231	0.254134	0.597480
	H11	H	0.164661	0.259349	0.391562
	H12	H	0.842048	0.369024	0.713046
	H13	H	0.164228	0.579642	0.709527
	H14	H	0.839680	0.574259	0.273293
	H15	H	0.166414	0.377614	0.277474
	H16	H	0.398585	0.696853	0.833449
	H17	H	0.609351	0.695472	0.154886
	H18	H	0.606294	0.258294	0.832123
	H19	H	0.401388	0.257074	0.154423
	H20	H	0.715187	0.813474	0.393019
	H21	H	0.723655	0.134087	0.598081
	H22	H	0.281630	0.814142	0.594353
	H23	H	0.285916	0.138037	0.393028
	H24	H	0.902129	0.314267	0.208810
	H25	H	0.107649	0.637186	0.210338
	H26	H	0.108517	0.315955	0.771012
	H27	H	0.900856	0.636010	0.770934
	H28	H	0.215770	0.876417	0.329975
	H29	H	0.221844	0.078373	0.653075
	H30	H	0.782342	0.074919	0.331177
	H31	H	0.782497	0.869527	0.653905
	H32	H	0.341654	0.194645	0.890849
	H33	H	0.664820	0.195457	0.097780
	H34	H	0.343167	0.753032	0.098952
	H35	H	0.663789	0.760748	0.891279
	H36	H	0.339155	0.873301	0.208763
	H37	H	0.663983	0.078582	0.212988
	H38	H	0.340123	0.078892	0.774989
	H39	H	0.661555	0.872995	0.772996
	H40	H	0.898411	0.192715	0.331260
	H41	H	0.109071	0.196805	0.652285
	H42	H	0.100223	0.760969	0.329300
	H43	H	0.895923	0.753179	0.651786
	H44	H	0.221772	0.315301	0.890339
	H45	H	0.223606	0.636886	0.094030
	H46	H	0.783813	0.315429	0.094099
	H47	H	0.785119	0.637022	0.887274
	H48	H	0.408479	0.088019	0.577409
	H49	H	0.589735	0.861139	0.584236
	H50	H	0.585923	0.088329	0.401018
	H51	H	0.402786	0.860525	0.403966
	H52	H	0.585231	0.388683	0.104511
	H53	H	0.596643	0.565321	0.879070
	H54	H	0.415125	0.567568	0.108405
	H55	H	0.416758	0.386550	0.880317
	H56	H	0.116613	0.571704	0.405170
	H57	H	0.889284	0.562330	0.576758
	H58	H	0.115563	0.398136	0.589500
	H59	H	0.889914	0.385038	0.405262
	H60	H	0.122880	0.374624	0.587730
	H61	H	0.887230	0.560075	0.584583
	H62	H	0.116456	0.565695	0.400923
	H63	H	0.887148	0.387658	0.396164
	H64	H	0.413421	0.563285	0.107621
	H65	H	0.587986	0.569665	0.879639
	H66	H	0.595679	0.376125	0.111077
	H67	H	0.411925	0.380014	0.877356
	H68	H	0.593058	0.088368	0.409784
	H69	H	0.589665	0.860328	0.585578
	H70	H	0.406372	0.092796	0.588009
	H71	H	0.406968	0.858857	0.395004
	H72	H	0.916266	0.589875	0.082635
	H73	H	0.095350	0.362749	0.080036
	H74	H	0.099709	0.590323	0.905299
	H75	H	0.913831	0.364797	0.908279
	H76	H	0.092647	0.889582	0.606141
	H77	H	0.081694	0.063089	0.381887
	H78	H	0.915764	0.061785	0.605029
	H79	H	0.910042	0.874217	0.375525
	H80	H	0.619361	0.075383	0.906371
	H81	H	0.388783	0.062644	0.083461
	H82	H	0.617910	0.879895	0.076293
	H83	H	0.388322	0.888175	0.905266
	H84	H	0.612935	0.899103	0.084009
	H85	H	0.386387	0.069587	0.086128
	H86	H	0.614447	0.061625	0.907928
	H87	H	0.386595	0.885561	0.903887
	H88	H	0.914480	0.068465	0.607367
	H89	H	0.091318	0.078326	0.373689
	H90	H	0.084890	0.885096	0.605250
	H91	H	0.898281	0.885214	0.375012
	H92	H	0.094180	0.591070	0.895064
	H93	H	0.098782	0.358451	0.088029
	H94	H	0.913985	0.589940	0.080629
	H95	H	0.905412	0.359973	0.901569
	H96	H	0.417444	0.088135	0.585529
	H97	H	0.588443	0.860691	0.585013
	H98	H	0.596298	0.092369	0.399516
	H99	H	0.411977	0.862964	0.402090
	H100	H	0.601971	0.392008	0.107949
	H101	H	0.595491	0.573938	0.876194
	H102	H	0.418085	0.564601	0.106454
	H103	H	0.408516	0.388081	0.878675
	H104	H	0.119055	0.572220	0.398564
	H105	H	0.885316	0.567824	0.582152
	H106	H	0.112754	0.385314	0.567882
	H107	H	0.885351	0.378898	0.399302
	H108	H	0.913260	0.590770	0.083553
	H109	H	0.089497	0.362812	0.087555
	H110	H	0.088643	0.586600	0.903858
	H111	H	0.916229	0.361855	0.897873
	H112	H	0.092018	0.880829	0.608751
	H113	H	0.100461	0.061373	0.377439
	H114	H	0.909279	0.064017	0.607715
	H115	H	0.912967	0.889689	0.380794
	H116	H	0.619156	0.066403	0.894577
	H117	H	0.388019	0.068519	0.079122
	H118	H	0.622157	0.884316	0.096761
	H119	H	0.387444	0.885120	0.906762
	C120	C	0.378534	-0.016217	0.614725
	C121	C	0.622087	0.966598	0.615654
	C122	C	0.621699	-0.016363	0.372735
	C123	C	0.378080	0.967435	0.370201
	C124	C	0.624050	0.355583	0.001224
	C125	C	0.625513	0.599342	0.984944
	C126	C	0.383575	0.596878	0.001496
	C127	C	0.381964	0.354025	0.984999
	C128	C	0.009644	0.597859	0.370039
	C129	C	0.993783	0.596112	0.612612
	C130	C	0.011055	0.353669	0.613993
	C131	C	0.994811	0.354772	0.370925
	C132	C	0.882564	0.484235	0.112921
	C133	C	0.126083	0.467573	0.115073
	C134	C	0.125275	0.483701	0.870557
	C135	C	0.881715	0.468090	0.870741
	C136	C	0.119940	0.855689	0.499819
	C137	C	0.123325	0.097874	0.483909
	C138	C	0.880754	0.095484	0.500751
	C139	C	0.877316	0.851706	0.483514
	C140	C	0.510991	0.098023	0.871893
	C141	C	0.494096	0.098471	0.115181
	C142	C	0.511052	0.854956	0.116105
	C143	C	0.493481	0.855773	0.873477
	C144	C	0.376672	0.863521	0.673940
	C145	C	0.623202	0.088095	0.672060
	C146	C	0.620688	0.862847	0.314435
	C147	C	0.379995	0.089154	0.313579
	C148	C	0.679953	0.356447	0.879484
	C149	C	0.684195	0.597677	0.105969
	C150	C	0.324892	0.597592	0.880133
	C151	C	0.324859	0.354111	0.106574
	C152	C	0.886925	0.652015	0.370146
	C153	C	0.114712	0.656277	0.613126
	C154	C	0.889821	0.293467	0.615937
	C155	C	0.116488	0.298018	0.371985
	C156	C	0.890077	0.351322	0.673191
	C157	C	0.115703	0.597958	0.670318
	C158	C	0.887826	0.594773	0.312182
	C159	C	0.117446	0.356894	0.315333
	C160	C	0.381126	0.656599	0.881045
	C161	C	0.627055	0.656037	0.106468
	C162	C	0.623981	0.298036	0.880071
	C163	C	0.382049	0.296132	0.106304
	C164	C	0.677308	0.861929	0.373368
	C165	C	0.682843	0.086688	0.616255
	C166	C	0.320356	0.862727	0.614315
	C167	C	0.323322	0.089433	0.372328
	C168	C	0.882291	0.362696	0.170230
	C169	C	0.126982	0.588943	0.171814
	C170	C	0.126606	0.363710	0.811237
	C171	C	0.881831	0.588421	0.811118
	C172	C	0.177145	0.856706	0.378230
	C173	C	0.182452	0.097845	0.604933
	C174	C	0.821663	0.094902	0.379431
	C175	C	0.821009	0.850936	0.605384
	C176	C	0.389611	0.155444	0.871619
	C177	C	0.616145	0.156494	0.116562
	C178	C	0.390428	0.794168	0.116756
	C179	C	0.615169	0.798846	0.872454
	C180	C	0.388407	0.854105	0.171541
	C181	C	0.615597	0.098415	0.173804
	C182	C	0.388918	0.097835	0.814052
	C183	C	0.613794	0.854660	0.813364
	C184	C	0.879264	0.153537	0.379485
	C185	C	0.126059	0.156476	0.604532
	C186	C	0.119588	0.799047	0.377966
	C187	C	0.877314	0.792647	0.604276
	C188	C	0.183012	0.363308	0.870752
	C189	C	0.184591	0.588756	0.114054
	C190	C	0.823593	0.363260	0.113116
	C191	C	0.823864	0.588665	0.868691
	C192	C	0.403408	0.067951	0.590611
	C193	C	0.596761	0.882608	0.591844
	C194	C	0.598703	0.067721	0.396712
	C195	C	0.400653	0.882718	0.393632
	C196	C	0.601049	0.378897	0.086081
	C197	C	0.600764	0.576243	0.900182
	C198	C	0.408341	0.572279	0.085695
	C199	C	0.405349	0.377909	0.900726
	C200	C	0.095123	0.576120	0.394372
	C201	C	0.909195	0.570759	0.588273
	C202	C	0.095136	0.378920	0.589231
	C203	C	0.909562	0.377428	0.393555
	C204	C	0.907302	0.568247	0.089153
	C205	C	0.101694	0.383360	0.091859
	C206	C	0.101259	0.567538	0.894592
	C207	C	0.905185	0.384071	0.895306
	C208	C	0.096642	0.878556	0.584540
	C209	C	0.098295	0.074434	0.399556
	C210	C	0.905801	0.071603	0.584864
	C211	C	0.900303	0.875979	0.399050
	C212	C	0.595552	0.074673	0.896051
	C213	C	0.409623	0.074177	0.090065
	C214	C	0.595529	0.880236	0.092631
	C215	C	0.409334	0.879518	0.898186
	Zn216	Zn	0.500744	-0.023793	0.743888
	Zn217	Zn	0.500938	-0.023406	0.243045
	Zn218	Zn	0.752565	0.476226	-0.008212
	Zn219	Zn	0.254305	0.476033	-0.006978
	Zn220	Zn	0.000077	0.725606	0.491645
	Zn221	Zn	0.001711	0.225726	0.492314
	Zn222	Zn	0.003178	0.475521	0.741586
	Zn223	Zn	0.003611	0.476057	0.242269
	Zn224	Zn	0.503499	0.727283	-0.005857
	Zn225	Zn	0.504138	0.226467	-0.006765
	Zn226	Zn	0.750859	-0.026206	0.493959
	Zn227	Zn	0.250068	-0.024577	0.492055
	N228	N	0.412033	0.939914	0.674351
	N229	N	0.586235	0.012525	0.671882
	N230	N	0.586686	0.939475	0.313998
	N231	N	0.412823	0.012166	0.311594
	N232	N	0.680001	0.391677	0.955913
	N233	N	0.683361	0.563357	0.029346
	N234	N	0.326243	0.561146	0.956044
	N235	N	0.324472	0.389375	0.030131
	N236	N	0.963867	0.654016	0.405318
	N237	N	0.037825	0.655168	0.577905
	N238	N	0.965987	0.294905	0.579646
	N239	N	0.039189	0.296638	0.405879
	N240	N	0.966533	0.387525	0.672487
	N241	N	0.039506	0.561144	0.669969
	N242	N	0.965302	0.561934	0.312016
	N243	N	0.040778	0.391327	0.314545
	N244	N	0.416795	0.656192	0.957482
	N245	N	0.591336	0.657297	0.029972
	N246	N	0.589986	0.297288	0.956866
	N247	N	0.416722	0.295798	0.029784
	N248	N	0.677832	0.937887	0.409006
	N249	N	0.682506	0.010017	0.582236
	N250	N	0.321434	0.938698	0.578244
	N251	N	0.321954	0.012623	0.406486
	N252	N	0.918311	0.438880	0.170332
	N253	N	0.091316	0.512703	0.172536
	N254	N	0.091369	0.439519	0.811190
	N255	N	0.916982	0.512419	0.812111
	N256	N	0.177458	0.891158	0.454913
	N257	N	0.180920	0.062177	0.528911
	N258	N	0.822266	0.059792	0.456007
	N259	N	0.820961	0.886924	0.529431
	N260	N	0.466461	0.155807	0.906955
	N261	N	0.539391	0.156763	0.080764
	N262	N	0.467659	0.794524	0.082990
	N263	N	0.539280	0.799329	0.909155
	N264	N	0.464324	0.891164	0.171367
	N265	N	0.538713	0.063255	0.173212
	N266	N	0.465406	0.062789	0.814155
	N267	N	0.537215	0.889197	0.813711
	N268	N	0.915042	0.154195	0.455947
	N269	N	0.089837	0.156628	0.528402
	N270	N	0.084701	0.798201	0.454597
	N271	N	0.911400	0.792671	0.527412
	N272	N	0.182608	0.439010	0.906834
	N273	N	0.184306	0.512391	0.079441
	N274	N	0.823710	0.439698	0.078310
	N275	N	0.823598	0.512856	0.905062
	O276	O	0.430451	0.344845	0.567555
	H277	H	0.432807	0.350237	0.565647
	H278	H	0.419290	0.338320	0.565882
	O279	O	0.384740	0.539613	0.519235
	H280	H	0.378838	0.540961	0.515021
	H281	H	0.390449	0.529961	0.523394
	O282	O	0.894031	0.138398	0.868377
	H283	H	0.882514	0.131431	0.865124
	H284	H	0.888142	0.139495	0.878411
	O285	O	0.523869	0.298351	0.450448
	H286	H	0.549090	0.288577	0.448543
	H287	H	0.516561	0.304720	0.435388
	O288	O	0.513142	1.381711	1.306006
	H289	H	0.518604	1.395139	1.306991
	H290	H	0.505305	1.385027	1.289309
	O291	O	0.050341	0.945571	0.154224
	H292	H	0.059438	0.949936	0.143057
	H293	H	0.060151	0.946744	0.152155
	O294	O	0.449846	0.521235	0.340391
	H295	H	0.451467	0.529923	0.339952
	H296	H	0.433260	0.519152	0.340693
	O297	O	0.576759	0.560339	0.590517
	H298	H	0.583512	0.566482	0.592864
	H299	H	0.575901	0.575907	0.593615
	O300	O	0.537921	0.533356	0.641833
	H301	H	0.517447	0.543396	0.636830
	H302	H	0.550028	0.538500	0.635030
	O303	O	0.503951	0.492693	0.588728
	H304	H	0.490344	0.498539	0.590471
	H305	H	0.515134	0.494526	0.593750
	O306	O	0.448652	0.570144	0.410197
	H307	H	0.441779	0.563754	0.415004
	H308	H	0.450895	0.561915	0.414768
	O309	O	0.637189	0.409812	0.522914
	H310	H	0.639211	0.413411	0.519502
	H311	H	0.647730	0.412090	0.517470
	O312	O	-0.070618	0.072960	-0.143583
	H313	H	-0.068736	0.076542	-0.158552
	H314	H	-0.060480	0.067304	-0.136090
	O315	O	0.667888	0.410106	0.391185
	H316	H	0.666049	0.405653	0.396270
	H317	H	0.662192	0.403249	0.392602
	O318	O	-0.097862	0.919774	1.130913
	H319	H	-0.102509	0.934115	1.130030
	H320	H	-0.101695	0.913376	1.144501
	O321	O	0.485884	0.461406	0.441570
	H322	H	0.482257	0.465794	0.438273
	H323	H	0.483239	0.458437	0.440111
	O324	O	0.016591	0.894945	-0.021612
	H325	H	0.030106	0.895819	-0.008739
	H326	H	0.023896	0.885114	-0.033765
	O327	O	0.542516	0.460884	0.422823
	H328	H	0.536950	0.463836	0.419136
	H329	H	0.537489	0.455160	0.423203
	O330	O	0.009605	0.074769	1.156982
	H331	H	0.005740	0.085050	1.161252
	H332	H	0.012932	0.071742	1.143604
	O333	O	0.115160	-0.139814	1.061081
	H334	H	0.106152	-0.143711	1.054472
	H335	H	0.115779	-0.146720	1.052079
	O336	O	0.118763	1.016460	1.062748
	H337	H	0.111379	1.001119	1.051964
	H338	H	0.123843	1.021066	1.073431
	O339	O	0.925190	0.052265	0.109948
	H340	H	0.922259	0.043859	0.096270
	H341	H	0.933833	0.052213	0.103917
	O342	O	-0.095066	0.041175	-0.192166
	H343	H	-0.080228	0.046427	-0.204882
	H344	H	-0.085974	0.035441	-0.168802
	O345	O	1.017056	-0.099751	1.100574
	H346	H	1.014134	-0.090406	1.093864
	H347	H	1.016685	-0.092995	1.093576
	O348	O	0.523447	1.488579	0.552267
	H349	H	0.526555	1.484549	0.547269
	H350	H	0.519578	1.480681	0.560396
	O351	O	0.463300	0.385542	0.587721
	H352	H	0.459580	0.385792	0.583781
	H353	H	0.474147	0.379801	0.596189
	O354	O	1.181480	0.135929	1.125448
	H355	H	1.196840	0.141314	1.141753
	H356	H	1.191644	0.144635	1.134080
	O357	O	0.541778	0.645181	0.589793
	H358	H	0.532840	0.620248	0.581936
	H359	H	0.553218	0.658501	0.601186
	O360	O	0.527463	0.420273	0.597896
	H361	H	0.520985	0.409955	0.605030
	H362	H	0.537021	0.419771	0.597401
	O363	O	0.109530	0.931821	1.077296
	H364	H	0.117227	0.940990	1.077013
	H365	H	0.102691	0.919566	1.071553
	O366	O	0.436264	0.509183	0.304396
	H367	H	0.438849	0.522865	0.291042
	H368	H	0.451544	0.511641	0.332970
	O369	O	0.045634	1.105158	0.005202
	H370	H	0.043852	1.104790	0.010648
	H371	H	0.052006	1.110912	0.019966
	O372	O	0.463584	0.344296	0.573343
	H373	H	0.461677	0.329058	0.563559
	H374	H	0.458050	0.346074	0.583672
	O375	O	0.340262	0.554004	0.509660
	H376	H	0.337216	0.563926	0.510660
	H377	H	0.342365	0.536851	0.506124
	O378	O	0.999584	1.090224	-0.154839
	H379	H	0.995774	1.098511	-0.157400
	H380	H	0.996370	1.084665	-0.164147
	O381	O	0.866262	0.068689	0.010337
	H382	H	0.877603	0.060220	0.014084
	H383	H	0.868026	0.051874	0.013967
	O384	O	1.029491	0.876341	-0.170515
	H385	H	1.033820	0.863370	-0.162682
	H386	H	1.038654	0.883861	-0.169126
	O387	O	0.069984	0.001877	-0.079379
	H388	H	0.052874	0.005532	-0.076153
	H389	H	0.076635	0.014284	-0.090055
	O390	O	0.025843	0.856429	-0.144663
	H391	H	0.005944	0.861255	-0.143782
	H392	H	0.036841	0.849028	-0.147779
	O393	O	0.870157	0.809577	1.080867
	H394	H	0.862393	0.800677	1.100642
	H395	H	0.857512	0.813253	1.079186
	O396	O	0.867318	0.817320	0.969913
	H397	H	0.843045	0.806997	0.985715
	H398	H	0.875433	0.825837	0.984978
	O399	O	-0.102433	1.041733	0.817578
	H400	H	-0.096667	1.051413	0.817969
	H401	H	-0.110756	1.047238	0.809668
	O402	O	0.498012	0.572862	0.467792
	H403	H	0.502196	0.580540	0.484607
	H404	H	0.491082	0.565509	0.469500
	O405	O	0.592129	1.229802	-0.355595
	H406	H	0.593215	1.228361	-0.359446
	H407	H	0.594649	1.228357	-0.351331
	O408	O	1.056456	0.993609	-0.036678
	H409	H	1.060628	1.002009	-0.034165
	H410	H	1.053130	0.981518	-0.044330
	O411	O	1.024498	-0.085637	1.059312
	H412	H	1.032822	-0.095033	1.050716
	H413	H	1.019532	-0.090949	1.059483
	O414	O	0.631401	0.563558	0.454926
	H415	H	0.634737	0.560805	0.450821
	H416	H	0.630207	0.570075	0.450797
	O417	O	1.187101	0.951578	0.900314
	H418	H	1.180850	0.961128	0.896469
	H419	H	1.179770	0.952467	0.896191
