data_Molecule from HDF5

_cell_length_a		16.550437
_cell_length_b		16.359815
_cell_length_c		16.438420
_cell_angle_alpha	90.085178
_cell_angle_beta	89.997495
_cell_angle_gamma	89.843049
_symmetry_space_group_name_H-M	'P 1'
_symmetry_Int_Tables_number		1

loop_
	_symmetry_equiv_pos_as_xyz
	x,y,z

loop_
	_atom_site_label
	_atom_site_type_symbol
	_atom_site_fract_x
	_atom_site_fract_y
	_atom_site_fract_z
	H0	H	0.390311	0.845358	0.726783
	H1	H	0.600437	0.163274	0.721923
	H2	H	0.608537	0.845966	0.275468
	H3	H	0.393727	0.161643	0.283934
	H4	H	0.722977	0.394057	0.846432
	H5	H	0.720017	0.610990	0.160540
	H6	H	0.271768	0.614201	0.846810
	H7	H	0.276483	0.399518	0.159761
	H8	H	0.841381	0.729165	0.394059
	H9	H	0.153156	0.726494	0.610924
	H10	H	0.837363	0.283303	0.605871
	H11	H	0.154709	0.282332	0.399504
	H12	H	0.839429	0.396393	0.725859
	H13	H	0.152015	0.611126	0.727926
	H14	H	0.839792	0.610747	0.280184
	H15	H	0.153917	0.398159	0.280858
	H16	H	0.392175	0.725174	0.844038
	H17	H	0.603460	0.726069	0.161149
	H18	H	0.601925	0.283435	0.843691
	H19	H	0.396105	0.285836	0.160735
	H20	H	0.725804	0.847784	0.389488
	H21	H	0.718644	0.161443	0.609317
	H22	H	0.271687	0.846038	0.614175
	H23	H	0.276940	0.161760	0.399166
	H24	H	0.897013	0.344345	0.219231
	H25	H	0.101791	0.663532	0.225544
	H26	H	0.100828	0.344698	0.783675
	H27	H	0.890451	0.662750	0.780820
	H28	H	0.220951	0.894196	0.345844
	H29	H	0.216814	0.108137	0.661299
	H30	H	0.776301	0.105809	0.344322
	H31	H	0.770790	0.892389	0.658662
	H32	H	0.339260	0.223921	0.899608
	H33	H	0.655301	0.221553	0.104531
	H34	H	0.339447	0.781618	0.107934
	H35	H	0.655388	0.779390	0.895195
	H36	H	0.339530	0.897153	0.224911
	H37	H	0.654557	0.105865	0.222650
	H38	H	0.339729	0.107941	0.782423
	H39	H	0.655041	0.896913	0.780026
	H40	H	0.895991	0.218883	0.342155
	H41	H	0.098485	0.221956	0.661635
	H42	H	0.102556	0.781308	0.344278
	H43	H	0.891500	0.781137	0.661395
	H44	H	0.217609	0.345338	0.898767
	H45	H	0.218557	0.664298	0.109586
	H46	H	0.777593	0.346124	0.106638
	H47	H	0.774463	0.662915	0.895375
	H48	H	0.399641	0.117820	0.591592
	H49	H	0.583348	0.891967	0.587670
	H50	H	0.587268	0.116542	0.413134
	H51	H	0.408244	0.888977	0.415753
	H52	H	0.590493	0.416617	0.115069
	H53	H	0.593123	0.586333	0.888880
	H54	H	0.410723	0.594837	0.115470
	H55	H	0.400674	0.418609	0.887499
	H56	H	0.109471	0.595515	0.413382
	H57	H	0.887146	0.586313	0.590283
	H58	H	0.106869	0.415692	0.591428
	H59	H	0.881825	0.405893	0.412307
	H60	H	0.110113	0.412096	0.597015
	H61	H	0.883836	0.592529	0.593585
	H62	H	0.105302	0.589045	0.420873
	H63	H	0.885657	0.416393	0.413680
	H64	H	0.405049	0.591546	0.115734
	H65	H	0.579452	0.585792	0.895267
	H66	H	0.585169	0.413755	0.115379
	H67	H	0.412711	0.418290	0.890904
	H68	H	0.581037	0.113692	0.412775
	H69	H	0.586091	0.890140	0.589493
	H70	H	0.410825	0.116911	0.597547
	H71	H	0.409090	0.889098	0.414737
	H72	H	0.907404	0.618178	0.089106
	H73	H	0.083073	0.392679	0.093136
	H74	H	0.085660	0.617872	0.914529
	H75	H	0.910279	0.390621	0.913024
	H76	H	0.084879	0.921516	0.613003
	H77	H	0.082775	0.087423	0.391143
	H78	H	0.905067	0.091451	0.617202
	H79	H	0.910214	0.911551	0.389370
	H80	H	0.613057	0.104635	0.913831
	H81	H	0.384529	0.093596	0.093316
	H82	H	0.608937	0.915574	0.090772
	H83	H	0.387809	0.920859	0.911441
	H84	H	0.607231	0.915558	0.088477
	H85	H	0.382948	0.095104	0.094521
	H86	H	0.605967	0.086908	0.920048
	H87	H	0.384457	0.910823	0.912700
	H88	H	0.906985	0.092422	0.616308
	H89	H	0.086688	0.100176	0.386099
	H90	H	0.080515	0.912755	0.614564
	H91	H	0.905541	0.920962	0.391084
	H92	H	0.082839	0.617182	0.915306
	H93	H	0.089473	0.392932	0.086382
	H94	H	0.906884	0.619774	0.091904
	H95	H	0.909681	0.391880	0.917405
	H96	H	0.409712	0.112926	0.585704
	H97	H	0.582549	0.890298	0.591050
	H98	H	0.584694	0.113685	0.418859
	H99	H	0.409323	0.889035	0.416057
	H100	H	0.590313	0.411217	0.118342
	H101	H	0.583878	0.598010	0.888004
	H102	H	0.410059	0.588634	0.113817
	H103	H	0.407297	0.407945	0.886413
	H104	H	0.107649	0.585577	0.411138
	H105	H	0.886512	0.593026	0.586206
	H106	H	0.109115	0.409217	0.590595
	H107	H	0.881713	0.413479	0.404250
	H108	H	0.910094	0.618816	0.091467
	H109	H	0.091612	0.388907	0.094135
	H110	H	0.085257	0.617519	0.917420
	H111	H	0.906341	0.390398	0.914868
	H112	H	0.089987	0.914085	0.617186
	H113	H	0.096481	0.089570	0.387272
	H114	H	0.905772	0.093942	0.617206
	H115	H	0.915792	0.919816	0.394292
	H116	H	0.612551	0.088987	0.901284
	H117	H	0.382791	0.095494	0.091855
	H118	H	0.607240	0.917545	0.089798
	H119	H	0.389102	0.916209	0.920994
	C120	C	0.374190	0.011635	0.625370
	C121	C	0.616740	0.995362	0.622437
	C122	C	0.618531	0.010769	0.380840
	C123	C	0.376614	0.993983	0.382863
	C124	C	0.620117	0.381864	0.011359
	C125	C	0.617766	0.623701	0.995035
	C126	C	0.375779	0.625744	0.011074
	C127	C	0.375913	0.383260	0.993311
	C128	C	0.004668	0.624346	0.381642
	C129	C	0.988594	0.624555	0.624171
	C130	C	0.004384	0.380485	0.624595
	C131	C	0.987839	0.380680	0.379249
	C132	C	0.876866	0.513520	0.122569
	C133	C	0.119949	0.496198	0.124833
	C134	C	0.117557	0.512861	0.882317
	C135	C	0.875905	0.496019	0.881967
	C136	C	0.119064	0.881436	0.511330
	C137	C	0.118849	0.123958	0.493845
	C138	C	0.875035	0.123964	0.511516
	C139	C	0.876047	0.882426	0.494611
	C140	C	0.505873	0.125413	0.880691
	C141	C	0.488323	0.125441	0.124307
	C142	C	0.504800	0.882132	0.123563
	C143	C	0.490193	0.881900	0.880966
	C144	C	0.372043	0.892998	0.686703
	C145	C	0.619237	0.114933	0.682791
	C146	C	0.624565	0.893229	0.317203
	C147	C	0.375162	0.113980	0.323792
	C148	C	0.680944	0.377943	0.892819
	C149	C	0.679412	0.628301	0.113510
	C150	C	0.313623	0.630636	0.893235
	C151	C	0.316708	0.381148	0.112454
	C152	C	0.887767	0.687600	0.377147
	C153	C	0.106184	0.685978	0.628165
	C154	C	0.885351	0.322029	0.625216
	C155	C	0.106937	0.321730	0.379398
	C156	C	0.886294	0.378716	0.684851
	C157	C	0.105519	0.628625	0.686655
	C158	C	0.887309	0.628875	0.319970
	C159	C	0.106790	0.379498	0.320603
	C160	C	0.373476	0.686100	0.891979
	C161	C	0.621217	0.685577	0.113659
	C162	C	0.621270	0.322055	0.891823
	C163	C	0.376038	0.324678	0.112963
	C164	C	0.683043	0.893697	0.374287
	C165	C	0.678113	0.113940	0.626513
	C166	C	0.312824	0.893414	0.630495
	C167	C	0.316951	0.113845	0.380991
	C168	C	0.876851	0.392784	0.180683
	C169	C	0.120911	0.615912	0.185570
	C170	C	0.119359	0.392614	0.823121
	C171	C	0.872912	0.615257	0.820996
	C172	C	0.180783	0.876544	0.393259
	C173	C	0.177161	0.125998	0.613528
	C174	C	0.816219	0.124962	0.391587
	C175	C	0.812972	0.876388	0.612281
	C176	C	0.386797	0.184370	0.880072
	C177	C	0.607680	0.182636	0.124315
	C178	C	0.386700	0.821452	0.126284
	C179	C	0.607872	0.819899	0.877248
	C180	C	0.386856	0.878720	0.184868
	C181	C	0.606989	0.125433	0.183262
	C182	C	0.387042	0.126791	0.821819
	C183	C	0.608072	0.878672	0.820005
	C184	C	0.875892	0.180765	0.390426
	C185	C	0.118161	0.182655	0.613769
	C186	C	0.121522	0.820414	0.392486
	C187	C	0.872982	0.820774	0.613521
	C188	C	0.177501	0.392983	0.880477
	C189	C	0.179153	0.616205	0.127990
	C190	C	0.817711	0.393610	0.124738
	C191	C	0.814980	0.615199	0.878247
	C192	C	0.399614	0.094502	0.599119
	C193	C	0.591313	0.912377	0.596580
	C194	C	0.591874	0.093188	0.407619
	C195	C	0.401527	0.910619	0.408156
	C196	C	0.595782	0.406772	0.094479
	C197	C	0.592585	0.597643	0.912709
	C198	C	0.401349	0.599217	0.093589
	C199	C	0.399808	0.407815	0.909962
	C200	C	0.086351	0.597403	0.407641
	C201	C	0.906959	0.598084	0.597568
	C202	C	0.087129	0.405320	0.600046
	C203	C	0.904735	0.404987	0.403121
	C204	C	0.901091	0.597092	0.097992
	C205	C	0.095258	0.413192	0.098612
	C206	C	0.091894	0.595741	0.908099
	C207	C	0.901369	0.412709	0.907523
	C208	C	0.092845	0.908323	0.593545
	C209	C	0.095523	0.099437	0.410204
	C210	C	0.898997	0.099699	0.594999
	C211	C	0.902804	0.909535	0.413057
	C212	C	0.588811	0.100611	0.904822
	C213	C	0.405101	0.101710	0.100115
	C214	C	0.586445	0.908590	0.097370
	C215	C	0.408513	0.908300	0.907480
	Zn216	Zn	0.497520	0.003606	0.752042
	Zn217	Zn	0.496550	0.002709	0.253153
	Zn218	Zn	0.747732	0.504108	0.002265
	Zn219	Zn	0.246923	0.505063	0.002484
	Zn220	Zn	-0.003190	0.753946	0.502685
	Zn221	Zn	-0.004019	0.252057	0.502350
	Zn222	Zn	-0.003667	0.503839	0.753469
	Zn223	Zn	-0.002988	0.504488	0.251107
	Zn224	Zn	0.497573	0.752987	0.002332
	Zn225	Zn	0.497422	0.254301	0.002111
	Zn226	Zn	0.746581	0.002738	0.502735
	Zn227	Zn	0.247374	0.002213	0.503123
	N228	N	0.409494	0.967822	0.683702
	N229	N	0.581878	0.040019	0.680343
	N230	N	0.584750	0.966803	0.321627
	N231	N	0.411303	0.038371	0.324772
	N232	N	0.680406	0.414429	0.968029
	N233	N	0.677638	0.590657	0.038656
	N234	N	0.314702	0.594106	0.968492
	N235	N	0.316707	0.417054	0.036994
	N236	N	0.961873	0.685061	0.414663
	N237	N	0.032337	0.683415	0.589858
	N238	N	0.959952	0.323062	0.588506
	N239	N	0.031964	0.322263	0.415072
	N240	N	0.961514	0.414330	0.684643
	N241	N	0.031441	0.591185	0.684248
	N242	N	0.960895	0.589900	0.323043
	N243	N	0.031548	0.415284	0.320405
	N244	N	0.411282	0.683097	0.966405
	N245	N	0.583512	0.682714	0.039390
	N246	N	0.583820	0.324566	0.966467
	N247	N	0.412124	0.325888	0.037721
	N248	N	0.679042	0.967670	0.413776
	N249	N	0.676908	0.038411	0.589783
	N250	N	0.314138	0.968323	0.593133
	N251	N	0.317824	0.038078	0.417258
	N252	N	0.912511	0.468359	0.179757
	N253	N	0.085337	0.540186	0.184075
	N254	N	0.082952	0.468168	0.824010
	N255	N	0.909872	0.539921	0.823041
	N256	N	0.179627	0.913415	0.468398
	N257	N	0.177860	0.090481	0.537788
	N258	N	0.815383	0.090763	0.467847
	N259	N	0.814515	0.913724	0.537409
	N260	N	0.461920	0.183871	0.915577
	N261	N	0.532760	0.182870	0.088473
	N262	N	0.461200	0.823189	0.089257
	N263	N	0.533573	0.821945	0.914540
	N264	N	0.461441	0.915579	0.183357
	N265	N	0.531658	0.090483	0.183285
	N266	N	0.462265	0.091020	0.822042
	N267	N	0.533735	0.916275	0.821952
	N268	N	0.911305	0.180634	0.466089
	N269	N	0.082707	0.181914	0.538200
	N270	N	0.084045	0.823248	0.467110
	N271	N	0.911279	0.824374	0.539461
	N272	N	0.177016	0.469117	0.916074
	N273	N	0.178800	0.540650	0.091205
	N274	N	0.817449	0.469779	0.089438
	N275	N	0.816598	0.539809	0.915078
	O276	O	0.473168	0.619471	0.709719
	H277	H	0.465717	0.604665	0.712317
	H278	H	0.470229	0.621721	0.708422
	O279	O	1.198480	0.199464	1.200470
	H280	H	1.226055	0.217426	1.208415
	H281	H	1.210863	0.198402	1.171673
	O282	O	0.421989	0.297869	0.709614
	H283	H	0.430848	0.280944	0.719412
	H284	H	0.424004	0.296508	0.702865
	O285	O	0.339889	0.610175	0.562025
	H286	H	0.323408	0.626699	0.554068
	H287	H	0.338116	0.596903	0.585059
	O288	O	0.844087	1.008548	0.131919
	H289	H	0.829374	1.025526	0.116381
	H290	H	0.861216	1.019356	0.138918
	O291	O	0.366791	0.333045	0.307594
	H292	H	0.381229	0.353545	0.312963
	H293	H	0.372011	0.348392	0.315066
	O294	O	0.024648	0.200065	0.975341
	H295	H	0.025865	0.206268	0.977823
	H296	H	0.016412	0.177617	0.993382
	O297	O	0.400277	0.545979	0.500369
	H298	H	0.403815	0.533327	0.521991
	H299	H	0.406586	0.534879	0.510658
	O300	O	0.410449	0.705940	0.308987
	H301	H	0.393556	0.679876	0.306362
	H302	H	0.404400	0.726874	0.325381
	O303	O	-0.172756	0.824473	0.190260
	H304	H	-0.179970	0.859024	0.198274
	H305	H	-0.137797	0.821669	0.201006
	O306	O	0.511691	0.328784	0.318200
	H307	H	0.515369	0.335285	0.316944
	H308	H	0.525175	0.327898	0.324661
	O309	O	0.691765	0.299028	0.293340
	H310	H	0.667996	0.321576	0.293555
	H311	H	0.699251	0.311303	0.320224
	O312	O	-0.151400	0.961153	0.995176
	H313	H	-0.154858	0.963269	1.005816
	H314	H	-0.156406	0.955253	0.995674
	O315	O	0.561234	0.526303	0.333828
	H316	H	0.565165	0.549123	0.334848
	H317	H	0.571764	0.531954	0.345161
	O318	O	1.189384	-0.146639	-0.181779
	H319	H	1.183823	-0.122529	-0.191098
	H320	H	1.156121	-0.157161	-0.178872
	O321	O	-0.060273	-0.185422	-0.023243
	H322	H	-0.068259	-0.191709	-0.007762
	H323	H	-0.068912	-0.177555	-0.004167
	O324	O	0.506849	0.410062	0.650362
	H325	H	0.513053	0.413355	0.653591
	H326	H	0.497402	0.424420	0.639561
	O327	O	0.290902	0.298544	0.583970
	H328	H	0.278482	0.289439	0.585318
	H329	H	0.277704	0.306042	0.570905
	O330	O	0.031667	0.963324	0.176606
	H331	H	0.037948	0.984566	0.168231
	H332	H	0.050852	0.967371	0.187768
	O333	O	0.944262	0.217096	0.792174
	H334	H	0.951966	0.208666	0.804196
	H335	H	0.940027	0.245313	0.768128
	O336	O	-0.193349	0.139842	-0.167539
	H337	H	-0.195889	0.142902	-0.156720
	H338	H	-0.180660	0.152739	-0.149524
	O339	O	-0.175438	1.137442	1.115569
	H340	H	-0.192151	1.153380	1.141553
	H341	H	-0.167707	1.122971	1.109414
	O342	O	-0.038228	0.838724	1.179240
	H343	H	-0.016767	0.848160	1.177602
	H344	H	-0.032399	0.837858	1.179569
	O345	O	0.905831	1.092619	0.187678
	H346	H	0.913433	1.100547	0.193174
	H347	H	0.909106	1.108005	0.192268
	O348	O	0.284374	0.721539	0.483536
	H349	H	0.277723	0.709534	0.477445
	H350	H	0.265043	0.748511	0.481517
	O351	O	-0.173228	1.170085	0.934914
	H352	H	-0.166840	1.183468	0.957351
	H353	H	-0.172220	1.181432	0.942821
	O354	O	-0.082185	0.993748	0.007804
	H355	H	-0.097003	1.001148	-0.009132
	H356	H	-0.085817	1.000150	0.013818
	O357	O	0.183158	0.007762	0.984786
	H358	H	0.171363	-0.012685	0.974585
	H359	H	0.183901	-0.001377	0.985902
	O360	O	0.506625	0.568751	0.637356
	H361	H	0.505915	0.577205	0.646600
	H362	H	0.502925	0.566275	0.642691
	O363	O	0.237946	-0.325846	0.853707
	H364	H	0.231206	-0.320596	0.824084
	H365	H	0.241868	-0.347184	0.862423
	O366	O	0.491377	0.617930	0.385069
	H367	H	0.469854	0.610990	0.389372
	H368	H	0.480919	0.638331	0.380317
	O369	O	0.549495	0.522390	0.490542
	H370	H	0.567906	0.523619	0.481978
	H371	H	0.560694	0.519867	0.512065
	O372	O	1.194679	0.204355	1.022723
	H373	H	1.201576	0.205391	1.017513
	H374	H	1.194651	0.199009	1.003030
	O375	O	0.373531	0.336476	0.647611
	H376	H	0.403273	0.341103	0.658168
	H377	H	0.365762	0.321152	0.626445
	O378	O	0.676046	0.678228	0.678603
	H379	H	0.662124	0.689199	0.652129
	H380	H	0.651520	0.673075	0.684759
	O381	O	0.688766	0.422020	0.567749
	H382	H	0.693427	0.424459	0.588567
	H383	H	0.684987	0.430580	0.550146
	O384	O	0.708205	0.682628	0.494675
	H385	H	0.715254	0.697009	0.515170
	H386	H	0.697455	0.703723	0.483458
	O387	O	-0.070432	0.041155	0.839450
	H388	H	-0.085464	0.049840	0.846361
	H389	H	-0.081238	0.047986	0.831470
	O390	O	0.207263	0.015231	0.204135
	H391	H	0.221551	0.029482	0.205572
	H392	H	0.221195	0.022321	0.198600
	O393	O	0.943072	1.186022	0.994571
	H394	H	0.938596	1.186776	1.006050
	H395	H	0.951974	1.189640	0.996282
	O396	O	0.903887	-0.076524	-0.177647
	H397	H	0.896710	-0.074899	-0.163402
	H398	H	0.881092	-0.068907	-0.175518
	O399	O	0.848099	-0.166592	1.017491
	H400	H	0.822837	-0.182238	1.028094
	H401	H	0.856813	-0.155751	1.049525
	O402	O	1.406665	0.340493	0.455022
	H403	H	1.401472	0.358182	0.460816
	H404	H	1.412087	0.325767	0.454399
	O405	O	1.022383	0.811603	-0.197920
	H406	H	1.000278	0.805178	-0.181863
	H407	H	1.001799	0.804531	-0.205088
	O408	O	1.153247	0.005362	-0.092458
	H409	H	1.156355	0.012489	-0.094286
	H410	H	1.159060	0.002628	-0.101822
	O411	O	1.180300	0.964329	-0.023970
	H412	H	1.171393	0.958018	-0.034368
	H413	H	1.179967	0.945682	-0.018757
	O414	O	0.360678	0.631991	0.578353
	H415	H	0.351141	0.642633	0.581990
	H416	H	0.371965	0.637957	0.577296
	O417	O	0.535782	0.720736	0.490021
	H418	H	0.514846	0.720636	0.486470
	H419	H	0.522132	0.730311	0.457508
	O420	O	0.652602	0.619740	0.422530
	H421	H	0.648570	0.618938	0.437292
	H422	H	0.660668	0.631748	0.440210
	O423	O	0.298140	0.472512	0.391148
	H424	H	0.294548	0.470386	0.395334
	H425	H	0.309569	0.485256	0.398622
	O426	O	0.557678	0.350359	0.603053
	H427	H	0.549518	0.344840	0.609049
	H428	H	0.575260	0.363408	0.614817
	O429	O	0.389943	0.576881	0.320133
	H430	H	0.401691	0.577593	0.316110
	H431	H	0.402910	0.555759	0.321549
	O432	O	0.689501	0.477619	0.293247
	H433	H	0.705661	0.493848	0.290907
	H434	H	0.685999	0.498608	0.291907
	O435	O	0.401128	0.478380	0.652753
	H436	H	0.389634	0.453427	0.655381
	H437	H	0.407452	0.464684	0.659030
	O438	O	0.077441	0.031503	-0.179298
	H439	H	0.070824	0.041877	-0.176086
	H440	H	0.063086	0.002472	-0.189416
	O441	O	1.116130	-0.124163	0.050197
	H442	H	1.123179	-0.128743	0.034159
	H443	H	1.118356	-0.121033	0.046950
	O444	O	0.025663	1.198765	1.218986
	H445	H	0.043433	1.205813	1.237173
	H446	H	0.053711	1.206250	1.226332
	O447	O	0.712948	0.524551	0.720150
	H448	H	0.705911	0.552534	0.713300
	H449	H	0.738238	0.523962	0.744139
	O450	O	0.714156	0.283449	0.468711
	H451	H	0.698042	0.295862	0.467270
	H452	H	0.746224	0.248260	0.465872
	O453	O	0.380591	0.545101	0.437653
	H454	H	0.373432	0.526333	0.440199
	H455	H	0.359387	0.544761	0.434360
