data_Molecule from HDF5

_cell_length_a		16.664229
_cell_length_b		16.549388
_cell_length_c		16.730097
_cell_angle_alpha	89.962656
_cell_angle_beta	90.039706
_cell_angle_gamma	90.025370
_symmetry_space_group_name_H-M	'P 1'
_symmetry_Int_Tables_number		1

loop_
	_symmetry_equiv_pos_as_xyz
	x,y,z

loop_
	_atom_site_label
	_atom_site_type_symbol
	_atom_site_fract_x
	_atom_site_fract_y
	_atom_site_fract_z
	H0	H	0.381176	0.849822	0.728375
	H1	H	0.593997	0.159716	0.728872
	H2	H	0.591837	0.849411	0.286152
	H3	H	0.381899	0.161432	0.285656
	H4	H	0.709990	0.397384	0.853997
	H5	H	0.709789	0.612871	0.160351
	H6	H	0.263933	0.610857	0.853441
	H7	H	0.260354	0.394010	0.160123
	H8	H	0.830606	0.723359	0.403899
	H9	H	0.139799	0.727691	0.614677
	H10	H	0.830798	0.284907	0.608775
	H11	H	0.142969	0.283595	0.402075
	H12	H	0.831342	0.398101	0.728001
	H13	H	0.139290	0.612819	0.732120
	H14	H	0.833156	0.611917	0.284408
	H15	H	0.141848	0.397863	0.284288
	H16	H	0.381415	0.726298	0.853326
	H17	H	0.593258	0.728529	0.160575
	H18	H	0.591754	0.282615	0.852066
	H19	H	0.379444	0.280595	0.161359
	H20	H	0.706958	0.848869	0.402948
	H21	H	0.706559	0.161711	0.609960
	H22	H	0.266298	0.849121	0.611271
	H23	H	0.265982	0.160951	0.401193
	H24	H	0.878853	0.349690	0.230417
	H25	H	0.090586	0.661612	0.226634
	H26	H	0.091409	0.348742	0.786539
	H27	H	0.879607	0.658824	0.785633
	H28	H	0.209837	0.896145	0.353251
	H29	H	0.210234	0.111194	0.660142
	H30	H	0.767415	0.108462	0.351400
	H31	H	0.765336	0.900375	0.661811
	H32	H	0.331538	0.226003	0.901470
	H33	H	0.641733	0.224824	0.108894
	H34	H	0.331971	0.782074	0.113933
	H35	H	0.640626	0.783181	0.903340
	H36	H	0.333231	0.896569	0.231118
	H37	H	0.640612	0.112330	0.228482
	H38	H	0.333616	0.113098	0.782051
	H39	H	0.641218	0.899166	0.786474
	H40	H	0.883723	0.225057	0.351815
	H41	H	0.092964	0.226802	0.661021
	H42	H	0.091153	0.782261	0.352824
	H43	H	0.880790	0.782540	0.661500
	H44	H	0.206565	0.348811	0.902154
	H45	H	0.206288	0.660490	0.111602
	H46	H	0.763605	0.349261	0.114150
	H47	H	0.766795	0.660774	0.904446
	H48	H	0.397757	0.116147	0.590735
	H49	H	0.583042	0.891179	0.595116
	H50	H	0.572334	0.116112	0.417433
	H51	H	0.401974	0.894131	0.419242
	H52	H	0.576584	0.416580	0.117644
	H53	H	0.574495	0.597010	0.895886
	H54	H	0.397221	0.591930	0.117768
	H55	H	0.397353	0.416360	0.897822
	H56	H	0.098972	0.597512	0.420140
	H57	H	0.874393	0.598979	0.591822
	H58	H	0.098077	0.418572	0.600900
	H59	H	0.876118	0.411577	0.420101
	H60	H	0.098596	0.413561	0.597327
	H61	H	0.879902	0.585630	0.593066
	H62	H	0.096724	0.589093	0.419275
	H63	H	0.879637	0.420162	0.420354
	H64	H	0.397140	0.594739	0.118685
	H65	H	0.578513	0.592455	0.895915
	H66	H	0.573110	0.419594	0.114583
	H67	H	0.395332	0.416766	0.897943
	H68	H	0.579258	0.117166	0.419899
	H69	H	0.573313	0.891489	0.602769
	H70	H	0.396635	0.118323	0.597880
	H71	H	0.398041	0.893970	0.420058
	H72	H	0.898783	0.615717	0.097041
	H73	H	0.071497	0.393351	0.096673
	H74	H	0.073184	0.615290	0.919923
	H75	H	0.891763	0.388132	0.914133
	H76	H	0.073481	0.917092	0.615694
	H77	H	0.070153	0.091417	0.398234
	H78	H	0.895074	0.093954	0.618510
	H79	H	0.894307	0.917368	0.396303
	H80	H	0.597136	0.088865	0.915467
	H81	H	0.374356	0.095977	0.092576
	H82	H	0.596533	0.920444	0.098849
	H83	H	0.375489	0.917856	0.918899
	H84	H	0.598383	0.913444	0.097343
	H85	H	0.377724	0.087634	0.093603
	H86	H	0.599342	0.096025	0.914279
	H87	H	0.375337	0.918982	0.916653
	H88	H	0.898488	0.093473	0.617347
	H89	H	0.077147	0.099277	0.393813
	H90	H	0.076515	0.915832	0.617557
	H91	H	0.900382	0.915196	0.396863
	H92	H	0.075360	0.615790	0.919627
	H93	H	0.073605	0.393438	0.093519
	H94	H	0.898598	0.615317	0.094776
	H95	H	0.904600	0.394175	0.915476
	H96	H	0.402906	0.115431	0.595677
	H97	H	0.572398	0.896027	0.591063
	H98	H	0.577796	0.119896	0.412807
	H99	H	0.399265	0.893441	0.416580
	H100	H	0.571699	0.414549	0.117461
	H101	H	0.573146	0.592383	0.898915
	H102	H	0.394871	0.592824	0.119141
	H103	H	0.397013	0.418559	0.898183
	H104	H	0.100404	0.592908	0.412537
	H105	H	0.872387	0.591301	0.604219
	H106	H	0.095912	0.419069	0.594712
	H107	H	0.875134	0.417152	0.412804
	H108	H	0.897034	0.616064	0.095930
	H109	H	0.075278	0.391938	0.097354
	H110	H	0.073132	0.616787	0.918013
	H111	H	0.895973	0.393528	0.926738
	H112	H	0.076121	0.919598	0.616939
	H113	H	0.080476	0.088571	0.396072
	H114	H	0.897431	0.096227	0.619124
	H115	H	0.895719	0.910944	0.394658
	H116	H	0.596621	0.094005	0.921526
	H117	H	0.373220	0.092010	0.100545
	H118	H	0.596236	0.917997	0.091957
	H119	H	0.375135	0.916172	0.916437
	C120	C	0.366631	0.013462	0.627180
	C121	C	0.608520	0.996329	0.628119
	C122	C	0.608118	0.014114	0.385348
	C123	C	0.366507	0.996877	0.385626
	C124	C	0.607021	0.383805	0.014644
	C125	C	0.607834	0.626562	0.998728
	C126	C	0.364635	0.625532	0.016010
	C127	C	0.363800	0.383049	0.999342
	C128	C	-0.004610	0.625446	0.386027
	C129	C	0.977731	0.625332	0.628958
	C130	C	-0.005210	0.383757	0.628659
	C131	C	0.979369	0.383811	0.385454
	C132	C	0.864864	0.512976	0.128974
	C133	C	0.106163	0.496164	0.127826
	C134	C	0.106586	0.513127	0.886425
	C135	C	0.865112	0.495144	0.887119
	C136	C	0.108222	0.883315	0.515300
	C137	C	0.108820	0.126277	0.497992
	C138	C	0.865852	0.126059	0.515454
	C139	C	0.864897	0.882825	0.498646
	C140	C	0.495591	0.126231	0.884467
	C141	C	0.477467	0.125768	0.127531
	C142	C	0.495077	0.883857	0.128737
	C143	C	0.478198	0.884927	0.886047
	C144	C	0.363517	0.896278	0.687667
	C145	C	0.611526	0.113351	0.688455
	C146	C	0.610242	0.896385	0.326134
	C147	C	0.363716	0.114318	0.325718
	C148	C	0.668691	0.380317	0.899550
	C149	C	0.669046	0.630273	0.114245
	C150	C	0.304528	0.628453	0.899852
	C151	C	0.301877	0.377585	0.114468
	C152	C	0.877997	0.684557	0.384771
	C153	C	0.093509	0.687218	0.632705
	C154	C	0.877739	0.324100	0.628517
	C155	C	0.096342	0.323784	0.383506
	C156	C	0.877755	0.380393	0.687684
	C157	C	0.093258	0.630100	0.691046
	C158	C	0.879178	0.628504	0.325707
	C159	C	0.095578	0.380699	0.324992
	C160	C	0.362547	0.686215	0.899843
	C161	C	0.611035	0.687736	0.114414
	C162	C	0.609967	0.323288	0.898614
	C163	C	0.361222	0.321251	0.115058
	C164	C	0.667344	0.896000	0.384160
	C165	C	0.667523	0.114417	0.629478
	C166	C	0.306436	0.895941	0.629581
	C167	C	0.306033	0.114069	0.382992
	C168	C	0.861136	0.396189	0.189596
	C169	C	0.108770	0.614141	0.187117
	C170	C	0.109284	0.395642	0.826476
	C171	C	0.862211	0.612579	0.826614
	C172	C	0.169160	0.878999	0.399604
	C173	C	0.169735	0.129398	0.613964
	C174	C	0.807272	0.127136	0.398156
	C175	C	0.805348	0.881245	0.615318
	C176	C	0.378401	0.186067	0.882566
	C177	C	0.594901	0.185303	0.128246
	C178	C	0.378679	0.822314	0.132058
	C179	C	0.594403	0.823856	0.884651
	C180	C	0.379182	0.879273	0.190263
	C181	C	0.594188	0.129312	0.187639
	C182	C	0.379525	0.130243	0.823109
	C183	C	0.594659	0.881393	0.826542
	C184	C	0.865082	0.185108	0.398352
	C185	C	0.111592	0.186847	0.614350
	C186	C	0.110371	0.822045	0.399332
	C187	C	0.862486	0.822718	0.615205
	C188	C	0.166582	0.395717	0.884119
	C189	C	0.166310	0.613713	0.129717
	C190	C	0.803726	0.396041	0.132050
	C191	C	0.805767	0.613257	0.885230
	C192	C	0.391976	0.095343	0.601944
	C193	C	0.583306	0.914130	0.603165
	C194	C	0.583415	0.096208	0.409801
	C195	C	0.392410	0.915093	0.411331
	C196	C	0.581024	0.409716	0.095473
	C197	C	0.582521	0.601066	0.917938
	C198	C	0.389567	0.600239	0.097364
	C199	C	0.389265	0.409758	0.918851
	C200	C	0.077227	0.600399	0.410550
	C201	C	0.896653	0.599441	0.603599
	C202	C	0.076395	0.409796	0.604520
	C203	C	0.898170	0.409089	0.410642
	C204	C	0.890839	0.594506	0.103303
	C205	C	0.080662	0.414264	0.103016
	C206	C	0.081078	0.594802	0.911775
	C207	C	0.890246	0.413354	0.911863
	C208	C	0.082551	0.909844	0.595830
	C209	C	0.083182	0.100416	0.417117
	C210	C	0.889968	0.101508	0.597011
	C211	C	0.889767	0.907453	0.417271
	C212	C	0.576616	0.100413	0.909903
	C213	C	0.396233	0.099477	0.102608
	C214	C	0.575960	0.910023	0.103522
	C215	C	0.396552	0.910416	0.910460
	Zn216	Zn	0.487420	0.004897	0.755744
	Zn217	Zn	0.486560	0.005017	0.256884
	Zn218	Zn	0.737012	0.504507	0.007881
	Zn219	Zn	0.234974	0.504232	0.007539
	Zn220	Zn	-0.013797	0.754165	0.507387
	Zn221	Zn	-0.012016	0.254996	0.506803
	Zn222	Zn	-0.014477	0.504240	0.758008
	Zn223	Zn	-0.013294	0.504414	0.256540
	Zn224	Zn	0.485607	0.755561	0.007607
	Zn225	Zn	0.485671	0.254575	0.006523
	Zn226	Zn	0.736166	0.005081	0.507173
	Zn227	Zn	0.237459	0.004751	0.506198
	N228	N	0.400268	0.970553	0.686424
	N229	N	0.575527	0.038701	0.687687
	N230	N	0.574371	0.970945	0.326384
	N231	N	0.400548	0.040170	0.327141
	N232	N	0.666991	0.417232	0.972894
	N233	N	0.667322	0.592847	0.041288
	N234	N	0.305460	0.591678	0.973272
	N235	N	0.303719	0.415616	0.041667
	N236	N	0.951543	0.682828	0.421749
	N237	N	0.020708	0.684419	0.594714
	N238	N	0.951686	0.325860	0.592596
	N239	N	0.022974	0.325252	0.420411
	N240	N	0.951794	0.416720	0.688085
	N241	N	0.020055	0.592286	0.689145
	N242	N	0.953265	0.592444	0.326238
	N243	N	0.021681	0.417166	0.326015
	N244	N	0.399426	0.684432	0.973194
	N245	N	0.573535	0.685820	0.041563
	N246	N	0.572294	0.325248	0.971416
	N247	N	0.399321	0.324502	0.042393
	N248	N	0.666386	0.970328	0.420255
	N249	N	0.665992	0.040435	0.592804
	N250	N	0.308044	0.969911	0.592718
	N251	N	0.307482	0.039722	0.419513
	N252	N	0.898198	0.470240	0.188138
	N253	N	0.072381	0.539869	0.186420
	N254	N	0.072526	0.469777	0.827676
	N255	N	0.898355	0.538044	0.827416
	N256	N	0.167944	0.916532	0.472746
	N257	N	0.168476	0.092709	0.540457
	N258	N	0.807415	0.091305	0.472163
	N259	N	0.806336	0.917525	0.541666
	N260	N	0.451645	0.184124	0.919704
	N261	N	0.521196	0.183287	0.091619
	N262	N	0.451761	0.824838	0.094465
	N263	N	0.520777	0.825800	0.921009
	N264	N	0.452477	0.916987	0.188211
	N265	N	0.520099	0.092963	0.187419
	N266	N	0.453525	0.093793	0.823800
	N267	N	0.521214	0.918489	0.827214
	N268	N	0.900717	0.184794	0.472320
	N269	N	0.074572	0.185179	0.541156
	N270	N	0.073272	0.824377	0.472491
	N271	N	0.898666	0.823372	0.541482
	N272	N	0.165274	0.469924	0.920494
	N273	N	0.165196	0.539217	0.093725
	N274	N	0.805777	0.469925	0.095134
	N275	N	0.807335	0.539262	0.922041
	O276	O	0.204260	0.973438	-0.210958
	H277	H	0.206660	0.983456	-0.209380
	H278	H	0.208964	0.979242	-0.221247
	O279	O	0.264677	0.724023	0.490088
	H280	H	0.252494	0.737912	0.466114
	H281	H	0.250803	0.717385	0.469849
	O282	O	0.766729	0.223238	0.981248
	H283	H	0.763094	0.228237	0.963563
	H284	H	0.748767	0.225856	0.970165
	O285	O	0.262172	0.569138	0.568680
	H286	H	0.251615	0.576817	0.569760
	H287	H	0.257614	0.546008	0.555978
	O288	O	0.026304	-0.145253	0.055110
	H289	H	0.045731	-0.151763	0.045018
	H290	H	0.025320	-0.148257	0.055997
	O291	O	0.668909	0.598372	0.454281
	H292	H	0.673459	0.585868	0.453795
	H293	H	0.665525	0.576651	0.463071
	O294	O	1.278742	0.526358	0.277449
	H295	H	1.257019	0.532625	0.253633
	H296	H	1.284050	0.538261	0.275323
	O297	O	0.517445	0.430636	0.446453
	H298	H	0.516518	0.435333	0.441232
	H299	H	0.510293	0.427326	0.445170
	O300	O	0.151954	0.221249	1.225976
	H301	H	0.153222	0.187266	1.231670
	H302	H	0.174579	0.242620	1.255618
	O303	O	0.694637	0.715770	0.717295
	H304	H	0.676935	0.707636	0.697943
	H305	H	0.670683	0.709817	0.696099
	O306	O	0.413517	0.720721	0.502486
	H307	H	0.405525	0.716427	0.507330
	H308	H	0.395966	0.708760	0.506651
	O309	O	0.448549	0.663334	0.680330
	H310	H	0.441534	0.652996	0.674210
	H311	H	0.446996	0.651225	0.677971
	O312	O	0.986386	1.220266	0.170038
	H313	H	0.998390	1.226203	0.156551
	H314	H	0.995009	1.233685	0.181410
	O315	O	0.797742	0.817921	0.817976
	H316	H	0.783646	0.790603	0.794691
	H317	H	0.797552	0.818598	0.828641
	O318	O	0.263966	0.476812	0.731500
	H319	H	0.246166	0.456007	0.742490
	H320	H	0.249717	0.453907	0.737386
	O321	O	0.047903	1.051785	0.789972
	H322	H	0.020184	1.040685	0.788440
	H323	H	0.046408	1.046138	0.791091
	O324	O	1.125019	1.049137	-0.067334
	H325	H	1.116807	1.040770	-0.057894
	H326	H	1.127457	1.059640	-0.075388
	O327	O	0.520901	-0.423929	0.292864
	H328	H	0.536361	-0.432813	0.286345
	H329	H	0.517427	-0.407167	0.300948
	O330	O	0.708497	0.280806	0.466474
	H331	H	0.726519	0.272603	0.458406
	H332	H	0.723495	0.273284	0.448023
	O333	O	0.424836	0.518749	0.683085
	H334	H	0.400199	0.502909	0.687926
	H335	H	0.433602	0.505638	0.689091
	O336	O	0.792731	0.193225	0.198521
	H337	H	0.796136	0.174194	0.172682
	H338	H	0.823616	0.178849	0.187280
	O339	O	0.960781	-0.072351	1.020767
	H340	H	0.963379	-0.069967	1.035571
	H341	H	0.976569	-0.056038	1.025561
	O342	O	0.169652	-0.174706	0.191763
	H343	H	0.158430	-0.165152	0.178850
	H344	H	0.155786	-0.160686	0.174895
	O345	O	0.210074	0.784200	0.978153
	H346	H	0.223414	0.762469	0.958151
	H347	H	0.213418	0.781758	0.943206
	O348	O	0.453833	0.287526	0.556063
	H349	H	0.451374	0.319230	0.546398
	H350	H	0.487786	0.282766	0.558489
	O351	O	0.303511	0.350957	0.336798
	H352	H	0.317133	0.376471	0.330782
	H353	H	0.308497	0.362413	0.367869
	O354	O	-0.195584	-0.028302	0.858204
	H355	H	-0.197302	-0.034326	0.886222
	H356	H	-0.207728	-0.039089	0.839818
	O357	O	0.275359	0.704652	0.299336
	H358	H	0.316114	0.709448	0.304344
	H359	H	0.254346	0.717032	0.275167
	O360	O	0.285071	0.287046	0.520970
	H361	H	0.269874	0.267022	0.538946
	H362	H	0.297938	0.282128	0.533309
	O363	O	0.022670	0.225507	-0.077715
	H364	H	0.024449	0.211322	-0.085593
	H365	H	0.006139	0.231441	-0.070607
	O366	O	0.538927	0.605338	0.719013
	H367	H	0.527658	0.602059	0.722044
	H368	H	0.519630	0.601155	0.718527
	O369	O	1.207734	0.164831	-0.008619
	H370	H	1.222289	0.187711	0.013461
	H371	H	1.189668	0.155358	-0.004618
	O372	O	1.023661	0.924378	-0.114369
	H373	H	1.022269	0.914875	-0.110927
	H374	H	1.024103	0.937273	-0.121202
	O375	O	0.969038	0.227180	-0.187000
	H376	H	0.968318	0.251864	-0.210908
	H377	H	0.962370	0.224352	-0.174134
	O378	O	0.676218	0.456768	0.486183
	H379	H	0.686423	0.442228	0.488995
	H380	H	0.661010	0.442203	0.484398
	O381	O	0.294457	0.697752	0.698920
	H382	H	0.305794	0.674233	0.677788
	H383	H	0.316126	0.679402	0.684566
	O384	O	1.180664	0.194421	0.814420
	H385	H	1.165914	0.183480	0.845137
	H386	H	1.159851	0.166732	0.820802
	O387	O	0.777331	0.798105	0.219560
	H388	H	0.781452	0.796032	0.224385
	H389	H	0.764139	0.774554	0.220073
	O390	O	-0.089836	0.057551	0.071225
	H391	H	-0.082132	0.057093	0.069161
	H392	H	-0.081743	0.054140	0.067884
	O393	O	0.596818	0.473232	0.733447
	H394	H	0.602188	0.463358	0.736046
	H395	H	0.601647	0.469810	0.742696
	O396	O	-0.048724	0.789072	1.222535
	H397	H	-0.047279	0.789008	1.227645
	H398	H	-0.054423	0.776022	1.234604
	O399	O	0.043760	-0.078897	1.199282
	H400	H	0.026751	-0.064938	1.201318
	H401	H	0.036504	-0.091554	1.207128
	O402	O	0.463815	0.718233	0.289959
	H403	H	0.468036	0.730710	0.288657
	H404	H	0.469011	0.725807	0.297142
	O405	O	0.867893	0.020295	0.989929
	H406	H	0.864674	0.021807	0.982212
	H407	H	0.861043	0.011007	0.984336
	O408	O	0.015267	-0.203572	-0.211967
	H409	H	0.034674	-0.218305	-0.225808
	H410	H	0.017347	-0.214268	-0.194089
	O411	O	0.669610	0.339188	0.690620
	H412	H	0.671321	0.332359	0.681387
	H413	H	0.660070	0.367777	0.697809
	O414	O	1.157393	0.188257	1.098878
	H415	H	1.161206	0.180605	1.089746
	H416	H	1.153443	0.197398	1.119973
	O417	O	0.400393	0.557648	0.416846
	H418	H	0.396577	0.549525	0.414271
	H419	H	0.401566	0.545000	0.415360
	O420	O	-0.234748	-0.026257	0.227515
	H421	H	-0.249927	-0.038338	0.238960
	H422	H	-0.243922	-0.048416	0.235200
	O423	O	-0.055627	0.207323	1.006824
	H424	H	-0.076640	0.219511	0.999709
	H425	H	-0.056146	0.195036	1.000132
	O426	O	0.558053	0.672020	0.474327
	H427	H	0.546123	0.669993	0.488175
	H428	H	0.578314	0.676874	0.477512
	O429	O	1.208404	1.037369	1.229302
	H430	H	1.224527	1.027733	1.237748
	H431	H	1.207335	1.039236	1.232998
	O432	O	0.440393	0.460368	0.271330
	H433	H	0.432016	0.457584	0.269026
	H434	H	0.457513	0.459102	0.266702
	O435	O	0.541817	0.585669	0.617643
	H436	H	0.542413	0.583066	0.625408
	H437	H	0.539355	0.595198	0.623853
	O438	O	-0.038885	-0.198870	-0.061087
	H439	H	-0.054413	-0.203271	-0.059986
	H440	H	-0.027568	-0.193476	-0.061020
	O441	O	0.696115	0.296590	0.297580
	H442	H	0.723120	0.263163	0.264396
	H443	H	0.658584	0.294632	0.302476
	O444	O	0.526673	0.292735	0.285538
	H445	H	0.514945	0.289156	0.294741
	H446	H	0.516976	0.274611	0.280866
	O447	O	-0.244953	0.983405	0.987106
	H448	H	-0.244004	0.959564	0.993478
	H449	H	-0.242794	0.981003	0.994928
	O450	O	-0.231610	0.788784	1.042521
	H451	H	-0.242867	0.771932	1.051495
	H452	H	-0.230182	0.789075	1.047532
	O453	O	0.486877	0.481134	0.577250
	H454	H	0.478298	0.493307	0.568879
	H455	H	0.483459	0.487810	0.591458
	O456	O	0.197938	-0.202285	0.799530
	H457	H	0.187099	-0.163777	0.789215
	H458	H	0.228815	-0.232594	0.764299
	O459	O	0.807787	1.060309	0.118922
	H460	H	0.807276	1.056978	0.117911
	H461	H	0.799051	1.047054	0.116810
	O462	O	0.703503	0.721848	0.545023
	H463	H	0.711130	0.696161	0.529539
	H464	H	0.724340	0.737739	0.549534
	O465	O	1.274112	0.302227	-0.280564
	H466	H	1.244525	0.266247	-0.249006
	H467	H	1.305881	0.296349	-0.292574
	O468	O	0.453117	0.287765	0.732566
	H469	H	0.461484	0.271340	0.719937
	H470	H	0.450985	0.259876	0.742434
	O471	O	0.616493	0.341378	0.559930
	H472	H	0.613101	0.363143	0.558261
	H473	H	0.637619	0.342686	0.552976
	O474	O	0.703859	0.477965	0.323558
	H475	H	0.708904	0.443619	0.322679
	H476	H	0.720423	0.467824	0.310337
	O477	O	0.253742	0.453183	1.467828
	H478	H	0.253226	0.444171	1.464934
	H479	H	0.250798	0.441667	1.467645
	O480	O	0.675885	0.690319	0.315928
	H481	H	0.667797	0.664740	0.321805
	H482	H	0.650197	0.682689	0.333319
	O483	O	0.444537	0.319946	0.424422
	H484	H	0.435142	0.326230	0.439683
	H485	H	0.436766	0.319419	0.433083
	O486	O	1.212946	-0.043908	1.061753
	H487	H	1.214897	-0.061617	1.050819
	H488	H	1.209501	-0.050048	1.068128
	O489	O	0.892699	0.978051	-0.224981
	H490	H	0.897361	0.957094	-0.221492
	H491	H	0.872700	0.956754	-0.235401
	O492	O	-0.220633	0.210714	-0.196956
	H493	H	-0.208689	0.181756	-0.197577
	H494	H	-0.223400	0.209666	-0.207285
	O495	O	0.018124	1.021897	1.164740
	H496	H	0.025663	1.029734	1.157939
	H497	H	-0.004327	1.023745	1.173141
	O498	O	1.010537	0.993963	1.090431
	H499	H	1.007280	0.997158	1.087293
	H500	H	1.024109	0.981224	1.095907
	O501	O	0.658097	0.583614	0.660474
	H502	H	0.665708	0.599336	0.677034
	H503	H	0.655981	0.601216	0.666540
