data_Molecule from HDF5

_cell_length_a		16.288299
_cell_length_b		16.393349
_cell_length_c		16.173243
_cell_angle_alpha	90.217142
_cell_angle_beta	89.944417
_cell_angle_gamma	90.200524
_symmetry_space_group_name_H-M	'P 1'
_symmetry_Int_Tables_number		1

loop_
	_symmetry_equiv_pos_as_xyz
	x,y,z

loop_
	_atom_site_label
	_atom_site_type_symbol
	_atom_site_fract_x
	_atom_site_fract_y
	_atom_site_fract_z
	H0	H	0.400290	0.838685	0.719393
	H1	H	0.599516	0.163587	0.718716
	H2	H	0.599652	0.839573	0.286306
	H3	H	0.400272	0.163232	0.289151
	H4	H	0.717466	0.404566	0.839824
	H5	H	0.720415	0.605892	0.167860
	H6	H	0.289771	0.602616	0.839331
	H7	H	0.287377	0.404847	0.167389
	H8	H	0.838230	0.713449	0.403152
	H9	H	0.162089	0.721564	0.609064
	H10	H	0.839298	0.281725	0.607340
	H11	H	0.163190	0.282400	0.401634
	H12	H	0.838482	0.402029	0.719290
	H13	H	0.165430	0.600186	0.717252
	H14	H	0.839265	0.597015	0.289624
	H15	H	0.165942	0.401196	0.290374
	H16	H	0.405430	0.716568	0.839876
	H17	H	0.606775	0.722076	0.167291
	H18	H	0.605887	0.284740	0.841296
	H19	H	0.400444	0.286799	0.167360
	H20	H	0.716572	0.838748	0.402180
	H21	H	0.719914	0.161650	0.608613
	H22	H	0.283865	0.837919	0.603691
	H23	H	0.283559	0.162222	0.404324
	H24	H	0.903247	0.338862	0.216505
	H25	H	0.102493	0.663971	0.221409
	H26	H	0.102276	0.339903	0.788185
	H27	H	0.906479	0.665271	0.790281
	H28	H	0.214299	0.900210	0.339237
	H29	H	0.214916	0.099729	0.668147
	H30	H	0.786818	0.096736	0.339389
	H31	H	0.786235	0.902178	0.668828
	H32	H	0.339690	0.219536	0.902789
	H33	H	0.665392	0.219997	0.106686
	H34	H	0.340771	0.784010	0.106271
	H35	H	0.665766	0.788828	0.902584
	H36	H	0.337444	0.905295	0.215460
	H37	H	0.664477	0.102825	0.222047
	H38	H	0.337883	0.100239	0.789936
	H39	H	0.665212	0.905891	0.788979
	H40	H	0.898826	0.215685	0.340151
	H41	H	0.101074	0.217501	0.666862
	H42	H	0.098337	0.784216	0.340211
	H43	H	0.899427	0.784019	0.667868
	H44	H	0.221868	0.341472	0.901211
	H45	H	0.219120	0.665241	0.103674
	H46	H	0.783343	0.342277	0.105125
	H47	H	0.788796	0.665428	0.905590
	H48	H	0.407701	0.116133	0.597404
	H49	H	0.597600	0.883969	0.594328
	H50	H	0.590590	0.113857	0.415304
	H51	H	0.406255	0.886201	0.412545
	H52	H	0.594294	0.412875	0.120343
	H53	H	0.595356	0.593655	0.887956
	H54	H	0.405397	0.596106	0.122480
	H55	H	0.410763	0.412507	0.887153
	H56	H	0.119790	0.594425	0.410143
	H57	H	0.884429	0.599289	0.590679
	H58	H	0.116019	0.407111	0.590037
	H59	H	0.883989	0.404254	0.407888
	H60	H	0.116197	0.411624	0.594848
	H61	H	0.889741	0.583983	0.593036
	H62	H	0.117752	0.596705	0.417318
	H63	H	0.886276	0.405629	0.415474
	H64	H	0.414357	0.589041	0.117801
	H65	H	0.593616	0.596825	0.887455
	H66	H	0.593118	0.413079	0.119674
	H67	H	0.415955	0.410978	0.888074
	H68	H	0.595058	0.115515	0.417367
	H69	H	0.590171	0.884804	0.600200
	H70	H	0.407202	0.115796	0.595914
	H71	H	0.405017	0.885095	0.408620
	H72	H	0.907817	0.618819	0.096001
	H73	H	0.089085	0.389715	0.093808
	H74	H	0.089183	0.612533	0.920553
	H75	H	0.911401	0.389102	0.917162
	H76	H	0.097421	0.907273	0.622732
	H77	H	0.089575	0.087385	0.388071
	H78	H	0.911618	0.091987	0.620072
	H79	H	0.907630	0.907664	0.387177
	H80	H	0.618544	0.093731	0.907840
	H81	H	0.384851	0.095997	0.099180
	H82	H	0.612321	0.920613	0.087362
	H83	H	0.389005	0.914425	0.916431
	H84	H	0.620191	0.915695	0.107161
	H85	H	0.386307	0.099046	0.093406
	H86	H	0.618333	0.099011	0.913847
	H87	H	0.383293	0.907801	0.904214
	H88	H	0.910045	0.093551	0.620968
	H89	H	0.089687	0.096468	0.386541
	H90	H	0.090821	0.914216	0.619213
	H91	H	0.909341	0.904389	0.387004
	H92	H	0.110513	0.621114	0.912709
	H93	H	0.100589	0.388207	0.088382
	H94	H	0.913901	0.618098	0.101264
	H95	H	0.903298	0.386017	0.911577
	H96	H	0.406495	0.115848	0.596303
	H97	H	0.589850	0.888040	0.591262
	H98	H	0.593775	0.116237	0.412004
	H99	H	0.409157	0.886091	0.409147
	H100	H	0.592723	0.411976	0.120480
	H101	H	0.596677	0.596156	0.887507
	H102	H	0.416538	0.600573	0.120445
	H103	H	0.412222	0.407383	0.886243
	H104	H	0.116618	0.590198	0.414892
	H105	H	0.882302	0.592648	0.604842
	H106	H	0.118045	0.405117	0.595474
	H107	H	0.886364	0.411381	0.409646
	H108	H	0.914561	0.615999	0.094104
	H109	H	0.099022	0.384935	0.101441
	H110	H	0.091861	0.619247	0.897775
	H111	H	0.912665	0.386745	0.906798
	H112	H	0.087342	0.904808	0.620639
	H113	H	0.097199	0.091381	0.385280
	H114	H	0.909120	0.090867	0.620461
	H115	H	0.905823	0.904594	0.385053
	H116	H	0.615352	0.091669	0.915255
	H117	H	0.388411	0.092447	0.093573
	H118	H	0.620889	0.900648	0.091038
	H119	H	0.384731	0.900446	0.917122
	C120	C	0.377932	0.008659	0.625878
	C121	C	0.622392	0.992704	0.625456
	C122	C	0.622171	0.008843	0.383208
	C123	C	0.377964	0.992561	0.381601
	C124	C	0.623648	0.382595	0.012462
	C125	C	0.625366	0.625622	0.995828
	C126	C	0.382849	0.624254	0.012068
	C127	C	0.382349	0.381509	0.995481
	C128	C	0.010117	0.621170	0.383924
	C129	C	0.993014	0.622539	0.625633
	C130	C	0.009814	0.378533	0.624784
	C131	C	0.992980	0.377922	0.381750
	C132	C	0.881685	0.510766	0.125659
	C133	C	0.125623	0.494248	0.125502
	C134	C	0.126263	0.510926	0.880622
	C135	C	0.881236	0.494332	0.882535
	C136	C	0.120784	0.878997	0.512387
	C137	C	0.121524	0.121064	0.495274
	C138	C	0.879839	0.121453	0.512404
	C139	C	0.878661	0.877568	0.495251
	C140	C	0.510059	0.123795	0.882798
	C141	C	0.493834	0.125406	0.126612
	C142	C	0.510424	0.881997	0.124865
	C143	C	0.493737	0.880153	0.882356
	C144	C	0.380182	0.887018	0.681601
	C145	C	0.620488	0.114529	0.681568
	C146	C	0.619832	0.887507	0.325554
	C147	C	0.380211	0.114635	0.326885
	C148	C	0.679839	0.384061	0.889084
	C149	C	0.681980	0.625172	0.118752
	C150	C	0.327542	0.622234	0.888689
	C151	C	0.325582	0.383906	0.118541
	C152	C	0.887365	0.675870	0.384113
	C153	C	0.114456	0.680987	0.626332
	C154	C	0.887469	0.321486	0.625575
	C155	C	0.115040	0.321209	0.382405
	C156	C	0.887333	0.381000	0.681552
	C157	C	0.116216	0.620649	0.680308
	C158	C	0.887692	0.617671	0.327622
	C159	C	0.116281	0.380134	0.326692
	C160	C	0.384896	0.679302	0.888826
	C161	C	0.625364	0.683008	0.118460
	C162	C	0.624493	0.324270	0.889888
	C163	C	0.381887	0.325334	0.118322
	C164	C	0.678499	0.887410	0.382697
	C165	C	0.680246	0.113706	0.626230
	C166	C	0.322292	0.886607	0.623831
	C167	C	0.321921	0.114127	0.383911
	C168	C	0.883423	0.387879	0.179100
	C169	C	0.123378	0.615752	0.182866
	C170	C	0.123262	0.388636	0.825682
	C171	C	0.885022	0.616598	0.827616
	C172	C	0.176546	0.880121	0.388566
	C173	C	0.177156	0.119971	0.618877
	C174	C	0.823866	0.118392	0.388702
	C175	C	0.823208	0.880629	0.619327
	C176	C	0.388081	0.180632	0.883549
	C177	C	0.616438	0.181704	0.126353
	C178	C	0.388538	0.824084	0.124546
	C179	C	0.616804	0.826270	0.883155
	C180	C	0.386931	0.884230	0.178989
	C181	C	0.615921	0.123593	0.183696
	C182	C	0.387080	0.121289	0.827548
	C183	C	0.616424	0.884362	0.826459
	C184	C	0.879641	0.177375	0.389079
	C185	C	0.120751	0.178636	0.618168
	C186	C	0.118787	0.822728	0.388851
	C187	C	0.879486	0.822101	0.618871
	C188	C	0.183050	0.389434	0.881532
	C189	C	0.181324	0.616480	0.124482
	C190	C	0.823246	0.389665	0.124339
	C191	C	0.826371	0.616742	0.884619
	C192	C	0.400426	0.093857	0.603298
	C193	C	0.599294	0.907582	0.602097
	C194	C	0.599713	0.093191	0.407747
	C195	C	0.400261	0.907654	0.403654
	C196	C	0.600154	0.405900	0.097973
	C197	C	0.602338	0.602274	0.909916
	C198	C	0.405379	0.601751	0.098153
	C199	C	0.406185	0.403790	0.909439
	C200	C	0.095950	0.600061	0.407373
	C201	C	0.907637	0.598835	0.602805
	C202	C	0.094669	0.401298	0.600575
	C203	C	0.907798	0.400397	0.404382
	C204	C	0.905055	0.595575	0.103633
	C205	C	0.102827	0.409521	0.101571
	C206	C	0.103887	0.595697	0.903560
	C207	C	0.902855	0.409198	0.905051
	C208	C	0.098454	0.902041	0.598473
	C209	C	0.098761	0.098270	0.409151
	C210	C	0.903362	0.098938	0.598242
	C211	C	0.901076	0.899181	0.408949
	C212	C	0.595328	0.101341	0.905526
	C213	C	0.408687	0.102563	0.102692
	C214	C	0.595679	0.905500	0.101833
	C215	C	0.407970	0.901346	0.905589
	Zn216	Zn	0.500753	0.001415	0.754202
	Zn217	Zn	0.500978	0.002018	0.253673
	Zn218	Zn	0.752520	0.503867	0.004544
	Zn219	Zn	0.255017	0.503249	0.002819
	Zn220	Zn	0.000273	0.750243	0.504431
	Zn221	Zn	0.000483	0.250000	0.502901
	Zn222	Zn	0.002519	0.501433	0.752603
	Zn223	Zn	0.003233	0.500461	0.254879
	Zn224	Zn	0.503452	0.752697	0.004216
	Zn225	Zn	0.502810	0.253129	0.004152
	Zn226	Zn	0.751820	0.000416	0.504417
	Zn227	Zn	0.249402	-0.000215	0.503810
	N228	N	0.414064	0.964092	0.682971
	N229	N	0.584866	0.038280	0.680800
	N230	N	0.585377	0.963915	0.325850
	N231	N	0.414579	0.038176	0.325479
	N232	N	0.679686	0.419657	0.966268
	N233	N	0.681973	0.590092	0.041435
	N234	N	0.326133	0.588651	0.966445
	N235	N	0.325828	0.417996	0.041064
	N236	N	0.964516	0.677945	0.418611
	N237	N	0.036713	0.682332	0.593181
	N238	N	0.964505	0.319722	0.591085
	N239	N	0.037447	0.319663	0.415897
	N240	N	0.964343	0.415732	0.681313
	N241	N	0.039739	0.584903	0.679871
	N242	N	0.965013	0.584069	0.327586
	N243	N	0.039524	0.414775	0.326089
	N244	N	0.418760	0.680592	0.966710
	N245	N	0.590594	0.683354	0.040906
	N246	N	0.590229	0.323320	0.967581
	N247	N	0.416274	0.323457	0.040496
	N248	N	0.680095	0.963821	0.417813
	N249	N	0.681441	0.036778	0.591939
	N250	N	0.320763	0.963315	0.589892
	N251	N	0.320315	0.037190	0.417025
	N252	N	0.919048	0.464059	0.180190
	N253	N	0.089436	0.538842	0.183439
	N254	N	0.088917	0.465012	0.824656
	N255	N	0.918403	0.539619	0.826170
	N256	N	0.177950	0.914302	0.466449
	N257	N	0.177838	0.085097	0.541425
	N258	N	0.823807	0.084490	0.466399
	N259	N	0.822234	0.914323	0.541553
	N260	N	0.465498	0.182165	0.917324
	N261	N	0.539459	0.182857	0.091551
	N262	N	0.466502	0.822509	0.091619
	N263	N	0.539481	0.823526	0.916998
	N264	N	0.463567	0.919691	0.179202
	N265	N	0.538657	0.089368	0.183891
	N266	N	0.463893	0.086528	0.826907
	N267	N	0.538740	0.917143	0.825839
	N268	N	0.913536	0.179523	0.467107
	N269	N	0.086896	0.179626	0.540273
	N270	N	0.085278	0.821660	0.466841
	N271	N	0.912950	0.820039	0.540769
	N272	N	0.184943	0.466580	0.915237
	N273	N	0.182985	0.539870	0.089506
	N274	N	0.821946	0.467028	0.091871
	N275	N	0.823717	0.539694	0.917981
	O276	O	0.029614	-0.001477	-0.093783
	H277	H	0.022008	-0.010332	-0.092055
	H278	H	0.025866	0.007155	-0.099085
	O279	O	0.518170	0.644290	0.453203
	H280	H	0.518356	0.630199	0.448867
	H281	H	0.521012	0.649091	0.457852
	O282	O	0.349219	0.360373	0.660103
	H283	H	0.339693	0.358740	0.664416
	H284	H	0.352146	0.353553	0.643352
	O285	O	-0.000374	0.018012	1.006957
	H286	H	0.003532	0.020911	1.015083
	H287	H	-0.006662	0.030336	1.005698
	O288	O	1.016150	0.051961	0.001323
	H289	H	1.029671	0.048454	-0.005245
	H290	H	1.010729	0.057357	0.016280
	O291	O	1.039440	1.061063	1.034535
	H292	H	1.036595	1.076550	1.030700
	H293	H	1.050795	1.060080	1.021195
	O294	O	0.549045	1.576395	0.414475
	H295	H	0.541565	1.582133	0.421462
	H296	H	0.548276	1.584391	0.428080
	O297	O	1.395632	-0.562652	0.583352
	H298	H	1.391659	-0.570461	0.582483
	H299	H	1.394608	-0.565245	0.586535
	O300	O	0.507540	0.429389	0.583224
	H301	H	0.499983	0.422863	0.578581
	H302	H	0.506417	0.426605	0.569790
	O303	O	1.581141	0.375995	-0.551123
	H304	H	1.598071	0.361846	-0.546862
	H305	H	1.586354	0.380972	-0.553099
	O306	O	0.116701	0.996102	1.002327
	H307	H	0.118429	0.991414	1.008297
	H308	H	0.123118	0.994442	1.003723
	O309	O	0.585248	0.372734	0.429070
	H310	H	0.587085	0.385745	0.441728
	H311	H	0.595828	0.377797	0.445048
	O312	O	0.609989	-0.472124	1.607104
	H313	H	0.612253	-0.483854	1.625446
	H314	H	0.605413	-0.463232	1.606643
	O315	O	0.581388	0.449248	0.595494
	H316	H	0.568833	0.439773	0.605732
	H317	H	0.592340	0.452512	0.605543
	O318	O	0.018670	1.062826	0.973158
	H319	H	0.014601	1.065511	0.965764
	H320	H	0.019028	1.062536	0.974204
	O321	O	0.942048	1.067558	0.983794
	H322	H	0.943239	1.070066	0.991156
	H323	H	0.953582	1.078908	0.981634
	O324	O	0.485177	0.632639	0.479041
	H325	H	0.483376	0.634540	0.480426
	H326	H	0.480711	0.629268	0.478275
	O327	O	0.475714	0.377009	0.413361
	H328	H	0.494866	0.363165	0.416682
	H329	H	0.483210	0.376377	0.410256
	O330	O	1.068975	0.091948	0.963907
	H331	H	1.064215	0.088162	0.965218
	H332	H	1.065265	0.089550	0.961934
	O333	O	0.948513	0.954467	0.002369
	H334	H	0.945580	0.961988	0.009352
	H335	H	0.961239	0.941724	-0.001824
	O336	O	0.531724	0.598267	0.632149
	H337	H	0.521551	0.590936	0.634826
	H338	H	0.528894	0.591393	0.638338
	O339	O	0.625174	0.504987	0.361018
	H340	H	0.628045	0.522396	0.362587
	H341	H	0.625400	0.515651	0.365375
	O342	O	-0.001149	1.014245	-0.057531
	H343	H	0.000932	1.007844	-0.055975
	H344	H	0.000020	1.005800	-0.045639
	O345	O	-0.031568	0.053538	-0.049296
	H346	H	-0.032362	0.063590	-0.047949
	H347	H	-0.033417	0.056738	-0.030345
	O348	O	0.476738	0.509701	0.462257
	H349	H	0.482024	0.511743	0.464808
	H350	H	0.474482	0.501428	0.441402
	O351	O	0.466186	0.581681	0.401755
	H352	H	0.466816	0.582746	0.400029
	H353	H	0.470059	0.577407	0.406110
	O354	O	0.528848	0.563669	0.427865
	H355	H	0.528808	0.559669	0.429327
	H356	H	0.518814	0.565883	0.426251
	O357	O	0.400314	0.449460	0.551577
	H358	H	0.386674	0.462439	0.552854
	H359	H	0.400125	0.450865	0.541468
	O360	O	-0.595861	-0.576771	-0.570248
	H361	H	-0.594341	-0.577308	-0.575201
	H362	H	-0.583091	-0.573754	-0.575601
	O363	O	0.444372	1.436655	0.485791
	H364	H	0.450519	1.427796	0.489984
	H365	H	0.449839	1.435476	0.477237
	O366	O	-0.428410	0.483613	1.520225
	H367	H	-0.436702	0.497099	1.520447
	H368	H	-0.425588	0.488043	1.525051
	O369	O	0.453349	0.488822	0.565713
	H370	H	0.450749	0.482243	0.567811
	H371	H	0.460294	0.490604	0.559364
