data_Molecule from HDF5

_cell_length_a		16.338080
_cell_length_b		16.267279
_cell_length_c		16.137306
_cell_angle_alpha	90.789373
_cell_angle_beta	89.930103
_cell_angle_gamma	89.976840
_symmetry_space_group_name_H-M	'P 1'
_symmetry_Int_Tables_number		1

loop_
	_symmetry_equiv_pos_as_xyz
	x,y,z

loop_
	_atom_site_label
	_atom_site_type_symbol
	_atom_site_fract_x
	_atom_site_fract_y
	_atom_site_fract_z
	H0	H	0.410111	0.839071	0.705064
	H1	H	0.603663	0.168176	0.711442
	H2	H	0.605130	0.841153	0.277768
	H3	H	0.409619	0.169368	0.284662
	H4	H	0.721681	0.401420	0.830687
	H5	H	0.721214	0.606130	0.159976
	H6	H	0.292920	0.600096	0.830897
	H7	H	0.290403	0.404774	0.159449
	H8	H	0.842802	0.717694	0.397044
	H9	H	0.169708	0.720779	0.595824
	H10	H	0.843171	0.290895	0.592285
	H11	H	0.169058	0.285822	0.392651
	H12	H	0.842112	0.409489	0.707485
	H13	H	0.169846	0.604555	0.711613
	H14	H	0.842183	0.598306	0.283206
	H15	H	0.169624	0.403419	0.278969
	H16	H	0.409279	0.713447	0.829389
	H17	H	0.605259	0.720125	0.159718
	H18	H	0.606130	0.286636	0.830826
	H19	H	0.408446	0.292811	0.161170
	H20	H	0.722241	0.840726	0.391419
	H21	H	0.721725	0.167424	0.597641
	H22	H	0.290409	0.841484	0.594200
	H23	H	0.289631	0.167065	0.395378
	H24	H	0.909193	0.338533	0.204816
	H25	H	0.103485	0.666958	0.212049
	H26	H	0.103272	0.340590	0.778308
	H27	H	0.908941	0.669547	0.786276
	H28	H	0.221906	0.903066	0.330399
	H29	H	0.222358	0.108353	0.659323
	H30	H	0.793264	0.100045	0.330119
	H31	H	0.791471	0.906043	0.659452
	H32	H	0.344124	0.217690	0.897202
	H33	H	0.670053	0.221059	0.096217
	H34	H	0.343919	0.789378	0.092797
	H35	H	0.670476	0.785645	0.892991
	H36	H	0.343000	0.907591	0.207965
	H37	H	0.670250	0.104305	0.210378
	H38	H	0.343643	0.100057	0.782855
	H39	H	0.671088	0.904304	0.779088
	H40	H	0.910214	0.213044	0.329038
	H41	H	0.105861	0.221671	0.659309
	H42	H	0.105762	0.787320	0.330576
	H43	H	0.908261	0.793851	0.661055
	H44	H	0.221654	0.340198	0.892088
	H45	H	0.222686	0.666956	0.098468
	H46	H	0.790529	0.340923	0.093193
	H47	H	0.790499	0.666584	0.897685
	H48	H	0.412922	0.121949	0.592037
	H49	H	0.604427	0.887104	0.582363
	H50	H	0.604666	0.122575	0.407941
	H51	H	0.413520	0.887300	0.397171
	H52	H	0.601442	0.413174	0.113892
	H53	H	0.599729	0.594900	0.876554
	H54	H	0.413224	0.593848	0.111814
	H55	H	0.413913	0.416688	0.879866
	H56	H	0.123677	0.597099	0.401311
	H57	H	0.887608	0.598953	0.599916
	H58	H	0.121776	0.413784	0.586623
	H59	H	0.888937	0.416828	0.388757
	H60	H	0.123223	0.412612	0.587088
	H61	H	0.888413	0.609019	0.586860
	H62	H	0.121232	0.599014	0.407201
	H63	H	0.885202	0.393444	0.399154
	H64	H	0.417966	0.599021	0.111776
	H65	H	0.602130	0.593266	0.877151
	H66	H	0.599219	0.414655	0.112297
	H67	H	0.422105	0.406471	0.879738
	H68	H	0.600943	0.122123	0.400694
	H69	H	0.601503	0.885117	0.588600
	H70	H	0.415243	0.120362	0.590424
	H71	H	0.417606	0.889249	0.402093
	H72	H	0.908312	0.621734	0.089210
	H73	H	0.095656	0.389109	0.081328
	H74	H	0.106866	0.624409	0.899897
	H75	H	0.911426	0.387166	0.901146
	H76	H	0.096032	0.924762	0.608193
	H77	H	0.105636	0.101470	0.373999
	H78	H	0.910370	0.101001	0.614943
	H79	H	0.923111	0.911750	0.380358
	H80	H	0.623347	0.099013	0.906321
	H81	H	0.392513	0.105569	0.078983
	H82	H	0.618409	0.915592	0.077231
	H83	H	0.388971	0.903133	0.896216
	H84	H	0.623208	0.917160	0.094791
	H85	H	0.393210	0.087603	0.090477
	H86	H	0.622292	0.092553	0.904954
	H87	H	0.392481	0.906484	0.907514
	H88	H	0.912692	0.095368	0.613009
	H89	H	0.104534	0.084329	0.379125
	H90	H	0.091121	0.905337	0.613276
	H91	H	0.912922	0.901312	0.374780
	H92	H	0.094280	0.619420	0.903794
	H93	H	0.107170	0.384835	0.082359
	H94	H	0.916348	0.620998	0.095235
	H95	H	0.913457	0.386855	0.897816
	H96	H	0.413186	0.120882	0.589397
	H97	H	0.597664	0.888599	0.583543
	H98	H	0.598483	0.119488	0.407150
	H99	H	0.411223	0.888075	0.403943
	H100	H	0.598647	0.412231	0.112934
	H101	H	0.598566	0.592415	0.878178
	H102	H	0.412058	0.600213	0.115258
	H103	H	0.409557	0.405267	0.875392
	H104	H	0.120436	0.591685	0.405355
	H105	H	0.893550	0.593124	0.585919
	H106	H	0.122073	0.412273	0.585051
	H107	H	0.895046	0.413240	0.413768
	H108	H	0.916894	0.618442	0.084612
	H109	H	0.100131	0.384990	0.092125
	H110	H	0.103986	0.619984	0.912450
	H111	H	0.915368	0.386930	0.901583
	H112	H	0.110157	0.912593	0.616224
	H113	H	0.090251	0.094508	0.380809
	H114	H	0.916758	0.100406	0.613031
	H115	H	0.907705	0.916441	0.377307
	H116	H	0.624664	0.096795	0.900027
	H117	H	0.385438	0.105538	0.100016
	H118	H	0.625499	0.901607	0.085498
	H119	H	0.392624	0.913810	0.898313
	C120	C	0.385183	0.012774	0.617346
	C121	C	0.629133	0.995214	0.616123
	C122	C	0.629304	0.012941	0.373955
	C123	C	0.385678	0.996618	0.373920
	C124	C	0.628843	0.382551	0.004026
	C125	C	0.628938	0.624707	0.986361
	C126	C	0.386107	0.624358	0.003664
	C127	C	0.386084	0.381966	0.987105
	C128	C	0.014234	0.624178	0.375042
	C129	C	0.998008	0.628454	0.619269
	C130	C	0.014575	0.384210	0.615229
	C131	C	0.997763	0.379743	0.371645
	C132	C	0.885338	0.512113	0.116529
	C133	C	0.129202	0.494629	0.116696
	C134	C	0.129190	0.512693	0.874164
	C135	C	0.884629	0.495344	0.873623
	C136	C	0.128239	0.883321	0.503792
	C137	C	0.128787	0.125303	0.486270
	C138	C	0.885561	0.125050	0.503712
	C139	C	0.886039	0.883113	0.486809
	C140	C	0.515499	0.124174	0.875133
	C141	C	0.498284	0.127772	0.118648
	C142	C	0.514959	0.883114	0.115416
	C143	C	0.499272	0.878970	0.871133
	C144	C	0.388540	0.888521	0.669444
	C145	C	0.625240	0.118783	0.673608
	C146	C	0.626258	0.889957	0.316158
	C147	C	0.388658	0.120122	0.321099
	C148	C	0.683933	0.382361	0.880154
	C149	C	0.683672	0.625008	0.110459
	C150	C	0.330696	0.621041	0.879810
	C151	C	0.329228	0.384760	0.110609
	C152	C	0.891546	0.679373	0.376914
	C153	C	0.120702	0.683447	0.616705
	C154	C	0.891998	0.328695	0.613164
	C155	C	0.120538	0.324435	0.373122
	C156	C	0.891339	0.387835	0.670135
	C157	C	0.121080	0.625424	0.674043
	C158	C	0.891191	0.620081	0.320287
	C159	C	0.120851	0.382686	0.316544
	C160	C	0.388998	0.676904	0.878984
	C161	C	0.625985	0.681580	0.110627
	C162	C	0.626494	0.325142	0.880101
	C163	C	0.387500	0.328614	0.111376
	C164	C	0.684489	0.889992	0.372930
	C165	C	0.684039	0.118485	0.616889
	C166	C	0.328977	0.889981	0.614116
	C167	C	0.328905	0.118739	0.376102
	C168	C	0.888259	0.388022	0.168731
	C169	C	0.125621	0.617963	0.174149
	C170	C	0.125031	0.389376	0.816888
	C171	C	0.888139	0.619737	0.821968
	C172	C	0.184267	0.882891	0.379924
	C173	C	0.184115	0.126766	0.610253
	C174	C	0.831040	0.120669	0.379369
	C175	C	0.829983	0.886208	0.610568
	C176	C	0.392862	0.179536	0.877028
	C177	C	0.621348	0.182966	0.116558
	C178	C	0.392303	0.827796	0.113382
	C179	C	0.621744	0.823741	0.873052
	C180	C	0.391875	0.886681	0.170410
	C181	C	0.621346	0.124895	0.173277
	C182	C	0.392602	0.120886	0.820393
	C183	C	0.622146	0.882383	0.816167
	C184	C	0.889308	0.176908	0.378774
	C185	C	0.126339	0.183142	0.610185
	C186	C	0.126205	0.825820	0.379922
	C187	C	0.888055	0.830354	0.611379
	C188	C	0.183735	0.389232	0.873538
	C189	C	0.184585	0.617919	0.117538
	C190	C	0.829357	0.389236	0.113049
	C191	C	0.828897	0.618319	0.877060
	C192	C	0.407271	0.098872	0.596769
	C193	C	0.607506	0.909233	0.591918
	C194	C	0.607625	0.098989	0.398128
	C195	C	0.407775	0.910557	0.395014
	C196	C	0.606337	0.406515	0.090473
	C197	C	0.606711	0.600575	0.899708
	C198	C	0.407984	0.603735	0.090343
	C199	C	0.408725	0.403091	0.900676
	C200	C	0.099560	0.602229	0.397801
	C201	C	0.911990	0.606691	0.597476
	C202	C	0.100205	0.406287	0.592955
	C203	C	0.912062	0.401444	0.394054
	C204	C	0.907412	0.598047	0.095767
	C205	C	0.107526	0.408665	0.092370
	C206	C	0.108028	0.598898	0.898447
	C207	C	0.906825	0.409190	0.894113
	C208	C	0.105886	0.907333	0.590291
	C209	C	0.106582	0.100802	0.400090
	C210	C	0.907087	0.105079	0.590998
	C211	C	0.908152	0.903708	0.399959
	C212	C	0.601170	0.102484	0.897348
	C213	C	0.412570	0.106118	0.096601
	C214	C	0.600406	0.905188	0.092712
	C215	C	0.413500	0.901138	0.893918
	Zn216	Zn	0.507419	0.002755	0.744916
	Zn217	Zn	0.507072	0.005163	0.245573
	Zn218	Zn	0.756908	0.504096	-0.004705
	Zn219	Zn	0.258274	0.503583	-0.004853
	Zn220	Zn	0.006106	0.755497	0.496137
	Zn221	Zn	0.007077	0.252923	0.494243
	Zn222	Zn	0.006648	0.505381	0.746099
	Zn223	Zn	0.006303	0.502135	0.244633
	Zn224	Zn	0.507360	0.752002	-0.005896
	Zn225	Zn	0.507111	0.254484	-0.003951
	Zn226	Zn	0.758008	0.003859	0.495381
	Zn227	Zn	0.256807	0.004614	0.495530
	N228	N	0.422789	0.965767	0.671680
	N229	N	0.591782	0.041035	0.673177
	N230	N	0.592458	0.967455	0.316803
	N231	N	0.423332	0.042954	0.319360
	N232	N	0.685358	0.417358	0.958189
	N233	N	0.685476	0.590486	0.032121
	N234	N	0.328851	0.589181	0.958285
	N235	N	0.328094	0.417136	0.032323
	N236	N	0.969065	0.682166	0.410160
	N237	N	0.043160	0.685537	0.583605
	N238	N	0.969544	0.326324	0.579649
	N239	N	0.043016	0.322287	0.406569
	N240	N	0.968620	0.421793	0.671536
	N241	N	0.043699	0.591996	0.675873
	N242	N	0.968532	0.586438	0.318895
	N243	N	0.043600	0.416273	0.315349
	N244	N	0.422629	0.679339	0.957128
	N245	N	0.592649	0.681611	0.032323
	N246	N	0.592731	0.325013	0.958245
	N247	N	0.422334	0.326960	0.033696
	N248	N	0.686687	0.967620	0.407862
	N249	N	0.686305	0.040836	0.581782
	N250	N	0.326624	0.968307	0.582877
	N251	N	0.327023	0.040993	0.408094
	N252	N	0.922295	0.465313	0.171037
	N253	N	0.091924	0.540407	0.173819
	N254	N	0.091898	0.467100	0.816970
	N255	N	0.922395	0.542293	0.819779
	N256	N	0.185503	0.918067	0.457893
	N257	N	0.185665	0.091409	0.532314
	N258	N	0.828681	0.089213	0.458086
	N259	N	0.828527	0.918220	0.532080
	N260	N	0.470304	0.181581	0.910555
	N261	N	0.543822	0.184980	0.083232
	N262	N	0.469598	0.825450	0.079805
	N263	N	0.544266	0.821766	0.906529
	N264	N	0.469274	0.920532	0.171837
	N265	N	0.543957	0.091284	0.174634
	N266	N	0.469704	0.087069	0.819091
	N267	N	0.544848	0.916090	0.814861
	N268	N	0.922664	0.179637	0.457108
	N269	N	0.092559	0.182498	0.532106
	N270	N	0.092293	0.825735	0.458158
	N271	N	0.922273	0.828304	0.533394
	N272	N	0.186463	0.467087	0.908400
	N273	N	0.187097	0.540065	0.082702
	N274	N	0.827126	0.467472	0.081650
	N275	N	0.826655	0.540195	0.908414
	O276	O	0.034907	0.051755	0.070718
	H277	H	0.043467	0.040157	0.066386
	H278	H	0.031982	0.054381	0.081860
	O279	O	0.502386	0.500663	0.455563
	H280	H	0.505816	0.496023	0.462900
	H281	H	0.504687	0.516600	0.459552
	O282	O	0.450424	0.394134	0.460158
	H283	H	0.449356	0.387313	0.456567
	H284	H	0.450402	0.401196	0.449014
	O285	O	1.078283	-0.020992	0.990767
	H286	H	1.078469	-0.031868	0.975785
	H287	H	1.076494	-0.022696	0.986288
	O288	O	1.032831	-0.038707	-0.030602
	H289	H	1.021545	-0.033381	-0.029534
	H290	H	1.032042	-0.043595	-0.022285
	O291	O	0.573450	0.393472	0.437697
	H292	H	0.568013	0.388141	0.423846
	H293	H	0.579472	0.400557	0.424606
	O294	O	0.984010	-0.085073	0.931573
	H295	H	0.979019	-0.086183	0.939078
	H296	H	0.987744	-0.084882	0.929890
	O297	O	-0.012205	-0.026511	0.028455
	H298	H	-0.020879	-0.028623	0.016267
	H299	H	-0.013067	-0.030678	0.036856
	O300	O	0.414843	0.577576	0.498857
	H301	H	0.430629	0.572971	0.503841
	H302	H	0.422221	0.582571	0.497972
	O303	O	0.515575	0.425068	0.491600
	H304	H	0.512808	0.433961	0.486231
	H305	H	0.513091	0.414706	0.488246
	O306	O	1.001815	-0.031762	0.043507
	H307	H	0.993130	-0.039258	0.044841
	H308	H	1.019023	-0.037658	0.051945
	O309	O	-0.004194	-0.005949	0.982153
	H310	H	-0.008419	-0.008348	0.982422
	H311	H	0.004111	0.001114	0.980915
	O312	O	1.089253	0.891657	0.909803
	H313	H	1.099022	0.889724	0.892581
	H314	H	1.078429	0.901688	0.907392
	O315	O	0.464409	0.500385	0.500775
	H316	H	0.451658	0.493673	0.484061
	H317	H	0.469427	0.512276	0.507259
	O318	O	0.458799	0.569368	0.499972
	H319	H	0.456336	0.572659	0.508351
	H320	H	0.463239	0.570595	0.488819
	O321	O	0.054563	0.962778	0.983373
	H322	H	0.055573	0.955870	0.973195
	H323	H	0.052126	0.958505	0.973344
	O324	O	0.466416	0.534982	0.405609
	H325	H	0.464934	0.529618	0.409012
	H326	H	0.468972	0.543931	0.401452
	O327	O	0.490548	0.487184	0.393145
	H328	H	0.498874	0.485377	0.393879
	H329	H	0.490041	0.495659	0.394518
	O330	O	0.479329	0.543370	0.587256
	H331	H	0.484756	0.531148	0.592001
	H332	H	0.472351	0.538202	0.584965
	O333	O	0.582002	0.548345	0.461095
	H334	H	0.574428	0.537615	0.460474
	H335	H	0.580895	0.547905	0.471438
	O336	O	0.533166	0.568111	0.557210
	H337	H	0.530269	0.555489	0.547039
	H338	H	0.534018	0.566914	0.558054
	O339	O	1.040142	0.990487	-0.026921
	H340	H	1.043984	0.995738	-0.025021
	H341	H	1.045946	0.987822	-0.025264
	O342	O	0.473114	0.485469	0.553873
	H343	H	0.469507	0.469514	0.546809
	H344	H	0.480682	0.483393	0.549625
	O345	O	0.540546	0.485468	0.500809
	H346	H	0.538544	0.474553	0.504401
	H347	H	0.545246	0.488411	0.510900
	O348	O	-0.046250	-0.013552	0.034684
	H349	H	-0.030416	-0.012418	0.034502
	H350	H	-0.035472	-0.015656	0.041113
	O351	O	0.053684	1.010726	1.037285
	H352	H	0.058673	1.012442	1.036505
	H353	H	0.053332	1.012605	1.035051
	O354	O	0.510056	0.578886	0.480478
	H355	H	0.513867	0.587508	0.484627
	H356	H	0.502740	0.589012	0.476442
	O357	O	-0.467773	1.458378	1.442380
	H358	H	-0.469570	1.455816	1.450028
	H359	H	-0.477426	1.456099	1.437934
