data_Molecule from HDF5

_cell_length_a		16.358210
_cell_length_b		16.179273
_cell_length_c		16.228235
_cell_angle_alpha	90.073905
_cell_angle_beta	89.924886
_cell_angle_gamma	90.131546
_symmetry_space_group_name_H-M	'P 1'
_symmetry_Int_Tables_number		1

loop_
	_symmetry_equiv_pos_as_xyz
	x,y,z

loop_
	_atom_site_label
	_atom_site_type_symbol
	_atom_site_fract_x
	_atom_site_fract_y
	_atom_site_fract_z
	H0	H	0.418603	0.831963	0.704901
	H1	H	0.614119	0.162143	0.707309
	H2	H	0.613567	0.832424	0.278531
	H3	H	0.419543	0.162624	0.279477
	H4	H	0.728822	0.395808	0.829353
	H5	H	0.728666	0.597348	0.155951
	H6	H	0.297659	0.596127	0.829614
	H7	H	0.296724	0.395841	0.156764
	H8	H	0.851549	0.712797	0.394235
	H9	H	0.177656	0.714376	0.592148
	H10	H	0.851798	0.283412	0.590648
	H11	H	0.178430	0.284913	0.393499
	H12	H	0.850685	0.400117	0.706183
	H13	H	0.176183	0.599845	0.710648
	H14	H	0.850649	0.596154	0.278962
	H15	H	0.176453	0.398355	0.275879
	H16	H	0.416210	0.708404	0.828281
	H17	H	0.611891	0.710299	0.156866
	H18	H	0.607072	0.285801	0.827427
	H19	H	0.415750	0.284036	0.158029
	H20	H	0.731057	0.834263	0.392119
	H21	H	0.729594	0.162574	0.592269
	H22	H	0.298045	0.834343	0.594394
	H23	H	0.301322	0.162116	0.392810
	H24	H	0.915717	0.332578	0.206254
	H25	H	0.110165	0.662507	0.205398
	H26	H	0.111241	0.333021	0.778312
	H27	H	0.916057	0.663081	0.781004
	H28	H	0.232435	0.896729	0.329174
	H29	H	0.231817	0.099312	0.656444
	H30	H	0.802133	0.097966	0.329360
	H31	H	0.798629	0.898913	0.656110
	H32	H	0.350098	0.208978	0.895338
	H33	H	0.676107	0.214243	0.090783
	H34	H	0.351118	0.782056	0.091999
	H35	H	0.677703	0.782602	0.894465
	H36	H	0.352160	0.898049	0.208630
	H37	H	0.678486	0.095749	0.204485
	H38	H	0.352188	0.094639	0.778124
	H39	H	0.678395	0.899471	0.778981
	H40	H	0.920984	0.210079	0.327965
	H41	H	0.113906	0.213218	0.657036
	H42	H	0.113321	0.783947	0.328102
	H43	H	0.917440	0.785802	0.657948
	H44	H	0.225854	0.332291	0.893417
	H45	H	0.230769	0.660496	0.095487
	H46	H	0.798778	0.332671	0.092086
	H47	H	0.797967	0.660979	0.894318
	H48	H	0.423097	0.113364	0.580325
	H49	H	0.607688	0.883237	0.578595
	H50	H	0.614980	0.115593	0.402759
	H51	H	0.425704	0.882758	0.404869
	H52	H	0.610061	0.396525	0.113816
	H53	H	0.605614	0.593969	0.874722
	H54	H	0.411739	0.580396	0.109513
	H55	H	0.419597	0.405449	0.877097
	H56	H	0.131980	0.599810	0.402340
	H57	H	0.897546	0.588032	0.593093
	H58	H	0.130492	0.410634	0.589161
	H59	H	0.896714	0.409401	0.389157
	H60	H	0.131990	0.402320	0.588387
	H61	H	0.896317	0.600071	0.586127
	H62	H	0.125767	0.583931	0.404827
	H63	H	0.895992	0.392252	0.400532
	H64	H	0.431154	0.584520	0.104771
	H65	H	0.612479	0.586733	0.874964
	H66	H	0.612711	0.413675	0.109365
	H67	H	0.418909	0.401579	0.875527
	H68	H	0.611330	0.118081	0.392390
	H69	H	0.614524	0.878809	0.587169
	H70	H	0.418382	0.116809	0.588090
	H71	H	0.417788	0.879315	0.402154
	H72	H	0.913592	0.618196	0.091234
	H73	H	0.108271	0.380780	0.081963
	H74	H	0.102937	0.614968	0.896966
	H75	H	0.914948	0.377330	0.894693
	H76	H	0.108289	0.910102	0.608103
	H77	H	0.118012	0.083403	0.375626
	H78	H	0.928754	0.090584	0.608175
	H79	H	0.919249	0.916122	0.378313
	H80	H	0.632716	0.096380	0.898207
	H81	H	0.398939	0.082541	0.089478
	H82	H	0.632469	0.903674	0.092770
	H83	H	0.396010	0.896301	0.897097
	H84	H	0.630805	0.896490	0.080830
	H85	H	0.395211	0.094691	0.092109
	H86	H	0.629684	0.091211	0.904135
	H87	H	0.400612	0.903558	0.903328
	H88	H	0.918926	0.098419	0.613831
	H89	H	0.099980	0.089969	0.379202
	H90	H	0.104382	0.906852	0.607798
	H91	H	0.931310	0.901415	0.377073
	H92	H	0.104207	0.611791	0.907697
	H93	H	0.106547	0.378555	0.088214
	H94	H	0.928087	0.613125	0.088541
	H95	H	0.925716	0.380938	0.897748
	H96	H	0.427430	0.114665	0.589554
	H97	H	0.603132	0.880431	0.589057
	H98	H	0.604504	0.113683	0.399362
	H99	H	0.424705	0.879892	0.395940
	H100	H	0.596361	0.405302	0.106612
	H101	H	0.602705	0.585019	0.877612
	H102	H	0.419258	0.599873	0.114438
	H103	H	0.416610	0.404132	0.875809
	H104	H	0.131799	0.588559	0.389492
	H105	H	0.901263	0.588807	0.580484
	H106	H	0.129068	0.406154	0.581903
	H107	H	0.902145	0.409171	0.409130
	H108	H	0.917162	0.612852	0.077047
	H109	H	0.102073	0.381075	0.083468
	H110	H	0.113307	0.616243	0.901689
	H111	H	0.917000	0.381032	0.905373
	H112	H	0.109118	0.905436	0.610147
	H113	H	0.113519	0.102021	0.371319
	H114	H	0.917420	0.085259	0.610144
	H115	H	0.914637	0.899284	0.371263
	H116	H	0.631215	0.087590	0.896439
	H117	H	0.398928	0.091647	0.080242
	H118	H	0.627664	0.910146	0.081888
	H119	H	0.398260	0.906009	0.893935
	C120	C	0.394030	0.006212	0.614678
	C121	C	0.636767	0.989547	0.613774
	C122	C	0.637760	0.006704	0.370123
	C123	C	0.394852	0.989482	0.371985
	C124	C	0.634202	0.375882	0.001380
	C125	C	0.635263	0.617853	0.984141
	C126	C	0.391781	0.617392	0.001442
	C127	C	0.390203	0.374741	0.984560
	C128	C	0.022516	0.619899	0.370558
	C129	C	1.006059	0.621372	0.615482
	C130	C	0.022847	0.377124	0.614811
	C131	C	1.006355	0.375690	0.370968
	C132	C	0.891486	0.506099	0.114277
	C133	C	0.134778	0.488593	0.114298
	C134	C	0.134643	0.505773	0.872540
	C135	C	0.890998	0.488402	0.871364
	C136	C	0.136347	0.877718	0.500623
	C137	C	0.138392	0.120755	0.483988
	C138	C	0.894495	0.119531	0.501580
	C139	C	0.893131	0.876921	0.484128
	C140	C	0.522808	0.119009	0.871487
	C141	C	0.505590	0.118684	0.114402
	C142	C	0.522817	0.874649	0.114705
	C143	C	0.506388	0.874352	0.870317
	C144	C	0.397518	0.881528	0.668126
	C145	C	0.634256	0.113336	0.669220
	C146	C	0.634472	0.882190	0.315701
	C147	C	0.398167	0.113365	0.316752
	C148	C	0.689742	0.376864	0.878041
	C149	C	0.690701	0.616930	0.107265
	C150	C	0.335939	0.615884	0.878443
	C151	C	0.334787	0.376065	0.107876
	C152	C	0.900179	0.674748	0.373633
	C153	C	0.128595	0.676863	0.613094
	C154	C	0.900287	0.321497	0.611406
	C155	C	0.129374	0.322066	0.373342
	C156	C	0.899643	0.379404	0.668889
	C157	C	0.127794	0.619813	0.671975
	C158	C	0.899776	0.617071	0.315998
	C159	C	0.128259	0.378507	0.314536
	C160	C	0.394829	0.672078	0.877846
	C161	C	0.632459	0.672988	0.107728
	C162	C	0.629591	0.322089	0.877079
	C163	C	0.394127	0.320652	0.108537
	C164	C	0.692784	0.882936	0.372168
	C165	C	0.691575	0.113548	0.611753
	C166	C	0.337670	0.882846	0.613246
	C167	C	0.339803	0.113197	0.373356
	C168	C	0.894490	0.381906	0.169023
	C169	C	0.131449	0.612966	0.168507
	C170	C	0.131316	0.382184	0.816301
	C171	C	0.894885	0.613209	0.817661
	C172	C	0.193217	0.877887	0.377797
	C173	C	0.193531	0.119041	0.607573
	C174	C	0.840042	0.117570	0.378116
	C175	C	0.837266	0.878983	0.607479
	C176	C	0.399409	0.172137	0.874541
	C177	C	0.628065	0.175429	0.111383
	C178	C	0.400114	0.819655	0.112664
	C179	C	0.628992	0.820018	0.873720
	C180	C	0.400665	0.877215	0.170676
	C181	C	0.629132	0.116619	0.168027
	C182	C	0.400276	0.115121	0.816533
	C183	C	0.629572	0.878377	0.816466
	C184	C	0.899226	0.173124	0.377266
	C185	C	0.135198	0.175673	0.607913
	C186	C	0.134489	0.821548	0.377161
	C187	C	0.896026	0.822637	0.608255
	C188	C	0.188555	0.381680	0.873542
	C189	C	0.191326	0.611826	0.113816
	C190	C	0.836708	0.382012	0.112116
	C191	C	0.836460	0.612485	0.874092
	C192	C	0.416308	0.092612	0.592680
	C193	C	0.614845	0.903288	0.591589
	C194	C	0.616524	0.093222	0.391749
	C195	C	0.416403	0.903128	0.394370
	C196	C	0.612744	0.398477	0.087787
	C197	C	0.613327	0.595251	0.897864
	C198	C	0.414164	0.594778	0.087537
	C199	C	0.411922	0.397009	0.898339
	C200	C	0.107844	0.597338	0.392496
	C201	C	0.920538	0.598956	0.592964
	C202	C	0.108599	0.399802	0.592984
	C203	C	0.920371	0.397352	0.393315
	C204	C	0.913113	0.592493	0.092179
	C205	C	0.112245	0.402366	0.091373
	C206	C	0.113104	0.592120	0.895544
	C207	C	0.912813	0.402134	0.892959
	C208	C	0.113768	0.900736	0.586402
	C209	C	0.116798	0.098432	0.397710
	C210	C	0.915410	0.097780	0.588234
	C211	C	0.915386	0.898795	0.398034
	C212	C	0.608838	0.097901	0.893219
	C213	C	0.419952	0.096259	0.093410
	C214	C	0.608215	0.896808	0.091785
	C215	C	0.420338	0.895689	0.891674
	Zn216	Zn	0.515667	-0.002561	0.742568
	Zn217	Zn	0.515326	-0.002865	0.243408
	Zn218	Zn	0.763265	0.496908	-0.007197
	Zn219	Zn	0.262732	0.496338	-0.006645
	Zn220	Zn	0.014964	0.749361	0.492499
	Zn221	Zn	0.015580	0.248005	0.493126
	Zn222	Zn	0.013697	0.498223	0.744110
	Zn223	Zn	0.013522	0.497676	0.242088
	Zn224	Zn	0.514138	0.745353	-0.007270
	Zn225	Zn	0.512927	0.247523	-0.007175
	Zn226	Zn	0.765046	-0.001223	0.492552
	Zn227	Zn	0.265796	-0.002098	0.492803
	N228	N	0.431726	0.959431	0.669521
	N229	N	0.600789	0.035282	0.670712
	N230	N	0.600944	0.960030	0.314292
	N231	N	0.431578	0.035392	0.315918
	N232	N	0.692739	0.409570	0.956466
	N233	N	0.692298	0.583177	0.029382
	N234	N	0.333697	0.582812	0.956482
	N235	N	0.332558	0.409221	0.029943
	N236	N	0.977356	0.676713	0.406998
	N237	N	0.051727	0.677768	0.578548
	N238	N	0.977819	0.320213	0.578298
	N239	N	0.052559	0.320438	0.407664
	N240	N	0.976916	0.413153	0.671257
	N241	N	0.050617	0.586101	0.673565
	N242	N	0.977013	0.583636	0.313909
	N243	N	0.050668	0.411331	0.313062
	N244	N	0.428710	0.673126	0.955312
	N245	N	0.598708	0.673683	0.030194
	N246	N	0.595845	0.321329	0.954727
	N247	N	0.428034	0.319644	0.030860
	N248	N	0.695068	0.961245	0.405438
	N249	N	0.693330	0.035515	0.578077
	N250	N	0.335557	0.961179	0.580516
	N251	N	0.337628	0.035228	0.407196
	N252	N	0.928003	0.459999	0.170571
	N253	N	0.096796	0.535443	0.168743
	N254	N	0.098591	0.460495	0.815437
	N255	N	0.928434	0.535268	0.816031
	N256	N	0.194700	0.911798	0.455603
	N257	N	0.195775	0.085640	0.529530
	N258	N	0.836945	0.084882	0.456438
	N259	N	0.835148	0.911790	0.529303
	N260	N	0.476602	0.174540	0.907966
	N261	N	0.550352	0.176823	0.078820
	N262	N	0.477016	0.818001	0.078430
	N263	N	0.551265	0.817380	0.906340
	N264	N	0.478066	0.910696	0.172059
	N265	N	0.552182	0.082103	0.170099
	N266	N	0.478079	0.082997	0.814300
	N267	N	0.552299	0.911404	0.814134
	N268	N	0.932371	0.174397	0.455066
	N269	N	0.101670	0.177125	0.530147
	N270	N	0.100005	0.821030	0.454590
	N271	N	0.930219	0.821429	0.530757
	N272	N	0.190871	0.459560	0.907633
	N273	N	0.193277	0.533400	0.080791
	N274	N	0.834582	0.460163	0.078847
	N275	N	0.833755	0.534030	0.906508
	O276	O	1.037512	0.997015	-0.005234
	H277	H	1.038299	1.003358	-0.012059
	H278	H	1.030977	1.000117	0.004752
	O279	O	0.051084	-0.086687	0.947370
	H280	H	0.056515	-0.082088	0.950295
	H281	H	0.042242	-0.084730	0.942582
	O282	O	-0.499444	0.575416	0.581267
	H283	H	-0.501433	0.583218	0.589584
	H284	H	-0.490924	0.578252	0.591216
	O285	O	0.444726	0.464521	0.513435
	H286	H	0.452006	0.465667	0.515940
	H287	H	0.431653	0.466501	0.509231
	O288	O	0.002144	-0.027552	0.002747
	H289	H	0.010053	-0.034917	0.005003
	H290	H	0.015991	-0.023712	0.005445
	O291	O	-0.005921	0.951864	-0.003453
	H292	H	-0.001883	0.948559	-0.004662
	H293	H	-0.012054	0.947776	0.000019
	O294	O	0.025038	0.999729	0.049419
	H295	H	0.018677	0.997595	0.047757
	H296	H	0.025341	1.001569	0.058258
	O297	O	0.565420	0.571562	0.511769
	H298	H	0.550917	0.577517	0.526001
	H299	H	0.558019	0.562628	0.507381
	O300	O	0.514588	0.526643	0.532663
	H301	H	0.508659	0.522540	0.534096
	H302	H	0.518520	0.521447	0.527315
	O303	O	0.458707	-0.492120	1.451130
	H304	H	0.461250	-0.475083	1.453991
	H305	H	0.457951	-0.490595	1.453763
	O306	O	0.046180	0.945600	1.011508
	H307	H	0.047609	0.941519	1.003525
	H308	H	0.038738	0.942149	1.012268
	O309	O	0.088341	1.012986	0.968840
	H310	H	0.097804	1.020108	0.963711
	H311	H	0.091161	1.011478	0.971478
	O312	O	0.043627	-0.034101	0.964517
	H313	H	0.042388	-0.035093	0.954091
	H314	H	0.045555	-0.038564	0.970891
	O315	O	0.428183	0.443615	0.591682
	H316	H	0.427889	0.432141	0.582894
	H317	H	0.435166	0.448314	0.592577
	O318	O	0.047409	0.010653	1.060972
	H319	H	0.059801	0.002883	1.064134
	H320	H	0.043818	0.007530	1.057843
	O321	O	0.555061	0.502007	0.550299
	H322	H	0.554294	0.508770	0.533018
	H323	H	0.561238	0.495843	0.539430
	O324	O	1.022817	0.010066	1.035981
	H325	H	1.016995	0.006068	1.045245
	H326	H	1.026920	0.004563	1.029647
	O327	O	0.976551	0.991432	0.982335
	H328	H	0.980709	0.988164	0.984676
	H329	H	0.981214	1.001037	0.982501
	O330	O	0.513751	0.542449	0.535764
	H331	H	0.516137	0.541997	0.533854
	H332	H	0.516483	0.549558	0.528554
	O333	O	0.567789	0.585642	0.499354
	H334	H	0.580793	0.600217	0.498210
	H335	H	0.560399	0.587384	0.520773
	O336	O	0.483821	0.523205	0.474606
	H337	H	0.477733	0.517692	0.478290
	H338	H	0.483336	0.523509	0.470351
	O339	O	-0.481820	0.438130	-0.482351
	H340	H	-0.473441	0.432291	-0.484613
	H341	H	-0.472873	0.442050	-0.478514
	O342	O	0.497557	0.481421	0.443038
	H343	H	0.492545	0.474218	0.442264
	H344	H	0.502945	0.484479	0.452250
	O345	O	0.459177	0.593870	0.460133
	H346	H	0.453614	0.591562	0.455035
	H347	H	0.464048	0.586884	0.474007
