data_Molecule from HDF5

_cell_length_a		16.548703
_cell_length_b		16.293687
_cell_length_c		16.182934
_cell_angle_alpha	89.624273
_cell_angle_beta	89.940546
_cell_angle_gamma	90.222217
_symmetry_space_group_name_H-M	'P 1'
_symmetry_Int_Tables_number		1

loop_
	_symmetry_equiv_pos_as_xyz
	x,y,z

loop_
	_atom_site_label
	_atom_site_type_symbol
	_atom_site_fract_x
	_atom_site_fract_y
	_atom_site_fract_z
	H0	H	0.407727	0.817028	0.712662
	H1	H	0.606126	0.143406	0.709168
	H2	H	0.603784	0.818034	0.282231
	H3	H	0.407549	0.142815	0.278271
	H4	H	0.725848	0.377473	0.834109
	H5	H	0.725270	0.582807	0.157353
	H6	H	0.287702	0.586900	0.834638
	H7	H	0.289245	0.376660	0.158537
	H8	H	0.848735	0.697435	0.394721
	H9	H	0.168004	0.697823	0.598775
	H10	H	0.848269	0.258069	0.600197
	H11	H	0.167998	0.261107	0.394316
	H12	H	0.847543	0.376275	0.715664
	H13	H	0.168544	0.578399	0.712873
	H14	H	0.848120	0.579152	0.279540
	H15	H	0.168052	0.378927	0.277544
	H16	H	0.407759	0.696614	0.831824
	H17	H	0.605247	0.694390	0.158793
	H18	H	0.606619	0.266443	0.832679
	H19	H	0.403896	0.261123	0.157508
	H20	H	0.725506	0.820211	0.392298
	H21	H	0.729230	0.140198	0.600213
	H22	H	0.287391	0.818723	0.602381
	H23	H	0.286670	0.140053	0.388842
	H24	H	0.908997	0.315950	0.211285
	H25	H	0.105356	0.643310	0.208762
	H26	H	0.106362	0.316675	0.783207
	H27	H	0.912000	0.642652	0.781193
	H28	H	0.226264	0.876281	0.335213
	H29	H	0.226713	0.082619	0.657296
	H30	H	0.789743	0.085332	0.335078
	H31	H	0.787594	0.873633	0.657653
	H32	H	0.346961	0.199731	0.893006
	H33	H	0.666266	0.200106	0.098042
	H34	H	0.347051	0.759850	0.098323
	H35	H	0.666002	0.762709	0.892006
	H36	H	0.346761	0.877705	0.214132
	H37	H	0.666953	0.081541	0.213358
	H38	H	0.345980	0.079657	0.778316
	H39	H	0.666800	0.881224	0.778720
	H40	H	0.908161	0.196398	0.334047
	H41	H	0.108261	0.193388	0.660023
	H42	H	0.107492	0.765344	0.333185
	H43	H	0.909857	0.764136	0.660758
	H44	H	0.228119	0.320298	0.892880
	H45	H	0.227956	0.640630	0.100579
	H46	H	0.785711	0.319481	0.102996
	H47	H	0.790672	0.641184	0.890866
	H48	H	0.414138	0.094559	0.583457
	H49	H	0.598468	0.865203	0.585200
	H50	H	0.595340	0.096506	0.399776
	H51	H	0.419073	0.867119	0.408220
	H52	H	0.603617	0.386515	0.114874
	H53	H	0.600815	0.577561	0.878426
	H54	H	0.417090	0.570230	0.111850
	H55	H	0.415544	0.391105	0.879996
	H56	H	0.126136	0.578370	0.399169
	H57	H	0.895419	0.569821	0.587753
	H58	H	0.120040	0.390739	0.589959
	H59	H	0.898631	0.389001	0.413620
	H60	H	0.122136	0.383257	0.590224
	H61	H	0.893686	0.571264	0.589734
	H62	H	0.120405	0.573894	0.411561
	H63	H	0.894755	0.392289	0.399299
	H64	H	0.415036	0.569101	0.111349
	H65	H	0.605137	0.567658	0.877404
	H66	H	0.599623	0.399289	0.109841
	H67	H	0.416303	0.395162	0.881386
	H68	H	0.596582	0.093249	0.412507
	H69	H	0.600215	0.864725	0.586453
	H70	H	0.415350	0.095367	0.585699
	H71	H	0.412250	0.865939	0.410400
	H72	H	0.911108	0.595096	0.082749
	H73	H	0.105501	0.360861	0.091887
	H74	H	0.099555	0.596256	0.899742
	H75	H	0.917545	0.364585	0.906337
	H76	H	0.104595	0.883878	0.617200
	H77	H	0.095221	0.070656	0.380930
	H78	H	0.920943	0.074281	0.613547
	H79	H	0.914193	0.888438	0.379680
	H80	H	0.617060	0.073347	0.910797
	H81	H	0.392730	0.072727	0.086899
	H82	H	0.620172	0.885094	0.086491
	H83	H	0.392278	0.885386	0.905640
	H84	H	0.618184	0.890641	0.085375
	H85	H	0.394910	0.071738	0.083346
	H86	H	0.619026	0.067653	0.899115
	H87	H	0.394088	0.889965	0.906216
	H88	H	0.908331	0.065321	0.615138
	H89	H	0.101352	0.071111	0.378749
	H90	H	0.101059	0.895915	0.611039
	H91	H	0.915292	0.890446	0.381185
	H92	H	0.094724	0.593301	0.908440
	H93	H	0.090833	0.366389	0.089186
	H94	H	0.914953	0.596258	0.091013
	H95	H	0.914049	0.365479	0.911660
	H96	H	0.417064	0.094251	0.583472
	H97	H	0.598240	0.865241	0.588029
	H98	H	0.607014	0.098496	0.405622
	H99	H	0.413784	0.863200	0.403840
	H100	H	0.590165	0.387843	0.110418
	H101	H	0.595166	0.569598	0.880836
	H102	H	0.416836	0.568273	0.110852
	H103	H	0.419006	0.392437	0.880899
	H104	H	0.121094	0.564900	0.400780
	H105	H	0.894313	0.572338	0.587472
	H106	H	0.119489	0.386612	0.583914
	H107	H	0.892122	0.378451	0.405158
	H108	H	0.919628	0.593416	0.083626
	H109	H	0.101634	0.366627	0.077098
	H110	H	0.104789	0.596009	0.909178
	H111	H	0.911388	0.363033	0.906399
	H112	H	0.092231	0.885872	0.611111
	H113	H	0.099068	0.065036	0.381646
	H114	H	0.921069	0.059566	0.608865
	H115	H	0.916503	0.888130	0.379643
	H116	H	0.623004	0.080273	0.900204
	H117	H	0.394764	0.068468	0.086385
	H118	H	0.620933	0.889086	0.090924
	H119	H	0.392642	0.888226	0.901987
	C120	C	0.385756	-0.012096	0.616278
	C121	C	0.629459	0.971628	0.617299
	C122	C	0.628696	-0.010508	0.375120
	C123	C	0.384779	0.971619	0.374780
	C124	C	0.627964	0.360425	0.004354
	C125	C	0.629217	0.601746	0.986585
	C126	C	0.386423	0.601022	0.003811
	C127	C	0.385777	0.360398	0.987731
	C128	C	0.016810	0.601829	0.374211
	C129	C	1.000141	0.600834	0.618169
	C130	C	0.015462	0.355744	0.619014
	C131	C	1.000390	0.356830	0.375085
	C132	C	0.885260	0.487917	0.117416
	C133	C	0.129365	0.471474	0.116917
	C134	C	0.129726	0.488602	0.875355
	C135	C	0.886153	0.471270	0.875722
	C136	C	0.129294	0.858229	0.505370
	C137	C	0.128852	0.099595	0.487686
	C138	C	0.886998	0.098874	0.505208
	C139	C	0.885751	0.857829	0.487674
	C140	C	0.514704	0.103724	0.872664
	C141	C	0.498901	0.102323	0.117080
	C142	C	0.514560	0.857606	0.118176
	C143	C	0.498410	0.858356	0.873819
	C144	C	0.387501	0.865840	0.674258
	C145	C	0.627668	0.094108	0.672764
	C146	C	0.625453	0.866941	0.319315
	C147	C	0.386665	0.093637	0.316342
	C148	C	0.686460	0.358989	0.882638
	C149	C	0.686096	0.601898	0.108971
	C150	C	0.327815	0.603954	0.882517
	C151	C	0.327550	0.357961	0.109529
	C152	C	0.896577	0.658599	0.374884
	C153	C	0.120272	0.658562	0.618145
	C154	C	0.895886	0.297315	0.619374
	C155	C	0.120338	0.299825	0.374885
	C156	C	0.895447	0.356256	0.676749
	C157	C	0.120624	0.598968	0.674895
	C158	C	0.896290	0.599776	0.317648
	C159	C	0.120539	0.358684	0.316977
	C160	C	0.387290	0.658850	0.881254
	C161	C	0.626422	0.657266	0.109459
	C162	C	0.626775	0.304262	0.881698
	C163	C	0.385000	0.300672	0.109284
	C164	C	0.685875	0.868077	0.373982
	C165	C	0.688641	0.092345	0.618347
	C166	C	0.327341	0.866846	0.619661
	C167	C	0.326788	0.092499	0.371647
	C168	C	0.887420	0.365472	0.174241
	C169	C	0.126785	0.594003	0.172405
	C170	C	0.127495	0.365792	0.820077
	C171	C	0.890008	0.593739	0.818427
	C172	C	0.187009	0.857777	0.383409
	C173	C	0.187272	0.100964	0.609283
	C174	C	0.829269	0.102157	0.383322
	C175	C	0.827781	0.855678	0.609679
	C176	C	0.394564	0.160512	0.873355
	C177	C	0.618532	0.160793	0.117534
	C178	C	0.394873	0.799203	0.118017
	C179	C	0.618406	0.801733	0.873402
	C180	C	0.394776	0.857855	0.175902
	C181	C	0.618959	0.101541	0.174658
	C182	C	0.394011	0.101216	0.816130
	C183	C	0.618794	0.860736	0.816884
	C184	C	0.887943	0.157786	0.382829
	C185	C	0.128069	0.156075	0.610431
	C186	C	0.127797	0.802540	0.382554
	C187	C	0.888455	0.801287	0.611056
	C188	C	0.187936	0.367700	0.874679
	C189	C	0.187672	0.592735	0.118273
	C190	C	0.826283	0.367168	0.120030
	C191	C	0.830030	0.593044	0.873391
	C192	C	0.408806	0.072774	0.591516
	C193	C	0.605691	0.886981	0.593493
	C194	C	0.606243	0.074074	0.399030
	C195	C	0.408284	0.887245	0.400279
	C196	C	0.604538	0.384147	0.089523
	C197	C	0.606949	0.578390	0.901026
	C198	C	0.409578	0.576338	0.089123
	C199	C	0.409928	0.385814	0.902744
	C200	C	0.100539	0.579129	0.397233
	C201	C	0.916338	0.577868	0.594971
	C202	C	0.098949	0.379834	0.594972
	C203	C	0.916929	0.379994	0.399017
	C204	C	0.908409	0.572719	0.092783
	C205	C	0.106209	0.386461	0.092981
	C206	C	0.106522	0.573092	0.898782
	C207	C	0.908111	0.386359	0.900782
	C208	C	0.106235	0.881729	0.590844
	C209	C	0.105423	0.075905	0.402568
	C210	C	0.910046	0.073750	0.590390
	C211	C	0.908660	0.881740	0.402208
	C212	C	0.597995	0.080485	0.896389
	C213	C	0.415672	0.078013	0.092659
	C214	C	0.598365	0.881355	0.094317
	C215	C	0.414840	0.881293	0.897645
	Zn216	Zn	0.506650	-0.019691	0.744511
	Zn217	Zn	0.506802	-0.019437	0.247576
	Zn218	Zn	0.757262	0.480205	-0.004216
	Zn219	Zn	0.257805	0.480720	-0.003870
	Zn220	Zn	0.008487	0.730646	0.496508
	Zn221	Zn	0.007971	0.226221	0.497042
	Zn222	Zn	0.007830	0.478605	0.747875
	Zn223	Zn	0.008039	0.479288	0.245171
	Zn224	Zn	0.507136	0.728857	-0.005018
	Zn225	Zn	0.506731	0.232619	-0.004468
	Zn226	Zn	0.758091	-0.020554	0.495913
	Zn227	Zn	0.256834	-0.020620	0.496308
	N228	N	0.423059	0.942186	0.672366
	N229	N	0.591239	0.018083	0.672198
	N230	N	0.590952	0.943441	0.319713
	N231	N	0.422075	0.017573	0.318390
	N232	N	0.687452	0.393425	0.959997
	N233	N	0.688283	0.568444	0.031400
	N234	N	0.327329	0.568315	0.959803
	N235	N	0.327967	0.394481	0.032771
	N236	N	0.972541	0.660282	0.409132
	N237	N	0.044440	0.659760	0.583732
	N238	N	0.971614	0.296892	0.584318
	N239	N	0.044770	0.298576	0.410293
	N240	N	0.970913	0.391677	0.676997
	N241	N	0.044967	0.563623	0.674943
	N242	N	0.972006	0.565591	0.316840
	N243	N	0.044825	0.393075	0.316656
	N244	N	0.423013	0.657105	0.957675
	N245	N	0.591962	0.657375	0.032228
	N246	N	0.591328	0.304913	0.958474
	N247	N	0.420670	0.302343	0.032594
	N248	N	0.688240	0.945206	0.407811
	N249	N	0.689627	0.015077	0.584582
	N250	N	0.326248	0.943757	0.584114
	N251	N	0.325469	0.015636	0.407286
	N252	N	0.923377	0.441681	0.172991
	N253	N	0.091256	0.517499	0.171708
	N254	N	0.091940	0.441831	0.820374
	N255	N	0.924320	0.517008	0.819856
	N256	N	0.188020	0.891633	0.461105
	N257	N	0.188231	0.066812	0.531790
	N258	N	0.828631	0.066185	0.460411
	N259	N	0.825978	0.890244	0.532078
	N260	N	0.470652	0.162470	0.907424
	N261	N	0.543000	0.161312	0.082274
	N262	N	0.470612	0.798748	0.082966
	N263	N	0.542619	0.800149	0.907894
	N264	N	0.470235	0.893672	0.175964
	N265	N	0.543525	0.065906	0.174513
	N266	N	0.469523	0.066743	0.815437
	N267	N	0.543065	0.895276	0.816868
	N268	N	0.923207	0.155700	0.459528
	N269	N	0.092536	0.155206	0.533791
	N270	N	0.092772	0.802621	0.459335
	N271	N	0.923802	0.802519	0.534047
	N272	N	0.189573	0.444963	0.908036
	N273	N	0.189288	0.515482	0.084445
	N274	N	0.824782	0.444431	0.085580
	N275	N	0.827272	0.515799	0.908015
	O276	O	0.579787	0.337066	0.332168
	H277	H	0.580197	0.333405	0.333930
	H278	H	0.593154	0.326751	0.346198
	O279	O	0.383863	0.434971	0.527737
	H280	H	0.378592	0.431420	0.525247
	H281	H	0.390320	0.442788	0.532346
	O282	O	0.968973	0.127698	1.031667
	H283	H	0.962596	0.126943	1.030961
	H284	H	0.960995	0.130853	1.038588
	O285	O	0.443442	0.512338	0.377295
	H286	H	0.458588	0.502160	0.371361
	H287	H	0.432396	0.509279	0.367899
	O288	O	0.655081	1.385504	1.459825
	H289	H	0.667651	1.375675	1.475455
	H290	H	0.645433	1.385704	1.465676
	O291	O	0.127425	1.029373	0.106305
	H292	H	0.138116	1.039051	0.104576
	H293	H	0.117759	1.036253	0.109094
	O294	O	0.578694	0.593397	0.409071
	H295	H	0.563573	0.584842	0.402570
	H296	H	0.583289	0.590143	0.432008
	O297	O	0.575305	0.524210	0.654320
	H298	H	0.583342	0.522360	0.649938
	H299	H	0.557443	0.519880	0.654522
	O300	O	0.317665	0.391168	0.670675
	H301	H	0.308029	0.392750	0.676432
	H302	H	0.315506	0.405177	0.654724
	O303	O	0.516616	0.357223	0.611777
	H304	H	0.515356	0.348495	0.624680
	H305	H	0.513971	0.360401	0.619968
	O306	O	0.370949	0.411149	0.464239
	H307	H	0.366512	0.411663	0.468853
	H308	H	0.373856	0.409589	0.468418
	O309	O	0.540156	0.454718	0.385071
	H310	H	0.532898	0.454762	0.382312
	H311	H	0.542299	0.446409	0.395989
	O312	O	-0.068043	0.145151	-0.131749
	H313	H	-0.079347	0.157572	-0.140239
	H314	H	-0.060673	0.149320	-0.131980
	O315	O	0.435201	0.612849	0.533051
	H316	H	0.429482	0.609896	0.515638
	H317	H	0.421615	0.611343	0.535246
	O318	O	-0.070286	0.984681	0.870338
	H319	H	-0.075455	0.987340	0.878208
	H320	H	-0.069216	0.987198	0.863501
	O321	O	0.687844	0.494383	0.553210
	H322	H	0.689031	0.498005	0.555811
	H323	H	0.677560	0.508203	0.544270
	O324	O	0.116911	0.873223	-0.036066
	H325	H	0.130932	0.858866	-0.037535
	H326	H	0.103995	0.883926	-0.057328
	O327	O	0.559171	0.484810	0.440567
	H328	H	0.560847	0.478793	0.443718
	H329	H	0.557795	0.493581	0.440625
	O330	O	-0.200232	-0.194980	1.044500
	H331	H	-0.198292	-0.200212	1.071070
	H332	H	-0.221533	-0.210798	1.053167
	O333	O	0.012593	-0.038681	0.876160
	H334	H	0.014255	-0.034083	0.885897
	H335	H	-0.000797	-0.034420	0.860945
	O336	O	0.184085	0.917507	0.928364
	H337	H	0.194637	0.915244	0.920207
	H338	H	0.183298	0.930315	0.945101
	O339	O	1.107870	-0.007088	0.135138
	H340	H	1.101569	-0.009804	0.141379
	H341	H	1.116368	0.001291	0.139763
	O342	O	-0.152480	-0.051785	-0.098869
	H343	H	-0.152980	-0.055590	-0.102373
	H344	H	-0.161918	-0.062390	-0.087586
	O345	O	1.088955	-0.114693	1.039231
	H346	H	1.087214	-0.112698	1.034770
	H347	H	1.088992	-0.115600	1.045421
	O348	O	0.564753	1.339817	0.362927
	H349	H	0.558381	1.339238	0.362636
	H350	H	0.564641	1.341196	0.365592
	O351	O	0.476826	0.397240	0.504667
	H352	H	0.478993	0.403075	0.503525
	H353	H	0.478382	0.378920	0.510329
	O354	O	1.113667	0.084073	1.112189
	H355	H	1.110129	0.093323	1.111130
	H356	H	1.112648	0.079737	1.101047
	O357	O	0.493923	0.652736	0.481074
	H358	H	0.496855	0.652658	0.476544
	H359	H	0.493796	0.656752	0.471923
	O360	O	0.483873	0.422890	0.492349
	H361	H	0.473799	0.422143	0.496334
	H362	H	0.480971	0.420101	0.495031
	O363	O	0.014802	1.087410	1.117455
	H364	H	0.017250	1.095027	1.117759
	H365	H	0.006010	1.073923	1.119665
	O366	O	0.570810	0.526025	0.470189
	H367	H	0.549946	0.520564	0.462720
	H368	H	0.571085	0.535322	0.475786
	O369	O	-0.101328	1.144137	-0.113138
	H370	H	-0.093037	1.132515	-0.107499
	H371	H	-0.098858	1.154554	-0.114445
	O372	O	0.375782	0.491995	0.401746
	H373	H	0.369576	0.485887	0.387536
	H374	H	0.370651	0.491321	0.407031
	O375	O	0.614548	0.435810	0.359818
	H376	H	0.624895	0.440707	0.356543
	H377	H	0.612261	0.438880	0.358272
	O378	O	0.988114	0.865648	0.006697
	H379	H	0.995034	0.864721	0.003113
	H380	H	0.983721	0.876960	0.005740
	O381	O	1.045725	-0.026186	-0.092669
	H382	H	1.043655	-0.026179	-0.096122
	H383	H	1.046544	-0.021636	-0.098800
	O384	O	1.159233	1.039178	-0.115198
	H385	H	1.145942	1.031672	-0.107734
	H386	H	1.160700	1.025340	-0.108704
	O387	O	0.053830	-0.162054	0.008104
	H388	H	0.041056	-0.152582	0.028471
	H389	H	0.061415	-0.169358	-0.010162
	O390	O	-0.186323	0.948851	0.008773
	H391	H	-0.187101	0.943278	0.015885
	H392	H	-0.189962	0.926559	-0.001346
	O393	O	0.934704	0.937467	1.132577
	H394	H	0.927706	0.930598	1.141770
	H395	H	0.931953	0.957258	1.137979
	O396	O	0.654382	0.742881	0.643663
	H397	H	0.646926	0.739564	0.637062
	H398	H	0.645635	0.742131	0.639405
	O399	O	-0.156896	0.989709	1.174548
	H400	H	-0.144979	1.001801	1.173303
	H401	H	-0.178331	0.986133	1.182709
	O402	O	0.575240	0.380060	0.595596
	H403	H	0.580022	0.372234	0.597572
	H404	H	0.575650	0.384571	0.602657
	O405	O	0.358954	1.573086	-0.523116
	H406	H	0.354955	1.584320	-0.526705
	H407	H	0.362759	1.570027	-0.536378
	O408	O	0.986906	1.046613	0.112342
	H409	H	0.986057	1.052029	0.098016
	H410	H	0.988059	1.030385	0.112916
	O411	O	1.045684	-0.065620	1.052577
	H412	H	1.054863	-0.091072	1.058376
	H413	H	1.019725	-0.070130	1.049204
	O414	O	0.499390	0.592069	0.634509
	H415	H	0.492524	0.589627	0.636010
	H416	H	0.502205	0.598883	0.633182
	O417	O	0.718232	0.509005	0.706658
	H418	H	0.717258	0.511983	0.719843
	H419	H	0.714998	0.504075	0.698515
