data_Molecule from HDF5

_cell_length_a		16.276444
_cell_length_b		16.327493
_cell_length_c		16.302447
_cell_angle_alpha	89.935259
_cell_angle_beta	90.058599
_cell_angle_gamma	90.166488
_symmetry_space_group_name_H-M	'P 1'
_symmetry_Int_Tables_number		1

loop_
	_symmetry_equiv_pos_as_xyz
	x,y,z

loop_
	_atom_site_label
	_atom_site_type_symbol
	_atom_site_fract_x
	_atom_site_fract_y
	_atom_site_fract_z
	H0	H	0.399688	0.837243	0.721385
	H1	H	0.597447	0.163364	0.720839
	H2	H	0.595830	0.836483	0.291999
	H3	H	0.402021	0.163745	0.292394
	H4	H	0.711373	0.404058	0.842158
	H5	H	0.712866	0.598203	0.169836
	H6	H	0.283494	0.598410	0.842363
	H7	H	0.284571	0.402334	0.170252
	H8	H	0.834871	0.713935	0.407525
	H9	H	0.161144	0.715919	0.606118
	H10	H	0.834283	0.284370	0.604803
	H11	H	0.162274	0.285888	0.407885
	H12	H	0.833858	0.400815	0.720527
	H13	H	0.161492	0.599289	0.722000
	H14	H	0.834732	0.596628	0.292817
	H15	H	0.162968	0.402746	0.292938
	H16	H	0.399527	0.715060	0.842121
	H17	H	0.597556	0.714623	0.169704
	H18	H	0.594568	0.288268	0.841943
	H19	H	0.399080	0.284479	0.169157
	H20	H	0.711695	0.836079	0.408816
	H21	H	0.711981	0.163825	0.603082
	H22	H	0.283275	0.836849	0.604702
	H23	H	0.285061	0.164229	0.408211
	H24	H	0.901329	0.336638	0.219976
	H25	H	0.096556	0.663648	0.220776
	H26	H	0.096352	0.336555	0.791035
	H27	H	0.901385	0.663537	0.791570
	H28	H	0.211190	0.904427	0.342140
	H29	H	0.212907	0.098079	0.670156
	H30	H	0.784158	0.097231	0.342344
	H31	H	0.784781	0.901852	0.670522
	H32	H	0.334014	0.213279	0.908669
	H33	H	0.662346	0.214889	0.104074
	H34	H	0.334883	0.785113	0.105305
	H35	H	0.662654	0.787410	0.908400
	H36	H	0.335108	0.901941	0.220702
	H37	H	0.662995	0.097881	0.219605
	H38	H	0.334061	0.097486	0.792622
	H39	H	0.661940	0.903231	0.792070
	H40	H	0.900276	0.213488	0.342441
	H41	H	0.095889	0.213560	0.670074
	H42	H	0.096524	0.785953	0.342616
	H43	H	0.899093	0.784158	0.669435
	H44	H	0.211616	0.336030	0.908863
	H45	H	0.213159	0.663697	0.104332
	H46	H	0.785724	0.336097	0.102903
	H47	H	0.785739	0.664216	0.908832
	H48	H	0.399372	0.117361	0.599009
	H49	H	0.589562	0.884674	0.598365
	H50	H	0.597590	0.116329	0.418125
	H51	H	0.399203	0.882826	0.411996
	H52	H	0.582851	0.402979	0.120951
	H53	H	0.598141	0.595489	0.887622
	H54	H	0.409330	0.601864	0.123398
	H55	H	0.397905	0.407175	0.888460
	H56	H	0.111653	0.590670	0.422011
	H57	H	0.880454	0.594903	0.599238
	H58	H	0.112117	0.411617	0.597515
	H59	H	0.885790	0.418386	0.411018
	H60	H	0.115181	0.407238	0.603795
	H61	H	0.882958	0.591421	0.597078
	H62	H	0.116063	0.587739	0.405091
	H63	H	0.877059	0.398186	0.402610
	H64	H	0.397339	0.592184	0.123539
	H65	H	0.589680	0.587912	0.892418
	H66	H	0.598849	0.401669	0.126107
	H67	H	0.408179	0.412454	0.892026
	H68	H	0.594866	0.118639	0.405612
	H69	H	0.593872	0.883131	0.600395
	H70	H	0.408232	0.117134	0.604434
	H71	H	0.408838	0.884135	0.409519
	H72	H	0.901778	0.617463	0.099898
	H73	H	0.098675	0.382465	0.099076
	H74	H	0.092880	0.613704	0.920265
	H75	H	0.896863	0.383423	0.919153
	H76	H	0.087059	0.912031	0.619110
	H77	H	0.089748	0.093348	0.390528
	H78	H	0.903410	0.102971	0.626046
	H79	H	0.909691	0.906127	0.391472
	H80	H	0.616958	0.093716	0.904512
	H81	H	0.380869	0.091916	0.103502
	H82	H	0.614804	0.912211	0.103765
	H83	H	0.386794	0.915933	0.922205
	H84	H	0.617315	0.901028	0.102136
	H85	H	0.381495	0.096581	0.098296
	H86	H	0.616152	0.102427	0.915888
	H87	H	0.379062	0.909829	0.899781
	H88	H	0.897415	0.086202	0.622134
	H89	H	0.093232	0.096104	0.388679
	H90	H	0.088664	0.900754	0.623841
	H91	H	0.902711	0.901541	0.388128
	H92	H	0.096053	0.617748	0.909045
	H93	H	0.090121	0.382306	0.106493
	H94	H	0.907353	0.616957	0.104426
	H95	H	0.903262	0.381265	0.903824
	H96	H	0.408605	0.114343	0.594943
	H97	H	0.589664	0.883476	0.603038
	H98	H	0.585506	0.114050	0.413623
	H99	H	0.406089	0.885421	0.418776
	H100	H	0.593348	0.416284	0.119969
	H101	H	0.586702	0.598870	0.890287
	H102	H	0.410730	0.587031	0.117904
	H103	H	0.407659	0.400275	0.890063
	H104	H	0.118662	0.604253	0.412379
	H105	H	0.881598	0.590911	0.600828
	H106	H	0.114092	0.404195	0.596107
	H107	H	0.883671	0.400166	0.424703
	H108	H	0.908263	0.614950	0.097268
	H109	H	0.088392	0.385878	0.096048
	H110	H	0.084636	0.614280	0.911085
	H111	H	0.913127	0.386904	0.915997
	H112	H	0.097754	0.908389	0.623940
	H113	H	0.094033	0.091754	0.390199
	H114	H	0.914693	0.090133	0.619319
	H115	H	0.901705	0.910079	0.390530
	H116	H	0.611903	0.088788	0.917319
	H117	H	0.384074	0.090076	0.096725
	H118	H	0.613844	0.906995	0.093107
	H119	H	0.379048	0.892792	0.917836
	C120	C	0.376713	0.008289	0.627985
	C121	C	0.619691	0.991950	0.628200
	C122	C	0.620311	0.008187	0.384577
	C123	C	0.376872	0.992056	0.385055
	C124	C	0.619594	0.379003	0.014156
	C125	C	0.620371	0.621996	0.998219
	C126	C	0.376716	0.621943	0.013793
	C127	C	0.376259	0.378273	0.997986
	C128	C	0.006891	0.621552	0.385088
	C129	C	0.989907	0.621087	0.627574
	C130	C	0.005892	0.378227	0.628110
	C131	C	0.990405	0.377902	0.384689
	C132	C	0.877358	0.508473	0.128136
	C133	C	0.120558	0.491706	0.128441
	C134	C	0.119628	0.507645	0.884622
	C135	C	0.876683	0.492064	0.884438
	C136	C	0.119681	0.878917	0.514228
	C137	C	0.120493	0.121840	0.498070
	C138	C	0.877179	0.120711	0.514146
	C139	C	0.876552	0.877964	0.498429
	C140	C	0.506457	0.122148	0.884523
	C141	C	0.490398	0.121523	0.127687
	C142	C	0.507070	0.878151	0.128031
	C143	C	0.490000	0.878783	0.884824
	C144	C	0.379002	0.885722	0.683367
	C145	C	0.617770	0.114695	0.682942
	C146	C	0.616425	0.884890	0.330253
	C147	C	0.380273	0.114994	0.329820
	C148	C	0.673814	0.382864	0.891025
	C149	C	0.675325	0.619130	0.120979
	C150	C	0.321244	0.619022	0.891123
	C151	C	0.322114	0.381731	0.121276
	C152	C	0.883583	0.675933	0.387551
	C153	C	0.112732	0.677069	0.625751
	C154	C	0.882959	0.322606	0.625281
	C155	C	0.113751	0.323930	0.387682
	C156	C	0.882781	0.380321	0.682869
	C157	C	0.112903	0.619052	0.683071
	C158	C	0.883415	0.617522	0.330874
	C159	C	0.113801	0.381706	0.330189
	C160	C	0.379226	0.676816	0.890739
	C161	C	0.618258	0.677225	0.120820
	C162	C	0.615686	0.325341	0.890931
	C163	C	0.378903	0.323317	0.121022
	C164	C	0.673972	0.884700	0.388210
	C165	C	0.674692	0.114967	0.624471
	C166	C	0.321203	0.885593	0.625478
	C167	C	0.322605	0.115161	0.387688
	C168	C	0.880406	0.385167	0.182163
	C169	C	0.117743	0.614911	0.183354
	C170	C	0.117380	0.385228	0.828833
	C171	C	0.880343	0.614959	0.829477
	C172	C	0.174226	0.882475	0.391098
	C173	C	0.175040	0.118578	0.621333
	C174	C	0.822144	0.117953	0.391176
	C175	C	0.821854	0.880897	0.621368
	C176	C	0.382930	0.175682	0.887967
	C177	C	0.613665	0.176493	0.124465
	C178	C	0.383786	0.823056	0.125476
	C179	C	0.613579	0.824979	0.887814
	C180	C	0.383821	0.881114	0.182937
	C181	C	0.614045	0.118446	0.181787
	C182	C	0.383100	0.118495	0.830028
	C183	C	0.613282	0.882504	0.830146
	C184	C	0.879944	0.175548	0.391120
	C185	C	0.117153	0.176130	0.621452
	C186	C	0.116947	0.824085	0.391249
	C187	C	0.879082	0.822733	0.621036
	C188	C	0.174393	0.384903	0.887525
	C189	C	0.175064	0.615074	0.125236
	C190	C	0.822498	0.385169	0.124616
	C191	C	0.822751	0.615212	0.887485
	C192	C	0.398809	0.094003	0.606043
	C193	C	0.597604	0.906044	0.606873
	C194	C	0.599040	0.094194	0.405998
	C195	C	0.398444	0.906369	0.406928
	C196	C	0.597918	0.400666	0.100284
	C197	C	0.597990	0.600412	0.912152
	C198	C	0.399265	0.600037	0.099580
	C199	C	0.398278	0.400071	0.912253
	C200	C	0.093054	0.600578	0.406781
	C201	C	0.903870	0.598805	0.605382
	C202	C	0.091702	0.400992	0.605625
	C203	C	0.904258	0.399283	0.406434
	C204	C	0.899227	0.594197	0.106809
	C205	C	0.098831	0.405942	0.107009
	C206	C	0.097638	0.593076	0.906837
	C207	C	0.897907	0.406028	0.906501
	C208	C	0.097685	0.900544	0.600079
	C209	C	0.098668	0.100227	0.412055
	C210	C	0.898814	0.099418	0.600235
	C211	C	0.898260	0.899642	0.412277
	C212	C	0.592767	0.101234	0.906118
	C213	C	0.404325	0.099331	0.105926
	C214	C	0.593057	0.900223	0.106159
	C215	C	0.403963	0.900040	0.906723
	Zn216	Zn	0.498331	0.000308	0.756567
	Zn217	Zn	0.498800	0.000313	0.256435
	Zn218	Zn	0.748565	0.500402	0.006308
	Zn219	Zn	0.248265	0.499961	0.006198
	Zn220	Zn	-0.001542	0.749457	0.506156
	Zn221	Zn	-0.001520	0.249824	0.506558
	Zn222	Zn	-0.002531	0.499985	0.755909
	Zn223	Zn	-0.001206	0.500146	0.257043
	Zn224	Zn	0.498796	0.750198	0.005797
	Zn225	Zn	0.497833	0.250096	0.006257
	Zn226	Zn	0.747980	-0.000465	0.506577
	Zn227	Zn	0.248093	0.000317	0.506099
	N228	N	0.412910	0.962934	0.684887
	N229	N	0.584093	0.037398	0.685297
	N230	N	0.583822	0.962553	0.328021
	N231	N	0.413370	0.037465	0.327899
	N232	N	0.676411	0.415292	0.968786
	N233	N	0.676650	0.585497	0.043712
	N234	N	0.319855	0.585543	0.968629
	N235	N	0.320113	0.414903	0.043710
	N236	N	0.961202	0.678282	0.420746
	N237	N	0.035279	0.678437	0.592042
	N238	N	0.960523	0.321428	0.591645
	N239	N	0.036161	0.321569	0.420894
	N240	N	0.960192	0.414312	0.684483
	N241	N	0.035509	0.585047	0.684247
	N242	N	0.961077	0.584741	0.328922
	N243	N	0.036103	0.414718	0.328206
	N244	N	0.413126	0.678717	0.968025
	N245	N	0.584761	0.679064	0.043392
	N246	N	0.582764	0.322756	0.968562
	N247	N	0.412087	0.321257	0.043615
	N248	N	0.676458	0.962346	0.421264
	N249	N	0.676012	0.037599	0.591279
	N250	N	0.319834	0.962828	0.591747
	N251	N	0.320300	0.037809	0.421123
	N252	N	0.913755	0.462511	0.184624
	N253	N	0.084464	0.537331	0.185462
	N254	N	0.084050	0.462505	0.826950
	N255	N	0.912857	0.537251	0.827573
	N256	N	0.175752	0.915986	0.468403
	N257	N	0.177177	0.085774	0.543712
	N258	N	0.820516	0.084558	0.468459
	N259	N	0.820263	0.914522	0.543927
	N260	N	0.460677	0.178096	0.921052
	N261	N	0.535721	0.178657	0.091854
	N262	N	0.461424	0.821040	0.092142
	N263	N	0.536153	0.822745	0.921266
	N264	N	0.461247	0.914816	0.184533
	N265	N	0.536436	0.084673	0.183653
	N266	N	0.460958	0.085877	0.827890
	N267	N	0.535499	0.915090	0.828084
	N268	N	0.913584	0.177576	0.468692
	N269	N	0.084175	0.178482	0.543702
	N270	N	0.083690	0.821795	0.468763
	N271	N	0.912444	0.820849	0.543610
	N272	N	0.175856	0.462043	0.921585
	N273	N	0.176797	0.537807	0.091853
	N274	N	0.820844	0.462687	0.091427
	N275	N	0.820462	0.537833	0.920885
	O276	O	0.442456	0.481817	0.525912
	H277	H	0.438686	0.487263	0.518394
	H278	H	0.436874	0.475749	0.541575
	O279	O	0.422926	0.505989	0.561908
	H280	H	0.428176	0.501265	0.566554
	H281	H	0.423729	0.502152	0.567801
	O282	O	1.422578	0.474197	-0.434229
	H283	H	1.420914	0.477027	-0.446141
	H284	H	1.419144	0.482461	-0.429859
	O285	O	0.470837	0.478993	0.537038
	H286	H	0.466727	0.478305	0.530553
	H287	H	0.472540	0.476111	0.539684
