data_Molecule from HDF5

_cell_length_a		16.142624
_cell_length_b		16.197490
_cell_length_c		16.460788
_cell_angle_alpha	90.068289
_cell_angle_beta	90.063042
_cell_angle_gamma	89.743368
_symmetry_space_group_name_H-M	'P 1'
_symmetry_Int_Tables_number		1

loop_
	_symmetry_equiv_pos_as_xyz
	x,y,z

loop_
	_atom_site_label
	_atom_site_type_symbol
	_atom_site_fract_x
	_atom_site_fract_y
	_atom_site_fract_z
	H0	H	0.404269	0.834976	0.717456
	H1	H	0.608220	0.160528	0.720606
	H2	H	0.611008	0.836661	0.283200
	H3	H	0.401610	0.160961	0.282765
	H4	H	0.722292	0.396223	0.839390
	H5	H	0.721478	0.597647	0.162607
	H6	H	0.289398	0.595700	0.837898
	H7	H	0.288908	0.399671	0.163196
	H8	H	0.841610	0.714784	0.403890
	H9	H	0.171675	0.712695	0.599836
	H10	H	0.842192	0.286908	0.597894
	H11	H	0.171648	0.286311	0.403164
	H12	H	0.843695	0.395558	0.717606
	H13	H	0.168830	0.602062	0.720033
	H14	H	0.842705	0.604860	0.282977
	H15	H	0.168953	0.397182	0.283608
	H16	H	0.404229	0.714118	0.838591
	H17	H	0.603822	0.713649	0.163000
	H18	H	0.605086	0.279626	0.839484
	H19	H	0.403617	0.281060	0.162950
	H20	H	0.721223	0.835139	0.403399
	H21	H	0.717264	0.163865	0.599053
	H22	H	0.291415	0.834760	0.599660
	H23	H	0.292233	0.163793	0.403663
	H24	H	0.902961	0.336068	0.219415
	H25	H	0.106722	0.662356	0.217633
	H26	H	0.109191	0.336587	0.783280
	H27	H	0.899380	0.660698	0.781698
	H28	H	0.222056	0.899882	0.338764
	H29	H	0.220740	0.097637	0.662783
	H30	H	0.787996	0.100531	0.340245
	H31	H	0.793171	0.901480	0.663493
	H32	H	0.339222	0.210364	0.904143
	H33	H	0.669463	0.209984	0.098781
	H34	H	0.338271	0.786873	0.097276
	H35	H	0.669878	0.783639	0.904089
	H36	H	0.341699	0.896710	0.218545
	H37	H	0.668057	0.100362	0.218239
	H38	H	0.341295	0.098731	0.784339
	H39	H	0.668368	0.893103	0.784541
	H40	H	0.906039	0.216492	0.339821
	H41	H	0.106083	0.215386	0.662570
	H42	H	0.107913	0.781332	0.339303
	H43	H	0.907779	0.783511	0.662260
	H44	H	0.216827	0.333664	0.905321
	H45	H	0.217525	0.663609	0.097738
	H46	H	0.794212	0.332417	0.097507
	H47	H	0.789203	0.662008	0.903223
	H48	H	0.412376	0.117454	0.601549
	H49	H	0.596876	0.883131	0.591044
	H50	H	0.590828	0.116115	0.403184
	H51	H	0.424721	0.887647	0.419198
	H52	H	0.598273	0.401299	0.115696
	H53	H	0.595879	0.584639	0.888341
	H54	H	0.411156	0.593470	0.116134
	H55	H	0.410800	0.396200	0.884197
	H56	H	0.124000	0.596701	0.412465
	H57	H	0.887345	0.593930	0.596611
	H58	H	0.124680	0.404922	0.592679
	H59	H	0.891248	0.408877	0.415850
	H60	H	0.122734	0.411764	0.591426
	H61	H	0.890289	0.592621	0.589085
	H62	H	0.119568	0.582160	0.411905
	H63	H	0.890093	0.416103	0.405373
	H64	H	0.410231	0.590466	0.114474
	H65	H	0.592445	0.592331	0.886972
	H66	H	0.599942	0.404880	0.116141
	H67	H	0.405849	0.408680	0.884853
	H68	H	0.592129	0.113370	0.414089
	H69	H	0.602458	0.880502	0.594267
	H70	H	0.421083	0.113527	0.594049
	H71	H	0.402323	0.879479	0.412163
	H72	H	0.912919	0.613157	0.088441
	H73	H	0.097155	0.384841	0.087202
	H74	H	0.098605	0.616272	0.908797
	H75	H	0.912463	0.382557	0.913293
	H76	H	0.094883	0.909527	0.613519
	H77	H	0.091094	0.103354	0.384296
	H78	H	0.910491	0.097127	0.617618
	H79	H	0.908477	0.910139	0.385682
	H80	H	0.617872	0.080186	0.914394
	H81	H	0.390581	0.086223	0.086406
	H82	H	0.623481	0.900002	0.092423
	H83	H	0.387358	0.909438	0.903773
	H84	H	0.619690	0.909826	0.090003
	H85	H	0.387094	0.082661	0.101257
	H86	H	0.624627	0.085851	0.899838
	H87	H	0.386332	0.904045	0.906930
	H88	H	0.911158	0.091581	0.616606
	H89	H	0.112083	0.095533	0.381518
	H90	H	0.097630	0.901513	0.616651
	H91	H	0.918939	0.910811	0.388200
	H92	H	0.093675	0.616278	0.905222
	H93	H	0.102012	0.378106	0.099579
	H94	H	0.908979	0.616445	0.095285
	H95	H	0.911697	0.379458	0.901574
	H96	H	0.410550	0.115228	0.590938
	H97	H	0.596563	0.880900	0.597245
	H98	H	0.601246	0.117481	0.408220
	H99	H	0.421512	0.879815	0.395526
	H100	H	0.596062	0.404427	0.114643
	H101	H	0.600636	0.591359	0.884399
	H102	H	0.413767	0.591766	0.114689
	H103	H	0.417614	0.406800	0.889888
	H104	H	0.125203	0.588537	0.399672
	H105	H	0.890378	0.586750	0.594099
	H106	H	0.124968	0.409891	0.597575
	H107	H	0.886113	0.403173	0.404786
	H108	H	0.917966	0.614511	0.096739
	H109	H	0.088578	0.383378	0.098915
	H110	H	0.093701	0.614734	0.910846
	H111	H	0.922048	0.383522	0.906521
	H112	H	0.103759	0.908752	0.615768
	H113	H	0.095930	0.081553	0.389815
	H114	H	0.915409	0.095246	0.616082
	H115	H	0.914718	0.902045	0.384876
	H116	H	0.623399	0.096093	0.913467
	H117	H	0.383970	0.097822	0.095452
	H118	H	0.623285	0.907518	0.100487
	H119	H	0.389098	0.908778	0.909720
	C120	C	0.385063	0.006841	0.623448
	C121	C	0.627432	0.989767	0.623376
	C122	C	0.626453	0.007746	0.379682
	C123	C	0.385213	0.990350	0.379854
	C124	C	0.627531	0.374084	0.009190
	C125	C	0.626125	0.619234	0.993101
	C126	C	0.382094	0.620821	0.008457
	C127	C	0.382193	0.375263	0.993123
	C128	C	0.014418	0.620148	0.379715
	C129	C	0.997726	0.620349	0.622797
	C130	C	0.015611	0.378942	0.622268
	C131	C	0.997331	0.378941	0.379552
	C132	C	0.884142	0.506730	0.122662
	C133	C	0.125777	0.490337	0.123295
	C134	C	0.125332	0.507551	0.879817
	C135	C	0.883741	0.489582	0.878276
	C136	C	0.128882	0.876640	0.508806
	C137	C	0.128608	0.122195	0.492232
	C138	C	0.883085	0.123149	0.509604
	C139	C	0.885134	0.878327	0.492836
	C140	C	0.513312	0.117692	0.880158
	C141	C	0.495963	0.118544	0.122966
	C142	C	0.513267	0.876615	0.122804
	C143	C	0.496311	0.876782	0.879063
	C144	C	0.385420	0.883809	0.678973
	C145	C	0.627056	0.112279	0.681060
	C146	C	0.628465	0.885117	0.322833
	C147	C	0.383958	0.112760	0.322677
	C148	C	0.683753	0.376013	0.887658
	C149	C	0.682586	0.617628	0.114444
	C150	C	0.326577	0.617527	0.886645
	C151	C	0.326536	0.378501	0.114712
	C152	C	0.890655	0.676930	0.382555
	C153	C	0.121797	0.675795	0.620795
	C154	C	0.891751	0.323613	0.619307
	C155	C	0.121800	0.323279	0.381946
	C156	C	0.892563	0.377924	0.678645
	C157	C	0.120616	0.620473	0.680378
	C158	C	0.891497	0.622440	0.322491
	C159	C	0.120461	0.378588	0.322606
	C160	C	0.383952	0.675917	0.886755
	C161	C	0.624151	0.675595	0.114386
	C162	C	0.625601	0.318089	0.887599
	C163	C	0.383974	0.319501	0.114570
	C164	C	0.683566	0.884432	0.382380
	C165	C	0.681279	0.113985	0.620829
	C166	C	0.329145	0.883749	0.620275
	C167	C	0.329567	0.114278	0.382821
	C168	C	0.884536	0.384063	0.179761
	C169	C	0.125404	0.613800	0.178817
	C170	C	0.126801	0.384901	0.822957
	C171	C	0.881922	0.612269	0.821605
	C172	C	0.184593	0.878880	0.387257
	C173	C	0.183532	0.118836	0.614274
	C174	C	0.826646	0.120890	0.388518
	C175	C	0.830167	0.880816	0.614765
	C176	C	0.388684	0.172768	0.883240
	C177	C	0.619886	0.173441	0.120163
	C178	C	0.388565	0.822771	0.119125
	C179	C	0.620350	0.820799	0.882844
	C180	C	0.390109	0.877521	0.179422
	C181	C	0.619162	0.118781	0.179429
	C182	C	0.389930	0.117660	0.823473
	C183	C	0.619707	0.875254	0.823364
	C184	C	0.885280	0.178643	0.388173
	C185	C	0.126393	0.177489	0.614107
	C186	C	0.127863	0.819796	0.387655
	C187	C	0.887502	0.822372	0.614331
	C188	C	0.180903	0.383569	0.883247
	C189	C	0.180650	0.614340	0.119255
	C190	C	0.830212	0.382269	0.119538
	C191	C	0.826769	0.612812	0.881581
	C192	C	0.408055	0.093172	0.601824
	C193	C	0.605216	0.903803	0.600847
	C194	C	0.602038	0.093335	0.401869
	C195	C	0.409103	0.904670	0.402396
	C196	C	0.604600	0.397017	0.093511
	C197	C	0.603180	0.596062	0.908485
	C198	C	0.404941	0.598233	0.093134
	C199	C	0.404838	0.397359	0.908232
	C200	C	0.100474	0.596100	0.401823
	C201	C	0.911704	0.597717	0.599827
	C202	C	0.101941	0.402131	0.600295
	C203	C	0.911265	0.402421	0.402204
	C204	C	0.906511	0.592406	0.100166
	C205	C	0.102863	0.404399	0.101641
	C206	C	0.102003	0.593500	0.901794
	C207	C	0.908289	0.403896	0.900661
	C208	C	0.105577	0.899782	0.593497
	C209	C	0.106189	0.099997	0.407099
	C210	C	0.905755	0.101118	0.594794
	C211	C	0.907566	0.900990	0.408179
	C212	C	0.599486	0.094314	0.902729
	C213	C	0.409556	0.095627	0.100958
	C214	C	0.599794	0.899183	0.100971
	C215	C	0.409954	0.900427	0.900460
	Zn216	Zn	0.506265	-0.002610	0.751131
	Zn217	Zn	0.505290	-0.001783	0.250919
	Zn218	Zn	0.756010	0.497049	0.001225
	Zn219	Zn	0.253108	0.498415	0.000900
	Zn220	Zn	0.006805	0.748436	0.500845
	Zn221	Zn	0.006980	0.251405	0.501501
	Zn222	Zn	0.005636	0.498978	0.750540
	Zn223	Zn	0.004722	0.499619	0.251292
	Zn224	Zn	0.503970	0.749559	0.000367
	Zn225	Zn	0.504426	0.245526	0.001110
	Zn226	Zn	0.754414	-0.000301	0.501627
	Zn227	Zn	0.257445	-0.000598	0.500981
	N228	N	0.419640	0.961479	0.680721
	N229	N	0.594485	0.033898	0.683015
	N230	N	0.593549	0.962708	0.321073
	N231	N	0.417955	0.034830	0.320843
	N232	N	0.685090	0.410095	0.964177
	N233	N	0.683969	0.583253	0.038021
	N234	N	0.325456	0.583693	0.963290
	N235	N	0.325476	0.412568	0.038279
	N236	N	0.968027	0.675707	0.417576
	N237	N	0.044417	0.675895	0.585586
	N238	N	0.969360	0.323735	0.585136
	N239	N	0.044300	0.323271	0.416790
	N240	N	0.970594	0.411735	0.680531
	N241	N	0.042391	0.586893	0.681853
	N242	N	0.969332	0.587688	0.320817
	N243	N	0.042166	0.412498	0.321028
	N244	N	0.417409	0.678355	0.963619
	N245	N	0.589641	0.676572	0.037840
	N246	N	0.591429	0.316599	0.964065
	N247	N	0.417882	0.317426	0.037853
	N248	N	0.682471	0.961673	0.417134
	N249	N	0.681696	0.036931	0.585624
	N250	N	0.328747	0.961340	0.586490
	N251	N	0.330175	0.037088	0.417786
	N252	N	0.917148	0.462497	0.181914
	N253	N	0.092234	0.535787	0.181536
	N254	N	0.092978	0.463007	0.820672
	N255	N	0.916239	0.534595	0.819221
	N256	N	0.185489	0.913409	0.463685
	N257	N	0.185031	0.085311	0.537479
	N258	N	0.825213	0.087317	0.465056
	N259	N	0.828316	0.914939	0.538198
	N260	N	0.466428	0.173056	0.917599
	N261	N	0.542290	0.173471	0.085727
	N262	N	0.466266	0.822021	0.084805
	N263	N	0.542617	0.821786	0.916992
	N264	N	0.468849	0.909944	0.182061
	N265	N	0.540932	0.085320	0.181254
	N266	N	0.468281	0.084082	0.821472
	N267	N	0.541676	0.909382	0.820844
	N268	N	0.919516	0.180237	0.464776
	N269	N	0.093092	0.179594	0.537062
	N270	N	0.094079	0.818296	0.464396
	N271	N	0.920727	0.820633	0.537612
	N272	N	0.180006	0.460784	0.917935
	N273	N	0.181193	0.536544	0.085564
	N274	N	0.829806	0.459383	0.084605
	N275	N	0.827777	0.535511	0.916328
	O276	O	-0.001454	0.023492	0.045921
	H277	H	0.002416	0.028301	0.044473
	H278	H	-0.010867	0.024886	0.046839
	O279	O	0.593703	0.423323	0.434364
	H280	H	0.614158	0.421557	0.435431
	H281	H	0.592583	0.418650	0.440200
	O282	O	0.470728	0.602754	0.367500
	H283	H	0.470217	0.583232	0.355633
	H284	H	0.472850	0.592903	0.382730
	O285	O	-0.096436	0.003870	0.993448
	H286	H	-0.115133	0.002970	0.987126
	H287	H	-0.085597	-0.008936	0.996182
	O288	O	1.021420	0.006570	-0.095709
	H289	H	1.012094	0.015970	-0.101446
	H290	H	1.018394	0.005574	-0.102172
	O291	O	1.002560	1.030985	0.978762
	H292	H	1.001515	1.032450	0.970514
	H293	H	0.995256	1.037290	0.975530
	O294	O	0.441734	1.404577	0.517050
	H295	H	0.442512	1.412857	0.518956
	H296	H	0.445174	1.402236	0.522788
	O297	O	0.972791	-0.013602	0.969522
	H298	H	0.979097	-0.011284	0.967953
	H299	H	0.973708	-0.010974	0.976414
	O300	O	0.649953	0.417855	0.434655
	H301	H	0.664237	0.410867	0.420197
	H302	H	0.659632	0.417944	0.444138
	O303	O	1.639996	0.491860	-0.360892
	H304	H	1.628967	0.499704	-0.366804
	H305	H	1.638494	0.501574	-0.361091
	O306	O	0.046116	1.014436	1.016600
	H307	H	0.037043	1.023112	1.024704
	H308	H	0.050469	1.019687	1.019620
	O309	O	0.489561	0.480292	0.408212
	H310	H	0.481947	0.476339	0.407782
	H311	H	0.487084	0.482495	0.394746
	O312	O	0.526105	-0.507943	1.652856
	H313	H	0.533550	-0.504853	1.660660
	H314	H	0.529779	-0.501469	1.645304
	O315	O	0.501599	0.594318	0.456653
	H316	H	0.498506	0.580161	0.449961
	H317	H	0.504848	0.589747	0.452446
	O318	O	0.019323	0.972095	0.977736
	H319	H	0.029844	0.970525	0.981741
	H320	H	0.016307	0.965779	0.975299
	O321	O	0.978101	1.031881	1.023562
	H322	H	0.976235	1.032939	1.021497
	H323	H	0.970529	1.027884	1.016440
	O324	O	0.514407	0.503559	0.461812
	H325	H	0.515610	0.490267	0.454162
	H326	H	0.529336	0.502216	0.462308
	O327	O	0.452847	0.495870	0.541515
	H328	H	0.450347	0.499979	0.537172
	H329	H	0.437578	0.506964	0.527896
	O330	O	0.965739	-0.082106	0.977170
	H331	H	0.974152	-0.080621	0.966377
	H332	H	0.969518	-0.080155	0.980146
	O333	O	0.995718	1.050811	-0.002307
	H334	H	0.993163	1.039985	-0.003647
	H335	H	0.993992	1.047934	-0.003581
	O336	O	0.451768	0.460087	0.652921
	H337	H	0.449065	0.468154	0.653750
	H338	H	0.444475	0.464605	0.658805
	O339	O	0.540897	0.449180	0.438331
	H340	H	0.541692	0.451097	0.432556
	H341	H	0.529222	0.449297	0.454656
	O342	O	0.012808	1.014106	0.003454
	H343	H	0.017149	1.012970	0.003614
	H344	H	0.015911	1.019543	0.004361
	O345	O	0.026635	0.015999	-0.067552
	H346	H	0.031183	0.007237	-0.075421
	H347	H	0.022246	0.026028	-0.070488
	O348	O	0.465066	0.532893	0.430338
	H349	H	0.469256	0.531310	0.422453
	H350	H	0.450562	0.537435	0.431591
	O351	O	0.447329	0.484699	0.445701
	H352	H	0.445881	0.495156	0.448160
	H353	H	0.445598	0.486978	0.454686
	O354	O	0.565320	0.349208	0.456030
	H355	H	0.571737	0.341509	0.459258
	H356	H	0.565981	0.358523	0.472216
	O357	O	0.587996	0.537078	0.592318
	H358	H	0.589101	0.541063	0.592372
	H359	H	0.574845	0.532097	0.582782
	O360	O	-0.551339	-0.389228	-0.532665
	H361	H	-0.536325	-0.410641	-0.536494
	H362	H	-0.554811	-0.376507	-0.543876
	O363	O	0.360750	1.628019	0.442746
	H364	H	0.378911	1.630906	0.437788
	H365	H	0.348583	1.633298	0.432743
	O366	O	-0.516628	0.390971	1.482473
	H367	H	-0.507340	0.379025	1.494560
	H368	H	-0.535095	0.386566	1.475385
	O369	O	0.575449	0.623848	0.566329
	H370	H	0.576960	0.625000	0.556190
	H371	H	0.578809	0.633092	0.567373
