data_Molecule from HDF5

_cell_length_a		16.466723
_cell_length_b		16.458062
_cell_length_c		16.408677
_cell_angle_alpha	90.004843
_cell_angle_beta	89.948979
_cell_angle_gamma	89.870307
_symmetry_space_group_name_H-M	'P 1'
_symmetry_Int_Tables_number		1

loop_
	_symmetry_equiv_pos_as_xyz
	x,y,z

loop_
	_atom_site_label
	_atom_site_type_symbol
	_atom_site_fract_x
	_atom_site_fract_y
	_atom_site_fract_z
	H0	H	0.389872	0.847270	0.731921
	H1	H	0.604790	0.160249	0.733977
	H2	H	0.600510	0.846913	0.286526
	H3	H	0.387861	0.161524	0.285994
	H4	H	0.718767	0.395560	0.852812
	H5	H	0.719480	0.613463	0.166003
	H6	H	0.273842	0.610371	0.850214
	H7	H	0.273685	0.400701	0.166266
	H8	H	0.838879	0.729318	0.400560
	H9	H	0.150725	0.728309	0.618581
	H10	H	0.838601	0.280924	0.617120
	H11	H	0.153082	0.282414	0.403443
	H12	H	0.838660	0.395930	0.733978
	H13	H	0.152242	0.609662	0.731808
	H14	H	0.839288	0.614666	0.283722
	H15	H	0.154054	0.399907	0.287611
	H16	H	0.388816	0.726837	0.850278
	H17	H	0.603073	0.728883	0.165825
	H18	H	0.602413	0.280353	0.852068
	H19	H	0.384947	0.280692	0.164955
	H20	H	0.719928	0.847820	0.399385
	H21	H	0.718928	0.161339	0.615940
	H22	H	0.270640	0.848474	0.618815
	H23	H	0.270051	0.160349	0.400094
	H24	H	0.888528	0.347946	0.233520
	H25	H	0.099436	0.663419	0.229516
	H26	H	0.101977	0.347417	0.786374
	H27	H	0.887984	0.661012	0.786155
	H28	H	0.216982	0.897619	0.351933
	H29	H	0.218820	0.112604	0.666311
	H30	H	0.773107	0.112164	0.351455
	H31	H	0.769735	0.894908	0.665698
	H32	H	0.338083	0.228173	0.900135
	H33	H	0.650527	0.230360	0.117999
	H34	H	0.337816	0.783303	0.114974
	H35	H	0.652303	0.779553	0.899648
	H36	H	0.338095	0.899790	0.229966
	H37	H	0.651900	0.112557	0.232031
	H38	H	0.339066	0.113242	0.783050
	H39	H	0.653236	0.896914	0.785309
	H40	H	0.887471	0.229110	0.352306
	H41	H	0.102189	0.227731	0.666698
	H42	H	0.100507	0.782170	0.351476
	H43	H	0.886589	0.780958	0.667027
	H44	H	0.218549	0.347788	0.900474
	H45	H	0.216551	0.662784	0.113751
	H46	H	0.771816	0.348057	0.118214
	H47	H	0.769630	0.659890	0.900279
	H48	H	0.407104	0.113454	0.587949
	H49	H	0.578025	0.893379	0.597495
	H50	H	0.581810	0.115789	0.421044
	H51	H	0.413475	0.893709	0.420926
	H52	H	0.582163	0.410958	0.123715
	H53	H	0.576398	0.579071	0.903164
	H54	H	0.408960	0.592606	0.120821
	H55	H	0.405651	0.413497	0.893795
	H56	H	0.107020	0.591896	0.422199
	H57	H	0.882145	0.589787	0.601117
	H58	H	0.106963	0.416961	0.595576
	H59	H	0.881519	0.414139	0.419360
	H60	H	0.106946	0.417531	0.596909
	H61	H	0.881367	0.595761	0.596314
	H62	H	0.108128	0.592409	0.419964
	H63	H	0.884366	0.417362	0.424878
	H64	H	0.406196	0.596505	0.122763
	H65	H	0.574264	0.604120	0.895240
	H66	H	0.587080	0.422782	0.121672
	H67	H	0.404824	0.418146	0.894670
	H68	H	0.585446	0.117614	0.422746
	H69	H	0.584138	0.894186	0.590149
	H70	H	0.401491	0.119830	0.598583
	H71	H	0.400941	0.891343	0.425805
	H72	H	0.909878	0.614455	0.093382
	H73	H	0.083877	0.391482	0.100242
	H74	H	0.080169	0.617409	0.920159
	H75	H	0.900381	0.388258	0.919931
	H76	H	0.079364	0.913783	0.622624
	H77	H	0.079854	0.088343	0.399030
	H78	H	0.908021	0.093715	0.621787
	H79	H	0.914031	0.919900	0.399788
	H80	H	0.608274	0.095523	0.922479
	H81	H	0.380022	0.094469	0.102214
	H82	H	0.606341	0.919224	0.093816
	H83	H	0.385617	0.920700	0.924254
	H84	H	0.609358	0.916673	0.100314
	H85	H	0.383288	0.095658	0.091807
	H86	H	0.604728	0.089973	0.925876
	H87	H	0.382086	0.918194	0.914782
	H88	H	0.906051	0.091844	0.621570
	H89	H	0.079650	0.097614	0.395903
	H90	H	0.085689	0.915549	0.624648
	H91	H	0.908426	0.911026	0.396209
	H92	H	0.084731	0.616849	0.921992
	H93	H	0.083510	0.393239	0.095857
	H94	H	0.902876	0.617811	0.093770
	H95	H	0.913345	0.392180	0.916777
	H96	H	0.414071	0.115342	0.599372
	H97	H	0.587219	0.890081	0.598142
	H98	H	0.584460	0.117993	0.418488
	H99	H	0.404047	0.888414	0.412701
	H100	H	0.573884	0.420349	0.118956
	H101	H	0.596306	0.591527	0.891744
	H102	H	0.403931	0.592291	0.121593
	H103	H	0.409031	0.415842	0.895955
	H104	H	0.107662	0.594346	0.421824
	H105	H	0.885423	0.589574	0.593816
	H106	H	0.107136	0.416186	0.596817
	H107	H	0.884147	0.420462	0.418893
	H108	H	0.907639	0.617841	0.099901
	H109	H	0.087282	0.390464	0.097489
	H110	H	0.084248	0.618610	0.918194
	H111	H	0.907901	0.395217	0.929524
	H112	H	0.082092	0.920608	0.620857
	H113	H	0.087965	0.091914	0.394855
	H114	H	0.909109	0.091179	0.621365
	H115	H	0.903521	0.920829	0.396916
	H116	H	0.606632	0.089109	0.918727
	H117	H	0.384934	0.086266	0.097753
	H118	H	0.608927	0.912914	0.094626
	H119	H	0.382318	0.911101	0.922444
	C120	C	0.374445	0.012649	0.629666
	C121	C	0.617259	0.995870	0.629890
	C122	C	0.617253	0.013443	0.386855
	C123	C	0.372961	0.995277	0.387153
	C124	C	0.615273	0.383443	0.017841
	C125	C	0.616452	0.625801	1.000409
	C126	C	0.373806	0.626218	0.017184
	C127	C	0.373156	0.383194	0.999045
	C128	C	0.003910	0.626406	0.387796
	C129	C	0.986244	0.625115	0.630583
	C130	C	0.003603	0.383168	0.630575
	C131	C	0.987320	0.383889	0.387929
	C132	C	0.873572	0.513297	0.130591
	C133	C	0.116929	0.496360	0.129849
	C134	C	0.116406	0.513453	0.887282
	C135	C	0.873125	0.495055	0.887916
	C136	C	0.115806	0.883328	0.518303
	C137	C	0.116340	0.125869	0.500774
	C138	C	0.874094	0.126289	0.517939
	C139	C	0.874130	0.883286	0.501335
	C140	C	0.503045	0.125549	0.887669
	C141	C	0.486139	0.126475	0.130681
	C142	C	0.503881	0.883597	0.129339
	C143	C	0.487242	0.882652	0.886565
	C144	C	0.371412	0.894539	0.691569
	C145	C	0.621926	0.113632	0.692609
	C146	C	0.619884	0.894589	0.325846
	C147	C	0.369936	0.113991	0.326415
	C148	C	0.677559	0.378775	0.899716
	C149	C	0.678777	0.630564	0.118659
	C150	C	0.313946	0.628771	0.897740
	C151	C	0.312641	0.381465	0.118379
	C152	C	0.885698	0.688136	0.383552
	C153	C	0.104132	0.687104	0.635112
	C154	C	0.885729	0.321485	0.634672
	C155	C	0.105951	0.322863	0.385048
	C156	C	0.885668	0.378726	0.692975
	C157	C	0.104785	0.628420	0.691748
	C158	C	0.886191	0.631114	0.325117
	C159	C	0.106245	0.381274	0.327453
	C160	C	0.371342	0.686575	0.897965
	C161	C	0.620771	0.688032	0.118636
	C162	C	0.619519	0.321455	0.899482
	C163	C	0.368378	0.321875	0.117726
	C164	C	0.679083	0.895205	0.382325
	C165	C	0.678839	0.113998	0.634048
	C166	C	0.312166	0.895096	0.635152
	C167	C	0.311187	0.113495	0.383265
	C168	C	0.870503	0.395158	0.192603
	C169	C	0.118477	0.615788	0.189717
	C170	C	0.120121	0.394778	0.826211
	C171	C	0.869824	0.613535	0.826338
	C172	C	0.176742	0.879788	0.399489
	C173	C	0.177945	0.129996	0.619211
	C174	C	0.813052	0.130028	0.399104
	C175	C	0.811124	0.878336	0.618793
	C176	C	0.385121	0.187316	0.882878
	C177	C	0.603603	0.189109	0.135098
	C178	C	0.385380	0.823358	0.132602
	C179	C	0.605198	0.820338	0.882446
	C180	C	0.385385	0.881412	0.189953
	C181	C	0.604187	0.130697	0.192324
	C182	C	0.385965	0.130303	0.824204
	C183	C	0.605666	0.878935	0.825416
	C184	C	0.869992	0.188380	0.399722
	C185	C	0.119935	0.187286	0.619366
	C186	C	0.118960	0.822067	0.399418
	C187	C	0.869225	0.821152	0.619295
	C188	C	0.177912	0.394953	0.883382
	C189	C	0.176445	0.615605	0.131798
	C190	C	0.812295	0.395114	0.135348
	C191	C	0.810692	0.612898	0.883050
	C192	C	0.400265	0.094743	0.602921
	C193	C	0.590882	0.914083	0.603012
	C194	C	0.591428	0.095716	0.413233
	C195	C	0.398680	0.912702	0.412662
	C196	C	0.588671	0.410419	0.100084
	C197	C	0.590125	0.599242	0.918240
	C198	C	0.399103	0.601004	0.099996
	C199	C	0.399047	0.408551	0.916448
	C200	C	0.085978	0.600414	0.413811
	C201	C	0.904314	0.599139	0.604495
	C202	C	0.085584	0.409447	0.604163
	C203	C	0.904866	0.409669	0.413563
	C204	C	0.899452	0.595185	0.103524
	C205	C	0.092120	0.413546	0.104974
	C206	C	0.090526	0.596122	0.912866
	C207	C	0.899625	0.413265	0.914574
	C208	C	0.089850	0.909386	0.601099
	C209	C	0.090234	0.099859	0.418355
	C210	C	0.900351	0.099890	0.600176
	C211	C	0.900791	0.909673	0.418808
	C212	C	0.585074	0.099143	0.914686
	C213	C	0.403947	0.099904	0.104598
	C214	C	0.586691	0.908880	0.103500
	C215	C	0.405024	0.909114	0.912839
	Zn216	Zn	0.496262	0.004611	0.758096
	Zn217	Zn	0.495347	0.004388	0.259042
	Zn218	Zn	0.744448	0.503708	0.009802
	Zn219	Zn	0.245250	0.505179	0.007538
	Zn220	Zn	-0.005429	0.754505	0.509789
	Zn221	Zn	-0.004473	0.254461	0.508926
	Zn222	Zn	-0.004489	0.503687	0.759402
	Zn223	Zn	-0.004319	0.504956	0.258541
	Zn224	Zn	0.495045	0.754799	0.008803
	Zn225	Zn	0.494212	0.254747	0.009005
	Zn226	Zn	0.745678	0.004543	0.508815
	Zn227	Zn	0.244929	0.004644	0.509523
	N228	N	0.409444	0.968723	0.688344
	N229	N	0.584607	0.039169	0.690279
	N230	N	0.582318	0.969163	0.328474
	N231	N	0.407889	0.039480	0.328617
	N232	N	0.674935	0.416598	0.974377
	N233	N	0.676402	0.592758	0.043933
	N234	N	0.315300	0.592059	0.972799
	N235	N	0.315313	0.418764	0.043634
	N236	N	0.959678	0.685294	0.421989
	N237	N	0.029430	0.685249	0.597641
	N238	N	0.959947	0.324174	0.596506
	N239	N	0.030901	0.324187	0.421577
	N240	N	0.959978	0.416430	0.690519
	N241	N	0.030814	0.590322	0.688977
	N242	N	0.960553	0.593153	0.327632
	N243	N	0.031343	0.418381	0.328983
	N244	N	0.407739	0.685542	0.973429
	N245	N	0.582922	0.685472	0.044092
	N246	N	0.581596	0.324112	0.974070
	N247	N	0.405121	0.322697	0.042594
	N248	N	0.677689	0.970081	0.419482
	N249	N	0.676145	0.039700	0.595916
	N250	N	0.314211	0.969489	0.597240
	N251	N	0.312944	0.038724	0.420187
	N252	N	0.907614	0.469757	0.190107
	N253	N	0.082272	0.540691	0.188683
	N254	N	0.082594	0.469323	0.828534
	N255	N	0.907905	0.539077	0.829041
	N256	N	0.175011	0.916965	0.474458
	N257	N	0.175707	0.092529	0.544476
	N258	N	0.815151	0.092234	0.473730
	N259	N	0.813948	0.916279	0.544183
	N260	N	0.458848	0.184343	0.921644
	N261	N	0.528997	0.186660	0.097816
	N262	N	0.460272	0.824632	0.095676
	N263	N	0.530485	0.822580	0.919804
	N264	N	0.460187	0.918111	0.188033
	N265	N	0.530164	0.092269	0.189622
	N266	N	0.460593	0.092767	0.826889
	N267	N	0.531390	0.917054	0.827863
	N268	N	0.907188	0.186248	0.474632
	N269	N	0.082325	0.185000	0.544565
	N270	N	0.082001	0.823904	0.474631
	N271	N	0.907467	0.824189	0.545028
	N272	N	0.175990	0.469948	0.920358
	N273	N	0.175913	0.540259	0.095572
	N274	N	0.814033	0.469597	0.097408
	N275	N	0.812508	0.538332	0.920413
	O276	O	0.702785	0.552956	0.715646
	H277	H	0.726145	0.542552	0.748707
	H278	H	0.658183	0.533134	0.723434
	O279	O	1.199802	0.085945	1.214863
	H280	H	1.187138	0.076996	1.220907
	H281	H	1.214421	0.089527	1.220411
	O282	O	0.566383	0.510825	0.602646
	H283	H	0.548806	0.482642	0.606158
	H284	H	0.539534	0.534515	0.596547
	O285	O	0.559444	0.640090	0.391596
	H286	H	0.564780	0.648503	0.388408
	H287	H	0.555510	0.635553	0.397883
	O288	O	1.102964	0.972039	0.215829
	H289	H	1.095318	0.970342	0.218038
	H290	H	1.081877	0.989948	0.212463
	O291	O	0.607574	0.376712	0.539731
	H292	H	0.631670	0.373774	0.542215
	H293	H	0.592303	0.376104	0.529279
	O294	O	-0.197357	0.079061	0.809455
	H295	H	-0.181630	0.049482	0.796717
	H296	H	-0.205635	0.076691	0.790828
	O297	O	0.403149	0.614825	0.529768
	H298	H	0.391662	0.606235	0.513497
	H299	H	0.409192	0.616296	0.530047
	O300	O	0.657783	0.295262	0.525990
	H301	H	0.677406	0.277477	0.533650
	H302	H	0.658586	0.314164	0.541476
	O303	O	-0.215526	1.214691	-0.007541
	H304	H	-0.231686	1.221044	-0.030405
	H305	H	-0.218189	1.224025	-0.039451
	O306	O	0.443498	0.697024	0.554343
	H307	H	0.435902	0.696322	0.530650
	H308	H	0.433832	0.703100	0.560312
	O309	O	1.234918	-0.231284	0.355187
	H310	H	1.243524	-0.217139	0.334444
	H311	H	1.206875	-0.218252	0.348952
	O312	O	-0.213270	0.797226	1.059878
	H313	H	-0.242907	0.781122	1.057735
	H314	H	-0.207841	0.816601	1.028284
	O315	O	0.673178	0.322250	0.337497
	H316	H	0.683774	0.354737	0.336634
	H317	H	0.684820	0.321347	0.363890
	O318	O	1.193955	-0.194329	-0.063113
	H319	H	1.219216	-0.213146	-0.049638
	H320	H	1.178825	-0.175290	-0.055725
	O321	O	-0.218963	-0.057731	-0.005296
	H322	H	-0.211981	-0.049051	0.006073
	H323	H	-0.215605	-0.045286	-0.021516
	O324	O	0.344482	0.605368	0.552636
	H325	H	0.329172	0.614054	0.547392
	H326	H	0.346730	0.620000	0.564101
	O327	O	0.288381	0.292463	0.527000
	H328	H	0.275869	0.272662	0.535294
	H329	H	0.297512	0.292987	0.520507
	O330	O	-0.103400	0.997271	-0.205519
	H331	H	-0.111782	0.985899	-0.210889
	H332	H	-0.083319	0.999016	-0.190395
	O333	O	0.845587	-0.184604	1.198465
	H334	H	0.869696	-0.184716	1.210146
	H335	H	0.826792	-0.191610	1.154667
	O336	O	0.106797	0.209820	-0.016497
	H337	H	0.128747	0.214369	-0.010156
	H338	H	0.093720	0.212504	-0.012271
	O339	O	-0.017890	1.175633	0.839912
	H340	H	-0.006015	1.188591	0.851202
	H341	H	-0.011955	1.175422	0.831559
	O342	O	0.030706	0.935383	1.021384
	H343	H	0.024167	0.934320	1.031212
	H344	H	0.032382	0.957252	1.026254
	O345	O	1.013220	1.101321	-0.044963
	H346	H	1.003610	1.103475	-0.036513
	H347	H	1.029243	1.112020	-0.044184
	O348	O	0.515432	0.715244	0.713815
	H349	H	0.528844	0.728939	0.707042
	H350	H	0.537858	0.728075	0.720026
	O351	O	-0.220647	0.983032	1.223250
	H352	H	-0.217898	0.977568	1.216676
	H353	H	-0.241573	0.969337	1.247849
	O354	O	0.160442	1.112350	-0.032258
	H355	H	0.150356	1.107915	-0.022771
	H356	H	0.155259	1.097146	-0.056749
	O357	O	-0.069507	-0.026998	0.902372
	H358	H	-0.078024	-0.023439	0.916901
	H359	H	-0.077086	-0.020933	0.895742
	O360	O	0.495735	0.466419	0.444648
	H361	H	0.504113	0.479374	0.447422
	H362	H	0.487928	0.451396	0.453578
	O363	O	0.488126	-0.685526	0.716596
	H364	H	0.476525	-0.715132	0.738020
	H365	H	0.474838	-0.684992	0.701899
	O366	O	0.452302	0.545813	0.723557
	H367	H	0.429662	0.553760	0.718304
	H368	H	0.448605	0.577006	0.730126
	O369	O	0.371561	0.632857	0.300569
	H370	H	0.375400	0.624448	0.286729
	H371	H	0.385133	0.627131	0.281883
	O372	O	1.206947	-0.019066	0.818305
	H373	H	1.218492	-0.031008	0.803597
	H374	H	1.213218	-0.048779	0.816032
	O375	O	0.706431	0.676952	0.508058
	H376	H	0.684265	0.682732	0.498221
	H377	H	0.726873	0.701163	0.500871
	O378	O	0.439575	0.350228	0.478385
	H379	H	0.451526	0.340328	0.447381
	H380	H	0.421623	0.358984	0.495064
	O381	O	0.470793	0.393428	0.574883
	H382	H	0.453921	0.378427	0.572685
	H383	H	0.465472	0.403921	0.564964
	O384	O	0.316399	0.323363	0.689761
	H385	H	0.324626	0.337659	0.681649
	H386	H	0.308769	0.350395	0.678703
	O387	O	0.158468	-0.053497	1.012550
	H388	H	0.161712	-0.052229	1.020092
	H389	H	0.158163	-0.037016	1.008851
	O390	O	-0.023114	-0.191191	0.158782
	H391	H	-0.021745	-0.194575	0.164105
	H392	H	-0.013834	-0.187128	0.155265
	O393	O	0.863566	1.137946	0.885254
	H394	H	0.856013	1.104381	0.879350
	H395	H	0.905005	1.133872	0.875576
	O396	O	0.893924	-0.097461	-0.099072
	H397	H	0.890174	-0.098013	-0.086242
	H398	H	0.900335	-0.089086	-0.086568
	O399	O	1.209663	0.082409	1.017069
	H400	H	1.214277	0.079344	1.030530
	H401	H	1.235595	0.093774	1.020199
	O402	O	1.509041	0.677139	0.407153
	H403	H	1.498864	0.678477	0.401589
	H404	H	1.527623	0.660054	0.406089
	O405	O	0.968482	1.124097	0.206013
	H406	H	0.965335	1.142586	0.210644
	H407	H	0.974029	1.131775	0.201177
	O408	O	1.052237	-0.133955	0.117480
	H409	H	1.049661	-0.120882	0.116552
	H410	H	1.052627	-0.120411	0.107229
	O411	O	1.136357	0.829631	-0.187875
	H412	H	1.104619	0.831712	-0.186075
	H413	H	1.139726	0.816985	-0.188918
	O414	O	-0.024009	0.794941	0.842050
	H415	H	-0.019040	0.796824	0.855486
	H416	H	-0.014802	0.779630	0.829100
	O417	O	0.406832	0.453006	0.321103
	H418	H	0.413833	0.427694	0.329751
	H419	H	0.421969	0.461613	0.333085
	O420	O	0.717924	0.496448	0.548643
	H421	H	0.711797	0.505061	0.561460
	H422	H	0.716658	0.493965	0.565713
	O423	O	-0.041201	1.187997	0.215399
	H424	H	-0.030666	1.206083	0.225591
	H425	H	-0.031245	1.186482	0.206065
	O426	O	0.438334	0.453223	0.344068
	H427	H	0.444238	0.456821	0.351427
	H428	H	0.450088	0.449457	0.367094
	O429	O	0.704275	0.472906	0.299718
	H430	H	0.729154	0.476407	0.305580
	H431	H	0.718328	0.492983	0.304014
	O432	O	0.554305	0.308983	0.351697
	H433	H	0.567143	0.286097	0.321754
	H434	H	0.583382	0.319590	0.361014
	O435	O	0.682052	0.689649	0.656762
	H436	H	0.683831	0.690875	0.631521
	H437	H	0.700729	0.654658	0.666582
	O438	O	0.032119	0.147919	0.027539
	H439	H	0.021253	0.145469	0.005848
	H440	H	0.020833	0.155539	0.043398
	O441	O	0.899983	0.038142	0.050046
	H442	H	0.908139	0.029800	0.061705
	H443	H	0.890973	0.066087	0.041951
	O444	O	0.297339	1.483196	0.691563
	H445	H	0.279920	1.495601	0.676508
	H446	H	0.297399	1.502466	0.687695
	O447	O	0.266857	0.222795	0.277532
	H448	H	0.281087	0.192137	0.280269
	H449	H	0.272793	0.226596	0.258824
	O450	O	0.423103	0.607712	0.315133
	H451	H	0.425852	0.580095	0.312217
	H452	H	0.455103	0.593063	0.307785
	O453	O	0.288239	0.560584	0.432714
	H454	H	0.277704	0.569429	0.413697
	H455	H	0.288750	0.538498	0.423096
