data_Molecule from HDF5

_cell_length_a		16.254307
_cell_length_b		16.155953
_cell_length_c		16.379728
_cell_angle_alpha	90.182549
_cell_angle_beta	89.984431
_cell_angle_gamma	90.344811
_symmetry_space_group_name_H-M	'P 1'
_symmetry_Int_Tables_number		1

loop_
	_symmetry_equiv_pos_as_xyz
	x,y,z

loop_
	_atom_site_label
	_atom_site_type_symbol
	_atom_site_fract_x
	_atom_site_fract_y
	_atom_site_fract_z
	H0	H	0.389249	0.841767	0.714603
	H1	H	0.594931	0.168918	0.711798
	H2	H	0.591210	0.842767	0.277703
	H3	H	0.390650	0.170374	0.282497
	H4	H	0.709391	0.405538	0.836492
	H5	H	0.710469	0.609792	0.159958
	H6	H	0.274838	0.607577	0.836236
	H7	H	0.276267	0.406640	0.160932
	H8	H	0.827083	0.714550	0.402194
	H9	H	0.156126	0.720525	0.597410
	H10	H	0.829100	0.288001	0.598312
	H11	H	0.157322	0.290839	0.401945
	H12	H	0.830675	0.399889	0.716813
	H13	H	0.155867	0.606744	0.715946
	H14	H	0.829956	0.603456	0.282550
	H15	H	0.155712	0.400630	0.280874
	H16	H	0.395454	0.719443	0.834063
	H17	H	0.592521	0.724332	0.159306
	H18	H	0.593162	0.290299	0.835457
	H19	H	0.392898	0.291050	0.160315
	H20	H	0.703400	0.839099	0.396473
	H21	H	0.708435	0.167265	0.597172
	H22	H	0.277656	0.839806	0.595586
	H23	H	0.277382	0.169319	0.399626
	H24	H	0.891740	0.339462	0.212659
	H25	H	0.094518	0.668022	0.217195
	H26	H	0.092507	0.340837	0.784902
	H27	H	0.892595	0.667252	0.782408
	H28	H	0.207996	0.902269	0.335521
	H29	H	0.210205	0.104770	0.659588
	H30	H	0.778088	0.100368	0.335267
	H31	H	0.772351	0.900396	0.659950
	H32	H	0.327847	0.218824	0.900832
	H33	H	0.656098	0.221986	0.094976
	H34	H	0.328813	0.791209	0.094839
	H35	H	0.656961	0.792768	0.898440
	H36	H	0.328365	0.906517	0.211094
	H37	H	0.654147	0.112380	0.215188
	H38	H	0.329705	0.106875	0.780225
	H39	H	0.655023	0.906406	0.780756
	H40	H	0.894715	0.217719	0.335818
	H41	H	0.092497	0.218779	0.661691
	H42	H	0.088030	0.789116	0.335038
	H43	H	0.892820	0.789265	0.662055
	H44	H	0.204885	0.340763	0.901495
	H45	H	0.205751	0.671047	0.097111
	H46	H	0.775025	0.341078	0.098077
	H47	H	0.782674	0.670964	0.902002
	H48	H	0.395957	0.119168	0.576108
	H49	H	0.586621	0.886278	0.586340
	H50	H	0.579166	0.120048	0.407201
	H51	H	0.404662	0.888957	0.399161
	H52	H	0.587410	0.423351	0.112155
	H53	H	0.583696	0.597489	0.883659
	H54	H	0.395953	0.601669	0.114963
	H55	H	0.397685	0.422944	0.885342
	H56	H	0.110606	0.601444	0.406247
	H57	H	0.878157	0.587522	0.595465
	H58	H	0.112883	0.409432	0.602573
	H59	H	0.876135	0.404741	0.410592
	H60	H	0.109061	0.405248	0.583272
	H61	H	0.873882	0.598657	0.596473
	H62	H	0.106440	0.594521	0.412974
	H63	H	0.879316	0.417417	0.408286
	H64	H	0.399456	0.596619	0.112666
	H65	H	0.587932	0.603412	0.880311
	H66	H	0.577402	0.415137	0.111063
	H67	H	0.406949	0.409510	0.882855
	H68	H	0.590213	0.122403	0.411270
	H69	H	0.578687	0.886130	0.595031
	H70	H	0.391672	0.127495	0.599419
	H71	H	0.400059	0.890933	0.408234
	H72	H	0.899993	0.622200	0.089048
	H73	H	0.087729	0.386635	0.093254
	H74	H	0.087974	0.626317	0.897111
	H75	H	0.895595	0.387089	0.911989
	H76	H	0.087476	0.919272	0.612106
	H77	H	0.085791	0.094304	0.383244
	H78	H	0.900212	0.089763	0.611681
	H79	H	0.897248	0.904551	0.381564
	H80	H	0.609137	0.103840	0.907187
	H81	H	0.374879	0.100834	0.090066
	H82	H	0.607283	0.917981	0.086874
	H83	H	0.375289	0.918190	0.897726
	H84	H	0.608139	0.918705	0.090584
	H85	H	0.375805	0.096979	0.089515
	H86	H	0.606640	0.093851	0.906075
	H87	H	0.374844	0.906212	0.904740
	H88	H	0.902594	0.096212	0.613083
	H89	H	0.082275	0.096920	0.383338
	H90	H	0.078433	0.910041	0.612387
	H91	H	0.893471	0.909709	0.382205
	H92	H	0.073686	0.619445	0.907523
	H93	H	0.081566	0.388041	0.092931
	H94	H	0.901609	0.622346	0.096908
	H95	H	0.899514	0.386052	0.901536
	H96	H	0.414963	0.118722	0.592956
	H97	H	0.575371	0.889897	0.584969
	H98	H	0.587210	0.124794	0.399985
	H99	H	0.394655	0.885413	0.400380
	H100	H	0.588129	0.410907	0.115138
	H101	H	0.591581	0.596781	0.881659
	H102	H	0.402629	0.601857	0.112582
	H103	H	0.391033	0.409438	0.879646
	H104	H	0.108317	0.591411	0.402837
	H105	H	0.878541	0.594693	0.585581
	H106	H	0.105488	0.423576	0.590738
	H107	H	0.874938	0.409068	0.398488
	H108	H	0.908293	0.619596	0.092034
	H109	H	0.085039	0.388341	0.088593
	H110	H	0.091183	0.623143	0.915155
	H111	H	0.905955	0.390444	0.909054
	H112	H	0.090553	0.906991	0.616806
	H113	H	0.086699	0.098522	0.382342
	H114	H	0.896293	0.094873	0.614939
	H115	H	0.900238	0.909994	0.384302
	H116	H	0.610175	0.099247	0.898139
	H117	H	0.374488	0.098288	0.093493
	H118	H	0.608939	0.914858	0.089724
	H119	H	0.379486	0.917204	0.910891
	C120	C	0.370800	0.013256	0.618864
	C121	C	0.611851	0.995454	0.618523
	C122	C	0.613276	0.013422	0.375635
	C123	C	0.370715	0.997202	0.375544
	C124	C	0.614039	0.385518	0.006090
	C125	C	0.616356	0.629492	0.989120
	C126	C	0.370737	0.628624	0.006086
	C127	C	0.370136	0.384834	0.989961
	C128	C	0.000572	0.624291	0.378291
	C129	C	0.984512	0.624824	0.621342
	C130	C	0.001741	0.381639	0.621810
	C131	C	0.984911	0.381434	0.377324
	C132	C	0.871918	0.513099	0.120918
	C133	C	0.114177	0.496455	0.121110
	C134	C	0.113159	0.513967	0.878429
	C135	C	0.871836	0.496572	0.878201
	C136	C	0.113289	0.882548	0.506095
	C137	C	0.114528	0.125789	0.490168
	C138	C	0.870961	0.123532	0.506281
	C139	C	0.867857	0.879671	0.490116
	C140	C	0.500769	0.127943	0.875181
	C141	C	0.483200	0.129091	0.119597
	C142	C	0.500276	0.886391	0.117932
	C143	C	0.483989	0.884622	0.875124
	C144	C	0.370629	0.890377	0.675657
	C145	C	0.613478	0.119283	0.674360
	C146	C	0.610941	0.890966	0.317352
	C147	C	0.371556	0.120962	0.320812
	C148	C	0.671041	0.385903	0.884767
	C149	C	0.672261	0.629229	0.111129
	C150	C	0.314176	0.626861	0.884342
	C151	C	0.314210	0.386381	0.112143
	C152	C	0.876844	0.678141	0.381203
	C153	C	0.107261	0.682426	0.618776
	C154	C	0.878299	0.325616	0.619085
	C155	C	0.107981	0.327001	0.380155
	C156	C	0.879207	0.381241	0.678175
	C157	C	0.107140	0.625662	0.677508
	C158	C	0.878052	0.622912	0.321647
	C159	C	0.107125	0.382185	0.320342
	C160	C	0.374164	0.682590	0.883232
	C161	C	0.613504	0.686125	0.110896
	C162	C	0.613163	0.328316	0.884337
	C163	C	0.372394	0.329052	0.111885
	C164	C	0.666613	0.889162	0.376735
	C165	C	0.670081	0.118432	0.617206
	C166	C	0.314792	0.889451	0.616544
	C167	C	0.315139	0.120566	0.378957
	C168	C	0.871743	0.389129	0.175377
	C169	C	0.113472	0.619657	0.177830
	C170	C	0.111942	0.390060	0.822891
	C171	C	0.873299	0.618862	0.821224
	C172	C	0.168920	0.883331	0.383834
	C173	C	0.171416	0.124551	0.611581
	C174	C	0.815941	0.121335	0.383963
	C175	C	0.811050	0.881111	0.611616
	C176	C	0.377234	0.182295	0.878693
	C177	C	0.606632	0.184897	0.116361
	C178	C	0.377590	0.829362	0.115451
	C179	C	0.607501	0.829818	0.877536
	C180	C	0.377295	0.887200	0.172982
	C181	C	0.605547	0.130152	0.176308
	C182	C	0.378184	0.126547	0.818937
	C183	C	0.606578	0.886416	0.819089
	C184	C	0.874086	0.179657	0.384423
	C185	C	0.112873	0.181421	0.612517
	C186	C	0.109756	0.826546	0.383776
	C187	C	0.871059	0.825663	0.612794
	C188	C	0.167802	0.389920	0.880930
	C189	C	0.169022	0.620975	0.118530
	C190	C	0.813716	0.390121	0.118192
	C191	C	0.818538	0.620822	0.880920
	C192	C	0.394114	0.099542	0.596082
	C193	C	0.587338	0.909609	0.595421
	C194	C	0.591749	0.099859	0.399149
	C195	C	0.393218	0.910975	0.396450
	C196	C	0.590866	0.409355	0.090793
	C197	C	0.594440	0.605933	0.903978
	C198	C	0.392872	0.606620	0.091283
	C199	C	0.392206	0.407377	0.904944
	C200	C	0.086047	0.602245	0.400668
	C201	C	0.899079	0.600781	0.599080
	C202	C	0.087140	0.405772	0.598912
	C203	C	0.899078	0.403880	0.399215
	C204	C	0.896143	0.599202	0.098992
	C205	C	0.091346	0.409993	0.098258
	C206	C	0.090999	0.600508	0.900211
	C207	C	0.893870	0.410286	0.900978
	C208	C	0.091741	0.905326	0.591515
	C209	C	0.091723	0.103026	0.404991
	C210	C	0.893258	0.100403	0.591433
	C211	C	0.890220	0.901723	0.404673
	C212	C	0.586479	0.105569	0.897271
	C213	C	0.397342	0.105663	0.097484
	C214	C	0.586011	0.910126	0.095577
	C215	C	0.398544	0.907093	0.897876
	Zn216	Zn	0.492373	0.005697	0.746428
	Zn217	Zn	0.491538	0.007591	0.247598
	Zn218	Zn	0.743618	0.506319	-0.001126
	Zn219	Zn	0.241068	0.506282	-0.001766
	Zn220	Zn	-0.008438	0.752849	0.499162
	Zn221	Zn	-0.007522	0.254162	0.499792
	Zn222	Zn	-0.006854	0.503829	0.750210
	Zn223	Zn	-0.007189	0.503568	0.249405
	Zn224	Zn	0.492957	0.757162	-0.003469
	Zn225	Zn	0.491957	0.255959	-0.002616
	Zn226	Zn	0.740189	0.002702	0.498232
	Zn227	Zn	0.243169	0.003967	0.497040
	N228	N	0.404878	0.968411	0.677027
	N229	N	0.577754	0.041867	0.675104
	N230	N	0.578690	0.969440	0.316455
	N231	N	0.405300	0.043214	0.318728
	N232	N	0.671711	0.420761	0.961415
	N233	N	0.674085	0.594609	0.034290
	N234	N	0.311610	0.594179	0.961788
	N235	N	0.312566	0.420542	0.035353
	N236	N	0.953916	0.679205	0.415969
	N237	N	0.029965	0.682111	0.584491
	N238	N	0.955429	0.325674	0.584804
	N239	N	0.031085	0.326430	0.415058
	N240	N	0.956994	0.415274	0.680232
	N241	N	0.029952	0.590537	0.678993
	N242	N	0.955887	0.590105	0.319808
	N243	N	0.029385	0.415319	0.318411
	N244	N	0.408518	0.683824	0.959921
	N245	N	0.579479	0.686350	0.034147
	N246	N	0.578252	0.328002	0.960806
	N247	N	0.406339	0.327821	0.034988
	N248	N	0.668171	0.966416	0.412205
	N249	N	0.669200	0.040534	0.582994
	N250	N	0.314940	0.966897	0.581959
	N251	N	0.314368	0.042465	0.412271
	N252	N	0.907221	0.466533	0.177120
	N253	N	0.080300	0.541043	0.179665
	N254	N	0.078686	0.468148	0.821069
	N255	N	0.905617	0.540291	0.819252
	N256	N	0.171216	0.917469	0.460860
	N257	N	0.172777	0.090793	0.534370
	N258	N	0.814190	0.087061	0.460598
	N259	N	0.809027	0.914046	0.534139
	N260	N	0.454484	0.183470	0.912680
	N261	N	0.529671	0.184257	0.081788
	N262	N	0.455049	0.828988	0.081768
	N263	N	0.530196	0.828634	0.911686
	N264	N	0.454700	0.921873	0.174774
	N265	N	0.527679	0.096036	0.178401
	N266	N	0.456019	0.093654	0.816504
	N267	N	0.528916	0.919582	0.817421
	N268	N	0.907422	0.181097	0.461656
	N269	N	0.078159	0.182129	0.536000
	N270	N	0.075774	0.826232	0.460743
	N271	N	0.905621	0.824581	0.536279
	N272	N	0.168743	0.467954	0.914651
	N273	N	0.169554	0.543335	0.084003
	N274	N	0.813633	0.468416	0.085224
	N275	N	0.817787	0.543737	0.915713
	O276	O	0.924361	-0.069780	1.159683
	H277	H	0.909389	-0.063614	1.176827
	H278	H	0.913334	-0.070224	1.153360
	O279	O	0.396433	0.652435	0.374406
	H280	H	0.390677	0.662280	0.365308
	H281	H	0.403469	0.647478	0.371676
	O282	O	0.552048	0.413331	0.398064
	H283	H	0.551518	0.410466	0.395778
	H284	H	0.547234	0.415868	0.399716
	O285	O	0.411788	0.439399	0.574702
	H286	H	0.412137	0.451273	0.567576
	H287	H	0.397952	0.450330	0.584137
	O288	O	0.469384	0.515833	0.371646
	H289	H	0.462659	0.502168	0.376020
	H290	H	0.477631	0.522201	0.371885
	O291	O	-0.170141	0.043271	1.031806
	H292	H	-0.168716	0.047165	1.025271
	H293	H	-0.166805	0.036080	1.024345
	O294	O	0.961980	0.927360	-0.018329
	H295	H	0.949067	0.928898	-0.018927
	H296	H	0.958907	0.930687	-0.024171
	O297	O	1.056408	0.912468	0.008916
	H298	H	1.041524	0.908695	0.006130
	H299	H	1.058213	0.909733	0.003873
	O300	O	0.477705	0.582273	0.554213
	H301	H	0.482324	0.581577	0.535107
	H302	H	0.473635	0.583168	0.560119
	O303	O	0.386707	0.523527	0.420525
	H304	H	0.391813	0.512774	0.431036
	H305	H	0.384853	0.521594	0.406735
	O306	O	0.445499	0.335564	0.465837
	H307	H	0.451140	0.325709	0.462027
	H308	H	0.460846	0.342080	0.474495
	O309	O	0.423506	0.480704	0.506094
	H310	H	0.419345	0.488924	0.508984
	H311	H	0.409175	0.479699	0.500407
	O312	O	1.039086	0.954232	0.927101
	H313	H	1.041694	0.960851	0.932524
	H314	H	1.043351	0.960915	0.937390
	O315	O	0.862137	0.921094	0.022987
	H316	H	0.865980	0.923919	0.018442
	H317	H	0.861956	0.923704	0.024751
	O318	O	0.481503	0.526482	0.582196
	H319	H	0.476124	0.532142	0.585917
	H320	H	0.476353	0.540907	0.578150
	O321	O	0.440867	0.497070	0.573665
	H322	H	0.444100	0.497639	0.584850
	H323	H	0.445324	0.503646	0.568659
	O324	O	0.084693	0.979585	0.904903
	H325	H	0.105886	0.973732	0.902511
	H326	H	0.081388	0.982651	0.915984
	O327	O	0.053586	1.088033	1.033403
	H328	H	0.060774	1.085797	1.042979
	H329	H	0.047907	1.084353	1.025822
	O330	O	-0.026057	0.066711	-0.006899
	H331	H	-0.024080	0.070783	-0.005817
	H332	H	-0.025483	0.062325	-0.011210
	O333	O	0.634232	0.418830	0.406082
	H334	H	0.627117	0.418295	0.420413
	H335	H	0.634897	0.433621	0.414840
	O336	O	0.125734	-0.040746	-0.051751
	H337	H	0.122577	-0.049929	-0.049790
	H338	H	0.114823	-0.048663	-0.056873
	O339	O	-0.053736	-0.105672	-0.012593
	H340	H	-0.036200	-0.100985	-0.008737
	H341	H	-0.057947	-0.117341	-0.013991
	O342	O	0.472694	0.570860	0.339765
	H343	H	0.479543	0.574266	0.332183
	H344	H	0.467342	0.568726	0.333823
	O345	O	-0.024547	1.045372	1.056703
	H346	H	-0.023747	1.050902	1.048738
	H347	H	-0.018884	1.040916	1.064348
	O348	O	0.498281	0.573280	0.608913
	H349	H	0.503765	0.566558	0.611020
	H350	H	0.500992	0.570770	0.621550
	O351	O	0.552888	0.366453	0.560060
	H352	H	0.551706	0.369323	0.569075
	H353	H	0.541348	0.370795	0.560639
	O354	O	-0.049865	1.003858	-0.066183
	H355	H	-0.054252	1.006896	-0.067544
	H356	H	-0.064610	1.004872	-0.051420
	O357	O	0.617980	0.509042	0.526441
	H358	H	0.610819	0.516876	0.519998
	H359	H	0.613543	0.497589	0.529032
	O360	O	1.165872	-0.036211	0.945807
	H361	H	1.172825	-0.023207	0.945298
	H362	H	1.164924	-0.041986	0.942611
	O363	O	0.477622	0.671950	0.512418
	H364	H	0.472351	0.672691	0.519675
	H365	H	0.478781	0.677452	0.509071
	O366	O	0.521151	0.614877	0.610359
	H367	H	0.525046	0.608731	0.599429
	H368	H	0.528114	0.625268	0.615456
	O369	O	1.042921	0.061409	0.099303
	H370	H	1.037621	0.053798	0.089580
	H371	H	1.040710	0.064414	0.107484
	O372	O	0.611266	0.447673	0.447093
	H373	H	0.615064	0.451010	0.434219
	H374	H	0.610962	0.452821	0.435246
	O375	O	1.057228	0.063568	1.102481
	H376	H	1.072890	0.058486	1.116874
	H377	H	1.050391	0.067948	1.100584
	O378	O	-0.028717	0.999796	-0.126426
	H379	H	-0.031644	1.004425	-0.124339
	H380	H	-0.032504	1.014901	-0.123975
	O381	O	0.521102	0.458837	0.534340
	H382	H	0.518325	0.454857	0.538286
	H383	H	0.534346	0.454166	0.537620
	O384	O	1.567870	0.520921	0.540813
	H385	H	1.569383	0.526882	0.551987
	H386	H	1.576309	0.511117	0.521871
	O387	O	0.961510	0.072208	0.934502
	H388	H	0.966301	0.076264	0.924184
	H389	H	0.965766	0.073475	0.928851
	O390	O	0.934880	1.112271	-0.008011
	H391	H	0.935283	1.112493	-0.003694
	H392	H	0.930859	1.115250	-0.008545
	O393	O	0.454390	0.514233	0.471553
	H394	H	0.457460	0.516010	0.458647
	H395	H	0.442818	0.506067	0.491987
