data_Molecule from HDF5

_cell_length_a		16.130982
_cell_length_b		16.331365
_cell_length_c		16.453511
_cell_angle_alpha	90.008958
_cell_angle_beta	89.947695
_cell_angle_gamma	90.137054
_symmetry_space_group_name_H-M	'P 1'
_symmetry_Int_Tables_number		1

loop_
	_symmetry_equiv_pos_as_xyz
	x,y,z

loop_
	_atom_site_label
	_atom_site_type_symbol
	_atom_site_fract_x
	_atom_site_fract_y
	_atom_site_fract_z
	H0	H	0.379593	0.843989	0.719723
	H1	H	0.589069	0.165772	0.716688
	H2	H	0.589595	0.843916	0.277312
	H3	H	0.381691	0.165090	0.280563
	H4	H	0.701856	0.403764	0.838387
	H5	H	0.701352	0.603236	0.160857
	H6	H	0.269625	0.603077	0.838011
	H7	H	0.269445	0.405639	0.161094
	H8	H	0.820145	0.715126	0.400834
	H9	H	0.147474	0.719333	0.601060
	H10	H	0.821137	0.284165	0.601956
	H11	H	0.148892	0.286437	0.400953
	H12	H	0.821529	0.397756	0.717734
	H13	H	0.148512	0.603163	0.714768
	H14	H	0.821728	0.603299	0.283460
	H15	H	0.147412	0.397222	0.281177
	H16	H	0.383356	0.722326	0.838976
	H17	H	0.588135	0.722624	0.159579
	H18	H	0.588530	0.285095	0.838739
	H19	H	0.381990	0.285724	0.159524
	H20	H	0.696137	0.839573	0.401708
	H21	H	0.701704	0.165777	0.597310
	H22	H	0.269901	0.840287	0.597590
	H23	H	0.269473	0.166626	0.402298
	H24	H	0.879780	0.340980	0.220003
	H25	H	0.087802	0.663989	0.219574
	H26	H	0.086863	0.340508	0.781889
	H27	H	0.881682	0.663001	0.780305
	H28	H	0.200541	0.902693	0.336838
	H29	H	0.200095	0.100300	0.660968
	H30	H	0.771187	0.099465	0.336672
	H31	H	0.767470	0.903057	0.660918
	H32	H	0.320394	0.217495	0.900666
	H33	H	0.648329	0.219894	0.097101
	H34	H	0.321608	0.787207	0.100077
	H35	H	0.649228	0.790289	0.900093
	H36	H	0.321097	0.903811	0.214386
	H37	H	0.648384	0.107831	0.214281
	H38	H	0.322077	0.106387	0.783519
	H39	H	0.648717	0.904663	0.783515
	H40	H	0.882819	0.220497	0.339711
	H41	H	0.087257	0.219392	0.660035
	H42	H	0.084497	0.784392	0.337847
	H43	H	0.882126	0.784552	0.660970
	H44	H	0.198060	0.338855	0.903643
	H45	H	0.197576	0.667302	0.097206
	H46	H	0.768844	0.339619	0.098001
	H47	H	0.772915	0.666250	0.903346
	H48	H	0.397485	0.115052	0.582111
	H49	H	0.572223	0.890149	0.587330
	H50	H	0.582040	0.121308	0.401746
	H51	H	0.399816	0.891703	0.410408
	H52	H	0.573983	0.407459	0.114194
	H53	H	0.580063	0.598102	0.883765
	H54	H	0.395457	0.604888	0.116519
	H55	H	0.397856	0.408410	0.885527
	H56	H	0.099176	0.590088	0.413771
	H57	H	0.869786	0.587877	0.588482
	H58	H	0.104155	0.402902	0.592369
	H59	H	0.868173	0.408007	0.411740
	H60	H	0.096958	0.413762	0.583186
	H61	H	0.866024	0.590982	0.596251
	H62	H	0.102299	0.589329	0.405980
	H63	H	0.870337	0.414202	0.410798
	H64	H	0.384721	0.594253	0.115684
	H65	H	0.576750	0.591777	0.885523
	H66	H	0.578792	0.412478	0.113994
	H67	H	0.387905	0.406552	0.882043
	H68	H	0.569096	0.118060	0.403544
	H69	H	0.577454	0.887379	0.593304
	H70	H	0.382183	0.123096	0.592947
	H71	H	0.386810	0.887156	0.407428
	H72	H	0.899344	0.615687	0.091893
	H73	H	0.072873	0.388028	0.095806
	H74	H	0.075079	0.618600	0.904130
	H75	H	0.897000	0.386445	0.904695
	H76	H	0.063109	0.906370	0.610284
	H77	H	0.078575	0.091483	0.385140
	H78	H	0.898299	0.095430	0.612887
	H79	H	0.887803	0.906493	0.383251
	H80	H	0.605035	0.097619	0.901813
	H81	H	0.366401	0.094880	0.094373
	H82	H	0.603029	0.910619	0.088450
	H83	H	0.369751	0.915056	0.911701
	H84	H	0.600492	0.916400	0.087598
	H85	H	0.367237	0.097766	0.088396
	H86	H	0.602663	0.099736	0.910215
	H87	H	0.367909	0.915789	0.904872
	H88	H	0.889498	0.097036	0.616715
	H89	H	0.072506	0.094687	0.385641
	H90	H	0.084255	0.900468	0.619195
	H91	H	0.892890	0.910192	0.385617
	H92	H	0.073599	0.617014	0.906478
	H93	H	0.075420	0.388853	0.089901
	H94	H	0.891665	0.617458	0.090307
	H95	H	0.895382	0.388247	0.910824
	H96	H	0.400289	0.120852	0.601649
	H97	H	0.569968	0.888746	0.595515
	H98	H	0.578118	0.117367	0.412596
	H99	H	0.396826	0.887055	0.398597
	H100	H	0.573527	0.413660	0.111512
	H101	H	0.573610	0.598109	0.885884
	H102	H	0.398636	0.591812	0.111304
	H103	H	0.390904	0.416020	0.884989
	H104	H	0.102699	0.596838	0.409390
	H105	H	0.867040	0.595919	0.589424
	H106	H	0.101505	0.417370	0.597763
	H107	H	0.867472	0.411095	0.405875
	H108	H	0.894145	0.618169	0.097794
	H109	H	0.078786	0.385164	0.094252
	H110	H	0.076888	0.617856	0.906521
	H111	H	0.891039	0.385586	0.906749
	H112	H	0.080719	0.922312	0.611113
	H113	H	0.078487	0.098839	0.383492
	H114	H	0.892138	0.088235	0.612525
	H115	H	0.893364	0.903833	0.384299
	H116	H	0.600761	0.090955	0.908373
	H117	H	0.369426	0.090980	0.088472
	H118	H	0.602666	0.914173	0.093752
	H119	H	0.366948	0.909639	0.908184
	C120	C	0.362939	0.012514	0.621508
	C121	C	0.605584	0.995451	0.621001
	C122	C	0.606459	0.012083	0.376418
	C123	C	0.363723	0.995599	0.376776
	C124	C	0.605927	0.381539	0.007423
	C125	C	0.607345	0.625919	0.990839
	C126	C	0.363219	0.626062	0.007852
	C127	C	0.362821	0.381595	0.990951
	C128	C	-0.006906	0.621931	0.379773
	C129	C	0.975491	0.622698	0.621230
	C130	C	-0.006783	0.380397	0.621355
	C131	C	0.976579	0.380966	0.379349
	C132	C	0.863612	0.510330	0.122657
	C133	C	0.106074	0.494806	0.122403
	C134	C	0.105742	0.510649	0.877241
	C135	C	0.863872	0.493616	0.877649
	C136	C	0.106057	0.880000	0.507099
	C137	C	0.106556	0.124232	0.491211
	C138	C	0.863303	0.123316	0.507939
	C139	C	0.861523	0.878307	0.491082
	C140	C	0.493929	0.125466	0.877801
	C141	C	0.476094	0.125272	0.119783
	C142	C	0.493914	0.883298	0.120167
	C143	C	0.476481	0.883697	0.878329
	C144	C	0.361912	0.891311	0.679188
	C145	C	0.607611	0.117128	0.677980
	C146	C	0.607062	0.891325	0.317942
	C147	C	0.362747	0.117183	0.320023
	C148	C	0.663710	0.383100	0.886257
	C149	C	0.663885	0.623951	0.112249
	C150	C	0.307376	0.624046	0.886392
	C151	C	0.307078	0.384256	0.112629
	C152	C	0.869617	0.677711	0.380814
	C153	C	0.098472	0.680768	0.620961
	C154	C	0.870149	0.322894	0.621405
	C155	C	0.099700	0.324391	0.380281
	C156	C	0.870433	0.379359	0.679014
	C157	C	0.098852	0.623078	0.677604
	C158	C	0.870335	0.621987	0.322530
	C159	C	0.098933	0.379583	0.320885
	C160	C	0.363855	0.683369	0.887006
	C161	C	0.607363	0.683244	0.111649
	C162	C	0.606960	0.324365	0.886518
	C163	C	0.363233	0.324807	0.111675
	C164	C	0.660523	0.889248	0.379551
	C165	C	0.663574	0.117170	0.618345
	C166	C	0.306925	0.889600	0.618753
	C167	C	0.306906	0.117754	0.380272
	C168	C	0.862009	0.388932	0.179916
	C169	C	0.106538	0.616038	0.179853
	C170	C	0.106012	0.388928	0.820682
	C171	C	0.863548	0.615108	0.820190
	C172	C	0.162090	0.882197	0.385303
	C173	C	0.162705	0.121514	0.612470
	C174	C	0.808319	0.120549	0.385532
	C175	C	0.805410	0.881664	0.612651
	C176	C	0.370058	0.180281	0.880268
	C177	C	0.599230	0.181901	0.117558
	C178	C	0.370455	0.826265	0.119477
	C179	C	0.600057	0.827720	0.879547
	C180	C	0.370383	0.884035	0.176457
	C181	C	0.599094	0.126342	0.175892
	C182	C	0.370823	0.124983	0.821920
	C183	C	0.599857	0.884757	0.821746
	C184	C	0.863884	0.180726	0.387103
	C185	C	0.106173	0.180404	0.612091
	C186	C	0.104810	0.823128	0.385980
	C187	C	0.862319	0.822728	0.612571
	C188	C	0.161091	0.387940	0.881318
	C189	C	0.161123	0.617657	0.119037
	C190	C	0.806672	0.388154	0.119435
	C191	C	0.809210	0.616731	0.881193
	C192	C	0.386558	0.097518	0.598948
	C193	C	0.580670	0.910805	0.598477
	C194	C	0.583311	0.096952	0.399393
	C195	C	0.387511	0.910765	0.398948
	C196	C	0.582275	0.404521	0.091324
	C197	C	0.583667	0.602729	0.906818
	C198	C	0.386113	0.603476	0.092504
	C199	C	0.385588	0.403831	0.906256
	C200	C	0.079100	0.598677	0.402854
	C201	C	0.889812	0.598750	0.598103
	C202	C	0.078631	0.404408	0.597830
	C203	C	0.890901	0.404243	0.402710
	C204	C	0.888029	0.595259	0.099927
	C205	C	0.082655	0.409451	0.099891
	C206	C	0.082240	0.595781	0.899463
	C207	C	0.887445	0.408646	0.900801
	C208	C	0.083011	0.902946	0.591644
	C209	C	0.083310	0.101625	0.406548
	C210	C	0.886350	0.100202	0.592318
	C211	C	0.884515	0.900370	0.406368
	C212	C	0.580484	0.102824	0.900171
	C213	C	0.389786	0.101454	0.097131
	C214	C	0.579847	0.906686	0.096710
	C215	C	0.390573	0.906700	0.901331
	Zn216	Zn	0.484734	0.004729	0.750465
	Zn217	Zn	0.485590	0.004760	0.247415
	Zn218	Zn	0.735588	0.502880	-0.000158
	Zn219	Zn	0.234032	0.503641	-0.000450
	Zn220	Zn	-0.015748	0.750057	0.499957
	Zn221	Zn	-0.015322	0.253150	0.500418
	Zn222	Zn	-0.015443	0.501928	0.748319
	Zn223	Zn	-0.015102	0.501826	0.251591
	Zn224	Zn	0.485134	0.755312	-0.000353
	Zn225	Zn	0.484572	0.252496	-0.001527
	Zn226	Zn	0.734034	0.002368	0.498883
	Zn227	Zn	0.235418	0.002403	0.499202
	N228	N	0.395974	0.968633	0.681184
	N229	N	0.572212	0.040472	0.679781
	N230	N	0.574143	0.968756	0.316036
	N231	N	0.397288	0.040322	0.317717
	N232	N	0.663272	0.418006	0.962334
	N233	N	0.664045	0.589054	0.036186
	N234	N	0.306692	0.589266	0.962502
	N235	N	0.306838	0.419054	0.036631
	N236	N	0.947005	0.677876	0.415909
	N237	N	0.020705	0.680853	0.586718
	N238	N	0.947257	0.323383	0.586130
	N239	N	0.022604	0.324941	0.415849
	N240	N	0.948018	0.414530	0.679100
	N241	N	0.021391	0.587710	0.677804
	N242	N	0.948182	0.588130	0.321720
	N243	N	0.021329	0.414171	0.320268
	N244	N	0.397915	0.684736	0.963736
	N245	N	0.573028	0.684809	0.035219
	N246	N	0.572020	0.323029	0.962688
	N247	N	0.397059	0.322942	0.034875
	N248	N	0.660309	0.965266	0.415385
	N249	N	0.662285	0.040557	0.583506
	N250	N	0.307586	0.965860	0.583527
	N251	N	0.307398	0.041070	0.414850
	N252	N	0.896533	0.465975	0.181981
	N253	N	0.073113	0.538441	0.182058
	N254	N	0.072620	0.466311	0.818105
	N255	N	0.896740	0.537516	0.817907
	N256	N	0.163141	0.916722	0.461686
	N257	N	0.162826	0.087226	0.536292
	N258	N	0.807797	0.085744	0.461705
	N259	N	0.804597	0.915309	0.536020
	N260	N	0.447880	0.180963	0.914229
	N261	N	0.521478	0.181418	0.083377
	N262	N	0.448187	0.825743	0.085232
	N263	N	0.522341	0.826840	0.914152
	N264	N	0.448216	0.918615	0.177057
	N265	N	0.521294	0.091731	0.177185
	N266	N	0.449009	0.091553	0.820481
	N267	N	0.522043	0.918747	0.821004
	N268	N	0.897133	0.182699	0.464085
	N269	N	0.072133	0.182227	0.535501
	N270	N	0.070635	0.821854	0.462592
	N271	N	0.896363	0.820533	0.536042
	N272	N	0.161041	0.464687	0.915913
	N273	N	0.161084	0.541189	0.083967
	N274	N	0.807562	0.464607	0.084544
	N275	N	0.809216	0.540302	0.916189
	O276	O	1.062037	-0.083491	0.882986
	H277	H	1.065252	-0.101243	0.867067
	H278	H	1.047968	-0.078878	0.899485
	O279	O	0.459827	0.446680	0.451640
	H280	H	0.456619	0.445529	0.430424
	H281	H	0.453921	0.455945	0.476540
	O282	O	0.568119	0.390002	0.509532
	H283	H	0.573099	0.393015	0.520283
	H284	H	0.568122	0.385417	0.504090
	O285	O	0.465062	0.357123	0.331951
	H286	H	0.462440	0.348788	0.326484
	H287	H	0.453885	0.358554	0.347389
	O288	O	0.370842	0.672724	0.425525
	H289	H	0.366623	0.648642	0.423505
	H290	H	0.388688	0.668029	0.416971
	O291	O	0.007285	0.037511	1.011634
	H292	H	-0.000700	0.036007	1.007861
	H293	H	0.007224	0.042812	1.015997
	O294	O	1.054923	0.973916	-0.043997
	H295	H	1.051092	0.968282	-0.034046
	H296	H	1.053866	0.972462	-0.053855
	O297	O	0.932851	0.964543	0.030089
	H298	H	0.943443	0.964695	0.018145
	H299	H	0.937380	0.963095	0.032909
	O300	O	0.635011	0.682863	0.661767
	H301	H	0.627971	0.687220	0.675009
	H302	H	0.619011	0.685636	0.658876
	O303	O	0.309777	0.370449	0.618421
	H304	H	0.325247	0.357194	0.616365
	H305	H	0.298190	0.378313	0.639031
	O306	O	0.585583	0.365094	0.474163
	H307	H	0.586546	0.356804	0.455158
	H308	H	0.600023	0.353602	0.471916
	O309	O	0.563454	0.589997	0.333614
	H310	H	0.542014	0.574374	0.342742
	H311	H	0.571203	0.606562	0.323381
	O312	O	1.542220	1.367943	0.378842
	H313	H	1.528481	1.369270	0.367239
	H314	H	1.543748	1.374607	0.367231
	O315	O	1.062748	1.027843	0.073377
	H316	H	1.059303	1.034114	0.069804
	H317	H	1.057428	1.026558	0.049862
	O318	O	0.353062	0.640737	0.458294
	H319	H	0.350550	0.645659	0.458993
	H320	H	0.353963	0.642711	0.450592
	O321	O	0.539050	0.508996	0.698294
	H322	H	0.546653	0.525888	0.682888
	H323	H	0.546767	0.505934	0.713016
	O324	O	0.029128	0.959127	0.935566
	H325	H	0.048558	0.961161	0.930931
	H326	H	0.031007	0.955184	0.918090
	O327	O	-0.084773	0.978187	1.015618
	H328	H	-0.092856	0.982890	1.012868
	H329	H	-0.085328	0.976869	1.019549
	O330	O	0.001029	0.060334	-0.005099
	H331	H	-0.011174	0.071434	-0.007635
	H332	H	0.004668	0.059576	-0.001089
	O333	O	0.481501	0.516670	0.367275
	H334	H	0.475422	0.527010	0.377682
	H335	H	0.491535	0.499711	0.348454
	O336	O	-0.066165	-0.080790	0.072506
	H337	H	-0.056143	-0.091986	0.067929
	H338	H	-0.061873	-0.063368	0.083934
	O339	O	0.496461	0.643700	-0.324461
	H340	H	0.490081	0.627148	-0.323880
	H341	H	0.495904	0.638648	-0.343048
	O342	O	0.444421	0.609743	0.542397
	H343	H	0.432214	0.607618	0.526964
	H344	H	0.451887	0.609959	0.544162
	O345	O	0.029541	0.938311	1.013876
	H346	H	0.030559	0.929661	1.017897
	H347	H	0.042990	0.946121	1.009684
	O348	O	0.420386	0.490750	0.410947
	H349	H	0.418737	0.481280	0.424656
	H350	H	0.427129	0.485981	0.410513
	O351	O	0.564308	0.661530	0.418397
	H352	H	0.562641	0.675159	0.418978
	H353	H	0.561433	0.656150	0.427196
	O354	O	0.004720	1.010086	0.094208
	H355	H	0.005511	0.999110	0.089990
	H356	H	0.015118	1.010743	0.102163
	O357	O	0.449574	0.370441	0.678071
	H358	H	0.460419	0.370928	0.675128
	H359	H	0.450444	0.370055	0.672029
	O360	O	1.068026	-0.132352	1.050686
	H361	H	1.067032	-0.126714	1.043221
	H362	H	1.082474	-0.127776	1.042788
	O363	O	0.342168	0.334396	0.635816
	H364	H	0.344524	0.346724	0.638224
	H365	H	0.351101	0.340939	0.630984
	O366	O	0.611126	0.516269	0.483360
	H367	H	0.636660	0.509425	0.479251
	H368	H	0.603879	0.535198	0.484078
	O369	O	0.982139	0.026896	0.017300
	H370	H	0.985481	0.027956	0.020765
	H371	H	0.979592	0.024728	0.024802
	O372	O	0.423155	0.484691	0.486228
	H373	H	0.424321	0.513245	0.488698
	H374	H	0.434212	0.487504	0.474090
	O375	O	0.918073	0.039254	1.014187
	H376	H	0.922246	0.040809	1.020911
	H377	H	0.917245	0.038923	1.013858
	O378	O	0.444228	0.492585	0.443905
	H379	H	0.442590	0.491551	0.455608
	H380	H	0.435097	0.487189	0.447579
	O381	O	0.521835	0.394807	0.539481
	H382	H	0.532908	0.396289	0.541917
	H383	H	0.517767	0.400797	0.546211
	O384	O	1.363478	0.665837	0.588949
	H385	H	1.354948	0.673189	0.570980
	H386	H	1.391894	0.662614	0.590761
	O387	O	0.923740	-0.004785	0.969539
	H388	H	0.921888	-0.010299	0.982114
	H389	H	0.936188	-0.009068	0.972569
	O390	O	1.002116	1.061189	-0.103249
	H391	H	1.002389	1.068968	-0.103135
	H392	H	0.994118	1.063667	-0.114805
	O393	O	0.585765	0.598680	0.482917
	H394	H	0.597812	0.609948	0.479109
	H395	H	0.589154	0.601099	0.500204
