data_Molecule from HDF5

_cell_length_a		16.333262
_cell_length_b		16.361703
_cell_length_c		16.178203
_cell_angle_alpha	89.841114
_cell_angle_beta	90.108907
_cell_angle_gamma	89.954148
_symmetry_space_group_name_H-M	'P 1'
_symmetry_Int_Tables_number		1

loop_
	_symmetry_equiv_pos_as_xyz
	x,y,z

loop_
	_atom_site_label
	_atom_site_type_symbol
	_atom_site_fract_x
	_atom_site_fract_y
	_atom_site_fract_z
	H0	H	0.406672	0.835784	0.721140
	H1	H	0.598093	0.164444	0.721344
	H2	H	0.600744	0.836194	0.294631
	H3	H	0.405495	0.162970	0.294136
	H4	H	0.715746	0.400910	0.843125
	H5	H	0.715842	0.595702	0.173338
	H6	H	0.288842	0.597199	0.844371
	H7	H	0.289722	0.400046	0.173504
	H8	H	0.840152	0.715240	0.407533
	H9	H	0.166307	0.714592	0.607447
	H10	H	0.840088	0.283245	0.608462
	H11	H	0.166041	0.283895	0.408874
	H12	H	0.839123	0.401498	0.723180
	H13	H	0.167706	0.594951	0.721132
	H14	H	0.838569	0.595576	0.296060
	H15	H	0.167309	0.403411	0.296095
	H16	H	0.403529	0.714054	0.844153
	H17	H	0.602036	0.712850	0.172550
	H18	H	0.599336	0.285872	0.843189
	H19	H	0.406548	0.285535	0.173210
	H20	H	0.718425	0.836814	0.409682
	H21	H	0.719217	0.161932	0.608796
	H22	H	0.287203	0.837665	0.608658
	H23	H	0.287373	0.163139	0.409225
	H24	H	0.907754	0.336003	0.221424
	H25	H	0.100446	0.663046	0.221393
	H26	H	0.099453	0.335563	0.796004
	H27	H	0.905947	0.663126	0.793922
	H28	H	0.216856	0.901293	0.343221
	H29	H	0.215032	0.095981	0.673087
	H30	H	0.787280	0.098530	0.344207
	H31	H	0.789936	0.900814	0.673357
	H32	H	0.339198	0.214330	0.908403
	H33	H	0.665274	0.214676	0.107970
	H34	H	0.340645	0.782377	0.109322
	H35	H	0.665410	0.785423	0.911128
	H36	H	0.338760	0.902101	0.221570
	H37	H	0.666074	0.094740	0.221376
	H38	H	0.338115	0.094620	0.796153
	H39	H	0.666161	0.902579	0.795878
	H40	H	0.903417	0.213778	0.343180
	H41	H	0.101410	0.212655	0.672367
	H42	H	0.100096	0.786219	0.342927
	H43	H	0.905047	0.784772	0.672491
	H44	H	0.217630	0.336036	0.910706
	H45	H	0.219590	0.661558	0.107660
	H46	H	0.789396	0.335917	0.106538
	H47	H	0.786272	0.662211	0.907307
	H48	H	0.402135	0.116803	0.596934
	H49	H	0.611693	0.878476	0.606354
	H50	H	0.593460	0.116745	0.407874
	H51	H	0.414699	0.883726	0.409349
	H52	H	0.595316	0.403858	0.125228
	H53	H	0.589257	0.601454	0.889732
	H54	H	0.409625	0.597690	0.127942
	H55	H	0.415464	0.404868	0.892401
	H56	H	0.117773	0.597045	0.421474
	H57	H	0.886293	0.603741	0.595276
	H58	H	0.117171	0.413549	0.605266
	H59	H	0.885911	0.403648	0.414404
	H60	H	0.122401	0.397996	0.607368
	H61	H	0.892543	0.583991	0.593951
	H62	H	0.117071	0.586974	0.415699
	H63	H	0.887839	0.405470	0.418080
	H64	H	0.406723	0.585144	0.125642
	H65	H	0.605909	0.592921	0.887979
	H66	H	0.598080	0.405769	0.126561
	H67	H	0.405824	0.401603	0.887940
	H68	H	0.590291	0.111703	0.421751
	H69	H	0.583687	0.884187	0.614386
	H70	H	0.406482	0.118688	0.609527
	H71	H	0.411164	0.886681	0.424047
	H72	H	0.898552	0.619453	0.104929
	H73	H	0.097351	0.380652	0.110431
	H74	H	0.103041	0.618386	0.909705
	H75	H	0.901703	0.382060	0.915301
	H76	H	0.090459	0.906475	0.623441
	H77	H	0.092222	0.103850	0.388071
	H78	H	0.923107	0.091610	0.620699
	H79	H	0.906557	0.899065	0.387526
	H80	H	0.615738	0.093443	0.923787
	H81	H	0.381704	0.103858	0.104022
	H82	H	0.616227	0.905446	0.094539
	H83	H	0.389319	0.915290	0.918817
	H84	H	0.617565	0.911101	0.106155
	H85	H	0.389550	0.091886	0.089818
	H86	H	0.617937	0.086902	0.911032
	H87	H	0.382396	0.902896	0.905053
	H88	H	0.906018	0.102020	0.630256
	H89	H	0.107108	0.089559	0.388190
	H90	H	0.098033	0.900773	0.627008
	H91	H	0.904266	0.914546	0.391649
	H92	H	0.089277	0.614007	0.911441
	H93	H	0.091604	0.386582	0.098905
	H94	H	0.916559	0.615607	0.107719
	H95	H	0.913806	0.383677	0.909691
	H96	H	0.414619	0.113327	0.599500
	H97	H	0.593114	0.890159	0.586236
	H98	H	0.604166	0.116357	0.419168
	H99	H	0.400558	0.880675	0.413856
	H100	H	0.595530	0.406883	0.124451
	H101	H	0.591196	0.583204	0.894873
	H102	H	0.418428	0.589735	0.122992
	H103	H	0.407308	0.412362	0.891734
	H104	H	0.122191	0.596872	0.410306
	H105	H	0.884335	0.591167	0.611923
	H106	H	0.116337	0.402555	0.592714
	H107	H	0.887144	0.407741	0.414582
	H108	H	0.908903	0.612320	0.091475
	H109	H	0.104781	0.381945	0.099079
	H110	H	0.098633	0.613686	0.922819
	H111	H	0.911872	0.386969	0.922742
	H112	H	0.099358	0.910417	0.624860
	H113	H	0.087633	0.084860	0.394958
	H114	H	0.903832	0.081024	0.623467
	H115	H	0.918869	0.908170	0.394183
	H116	H	0.622110	0.101026	0.912195
	H117	H	0.386123	0.085422	0.108819
	H118	H	0.622265	0.898498	0.104643
	H119	H	0.386389	0.896776	0.923630
	C120	C	0.380429	0.008330	0.630353
	C121	C	0.624428	0.991997	0.630800
	C122	C	0.624378	0.007393	0.387334
	C123	C	0.380405	0.991424	0.386820
	C124	C	0.623954	0.377378	0.016312
	C125	C	0.623734	0.620089	0.999818
	C126	C	0.381963	0.620110	0.017326
	C127	C	0.381792	0.377861	0.999919
	C128	C	0.011152	0.621556	0.386944
	C129	C	0.995626	0.620660	0.629216
	C130	C	0.010996	0.376580	0.630726
	C131	C	0.994933	0.377679	0.387363
	C132	C	0.880666	0.507744	0.130258
	C133	C	0.125604	0.490908	0.130625
	C134	C	0.124866	0.507483	0.887084
	C135	C	0.880797	0.491855	0.886609
	C136	C	0.124250	0.877957	0.516252
	C137	C	0.123444	0.120307	0.499471
	C138	C	0.881090	0.121044	0.516494
	C139	C	0.881691	0.878175	0.499803
	C140	C	0.510485	0.121197	0.887109
	C141	C	0.493608	0.121497	0.129809
	C142	C	0.511263	0.876633	0.130724
	C143	C	0.493905	0.877315	0.887302
	C144	C	0.384673	0.885286	0.684841
	C145	C	0.620136	0.115282	0.684509
	C146	C	0.621446	0.885052	0.332264
	C147	C	0.383922	0.114329	0.331739
	C148	C	0.678500	0.380236	0.892469
	C149	C	0.678239	0.616449	0.124084
	C150	C	0.326691	0.617820	0.893375
	C151	C	0.327406	0.379992	0.124062
	C152	C	0.888691	0.676873	0.388191
	C153	C	0.117897	0.676143	0.627444
	C154	C	0.888534	0.321762	0.628457
	C155	C	0.117657	0.322675	0.389446
	C156	C	0.888044	0.380791	0.685342
	C157	C	0.118662	0.616690	0.683948
	C158	C	0.888074	0.617520	0.332487
	C159	C	0.118370	0.382166	0.333204
	C160	C	0.383552	0.675797	0.893397
	C161	C	0.621975	0.674891	0.123740
	C162	C	0.620660	0.323138	0.892344
	C163	C	0.385206	0.323069	0.124032
	C164	C	0.680015	0.885258	0.389468
	C165	C	0.680141	0.113972	0.628693
	C166	C	0.325644	0.885857	0.628482
	C167	C	0.325524	0.114385	0.388877
	C168	C	0.885789	0.384819	0.184046
	C169	C	0.121693	0.614168	0.184288
	C170	C	0.120800	0.384375	0.833131
	C171	C	0.884249	0.614241	0.831228
	C172	C	0.178939	0.880988	0.392475
	C173	C	0.177829	0.117021	0.623863
	C174	C	0.825265	0.119126	0.393060
	C175	C	0.827367	0.880579	0.623912
	C176	C	0.387718	0.176014	0.889063
	C177	C	0.616754	0.176056	0.127846
	C178	C	0.388827	0.821131	0.129200
	C179	C	0.616827	0.822918	0.890168
	C180	C	0.388008	0.880492	0.185052
	C181	C	0.617042	0.116982	0.184315
	C182	C	0.387042	0.116487	0.833325
	C183	C	0.617046	0.881146	0.832809
	C184	C	0.883216	0.176159	0.392710
	C185	C	0.121304	0.174936	0.623385
	C186	C	0.120991	0.823947	0.392014
	C187	C	0.884229	0.822676	0.623465
	C188	C	0.179550	0.384527	0.890051
	C189	C	0.180851	0.613447	0.127932
	C190	C	0.826921	0.384877	0.127085
	C191	C	0.825265	0.613907	0.888002
	C192	C	0.401561	0.094160	0.608206
	C193	C	0.602712	0.906415	0.608663
	C194	C	0.602397	0.092909	0.409743
	C195	C	0.402280	0.905882	0.409332
	C196	C	0.602574	0.398925	0.102984
	C197	C	0.601832	0.598856	0.913179
	C198	C	0.404932	0.597615	0.103404
	C199	C	0.403088	0.399837	0.913066
	C200	C	0.096877	0.599982	0.409283
	C201	C	0.909832	0.599352	0.606954
	C202	C	0.096657	0.398318	0.608383
	C203	C	0.909167	0.399326	0.409140
	C204	C	0.901772	0.593645	0.107968
	C205	C	0.104312	0.405288	0.109070
	C206	C	0.103393	0.593164	0.908496
	C207	C	0.902691	0.406225	0.909230
	C208	C	0.102248	0.899356	0.602742
	C209	C	0.101920	0.098910	0.412864
	C210	C	0.904159	0.098222	0.602642
	C211	C	0.903444	0.900794	0.413443
	C212	C	0.596430	0.100153	0.909306
	C213	C	0.408077	0.100125	0.107457
	C214	C	0.596697	0.898527	0.108324
	C215	C	0.408071	0.898654	0.909242
	Zn216	Zn	0.502232	-0.000177	0.758926
	Zn217	Zn	0.502143	-0.000762	0.258251
	Zn218	Zn	0.751652	0.499369	0.008011
	Zn219	Zn	0.253656	0.498732	0.008819
	Zn220	Zn	0.002969	0.750182	0.507796
	Zn221	Zn	0.002880	0.248359	0.508074
	Zn222	Zn	0.003029	0.499563	0.758348
	Zn223	Zn	0.003383	0.499930	0.258709
	Zn224	Zn	0.502838	0.748001	0.008880
	Zn225	Zn	0.502535	0.250006	0.008075
	Zn226	Zn	0.753728	-0.000369	0.508849
	Zn227	Zn	0.251724	-0.000394	0.508186
	N228	N	0.417996	0.962464	0.686149
	N229	N	0.586133	0.038263	0.685966
	N230	N	0.587229	0.961974	0.331067
	N231	N	0.417316	0.037137	0.330294
	N232	N	0.680655	0.413415	0.970563
	N233	N	0.679430	0.583294	0.046017
	N234	N	0.325445	0.583945	0.971227
	N235	N	0.325183	0.413407	0.045812
	N236	N	0.966324	0.679518	0.421173
	N237	N	0.040523	0.678414	0.593898
	N238	N	0.965896	0.319213	0.595034
	N239	N	0.040058	0.319923	0.422275
	N240	N	0.965306	0.414192	0.686753
	N241	N	0.041471	0.582913	0.684967
	N242	N	0.965156	0.583580	0.331733
	N243	N	0.040871	0.415490	0.331453
	N244	N	0.417505	0.677219	0.971385
	N245	N	0.588745	0.677238	0.045413
	N246	N	0.587744	0.321179	0.970488
	N247	N	0.418027	0.321612	0.045792
	N248	N	0.681747	0.962369	0.423059
	N249	N	0.683095	0.036327	0.596501
	N250	N	0.323004	0.963272	0.595201
	N251	N	0.323077	0.036906	0.422200
	N252	N	0.918548	0.462264	0.186119
	N253	N	0.087983	0.537128	0.186041
	N254	N	0.087498	0.461699	0.831309
	N255	N	0.918191	0.537292	0.830526
	N256	N	0.181143	0.913720	0.470644
	N257	N	0.179422	0.083783	0.545787
	N258	N	0.824042	0.085564	0.471024
	N259	N	0.825539	0.914300	0.545865
	N260	N	0.465571	0.179125	0.921857
	N261	N	0.539206	0.179007	0.094728
	N262	N	0.466356	0.818447	0.096145
	N263	N	0.539324	0.820483	0.923382
	N264	N	0.465146	0.914312	0.186217
	N265	N	0.539596	0.083693	0.185664
	N266	N	0.464207	0.083211	0.831887
	N267	N	0.539567	0.914247	0.830820
	N268	N	0.917102	0.177517	0.470716
	N269	N	0.088163	0.177048	0.545222
	N270	N	0.087684	0.822013	0.470151
	N271	N	0.917251	0.821115	0.545357
	N272	N	0.182258	0.461995	0.922786
	N273	N	0.183547	0.535909	0.095538
	N274	N	0.823560	0.462571	0.094642
	N275	N	0.823003	0.536701	0.921623
	O276	O	0.563555	0.538987	0.523523
	H277	H	0.557753	0.543437	0.529669
	H278	H	0.566057	0.534337	0.517147
	O279	O	-0.059893	0.033423	-0.037737
	H280	H	-0.058494	0.034624	-0.041447
	H281	H	-0.059068	0.031303	-0.046255
	O282	O	0.544662	0.534082	0.513142
	H283	H	0.528120	0.529653	0.511114
	H284	H	0.550406	0.535866	0.502782
	O285	O	0.503831	0.489012	0.410441
	H286	H	0.505833	0.487016	0.415570
	H287	H	0.508000	0.491987	0.404602
	O288	O	1.570261	0.547609	-0.496468
	H289	H	1.576288	0.551239	-0.499320
	H290	H	1.571345	0.546530	-0.498639
	O291	O	-0.468588	0.555694	-0.433889
	H292	H	-0.459268	0.552956	-0.436911
	H293	H	-0.476993	0.550840	-0.436302
	O294	O	0.521331	0.534983	0.502864
	H295	H	0.524129	0.539029	0.505869
	H296	H	0.526819	0.535226	0.508620
	O297	O	-0.095101	1.069346	-0.087607
	H298	H	-0.106441	1.066395	-0.085236
	H299	H	-0.104402	1.075520	-0.080174
	O300	O	0.913762	0.051367	0.914688
	H301	H	0.907957	0.060020	0.903959
	H302	H	0.910068	0.055455	0.905869
	O303	O	0.533306	0.506644	0.429369
	H304	H	0.528543	0.500693	0.425561
	H305	H	0.529714	0.513603	0.426956
	O306	O	-0.121362	1.059518	0.959974
	H307	H	-0.113204	1.064291	0.964692
	H308	H	-0.124209	1.050229	0.966203
	O309	O	0.538413	0.553302	0.474526
	H310	H	0.542775	0.558724	0.475975
	H311	H	0.545847	0.552458	0.491872
