data_Molecule from HDF5

_cell_length_a		16.362895
_cell_length_b		16.520568
_cell_length_c		16.463855
_cell_angle_alpha	90.029548
_cell_angle_beta	89.747360
_cell_angle_gamma	90.053022
_symmetry_space_group_name_H-M	'P 1'
_symmetry_Int_Tables_number		1

loop_
	_symmetry_equiv_pos_as_xyz
	x,y,z

loop_
	_atom_site_label
	_atom_site_type_symbol
	_atom_site_fract_x
	_atom_site_fract_y
	_atom_site_fract_z
	H0	H	0.389471	0.846247	0.730400
	H1	H	0.604569	0.160725	0.731018
	H2	H	0.604482	0.847000	0.284323
	H3	H	0.389450	0.159882	0.285508
	H4	H	0.719939	0.398257	0.848801
	H5	H	0.718730	0.608016	0.165405
	H6	H	0.280466	0.607541	0.847163
	H7	H	0.275343	0.400611	0.164830
	H8	H	0.839049	0.727644	0.397226
	H9	H	0.156254	0.723516	0.608065
	H10	H	0.838868	0.283412	0.612588
	H11	H	0.156522	0.284736	0.401282
	H12	H	0.838521	0.398222	0.728773
	H13	H	0.157728	0.609221	0.723938
	H14	H	0.840217	0.613633	0.280334
	H15	H	0.156058	0.399679	0.284012
	H16	H	0.389371	0.729144	0.851043
	H17	H	0.605812	0.726914	0.164554
	H18	H	0.607251	0.278995	0.850886
	H19	H	0.390977	0.283409	0.165609
	H20	H	0.721141	0.847153	0.399914
	H21	H	0.723077	0.159971	0.616531
	H22	H	0.273943	0.846116	0.613208
	H23	H	0.276647	0.161509	0.404916
	H24	H	0.885472	0.349200	0.234376
	H25	H	0.109603	0.659485	0.231993
	H26	H	0.103637	0.347389	0.784560
	H27	H	0.888789	0.660609	0.782153
	H28	H	0.218641	0.900043	0.347786
	H29	H	0.216856	0.108207	0.664550
	H30	H	0.773995	0.111409	0.349542
	H31	H	0.772769	0.897055	0.664016
	H32	H	0.338899	0.223747	0.904948
	H33	H	0.656219	0.223954	0.113670
	H34	H	0.339420	0.781774	0.115902
	H35	H	0.654706	0.780253	0.898939
	H36	H	0.337822	0.898364	0.229356
	H37	H	0.656295	0.108265	0.228575
	H38	H	0.338802	0.108564	0.787848
	H39	H	0.654765	0.896078	0.783076
	H40	H	0.888042	0.229405	0.349790
	H41	H	0.105506	0.228111	0.662463
	H42	H	0.106358	0.779860	0.348794
	H43	H	0.885305	0.777167	0.661667
	H44	H	0.219594	0.347251	0.900921
	H45	H	0.221666	0.661214	0.111622
	H46	H	0.771804	0.347648	0.116249
	H47	H	0.773608	0.660741	0.900507
	H48	H	0.406511	0.114558	0.592986
	H49	H	0.582990	0.895554	0.587294
	H50	H	0.585027	0.112950	0.426144
	H51	H	0.411158	0.888656	0.410848
	H52	H	0.581345	0.409997	0.120451
	H53	H	0.595125	0.586196	0.892869
	H54	H	0.408576	0.594990	0.120670
	H55	H	0.409261	0.414558	0.894290
	H56	H	0.104462	0.585079	0.423887
	H57	H	0.884958	0.597479	0.586896
	H58	H	0.113247	0.419378	0.604443
	H59	H	0.884736	0.414749	0.420480
	H60	H	0.114569	0.405132	0.593875
	H61	H	0.887414	0.581438	0.592808
	H62	H	0.111754	0.589349	0.409066
	H63	H	0.886625	0.420038	0.422622
	H64	H	0.408713	0.590291	0.119143
	H65	H	0.575042	0.586816	0.900770
	H66	H	0.590565	0.413603	0.122258
	H67	H	0.412665	0.412460	0.894702
	H68	H	0.589340	0.118615	0.415985
	H69	H	0.589491	0.890181	0.596749
	H70	H	0.403604	0.117664	0.600014
	H71	H	0.412348	0.894232	0.424044
	H72	H	0.918738	0.611087	0.093445
	H73	H	0.087634	0.390293	0.098728
	H74	H	0.085877	0.618813	0.913062
	H75	H	0.909224	0.392270	0.917996
	H76	H	0.080330	0.913010	0.617681
	H77	H	0.086606	0.097193	0.392461
	H78	H	0.910075	0.092968	0.617685
	H79	H	0.906698	0.911838	0.391592
	H80	H	0.610425	0.092593	0.922408
	H81	H	0.384412	0.095350	0.094393
	H82	H	0.610726	0.916490	0.098766
	H83	H	0.386193	0.921471	0.919743
	H84	H	0.610642	0.913106	0.094202
	H85	H	0.385080	0.089287	0.097231
	H86	H	0.610976	0.088646	0.918600
	H87	H	0.382227	0.913433	0.916639
	H88	H	0.910785	0.092914	0.618122
	H89	H	0.088208	0.093429	0.391957
	H90	H	0.085263	0.911616	0.620302
	H91	H	0.907985	0.922052	0.395718
	H92	H	0.089641	0.618112	0.917703
	H93	H	0.076923	0.395398	0.093493
	H94	H	0.907131	0.612944	0.086055
	H95	H	0.910104	0.392889	0.915938
	H96	H	0.411083	0.115036	0.599665
	H97	H	0.577499	0.894295	0.598939
	H98	H	0.577722	0.113802	0.415630
	H99	H	0.400043	0.889295	0.419557
	H100	H	0.583251	0.418889	0.117579
	H101	H	0.583801	0.604110	0.891463
	H102	H	0.412777	0.593592	0.118130
	H103	H	0.409212	0.410866	0.893516
	H104	H	0.110911	0.600270	0.421656
	H105	H	0.879585	0.593588	0.603328
	H106	H	0.106823	0.420321	0.587635
	H107	H	0.884337	0.419365	0.417324
	H108	H	0.907672	0.618150	0.098225
	H109	H	0.087821	0.394601	0.086454
	H110	H	0.091772	0.619460	0.912566
	H111	H	0.911091	0.392674	0.918012
	H112	H	0.084787	0.916724	0.617774
	H113	H	0.084187	0.093843	0.393589
	H114	H	0.910203	0.093060	0.617963
	H115	H	0.916369	0.914875	0.396401
	H116	H	0.612187	0.093757	0.917086
	H117	H	0.381586	0.094462	0.101089
	H118	H	0.609090	0.918016	0.093761
	H119	H	0.385312	0.913703	0.925518
	C120	C	0.373998	0.011749	0.629992
	C121	C	0.617720	0.996446	0.628137
	C122	C	0.618302	0.012142	0.385587
	C123	C	0.375612	0.995025	0.386438
	C124	C	0.619638	0.381153	0.016249
	C125	C	0.618592	0.625154	0.998742
	C126	C	0.376881	0.625563	0.015305
	C127	C	0.376731	0.381772	0.998824
	C128	C	0.005482	0.625876	0.383817
	C129	C	0.988930	0.624402	0.626272
	C130	C	0.006594	0.382350	0.628582
	C131	C	0.989323	0.384618	0.386132
	C132	C	0.876169	0.511699	0.127984
	C133	C	0.118914	0.496281	0.126235
	C134	C	0.120750	0.514049	0.883227
	C135	C	0.875872	0.495831	0.884547
	C136	C	0.117245	0.882021	0.514119
	C137	C	0.118559	0.126038	0.497235
	C138	C	0.876247	0.126264	0.514530
	C139	C	0.875244	0.882062	0.497813
	C140	C	0.506350	0.124171	0.887198
	C141	C	0.488622	0.125248	0.129833
	C142	C	0.505588	0.882544	0.128962
	C143	C	0.488650	0.882794	0.886679
	C144	C	0.371379	0.893649	0.690111
	C145	C	0.622391	0.113607	0.690457
	C146	C	0.621997	0.893898	0.324864
	C147	C	0.372557	0.113184	0.326095
	C148	C	0.680279	0.379142	0.897003
	C149	C	0.679175	0.627186	0.117674
	C150	C	0.318284	0.627113	0.895733
	C151	C	0.315600	0.381441	0.117374
	C152	C	0.886587	0.687246	0.379914
	C153	C	0.108532	0.684322	0.627067
	C154	C	0.886590	0.322803	0.630824
	C155	C	0.108638	0.324309	0.382788
	C156	C	0.886645	0.380300	0.688681
	C157	C	0.109028	0.627142	0.684763
	C158	C	0.887386	0.630637	0.321282
	C159	C	0.108659	0.381360	0.324572
	C160	C	0.372924	0.687571	0.897541
	C161	C	0.622831	0.686390	0.117257
	C162	C	0.623934	0.319768	0.897881
	C163	C	0.373486	0.323367	0.118105
	C164	C	0.680149	0.894217	0.382549
	C165	C	0.681417	0.113109	0.633288
	C166	C	0.314032	0.893437	0.631515
	C167	C	0.316355	0.113989	0.385622
	C168	C	0.869917	0.395477	0.192080
	C169	C	0.125161	0.613095	0.189617
	C170	C	0.122336	0.394917	0.824077
	C171	C	0.871448	0.613520	0.822962
	C172	C	0.178632	0.880865	0.395376
	C173	C	0.177688	0.127035	0.616724
	C174	C	0.814387	0.129414	0.396618
	C175	C	0.813083	0.878581	0.616319
	C176	C	0.386746	0.184186	0.885670
	C177	C	0.608349	0.184987	0.132020
	C178	C	0.386750	0.821703	0.132994
	C179	C	0.607344	0.820969	0.881752
	C180	C	0.386166	0.879743	0.189740
	C181	C	0.608408	0.127009	0.189076
	C182	C	0.386654	0.126818	0.827603
	C183	C	0.607205	0.878166	0.823673
	C184	C	0.871389	0.188273	0.396848
	C185	C	0.122521	0.187140	0.615492
	C186	C	0.122247	0.821391	0.395592
	C187	C	0.869076	0.818713	0.615134
	C188	C	0.180134	0.394838	0.881928
	C189	C	0.181428	0.613863	0.130044
	C190	C	0.813152	0.394575	0.132950
	C191	C	0.813747	0.613641	0.881666
	C192	C	0.399777	0.094265	0.604989
	C193	C	0.590912	0.914615	0.601800
	C194	C	0.591659	0.093901	0.411738
	C195	C	0.400604	0.912141	0.411053
	C196	C	0.593111	0.406812	0.098631
	C197	C	0.592344	0.599620	0.916399
	C198	C	0.402529	0.600283	0.097969
	C199	C	0.402843	0.405800	0.915724
	C200	C	0.087675	0.599351	0.410510
	C201	C	0.905816	0.598475	0.601592
	C202	C	0.089781	0.407544	0.602867
	C203	C	0.906816	0.410670	0.412371
	C204	C	0.903551	0.593127	0.100323
	C205	C	0.091772	0.414947	0.100243
	C206	C	0.096149	0.596959	0.907440
	C207	C	0.902200	0.413765	0.910238
	C208	C	0.090936	0.906632	0.596903
	C209	C	0.093497	0.101877	0.414287
	C210	C	0.902752	0.100386	0.596485
	C211	C	0.902541	0.908592	0.415913
	C212	C	0.589542	0.098898	0.912064
	C213	C	0.405212	0.100270	0.104870
	C214	C	0.588541	0.908417	0.103019
	C215	C	0.406112	0.908907	0.913217
	Zn216	Zn	0.497230	0.003638	0.758403
	Zn217	Zn	0.496920	0.003528	0.257235
	Zn218	Zn	0.747040	0.503666	0.006991
	Zn219	Zn	0.248550	0.504256	0.005602
	Zn220	Zn	-0.003396	0.753261	0.505535
	Zn221	Zn	-0.002351	0.255026	0.506182
	Zn222	Zn	-0.002057	0.504586	0.755619
	Zn223	Zn	-0.002123	0.504029	0.256180
	Zn224	Zn	0.497400	0.754430	0.007585
	Zn225	Zn	0.497888	0.252810	0.008078
	Zn226	Zn	0.747461	0.004268	0.506455
	Zn227	Zn	0.245975	0.003245	0.507004
	N228	N	0.408175	0.968355	0.689339
	N229	N	0.583325	0.039989	0.687208
	N230	N	0.584180	0.968070	0.326750
	N231	N	0.408937	0.038150	0.326677
	N232	N	0.677770	0.416383	0.971579
	N233	N	0.676645	0.589897	0.043172
	N234	N	0.320579	0.589324	0.970081
	N235	N	0.317518	0.416866	0.041909
	N236	N	0.961002	0.684365	0.417922
	N237	N	0.032608	0.683017	0.591670
	N238	N	0.962268	0.323804	0.594410
	N239	N	0.033318	0.325953	0.419967
	N240	N	0.962358	0.416394	0.687608
	N241	N	0.033409	0.590787	0.684645
	N242	N	0.962396	0.593141	0.323505
	N243	N	0.033441	0.418002	0.326427
	N244	N	0.408407	0.686855	0.973074
	N245	N	0.586089	0.685626	0.042084
	N246	N	0.587167	0.320645	0.973255
	N247	N	0.410823	0.323430	0.043257
	N248	N	0.677878	0.968701	0.419594
	N249	N	0.678347	0.039185	0.595098
	N250	N	0.315449	0.968006	0.594926
	N251	N	0.318281	0.039497	0.422379
	N252	N	0.908503	0.469386	0.188843
	N253	N	0.086618	0.539168	0.187457
	N254	N	0.086231	0.470067	0.824564
	N255	N	0.909178	0.539169	0.824534
	N256	N	0.175402	0.918131	0.470010
	N257	N	0.175396	0.089668	0.542333
	N258	N	0.817059	0.091774	0.470810
	N259	N	0.816938	0.917230	0.542429
	N260	N	0.462290	0.182793	0.921815
	N261	N	0.532749	0.184227	0.096122
	N262	N	0.462123	0.823268	0.095829
	N263	N	0.532736	0.823721	0.920163
	N264	N	0.461273	0.916707	0.187601
	N265	N	0.532806	0.090660	0.187885
	N266	N	0.462214	0.090443	0.828380
	N267	N	0.532229	0.915686	0.826465
	N268	N	0.909127	0.186491	0.471281
	N269	N	0.086399	0.186679	0.540298
	N270	N	0.084662	0.822274	0.470386
	N271	N	0.906853	0.820689	0.540389
	N272	N	0.179592	0.469965	0.917609
	N273	N	0.177604	0.540323	0.091430
	N274	N	0.817010	0.467992	0.093817
	N275	N	0.816525	0.539447	0.919197
	O276	O	0.707743	0.720905	0.527845
	H277	H	0.725364	0.730309	0.554521
	H278	H	0.725378	0.712636	0.521013
	O279	O	1.182334	0.192916	1.195920
	H280	H	1.200293	0.181041	1.197657
	H281	H	1.196605	0.170326	1.178572
	O282	O	0.440596	0.712596	0.343918
	H283	H	0.438305	0.732122	0.325202
	H284	H	0.476582	0.720673	0.378911
	O285	O	0.319983	0.685462	0.345280
	H286	H	0.351609	0.695123	0.342104
	H287	H	0.310974	0.676942	0.351442
	O288	O	1.080912	0.991060	0.160021
	H289	H	1.080049	0.973417	0.169757
	H290	H	1.063431	0.989283	0.156640
	O291	O	0.706250	0.293596	0.485741
	H292	H	0.699348	0.299340	0.465122
	H293	H	0.729464	0.267593	0.474588
	O294	O	-0.186414	0.190360	0.820265
	H295	H	-0.198786	0.196400	0.869718
	H296	H	-0.199382	0.147229	0.812046
	O297	O	0.313628	0.698923	0.552641
	H298	H	0.304695	0.699505	0.556997
	H299	H	0.299919	0.704239	0.529324
	O300	O	0.600065	0.684081	0.431188
	H301	H	0.590190	0.690129	0.454883
	H302	H	0.622546	0.689476	0.452151
	O303	O	0.064295	1.063294	-0.173040
	H304	H	0.058622	1.078949	-0.184474
	H305	H	0.051623	1.082873	-0.157525
	O306	O	0.332553	0.521863	0.323697
	H307	H	0.338608	0.536147	0.327001
	H308	H	0.332280	0.532089	0.319192
	O309	O	1.036100	0.041828	-0.013428
	H310	H	1.015216	0.036317	-0.013972
	H311	H	1.036077	0.036413	-0.025869
	O312	O	-0.203966	1.027417	0.826130
	H313	H	-0.167862	1.012894	0.818580
	H314	H	-0.224125	1.024998	0.812757
	O315	O	0.411643	0.303950	0.387724
	H316	H	0.423543	0.306465	0.391243
	H317	H	0.400112	0.318840	0.396922
	O318	O	1.179592	-0.185248	-0.179111
	H319	H	1.190561	-0.184918	-0.134933
	H320	H	1.187717	-0.141935	-0.183593
	O321	O	-0.213435	-0.192729	0.050013
	H322	H	-0.224321	-0.195551	0.027919
	H323	H	-0.234140	-0.186340	0.038528
	O324	O	0.293849	0.469614	0.716590
	H325	H	0.301247	0.453875	0.715854
	H326	H	0.282726	0.481514	0.742914
	O327	O	0.297512	0.301372	0.531251
	H328	H	0.296610	0.305792	0.520132
	H329	H	0.294792	0.301333	0.521832
	O330	O	-0.082478	0.959204	-0.215896
	H331	H	-0.063723	0.921672	-0.223807
	H332	H	-0.057043	0.978257	-0.202241
	O333	O	0.815114	-0.175074	1.192386
	H334	H	0.805901	-0.172328	1.156646
	H335	H	0.848119	-0.184909	1.186097
	O336	O	0.143115	0.209918	-0.064129
	H337	H	0.122870	0.222039	-0.066231
	H338	H	0.141899	0.223422	-0.079938
	O339	O	-0.027883	1.225837	0.785054
	H340	H	-0.078559	1.214741	0.796743
	H341	H	-0.035453	1.262013	0.748253
	O342	O	-0.045191	0.790906	0.951744
	H343	H	-0.050081	0.794370	0.935667
	H344	H	-0.059469	0.790876	0.939426
	O345	O	0.787573	1.218391	-0.014938
	H346	H	0.788626	1.220027	0.001508
	H347	H	0.779751	1.238923	0.000007
	O348	O	0.673285	0.689626	0.689596
	H349	H	0.650051	0.692905	0.675005
	H350	H	0.685239	0.646665	0.696197
	O351	O	-0.212679	0.992867	1.197815
	H352	H	-0.200374	0.963391	1.199239
	H353	H	-0.216793	0.990643	1.221502
	O354	O	-0.028802	1.086282	0.132606
	H355	H	-0.031350	1.085744	0.133909
	H356	H	-0.040539	1.075067	0.152530
	O357	O	-0.145298	0.076703	1.110159
	H358	H	-0.130700	0.070842	1.131506
	H359	H	-0.145313	0.104758	1.115379
	O360	O	0.500356	0.552968	0.293402
	H361	H	0.491353	0.561696	0.292234
	H362	H	0.491991	0.558536	0.291644
	O363	O	0.308823	-0.693082	0.698281
	H364	H	0.302683	-0.706019	0.672459
	H365	H	0.314042	-0.668630	0.693517
	O366	O	0.490624	0.502350	0.588936
	H367	H	0.496909	0.499525	0.585692
	H368	H	0.481145	0.502143	0.585517
	O369	O	0.655772	0.544456	0.474322
	H370	H	0.641766	0.533357	0.453567
	H371	H	0.661260	0.531852	0.488901
	O372	O	1.165695	0.080573	1.064398
	H373	H	1.166802	0.086833	1.063294
	H374	H	1.148599	0.080792	1.074320
	O375	O	0.486547	0.292558	0.722519
	H376	H	0.487619	0.270856	0.745896
	H377	H	0.460458	0.301597	0.721455
	O378	O	0.469670	0.617272	0.621279
	H379	H	0.473994	0.640287	0.624005
	H380	H	0.466162	0.618920	0.614431
	O381	O	0.699121	0.446511	0.568540
	H382	H	0.701744	0.425319	0.554496
	H383	H	0.695559	0.453346	0.576311
	O384	O	0.565323	0.409447	0.698543
	H385	H	0.547277	0.393934	0.701548
	H386	H	0.559082	0.425421	0.685123
	O387	O	0.207799	-0.022533	0.795699
	H388	H	0.202708	-0.004424	0.792179
	H389	H	0.219575	-0.004579	0.790210
	O390	O	-0.023290	-0.215196	0.224387
	H391	H	-0.030429	-0.243361	0.244437
	H392	H	-0.018003	-0.228409	0.206130
	O393	O	1.131414	0.934951	1.019303
	H394	H	1.119352	0.941027	1.009708
	H395	H	1.126093	0.951846	1.019652
	O396	O	1.028907	-0.171982	0.033129
	H397	H	1.049807	-0.170709	0.020674
	H398	H	1.012203	-0.163187	0.001616
	O399	O	1.193540	-0.198927	1.012634
	H400	H	1.185839	-0.186805	1.034943
	H401	H	1.216129	-0.218104	1.014204
	O402	O	1.381399	0.412501	0.379503
	H403	H	1.374295	0.420087	0.371717
	H404	H	1.389328	0.401323	0.371212
	O405	O	1.019596	1.186980	0.197412
	H406	H	1.061051	1.178583	0.185006
	H407	H	1.024457	1.221241	0.234657
	O408	O	0.819080	-0.082168	-0.063091
	H409	H	0.814773	-0.063828	-0.071805
	H410	H	0.820897	-0.071410	-0.073957
	O411	O	1.183216	1.057850	-0.091831
	H412	H	1.175755	1.074069	-0.082684
	H413	H	1.162026	1.048392	-0.079944
	O414	O	0.019527	0.783545	0.781519
	H415	H	0.060752	0.781904	0.783580
	H416	H	0.032417	0.755983	0.762558
	O417	O	0.291570	0.530609	0.555206
	H418	H	0.292542	0.518273	0.584162
	H419	H	0.286606	0.519503	0.538367
	O420	O	0.700690	0.527760	0.716358
	H421	H	0.693957	0.511650	0.720703
	H422	H	0.713420	0.515530	0.729604
	O423	O	-0.134092	1.037044	0.110725
	H424	H	-0.115137	1.041565	0.118338
	H425	H	-0.132742	1.025567	0.127196
	O426	O	0.499489	0.292980	0.343911
	H427	H	0.508063	0.288650	0.362621
	H428	H	0.504297	0.285198	0.323155
	O429	O	0.470032	0.654078	0.476000
	H430	H	0.478317	0.638677	0.494980
	H431	H	0.457327	0.682609	0.487974
	O432	O	0.651625	0.337366	0.324406
	H433	H	0.620434	0.338091	0.328253
	H434	H	0.666859	0.370236	0.312691
	O435	O	0.535827	0.290218	0.540622
	H436	H	0.548572	0.285875	0.549791
	H437	H	0.540984	0.281305	0.553093
	O438	O	0.088301	0.047519	0.003175
	H439	H	0.097548	0.040671	0.003945
	H440	H	0.077371	0.062287	-0.010864
	O441	O	1.137957	-0.005201	0.179215
	H442	H	1.142964	-0.017194	0.173908
	H443	H	1.122229	-0.011569	0.182780
	O444	O	-0.011535	1.232015	1.051736
	H445	H	-0.009972	1.223358	1.060264
	H446	H	-0.019544	1.239849	1.060538
	O447	O	0.506553	0.698815	0.708284
	H448	H	0.499506	0.722889	0.730745
	H449	H	0.515194	0.679717	0.701347
	O450	O	0.701987	0.487660	0.305670
	H451	H	0.686989	0.506291	0.302660
	H452	H	0.716525	0.489448	0.296513
	O453	O	0.443723	0.506005	0.477391
	H454	H	0.452948	0.508096	0.462169
	H455	H	0.456535	0.502773	0.479728
