data_Molecule from HDF5

_cell_length_a		16.385630
_cell_length_b		16.299948
_cell_length_c		16.418318
_cell_angle_alpha	90.093132
_cell_angle_beta	90.288969
_cell_angle_gamma	90.036694
_symmetry_space_group_name_H-M	'P 1'
_symmetry_Int_Tables_number		1

loop_
	_symmetry_equiv_pos_as_xyz
	x,y,z

loop_
	_atom_site_label
	_atom_site_type_symbol
	_atom_site_fract_x
	_atom_site_fract_y
	_atom_site_fract_z
	H0	H	0.394997	0.838558	0.715459
	H1	H	0.604223	0.159313	0.716924
	H2	H	0.600011	0.837720	0.278927
	H3	H	0.394761	0.160104	0.276593
	H4	H	0.718099	0.396166	0.835861
	H5	H	0.721176	0.604258	0.155447
	H6	H	0.276781	0.604751	0.837019
	H7	H	0.279847	0.395661	0.156869
	H8	H	0.838685	0.719597	0.392827
	H9	H	0.159383	0.719746	0.600474
	H10	H	0.838195	0.282268	0.598400
	H11	H	0.159963	0.281969	0.396932
	H12	H	0.838483	0.397395	0.714417
	H13	H	0.157752	0.607213	0.719520
	H14	H	0.840025	0.605936	0.273717
	H15	H	0.159482	0.395969	0.278025
	H16	H	0.396471	0.717789	0.835929
	H17	H	0.603884	0.719513	0.157025
	H18	H	0.602157	0.279386	0.836376
	H19	H	0.399432	0.281386	0.157583
	H20	H	0.717275	0.837877	0.392608
	H21	H	0.718049	0.159948	0.599692
	H22	H	0.280182	0.838756	0.598079
	H23	H	0.280993	0.161277	0.393799
	H24	H	0.894738	0.340284	0.215664
	H25	H	0.104588	0.659693	0.217715
	H26	H	0.101268	0.339719	0.777046
	H27	H	0.892510	0.660554	0.775210
	H28	H	0.217929	0.895516	0.336566
	H29	H	0.223169	0.107097	0.654541
	H30	H	0.779147	0.101665	0.336672
	H31	H	0.778923	0.894124	0.655890
	H32	H	0.339214	0.218235	0.893565
	H33	H	0.660314	0.216542	0.099776
	H34	H	0.339197	0.779039	0.097247
	H35	H	0.660283	0.780313	0.894418
	H36	H	0.338986	0.892139	0.216471
	H37	H	0.658644	0.102912	0.218870
	H38	H	0.340430	0.104474	0.774757
	H39	H	0.658912	0.892893	0.775773
	H40	H	0.895728	0.218236	0.336438
	H41	H	0.101735	0.218769	0.657647
	H42	H	0.101442	0.779395	0.337314
	H43	H	0.895049	0.779950	0.655966
	H44	H	0.217281	0.338776	0.892726
	H45	H	0.220259	0.660483	0.101366
	H46	H	0.781459	0.339429	0.097680
	H47	H	0.778768	0.660444	0.891634
	H48	H	0.413809	0.110674	0.579443
	H49	H	0.587087	0.885346	0.586067
	H50	H	0.583914	0.112530	0.406786
	H51	H	0.410344	0.884705	0.404776
	H52	H	0.592525	0.402934	0.112719
	H53	H	0.593455	0.589783	0.880760
	H54	H	0.409731	0.581388	0.107667
	H55	H	0.404309	0.409436	0.882042
	H56	H	0.114815	0.594044	0.404141
	H57	H	0.887374	0.590776	0.579780
	H58	H	0.109003	0.411535	0.575863
	H59	H	0.883315	0.404377	0.403648
	H60	H	0.113072	0.420906	0.595863
	H61	H	0.886083	0.583395	0.589408
	H62	H	0.109762	0.589801	0.414745
	H63	H	0.887504	0.411537	0.411209
	H64	H	0.416585	0.592075	0.108337
	H65	H	0.587445	0.585341	0.884746
	H66	H	0.596980	0.414931	0.110006
	H67	H	0.409065	0.411825	0.884321
	H68	H	0.589019	0.111644	0.411118
	H69	H	0.589703	0.884547	0.584206
	H70	H	0.405278	0.115110	0.585709
	H71	H	0.407142	0.885420	0.407612
	H72	H	0.909039	0.614581	0.085382
	H73	H	0.086041	0.386186	0.085119
	H74	H	0.087809	0.614152	0.907441
	H75	H	0.910574	0.388855	0.913994
	H76	H	0.087075	0.914843	0.608116
	H77	H	0.089383	0.095650	0.381225
	H78	H	0.907429	0.092577	0.611338
	H79	H	0.906331	0.904694	0.380609
	H80	H	0.614937	0.089278	0.903565
	H81	H	0.385686	0.086453	0.087281
	H82	H	0.615447	0.903924	0.090883
	H83	H	0.388004	0.915681	0.906009
	H84	H	0.610368	0.910354	0.081691
	H85	H	0.383953	0.091637	0.089464
	H86	H	0.613619	0.090009	0.908982
	H87	H	0.383992	0.908224	0.901870
	H88	H	0.906350	0.089115	0.611057
	H89	H	0.092898	0.085971	0.382990
	H90	H	0.088201	0.907235	0.610872
	H91	H	0.904119	0.914902	0.383515
	H92	H	0.086614	0.613107	0.908500
	H93	H	0.090573	0.385789	0.084376
	H94	H	0.910343	0.615584	0.086674
	H95	H	0.899973	0.382237	0.902882
	H96	H	0.415466	0.113614	0.590036
	H97	H	0.589699	0.883081	0.587771
	H98	H	0.590144	0.115032	0.405498
	H99	H	0.406333	0.883714	0.404048
	H100	H	0.584743	0.411413	0.107220
	H101	H	0.586319	0.593740	0.882466
	H102	H	0.404102	0.592308	0.112284
	H103	H	0.409722	0.406006	0.882224
	H104	H	0.110738	0.581756	0.404958
	H105	H	0.882188	0.594943	0.590128
	H106	H	0.117830	0.399358	0.592372
	H107	H	0.885784	0.414662	0.400762
	H108	H	0.911082	0.615184	0.085584
	H109	H	0.089186	0.384737	0.087939
	H110	H	0.088409	0.614117	0.909297
	H111	H	0.915868	0.386048	0.898783
	H112	H	0.094224	0.912617	0.610456
	H113	H	0.083507	0.088701	0.385556
	H114	H	0.909614	0.089981	0.610851
	H115	H	0.913435	0.911200	0.385026
	H116	H	0.611763	0.085086	0.906471
	H117	H	0.385443	0.091173	0.083582
	H118	H	0.612276	0.915782	0.092841
	H119	H	0.386939	0.907541	0.910721
	C120	C	0.379121	0.007203	0.616503
	C121	C	0.620859	0.990254	0.618075
	C122	C	0.618937	0.007096	0.376153
	C123	C	0.376338	0.990738	0.373872
	C124	C	0.621571	0.378313	0.004370
	C125	C	0.620912	0.621016	0.988155
	C126	C	0.377841	0.620496	0.004327
	C127	C	0.377488	0.377673	0.988665
	C128	C	0.006880	0.620992	0.375187
	C129	C	0.990381	0.622237	0.618591
	C130	C	0.007084	0.379345	0.618311
	C131	C	0.990814	0.378575	0.374806
	C132	C	0.878607	0.508963	0.117058
	C133	C	0.120981	0.491211	0.118282
	C134	C	0.119715	0.508297	0.875745
	C135	C	0.876899	0.491907	0.873922
	C136	C	0.120526	0.879121	0.504666
	C137	C	0.120802	0.121748	0.488559
	C138	C	0.876796	0.121354	0.505178
	C139	C	0.877037	0.878394	0.488326
	C140	C	0.507953	0.120620	0.874695
	C141	C	0.490976	0.120580	0.118673
	C142	C	0.507077	0.877523	0.118458
	C143	C	0.491813	0.878243	0.875007
	C144	C	0.376697	0.886525	0.675599
	C145	C	0.622584	0.111256	0.677241
	C146	C	0.619616	0.885888	0.317698
	C147	C	0.375972	0.111774	0.315612
	C148	C	0.679102	0.377432	0.884016
	C149	C	0.681054	0.622882	0.108138
	C150	C	0.317178	0.622902	0.884711
	C151	C	0.319545	0.376734	0.108967
	C152	C	0.886666	0.680275	0.373722
	C153	C	0.111066	0.680857	0.619654
	C154	C	0.886545	0.321007	0.617838
	C155	C	0.111620	0.320314	0.376067
	C156	C	0.886450	0.378882	0.675536
	C157	C	0.110244	0.624783	0.678976
	C158	C	0.887401	0.623806	0.314174
	C159	C	0.111373	0.376959	0.316833
	C160	C	0.376697	0.679348	0.884090
	C161	C	0.622454	0.679932	0.108900
	C162	C	0.621511	0.319134	0.884184
	C163	C	0.378869	0.319850	0.109188
	C164	C	0.677864	0.886000	0.374576
	C165	C	0.679196	0.111513	0.618796
	C166	C	0.319481	0.886776	0.617392
	C167	C	0.319406	0.112461	0.373961
	C168	C	0.876755	0.388218	0.175907
	C169	C	0.122761	0.611971	0.177772
	C170	C	0.120599	0.387764	0.816344
	C171	C	0.874872	0.612385	0.814932
	C172	C	0.178674	0.876820	0.384610
	C173	C	0.181705	0.124539	0.607737
	C174	C	0.818330	0.121517	0.384562
	C175	C	0.818160	0.876201	0.608047
	C176	C	0.387404	0.179208	0.874298
	C177	C	0.611986	0.178297	0.119499
	C178	C	0.386761	0.818285	0.117521
	C179	C	0.612122	0.819333	0.875084
	C180	C	0.386684	0.875011	0.176470
	C181	C	0.610958	0.121495	0.178570
	C182	C	0.388104	0.122602	0.815043
	C183	C	0.611361	0.875815	0.816176
	C184	C	0.876646	0.179128	0.384540
	C185	C	0.121648	0.180320	0.609093
	C186	C	0.120910	0.818783	0.384962
	C187	C	0.876415	0.819333	0.608166
	C188	C	0.178338	0.387336	0.874063
	C189	C	0.180301	0.612197	0.119972
	C190	C	0.820247	0.387756	0.117424
	C191	C	0.817899	0.612353	0.872678
	C192	C	0.404296	0.091181	0.592186
	C193	C	0.596046	0.906363	0.593337
	C194	C	0.594691	0.091147	0.400726
	C195	C	0.400727	0.906447	0.398332
	C196	C	0.598171	0.402789	0.088248
	C197	C	0.596141	0.596558	0.904556
	C198	C	0.402987	0.595700	0.087645
	C199	C	0.400937	0.402101	0.904728
	C200	C	0.090123	0.595725	0.400452
	C201	C	0.906869	0.597048	0.593719
	C202	C	0.091428	0.403660	0.594913
	C203	C	0.907354	0.403112	0.398301
	C204	C	0.903233	0.593224	0.092877
	C205	C	0.095954	0.407438	0.093191
	C206	C	0.094786	0.592145	0.901007
	C207	C	0.901726	0.407643	0.898144
	C208	C	0.096756	0.904370	0.588185
	C209	C	0.095787	0.097130	0.405026
	C210	C	0.900645	0.097457	0.589174
	C211	C	0.901058	0.903113	0.404759
	C212	C	0.591757	0.095461	0.899522
	C213	C	0.406856	0.096724	0.094023
	C214	C	0.590657	0.902664	0.095110
	C215	C	0.407964	0.903219	0.899436
	Zn216	Zn	0.499382	-0.001354	0.745828
	Zn217	Zn	0.498172	-0.001529	0.247198
	Zn218	Zn	0.750400	0.500297	-0.004241
	Zn219	Zn	0.248550	0.499523	-0.003102
	Zn220	Zn	-0.001010	0.750126	0.496916
	Zn221	Zn	-0.001034	0.249992	0.497179
	Zn222	Zn	-0.001465	0.500729	0.746681
	Zn223	Zn	-0.000688	0.499783	0.245858
	Zn224	Zn	0.499850	0.749616	-0.003756
	Zn225	Zn	0.500124	0.248829	-0.003403
	Zn226	Zn	0.748207	-0.001019	0.496351
	Zn227	Zn	0.249867	0.000473	0.496066
	N228	N	0.413225	0.962458	0.675130
	N229	N	0.586893	0.034959	0.676855
	N230	N	0.583654	0.961893	0.318644
	N231	N	0.410470	0.034819	0.315239
	N232	N	0.679247	0.413587	0.959768
	N233	N	0.680175	0.587002	0.032301
	N234	N	0.317413	0.587391	0.960570
	N235	N	0.318494	0.411841	0.032938
	N236	N	0.961949	0.678679	0.410976
	N237	N	0.035499	0.679482	0.583113
	N238	N	0.962544	0.321414	0.582817
	N239	N	0.035746	0.321013	0.411272
	N240	N	0.962748	0.414066	0.676103
	N241	N	0.034163	0.589186	0.678624
	N242	N	0.963203	0.587845	0.314941
	N243	N	0.035194	0.412216	0.315584
	N244	N	0.413631	0.678078	0.959563
	N245	N	0.585967	0.678995	0.033310
	N246	N	0.586240	0.319693	0.959961
	N247	N	0.414008	0.320141	0.033249
	N248	N	0.677713	0.962503	0.410116
	N249	N	0.678384	0.035239	0.582892
	N250	N	0.321103	0.962741	0.581330
	N251	N	0.319486	0.036210	0.409252
	N252	N	0.912329	0.464549	0.175694
	N253	N	0.086704	0.535844	0.176759
	N254	N	0.084920	0.464073	0.817162
	N255	N	0.910933	0.536408	0.815611
	N256	N	0.178580	0.913536	0.459896
	N257	N	0.181454	0.088974	0.531780
	N258	N	0.817906	0.086662	0.460685
	N259	N	0.818455	0.912346	0.532419
	N260	N	0.463115	0.177913	0.910737
	N261	N	0.536208	0.178097	0.083117
	N262	N	0.462423	0.819824	0.082172
	N263	N	0.536576	0.820919	0.911215
	N264	N	0.462381	0.911336	0.177023
	N265	N	0.534808	0.086248	0.177998
	N266	N	0.464202	0.087208	0.814952
	N267	N	0.535415	0.911630	0.816078
	N268	N	0.911856	0.179440	0.460708
	N269	N	0.084313	0.178509	0.534027
	N270	N	0.085289	0.820132	0.460717
	N271	N	0.912360	0.820467	0.532777
	N272	N	0.177705	0.463355	0.910471
	N273	N	0.179310	0.536129	0.083696
	N274	N	0.821123	0.463999	0.081712
	N275	N	0.819173	0.536284	0.908616
	O276	O	0.423358	0.473845	0.569556
	H277	H	0.425749	0.487493	0.572934
	H278	H	0.416164	0.471861	0.573345
	O279	O	0.454945	0.464591	0.612260
	H280	H	0.453498	0.475443	0.613521
	H281	H	0.456215	0.458541	0.594015
	O282	O	0.642569	0.403898	0.350671
	H283	H	0.670344	0.388066	0.343296
	H284	H	0.649848	0.421676	0.367494
	O285	O	1.069407	0.134020	0.011182
	H286	H	1.064097	0.117758	-0.009938
	H287	H	1.058909	0.139540	0.010563
	O288	O	0.117351	0.024800	0.895628
	H289	H	0.132658	0.018118	0.877536
	H290	H	0.102443	0.036485	0.897081
	O291	O	0.607764	0.631291	0.447865
	H292	H	0.602521	0.619360	0.424215
	H293	H	0.584364	0.630952	0.455907
	O294	O	0.583141	0.314152	0.484976
	H295	H	0.600462	0.310673	0.472448
	H296	H	0.589180	0.317052	0.480590
	O297	O	0.892521	0.997368	0.799824
	H298	H	0.907650	0.995715	0.792335
	H299	H	0.881014	0.996339	0.809408
	O300	O	-0.008113	-0.094984	0.198123
	H301	H	0.013018	-0.086677	0.204884
	H302	H	0.006906	-0.113495	0.184674
	O303	O	0.517895	0.478438	0.424830
	H304	H	0.520180	0.480508	0.426727
	H305	H	0.520203	0.489209	0.425209
	O306	O	0.843123	-0.076483	0.099299
	H307	H	0.846963	-0.069586	0.099232
	H308	H	0.832534	-0.064230	0.109421
	O309	O	0.467092	0.486634	0.505675
	H310	H	0.460849	0.487328	0.499297
	H311	H	0.466841	0.486020	0.526291
	O312	O	0.977706	0.801373	0.063936
	H313	H	0.980969	0.809829	0.056179
	H314	H	0.966589	0.783238	0.081805
	O315	O	0.491818	0.417916	0.607149
	H316	H	0.504748	0.430959	0.604019
	H317	H	0.485666	0.425705	0.592720
	O318	O	0.397764	0.545998	0.451877
	H319	H	0.394533	0.555413	0.444538
	H320	H	0.398183	0.572595	0.452466
	O321	O	0.901506	0.203179	0.980149
	H322	H	0.895035	0.185896	1.004385
	H323	H	0.898340	0.219404	0.980608
	O324	O	-0.008365	0.065116	1.106772
	H325	H	-0.001128	0.067202	1.100720
	H326	H	-0.002034	0.055101	1.095994
	O327	O	0.468468	0.443680	0.642212
	H328	H	0.455651	0.429122	0.642959
	H329	H	0.473997	0.450366	0.639533
	O330	O	0.618223	0.568345	0.648734
	H331	H	0.617508	0.571775	0.652622
	H332	H	0.614306	0.548945	0.654957
	O333	O	0.980308	0.960411	1.129890
	H334	H	0.986103	0.968466	1.135864
	H335	H	0.996820	0.967157	1.137557
	O336	O	0.598416	0.476654	0.589587
	H337	H	0.605297	0.474225	0.582673
	H338	H	0.604183	0.478392	0.569423
	O339	O	0.912636	0.196671	0.798825
	H340	H	0.903029	0.206369	0.797936
	H341	H	0.912809	0.211272	0.812034
	O342	O	0.170350	0.910456	0.809956
	H343	H	0.164429	0.926624	0.799797
	H344	H	0.153461	0.910458	0.808223
	O345	O	0.168830	0.801129	0.959120
	H346	H	0.179500	0.808214	0.952474
	H347	H	0.162831	0.799794	0.953205
	O348	O	0.655811	0.657621	0.572387
	H349	H	0.667050	0.667719	0.574958
	H350	H	0.652829	0.657741	0.554180
	O351	O	-0.056344	0.122896	0.183103
	H352	H	-0.047789	0.116509	0.172687
	H353	H	-0.023370	0.139958	0.194270
	O354	O	0.976574	0.935773	0.002201
	H355	H	0.990372	0.940306	-0.021252
	H356	H	0.958083	0.912967	0.015308
	O357	O	0.106014	1.203713	0.187105
	H358	H	0.108360	1.221466	0.182359
	H359	H	0.141238	1.202870	0.188837
	O360	O	0.510523	0.291460	0.489558
	H361	H	0.484607	0.290224	0.505733
	H362	H	0.517898	0.268913	0.470487
	O363	O	0.380552	0.659294	0.378252
	H364	H	0.380981	0.650575	0.378105
	H365	H	0.388300	0.655871	0.379151
	O366	O	0.369431	0.529424	0.500575
	H367	H	0.367889	0.532609	0.505882
	H368	H	0.363891	0.536090	0.503485
	O369	O	0.642350	0.505662	0.314603
	H370	H	0.635044	0.476168	0.311062
	H371	H	0.656441	0.492647	0.305346
	O372	O	0.353955	0.582264	0.382945
	H373	H	0.353461	0.568594	0.380072
	H374	H	0.343714	0.584081	0.380562
	O375	O	0.492060	0.318319	0.463768
	H376	H	0.495973	0.321682	0.489473
	H377	H	0.488608	0.304254	0.476544
	O378	O	0.485546	0.564333	0.387380
	H379	H	0.470632	0.572651	0.375542
	H380	H	0.489302	0.558668	0.391113
	O381	O	0.406993	0.518468	0.616897
	H382	H	0.403161	0.536182	0.623156
	H383	H	0.426253	0.521957	0.622129
	O384	O	-0.051851	0.912504	0.861390
	H385	H	-0.051401	0.900974	0.853545
	H386	H	-0.074464	0.913650	0.859495
	O387	O	1.138220	0.908243	0.151416
	H388	H	1.168108	0.926379	0.157919
	H389	H	1.138598	0.897611	0.122550
	O390	O	0.443787	0.586843	0.407760
	H391	H	0.460956	0.597611	0.396978
	H392	H	0.432264	0.605073	0.419200
	O393	O	0.801776	0.047977	1.033839
	H394	H	0.811422	0.036963	1.033247
	H395	H	0.792775	0.031117	1.029170
	O396	O	0.084298	0.799405	0.834353
	H397	H	0.073833	0.790028	0.852362
	H398	H	0.097382	0.785760	0.828526
	O399	O	0.326597	0.542388	0.465112
	H400	H	0.336096	0.545187	0.462307
	H401	H	0.328073	0.553071	0.460474
	O402	O	0.788186	-0.118858	0.927184
	H403	H	0.783082	-0.100229	0.952025
	H404	H	0.768938	-0.132052	0.928363
	O405	O	0.009877	0.076630	-0.124564
	H406	H	0.005694	0.077191	-0.131211
	H407	H	-0.002400	0.071370	-0.102459
	O408	O	0.810268	0.860250	1.078655
	H409	H	0.839766	0.854967	1.079411
	H410	H	0.805045	0.885535	1.083009
	O411	O	1.077437	0.934916	0.022455
	H412	H	1.079546	0.939562	0.026185
	H413	H	1.075441	0.931826	0.018787
	O414	O	0.076258	0.155337	1.080781
	H415	H	0.074228	0.134949	1.090282
	H416	H	0.080169	0.152805	1.071936
	O417	O	0.563326	0.333994	0.337125
	H418	H	0.562860	0.330172	0.341277
	H419	H	0.571840	0.344657	0.320428
	O420	O	0.128066	1.009824	-0.035922
	H421	H	0.128051	1.009190	-0.044793
	H422	H	0.143012	1.013911	-0.029824
	O423	O	1.115022	0.140266	0.053303
	H424	H	1.104610	0.134068	0.036779
	H425	H	1.130988	0.156124	0.061816
	O426	O	-0.005068	0.106398	0.838399
	H427	H	-0.019440	0.105959	0.825065
	H428	H	-0.005865	0.111774	0.833811
	O429	O	0.566990	0.630969	0.691776
	H430	H	0.587456	0.616317	0.683212
	H431	H	0.581650	0.637825	0.695104
