data_Molecule from HDF5

_cell_length_a		16.289818
_cell_length_b		16.362578
_cell_length_c		16.449757
_cell_angle_alpha	89.873529
_cell_angle_beta	89.848768
_cell_angle_gamma	89.941153
_symmetry_space_group_name_H-M	'P 1'
_symmetry_Int_Tables_number		1

loop_
	_symmetry_equiv_pos_as_xyz
	x,y,z

loop_
	_atom_site_label
	_atom_site_type_symbol
	_atom_site_fract_x
	_atom_site_fract_y
	_atom_site_fract_z
	H0	H	0.388370	0.837817	0.722428
	H1	H	0.602497	0.155839	0.719976
	H2	H	0.600136	0.836128	0.279476
	H3	H	0.391914	0.156345	0.277190
	H4	H	0.719085	0.392854	0.842320
	H5	H	0.715066	0.598642	0.161697
	H6	H	0.274019	0.604628	0.842289
	H7	H	0.277237	0.391523	0.160245
	H8	H	0.835068	0.713192	0.399367
	H9	H	0.157066	0.716649	0.603892
	H10	H	0.833966	0.280140	0.602815
	H11	H	0.156776	0.276715	0.396031
	H12	H	0.836291	0.392559	0.721131
	H13	H	0.157461	0.601204	0.719188
	H14	H	0.837429	0.602063	0.280905
	H15	H	0.157242	0.391935	0.280398
	H16	H	0.391742	0.718933	0.842310
	H17	H	0.603143	0.718096	0.159509
	H18	H	0.603298	0.276935	0.841617
	H19	H	0.393411	0.274721	0.159377
	H20	H	0.717066	0.837110	0.393511
	H21	H	0.713064	0.158399	0.598493
	H22	H	0.277010	0.835426	0.601242
	H23	H	0.275838	0.157258	0.393549
	H24	H	0.892622	0.336886	0.223906
	H25	H	0.104248	0.655578	0.222368
	H26	H	0.104976	0.338695	0.777909
	H27	H	0.891758	0.655916	0.780093
	H28	H	0.213435	0.894834	0.338824
	H29	H	0.217563	0.102529	0.657979
	H30	H	0.779673	0.099014	0.337920
	H31	H	0.774539	0.895435	0.657620
	H32	H	0.337912	0.218588	0.894814
	H33	H	0.659322	0.212171	0.101218
	H34	H	0.336924	0.773847	0.105411
	H35	H	0.658662	0.779307	0.897628
	H36	H	0.336119	0.890827	0.219374
	H37	H	0.657743	0.098174	0.217216
	H38	H	0.337444	0.104228	0.778031
	H39	H	0.656756	0.892116	0.777747
	H40	H	0.891091	0.219386	0.340916
	H41	H	0.097883	0.215523	0.659365
	H42	H	0.100074	0.777603	0.340542
	H43	H	0.890417	0.777061	0.658867
	H44	H	0.216734	0.336930	0.897734
	H45	H	0.219930	0.654770	0.106480
	H46	H	0.778717	0.335316	0.105142
	H47	H	0.781699	0.658277	0.902395
	H48	H	0.404627	0.112084	0.594285
	H49	H	0.581986	0.881361	0.593043
	H50	H	0.594079	0.113305	0.409226
	H51	H	0.406314	0.882180	0.407029
	H52	H	0.592299	0.406661	0.116766
	H53	H	0.594066	0.582442	0.887033
	H54	H	0.405071	0.585871	0.114984
	H55	H	0.408367	0.409267	0.887846
	H56	H	0.108801	0.583256	0.414795
	H57	H	0.878007	0.593040	0.594737
	H58	H	0.111812	0.407939	0.593212
	H59	H	0.881272	0.409567	0.407557
	H60	H	0.112195	0.403147	0.590435
	H61	H	0.884117	0.586254	0.585129
	H62	H	0.113570	0.585295	0.404749
	H63	H	0.881746	0.405617	0.414430
	H64	H	0.410194	0.578661	0.111021
	H65	H	0.582408	0.586581	0.889337
	H66	H	0.583251	0.405973	0.113257
	H67	H	0.410088	0.408322	0.888205
	H68	H	0.583406	0.113290	0.398031
	H69	H	0.579331	0.886538	0.583982
	H70	H	0.412273	0.108014	0.587512
	H71	H	0.406521	0.883066	0.409663
	H72	H	0.907226	0.611164	0.095749
	H73	H	0.085594	0.383622	0.089952
	H74	H	0.085223	0.610109	0.912558
	H75	H	0.906751	0.379607	0.905520
	H76	H	0.082535	0.910956	0.610939
	H77	H	0.084219	0.089344	0.386858
	H78	H	0.907239	0.089871	0.612172
	H79	H	0.910654	0.906561	0.387761
	H80	H	0.612195	0.088314	0.909814
	H81	H	0.381786	0.085344	0.088962
	H82	H	0.611192	0.908196	0.089987
	H83	H	0.384963	0.915172	0.911303
	H84	H	0.611090	0.905845	0.089245
	H85	H	0.382398	0.087143	0.088679
	H86	H	0.610805	0.083413	0.910012
	H87	H	0.380173	0.905258	0.905482
	H88	H	0.900655	0.087585	0.614597
	H89	H	0.087094	0.087951	0.384732
	H90	H	0.083114	0.902653	0.613431
	H91	H	0.906444	0.900436	0.383733
	H92	H	0.086723	0.611155	0.909716
	H93	H	0.086141	0.382485	0.090572
	H94	H	0.909534	0.609650	0.091102
	H95	H	0.913516	0.384668	0.911006
	H96	H	0.402652	0.110347	0.583699
	H97	H	0.589333	0.882455	0.585585
	H98	H	0.579921	0.107036	0.411932
	H99	H	0.404235	0.882335	0.408662
	H100	H	0.587889	0.398495	0.117064
	H101	H	0.591628	0.594064	0.884501
	H102	H	0.414309	0.587705	0.111994
	H103	H	0.408385	0.407265	0.887952
	H104	H	0.113527	0.593429	0.413076
	H105	H	0.882415	0.580617	0.596506
	H106	H	0.109623	0.408171	0.588095
	H107	H	0.884385	0.412612	0.414303
	H108	H	0.903612	0.611312	0.091128
	H109	H	0.085417	0.383760	0.091526
	H110	H	0.083390	0.609980	0.909400
	H111	H	0.904810	0.382626	0.915475
	H112	H	0.089973	0.907611	0.614514
	H113	H	0.084889	0.085919	0.386285
	H114	H	0.905385	0.082740	0.611551
	H115	H	0.902639	0.908165	0.384728
	H116	H	0.612346	0.085348	0.905886
	H117	H	0.382601	0.085407	0.087646
	H118	H	0.610635	0.907812	0.087480
	H119	H	0.383675	0.904686	0.917092
	C120	C	0.373852	0.004634	0.620558
	C121	C	0.616075	0.989119	0.618526
	C122	C	0.617867	0.005513	0.375623
	C123	C	0.374359	0.988334	0.376584
	C124	C	0.619430	0.374151	0.009608
	C125	C	0.619888	0.618731	0.992641
	C126	C	0.376300	0.617440	0.008432
	C127	C	0.376393	0.374900	0.992641
	C128	C	0.005875	0.618426	0.379309
	C129	C	0.988033	0.618378	0.622461
	C130	C	0.004961	0.375075	0.622052
	C131	C	0.988336	0.376481	0.379898
	C132	C	0.875532	0.504839	0.123791
	C133	C	0.118682	0.487899	0.122679
	C134	C	0.118012	0.505225	0.879043
	C135	C	0.876546	0.487839	0.879856
	C136	C	0.116596	0.875864	0.507624
	C137	C	0.116999	0.119168	0.491003
	C138	C	0.873950	0.118581	0.507420
	C139	C	0.873874	0.874299	0.490567
	C140	C	0.506128	0.118659	0.877063
	C141	C	0.488619	0.116823	0.119698
	C142	C	0.505090	0.874556	0.120828
	C143	C	0.488588	0.876450	0.879283
	C144	C	0.370993	0.885206	0.681401
	C145	C	0.619029	0.108743	0.678394
	C146	C	0.619002	0.884363	0.318083
	C147	C	0.372928	0.108598	0.316951
	C148	C	0.679219	0.373802	0.889877
	C149	C	0.676803	0.618273	0.113357
	C150	C	0.314585	0.621860	0.890021
	C151	C	0.316562	0.372620	0.112160
	C152	C	0.884091	0.675590	0.379487
	C153	C	0.108827	0.677289	0.622860
	C154	C	0.883193	0.318021	0.622547
	C155	C	0.108736	0.316299	0.377549
	C156	C	0.884215	0.374073	0.681403
	C157	C	0.109215	0.619577	0.680092
	C158	C	0.885158	0.620099	0.320485
	C159	C	0.109035	0.373798	0.320039
	C160	C	0.373208	0.678847	0.889731
	C161	C	0.621101	0.677922	0.112116
	C162	C	0.621566	0.315977	0.889517
	C163	C	0.374362	0.314422	0.111751
	C164	C	0.677084	0.884940	0.375007
	C165	C	0.674094	0.109982	0.617915
	C166	C	0.315389	0.884108	0.621095
	C167	C	0.315378	0.109081	0.375219
	C168	C	0.874369	0.384431	0.183361
	C169	C	0.121899	0.607845	0.182464
	C170	C	0.121694	0.385716	0.818868
	C171	C	0.874251	0.608201	0.820703
	C172	C	0.174779	0.875750	0.387125
	C173	C	0.177046	0.120678	0.610498
	C174	C	0.817210	0.119399	0.386613
	C175	C	0.813995	0.875047	0.610120
	C176	C	0.385726	0.179021	0.875867
	C177	C	0.610655	0.173929	0.120217
	C178	C	0.384897	0.814153	0.123184
	C179	C	0.610124	0.817950	0.878070
	C180	C	0.384283	0.872331	0.180119
	C181	C	0.609868	0.117052	0.177877
	C182	C	0.385486	0.121767	0.817863
	C183	C	0.609167	0.874079	0.818667
	C184	C	0.873044	0.178714	0.388035
	C185	C	0.117609	0.177048	0.611467
	C186	C	0.118223	0.817358	0.388049
	C187	C	0.871703	0.816416	0.610692
	C188	C	0.177348	0.384924	0.878442
	C189	C	0.179415	0.607453	0.124672
	C190	C	0.817380	0.383776	0.124503
	C191	C	0.819218	0.609420	0.881387
	C192	C	0.399195	0.088466	0.595725
	C193	C	0.590961	0.905234	0.594341
	C194	C	0.592930	0.089208	0.399238
	C195	C	0.398656	0.904408	0.401126
	C196	C	0.594875	0.396964	0.093556
	C197	C	0.596255	0.594773	0.908856
	C198	C	0.402344	0.591423	0.091141
	C199	C	0.401692	0.400748	0.909571
	C200	C	0.090197	0.594273	0.403600
	C201	C	0.903392	0.593883	0.598918
	C202	C	0.089387	0.399223	0.597562
	C203	C	0.904486	0.401926	0.404968
	C204	C	0.899697	0.588854	0.099723
	C205	C	0.093159	0.404881	0.097749
	C206	C	0.092312	0.588538	0.903580
	C207	C	0.901138	0.404048	0.903712
	C208	C	0.092269	0.900107	0.591065
	C209	C	0.092414	0.094757	0.407715
	C210	C	0.897512	0.093951	0.590948
	C211	C	0.899196	0.897934	0.406977
	C212	C	0.589812	0.093046	0.901472
	C213	C	0.404180	0.092916	0.095569
	C214	C	0.589079	0.899885	0.096034
	C215	C	0.404913	0.901270	0.904100
	Zn216	Zn	0.496428	-0.003548	0.749179
	Zn217	Zn	0.496441	-0.003587	0.247908
	Zn218	Zn	0.747456	0.496334	0.001964
	Zn219	Zn	0.246655	0.496256	0.000544
	Zn220	Zn	-0.003330	0.745408	0.500591
	Zn221	Zn	-0.004716	0.247759	0.499867
	Zn222	Zn	-0.002633	0.496533	0.749995
	Zn223	Zn	-0.002293	0.497229	0.251798
	Zn224	Zn	0.497639	0.746697	-0.000097
	Zn225	Zn	0.497858	0.245378	0.000046
	Zn226	Zn	0.745253	-0.002668	0.497297
	Zn227	Zn	0.245484	-0.002939	0.498377
	N228	N	0.406476	0.961595	0.681383
	N229	N	0.583265	0.032734	0.678546
	N230	N	0.582635	0.960214	0.318403
	N231	N	0.408912	0.032549	0.317572
	N232	N	0.678192	0.409271	0.965576
	N233	N	0.676208	0.582010	0.038114
	N234	N	0.316438	0.584290	0.964918
	N235	N	0.317354	0.409300	0.036892
	N236	N	0.960219	0.674815	0.415340
	N237	N	0.032208	0.676778	0.587998
	N238	N	0.959419	0.318525	0.586497
	N239	N	0.032723	0.317806	0.413925
	N240	N	0.961089	0.408923	0.681288
	N241	N	0.032986	0.583710	0.680148
	N242	N	0.961871	0.585363	0.320226
	N243	N	0.033235	0.410720	0.321577
	N244	N	0.410610	0.676369	0.964482
	N245	N	0.586353	0.678191	0.035983
	N246	N	0.585039	0.316324	0.964915
	N247	N	0.410677	0.315648	0.036270
	N248	N	0.676251	0.960924	0.410272
	N249	N	0.672484	0.034361	0.581460
	N250	N	0.316794	0.959586	0.584289
	N251	N	0.316184	0.033378	0.411585
	N252	N	0.909810	0.460614	0.182990
	N253	N	0.084816	0.532490	0.181434
	N254	N	0.085700	0.461636	0.818925
	N255	N	0.909067	0.531836	0.819570
	N256	N	0.173909	0.911619	0.462570
	N257	N	0.177001	0.085517	0.534668
	N258	N	0.817744	0.082425	0.461659
	N259	N	0.814973	0.909990	0.534202
	N260	N	0.461672	0.177283	0.911814
	N261	N	0.534330	0.173851	0.084763
	N262	N	0.461154	0.815525	0.087149
	N263	N	0.534280	0.819007	0.914842
	N264	N	0.459885	0.909309	0.178608
	N265	N	0.532851	0.082467	0.177998
	N266	N	0.461389	0.085132	0.818303
	N267	N	0.532746	0.909795	0.819381
	N268	N	0.907593	0.178327	0.464122
	N269	N	0.081041	0.176142	0.536329
	N270	N	0.082581	0.817240	0.463920
	N271	N	0.907980	0.815585	0.535233
	N272	N	0.175340	0.460244	0.915056
	N273	N	0.177697	0.532058	0.088188
	N274	N	0.818054	0.459531	0.088155
	N275	N	0.820496	0.533453	0.917698
	O276	O	1.172109	0.856666	-0.147990
	H277	H	1.176617	0.844679	-0.104354
	H278	H	1.129385	0.840077	-0.157185
	O279	O	0.424782	0.671252	0.492529
	H280	H	0.438002	0.684476	0.492468
	H281	H	0.428620	0.672631	0.509670
	O282	O	0.611746	0.585418	0.660433
	H283	H	0.640793	0.596378	0.657448
	H284	H	0.597660	0.581133	0.660474
	O285	O	0.966499	-0.084600	-0.098033
	H286	H	0.957000	-0.084380	-0.082930
	H287	H	0.971597	-0.087789	-0.101569
	O288	O	-0.123669	-0.090600	1.008975
	H289	H	-0.125229	-0.098248	1.019202
	H290	H	-0.121475	-0.084951	1.014389
	O291	O	0.616638	0.484375	0.462886
	H292	H	0.617742	0.490781	0.468829
	H293	H	0.620498	0.474665	0.473444
	O294	O	0.696143	0.695581	0.597524
	H295	H	0.686874	0.696544	0.587371
	H296	H	0.714469	0.718651	0.596793
	O297	O	0.930481	0.908295	1.186313
	H298	H	0.940565	0.923984	1.192769
	H299	H	0.936925	0.903959	1.195607
	O300	O	0.118627	-0.022168	0.125348
	H301	H	0.136555	-0.032516	0.118485
	H302	H	0.110904	-0.004977	0.123911
	O303	O	0.333486	0.382381	0.700281
	H304	H	0.328695	0.365503	0.699953
	H305	H	0.314207	0.385729	0.706710
	O306	O	1.052784	-0.011228	0.167360
	H307	H	1.051791	-0.011583	0.170892
	H308	H	1.049782	-0.018791	0.164568
	O309	O	0.446752	0.586474	0.528287
	H310	H	0.454983	0.572419	0.530700
	H311	H	0.436249	0.602714	0.538642
	O312	O	0.953945	0.983554	0.039351
	H313	H	0.962525	0.988568	0.028708
	H314	H	0.956132	0.995780	0.043263
	O315	O	0.496418	0.458407	0.432838
	H316	H	0.487649	0.479710	0.423127
	H317	H	0.495063	0.448641	0.438179
	O318	O	0.451634	0.313735	0.450221
	H319	H	0.472075	0.326507	0.458665
	H320	H	0.466002	0.305409	0.452405
	O321	O	0.987741	0.195437	0.993114
	H322	H	0.988443	0.218293	0.987083
	H323	H	0.994539	0.196284	0.987746
	O324	O	0.322164	0.500163	0.590660
	H325	H	0.343474	0.499956	0.600201
	H326	H	0.321161	0.507091	0.570289
	O327	O	0.418874	0.681934	0.318644
	H328	H	0.419155	0.675375	0.320343
	H329	H	0.419497	0.677179	0.315501
	O330	O	0.372886	0.403699	0.416995
	H331	H	0.383225	0.414449	0.438182
	H332	H	0.367448	0.408993	0.425223
	O333	O	0.926429	1.086209	0.866000
	H334	H	0.945867	1.084645	0.876291
	H335	H	0.923737	1.095490	0.857055
	O336	O	0.677485	0.508892	0.705595
	H337	H	0.656587	0.493286	0.702021
	H338	H	0.698689	0.510376	0.715083
	O339	O	0.880968	-0.102054	1.068287
	H340	H	0.885028	-0.116127	1.081773
	H341	H	0.864192	-0.087804	1.069838
	O342	O	-0.119466	0.882823	0.883390
	H343	H	-0.117367	0.904272	0.890409
	H344	H	-0.128255	0.892293	0.893638
	O345	O	-0.066144	1.161708	0.821291
	H346	H	-0.072482	1.152661	0.841346
	H347	H	-0.040720	1.158283	0.812623
	O348	O	0.325844	0.509823	0.312294
	H349	H	0.320856	0.494677	0.315370
	H350	H	0.314819	0.500393	0.307952
	O351	O	0.574247	-0.434581	-0.622720
	H352	H	0.574169	-0.427902	-0.627008
	H353	H	0.577291	-0.429617	-0.622654
	O354	O	1.190169	1.085908	-0.040786
	H355	H	1.181092	1.094380	-0.052893
	H356	H	1.197999	1.073768	-0.060460
	O357	O	0.072479	1.164486	0.186219
	H358	H	0.091704	1.147500	0.189557
	H359	H	0.086051	1.169660	0.190127
	O360	O	0.129555	0.980238	1.057616
	H361	H	0.128046	0.975982	1.054972
	H362	H	0.140209	0.979090	1.049715
	O363	O	0.594761	0.415522	0.498821
	H364	H	0.589885	0.409926	0.497810
	H365	H	0.589364	0.420383	0.494481
	O366	O	0.462869	0.344921	0.578865
	H367	H	0.461691	0.340508	0.591973
	H368	H	0.454478	0.334313	0.595647
	O369	O	0.558732	0.429215	0.314610
	H370	H	0.562038	0.441574	0.316308
	H371	H	0.557180	0.434600	0.312855
	O372	O	0.506902	0.664397	0.703152
	H373	H	0.525403	0.659907	0.695375
	H374	H	0.514091	0.678628	0.721669
	O375	O	0.309988	0.576237	0.429723
	H376	H	0.314514	0.583576	0.437783
	H377	H	0.303217	0.558677	0.416650
	O378	O	0.490771	0.349634	0.623381
	H379	H	0.481156	0.345466	0.640450
	H380	H	0.483067	0.360454	0.624016
	O381	O	0.656324	0.471543	0.312528
	H382	H	0.672660	0.468953	0.312651
	H383	H	0.652245	0.452935	0.319732
	O384	O	0.165664	0.812694	0.989655
	H385	H	0.166477	0.799750	0.999071
	H386	H	0.162356	0.800312	1.005505
	O387	O	0.988094	0.787676	-0.016884
	H388	H	0.967201	0.784265	0.004992
	H389	H	0.978043	0.791878	-0.021531
	O390	O	0.659578	0.371128	0.331431
	H391	H	0.641013	0.375258	0.330365
	H392	H	0.671591	0.362349	0.343792
	O393	O	0.871726	-0.156492	1.118905
	H394	H	0.885232	-0.143344	1.123185
	H395	H	0.856705	-0.154046	1.114264
	O396	O	0.204386	0.954077	0.799812
	H397	H	0.228221	0.943169	0.780722
	H398	H	0.206027	0.926264	0.802643
	O399	O	0.619214	0.346503	0.547766
	H400	H	0.630581	0.345017	0.536394
	H401	H	0.606672	0.345259	0.531051
	O402	O	0.961887	-0.095180	0.830920
	H403	H	0.959182	-0.095414	0.825833
	H404	H	0.957858	-0.079237	0.835426
	O405	O	-0.092555	0.163711	0.034821
	H406	H	-0.088534	0.174207	0.033174
	H407	H	-0.082478	0.154208	0.054166
	O408	O	0.719969	1.198217	0.789729
	H409	H	0.719910	1.214885	0.789775
	H410	H	0.711182	1.201729	0.795723
	O411	O	1.125584	1.161318	0.080387
	H412	H	1.140484	1.170060	0.071282
	H413	H	1.128452	1.146482	0.069889
	O414	O	-0.705928	-0.651392	1.530686
	H415	H	-0.697686	-0.658849	1.522947
	H416	H	-0.707372	-0.668783	1.520219
	O417	O	0.469621	0.574489	0.685891
	H418	H	0.481261	0.585868	0.656565
	H419	H	0.463516	0.548255	0.701511
	O420	O	-0.109938	1.060887	0.157584
	H421	H	-0.094319	1.061336	0.154811
	H422	H	-0.114411	1.066863	0.152017
	O423	O	1.028077	0.203362	-0.131180
	H424	H	1.035312	0.206832	-0.127215
	H425	H	1.034955	0.201812	-0.144207
	O426	O	-0.008706	-0.042474	0.912115
	H427	H	-0.009272	-0.043802	0.910570
	H428	H	-0.017183	-0.034574	0.890903
	O429	O	0.535849	0.614445	0.477044
	H430	H	0.533758	0.619712	0.479063
	H431	H	0.528088	0.612863	0.478845
