data_Molecule from HDF5

_cell_length_a		16.364047
_cell_length_b		16.260669
_cell_length_c		16.222551
_cell_angle_alpha	89.865248
_cell_angle_beta	90.125546
_cell_angle_gamma	89.923102
_symmetry_space_group_name_H-M	'P 1'
_symmetry_Int_Tables_number		1

loop_
	_symmetry_equiv_pos_as_xyz
	x,y,z

loop_
	_atom_site_label
	_atom_site_type_symbol
	_atom_site_fract_x
	_atom_site_fract_y
	_atom_site_fract_z
	H0	H	0.401360	0.829521	0.716968
	H1	H	0.596028	0.158537	0.715095
	H2	H	0.595472	0.829003	0.291326
	H3	H	0.399534	0.157003	0.286654
	H4	H	0.712897	0.393139	0.838169
	H5	H	0.714137	0.592232	0.165308
	H6	H	0.283146	0.591918	0.837951
	H7	H	0.284410	0.393018	0.166086
	H8	H	0.836646	0.708912	0.402709
	H9	H	0.162256	0.708278	0.601652
	H10	H	0.835647	0.279093	0.599989
	H11	H	0.161556	0.276933	0.402936
	H12	H	0.835440	0.394840	0.715227
	H13	H	0.162403	0.590635	0.717784
	H14	H	0.836264	0.592897	0.286810
	H15	H	0.162310	0.395278	0.287514
	H16	H	0.400002	0.706784	0.837500
	H17	H	0.597331	0.705003	0.166077
	H18	H	0.595092	0.280308	0.837311
	H19	H	0.400804	0.277181	0.165595
	H20	H	0.713860	0.830832	0.403406
	H21	H	0.714878	0.157090	0.603163
	H22	H	0.284574	0.829452	0.601466
	H23	H	0.282398	0.156867	0.401827
	H24	H	0.902425	0.329022	0.216200
	H25	H	0.096265	0.657880	0.215196
	H26	H	0.096668	0.328033	0.790127
	H27	H	0.901352	0.657179	0.788715
	H28	H	0.214645	0.892237	0.339261
	H29	H	0.214246	0.093447	0.666315
	H30	H	0.783742	0.093108	0.338798
	H31	H	0.784629	0.894950	0.666566
	H32	H	0.336893	0.207781	0.903185
	H33	H	0.662090	0.207558	0.101808
	H34	H	0.336572	0.776550	0.101329
	H35	H	0.662184	0.778058	0.904120
	H36	H	0.335662	0.892289	0.217488
	H37	H	0.662117	0.089655	0.217529
	H38	H	0.336421	0.092395	0.787747
	H39	H	0.662351	0.894520	0.787777
	H40	H	0.900107	0.207346	0.338171
	H41	H	0.096125	0.205772	0.666702
	H42	H	0.096092	0.780899	0.337407
	H43	H	0.900704	0.778270	0.666576
	H44	H	0.214319	0.330164	0.902453
	H45	H	0.214679	0.656499	0.102447
	H46	H	0.784444	0.328825	0.102138
	H47	H	0.783753	0.656661	0.903235
	H48	H	0.410721	0.108197	0.591988
	H49	H	0.587599	0.878959	0.593205
	H50	H	0.586931	0.106983	0.416703
	H51	H	0.404284	0.877673	0.415797
	H52	H	0.595605	0.401102	0.119886
	H53	H	0.585705	0.585207	0.886475
	H54	H	0.405898	0.587104	0.119196
	H55	H	0.408211	0.395584	0.885092
	H56	H	0.119167	0.596718	0.405191
	H57	H	0.884389	0.585281	0.594219
	H58	H	0.113109	0.399552	0.591641
	H59	H	0.879723	0.390527	0.406003
	H60	H	0.115086	0.402774	0.599768
	H61	H	0.883184	0.586813	0.595792
	H62	H	0.111537	0.585595	0.419327
	H63	H	0.886619	0.402088	0.417654
	H64	H	0.403963	0.582640	0.118499
	H65	H	0.594000	0.591189	0.882363
	H66	H	0.588939	0.402818	0.117697
	H67	H	0.398929	0.400773	0.883143
	H68	H	0.599650	0.112991	0.410480
	H69	H	0.597345	0.876998	0.591794
	H70	H	0.399278	0.110750	0.591125
	H71	H	0.402455	0.875628	0.408480
	H72	H	0.898529	0.610334	0.089803
	H73	H	0.080437	0.378166	0.101541
	H74	H	0.085009	0.609718	0.902825
	H75	H	0.908459	0.376163	0.906037
	H76	H	0.094047	0.902981	0.619897
	H77	H	0.080265	0.086008	0.388527
	H78	H	0.911168	0.082454	0.616513
	H79	H	0.903183	0.901962	0.385402
	H80	H	0.615974	0.086567	0.908046
	H81	H	0.385236	0.081394	0.092614
	H82	H	0.611896	0.900586	0.093499
	H83	H	0.383036	0.904450	0.904717
	H84	H	0.615088	0.900315	0.100363
	H85	H	0.382528	0.085814	0.097976
	H86	H	0.616110	0.087597	0.908136
	H87	H	0.382003	0.893881	0.908831
	H88	H	0.905699	0.092841	0.621932
	H89	H	0.095444	0.093089	0.381505
	H90	H	0.089518	0.902863	0.617534
	H91	H	0.907012	0.903504	0.386802
	H92	H	0.086504	0.605447	0.918273
	H93	H	0.093528	0.380661	0.081498
	H94	H	0.906397	0.611038	0.100268
	H95	H	0.903443	0.377023	0.913198
	H96	H	0.405100	0.111976	0.601984
	H97	H	0.593157	0.876471	0.600499
	H98	H	0.587035	0.112068	0.402179
	H99	H	0.409875	0.878624	0.409409
	H100	H	0.591625	0.396180	0.119983
	H101	H	0.594665	0.580277	0.884891
	H102	H	0.408854	0.583606	0.117649
	H103	H	0.407649	0.405890	0.886997
	H104	H	0.114583	0.578393	0.401817
	H105	H	0.883392	0.587870	0.594027
	H106	H	0.117087	0.394089	0.598079
	H107	H	0.883503	0.406677	0.400974
	H108	H	0.910292	0.605864	0.088824
	H109	H	0.103174	0.372115	0.102096
	H110	H	0.099387	0.611827	0.910540
	H111	H	0.900429	0.373782	0.906694
	H112	H	0.091368	0.898415	0.619811
	H113	H	0.094782	0.076013	0.387541
	H114	H	0.899289	0.082150	0.620385
	H115	H	0.906816	0.899427	0.385358
	H116	H	0.616185	0.086855	0.909269
	H117	H	0.384123	0.088733	0.091192
	H118	H	0.616306	0.894588	0.095879
	H119	H	0.385910	0.901845	0.915341
	C120	C	0.376728	0.001915	0.623885
	C121	C	0.620796	0.985609	0.624014
	C122	C	0.620089	0.002461	0.381400
	C123	C	0.376217	0.984977	0.380892
	C124	C	0.620001	0.371703	0.010626
	C125	C	0.619884	0.613573	0.993279
	C126	C	0.377034	0.614020	0.010232
	C127	C	0.376885	0.371454	0.993626
	C128	C	0.007342	0.615366	0.380080
	C129	C	0.991027	0.614973	0.624102
	C130	C	0.006976	0.371338	0.624022
	C131	C	0.991248	0.371495	0.380263
	C132	C	0.877187	0.501009	0.122742
	C133	C	0.120741	0.484975	0.123891
	C134	C	0.119146	0.500750	0.882003
	C135	C	0.875767	0.484227	0.880036
	C136	C	0.120112	0.872426	0.510576
	C137	C	0.119568	0.114040	0.493795
	C138	C	0.876765	0.114857	0.511415
	C139	C	0.877243	0.872213	0.494366
	C140	C	0.508169	0.115438	0.879999
	C141	C	0.491292	0.114061	0.123462
	C142	C	0.507001	0.869839	0.124876
	C143	C	0.491100	0.871238	0.880604
	C144	C	0.380110	0.878444	0.679242
	C145	C	0.617241	0.109140	0.678307
	C146	C	0.616632	0.878506	0.328077
	C147	C	0.378822	0.108101	0.324783
	C148	C	0.674492	0.373775	0.886901
	C149	C	0.675887	0.611935	0.116540
	C150	C	0.320977	0.612559	0.886984
	C151	C	0.322212	0.372933	0.117053
	C152	C	0.885066	0.670648	0.382305
	C153	C	0.113647	0.670108	0.622269
	C154	C	0.884266	0.316924	0.620493
	C155	C	0.113364	0.315864	0.383152
	C156	C	0.884273	0.374640	0.677847
	C157	C	0.113597	0.611880	0.679931
	C158	C	0.885009	0.613034	0.324643
	C159	C	0.113692	0.374360	0.325349
	C160	C	0.378989	0.669716	0.886837
	C161	C	0.617817	0.668013	0.116958
	C162	C	0.616188	0.317569	0.886403
	C163	C	0.380124	0.315656	0.116829
	C164	C	0.675792	0.879451	0.383540
	C165	C	0.676217	0.108570	0.622504
	C166	C	0.322008	0.878520	0.621954
	C167	C	0.320803	0.108111	0.382123
	C168	C	0.880982	0.377924	0.178560
	C169	C	0.117912	0.608497	0.178733
	C170	C	0.116867	0.377448	0.827284
	C171	C	0.879922	0.607820	0.825717
	C172	C	0.176025	0.873229	0.387829
	C173	C	0.175841	0.112702	0.617176
	C174	C	0.821824	0.113253	0.387578
	C175	C	0.822036	0.873909	0.617398
	C176	C	0.385558	0.170175	0.882782
	C177	C	0.613808	0.169350	0.121754
	C178	C	0.384942	0.814232	0.122071
	C179	C	0.613667	0.816141	0.883469
	C180	C	0.384597	0.872153	0.179824
	C181	C	0.613795	0.110609	0.179131
	C182	C	0.385514	0.112734	0.825268
	C183	C	0.613738	0.874157	0.825785
	C184	C	0.879631	0.170045	0.387350
	C185	C	0.117308	0.168601	0.617727
	C186	C	0.117253	0.817619	0.386995
	C187	C	0.879979	0.816206	0.617474
	C188	C	0.175508	0.378385	0.883162
	C189	C	0.176676	0.607814	0.122586
	C190	C	0.822657	0.377681	0.121478
	C191	C	0.821589	0.607681	0.882787
	C192	C	0.398605	0.087941	0.601738
	C193	C	0.599100	0.899764	0.601702
	C194	C	0.597934	0.088528	0.403510
	C195	C	0.398866	0.899300	0.404299
	C196	C	0.598552	0.393582	0.096838
	C197	C	0.597890	0.591938	0.907099
	C198	C	0.399616	0.591158	0.096105
	C199	C	0.398458	0.394160	0.907427
	C200	C	0.093097	0.593350	0.402135
	C201	C	0.905629	0.593112	0.601374
	C202	C	0.092925	0.392551	0.602749
	C203	C	0.905419	0.393520	0.401876
	C204	C	0.898801	0.586759	0.099767
	C205	C	0.098823	0.399184	0.101580
	C206	C	0.096943	0.586776	0.904223
	C207	C	0.897452	0.397944	0.902228
	C208	C	0.097968	0.894827	0.596990
	C209	C	0.096814	0.091638	0.408134
	C210	C	0.898835	0.092445	0.597510
	C211	C	0.899252	0.895007	0.408001
	C212	C	0.594059	0.093661	0.902046
	C213	C	0.406091	0.091900	0.100756
	C214	C	0.592333	0.891922	0.103093
	C215	C	0.405625	0.893616	0.902980
	Zn216	Zn	0.499461	-0.006546	0.752128
	Zn217	Zn	0.498585	-0.007354	0.253243
	Zn218	Zn	0.747722	0.492660	0.002263
	Zn219	Zn	0.248357	0.493027	0.002013
	Zn220	Zn	-0.000248	0.744212	0.502067
	Zn221	Zn	-0.001457	0.242238	0.502814
	Zn222	Zn	-0.000844	0.492341	0.752913
	Zn223	Zn	-0.001051	0.494130	0.251371
	Zn224	Zn	0.499205	0.741654	0.002010
	Zn225	Zn	0.499344	0.243480	0.001940
	Zn226	Zn	0.748729	-0.005646	0.502399
	Zn227	Zn	0.247908	-0.006428	0.502235
	N228	N	0.413419	0.956060	0.680703
	N229	N	0.583251	0.031747	0.679206
	N230	N	0.582853	0.955945	0.326483
	N231	N	0.412579	0.030498	0.324042
	N232	N	0.676965	0.406730	0.965023
	N233	N	0.677329	0.578794	0.038787
	N234	N	0.319440	0.578996	0.964766
	N235	N	0.320206	0.407051	0.039363
	N236	N	0.962192	0.672504	0.415922
	N237	N	0.036593	0.672256	0.588249
	N238	N	0.961608	0.314778	0.587574
	N239	N	0.036080	0.313954	0.416518
	N240	N	0.961447	0.407877	0.679895
	N241	N	0.036351	0.578592	0.681407
	N242	N	0.962291	0.579288	0.323377
	N243	N	0.036657	0.408070	0.323394
	N244	N	0.413214	0.670682	0.964382
	N245	N	0.583829	0.669463	0.039139
	N246	N	0.582913	0.316288	0.964179
	N247	N	0.413216	0.314481	0.039122
	N248	N	0.677734	0.957495	0.416239
	N249	N	0.678545	0.030841	0.589373
	N250	N	0.319744	0.956244	0.588442
	N251	N	0.319117	0.030572	0.416239
	N252	N	0.914173	0.455658	0.179386
	N253	N	0.083730	0.531278	0.179617
	N254	N	0.082435	0.454739	0.826453
	N255	N	0.912939	0.529972	0.823835
	N256	N	0.177850	0.906628	0.465633
	N257	N	0.177493	0.079555	0.539158
	N258	N	0.820070	0.079570	0.465399
	N259	N	0.820321	0.907933	0.539716
	N260	N	0.462860	0.171839	0.916234
	N261	N	0.536710	0.171653	0.087747
	N262	N	0.461983	0.812790	0.088513
	N263	N	0.536413	0.814130	0.916796
	N264	N	0.461480	0.906086	0.181670
	N265	N	0.536587	0.077215	0.180428
	N266	N	0.462708	0.079182	0.823761
	N267	N	0.536501	0.907597	0.823925
	N268	N	0.912843	0.171551	0.465423
	N269	N	0.083022	0.169825	0.540413
	N270	N	0.083304	0.817030	0.464584
	N271	N	0.913292	0.814925	0.539703
	N272	N	0.176869	0.456026	0.916529
	N273	N	0.178381	0.530203	0.088985
	N274	N	0.820104	0.455269	0.087699
	N275	N	0.819004	0.529688	0.915690
	O276	O	1.049075	0.964199	-0.003404
	H277	H	1.036227	0.960501	0.003943
	H278	H	1.047155	0.968849	-0.003080
	O279	O	0.060122	-0.002790	0.074128
	H280	H	0.067643	-0.000002	0.080071
	H281	H	0.064373	0.013182	0.069570
	O282	O	0.037757	-0.021542	1.043894
	H283	H	0.037249	-0.020476	1.050044
	H284	H	0.037950	-0.024043	1.044788
	O285	O	0.563558	0.491824	0.543447
	H286	H	0.567618	0.485082	0.534228
	H287	H	0.563054	0.503306	0.551306
	O288	O	0.575602	0.571476	0.537866
	H289	H	0.582604	0.584639	0.535542
	H290	H	0.578549	0.561191	0.530380
	O291	O	0.617790	0.568320	0.544406
	H292	H	0.624226	0.566588	0.533067
	H293	H	0.626388	0.573219	0.547545
	O294	O	0.050178	-0.070459	0.027933
	H295	H	0.045725	-0.071091	0.028380
	H296	H	0.048434	-0.076147	0.040088
	O297	O	0.546652	0.529748	0.504408
	H298	H	0.543669	0.534427	0.513186
	H299	H	0.552457	0.534137	0.508358
	O300	O	0.032819	0.981152	1.050910
	H301	H	0.038537	0.983143	1.045770
	H302	H	0.029702	0.993725	1.057339
	O303	O	0.522051	0.546751	0.493024
	H304	H	0.521411	0.550904	0.500320
	H305	H	0.536370	0.547996	0.496230
	O306	O	-0.461157	0.592041	0.459821
	H307	H	-0.463168	0.593702	0.447721
	H308	H	-0.470845	0.590674	0.466719
	O309	O	1.073890	1.024259	0.985090
	H310	H	1.088152	1.020754	0.966375
	H311	H	1.070681	1.013955	0.980151
	O312	O	0.505808	0.589356	0.474473
	H313	H	0.502361	0.580695	0.477727
	H314	H	0.497752	0.589370	0.464822
	O315	O	0.499454	0.526071	0.468521
	H316	H	0.496641	0.531864	0.465778
	H317	H	0.505677	0.521347	0.474419
	O318	O	0.096628	0.934836	-0.093761
	H319	H	0.104170	0.931373	-0.112359
	H320	H	0.099936	0.912819	-0.081821
	O321	O	1.075166	0.963720	-0.005776
	H322	H	1.077871	0.970460	-0.005012
	H323	H	1.078528	0.966462	-0.002454
