data_Molecule from HDF5

_cell_length_a		16.658355
_cell_length_b		16.445557
_cell_length_c		16.392435
_cell_angle_alpha	89.864584
_cell_angle_beta	90.128547
_cell_angle_gamma	90.092060
_symmetry_space_group_name_H-M	'P 1'
_symmetry_Int_Tables_number		1

loop_
	_symmetry_equiv_pos_as_xyz
	x,y,z

loop_
	_atom_site_label
	_atom_site_type_symbol
	_atom_site_fract_x
	_atom_site_fract_y
	_atom_site_fract_z
	H0	H	0.392112	0.841857	0.721522
	H1	H	0.601795	0.157646	0.715588
	H2	H	0.603407	0.841625	0.275208
	H3	H	0.395310	0.156976	0.277316
	H4	H	0.722037	0.392389	0.841147
	H5	H	0.721740	0.606994	0.154736
	H6	H	0.273754	0.611259	0.840479
	H7	H	0.276770	0.392207	0.153823
	H8	H	0.844120	0.723156	0.389088
	H9	H	0.154116	0.727758	0.606714
	H10	H	0.843272	0.278318	0.601022
	H11	H	0.153492	0.274280	0.388775
	H12	H	0.842877	0.396656	0.717277
	H13	H	0.154144	0.610625	0.723401
	H14	H	0.843587	0.604715	0.273956
	H15	H	0.155265	0.395210	0.275660
	H16	H	0.392625	0.723750	0.839421
	H17	H	0.602927	0.719069	0.156214
	H18	H	0.601706	0.280317	0.838746
	H19	H	0.396628	0.281252	0.156311
	H20	H	0.723825	0.843921	0.386573
	H21	H	0.722403	0.155107	0.604207
	H22	H	0.272673	0.843690	0.609762
	H23	H	0.275893	0.155004	0.390289
	H24	H	0.899876	0.340000	0.213734
	H25	H	0.101755	0.660021	0.213932
	H26	H	0.102596	0.341557	0.775050
	H27	H	0.896115	0.659267	0.776360
	H28	H	0.221832	0.891466	0.341548
	H29	H	0.221087	0.106363	0.655531
	H30	H	0.777252	0.104159	0.338880
	H31	H	0.776388	0.890564	0.655275
	H32	H	0.341339	0.221549	0.889740
	H33	H	0.655564	0.217863	0.098854
	H34	H	0.342019	0.776520	0.101856
	H35	H	0.656406	0.778292	0.893225
	H36	H	0.340742	0.894549	0.217502
	H37	H	0.655504	0.100258	0.216400
	H38	H	0.341622	0.104217	0.774587
	H39	H	0.656029	0.894614	0.776276
	H40	H	0.896697	0.216696	0.336911
	H41	H	0.101813	0.218324	0.657342
	H42	H	0.100196	0.783057	0.338593
	H43	H	0.894571	0.778078	0.656009
	H44	H	0.221802	0.342134	0.886916
	H45	H	0.219295	0.658620	0.099212
	H46	H	0.779387	0.342140	0.101494
	H47	H	0.776958	0.657973	0.889810
	H48	H	0.412931	0.111316	0.588112
	H49	H	0.586875	0.886042	0.586452
	H50	H	0.579636	0.107356	0.410579
	H51	H	0.407794	0.885594	0.410021
	H52	H	0.587162	0.406273	0.112025
	H53	H	0.588994	0.587522	0.884276
	H54	H	0.412961	0.585596	0.108023
	H55	H	0.408131	0.412366	0.883089
	H56	H	0.111494	0.589587	0.406635
	H57	H	0.888036	0.596323	0.580901
	H58	H	0.109441	0.411832	0.583480
	H59	H	0.888190	0.409841	0.409222
	H60	H	0.110417	0.411985	0.587183
	H61	H	0.893442	0.582784	0.579057
	H62	H	0.111822	0.593583	0.405930
	H63	H	0.887607	0.410904	0.403222
	H64	H	0.408582	0.587650	0.109579
	H65	H	0.587640	0.586924	0.884889
	H66	H	0.593970	0.411809	0.112121
	H67	H	0.409493	0.411051	0.882698
	H68	H	0.592041	0.110916	0.416766
	H69	H	0.588379	0.886005	0.584587
	H70	H	0.410934	0.109006	0.579528
	H71	H	0.408677	0.885902	0.410416
	H72	H	0.907780	0.612212	0.080250
	H73	H	0.092190	0.386149	0.085942
	H74	H	0.092886	0.613304	0.907887
	H75	H	0.906385	0.386596	0.908477
	H76	H	0.090757	0.918826	0.610399
	H77	H	0.090429	0.081735	0.385687
	H78	H	0.906315	0.091555	0.612523
	H79	H	0.905218	0.909839	0.381796
	H80	H	0.610909	0.097256	0.908430
	H81	H	0.385105	0.088971	0.089152
	H82	H	0.609776	0.914212	0.091043
	H83	H	0.389197	0.915639	0.906973
	H84	H	0.611953	0.905032	0.089100
	H85	H	0.384809	0.092169	0.087786
	H86	H	0.606799	0.086860	0.911643
	H87	H	0.386403	0.906226	0.908720
	H88	H	0.905991	0.084227	0.610183
	H89	H	0.081978	0.087392	0.386554
	H90	H	0.080801	0.915894	0.608374
	H91	H	0.907920	0.918953	0.386678
	H92	H	0.081211	0.610715	0.907043
	H93	H	0.087641	0.386527	0.087946
	H94	H	0.905393	0.616001	0.088136
	H95	H	0.909383	0.388231	0.906557
	H96	H	0.404468	0.112140	0.584613
	H97	H	0.589174	0.885357	0.587209
	H98	H	0.589799	0.113892	0.403311
	H99	H	0.408275	0.886090	0.410474
	H100	H	0.586061	0.413962	0.109569
	H101	H	0.587342	0.588461	0.884211
	H102	H	0.408532	0.582658	0.107644
	H103	H	0.408169	0.410350	0.882654
	H104	H	0.110616	0.592200	0.409296
	H105	H	0.887861	0.586424	0.592017
	H106	H	0.111163	0.408547	0.585080
	H107	H	0.886227	0.405483	0.405429
	H108	H	0.913934	0.613105	0.086982
	H109	H	0.088770	0.388381	0.082643
	H110	H	0.087063	0.608409	0.917223
	H111	H	0.909638	0.388213	0.910798
	H112	H	0.087127	0.908594	0.612920
	H113	H	0.090834	0.091662	0.382323
	H114	H	0.912736	0.087456	0.610174
	H115	H	0.914556	0.910937	0.385682
	H116	H	0.611570	0.088485	0.901317
	H117	H	0.385981	0.089659	0.085498
	H118	H	0.607195	0.910276	0.082960
	H119	H	0.391622	0.911396	0.915954
	C120	C	0.376824	0.007268	0.618541
	C121	C	0.620161	0.990236	0.618479
	C122	C	0.619387	0.007119	0.376552
	C123	C	0.376687	0.989906	0.377180
	C124	C	0.620456	0.378513	0.006579
	C125	C	0.620111	0.620040	0.989066
	C126	C	0.377770	0.620114	0.004620
	C127	C	0.377078	0.378903	0.987769
	C128	C	0.007903	0.622692	0.374829
	C129	C	0.991574	0.622662	0.618499
	C130	C	0.007369	0.378715	0.617844
	C131	C	0.990503	0.377096	0.374550
	C132	C	0.878268	0.508694	0.117362
	C133	C	0.120969	0.491599	0.117409
	C134	C	0.120445	0.507534	0.875767
	C135	C	0.876938	0.492050	0.875549
	C136	C	0.118717	0.880771	0.506435
	C137	C	0.120208	0.120222	0.489152
	C138	C	0.877241	0.119622	0.505751
	C139	C	0.876789	0.878611	0.488884
	C140	C	0.506585	0.122549	0.874686
	C141	C	0.489593	0.120951	0.118544
	C142	C	0.506583	0.876898	0.120051
	C143	C	0.491828	0.878439	0.877058
	C144	C	0.373845	0.889369	0.681000
	C145	C	0.621390	0.109663	0.677252
	C146	C	0.621859	0.888901	0.315394
	C147	C	0.375778	0.109170	0.317094
	C148	C	0.681007	0.375109	0.888036
	C149	C	0.681014	0.624141	0.107724
	C150	C	0.315604	0.626351	0.886937
	C151	C	0.317437	0.375530	0.106877
	C152	C	0.890639	0.682486	0.371819
	C153	C	0.107502	0.686404	0.624053
	C154	C	0.889975	0.318641	0.619858
	C155	C	0.107302	0.315922	0.371375
	C156	C	0.889641	0.377651	0.677280
	C157	C	0.107571	0.627827	0.682012
	C158	C	0.890490	0.623828	0.314272
	C159	C	0.108328	0.376090	0.315260
	C160	C	0.374632	0.682748	0.886586
	C161	C	0.621977	0.679884	0.108502
	C162	C	0.621241	0.319432	0.886830
	C163	C	0.376895	0.320152	0.107963
	C164	C	0.681843	0.890135	0.370866
	C165	C	0.681152	0.108310	0.621670
	C166	C	0.314326	0.890156	0.625136
	C167	C	0.316480	0.108356	0.373203
	C168	C	0.879415	0.388323	0.175140
	C169	C	0.121319	0.611672	0.175606
	C170	C	0.121787	0.389026	0.814624
	C171	C	0.876650	0.611522	0.815880
	C172	C	0.180095	0.875806	0.388037
	C173	C	0.180774	0.123924	0.608227
	C174	C	0.817539	0.122136	0.386402
	C175	C	0.816669	0.873793	0.607788
	C176	C	0.388713	0.182016	0.871738
	C177	C	0.608280	0.178626	0.118511
	C178	C	0.388916	0.816537	0.120945
	C179	C	0.609396	0.818459	0.874697
	C180	C	0.388082	0.875401	0.178325
	C181	C	0.608252	0.119937	0.176579
	C182	C	0.388919	0.123672	0.814063
	C183	C	0.609068	0.876550	0.816544
	C184	C	0.876718	0.178357	0.385533
	C185	C	0.121237	0.179506	0.609118
	C186	C	0.120059	0.821416	0.386543
	C187	C	0.875536	0.817628	0.608045
	C188	C	0.181111	0.389545	0.870543
	C189	C	0.179812	0.611036	0.118645
	C190	C	0.819585	0.389341	0.119438
	C191	C	0.817264	0.610788	0.872062
	C192	C	0.402191	0.089609	0.591762
	C193	C	0.595262	0.907361	0.593339
	C194	C	0.594049	0.089319	0.402749
	C195	C	0.401076	0.907278	0.403036
	C196	C	0.596063	0.403644	0.089750
	C197	C	0.595099	0.594707	0.905997
	C198	C	0.403195	0.593160	0.087094
	C199	C	0.401459	0.404180	0.904490
	C200	C	0.089975	0.598574	0.400028
	C201	C	0.910925	0.595882	0.591506
	C202	C	0.089184	0.403818	0.592515
	C203	C	0.908723	0.401784	0.399135
	C204	C	0.902243	0.591977	0.092365
	C205	C	0.096463	0.408550	0.092686
	C206	C	0.094531	0.589411	0.902876
	C207	C	0.901419	0.409277	0.901157
	C208	C	0.093559	0.906815	0.588981
	C209	C	0.095034	0.094396	0.406482
	C210	C	0.901494	0.094954	0.589227
	C211	C	0.901917	0.905432	0.406160
	C212	C	0.588367	0.097864	0.899964
	C213	C	0.406910	0.097254	0.094334
	C214	C	0.588434	0.902251	0.094960
	C215	C	0.410358	0.903708	0.902943
	Zn216	Zn	0.498601	-0.000633	0.746575
	Zn217	Zn	0.497716	-0.001559	0.248548
	Zn218	Zn	0.748666	0.500554	-0.002640
	Zn219	Zn	0.248942	0.499396	-0.003726
	Zn220	Zn	-0.000739	0.752019	0.496789
	Zn221	Zn	-0.000799	0.247981	0.496985
	Zn222	Zn	-0.001077	0.500489	0.747865
	Zn223	Zn	-0.000259	0.500510	0.245711
	Zn224	Zn	0.499398	0.748166	-0.002365
	Zn225	Zn	0.497948	0.251107	-0.002800
	Zn226	Zn	0.748456	-0.001410	0.497497
	Zn227	Zn	0.247888	-0.000930	0.498278
	N228	N	0.412202	0.963223	0.676878
	N229	N	0.584179	0.035207	0.675490
	N230	N	0.583423	0.962573	0.318996
	N231	N	0.412386	0.034544	0.319347
	N232	N	0.680573	0.411305	0.963454
	N233	N	0.680142	0.587821	0.032339
	N234	N	0.317619	0.587808	0.961331
	N235	N	0.317477	0.411392	0.031011
	N236	N	0.964674	0.681964	0.408783
	N237	N	0.034324	0.683350	0.585292
	N238	N	0.964419	0.318961	0.583945
	N239	N	0.033163	0.316558	0.407607
	N240	N	0.963832	0.413917	0.676465
	N241	N	0.034651	0.588792	0.678575
	N242	N	0.964486	0.587280	0.316050
	N243	N	0.034699	0.413684	0.317048
	N244	N	0.412732	0.678950	0.960746
	N245	N	0.584709	0.677513	0.033797
	N246	N	0.584098	0.321585	0.961484
	N247	N	0.413257	0.322101	0.032958
	N248	N	0.680221	0.964515	0.408598
	N249	N	0.680768	0.032757	0.586306
	N250	N	0.316031	0.964643	0.587060
	N251	N	0.316788	0.033059	0.409817
	N252	N	0.915072	0.463728	0.174144
	N253	N	0.085836	0.536078	0.175405
	N254	N	0.084920	0.463687	0.817302
	N255	N	0.912783	0.536472	0.817714
	N256	N	0.179798	0.911657	0.463795
	N257	N	0.180282	0.087833	0.532603
	N258	N	0.817477	0.086642	0.462292
	N259	N	0.817019	0.910720	0.532424
	N260	N	0.462905	0.181765	0.908380
	N261	N	0.533427	0.179403	0.083480
	N262	N	0.463672	0.817257	0.085570
	N263	N	0.535527	0.819418	0.911586
	N264	N	0.462452	0.911676	0.178091
	N265	N	0.533123	0.085060	0.177069
	N266	N	0.463224	0.087383	0.815465
	N267	N	0.534760	0.913026	0.817815
	N268	N	0.913099	0.177150	0.460901
	N269	N	0.084596	0.177685	0.533969
	N270	N	0.082651	0.824310	0.460933
	N271	N	0.911897	0.820324	0.532921
	N272	N	0.180490	0.464353	0.907540
	N273	N	0.179918	0.535377	0.083564
	N274	N	0.818729	0.465415	0.084462
	N275	N	0.817120	0.535448	0.908413
	O276	O	0.414859	0.551673	0.525496
	H277	H	0.425689	0.558501	0.509659
	H278	H	0.417675	0.554470	0.531713
	O279	O	0.335799	0.481572	0.444808
	H280	H	0.345387	0.471349	0.441750
	H281	H	0.325656	0.473845	0.464748
	O282	O	1.256561	1.219281	0.252021
	H283	H	1.271111	1.213491	0.252578
	H284	H	1.258393	1.228091	0.276299
	O285	O	0.293365	0.281324	0.507268
	H286	H	0.286002	0.265353	0.521288
	H287	H	0.295048	0.276121	0.519933
	O288	O	-0.311525	0.315037	-0.318383
	H289	H	-0.343051	0.329294	-0.323726
	H290	H	-0.318375	0.331336	-0.350007
	O291	O	1.467958	0.719763	0.277898
	H292	H	1.460070	0.720884	0.271533
	H293	H	1.450619	0.737161	0.257855
	O294	O	-0.138051	1.186664	0.180585
	H295	H	-0.139443	1.150770	0.173071
	H296	H	-0.124763	1.185824	0.166023
	O297	O	0.280107	0.525977	0.277739
	H298	H	0.268081	0.519968	0.279555
	H299	H	0.267125	0.529677	0.271053
	O300	O	0.467168	0.714457	0.560718
	H301	H	0.471288	0.708211	0.564871
	H302	H	0.471301	0.704658	0.568540
	O303	O	0.608974	0.378996	0.565253
	H304	H	0.616756	0.377611	0.551863
	H305	H	0.611492	0.381828	0.551264
	O306	O	0.190585	0.830659	0.902577
	H307	H	0.191285	0.850503	0.899601
	H308	H	0.174592	0.828618	0.895207
	O309	O	0.625434	0.470715	0.701233
	H310	H	0.621956	0.481839	0.692453
	H311	H	0.617816	0.473469	0.703873
	O312	O	0.449473	0.283302	0.658735
	H313	H	0.455032	0.259031	0.674742
	H314	H	0.456400	0.274841	0.645041
	O315	O	0.019005	0.194308	1.080727
	H316	H	0.027001	0.174488	1.079312
	H317	H	0.028716	0.206997	1.095068
	O318	O	0.021626	1.069313	0.155076
	H319	H	0.006168	1.054819	0.155964
	H320	H	0.024689	1.052876	0.169188
	O321	O	0.713806	0.716335	0.520966
	H322	H	0.707338	0.707425	0.518368
	H323	H	0.733496	0.738539	0.517693
	O324	O	0.794082	0.200465	0.832713
	H325	H	0.782532	0.213892	0.846231
	H326	H	0.798441	0.220170	0.820011
	O327	O	0.867098	-0.047602	0.922301
	H328	H	0.867069	-0.053270	0.915266
	H329	H	0.862559	-0.045049	0.921048
	O330	O	1.114608	-0.081786	0.179628
	H331	H	1.120915	-0.098863	0.183858
	H332	H	1.125742	-0.085620	0.160023
	O333	O	0.706841	0.556554	0.679490
	H334	H	0.704324	0.553708	0.697866
	H335	H	0.693727	0.547224	0.668161
	O336	O	0.920576	0.205304	0.784744
	H337	H	0.907655	0.211786	0.786927
	H338	H	0.920592	0.227348	0.768022
	O339	O	0.318369	0.317057	0.651776
	H340	H	0.340937	0.306750	0.644511
	H341	H	0.310256	0.354061	0.662424
	O342	O	0.496007	0.510202	0.536680
	H343	H	0.496905	0.510015	0.540688
	H344	H	0.489308	0.496126	0.528298
	O345	O	0.083389	0.076255	-0.168879
	H346	H	0.097757	0.074147	-0.161656
	H347	H	0.079040	0.100555	-0.173918
	O348	O	1.021525	-0.177898	1.131180
	H349	H	1.020239	-0.172605	1.142161
	H350	H	1.011896	-0.183555	1.130427
	O351	O	0.897377	0.939168	0.001565
	H352	H	0.913179	0.944816	-0.009737
	H353	H	0.899747	0.950290	-0.004777
	O354	O	0.476223	0.318244	0.465926
	H355	H	0.494501	0.314109	0.457036
	H356	H	0.478401	0.317422	0.459379
	O357	O	1.073157	1.113653	1.036799
	H358	H	1.093002	1.112379	1.033417
	H359	H	1.072954	1.107261	1.045478
	O360	O	0.701706	0.511775	0.449550
	H361	H	0.696429	0.516371	0.447766
	H362	H	0.700858	0.521678	0.464894
	O363	O	0.396224	0.532306	0.576976
	H364	H	0.401039	0.513575	0.579642
	H365	H	0.382353	0.531607	0.583002
	O366	O	1.059684	0.076818	0.979469
	H367	H	1.059232	0.077111	0.987949
	H368	H	1.075527	0.084679	0.969329
	O369	O	0.302442	0.691206	0.300931
	H370	H	0.302305	0.672959	0.321861
	H371	H	0.309079	0.685605	0.323927
	O372	O	0.249325	0.684879	0.692997
	H373	H	0.258623	0.667034	0.687750
	H374	H	0.238800	0.682671	0.683629
	O375	O	-0.063295	0.985900	0.784400
	H376	H	-0.093905	1.003280	0.774708
	H377	H	-0.053065	1.003782	0.790951
	O378	O	0.527936	0.282954	0.287680
	H379	H	0.548439	0.269414	0.279283
	H380	H	0.553522	0.272332	0.279654
	O381	O	1.028970	-0.197871	-0.206269
	H382	H	1.010787	-0.179178	-0.210857
	H383	H	1.023249	-0.213534	-0.227314
	O384	O	0.155963	-0.001511	0.865196
	H385	H	0.158908	0.001121	0.860547
	H386	H	0.151490	-0.019821	0.868537
	O387	O	-0.170164	0.827599	0.998727
	H388	H	-0.177230	0.846088	0.972848
	H389	H	-0.160390	0.809376	0.984482
	O390	O	0.202540	0.046167	0.877701
	H391	H	0.201369	0.063308	0.881295
	H392	H	0.214483	0.044757	0.878431
	O393	O	0.804848	0.825195	0.119322
	H394	H	0.799704	0.814352	0.102227
	H395	H	0.802658	0.827795	0.107009
	O396	O	0.397988	0.407836	0.502117
	H397	H	0.394471	0.398657	0.501717
	H398	H	0.398259	0.412764	0.485328
	O399	O	0.709026	0.319116	0.442345
	H400	H	0.716408	0.312206	0.416301
	H401	H	0.716322	0.322746	0.416906
	O402	O	-0.102324	0.038336	1.183714
	H403	H	-0.097576	0.007632	1.177947
	H404	H	-0.106382	0.023519	1.179322
	O405	O	0.201234	0.215326	0.012915
	H406	H	0.211506	0.226847	0.033204
	H407	H	0.206231	0.221437	0.040287
	O408	O	0.798104	1.177928	0.993257
	H409	H	0.809565	1.177805	0.992002
	H410	H	0.791389	1.178349	0.992928
	O411	O	0.621313	0.699421	0.648834
	H412	H	0.609913	0.697813	0.630158
	H413	H	0.626292	0.678282	0.650542
	O414	O	0.597795	0.668503	0.525260
	H415	H	0.606497	0.671876	0.525117
	H416	H	0.583247	0.681960	0.524308
	O417	O	0.477973	0.499131	0.713691
	H418	H	0.481677	0.491755	0.719640
	H419	H	0.468325	0.498639	0.710141
	O420	O	0.708823	0.285315	0.325411
	H421	H	0.713716	0.333433	0.318456
	H422	H	0.743427	0.257241	0.297266
	O423	O	-0.132045	0.797003	0.204412
	H424	H	-0.127613	0.783003	0.197090
	H425	H	-0.147403	0.811598	0.204930
	O426	O	1.133309	1.042068	1.120637
	H427	H	1.139459	1.047311	1.127844
	H428	H	1.149803	1.033101	1.123832
	O429	O	0.377340	0.381094	0.317381
	H430	H	0.380245	0.382693	0.323861
	H431	H	0.365865	0.364933	0.314366
	O432	O	0.525027	0.720308	0.621443
	H433	H	0.543187	0.712812	0.617302
	H434	H	0.521966	0.731566	0.623436
	O435	O	-0.156453	-0.050838	0.082014
	H436	H	-0.151285	-0.066615	0.078656
	H437	H	-0.161959	-0.049263	0.067469
	O438	O	1.207198	0.088956	0.097251
	H439	H	1.195488	0.085174	0.092800
	H440	H	1.223753	0.099311	0.112690
	O441	O	0.280642	0.475414	0.716252
	H442	H	0.264262	0.487623	0.717193
	H443	H	0.262908	0.473218	0.719976
	O444	O	0.047029	0.792527	0.961881
	H445	H	0.048993	0.798910	0.952720
	H446	H	0.059043	0.795544	0.960301
	O447	O	0.534183	0.479943	0.388190
	H448	H	0.529918	0.475133	0.385590
	H449	H	0.526299	0.480038	0.377664
	O450	O	0.513678	0.579176	0.347895
	H451	H	0.506232	0.576491	0.342843
	H452	H	0.515261	0.586071	0.336249
	O453	O	0.698479	0.434333	0.299589
	H454	H	0.692074	0.448740	0.318180
	H455	H	0.711303	0.456471	0.290980
	O456	O	0.807098	0.022874	-0.197967
	H457	H	0.784550	0.032826	-0.220586
	H458	H	0.807787	0.059917	-0.194526
	O459	O	0.698509	0.643983	0.357297
	H460	H	0.686364	0.641593	0.369037
	H461	H	0.700438	0.652313	0.360610
	O462	O	0.284491	0.713789	0.469554
	H463	H	0.267915	0.737218	0.477059
	H464	H	0.304097	0.713564	0.494659
	O465	O	1.012802	-0.046997	0.073998
	H466	H	1.028219	-0.043779	0.069295
	H467	H	1.017744	-0.037760	0.067075
