data_Molecule from HDF5

_cell_length_a		16.192312
_cell_length_b		16.384880
_cell_length_c		16.175206
_cell_angle_alpha	90.234244
_cell_angle_beta	90.096725
_cell_angle_gamma	90.112919
_symmetry_space_group_name_H-M	'P 1'
_symmetry_Int_Tables_number		1

loop_
	_symmetry_equiv_pos_as_xyz
	x,y,z

loop_
	_atom_site_label
	_atom_site_type_symbol
	_atom_site_fract_x
	_atom_site_fract_y
	_atom_site_fract_z
	H0	H	0.404996	0.840774	0.710329
	H1	H	0.601926	0.167035	0.712387
	H2	H	0.601705	0.840994	0.280497
	H3	H	0.404498	0.166135	0.282268
	H4	H	0.715502	0.405006	0.830626
	H5	H	0.716772	0.601534	0.160598
	H6	H	0.290893	0.600654	0.829819
	H7	H	0.289933	0.408998	0.160729
	H8	H	0.839614	0.719888	0.394389
	H9	H	0.166639	0.720386	0.597562
	H10	H	0.840388	0.288078	0.594883
	H11	H	0.168110	0.287726	0.393554
	H12	H	0.837699	0.407686	0.705117
	H13	H	0.167740	0.601477	0.708267
	H14	H	0.837667	0.599931	0.283888
	H15	H	0.169027	0.408017	0.283177
	H16	H	0.403101	0.718446	0.832109
	H17	H	0.605004	0.719536	0.159807
	H18	H	0.602984	0.287114	0.832823
	H19	H	0.402359	0.290411	0.160569
	H20	H	0.718985	0.841332	0.397140
	H21	H	0.718695	0.167061	0.596337
	H22	H	0.288553	0.841413	0.595254
	H23	H	0.288933	0.166298	0.399581
	H24	H	0.903284	0.340471	0.210440
	H25	H	0.102957	0.667030	0.212350
	H26	H	0.099741	0.341753	0.779401
	H27	H	0.903079	0.667023	0.780204
	H28	H	0.216642	0.905997	0.331891
	H29	H	0.215976	0.101384	0.661792
	H30	H	0.789447	0.100967	0.332454
	H31	H	0.793082	0.909445	0.662805
	H32	H	0.339818	0.218894	0.895211
	H33	H	0.666890	0.221741	0.098584
	H34	H	0.339915	0.787320	0.097227
	H35	H	0.666705	0.787111	0.894792
	H36	H	0.338693	0.906984	0.208295
	H37	H	0.668541	0.101745	0.210446
	H38	H	0.338597	0.099074	0.784752
	H39	H	0.668634	0.906907	0.784665
	H40	H	0.904593	0.216736	0.331964
	H41	H	0.106548	0.221927	0.659921
	H42	H	0.103885	0.787831	0.332447
	H43	H	0.902185	0.789210	0.660148
	H44	H	0.216507	0.341402	0.895560
	H45	H	0.218086	0.667351	0.094510
	H46	H	0.787582	0.340774	0.092920
	H47	H	0.787431	0.667029	0.897341
	H48	H	0.404107	0.121252	0.590064
	H49	H	0.605369	0.886873	0.587865
	H50	H	0.598889	0.122240	0.398277
	H51	H	0.414951	0.888829	0.400483
	H52	H	0.591892	0.409142	0.113282
	H53	H	0.610667	0.597788	0.873510
	H54	H	0.414991	0.602247	0.113615
	H55	H	0.418903	0.404556	0.879374
	H56	H	0.118904	0.591991	0.404621
	H57	H	0.888784	0.597224	0.576238
	H58	H	0.122570	0.405749	0.583849
	H59	H	0.885624	0.408308	0.398657
	H60	H	0.117565	0.417316	0.583156
	H61	H	0.886006	0.589082	0.593692
	H62	H	0.122057	0.599950	0.400851
	H63	H	0.886299	0.405483	0.407458
	H64	H	0.404648	0.597984	0.115190
	H65	H	0.589175	0.581504	0.884466
	H66	H	0.599201	0.410423	0.114721
	H67	H	0.402566	0.403138	0.873710
	H68	H	0.590368	0.116406	0.405920
	H69	H	0.596407	0.886039	0.597918
	H70	H	0.412250	0.120647	0.597027
	H71	H	0.408708	0.888486	0.407916
	H72	H	0.904127	0.620526	0.086432
	H73	H	0.093792	0.389597	0.088349
	H74	H	0.101648	0.623479	0.899531
	H75	H	0.911353	0.392194	0.910131
	H76	H	0.100488	0.914779	0.614632
	H77	H	0.095988	0.092809	0.380685
	H78	H	0.910521	0.098204	0.615486
	H79	H	0.904091	0.910758	0.378021
	H80	H	0.619844	0.100995	0.909737
	H81	H	0.388310	0.089145	0.089005
	H82	H	0.619909	0.907063	0.080227
	H83	H	0.382398	0.903758	0.896524
	H84	H	0.618911	0.918733	0.090139
	H85	H	0.382916	0.102137	0.096615
	H86	H	0.619357	0.092351	0.907006
	H87	H	0.387452	0.905541	0.911600
	H88	H	0.913909	0.096466	0.612898
	H89	H	0.092311	0.099600	0.379460
	H90	H	0.089345	0.913783	0.611848
	H91	H	0.913879	0.915848	0.381060
	H92	H	0.093011	0.620154	0.898089
	H93	H	0.097187	0.389116	0.086795
	H94	H	0.910699	0.620430	0.096323
	H95	H	0.899448	0.384686	0.898648
	H96	H	0.413532	0.118311	0.586989
	H97	H	0.592401	0.890476	0.585706
	H98	H	0.602326	0.118910	0.409803
	H99	H	0.405939	0.885065	0.400218
	H100	H	0.594627	0.416024	0.111932
	H101	H	0.584087	0.609070	0.877710
	H102	H	0.413253	0.591555	0.110639
	H103	H	0.408129	0.418399	0.879906
	H104	H	0.119226	0.599838	0.409932
	H105	H	0.880436	0.608257	0.590875
	H106	H	0.123407	0.413245	0.594342
	H107	H	0.888577	0.413935	0.404863
	H108	H	0.915033	0.616679	0.086276
	H109	H	0.096601	0.388510	0.090940
	H110	H	0.096983	0.619390	0.906490
	H111	H	0.915638	0.388094	0.892664
	H112	H	0.095338	0.905113	0.615438
	H113	H	0.100060	0.098546	0.377251
	H114	H	0.914803	0.100696	0.614716
	H115	H	0.913633	0.905464	0.378328
	H116	H	0.623087	0.098493	0.901429
	H117	H	0.386598	0.102986	0.080862
	H118	H	0.625178	0.905511	0.094864
	H119	H	0.387606	0.918148	0.901926
	C120	C	0.381823	0.012265	0.618920
	C121	C	0.626462	0.995623	0.619750
	C122	C	0.625622	0.011817	0.375388
	C123	C	0.381063	0.995086	0.374567
	C124	C	0.623696	0.382886	0.004679
	C125	C	0.624419	0.625125	0.987147
	C126	C	0.382056	0.625385	0.004228
	C127	C	0.381076	0.381838	0.986966
	C128	C	0.011393	0.625523	0.375092
	C129	C	0.993854	0.626437	0.616811
	C130	C	0.012289	0.383496	0.615703
	C131	C	0.995463	0.381312	0.374145
	C132	C	0.880780	0.511632	0.117980
	C133	C	0.124981	0.496415	0.117758
	C134	C	0.124740	0.512950	0.872766
	C135	C	0.880327	0.495843	0.872395
	C136	C	0.124441	0.882486	0.505127
	C137	C	0.125236	0.125723	0.487868
	C138	C	0.883153	0.125934	0.505590
	C139	C	0.882209	0.882859	0.488131
	C140	C	0.512255	0.124777	0.876579
	C141	C	0.494848	0.126424	0.118254
	C142	C	0.512336	0.882366	0.117270
	C143	C	0.494555	0.881092	0.874652
	C144	C	0.384653	0.889525	0.672661
	C145	C	0.623204	0.118098	0.675046
	C146	C	0.622535	0.889423	0.318968
	C147	C	0.383714	0.117373	0.319855
	C148	C	0.678273	0.384686	0.880205
	C149	C	0.679821	0.622557	0.111053
	C150	C	0.327642	0.621977	0.879657
	C151	C	0.326446	0.386930	0.111062
	C152	C	0.888210	0.681054	0.375637
	C153	C	0.117617	0.681734	0.616223
	C154	C	0.888898	0.327218	0.614064
	C155	C	0.119010	0.326121	0.374529
	C156	C	0.887566	0.386838	0.668922
	C157	C	0.118131	0.622801	0.671587
	C158	C	0.887297	0.621489	0.320459
	C159	C	0.119465	0.385812	0.319547
	C160	C	0.383458	0.680516	0.880872
	C161	C	0.624007	0.681174	0.110668
	C162	C	0.622192	0.326302	0.881219
	C163	C	0.382790	0.328292	0.111165
	C164	C	0.680608	0.889577	0.377210
	C165	C	0.681136	0.118277	0.617247
	C166	C	0.326444	0.889945	0.615753
	C167	C	0.326256	0.117584	0.378087
	C168	C	0.883194	0.389081	0.172402
	C169	C	0.123067	0.618470	0.173774
	C170	C	0.121158	0.390319	0.817389
	C171	C	0.882411	0.618513	0.817831
	C172	C	0.179300	0.885426	0.381171
	C173	C	0.179441	0.122627	0.612258
	C174	C	0.827145	0.122278	0.381612
	C175	C	0.828847	0.887169	0.612850
	C176	C	0.388680	0.180160	0.876870
	C177	C	0.618077	0.182930	0.117946
	C178	C	0.388858	0.826203	0.116271
	C179	C	0.618162	0.825917	0.875977
	C180	C	0.388142	0.885749	0.171429
	C181	C	0.618935	0.123132	0.173306
	C182	C	0.388027	0.120720	0.821707
	C183	C	0.619000	0.885146	0.820816
	C184	C	0.884227	0.179933	0.381355
	C185	C	0.125047	0.182536	0.611252
	C186	C	0.123070	0.826876	0.381293
	C187	C	0.883289	0.827674	0.611437
	C188	C	0.179184	0.390192	0.875101
	C189	C	0.180310	0.618626	0.115125
	C190	C	0.825586	0.389292	0.114066
	C191	C	0.825103	0.618442	0.876138
	C192	C	0.403647	0.098044	0.597698
	C193	C	0.604590	0.909947	0.597178
	C194	C	0.603616	0.097199	0.398001
	C195	C	0.403223	0.909656	0.396497
	C196	C	0.601763	0.405374	0.090955
	C197	C	0.601406	0.602684	0.900570
	C198	C	0.404292	0.603592	0.090673
	C199	C	0.403269	0.402414	0.900067
	C200	C	0.097859	0.603609	0.398233
	C201	C	0.907409	0.604639	0.593720
	C202	C	0.098850	0.405579	0.593631
	C203	C	0.909190	0.402771	0.397028
	C204	C	0.903335	0.597107	0.096136
	C205	C	0.102360	0.411184	0.095172
	C206	C	0.103526	0.598663	0.895146
	C207	C	0.902364	0.410585	0.894090
	C208	C	0.101702	0.904616	0.591704
	C209	C	0.102699	0.103538	0.401515
	C210	C	0.906155	0.104708	0.591884
	C211	C	0.904054	0.904328	0.401596
	C212	C	0.598530	0.103504	0.899397
	C213	C	0.408331	0.104538	0.095482
	C214	C	0.598836	0.904129	0.094929
	C215	C	0.408254	0.902660	0.896811
	Zn216	Zn	0.503545	0.003331	0.747862
	Zn217	Zn	0.503515	0.003675	0.245501
	Zn218	Zn	0.751812	0.504151	-0.004828
	Zn219	Zn	0.253748	0.504685	-0.005190
	Zn220	Zn	0.003140	0.754527	0.496113
	Zn221	Zn	0.004923	0.253923	0.495736
	Zn222	Zn	0.002592	0.504723	0.743645
	Zn223	Zn	0.002965	0.503642	0.247322
	Zn224	Zn	0.503450	0.753667	-0.003794
	Zn225	Zn	0.503346	0.254334	-0.003329
	Zn226	Zn	0.755355	0.003945	0.497482
	Zn227	Zn	0.252417	0.004011	0.497197
	N228	N	0.418377	0.966618	0.674789
	N229	N	0.589939	0.040718	0.676581
	N230	N	0.589065	0.966457	0.317903
	N231	N	0.417222	0.040272	0.317720
	N232	N	0.679510	0.419319	0.957900
	N233	N	0.680212	0.588644	0.033073
	N234	N	0.326617	0.588408	0.957448
	N235	N	0.325350	0.419486	0.032825
	N236	N	0.966605	0.683752	0.408769
	N237	N	0.039228	0.684119	0.582737
	N238	N	0.967509	0.324891	0.581711
	N239	N	0.040687	0.323220	0.407685
	N240	N	0.965307	0.421050	0.670077
	N241	N	0.040205	0.589180	0.672088
	N242	N	0.965075	0.587795	0.320043
	N243	N	0.041715	0.419286	0.318941
	N244	N	0.416795	0.682681	0.959201
	N245	N	0.590339	0.682851	0.032597
	N246	N	0.588978	0.325163	0.959494
	N247	N	0.415936	0.324925	0.032999
	N248	N	0.682726	0.966622	0.411474
	N249	N	0.683162	0.041207	0.583390
	N250	N	0.324436	0.967301	0.583004
	N251	N	0.324523	0.040423	0.411304
	N252	N	0.916673	0.466373	0.174958
	N253	N	0.089330	0.541376	0.175494
	N254	N	0.087945	0.467509	0.816051
	N255	N	0.915868	0.541494	0.815375
	N256	N	0.180286	0.919239	0.459288
	N257	N	0.179678	0.087968	0.534566
	N258	N	0.826343	0.089366	0.459863
	N259	N	0.828207	0.920974	0.535244
	N260	N	0.466929	0.182835	0.910233
	N261	N	0.539773	0.185157	0.084684
	N262	N	0.467255	0.823773	0.083373
	N263	N	0.539812	0.823160	0.908601
	N264	N	0.465857	0.920026	0.172012
	N265	N	0.541272	0.088815	0.173735
	N266	N	0.465732	0.086902	0.821294
	N267	N	0.541241	0.918928	0.819888
	N268	N	0.918145	0.182525	0.459289
	N269	N	0.092133	0.184568	0.532762
	N270	N	0.089547	0.825042	0.459249
	N271	N	0.915766	0.824774	0.532889
	N272	N	0.181452	0.467493	0.908817
	N273	N	0.181680	0.541597	0.080930
	N274	N	0.823874	0.466542	0.080993
	N275	N	0.823601	0.541147	0.909362
	O276	O	0.042573	0.086198	0.051630
	H277	H	0.038886	0.079093	0.047696
	H278	H	0.050599	0.085693	0.051127
	O279	O	0.557521	0.527343	0.507315
	H280	H	0.557942	0.527571	0.499885
	H281	H	0.567573	0.526647	0.511697
	O282	O	0.536580	0.526029	0.461003
	H283	H	0.536446	0.537359	0.462902
	H284	H	0.539226	0.524827	0.450642
	O285	O	1.029805	0.013757	1.048084
	H286	H	1.029511	0.023159	1.048514
	H287	H	1.031121	0.014520	1.058089
	O288	O	0.927092	0.051229	0.062279
	H289	H	0.922394	0.047387	0.057702
	H290	H	0.923649	0.056502	0.052681
	O291	O	0.549361	0.477232	0.568828
	H292	H	0.547248	0.474433	0.571521
	H293	H	0.554655	0.473519	0.564173
	O294	O	1.092159	-0.029075	1.010466
	H295	H	1.091400	-0.028049	1.008309
	H296	H	1.092932	-0.026436	1.014463
	O297	O	0.056932	0.040277	0.037714
	H298	H	0.058323	0.041581	0.038051
	H299	H	0.050666	0.034097	0.031591
	O300	O	0.472350	0.515879	0.397273
	H301	H	0.462206	0.514728	0.384497
	H302	H	0.465291	0.522983	0.396388
	O303	O	0.501731	0.501596	0.464938
	H304	H	0.496365	0.493061	0.468815
	H305	H	0.503935	0.507866	0.468996
	O306	O	1.056852	-0.024578	-0.061576
	H307	H	1.054975	-0.026869	-0.057294
	H308	H	1.055345	-0.024344	-0.059277
	O309	O	0.004435	0.102313	0.960964
	H310	H	0.002354	0.103691	0.963478
	H311	H	0.015414	0.099785	0.959412
	O312	O	0.977679	1.080915	1.151222
	H313	H	0.967828	1.095597	1.157339
	H314	H	0.984883	1.084272	1.153353
	O315	O	0.596618	0.462456	0.470630
	H316	H	0.595182	0.465480	0.466699
	H317	H	0.604461	0.452107	0.466744
	O318	O	0.519900	0.509667	0.474211
	H319	H	0.512341	0.506695	0.484109
	H320	H	0.520436	0.508726	0.469588
	O321	O	0.065560	1.068972	0.988354
	H322	H	0.062294	1.070600	0.984558
	H323	H	0.065476	1.064102	0.991954
	O324	O	0.467145	0.475380	0.471562
	H325	H	0.472246	0.470291	0.478477
	H326	H	0.466975	0.480554	0.473847
	O327	O	0.481014	0.489506	0.494913
	H328	H	0.485230	0.491140	0.495391
	H329	H	0.476336	0.494133	0.498144
	O330	O	0.470722	0.416382	0.512266
	H331	H	0.479539	0.419569	0.513361
	H332	H	0.483109	0.415428	0.505014
	O333	O	0.461509	0.498335	0.560675
	H334	H	0.467099	0.492675	0.558433
	H335	H	0.464155	0.495645	0.557529
	O336	O	0.536168	0.474970	0.544411
	H337	H	0.533097	0.470654	0.530494
	H338	H	0.538882	0.475981	0.542105
	O339	O	0.986291	0.960718	-0.035228
	H340	H	0.979122	0.946095	-0.034779
	H341	H	0.988875	0.959168	-0.033697
	O342	O	0.450889	0.550762	0.460154
	H343	H	0.451920	0.549846	0.464778
	H344	H	0.436245	0.541700	0.456431
	O345	O	0.479650	0.491386	0.421089
	H346	H	0.478567	0.498076	0.416515
	H347	H	0.469918	0.470482	0.424393
	O348	O	0.020326	-0.002472	-0.008030
	H349	H	0.022612	-0.000255	-0.011919
	H350	H	0.022695	-0.005113	-0.018754
	O351	O	-0.056253	0.948970	1.017611
	H352	H	-0.059859	0.944817	1.030381
	H353	H	-0.049317	0.954855	1.019686
	O354	O	0.531807	0.512194	0.432386
	H355	H	0.525869	0.509556	0.437801
	H356	H	0.535608	0.520785	0.438208
	O357	O	0.036110	0.987694	1.078401
	H358	H	0.038481	0.989851	1.067727
	H359	H	0.036761	0.985349	1.082803
