data_Molecule from HDF5

_cell_length_a		16.299271
_cell_length_b		16.312802
_cell_length_c		16.301519
_cell_angle_alpha	89.965045
_cell_angle_beta	90.005367
_cell_angle_gamma	89.984249
_symmetry_space_group_name_H-M	'P 1'
_symmetry_Int_Tables_number		1

loop_
	_symmetry_equiv_pos_as_xyz
	x,y,z

loop_
	_atom_site_label
	_atom_site_type_symbol
	_atom_site_fract_x
	_atom_site_fract_y
	_atom_site_fract_z
	H0	H	0.399736	0.836773	0.720870
	H1	H	0.596209	0.164849	0.721896
	H2	H	0.595292	0.837696	0.293067
	H3	H	0.399616	0.164445	0.293356
	H4	H	0.711502	0.403553	0.843795
	H5	H	0.711676	0.600340	0.171275
	H6	H	0.282764	0.598570	0.843904
	H7	H	0.283348	0.403694	0.171827
	H8	H	0.833676	0.715552	0.409492
	H9	H	0.160772	0.714786	0.605348
	H10	H	0.834150	0.286633	0.605780
	H11	H	0.161128	0.287057	0.408355
	H12	H	0.833338	0.403452	0.721222
	H13	H	0.160835	0.598919	0.721188
	H14	H	0.832664	0.598202	0.295181
	H15	H	0.160552	0.404042	0.292858
	H16	H	0.398519	0.715402	0.843481
	H17	H	0.595680	0.716555	0.170362
	H18	H	0.594403	0.287982	0.843543
	H19	H	0.398548	0.286017	0.171238
	H20	H	0.711024	0.837360	0.409730
	H21	H	0.711549	0.164694	0.604976
	H22	H	0.283178	0.837476	0.604688
	H23	H	0.282612	0.164513	0.408143
	H24	H	0.897518	0.337917	0.222911
	H25	H	0.094275	0.665066	0.221732
	H26	H	0.095234	0.338560	0.793105
	H27	H	0.899559	0.664677	0.793589
	H28	H	0.211320	0.904458	0.343383
	H29	H	0.212715	0.099246	0.671001
	H30	H	0.783208	0.099220	0.343977
	H31	H	0.783387	0.903297	0.671614
	H32	H	0.333776	0.215450	0.909025
	H33	H	0.661894	0.214467	0.103727
	H34	H	0.333658	0.787440	0.105198
	H35	H	0.660616	0.786521	0.908370
	H36	H	0.334158	0.903203	0.222182
	H37	H	0.661720	0.098113	0.220366
	H38	H	0.333386	0.098570	0.793559
	H39	H	0.661110	0.904798	0.795087
	H40	H	0.899806	0.215972	0.344273
	H41	H	0.096528	0.215550	0.671065
	H42	H	0.095849	0.787153	0.343741
	H43	H	0.900340	0.787246	0.671291
	H44	H	0.210851	0.337521	0.910034
	H45	H	0.211426	0.664882	0.106668
	H46	H	0.783185	0.337660	0.105305
	H47	H	0.782871	0.664388	0.909290
	H48	H	0.403315	0.115314	0.595644
	H49	H	0.583699	0.886771	0.603482
	H50	H	0.596296	0.117283	0.422089
	H51	H	0.404047	0.886466	0.419027
	H52	H	0.588451	0.409626	0.122878
	H53	H	0.596853	0.591736	0.890475
	H54	H	0.392926	0.596502	0.127549
	H55	H	0.406314	0.412782	0.894025
	H56	H	0.114800	0.595795	0.411899
	H57	H	0.878808	0.598138	0.603856
	H58	H	0.115476	0.407288	0.606017
	H59	H	0.882808	0.413386	0.416023
	H60	H	0.113685	0.404102	0.596165
	H61	H	0.881898	0.596070	0.596857
	H62	H	0.113536	0.596179	0.416177
	H63	H	0.879594	0.406818	0.410800
	H64	H	0.408654	0.583220	0.118623
	H65	H	0.585290	0.589994	0.894266
	H66	H	0.590475	0.404194	0.124239
	H67	H	0.406504	0.403164	0.891164
	H68	H	0.594857	0.121090	0.406322
	H69	H	0.593874	0.886024	0.594634
	H70	H	0.401172	0.118904	0.602932
	H71	H	0.399835	0.883418	0.412165
	H72	H	0.901257	0.616689	0.097450
	H73	H	0.089120	0.387555	0.093610
	H74	H	0.085403	0.614643	0.921348
	H75	H	0.900638	0.383304	0.912967
	H76	H	0.086347	0.911830	0.621294
	H77	H	0.105804	0.086953	0.388903
	H78	H	0.898549	0.092889	0.625060
	H79	H	0.902319	0.906060	0.390347
	H80	H	0.615686	0.096679	0.910830
	H81	H	0.380840	0.094709	0.101483
	H82	H	0.612965	0.907958	0.099146
	H83	H	0.377863	0.900117	0.909141
	H84	H	0.613439	0.909631	0.101081
	H85	H	0.381211	0.095008	0.099973
	H86	H	0.613193	0.097409	0.916881
	H87	H	0.382161	0.906272	0.923214
	H88	H	0.906890	0.091094	0.621727
	H89	H	0.077236	0.086136	0.397561
	H90	H	0.089187	0.902675	0.624926
	H91	H	0.902120	0.909819	0.390834
	H92	H	0.100500	0.620020	0.915521
	H93	H	0.097360	0.382675	0.103397
	H94	H	0.900372	0.619600	0.105711
	H95	H	0.907071	0.385258	0.911623
	H96	H	0.409161	0.115492	0.601539
	H97	H	0.596395	0.881732	0.607332
	H98	H	0.582332	0.114859	0.414162
	H99	H	0.408866	0.885435	0.411404
	H100	H	0.593540	0.408956	0.124638
	H101	H	0.588664	0.601168	0.889599
	H102	H	0.413514	0.604940	0.123836
	H103	H	0.398011	0.408980	0.889831
	H104	H	0.112586	0.592686	0.413720
	H105	H	0.881338	0.590797	0.602792
	H106	H	0.111485	0.413972	0.599349
	H107	H	0.881411	0.405504	0.419505
	H108	H	0.908192	0.616685	0.102708
	H109	H	0.083807	0.385592	0.106422
	H110	H	0.087060	0.619435	0.905120
	H111	H	0.904277	0.385980	0.917956
	H112	H	0.096065	0.910258	0.624285
	H113	H	0.088880	0.111270	0.386654
	H114	H	0.905695	0.099503	0.625589
	H115	H	0.906011	0.907297	0.391335
	H116	H	0.612853	0.091821	0.913408
	H117	H	0.381701	0.093192	0.100252
	H118	H	0.614019	0.906995	0.101253
	H119	H	0.381988	0.916153	0.909750
	C120	C	0.376028	0.008769	0.628655
	C121	C	0.619278	0.993144	0.629284
	C122	C	0.619237	0.009568	0.385977
	C123	C	0.376015	0.993030	0.385598
	C124	C	0.618757	0.379514	0.015866
	C125	C	0.618884	0.622908	0.999418
	C126	C	0.375408	0.622899	0.015394
	C127	C	0.375493	0.379762	0.999517
	C128	C	0.005323	0.622977	0.386282
	C129	C	0.988992	0.622492	0.628876
	C130	C	0.005640	0.379799	0.629192
	C131	C	0.989095	0.379682	0.386079
	C132	C	0.874738	0.509601	0.130078
	C133	C	0.118619	0.493279	0.129797
	C134	C	0.119029	0.509832	0.885917
	C135	C	0.875883	0.492913	0.886219
	C136	C	0.119000	0.879826	0.515256
	C137	C	0.119242	0.123015	0.499087
	C138	C	0.875976	0.122691	0.516098
	C139	C	0.875738	0.879489	0.499230
	C140	C	0.505744	0.123239	0.885122
	C141	C	0.489255	0.122893	0.128774
	C142	C	0.505526	0.879890	0.128718
	C143	C	0.489007	0.879682	0.885889
	C144	C	0.378884	0.885778	0.683332
	C145	C	0.616404	0.116193	0.683881
	C146	C	0.616178	0.886407	0.330909
	C147	C	0.378871	0.115860	0.330953
	C148	C	0.673397	0.382765	0.892481
	C149	C	0.673759	0.620586	0.122326
	C150	C	0.320353	0.619457	0.892807
	C151	C	0.320693	0.382413	0.122878
	C152	C	0.882212	0.677595	0.389077
	C153	C	0.111910	0.677409	0.626255
	C154	C	0.882970	0.324372	0.626591
	C155	C	0.112031	0.324623	0.387914
	C156	C	0.882502	0.382248	0.684098
	C157	C	0.111883	0.619823	0.683986
	C158	C	0.881854	0.619427	0.332164
	C159	C	0.111750	0.382446	0.330352
	C160	C	0.378051	0.677347	0.892373
	C161	C	0.615916	0.678289	0.122042
	C162	C	0.615382	0.325252	0.892484
	C163	C	0.377854	0.324080	0.122473
	C164	C	0.673778	0.886366	0.388804
	C165	C	0.673479	0.116234	0.625574
	C166	C	0.320975	0.886029	0.625540
	C167	C	0.320882	0.115740	0.388125
	C168	C	0.877402	0.386595	0.184758
	C169	C	0.115557	0.616195	0.184555
	C170	C	0.116162	0.387157	0.830970
	C171	C	0.878858	0.615886	0.831201
	C172	C	0.173237	0.883376	0.392085
	C173	C	0.174501	0.119915	0.622287
	C174	C	0.821269	0.119934	0.392587
	C175	C	0.821221	0.882833	0.622627
	C176	C	0.382598	0.177788	0.888187
	C177	C	0.612788	0.177119	0.125310
	C178	C	0.382401	0.825087	0.125817
	C179	C	0.611999	0.824692	0.888302
	C180	C	0.382621	0.882579	0.183868
	C181	C	0.612651	0.119988	0.183632
	C182	C	0.382507	0.119801	0.830587
	C183	C	0.612208	0.883445	0.831924
	C184	C	0.879133	0.177722	0.392802
	C185	C	0.116819	0.177511	0.622331
	C186	C	0.116177	0.825043	0.392534
	C187	C	0.879267	0.825342	0.622715
	C188	C	0.173467	0.386661	0.889008
	C189	C	0.173715	0.616024	0.127283
	C190	C	0.820634	0.386481	0.126277
	C191	C	0.820900	0.615830	0.888559
	C192	C	0.398087	0.094576	0.606555
	C193	C	0.597656	0.907058	0.608248
	C194	C	0.597339	0.095497	0.407747
	C195	C	0.397908	0.907225	0.407661
	C196	C	0.597263	0.401359	0.101620
	C197	C	0.596808	0.600772	0.913422
	C198	C	0.398063	0.601164	0.101373
	C199	C	0.397284	0.401744	0.913914
	C200	C	0.091468	0.601336	0.407727
	C201	C	0.903042	0.601221	0.607403
	C202	C	0.091520	0.401947	0.606927
	C203	C	0.903407	0.401896	0.408715
	C204	C	0.896799	0.595566	0.108277
	C205	C	0.096480	0.407369	0.107640
	C206	C	0.097413	0.595876	0.907696
	C207	C	0.897486	0.406977	0.907933
	C208	C	0.097015	0.901946	0.601469
	C209	C	0.097124	0.101317	0.413136
	C210	C	0.897570	0.100894	0.601741
	C211	C	0.897258	0.901139	0.413137
	C212	C	0.591801	0.101624	0.907150
	C213	C	0.403550	0.100866	0.106991
	C214	C	0.591370	0.901680	0.106944
	C215	C	0.402908	0.901134	0.907826
	Zn216	Zn	0.497593	0.001234	0.757275
	Zn217	Zn	0.497581	0.001339	0.257507
	Zn218	Zn	0.747355	0.501220	0.007585
	Zn219	Zn	0.246764	0.501238	0.008101
	Zn220	Zn	-0.002463	0.751315	0.507493
	Zn221	Zn	-0.002084	0.251229	0.508086
	Zn222	Zn	-0.003009	0.500930	0.757509
	Zn223	Zn	-0.003340	0.501621	0.258044
	Zn224	Zn	0.497034	0.751364	0.006757
	Zn225	Zn	0.497198	0.251191	0.007525
	Zn226	Zn	0.747285	0.001147	0.507682
	Zn227	Zn	0.247141	0.001424	0.507325
	N228	N	0.412485	0.963159	0.685316
	N229	N	0.583137	0.038574	0.686143
	N230	N	0.582729	0.964028	0.329230
	N231	N	0.412520	0.038546	0.329499
	N232	N	0.675711	0.415799	0.970178
	N233	N	0.675672	0.586805	0.044893
	N234	N	0.319051	0.586261	0.970410
	N235	N	0.319354	0.416679	0.045701
	N236	N	0.959969	0.680034	0.421781
	N237	N	0.034425	0.679494	0.592851
	N238	N	0.960452	0.322912	0.593131
	N239	N	0.034878	0.322939	0.421975
	N240	N	0.959815	0.415986	0.685652
	N241	N	0.034430	0.586383	0.685640
	N242	N	0.959429	0.586082	0.330330
	N243	N	0.034218	0.416140	0.329194
	N244	N	0.411962	0.679412	0.969643
	N245	N	0.582528	0.679610	0.044579
	N246	N	0.581993	0.323322	0.969976
	N247	N	0.411428	0.322299	0.045017
	N248	N	0.675701	0.963777	0.422204
	N249	N	0.675431	0.038787	0.592617
	N250	N	0.319199	0.963529	0.592308
	N251	N	0.318690	0.038210	0.421300
	N252	N	0.910413	0.464265	0.187271
	N253	N	0.081775	0.538851	0.186116
	N254	N	0.082920	0.464569	0.829286
	N255	N	0.912366	0.538433	0.829704
	N256	N	0.175119	0.916631	0.469598
	N257	N	0.176118	0.086709	0.544703
	N258	N	0.819098	0.086524	0.470101
	N259	N	0.819099	0.915922	0.544905
	N260	N	0.460171	0.180022	0.921234
	N261	N	0.535121	0.179092	0.092198
	N262	N	0.459800	0.823370	0.092218
	N263	N	0.534040	0.822069	0.920855
	N264	N	0.460021	0.916048	0.185674
	N265	N	0.534961	0.086778	0.185780
	N266	N	0.460233	0.086691	0.828619
	N267	N	0.534965	0.916998	0.830406
	N268	N	0.912442	0.179595	0.470430
	N269	N	0.083153	0.179315	0.544857
	N270	N	0.083289	0.822803	0.470381
	N271	N	0.912463	0.823140	0.545137
	N272	N	0.175079	0.463939	0.922767
	N273	N	0.175381	0.538638	0.093849
	N274	N	0.819079	0.463862	0.092903
	N275	N	0.819027	0.538521	0.922270
	O276	O	0.489786	0.454899	0.511884
	H277	H	0.485154	0.452206	0.513961
	H278	H	0.491812	0.452273	0.515560
	O279	O	0.472296	0.428223	0.483900
	H280	H	0.468646	0.423140	0.478026
	H281	H	0.477823	0.430807	0.476677
	O282	O	1.472479	0.426861	-0.480231
	H283	H	1.473904	0.417825	-0.478650
	H284	H	1.467049	0.425456	-0.485948
	O285	O	0.485720	0.446254	0.490555
	H286	H	0.493875	0.456038	0.495906
	H287	H	0.482490	0.447094	0.493759
