data_Molecule from HDF5

_cell_length_a		16.224702
_cell_length_b		16.393433
_cell_length_c		16.228224
_cell_angle_alpha	89.853445
_cell_angle_beta	89.958089
_cell_angle_gamma	90.037565
_symmetry_space_group_name_H-M	'P 1'
_symmetry_Int_Tables_number		1

loop_
	_symmetry_equiv_pos_as_xyz
	x,y,z

loop_
	_atom_site_label
	_atom_site_type_symbol
	_atom_site_fract_x
	_atom_site_fract_y
	_atom_site_fract_z
	H0	H	0.403939	0.833680	0.713602
	H1	H	0.601879	0.159062	0.713335
	H2	H	0.601198	0.833347	0.284549
	H3	H	0.404484	0.159027	0.282633
	H4	H	0.716118	0.400022	0.833718
	H5	H	0.715841	0.592610	0.163450
	H6	H	0.291668	0.591806	0.833493
	H7	H	0.288869	0.397469	0.163147
	H8	H	0.839605	0.711187	0.399403
	H9	H	0.167364	0.710660	0.599260
	H10	H	0.839655	0.280412	0.598881
	H11	H	0.166840	0.281440	0.399787
	H12	H	0.838698	0.397975	0.713206
	H13	H	0.168250	0.592251	0.711103
	H14	H	0.839123	0.593489	0.285494
	H15	H	0.167892	0.399711	0.286297
	H16	H	0.403483	0.711247	0.835037
	H17	H	0.601763	0.710339	0.162966
	H18	H	0.604013	0.280402	0.835095
	H19	H	0.402936	0.279954	0.161947
	H20	H	0.717622	0.833324	0.400563
	H21	H	0.718065	0.158541	0.596300
	H22	H	0.287624	0.833386	0.597940
	H23	H	0.288330	0.159738	0.399675
	H24	H	0.903572	0.333075	0.214624
	H25	H	0.103337	0.658431	0.214350
	H26	H	0.102280	0.333563	0.783329
	H27	H	0.905494	0.659127	0.782693
	H28	H	0.216013	0.899920	0.334128
	H29	H	0.214983	0.092068	0.664121
	H30	H	0.789748	0.093276	0.333910
	H31	H	0.790358	0.898506	0.663511
	H32	H	0.339673	0.212203	0.898101
	H33	H	0.666331	0.211462	0.099420
	H34	H	0.338491	0.781205	0.098235
	H35	H	0.666179	0.781254	0.898746
	H36	H	0.338162	0.897776	0.212625
	H37	H	0.667026	0.091856	0.210826
	H38	H	0.338381	0.093373	0.785405
	H39	H	0.666936	0.899939	0.785995
	H40	H	0.902439	0.212341	0.335260
	H41	H	0.103198	0.211670	0.662722
	H42	H	0.104147	0.780829	0.335298
	H43	H	0.903665	0.780146	0.662434
	H44	H	0.218114	0.333635	0.899861
	H45	H	0.216921	0.659358	0.094635
	H46	H	0.786818	0.333530	0.097772
	H47	H	0.787684	0.658799	0.898278
	H48	H	0.406640	0.112457	0.589711
	H49	H	0.596011	0.880742	0.590004
	H50	H	0.595039	0.112926	0.400082
	H51	H	0.406644	0.880257	0.405085
	H52	H	0.594331	0.411922	0.111976
	H53	H	0.594684	0.592146	0.881584
	H54	H	0.405801	0.593212	0.118146
	H55	H	0.406761	0.396032	0.878569
	H56	H	0.122254	0.594971	0.406199
	H57	H	0.885049	0.593289	0.591936
	H58	H	0.120848	0.402903	0.593508
	H59	H	0.886074	0.401993	0.406067
	H60	H	0.120052	0.399491	0.588699
	H61	H	0.888490	0.588374	0.585697
	H62	H	0.118300	0.587862	0.410361
	H63	H	0.886314	0.402653	0.407488
	H64	H	0.408345	0.583470	0.114533
	H65	H	0.596744	0.590411	0.881037
	H66	H	0.586228	0.397278	0.114284
	H67	H	0.406726	0.409919	0.882392
	H68	H	0.593303	0.109936	0.408292
	H69	H	0.600228	0.879161	0.594382
	H70	H	0.408993	0.112738	0.595219
	H71	H	0.410774	0.881231	0.403954
	H72	H	0.901173	0.612010	0.084634
	H73	H	0.098956	0.378363	0.095915
	H74	H	0.089662	0.608261	0.909963
	H75	H	0.910411	0.382615	0.908949
	H76	H	0.089969	0.906122	0.612839
	H77	H	0.102052	0.085085	0.381845
	H78	H	0.913439	0.094643	0.616389
	H79	H	0.911031	0.908186	0.384006
	H80	H	0.620811	0.087507	0.901754
	H81	H	0.386341	0.081661	0.093984
	H82	H	0.618426	0.906855	0.091825
	H83	H	0.384921	0.909310	0.899811
	H84	H	0.621082	0.899692	0.095041
	H85	H	0.382204	0.094752	0.095061
	H86	H	0.620871	0.093970	0.908068
	H87	H	0.381879	0.893479	0.902941
	H88	H	0.904002	0.087389	0.616791
	H89	H	0.087907	0.086988	0.385597
	H90	H	0.094462	0.895868	0.616918
	H91	H	0.916515	0.899667	0.383251
	H92	H	0.105799	0.614068	0.907255
	H93	H	0.090672	0.381487	0.093188
	H94	H	0.907323	0.614565	0.102077
	H95	H	0.907369	0.380037	0.905209
	H96	H	0.412811	0.110665	0.590569
	H97	H	0.594171	0.880336	0.595895
	H98	H	0.601076	0.112212	0.406396
	H99	H	0.409205	0.881940	0.407906
	H100	H	0.602698	0.398504	0.119128
	H101	H	0.594563	0.589137	0.882186
	H102	H	0.415901	0.591412	0.114705
	H103	H	0.419058	0.402321	0.884336
	H104	H	0.120892	0.587159	0.401613
	H105	H	0.887419	0.584981	0.593958
	H106	H	0.118655	0.405354	0.588313
	H107	H	0.886020	0.403350	0.406682
	H108	H	0.918883	0.607204	0.089320
	H109	H	0.097575	0.382003	0.087333
	H110	H	0.094836	0.614191	0.894796
	H111	H	0.912857	0.381283	0.903438
	H112	H	0.101260	0.904999	0.616521
	H113	H	0.095882	0.097056	0.379796
	H114	H	0.914429	0.083276	0.613142
	H115	H	0.906259	0.899776	0.379749
	H116	H	0.617437	0.085803	0.909677
	H117	H	0.388306	0.090635	0.082878
	H118	H	0.618668	0.899367	0.086629
	H119	H	0.388684	0.903137	0.915028
	C120	C	0.380863	0.004531	0.620349
	C121	C	0.624984	0.987831	0.621246
	C122	C	0.624667	0.004365	0.376623
	C123	C	0.380468	0.988517	0.376745
	C124	C	0.624284	0.374543	0.006768
	C125	C	0.623901	0.618164	0.990400
	C126	C	0.381669	0.617380	0.007211
	C127	C	0.381888	0.374081	0.990111
	C128	C	0.012146	0.618273	0.377323
	C129	C	0.995387	0.617253	0.619730
	C130	C	0.011655	0.374075	0.620247
	C131	C	0.994579	0.374595	0.377795
	C132	C	0.880883	0.503762	0.120641
	C133	C	0.125070	0.487821	0.120458
	C134	C	0.125184	0.504458	0.876133
	C135	C	0.881500	0.488233	0.876344
	C136	C	0.124386	0.874305	0.507056
	C137	C	0.124093	0.117819	0.490817
	C138	C	0.881974	0.117172	0.506881
	C139	C	0.881928	0.873934	0.490788
	C140	C	0.511409	0.117715	0.877498
	C141	C	0.494190	0.116969	0.119932
	C142	C	0.510725	0.873983	0.119955
	C143	C	0.493790	0.874050	0.877304
	C144	C	0.383242	0.882203	0.675754
	C145	C	0.622397	0.110358	0.675569
	C146	C	0.621531	0.881628	0.322612
	C147	C	0.383614	0.110649	0.320727
	C148	C	0.679088	0.378058	0.883001
	C149	C	0.678280	0.613794	0.114274
	C150	C	0.328136	0.613540	0.883036
	C151	C	0.326577	0.376759	0.113921
	C152	C	0.888542	0.673179	0.379428
	C153	C	0.118611	0.672368	0.618464
	C154	C	0.888341	0.318713	0.618988
	C155	C	0.118018	0.319351	0.379436
	C156	C	0.887872	0.377389	0.675427
	C157	C	0.119176	0.613601	0.674038
	C158	C	0.888289	0.614821	0.322784
	C159	C	0.118548	0.378136	0.323145
	C160	C	0.383576	0.672781	0.883770
	C161	C	0.621567	0.672148	0.114111
	C162	C	0.623237	0.318910	0.883831
	C163	C	0.383412	0.318541	0.113469
	C164	C	0.679296	0.881619	0.380319
	C165	C	0.680246	0.110043	0.617452
	C166	C	0.325338	0.882184	0.618122
	C167	C	0.325927	0.110992	0.378993
	C168	C	0.883295	0.381657	0.176446
	C169	C	0.123157	0.610159	0.175688
	C170	C	0.122624	0.381987	0.821635
	C171	C	0.884267	0.610555	0.820590
	C172	C	0.179009	0.878222	0.383434
	C173	C	0.178453	0.113844	0.614743
	C174	C	0.827151	0.114197	0.383233
	C175	C	0.826983	0.876892	0.614056
	C176	C	0.388245	0.173274	0.878873
	C177	C	0.617383	0.173057	0.119020
	C178	C	0.387180	0.819804	0.117818
	C179	C	0.617422	0.819412	0.879420
	C180	C	0.387167	0.877441	0.174927
	C181	C	0.617983	0.113431	0.174028
	C182	C	0.387333	0.114220	0.823159
	C183	C	0.617969	0.878633	0.823395
	C184	C	0.883649	0.173072	0.383781
	C185	C	0.122717	0.172970	0.614055
	C186	C	0.123027	0.819158	0.383998
	C187	C	0.883724	0.818478	0.613705
	C188	C	0.180349	0.382305	0.879327
	C189	C	0.180063	0.610395	0.116746
	C190	C	0.825203	0.381751	0.118384
	C191	C	0.826002	0.610456	0.878207
	C192	C	0.402915	0.089912	0.598314
	C193	C	0.603043	0.902279	0.600035
	C194	C	0.602847	0.089540	0.398324
	C195	C	0.402486	0.903341	0.399092
	C196	C	0.601249	0.396318	0.092957
	C197	C	0.601823	0.596765	0.903905
	C198	C	0.403659	0.595678	0.093479
	C199	C	0.404293	0.396056	0.904129
	C200	C	0.098276	0.596468	0.399585
	C201	C	0.909280	0.595350	0.597070
	C202	C	0.097635	0.396117	0.597218
	C203	C	0.908541	0.396271	0.400152
	C204	C	0.902878	0.589093	0.098429
	C205	C	0.102317	0.402749	0.098561
	C206	C	0.103172	0.590040	0.897689
	C207	C	0.903632	0.403216	0.899147
	C208	C	0.101872	0.895998	0.593389
	C209	C	0.101744	0.096075	0.404629
	C210	C	0.904075	0.095158	0.593243
	C211	C	0.904617	0.896156	0.404488
	C212	C	0.597452	0.095714	0.899854
	C213	C	0.408011	0.095359	0.097226
	C214	C	0.597117	0.895825	0.097675
	C215	C	0.407403	0.895603	0.899336
	Zn216	Zn	0.502215	-0.003428	0.749560
	Zn217	Zn	0.502635	-0.004180	0.247726
	Zn218	Zn	0.751957	0.496393	-0.001542
	Zn219	Zn	0.253560	0.495874	-0.001769
	Zn220	Zn	0.003757	0.745708	0.499323
	Zn221	Zn	0.002970	0.245762	0.499080
	Zn222	Zn	0.003777	0.496109	0.747451
	Zn223	Zn	0.003504	0.496137	0.249575
	Zn224	Zn	0.502451	0.745686	-0.000918
	Zn225	Zn	0.503307	0.245598	-0.001011
	Zn226	Zn	0.753671	-0.004474	0.498662
	Zn227	Zn	0.251780	-0.003402	0.499045
	N228	N	0.417184	0.959054	0.677149
	N229	N	0.588774	0.033337	0.677918
	N230	N	0.588078	0.958661	0.320370
	N231	N	0.416701	0.033387	0.319019
	N232	N	0.679790	0.411877	0.960488
	N233	N	0.679887	0.581088	0.036225
	N234	N	0.327009	0.579621	0.960636
	N235	N	0.325508	0.410786	0.036313
	N236	N	0.966519	0.675523	0.412724
	N237	N	0.040585	0.674575	0.585438
	N238	N	0.966014	0.316674	0.585378
	N239	N	0.040082	0.317158	0.412896
	N240	N	0.965753	0.410991	0.676348
	N241	N	0.041581	0.579852	0.674927
	N242	N	0.966090	0.581469	0.321280
	N243	N	0.040839	0.411559	0.321911
	N244	N	0.416173	0.675312	0.961957
	N245	N	0.588651	0.674994	0.035975
	N246	N	0.589776	0.316724	0.961788
	N247	N	0.416952	0.316682	0.035638
	N248	N	0.681564	0.958859	0.413145
	N249	N	0.681879	0.032893	0.584345
	N250	N	0.323673	0.959352	0.584435
	N251	N	0.323948	0.034052	0.413098
	N252	N	0.917195	0.458671	0.177959
	N253	N	0.089737	0.532961	0.178145
	N254	N	0.089006	0.458982	0.819504
	N255	N	0.918270	0.533729	0.819478
	N256	N	0.180003	0.911708	0.461005
	N257	N	0.179309	0.080303	0.537218
	N258	N	0.826209	0.079925	0.460842
	N259	N	0.825938	0.910766	0.536342
	N260	N	0.466275	0.175605	0.911849
	N261	N	0.539475	0.175187	0.085740
	N262	N	0.465099	0.817308	0.084539
	N263	N	0.539208	0.816557	0.912257
	N264	N	0.465175	0.910506	0.176208
	N265	N	0.540440	0.079499	0.174876
	N266	N	0.464873	0.080369	0.822224
	N267	N	0.540161	0.911792	0.821815
	N268	N	0.916851	0.175146	0.461721
	N269	N	0.089756	0.175691	0.536024
	N270	N	0.089868	0.816733	0.462076
	N271	N	0.917011	0.816437	0.535852
	N272	N	0.181846	0.459459	0.912589
	N273	N	0.181416	0.533426	0.083322
	N274	N	0.823646	0.458566	0.084302
	N275	N	0.824287	0.533500	0.912294
	O276	O	0.901090	1.023194	-0.010282
	H277	H	0.908641	1.019772	-0.013875
	H278	H	0.905012	1.022027	-0.004644
	O279	O	0.028648	-0.011458	0.060762
	H280	H	0.028179	-0.012328	0.062979
	H281	H	0.032686	-0.006817	0.066845
	O282	O	-0.039254	0.014422	0.987156
	H283	H	-0.039884	0.013570	0.990934
	H284	H	-0.041470	0.025470	0.980692
	O285	O	0.488575	0.472321	0.532130
	H286	H	0.493095	0.467793	0.524998
	H287	H	0.487827	0.475811	0.535576
	O288	O	0.498288	0.541960	0.507638
	H289	H	0.498705	0.541129	0.508016
	H290	H	0.499617	0.549264	0.499564
	O291	O	0.498082	0.558780	0.476875
	H292	H	0.506066	0.564092	0.482924
	H293	H	0.498083	0.561514	0.473737
	O294	O	0.026773	0.034810	0.017369
	H295	H	0.024131	0.031235	0.012957
	H296	H	0.022604	0.042376	0.015674
	O297	O	0.467983	0.499631	0.467766
	H298	H	0.464808	0.502096	0.469899
	H299	H	0.460535	0.503383	0.471687
	O300	O	-0.016116	0.998593	1.025968
	H301	H	-0.017701	0.992392	1.026788
	H302	H	-0.017899	0.998405	1.024750
	O303	O	0.521256	0.492798	0.477823
	H304	H	0.514099	0.488946	0.487465
	H305	H	0.527410	0.489404	0.473832
	O306	O	-0.048221	0.042024	1.027612
	H307	H	-0.052974	0.038235	1.024619
	H308	H	-0.051692	0.042360	1.033650
	O309	O	1.014111	1.035637	1.032652
	H310	H	1.006626	1.047220	1.033967
	H311	H	1.017447	1.033278	1.033807
	O312	O	0.482079	0.500455	0.503504
	H313	H	0.480237	0.500116	0.499986
	H314	H	0.474837	0.495738	0.506571
	O315	O	0.491231	0.513234	0.488495
	H316	H	0.499598	0.514068	0.478758
	H317	H	0.487726	0.511136	0.494195
	O318	O	-0.025552	1.003145	0.029954
	H319	H	-0.020609	0.995676	0.034635
	H320	H	-0.018524	1.009622	0.027289
	O321	O	0.922131	1.031691	0.018614
	H322	H	0.915822	1.026062	0.024796
	H323	H	0.919713	1.035317	0.016693
