data_Molecule from HDF5

_cell_length_a		16.170639
_cell_length_b		16.198283
_cell_length_c		16.376144
_cell_angle_alpha	90.001241
_cell_angle_beta	90.044023
_cell_angle_gamma	89.770073
_symmetry_space_group_name_H-M	'P 1'
_symmetry_Int_Tables_number		1

loop_
	_symmetry_equiv_pos_as_xyz
	x,y,z

loop_
	_atom_site_label
	_atom_site_type_symbol
	_atom_site_fract_x
	_atom_site_fract_y
	_atom_site_fract_z
	H0	H	0.406667	0.842492	0.713123
	H1	H	0.606039	0.170513	0.713852
	H2	H	0.607662	0.843609	0.281051
	H3	H	0.403809	0.171316	0.282261
	H4	H	0.720712	0.407473	0.834858
	H5	H	0.720585	0.606090	0.160667
	H6	H	0.289510	0.606052	0.833822
	H7	H	0.290932	0.409718	0.160496
	H8	H	0.840780	0.721357	0.400269
	H9	H	0.170557	0.718864	0.594867
	H10	H	0.840050	0.294348	0.595248
	H11	H	0.170218	0.292344	0.399670
	H12	H	0.840784	0.407662	0.712851
	H13	H	0.169287	0.605680	0.712168
	H14	H	0.842454	0.611917	0.279989
	H15	H	0.169568	0.405031	0.281199
	H16	H	0.405757	0.721966	0.834035
	H17	H	0.604025	0.722329	0.159976
	H18	H	0.604440	0.291108	0.834475
	H19	H	0.404025	0.291109	0.159543
	H20	H	0.719628	0.842285	0.400135
	H21	H	0.717203	0.171912	0.594435
	H22	H	0.294330	0.840876	0.593726
	H23	H	0.290880	0.171332	0.400266
	H24	H	0.904195	0.343571	0.214889
	H25	H	0.107154	0.670417	0.213997
	H26	H	0.106697	0.343559	0.781135
	H27	H	0.902877	0.670808	0.781345
	H28	H	0.221063	0.907265	0.334817
	H29	H	0.219473	0.103784	0.661033
	H30	H	0.788558	0.108600	0.334666
	H31	H	0.791997	0.909656	0.660741
	H32	H	0.339649	0.219149	0.901070
	H33	H	0.669992	0.219409	0.094899
	H34	H	0.339444	0.794908	0.095706
	H35	H	0.669739	0.791374	0.899235
	H36	H	0.340900	0.907940	0.213400
	H37	H	0.668759	0.107715	0.213489
	H38	H	0.341315	0.106616	0.782523
	H39	H	0.670016	0.906262	0.783664
	H40	H	0.905826	0.223791	0.334612
	H41	H	0.103303	0.221710	0.660890
	H42	H	0.105485	0.790998	0.334427
	H43	H	0.907408	0.792722	0.660327
	H44	H	0.218015	0.341669	0.899973
	H45	H	0.217603	0.671837	0.094030
	H46	H	0.792924	0.342280	0.095841
	H47	H	0.790092	0.670627	0.899388
	H48	H	0.418467	0.123618	0.598490
	H49	H	0.596951	0.888657	0.597178
	H50	H	0.595056	0.123097	0.406815
	H51	H	0.418028	0.891841	0.404166
	H52	H	0.592944	0.413996	0.112184
	H53	H	0.596016	0.607171	0.879780
	H54	H	0.421067	0.602572	0.110385
	H55	H	0.416158	0.411746	0.882545
	H56	H	0.117911	0.592151	0.412493
	H57	H	0.887948	0.603679	0.583743
	H58	H	0.124617	0.415392	0.596983
	H59	H	0.891126	0.419800	0.409740
	H60	H	0.122468	0.408298	0.588659
	H61	H	0.888881	0.592505	0.592043
	H62	H	0.124670	0.594054	0.394722
	H63	H	0.888595	0.419741	0.400677
	H64	H	0.405065	0.608507	0.117307
	H65	H	0.604708	0.596646	0.880985
	H66	H	0.600536	0.408406	0.115060
	H67	H	0.408006	0.410773	0.879120
	H68	H	0.599570	0.124856	0.404546
	H69	H	0.596211	0.891175	0.587860
	H70	H	0.415942	0.121117	0.584013
	H71	H	0.412485	0.889838	0.407048
	H72	H	0.912739	0.622142	0.083606
	H73	H	0.095866	0.389515	0.094121
	H74	H	0.098209	0.625452	0.902296
	H75	H	0.924312	0.395376	0.912910
	H76	H	0.102227	0.912956	0.613348
	H77	H	0.100942	0.088229	0.385114
	H78	H	0.910642	0.100874	0.612789
	H79	H	0.920518	0.918069	0.384960
	H80	H	0.621187	0.093099	0.904011
	H81	H	0.388971	0.096954	0.087703
	H82	H	0.618895	0.920680	0.086856
	H83	H	0.386480	0.917734	0.899263
	H84	H	0.624325	0.914903	0.097829
	H85	H	0.387020	0.098298	0.095266
	H86	H	0.625478	0.102792	0.900274
	H87	H	0.386464	0.910298	0.904394
	H88	H	0.912071	0.100222	0.612082
	H89	H	0.086204	0.105119	0.383915
	H90	H	0.098258	0.914672	0.613179
	H91	H	0.912144	0.906498	0.379909
	H92	H	0.094087	0.623566	0.902894
	H93	H	0.095171	0.391683	0.088276
	H94	H	0.909334	0.625683	0.093439
	H95	H	0.899846	0.386412	0.908651
	H96	H	0.404251	0.126678	0.592384
	H97	H	0.604472	0.887123	0.591776
	H98	H	0.594711	0.124407	0.401328
	H99	H	0.413265	0.888858	0.400552
	H100	H	0.602192	0.418594	0.112525
	H101	H	0.591800	0.594784	0.885210
	H102	H	0.406225	0.591503	0.111272
	H103	H	0.410484	0.418765	0.882376
	H104	H	0.126045	0.608553	0.406412
	H105	H	0.884371	0.605181	0.596743
	H106	H	0.119915	0.419167	0.587297
	H107	H	0.887391	0.411611	0.405292
	H108	H	0.919483	0.622772	0.092267
	H109	H	0.100991	0.388526	0.090480
	H110	H	0.096508	0.622873	0.905975
	H111	H	0.917268	0.386122	0.889577
	H112	H	0.099143	0.910765	0.613384
	H113	H	0.107249	0.107572	0.376514
	H114	H	0.912074	0.101582	0.613439
	H115	H	0.905514	0.920068	0.381214
	H116	H	0.622107	0.101364	0.910555
	H117	H	0.386196	0.103801	0.089695
	H118	H	0.622865	0.907910	0.085857
	H119	H	0.389613	0.917945	0.907928
	C120	C	0.384584	0.014804	0.619431
	C121	C	0.627072	0.997870	0.619817
	C122	C	0.626557	0.015900	0.375743
	C123	C	0.384518	0.998747	0.375924
	C124	C	0.627201	0.384644	0.005765
	C125	C	0.626741	0.628497	0.989350
	C126	C	0.381633	0.629764	0.005425
	C127	C	0.382897	0.385224	0.988916
	C128	C	0.014448	0.628957	0.375575
	C129	C	0.996239	0.628303	0.619218
	C130	C	0.013604	0.385888	0.619548
	C131	C	0.997305	0.386733	0.376344
	C132	C	0.884470	0.515171	0.119085
	C133	C	0.126346	0.498526	0.119102
	C134	C	0.126135	0.515283	0.875101
	C135	C	0.883929	0.498041	0.875797
	C136	C	0.128409	0.883814	0.505777
	C137	C	0.127133	0.128802	0.489636
	C138	C	0.882282	0.130495	0.505536
	C139	C	0.884218	0.886092	0.489386
	C140	C	0.513784	0.127953	0.876369
	C141	C	0.496252	0.128819	0.119434
	C142	C	0.513214	0.885757	0.119083
	C143	C	0.496512	0.885724	0.875767
	C144	C	0.386730	0.891361	0.674750
	C145	C	0.625690	0.121619	0.675630
	C146	C	0.626885	0.892568	0.319331
	C147	C	0.384688	0.122225	0.320580
	C148	C	0.682634	0.386778	0.883349
	C149	C	0.682652	0.626515	0.111727
	C150	C	0.326744	0.627003	0.882962
	C151	C	0.328309	0.388633	0.111599
	C152	C	0.890422	0.684584	0.378682
	C153	C	0.120788	0.682434	0.616387
	C154	C	0.889306	0.331520	0.616502
	C155	C	0.121213	0.330595	0.379071
	C156	C	0.889891	0.387421	0.675115
	C157	C	0.120078	0.626272	0.674801
	C158	C	0.891305	0.629866	0.318963
	C159	C	0.120635	0.386431	0.320124
	C160	C	0.384592	0.684703	0.883027
	C161	C	0.624546	0.684148	0.111602
	C162	C	0.624768	0.328951	0.883331
	C163	C	0.384805	0.329738	0.111270
	C164	C	0.682216	0.891875	0.378893
	C165	C	0.680944	0.122448	0.616295
	C166	C	0.330738	0.890486	0.615608
	C167	C	0.328652	0.122371	0.379344
	C168	C	0.885285	0.392271	0.175970
	C169	C	0.125954	0.621616	0.175152
	C170	C	0.125892	0.392251	0.819554
	C171	C	0.884387	0.621733	0.820135
	C172	C	0.182918	0.886664	0.383199
	C173	C	0.181786	0.125070	0.612204
	C174	C	0.826693	0.128500	0.383346
	C175	C	0.829616	0.888906	0.611988
	C176	C	0.389372	0.182429	0.879316
	C177	C	0.620219	0.183233	0.116280
	C178	C	0.388985	0.831647	0.116205
	C179	C	0.620676	0.829401	0.878734
	C180	C	0.389825	0.887938	0.174885
	C181	C	0.619898	0.127235	0.174801
	C182	C	0.390275	0.126380	0.820510
	C183	C	0.620714	0.886344	0.821056
	C184	C	0.885085	0.185760	0.383231
	C185	C	0.124340	0.183797	0.612084
	C186	C	0.125865	0.828647	0.383293
	C187	C	0.886960	0.830754	0.611664
	C188	C	0.181464	0.391401	0.878697
	C189	C	0.180933	0.622394	0.115545
	C190	C	0.829860	0.391389	0.116787
	C191	C	0.827979	0.621778	0.878645
	C192	C	0.406214	0.101334	0.597677
	C193	C	0.605502	0.911494	0.598492
	C194	C	0.603359	0.101824	0.397741
	C195	C	0.407767	0.912606	0.397550
	C196	C	0.605086	0.407072	0.090893
	C197	C	0.604225	0.606080	0.904096
	C198	C	0.404212	0.607598	0.090923
	C199	C	0.405141	0.407274	0.903582
	C200	C	0.100538	0.605146	0.398052
	C201	C	0.909537	0.606786	0.597464
	C202	C	0.099867	0.407784	0.597626
	C203	C	0.911424	0.410027	0.398731
	C204	C	0.907204	0.601257	0.096480
	C205	C	0.103908	0.412232	0.097305
	C206	C	0.103011	0.601647	0.897216
	C207	C	0.906898	0.411556	0.897598
	C208	C	0.106375	0.906209	0.591277
	C209	C	0.104540	0.106789	0.404049
	C210	C	0.904986	0.107738	0.590942
	C211	C	0.906368	0.908333	0.404058
	C212	C	0.600476	0.105636	0.898463
	C213	C	0.409781	0.106161	0.097428
	C214	C	0.599708	0.907918	0.096590
	C215	C	0.410080	0.908585	0.897461
	Zn216	Zn	0.506208	0.006568	0.747986
	Zn217	Zn	0.505375	0.007286	0.247281
	Zn218	Zn	0.756455	0.506653	-0.002045
	Zn219	Zn	0.253503	0.506961	-0.003154
	Zn220	Zn	0.005831	0.756037	0.497510
	Zn221	Zn	0.004836	0.258619	0.497766
	Zn222	Zn	0.004853	0.507248	0.747326
	Zn223	Zn	0.005788	0.507583	0.247730
	Zn224	Zn	0.504421	0.757901	-0.002661
	Zn225	Zn	0.504614	0.256139	-0.002481
	Zn226	Zn	0.754466	0.007550	0.497675
	Zn227	Zn	0.256146	0.006314	0.497478
	N228	N	0.419480	0.969517	0.677125
	N229	N	0.592884	0.043333	0.677860
	N230	N	0.593079	0.970674	0.317133
	N231	N	0.418937	0.044383	0.318498
	N232	N	0.684412	0.420616	0.960367
	N233	N	0.684090	0.592563	0.034687
	N234	N	0.324858	0.593591	0.960137
	N235	N	0.326915	0.422432	0.034544
	N236	N	0.967969	0.684004	0.413361
	N237	N	0.042806	0.684249	0.582869
	N238	N	0.967108	0.330217	0.582723
	N239	N	0.043471	0.330617	0.413325
	N240	N	0.967999	0.420836	0.676793
	N241	N	0.041649	0.593496	0.676646
	N242	N	0.969538	0.596161	0.316852
	N243	N	0.042792	0.420928	0.318474
	N244	N	0.417950	0.686724	0.960330
	N245	N	0.590327	0.685539	0.034637
	N246	N	0.590825	0.327583	0.960374
	N247	N	0.418132	0.327585	0.034080
	N248	N	0.682450	0.969432	0.413101
	N249	N	0.682019	0.044737	0.582306
	N250	N	0.329278	0.968375	0.581764
	N251	N	0.328345	0.044568	0.413021
	N252	N	0.918422	0.470415	0.177567
	N253	N	0.092820	0.543647	0.177452
	N254	N	0.092352	0.470265	0.817214
	N255	N	0.918629	0.543683	0.818365
	N256	N	0.184731	0.920196	0.460331
	N257	N	0.183490	0.091819	0.535008
	N258	N	0.824890	0.094879	0.460543
	N259	N	0.827642	0.922620	0.534807
	N260	N	0.467090	0.183402	0.913308
	N261	N	0.542162	0.184424	0.082750
	N262	N	0.466870	0.830256	0.082223
	N263	N	0.542403	0.828871	0.912166
	N264	N	0.468168	0.920720	0.176887
	N265	N	0.541556	0.094356	0.177062
	N266	N	0.468867	0.093224	0.818671
	N267	N	0.542813	0.920372	0.819078
	N268	N	0.918947	0.187016	0.460262
	N269	N	0.090973	0.186267	0.534778
	N270	N	0.092668	0.826669	0.460643
	N271	N	0.920102	0.828805	0.534449
	N272	N	0.181528	0.469106	0.912778
	N273	N	0.181394	0.544657	0.081434
	N274	N	0.829289	0.468705	0.082076
	N275	N	0.827622	0.544111	0.912552
	O276	O	-0.038088	0.025807	-0.020596
	H277	H	-0.040956	0.033341	-0.017036
	H278	H	-0.036333	0.018414	-0.020895
	O279	O	0.486776	0.545050	0.486905
	H280	H	0.477537	0.543451	0.488409
	H281	H	0.491134	0.543358	0.489938
	O282	O	0.490531	0.459572	0.441865
	H283	H	0.487633	0.451674	0.449097
	H284	H	0.488610	0.456305	0.449335
	O285	O	1.006396	-0.033092	0.986324
	H286	H	1.003689	-0.034384	0.998819
	H287	H	1.014223	-0.029059	0.991332
	O288	O	0.987315	-0.042201	-0.005864
	H289	H	0.977355	-0.046445	-0.012034
	H290	H	0.984645	-0.038043	-0.003469
	O291	O	0.521745	0.546743	0.456317
	H292	H	0.524179	0.550017	0.449668
	H293	H	0.528678	0.541246	0.451790
	O294	O	0.998235	0.034624	1.001346
	H295	H	1.001665	0.023797	0.997619
	H296	H	0.985420	0.042402	0.999076
	O297	O	0.040524	-0.081024	-0.006392
	H298	H	0.036671	-0.075815	-0.005368
	H299	H	0.040379	-0.089606	-0.010069
	O300	O	0.486206	0.559807	0.497456
	H301	H	0.488934	0.563677	0.494819
	H302	H	0.486353	0.550912	0.499370
	O303	O	0.450772	0.448680	0.474694
	H304	H	0.456789	0.440377	0.474218
	H305	H	0.454998	0.462696	0.469746
	O306	O	0.962958	0.019779	0.042560
	H307	H	0.966721	0.022330	0.042562
	H308	H	0.962578	0.018926	0.035311
	O309	O	-0.069574	0.012555	1.030846
	H310	H	-0.064766	0.002318	1.024678
	H311	H	-0.080048	0.022112	1.023317
	O312	O	1.024703	1.039959	0.966417
	H313	H	1.023887	1.040699	0.965736
	H314	H	1.026178	1.048199	0.964447
	O315	O	0.488331	0.518619	0.572851
	H316	H	0.478858	0.508470	0.565349
	H317	H	0.486867	0.519107	0.576573
	O318	O	0.490604	0.469344	0.419085
	H319	H	0.487936	0.475044	0.405594
	H320	H	0.479883	0.469107	0.418392
	O321	O	0.084679	0.935426	0.917362
	H322	H	0.100189	0.935032	0.914985
	H323	H	0.085975	0.937345	0.919728
	O324	O	0.586325	0.508024	0.555779
	H325	H	0.579187	0.496900	0.562115
	H326	H	0.588051	0.509658	0.561513
	O327	O	0.551069	0.452791	0.462747
	H328	H	0.554306	0.448579	0.458706
	H329	H	0.553042	0.448211	0.457785
	O330	O	0.537563	0.475395	0.525705
	H331	H	0.535478	0.485975	0.521471
	H332	H	0.545105	0.479999	0.527905
	O333	O	0.543004	0.525410	0.490583
	H334	H	0.545709	0.528370	0.494693
	H335	H	0.547909	0.516251	0.486064
	O336	O	0.486557	0.443298	0.450378
	H337	H	0.483557	0.433713	0.456746
	H338	H	0.480090	0.456744	0.452331
	O339	O	1.003277	0.964858	0.021992
	H340	H	1.004809	0.952758	0.028562
	H341	H	1.006037	0.971161	0.017883
	O342	O	0.504159	0.460316	0.508240
	H343	H	0.506751	0.457939	0.515801
	H344	H	0.500203	0.467994	0.511629
	O345	O	0.534543	0.550276	0.494820
	H346	H	0.541212	0.550971	0.490354
	H347	H	0.527129	0.554414	0.491594
	O348	O	-0.064840	-0.024996	-0.001512
	H349	H	-0.062640	-0.024957	0.010316
	H350	H	-0.072333	-0.034082	-0.014584
	O351	O	-0.006451	1.003984	1.043754
	H352	H	-0.006704	1.010908	1.034193
	H353	H	-0.011012	0.998493	1.037925
	O354	O	0.483314	0.444271	0.511202
	H355	H	0.483890	0.446735	0.505541
	H356	H	0.485970	0.445621	0.502082
	O357	O	-0.009181	0.987017	1.002345
	H358	H	-0.013011	0.975922	1.007323
	H359	H	-0.003508	0.993620	1.008623
