data_Molecule from HDF5

_cell_length_a		16.175285
_cell_length_b		16.303903
_cell_length_c		16.310234
_cell_angle_alpha	89.612093
_cell_angle_beta	89.955967
_cell_angle_gamma	89.796675
_symmetry_space_group_name_H-M	'P 1'
_symmetry_Int_Tables_number		1

loop_
	_symmetry_equiv_pos_as_xyz
	x,y,z

loop_
	_atom_site_label
	_atom_site_type_symbol
	_atom_site_fract_x
	_atom_site_fract_y
	_atom_site_fract_z
	H0	H	0.402472	0.844692	0.721249
	H1	H	0.601964	0.170583	0.716465
	H2	H	0.602886	0.844208	0.287262
	H3	H	0.401138	0.169899	0.286171
	H4	H	0.716430	0.410319	0.838793
	H5	H	0.715367	0.603800	0.167177
	H6	H	0.287044	0.606569	0.838252
	H7	H	0.287899	0.409959	0.166169
	H8	H	0.837813	0.722791	0.403297
	H9	H	0.167799	0.718193	0.599827
	H10	H	0.837476	0.291615	0.603091
	H11	H	0.166737	0.293439	0.404680
	H12	H	0.836734	0.408291	0.716821
	H13	H	0.166957	0.603428	0.715596
	H14	H	0.837233	0.606979	0.288374
	H15	H	0.166375	0.408063	0.288970
	H16	H	0.401724	0.725059	0.838998
	H17	H	0.600609	0.722599	0.166448
	H18	H	0.601106	0.293543	0.838440
	H19	H	0.399713	0.289795	0.164726
	H20	H	0.716605	0.842870	0.406546
	H21	H	0.714556	0.171026	0.598372
	H22	H	0.289815	0.842314	0.601322
	H23	H	0.287670	0.170251	0.403716
	H24	H	0.902602	0.343858	0.220055
	H25	H	0.100791	0.670175	0.217075
	H26	H	0.102471	0.343626	0.788423
	H27	H	0.901223	0.670299	0.785444
	H28	H	0.217002	0.910144	0.338905
	H29	H	0.215622	0.101922	0.666135
	H30	H	0.788117	0.106663	0.338749
	H31	H	0.789909	0.908864	0.667498
	H32	H	0.336590	0.221583	0.904462
	H33	H	0.666012	0.221266	0.099532
	H34	H	0.336787	0.794245	0.102142
	H35	H	0.665787	0.792986	0.903873
	H36	H	0.337835	0.907961	0.218738
	H37	H	0.666118	0.105595	0.215659
	H38	H	0.337841	0.108550	0.787016
	H39	H	0.666547	0.909620	0.789631
	H40	H	0.901667	0.225232	0.339882
	H41	H	0.101300	0.219983	0.666312
	H42	H	0.102783	0.792118	0.338854
	H43	H	0.904627	0.790167	0.665652
	H44	H	0.215923	0.343093	0.907102
	H45	H	0.213587	0.672001	0.098293
	H46	H	0.788495	0.342263	0.101608
	H47	H	0.787130	0.670969	0.904070
	H48	H	0.409333	0.123979	0.599652
	H49	H	0.606552	0.887450	0.598344
	H50	H	0.593221	0.121480	0.414175
	H51	H	0.408266	0.889097	0.406879
	H52	H	0.594636	0.410083	0.119436
	H53	H	0.588855	0.609505	0.886157
	H54	H	0.415014	0.591065	0.113137
	H55	H	0.412598	0.417393	0.887634
	H56	H	0.111185	0.583694	0.419634
	H57	H	0.883272	0.603412	0.594993
	H58	H	0.120997	0.411164	0.602407
	H59	H	0.883013	0.415339	0.405749
	H60	H	0.119376	0.408057	0.591277
	H61	H	0.886983	0.598917	0.590069
	H62	H	0.123746	0.597144	0.390379
	H63	H	0.884719	0.410882	0.414843
	H64	H	0.413386	0.611351	0.119793
	H65	H	0.602866	0.602490	0.884407
	H66	H	0.595811	0.417206	0.118173
	H67	H	0.409389	0.411265	0.884959
	H68	H	0.601210	0.125118	0.406578
	H69	H	0.588907	0.889332	0.607430
	H70	H	0.413588	0.121207	0.592508
	H71	H	0.415696	0.891054	0.408656
	H72	H	0.899726	0.626199	0.098222
	H73	H	0.099934	0.389850	0.096570
	H74	H	0.099035	0.625105	0.906134
	H75	H	0.906346	0.387424	0.902395
	H76	H	0.101521	0.915453	0.619309
	H77	H	0.080902	0.098783	0.391233
	H78	H	0.916675	0.101394	0.617168
	H79	H	0.903975	0.918889	0.385644
	H80	H	0.620180	0.107431	0.912937
	H81	H	0.384262	0.095251	0.102129
	H82	H	0.621848	0.905476	0.096961
	H83	H	0.385878	0.923958	0.908980
	H84	H	0.615894	0.916731	0.086887
	H85	H	0.381237	0.108384	0.094667
	H86	H	0.616889	0.095061	0.912634
	H87	H	0.381817	0.913039	0.905380
	H88	H	0.904772	0.104868	0.621318
	H89	H	0.098189	0.113946	0.381538
	H90	H	0.090289	0.912925	0.617189
	H91	H	0.916731	0.916631	0.389357
	H92	H	0.091022	0.624177	0.903063
	H93	H	0.092681	0.390622	0.101477
	H94	H	0.915876	0.622465	0.101359
	H95	H	0.918193	0.394147	0.910674
	H96	H	0.405251	0.123268	0.592188
	H97	H	0.591553	0.894913	0.588390
	H98	H	0.590693	0.123915	0.403036
	H99	H	0.410472	0.891468	0.413968
	H100	H	0.589099	0.413845	0.116921
	H101	H	0.590191	0.594052	0.890404
	H102	H	0.395954	0.598258	0.121789
	H103	H	0.404910	0.417217	0.884910
	H104	H	0.122238	0.615435	0.418128
	H105	H	0.885979	0.596782	0.596307
	H106	H	0.117027	0.418912	0.594641
	H107	H	0.887047	0.421268	0.413623
	H108	H	0.908779	0.619459	0.085947
	H109	H	0.092452	0.392612	0.093139
	H110	H	0.092370	0.621703	0.911570
	H111	H	0.904495	0.391634	0.917924
	H112	H	0.097355	0.904766	0.621150
	H113	H	0.103638	0.090044	0.386137
	H114	H	0.907181	0.092896	0.617389
	H115	H	0.909379	0.907349	0.384410
	H116	H	0.621370	0.100950	0.902024
	H117	H	0.387594	0.096208	0.088036
	H118	H	0.619034	0.920214	0.101981
	H119	H	0.385824	0.914451	0.917160
	C120	C	0.380785	0.015180	0.624590
	C121	C	0.623996	0.998429	0.625219
	C122	C	0.624479	0.015405	0.380204
	C123	C	0.381450	0.998584	0.380848
	C124	C	0.622703	0.385850	0.010153
	C125	C	0.622907	0.629757	0.994878
	C126	C	0.379292	0.629985	0.010501
	C127	C	0.379678	0.386472	0.994047
	C128	C	0.010501	0.628584	0.380721
	C129	C	0.994076	0.627633	0.622916
	C130	C	0.010240	0.384624	0.624758
	C131	C	0.993564	0.386790	0.382304
	C132	C	0.879624	0.514620	0.124580
	C133	C	0.123108	0.499459	0.124516
	C134	C	0.123429	0.515666	0.880170
	C135	C	0.880092	0.498692	0.880776
	C136	C	0.124621	0.883974	0.510873
	C137	C	0.123369	0.128003	0.494333
	C138	C	0.880360	0.129400	0.510936
	C139	C	0.881442	0.885388	0.494711
	C140	C	0.510739	0.129845	0.880337
	C141	C	0.493159	0.128414	0.123134
	C142	C	0.510065	0.885633	0.124583
	C143	C	0.493044	0.887506	0.882289
	C144	C	0.382787	0.892787	0.681815
	C145	C	0.621634	0.121705	0.678825
	C146	C	0.622865	0.892794	0.325438
	C147	C	0.381649	0.121046	0.324487
	C148	C	0.678981	0.388937	0.887617
	C149	C	0.677892	0.625658	0.118295
	C150	C	0.324453	0.627671	0.887148
	C151	C	0.325264	0.389255	0.117203
	C152	C	0.886922	0.684716	0.383161
	C153	C	0.118364	0.681277	0.620497
	C154	C	0.886415	0.329767	0.622733
	C155	C	0.117548	0.331225	0.384409
	C156	C	0.886228	0.387554	0.679617
	C157	C	0.117828	0.624185	0.678033
	C158	C	0.886499	0.626929	0.326221
	C159	C	0.117209	0.388368	0.326877
	C160	C	0.381197	0.686735	0.887808
	C161	C	0.620881	0.684597	0.117727
	C162	C	0.621352	0.331263	0.887251
	C163	C	0.380999	0.329489	0.116375
	C164	C	0.679400	0.892099	0.384554
	C165	C	0.677770	0.121985	0.620163
	C166	C	0.326952	0.891729	0.622128
	C167	C	0.325143	0.121242	0.383032
	C168	C	0.882436	0.392173	0.181038
	C169	C	0.120571	0.621842	0.178909
	C170	C	0.122182	0.392115	0.826592
	C171	C	0.881722	0.621629	0.824317
	C172	C	0.179521	0.888450	0.387649
	C173	C	0.178055	0.123398	0.617450
	C174	C	0.825423	0.127340	0.387783
	C175	C	0.826636	0.887606	0.618035
	C176	C	0.386239	0.184687	0.883040
	C177	C	0.616987	0.183361	0.120146
	C178	C	0.386278	0.830962	0.122937
	C179	C	0.616887	0.831480	0.884238
	C180	C	0.386691	0.888031	0.180487
	C181	C	0.617036	0.125967	0.177774
	C182	C	0.387067	0.128734	0.824454
	C183	C	0.617429	0.889492	0.827770
	C184	C	0.882273	0.185915	0.388236
	C185	C	0.121285	0.182267	0.617408
	C186	C	0.122844	0.829775	0.387790
	C187	C	0.883956	0.829102	0.617345
	C188	C	0.178516	0.392021	0.885381
	C189	C	0.177023	0.622646	0.120089
	C190	C	0.825525	0.391483	0.122521
	C191	C	0.824870	0.622073	0.882998
	C192	C	0.402971	0.100812	0.601535
	C193	C	0.602289	0.912797	0.604330
	C194	C	0.601724	0.101354	0.401608
	C195	C	0.404529	0.912652	0.403374
	C196	C	0.599819	0.407489	0.095938
	C197	C	0.600793	0.608310	0.909214
	C198	C	0.401583	0.606885	0.096046
	C199	C	0.402336	0.408887	0.908114
	C200	C	0.096924	0.605578	0.402891
	C201	C	0.907789	0.606021	0.600535
	C202	C	0.096728	0.406200	0.602602
	C203	C	0.907184	0.409012	0.404935
	C204	C	0.901556	0.600715	0.101801
	C205	C	0.101423	0.413198	0.103410
	C206	C	0.100779	0.601480	0.900702
	C207	C	0.902844	0.413260	0.903625
	C208	C	0.102842	0.904854	0.596973
	C209	C	0.100913	0.107003	0.408463
	C210	C	0.902902	0.106458	0.596667
	C211	C	0.903543	0.907752	0.408948
	C212	C	0.597120	0.107687	0.902438
	C213	C	0.406658	0.106326	0.101377
	C214	C	0.596654	0.907677	0.101901
	C215	C	0.406860	0.910298	0.904100
	Zn216	Zn	0.502215	0.007579	0.753501
	Zn217	Zn	0.501994	0.007326	0.251588
	Zn218	Zn	0.751324	0.507023	0.003076
	Zn219	Zn	0.251179	0.508077	0.002202
	Zn220	Zn	0.003036	0.756004	0.502264
	Zn221	Zn	0.002320	0.257560	0.502838
	Zn222	Zn	0.001691	0.506385	0.751981
	Zn223	Zn	0.001902	0.507204	0.253284
	Zn224	Zn	0.500924	0.758927	0.002624
	Zn225	Zn	0.501406	0.257501	0.001604
	Zn226	Zn	0.752521	0.007045	0.502793
	Zn227	Zn	0.252664	0.006419	0.502419
	N228	N	0.415637	0.970538	0.683376
	N229	N	0.588742	0.043985	0.682290
	N230	N	0.589606	0.970540	0.322451
	N231	N	0.415958	0.043731	0.323088
	N232	N	0.679699	0.422248	0.964987
	N233	N	0.679330	0.592329	0.040897
	N234	N	0.323128	0.593036	0.964306
	N235	N	0.324283	0.423904	0.039994
	N236	N	0.965292	0.685881	0.416316
	N237	N	0.040474	0.683466	0.586893
	N238	N	0.964541	0.327824	0.589305
	N239	N	0.039624	0.330072	0.418316
	N240	N	0.964229	0.420890	0.681059
	N241	N	0.039520	0.591276	0.679561
	N242	N	0.964284	0.592807	0.324559
	N243	N	0.039074	0.422111	0.325535
	N244	N	0.414767	0.687988	0.965326
	N245	N	0.587167	0.687038	0.040184
	N246	N	0.587156	0.329134	0.964478
	N247	N	0.414114	0.327756	0.038630
	N248	N	0.680342	0.969375	0.418104
	N249	N	0.679446	0.044454	0.587464
	N250	N	0.325521	0.968873	0.587384
	N251	N	0.324833	0.043927	0.417295
	N252	N	0.915213	0.469993	0.182449
	N253	N	0.088073	0.543911	0.181868
	N254	N	0.088635	0.469718	0.823192
	N255	N	0.915149	0.543940	0.822713
	N256	N	0.180712	0.921314	0.465012
	N257	N	0.179313	0.090450	0.539946
	N258	N	0.824118	0.092956	0.465114
	N259	N	0.825067	0.922000	0.540680
	N260	N	0.463909	0.185651	0.916905
	N261	N	0.538803	0.185204	0.087042
	N262	N	0.464052	0.829618	0.088867
	N263	N	0.538587	0.830240	0.917463
	N264	N	0.464951	0.921045	0.181787
	N265	N	0.539019	0.092636	0.179565
	N266	N	0.465368	0.095181	0.822532
	N267	N	0.539574	0.923695	0.826319
	N268	N	0.915823	0.187132	0.465847
	N269	N	0.088058	0.185287	0.539917
	N270	N	0.089555	0.826851	0.465459
	N271	N	0.916861	0.827259	0.539632
	N272	N	0.179546	0.469682	0.917938
	N273	N	0.178570	0.545413	0.086915
	N274	N	0.823831	0.468729	0.088027
	N275	N	0.823843	0.544843	0.917651
	O276	O	0.512791	0.513006	0.494108
	H277	H	0.501388	0.521962	0.490465
	H278	H	0.522829	0.514112	0.494163
	O279	O	0.491624	0.548143	0.515806
	H280	H	0.478097	0.554932	0.521351
	H281	H	0.480470	0.551701	0.514123
	O282	O	0.471176	0.422583	0.464423
	H283	H	0.478807	0.422605	0.456541
	H284	H	0.468354	0.420890	0.475123
	O285	O	0.010490	0.946111	1.014857
	H286	H	-0.001934	0.937505	1.015894
	H287	H	0.005874	0.945821	1.014814
	O288	O	-0.054367	-0.059798	0.991430
	H289	H	-0.044950	-0.062865	0.989431
	H290	H	-0.051570	-0.059028	0.984203
	O291	O	-0.495569	0.514988	0.510138
	H292	H	-0.502483	0.520937	0.509359
	H293	H	-0.496347	0.521004	0.504054
	O294	O	0.541231	0.395803	0.505890
	H295	H	0.551522	0.399980	0.503099
	H296	H	0.543315	0.398864	0.505634
	O297	O	0.524703	0.548789	0.450645
	H298	H	0.538303	0.546633	0.449905
	H299	H	0.513120	0.549055	0.446393
	O300	O	0.537851	0.442676	0.474644
	H301	H	0.535547	0.439749	0.475515
	H302	H	0.538920	0.431671	0.480537
	O303	O	0.444449	0.496166	0.457311
	H304	H	0.445412	0.497531	0.461464
	H305	H	0.443417	0.500423	0.448658
	O306	O	0.995877	0.012947	1.002865
	H307	H	0.996465	0.011719	1.005436
	H308	H	0.997307	0.019196	1.007244
	O309	O	0.506861	0.542325	0.418858
	H310	H	0.512091	0.533739	0.415629
	H311	H	0.502896	0.535896	0.415272
	O312	O	0.540443	0.457458	0.497710
	H313	H	0.544247	0.462568	0.497335
	H314	H	0.539716	0.455517	0.496637
	O315	O	0.966904	-0.048456	0.970436
	H316	H	0.968301	-0.041988	0.964855
	H317	H	0.965419	-0.044510	0.979976
	O318	O	0.490975	-0.569738	-0.465519
	H319	H	0.496236	-0.569273	-0.462084
	H320	H	0.497060	-0.578986	-0.456570
	O321	O	0.484108	0.562367	0.490103
	H322	H	0.488340	0.560910	0.491202
	H323	H	0.479618	0.557760	0.487855
	O324	O	0.934766	-0.030987	0.008176
	H325	H	0.926433	-0.031652	-0.002929
	H326	H	0.923473	-0.038842	0.008773
	O327	O	0.932263	1.000226	0.019455
	H328	H	0.922629	0.995279	0.025043
	H329	H	0.938144	0.996034	0.022544
	O330	O	0.496623	0.564161	0.535962
	H331	H	0.486660	0.569315	0.543014
	H332	H	0.495851	0.547262	0.534805
	O333	O	0.433802	0.521381	0.506498
	H334	H	0.427333	0.523003	0.497142
	H335	H	0.439701	0.519800	0.510547
