data_Molecule from HDF5

_cell_length_a		16.560465
_cell_length_b		16.860957
_cell_length_c		16.518920
_cell_angle_alpha	89.970734
_cell_angle_beta	90.068164
_cell_angle_gamma	90.003617
_symmetry_space_group_name_H-M	'P 1'
_symmetry_Int_Tables_number		1

loop_
	_symmetry_equiv_pos_as_xyz
	x,y,z

loop_
	_atom_site_label
	_atom_site_type_symbol
	_atom_site_fract_x
	_atom_site_fract_y
	_atom_site_fract_z
	H0	H	0.383375	0.850241	0.718797
	H1	H	0.599661	0.153634	0.719507
	H2	H	0.599033	0.849021	0.269940
	H3	H	0.381291	0.150663	0.267005
	H4	H	0.710629	0.397874	0.837902
	H5	H	0.712427	0.605435	0.149226
	H6	H	0.271378	0.603451	0.837027
	H7	H	0.274390	0.400527	0.151171
	H8	H	0.836758	0.723799	0.385783
	H9	H	0.143734	0.723712	0.603431
	H10	H	0.835084	0.277162	0.601431
	H11	H	0.144479	0.276945	0.385373
	H12	H	0.834245	0.395066	0.715171
	H13	H	0.147195	0.601504	0.712820
	H14	H	0.835531	0.605615	0.272721
	H15	H	0.147944	0.397761	0.275699
	H16	H	0.385148	0.721420	0.837732
	H17	H	0.600174	0.724799	0.147301
	H18	H	0.598632	0.279022	0.839068
	H19	H	0.385669	0.280805	0.149794
	H20	H	0.714005	0.847429	0.387961
	H21	H	0.716268	0.152903	0.602603
	H22	H	0.265708	0.850336	0.602350
	H23	H	0.261512	0.149407	0.380263
	H24	H	0.884204	0.349029	0.218002
	H25	H	0.097049	0.654633	0.215999
	H26	H	0.098053	0.347388	0.770093
	H27	H	0.885071	0.652812	0.769965
	H28	H	0.210146	0.896119	0.338083
	H29	H	0.213048	0.105675	0.648947
	H30	H	0.773162	0.101262	0.335901
	H31	H	0.770403	0.897329	0.650973
	H32	H	0.335344	0.221015	0.889500
	H33	H	0.644954	0.223299	0.101958
	H34	H	0.337306	0.777051	0.103083
	H35	H	0.645975	0.778667	0.887532
	H36	H	0.336122	0.896022	0.214600
	H37	H	0.647028	0.104056	0.213411
	H38	H	0.332680	0.099389	0.779696
	H39	H	0.647613	0.898209	0.774726
	H40	H	0.884551	0.220435	0.337964
	H41	H	0.098937	0.222533	0.648890
	H42	H	0.097286	0.778069	0.339521
	H43	H	0.882482	0.778209	0.649647
	H44	H	0.215271	0.347878	0.886908
	H45	H	0.213161	0.654758	0.099728
	H46	H	0.767756	0.349078	0.100662
	H47	H	0.767503	0.652507	0.885691
	H48	H	0.392600	0.114518	0.580798
	H49	H	0.576152	0.893189	0.584205
	H50	H	0.578841	0.108890	0.407271
	H51	H	0.402257	0.891457	0.405494
	H52	H	0.579729	0.408439	0.107463
	H53	H	0.575877	0.596166	0.880449
	H54	H	0.403602	0.592967	0.106841
	H55	H	0.402541	0.409760	0.880155
	H56	H	0.101224	0.593426	0.413833
	H57	H	0.877015	0.590435	0.581576
	H58	H	0.099668	0.411485	0.576768
	H59	H	0.876763	0.404618	0.406928
	H60	H	0.101861	0.412847	0.584833
	H61	H	0.879499	0.589799	0.578018
	H62	H	0.101355	0.584279	0.405345
	H63	H	0.881848	0.414201	0.412581
	H64	H	0.401481	0.589336	0.106410
	H65	H	0.583949	0.588286	0.879842
	H66	H	0.580038	0.414993	0.105124
	H67	H	0.401978	0.409724	0.880301
	H68	H	0.581803	0.110256	0.406404
	H69	H	0.581117	0.892988	0.580396
	H70	H	0.405015	0.112253	0.592213
	H71	H	0.403846	0.891864	0.407566
	H72	H	0.901560	0.612324	0.086121
	H73	H	0.084286	0.391080	0.081127
	H74	H	0.075398	0.608468	0.902828
	H75	H	0.904068	0.389141	0.899174
	H76	H	0.074883	0.917793	0.603204
	H77	H	0.084731	0.090818	0.378654
	H78	H	0.896550	0.081319	0.606665
	H79	H	0.907699	0.910539	0.383396
	H80	H	0.603472	0.090318	0.907719
	H81	H	0.379267	0.091377	0.077464
	H82	H	0.604088	0.909061	0.081232
	H83	H	0.378312	0.908247	0.905670
	H84	H	0.601408	0.912321	0.077223
	H85	H	0.379040	0.087564	0.082995
	H86	H	0.604884	0.092021	0.904334
	H87	H	0.379301	0.910624	0.908588
	H88	H	0.914218	0.088756	0.602276
	H89	H	0.073753	0.079761	0.386201
	H90	H	0.072688	0.907234	0.606466
	H91	H	0.901012	0.906582	0.379609
	H92	H	0.081557	0.608529	0.908651
	H93	H	0.082669	0.389486	0.088767
	H94	H	0.905021	0.610392	0.081704
	H95	H	0.906288	0.393205	0.910255
	H96	H	0.406928	0.107347	0.576666
	H97	H	0.581784	0.890596	0.585602
	H98	H	0.579193	0.109725	0.404060
	H99	H	0.401340	0.892201	0.407767
	H100	H	0.573729	0.411763	0.104509
	H101	H	0.573483	0.586470	0.885040
	H102	H	0.405740	0.589741	0.105403
	H103	H	0.402557	0.410259	0.880203
	H104	H	0.105973	0.595567	0.402352
	H105	H	0.878810	0.587178	0.581175
	H106	H	0.103430	0.404974	0.581027
	H107	H	0.878205	0.415132	0.401055
	H108	H	0.898774	0.611366	0.080217
	H109	H	0.076786	0.392181	0.083764
	H110	H	0.083140	0.612296	0.900695
	H111	H	0.895365	0.389311	0.907333
	H112	H	0.082961	0.911903	0.608423
	H113	H	0.068269	0.095618	0.382904
	H114	H	0.900072	0.099598	0.610881
	H115	H	0.899857	0.914791	0.382707
	H116	H	0.604864	0.094382	0.907930
	H117	H	0.376500	0.093377	0.083283
	H118	H	0.602532	0.914301	0.082440
	H119	H	0.379053	0.912152	0.905465
	C120	C	0.368566	0.010266	0.616079
	C121	C	0.613025	0.992939	0.616686
	C122	C	0.612720	0.008769	0.372511
	C123	C	0.368576	0.991840	0.372023
	C124	C	0.611202	0.380071	0.002895
	C125	C	0.611604	0.622197	0.984765
	C126	C	0.370699	0.622007	0.002483
	C127	C	0.370451	0.379640	0.984642
	C128	C	-0.000327	0.622505	0.373531
	C129	C	0.981568	0.621067	0.614343
	C130	C	-0.001212	0.378149	0.614542
	C131	C	0.982322	0.379925	0.373932
	C132	C	0.869268	0.510138	0.115867
	C133	C	0.112874	0.492758	0.116174
	C134	C	0.112995	0.508368	0.871618
	C135	C	0.869212	0.491578	0.871899
	C136	C	0.110546	0.879462	0.503055
	C137	C	0.110842	0.122088	0.484848
	C138	C	0.870523	0.121063	0.502741
	C139	C	0.869773	0.879012	0.485467
	C140	C	0.500093	0.122454	0.874398
	C141	C	0.481371	0.122256	0.114647
	C142	C	0.499932	0.879263	0.114098
	C143	C	0.482206	0.879188	0.873630
	C144	C	0.365318	0.895840	0.677820
	C145	C	0.617219	0.107663	0.678598
	C146	C	0.616098	0.894251	0.311231
	C147	C	0.363568	0.105037	0.308140
	C148	C	0.671157	0.378968	0.885057
	C149	C	0.672738	0.624385	0.101937
	C150	C	0.310962	0.622951	0.884269
	C151	C	0.312857	0.380403	0.103608
	C152	C	0.882954	0.682765	0.368910
	C153	C	0.097933	0.682226	0.619608
	C154	C	0.881718	0.317693	0.618884
	C155	C	0.098627	0.318810	0.369603
	C156	C	0.881183	0.376403	0.675132
	C157	C	0.099377	0.621839	0.674189
	C158	C	0.882437	0.624154	0.312718
	C159	C	0.100184	0.378775	0.314789
	C160	C	0.367670	0.681211	0.884531
	C161	C	0.616661	0.683257	0.101259
	C162	C	0.615254	0.319975	0.885607
	C163	C	0.368023	0.320890	0.102846
	C164	C	0.673345	0.893659	0.369998
	C165	C	0.675160	0.107473	0.620414
	C166	C	0.306971	0.895818	0.619939
	C167	C	0.304224	0.104682	0.364779
	C168	C	0.866292	0.395036	0.177118
	C169	C	0.115006	0.608428	0.175923
	C170	C	0.116277	0.393347	0.810772
	C171	C	0.866688	0.606589	0.810546
	C172	C	0.170565	0.877303	0.385400
	C173	C	0.172712	0.124536	0.601978
	C174	C	0.811895	0.120909	0.383841
	C175	C	0.809713	0.877805	0.603668
	C176	C	0.382086	0.180687	0.872091
	C177	C	0.598541	0.182738	0.119038
	C178	C	0.383794	0.817980	0.119464
	C179	C	0.599791	0.819504	0.870232
	C180	C	0.383124	0.877285	0.174913
	C181	C	0.599455	0.123216	0.174208
	C182	C	0.380854	0.120372	0.817488
	C183	C	0.600284	0.878546	0.814234
	C184	C	0.867378	0.180067	0.384758
	C185	C	0.115827	0.182496	0.601854
	C186	C	0.114603	0.818561	0.386279
	C187	C	0.865714	0.818920	0.603090
	C188	C	0.174510	0.393497	0.868831
	C189	C	0.172778	0.608422	0.117813
	C190	C	0.808446	0.394859	0.118814
	C191	C	0.808346	0.606650	0.868116
	C192	C	0.394204	0.090326	0.590325
	C193	C	0.586995	0.913056	0.590836
	C194	C	0.587053	0.088845	0.398277
	C195	C	0.394970	0.912635	0.399260
	C196	C	0.585125	0.404610	0.084526
	C197	C	0.585238	0.597267	0.903055
	C198	C	0.396352	0.597675	0.084660
	C199	C	0.395247	0.403118	0.901860
	C200	C	0.081430	0.598009	0.399663
	C201	C	0.899677	0.596076	0.587805
	C202	C	0.080237	0.402768	0.588507
	C203	C	0.900343	0.404460	0.399607
	C204	C	0.894486	0.590454	0.090041
	C205	C	0.088220	0.411858	0.091476
	C206	C	0.087331	0.588763	0.896823
	C207	C	0.894504	0.411376	0.898109
	C208	C	0.084487	0.905106	0.584647
	C209	C	0.083561	0.096211	0.403829
	C210	C	0.896256	0.096873	0.585117
	C211	C	0.895326	0.903525	0.403352
	C212	C	0.582966	0.098912	0.899396
	C213	C	0.399726	0.098019	0.088649
	C214	C	0.581455	0.904707	0.087606
	C215	C	0.400353	0.903207	0.899180
	Zn216	Zn	0.491394	0.001432	0.745743
	Zn217	Zn	0.491259	0.000518	0.242740
	Zn218	Zn	0.739890	0.500838	-0.006228
	Zn219	Zn	0.242543	0.500801	-0.006033
	Zn220	Zn	-0.009782	0.750621	0.495033
	Zn221	Zn	-0.009992	0.250294	0.493810
	Zn222	Zn	-0.009322	0.499528	0.742124
	Zn223	Zn	-0.008567	0.501236	0.245514
	Zn224	Zn	0.490662	0.750550	-0.006223
	Zn225	Zn	0.491173	0.251159	-0.005913
	Zn226	Zn	0.742422	0.000455	0.494576
	Zn227	Zn	0.238974	0.000527	0.493678
	N228	N	0.402978	0.968049	0.675682
	N229	N	0.579141	0.035457	0.676373
	N230	N	0.578841	0.966768	0.312779
	N231	N	0.402854	0.033829	0.312303
	N232	N	0.668780	0.415722	0.959028
	N233	N	0.669610	0.586902	0.028328
	N234	N	0.312523	0.586970	0.958751
	N235	N	0.314088	0.416174	0.028994
	N236	N	0.957035	0.682025	0.406052
	N237	N	0.023418	0.682002	0.583269
	N238	N	0.955909	0.318460	0.581846
	N239	N	0.024096	0.319215	0.405582
	N240	N	0.955039	0.413144	0.672731
	N241	N	0.025771	0.584404	0.671014
	N242	N	0.956200	0.587445	0.315355
	N243	N	0.026544	0.416151	0.317170
	N244	N	0.403879	0.680970	0.959340
	N245	N	0.579295	0.682099	0.027355
	N246	N	0.578607	0.320379	0.959973
	N247	N	0.403093	0.320086	0.027652
	N248	N	0.671487	0.965958	0.407529
	N249	N	0.672606	0.035170	0.582322
	N250	N	0.308699	0.968213	0.582366
	N251	N	0.307316	0.033324	0.404159
	N252	N	0.903308	0.467814	0.175525
	N253	N	0.078434	0.535430	0.175051
	N254	N	0.078673	0.465820	0.812208
	N255	N	0.903997	0.533969	0.812766
	N256	N	0.168383	0.914379	0.459301
	N257	N	0.170148	0.087644	0.527960
	N258	N	0.813411	0.085080	0.458623
	N259	N	0.811967	0.914406	0.529425
	N260	N	0.457513	0.182157	0.906497
	N261	N	0.524025	0.182692	0.082841
	N262	N	0.457754	0.818910	0.082366
	N263	N	0.525168	0.819594	0.906188
	N264	N	0.456543	0.914790	0.171770
	N265	N	0.525567	0.086419	0.171954
	N266	N	0.455585	0.085019	0.818519
	N267	N	0.526145	0.914992	0.816038
	N268	N	0.902830	0.180534	0.459952
	N269	N	0.078248	0.181241	0.527900
	N270	N	0.077969	0.819538	0.460677
	N271	N	0.902063	0.819335	0.528437
	N272	N	0.172642	0.466147	0.906014
	N273	N	0.171835	0.535399	0.081249
	N274	N	0.809815	0.467613	0.081634
	N275	N	0.809919	0.534086	0.905805
	O276	O	-0.068487	0.763839	-0.064317
	H277	H	-0.050229	0.762167	-0.075918
	H278	H	-0.065891	0.759275	-0.056413
	O279	O	0.272028	0.725473	0.470959
	H280	H	0.251402	0.748682	0.474222
	H281	H	0.263918	0.697104	0.480420
	O282	O	0.777208	0.223484	0.968221
	H283	H	0.775065	0.242356	0.973344
	H284	H	0.768950	0.202800	0.975121
	O285	O	0.285577	0.564504	0.298974
	H286	H	0.284141	0.575680	0.292249
	H287	H	0.277867	0.585100	0.302396
	O288	O	0.262188	0.436187	0.457125
	H289	H	0.262618	0.419054	0.434458
	H290	H	0.260525	0.412836	0.441787
	O291	O	0.271173	0.271828	0.513164
	H292	H	0.270958	0.252515	0.520029
	H293	H	0.278102	0.246668	0.507105
	O294	O	1.193999	0.204123	0.787388
	H295	H	1.170849	0.203932	0.785200
	H296	H	1.216800	0.222996	0.755832
	O297	O	0.495043	0.543365	0.503845
	H298	H	0.515974	0.540851	0.502782
	H299	H	0.499881	0.532992	0.513260
	O300	O	0.046749	0.238152	0.933697
	H301	H	0.051229	0.242584	0.928614
	H302	H	0.061060	0.234086	0.933877
	O303	O	0.698202	0.709984	0.698749
	H304	H	0.668062	0.695721	0.706658
	H305	H	0.730728	0.739247	0.734100
	O306	O	0.414217	0.604067	0.679590
	H307	H	0.415497	0.605547	0.667399
	H308	H	0.431242	0.607476	0.669670
	O309	O	0.479905	0.588858	0.489804
	H310	H	0.489289	0.596963	0.486121
	H311	H	0.487109	0.580857	0.500341
	O312	O	0.810741	0.748688	0.222012
	H313	H	0.800474	0.725292	0.245771
	H314	H	0.830704	0.765809	0.220961
	O315	O	0.799027	0.802974	0.803797
	H316	H	0.813074	0.829103	0.815975
	H317	H	0.822418	0.813530	0.829222
	O318	O	0.457469	0.715503	0.283036
	H319	H	0.477091	0.711189	0.273840
	H320	H	0.464881	0.709555	0.269991
	O321	O	0.018556	0.990226	0.998488
	H322	H	0.016513	0.981593	0.988133
	H323	H	0.018908	0.996094	1.005589
	O324	O	0.779265	0.888027	0.198225
	H325	H	0.789825	0.878671	0.180971
	H326	H	0.785356	0.900176	0.211715
	O327	O	0.192378	-0.208870	0.791846
	H328	H	0.193320	-0.163281	0.785042
	H329	H	0.227311	-0.236362	0.757115
	O330	O	0.501693	0.261083	0.527977
	H331	H	0.518618	0.261544	0.547075
	H332	H	0.527297	0.257201	0.521160
	O333	O	0.454924	0.271042	0.715998
	H334	H	0.462522	0.260035	0.743205
	H335	H	0.463205	0.278141	0.718287
	O336	O	0.700648	0.286812	0.290595
	H337	H	0.733812	0.259607	0.254478
	H338	H	0.691413	0.327475	0.283898
	O339	O	0.823334	0.173546	0.833163
	H340	H	0.828107	0.175530	0.840453
	H341	H	0.823925	0.167605	0.860372
	O342	O	0.204983	-0.037791	-0.221731
	H343	H	0.202783	-0.025516	-0.215124
	H344	H	0.211963	-0.024361	-0.238111
	O345	O	0.049279	0.766544	1.049389
	H346	H	0.086872	0.765528	1.036128
	H347	H	0.045329	0.767857	1.052537
	O348	O	0.529613	0.718585	0.713213
	H349	H	0.535942	0.733488	0.721887
	H350	H	0.519496	0.727630	0.708246
	O351	O	0.378728	0.450572	0.299245
	H352	H	0.369458	0.471712	0.296321
	H353	H	0.406456	0.453273	0.296832
	O354	O	0.199337	0.000938	1.202612
	H355	H	0.194505	0.022165	1.194129
	H356	H	0.218017	0.008813	1.217695
	O357	O	0.281418	0.713501	0.292594
	H358	H	0.288166	0.705987	0.327576
	H359	H	0.316965	0.715454	0.291868
	O360	O	0.308585	0.310954	0.677893
	H361	H	0.324973	0.326588	0.669596
	H362	H	0.326060	0.318944	0.661186
	O363	O	0.078578	0.086977	0.104362
	H364	H	0.094832	0.090809	0.110408
	H365	H	0.080318	0.087710	0.082851
	O366	O	0.384582	0.439810	0.557830
	H367	H	0.368161	0.436462	0.539646
	H368	H	0.396841	0.441476	0.546868
	O369	O	0.875283	-0.004400	0.068692
	H370	H	0.884238	-0.007834	0.057111
	H371	H	0.872424	-0.015325	0.072451
	O372	O	0.771182	0.884899	-0.025113
	H373	H	0.779769	0.868990	-0.014556
	H374	H	0.766289	0.874764	-0.009966
	O375	O	0.952286	-0.159742	0.189553
	H376	H	0.959582	-0.168753	0.194955
	H377	H	0.979299	-0.152993	0.172931
	O378	O	0.560537	0.408924	0.408944
	H379	H	0.563838	0.406911	0.431203
	H380	H	0.562527	0.416477	0.410554
	O381	O	0.295366	0.704587	0.686737
	H382	H	0.313228	0.690128	0.663152
	H383	H	0.314084	0.681102	0.670331
	O384	O	1.057813	0.057247	0.774873
	H385	H	1.069212	0.075378	0.775257
	H386	H	1.031827	0.048769	0.779958
	O387	O	0.937925	1.236094	0.057425
	H388	H	0.949118	1.241939	0.054023
	H389	H	0.950448	1.238414	0.074790
	O390	O	0.298304	0.322025	0.302246
	H391	H	0.307838	0.350978	0.308763
	H392	H	0.324042	0.318686	0.321140
	O393	O	0.460174	0.728146	0.540043
	H394	H	0.478518	0.732108	0.519587
	H395	H	0.468921	0.728441	0.532387
	O396	O	0.017072	1.224528	1.213053
	H397	H	0.060523	1.218258	1.210482
	H398	H	0.027036	1.246677	1.237520
	O399	O	-0.115723	0.026329	1.206179
	H400	H	-0.105457	0.036241	1.210294
	H401	H	-0.098687	0.019953	1.212488
	O402	O	0.273753	0.571760	0.535724
	H403	H	0.264949	0.545236	0.522230
	H404	H	0.284729	0.553016	0.533402
	O405	O	0.800475	0.197406	1.182285
	H406	H	0.822286	0.182362	1.164530
	H407	H	0.819347	0.175824	1.168483
	O408	O	0.206993	0.223757	0.030721
	H409	H	0.221782	0.207153	0.011504
	H410	H	0.218172	0.228788	0.016782
	O411	O	0.556704	0.517487	0.633149
	H412	H	0.556085	0.525880	0.637412
	H413	H	0.563537	0.528298	0.635232
	O414	O	0.800354	0.116114	0.797600
	H415	H	0.812465	0.120727	0.813263
	H416	H	0.802064	0.123559	0.796741
	O417	O	0.580609	0.405628	0.650269
	H418	H	0.575248	0.402449	0.634834
	H419	H	0.587840	0.396750	0.651864
	O420	O	0.200804	0.217029	0.206027
	H421	H	0.231890	0.233298	0.228781
	H422	H	0.209931	0.225890	0.161194
	O423	O	-0.031304	0.224314	0.774981
	H424	H	-0.033102	0.216849	0.786353
	H425	H	-0.036964	0.241304	0.752376
	O426	O	0.649995	0.474342	0.599007
	H427	H	0.648966	0.476121	0.611309
	H428	H	0.641843	0.467710	0.591730
	O429	O	1.115364	0.976062	0.957050
	H430	H	1.119928	0.962805	0.951290
	H431	H	1.103031	0.969986	0.958170
	O432	O	0.714097	0.724974	0.519694
	H433	H	0.734010	0.742790	0.541043
	H434	H	0.718586	0.727134	0.549567
	O435	O	0.532854	0.433941	0.347936
	H436	H	0.529877	0.428501	0.372910
	H437	H	0.553138	0.428354	0.349123
	O438	O	-0.003975	-0.033531	0.187682
	H439	H	0.017534	-0.029350	0.187702
	H440	H	0.008004	-0.031317	0.187729
	O441	O	0.516888	0.267694	0.276768
	H442	H	0.545592	0.279608	0.272921
	H443	H	0.529932	0.246882	0.249591
	O444	O	0.457322	0.262561	0.457796
	H445	H	0.476799	0.258186	0.458420
	H446	H	0.484065	0.259292	0.459190
	O447	O	0.151876	0.830830	1.184631
	H448	H	0.178863	0.803792	1.208027
	H449	H	0.143214	0.832026	1.171006
	O450	O	-0.035914	1.029096	0.979548
	H451	H	-0.030269	1.041443	0.991802
	H452	H	-0.039169	1.023668	0.989072
	O453	O	0.280488	0.481501	0.698764
	H454	H	0.265459	0.481259	0.701943
	H455	H	0.288746	0.472298	0.701462
	O456	O	-0.049655	-0.073878	0.771388
	H457	H	-0.068997	-0.061978	0.770324
	H458	H	-0.041297	-0.095749	0.765884
	O459	O	0.782083	0.792263	0.065780
	H460	H	0.800796	0.782300	0.077136
	H461	H	0.776792	0.789951	0.070592
	O462	O	0.578956	0.579379	0.295477
	H463	H	0.591770	0.573250	0.297041
	H464	H	0.590223	0.565039	0.289272
	O465	O	1.201820	0.098797	-0.086390
	H466	H	1.192454	0.089322	-0.075065
	H467	H	1.204573	0.097865	-0.113901
	O468	O	0.709567	0.464642	0.273219
	H469	H	0.718264	0.470624	0.274635
	H470	H	0.727743	0.475605	0.268038
	O471	O	0.673125	0.319640	0.680479
	H472	H	0.679449	0.318953	0.680625
	H473	H	0.674175	0.326291	0.690098
	O474	O	0.571256	0.694867	0.472693
	H475	H	0.566697	0.690128	0.472451
	H476	H	0.586079	0.695958	0.465631
	O477	O	0.664924	0.559222	1.469742
	H478	H	0.665472	0.558118	1.493496
	H479	H	0.652397	0.576480	1.477522
	O480	O	0.678296	0.686191	0.307395
	H481	H	0.694920	0.691285	0.307306
	H482	H	0.668538	0.678365	0.322202
	O483	O	0.706221	0.534993	0.706397
	H484	H	0.730475	0.534633	0.727656
	H485	H	0.699627	0.549783	0.696762
	O486	O	0.830310	0.012933	0.807620
	H487	H	0.832651	0.025918	0.813629
	H488	H	0.821212	0.010048	0.830342
	O489	O	1.206821	0.939025	0.072046
	H490	H	1.216553	0.936115	0.088067
	H491	H	1.206849	0.921204	0.075214
	O492	O	-0.233986	0.031084	0.004621
	H493	H	-0.234475	0.017292	0.008627
	H494	H	-0.230504	0.011679	0.013333
	O495	O	0.211603	0.773182	0.966178
	H496	H	0.232467	0.759715	0.949922
	H497	H	0.218727	0.769105	0.930055
	O498	O	1.019907	0.776316	0.777850
	H499	H	1.027255	0.762136	0.753746
	H500	H	1.052432	0.776269	0.775773
	O501	O	0.712795	0.271794	0.464919
	H502	H	0.727354	0.259362	0.432269
	H503	H	0.726347	0.263667	0.446579
