data_Molecule from HDF5

_cell_length_a		16.540934
_cell_length_b		16.643429
_cell_length_c		16.467169
_cell_angle_alpha	90.031486
_cell_angle_beta	90.045846
_cell_angle_gamma	89.972495
_symmetry_space_group_name_H-M	'P 1'
_symmetry_Int_Tables_number		1

loop_
	_symmetry_equiv_pos_as_xyz
	x,y,z

loop_
	_atom_site_label
	_atom_site_type_symbol
	_atom_site_fract_x
	_atom_site_fract_y
	_atom_site_fract_z
	H0	H	0.394766	0.848992	0.724643
	H1	H	0.599792	0.162050	0.724467
	H2	H	0.602551	0.849215	0.281244
	H3	H	0.392140	0.161277	0.283676
	H4	H	0.717148	0.400675	0.848621
	H5	H	0.718404	0.611036	0.162717
	H6	H	0.279517	0.604640	0.844936
	H7	H	0.274413	0.400259	0.162748
	H8	H	0.842193	0.727881	0.397041
	H9	H	0.154862	0.723126	0.608656
	H10	H	0.839835	0.283304	0.608932
	H11	H	0.152815	0.279559	0.395966
	H12	H	0.838698	0.401316	0.723130
	H13	H	0.155734	0.603713	0.721805
	H14	H	0.840893	0.609247	0.283191
	H15	H	0.155248	0.400235	0.284284
	H16	H	0.395116	0.721518	0.845180
	H17	H	0.602738	0.727522	0.161441
	H18	H	0.601781	0.283355	0.849807
	H19	H	0.389577	0.283261	0.163398
	H20	H	0.719378	0.848511	0.398295
	H21	H	0.717961	0.160692	0.608885
	H22	H	0.275798	0.849558	0.609267
	H23	H	0.274169	0.160028	0.398711
	H24	H	0.893906	0.347884	0.225440
	H25	H	0.100863	0.660890	0.226265
	H26	H	0.095695	0.345611	0.789116
	H27	H	0.892773	0.659954	0.783630
	H28	H	0.219810	0.898465	0.347799
	H29	H	0.215393	0.107106	0.661820
	H30	H	0.775091	0.109342	0.345841
	H31	H	0.779262	0.902914	0.662941
	H32	H	0.338776	0.223145	0.903948
	H33	H	0.653551	0.226154	0.111801
	H34	H	0.339192	0.784945	0.109585
	H35	H	0.652639	0.781951	0.898357
	H36	H	0.338543	0.903207	0.223301
	H37	H	0.654642	0.106730	0.224512
	H38	H	0.337990	0.104541	0.789032
	H39	H	0.655348	0.903139	0.786821
	H40	H	0.890172	0.226170	0.346275
	H41	H	0.099007	0.223073	0.661722
	H42	H	0.103414	0.782478	0.347275
	H43	H	0.893199	0.784394	0.661926
	H44	H	0.214008	0.345936	0.905292
	H45	H	0.217719	0.661300	0.110415
	H46	H	0.776417	0.348509	0.109082
	H47	H	0.775491	0.660447	0.899995
	H48	H	0.405788	0.117127	0.594649
	H49	H	0.582961	0.893692	0.596827
	H50	H	0.594534	0.119216	0.414658
	H51	H	0.406074	0.894943	0.420749
	H52	H	0.585728	0.418994	0.118422
	H53	H	0.585111	0.593676	0.892635
	H54	H	0.408189	0.595120	0.117372
	H55	H	0.408105	0.417998	0.894800
	H56	H	0.111268	0.595671	0.416571
	H57	H	0.883667	0.600263	0.590860
	H58	H	0.109629	0.416395	0.597881
	H59	H	0.888332	0.417074	0.423314
	H60	H	0.111972	0.408267	0.595680
	H61	H	0.886458	0.590903	0.591073
	H62	H	0.108470	0.592593	0.418634
	H63	H	0.886749	0.421511	0.414397
	H64	H	0.407087	0.597229	0.118564
	H65	H	0.585619	0.594013	0.892450
	H66	H	0.583897	0.414310	0.118876
	H67	H	0.410188	0.411080	0.893737
	H68	H	0.578793	0.115426	0.409258
	H69	H	0.589517	0.893489	0.590476
	H70	H	0.403847	0.118908	0.595568
	H71	H	0.404638	0.891066	0.412150
	H72	H	0.910474	0.615392	0.091984
	H73	H	0.090107	0.390080	0.100165
	H74	H	0.088192	0.617658	0.914064
	H75	H	0.904150	0.390023	0.910034
	H76	H	0.085868	0.916149	0.617132
	H77	H	0.078528	0.092639	0.392628
	H78	H	0.910184	0.097461	0.615058
	H79	H	0.905167	0.907853	0.387833
	H80	H	0.606907	0.094677	0.924636
	H81	H	0.384033	0.095301	0.094726
	H82	H	0.610408	0.909409	0.092199
	H83	H	0.383364	0.915857	0.911692
	H84	H	0.605755	0.918271	0.085928
	H85	H	0.383948	0.095945	0.094700
	H86	H	0.609761	0.089796	0.909901
	H87	H	0.382604	0.910074	0.913470
	H88	H	0.904140	0.094370	0.617266
	H89	H	0.087524	0.097634	0.387848
	H90	H	0.084493	0.913836	0.616844
	H91	H	0.903463	0.922273	0.392047
	H92	H	0.089315	0.617330	0.912193
	H93	H	0.080160	0.394678	0.094683
	H94	H	0.905047	0.616208	0.092625
	H95	H	0.911640	0.394329	0.915603
	H96	H	0.405808	0.118166	0.597035
	H97	H	0.591074	0.890637	0.598856
	H98	H	0.583740	0.111766	0.424898
	H99	H	0.412980	0.895089	0.414614
	H100	H	0.588815	0.414972	0.119840
	H101	H	0.585143	0.593491	0.892661
	H102	H	0.405951	0.594629	0.118167
	H103	H	0.402923	0.413167	0.891374
	H104	H	0.109660	0.592245	0.414383
	H105	H	0.881977	0.595026	0.598980
	H106	H	0.107811	0.413375	0.590172
	H107	H	0.884253	0.412087	0.416092
	H108	H	0.908269	0.616616	0.096366
	H109	H	0.090861	0.394223	0.088093
	H110	H	0.087183	0.616642	0.912304
	H111	H	0.902513	0.392191	0.919959
	H112	H	0.087104	0.913974	0.617099
	H113	H	0.088160	0.086841	0.391392
	H114	H	0.909082	0.090416	0.614639
	H115	H	0.916884	0.915091	0.394031
	H116	H	0.613429	0.104085	0.914223
	H117	H	0.383582	0.095099	0.094011
	H118	H	0.608843	0.920119	0.097513
	H119	H	0.384424	0.914450	0.917812
	C120	C	0.374823	0.014265	0.626522
	C121	C	0.618861	0.996305	0.626439
	C122	C	0.618257	0.012619	0.383286
	C123	C	0.375379	0.996791	0.383207
	C124	C	0.617726	0.384315	0.014945
	C125	C	0.617767	0.626327	0.996644
	C126	C	0.375975	0.625546	0.013014
	C127	C	0.375117	0.383370	0.997699
	C128	C	0.006672	0.626416	0.383053
	C129	C	0.988592	0.625239	0.625211
	C130	C	0.005692	0.381690	0.626092
	C131	C	0.989586	0.383528	0.384074
	C132	C	0.875646	0.513105	0.126583
	C133	C	0.118902	0.496349	0.126317
	C134	C	0.118150	0.512373	0.883396
	C135	C	0.874875	0.495751	0.883141
	C136	C	0.118601	0.882647	0.513015
	C137	C	0.116493	0.124513	0.495034
	C138	C	0.875001	0.125943	0.511687
	C139	C	0.876533	0.883317	0.495603
	C140	C	0.505368	0.126463	0.885209
	C141	C	0.487714	0.126962	0.127357
	C142	C	0.504379	0.884652	0.124013
	C143	C	0.487586	0.882630	0.882735
	C144	C	0.374874	0.896042	0.685144
	C145	C	0.619330	0.114827	0.684959
	C146	C	0.620890	0.895507	0.322033
	C147	C	0.373349	0.114024	0.323270
	C148	C	0.677502	0.381744	0.896187
	C149	C	0.677977	0.628895	0.115359
	C150	C	0.318278	0.624681	0.892938
	C151	C	0.314882	0.382152	0.115972
	C152	C	0.889185	0.687607	0.379150
	C153	C	0.107639	0.683282	0.626606
	C154	C	0.886890	0.323313	0.627275
	C155	C	0.106429	0.321230	0.379210
	C156	C	0.886512	0.381711	0.684341
	C157	C	0.108017	0.624031	0.683098
	C158	C	0.888235	0.628491	0.322732
	C159	C	0.107560	0.380963	0.323526
	C160	C	0.375728	0.682765	0.892993
	C161	C	0.620927	0.687308	0.114487
	C162	C	0.620436	0.323320	0.896984
	C163	C	0.372175	0.323833	0.116154
	C164	C	0.678942	0.895420	0.380048
	C165	C	0.677876	0.114119	0.627402
	C166	C	0.315952	0.896281	0.627888
	C167	C	0.314648	0.113605	0.380587
	C168	C	0.875119	0.394906	0.185411
	C169	C	0.119899	0.614036	0.186300
	C170	C	0.116221	0.392953	0.827434
	C171	C	0.873729	0.613120	0.823399
	C172	C	0.179262	0.880060	0.394850
	C173	C	0.175436	0.125856	0.614343
	C174	C	0.815260	0.127473	0.393196
	C175	C	0.818053	0.883097	0.615032
	C176	C	0.386214	0.183868	0.884676
	C177	C	0.606294	0.185934	0.129807
	C178	C	0.386058	0.825353	0.126817
	C179	C	0.605920	0.822953	0.880789
	C180	C	0.385935	0.884159	0.183601
	C181	C	0.606839	0.126998	0.186066
	C182	C	0.385858	0.125121	0.827505
	C183	C	0.607218	0.883059	0.825172
	C184	C	0.872532	0.185670	0.393277
	C185	C	0.117784	0.183552	0.614207
	C186	C	0.121350	0.822533	0.394547
	C187	C	0.874769	0.824240	0.614536
	C188	C	0.174701	0.393261	0.885315
	C189	C	0.178046	0.614259	0.128535
	C190	C	0.816440	0.395207	0.128035
	C191	C	0.815508	0.613520	0.881212
	C192	C	0.398371	0.096675	0.602738
	C193	C	0.594716	0.914078	0.602223
	C194	C	0.592932	0.094178	0.408924
	C195	C	0.400730	0.914919	0.408580
	C196	C	0.593230	0.409228	0.097623
	C197	C	0.592749	0.600894	0.914089
	C198	C	0.400058	0.602275	0.096483
	C199	C	0.400084	0.407272	0.914675
	C200	C	0.088394	0.600772	0.409080
	C201	C	0.905611	0.601965	0.600793
	C202	C	0.088313	0.405508	0.601422
	C203	C	0.907919	0.409561	0.410344
	C204	C	0.900599	0.594806	0.100951
	C205	C	0.094233	0.414334	0.101381
	C206	C	0.095055	0.595525	0.906406
	C207	C	0.898900	0.413498	0.908248
	C208	C	0.093228	0.907576	0.595525
	C209	C	0.091771	0.099407	0.412116
	C210	C	0.900384	0.101136	0.594202
	C211	C	0.901393	0.907991	0.412821
	C212	C	0.588599	0.102988	0.909404
	C213	C	0.405307	0.102537	0.101858
	C214	C	0.586961	0.908898	0.098955
	C215	C	0.404924	0.906546	0.907098
	Zn216	Zn	0.497411	0.005470	0.755488
	Zn217	Zn	0.496613	0.004474	0.254238
	Zn218	Zn	0.746301	0.505296	0.005690
	Zn219	Zn	0.247146	0.504438	0.005067
	Zn220	Zn	-0.002227	0.754481	0.504968
	Zn221	Zn	-0.003416	0.254107	0.503197
	Zn222	Zn	-0.003696	0.503442	0.753816
	Zn223	Zn	-0.002521	0.504205	0.255342
	Zn224	Zn	0.496335	0.754652	0.004766
	Zn225	Zn	0.496712	0.255426	0.006634
	Zn226	Zn	0.747488	0.004236	0.504007
	Zn227	Zn	0.246020	0.004636	0.503948
	N228	N	0.410826	0.970356	0.684541
	N229	N	0.583538	0.040421	0.684815
	N230	N	0.584024	0.969404	0.323683
	N231	N	0.410542	0.040303	0.324995
	N232	N	0.675969	0.418921	0.970608
	N233	N	0.676159	0.591647	0.040980
	N234	N	0.318025	0.590108	0.968737
	N235	N	0.316765	0.418484	0.041135
	N236	N	0.963840	0.686677	0.415602
	N237	N	0.032265	0.684376	0.591680
	N238	N	0.962168	0.322540	0.592092
	N239	N	0.031905	0.322565	0.416003
	N240	N	0.961432	0.417087	0.683768
	N241	N	0.032959	0.588714	0.682489
	N242	N	0.962418	0.591374	0.324650
	N243	N	0.034002	0.419242	0.326669
	N244	N	0.410543	0.683784	0.968787
	N245	N	0.584173	0.685912	0.039629
	N246	N	0.583981	0.324566	0.971921
	N247	N	0.409107	0.324557	0.041589
	N248	N	0.677333	0.969246	0.417353
	N249	N	0.677940	0.039378	0.592191
	N250	N	0.315719	0.970841	0.592425
	N251	N	0.316041	0.039642	0.417289
	N252	N	0.911033	0.469289	0.184804
	N253	N	0.083697	0.539792	0.185047
	N254	N	0.082113	0.468158	0.825927
	N255	N	0.909814	0.538855	0.824417
	N256	N	0.177729	0.916808	0.469437
	N257	N	0.174817	0.089842	0.539255
	N258	N	0.816578	0.091342	0.468011
	N259	N	0.818871	0.919059	0.539986
	N260	N	0.461738	0.185125	0.919230
	N261	N	0.530948	0.186451	0.094423
	N262	N	0.460974	0.825387	0.090727
	N263	N	0.530415	0.822300	0.915438
	N264	N	0.460610	0.920143	0.182208
	N265	N	0.532013	0.091344	0.184988
	N266	N	0.461311	0.090412	0.827363
	N267	N	0.532712	0.919429	0.826148
	N268	N	0.909065	0.184930	0.467981
	N269	N	0.082002	0.182870	0.538912
	N270	N	0.084389	0.824185	0.469189
	N271	N	0.910260	0.824047	0.539198
	N272	N	0.176282	0.468748	0.918892
	N273	N	0.177428	0.539968	0.092016
	N274	N	0.816528	0.469844	0.092357
	N275	N	0.816019	0.539394	0.917735
	O276	O	0.809336	0.854389	-0.137307
	H277	H	0.805478	0.838149	-0.162190
	H278	H	0.835241	0.846887	-0.134522
	O279	O	0.202487	-0.061701	1.107190
	H280	H	0.207871	-0.071899	1.102160
	H281	H	0.202186	-0.039841	1.114614
	O282	O	0.543959	0.407848	0.699945
	H283	H	0.523716	0.388007	0.713696
	H284	H	0.542253	0.417826	0.704272
	O285	O	0.455369	0.285169	0.727564
	H286	H	0.446519	0.263950	0.750415
	H287	H	0.418622	0.280282	0.732976
	O288	O	1.248442	-0.263340	1.265333
	H289	H	1.243139	-0.264051	1.295241
	H290	H	1.227823	-0.259735	1.252375
	O291	O	0.323968	0.543383	0.526083
	H292	H	0.330968	0.531619	0.528456
	H293	H	0.316627	0.565041	0.531345
	O294	O	0.131726	0.016264	-0.188129
	H295	H	0.117736	0.004093	-0.190498
	H296	H	0.137175	0.015749	-0.197105
	O297	O	0.994034	0.210676	-0.115370
	H298	H	0.980007	0.197122	-0.126853
	H299	H	0.991172	0.202760	-0.135545
	O300	O	0.031043	0.110592	-0.068497
	H301	H	0.012994	0.101684	-0.074350
	H302	H	0.023827	0.104493	-0.057438
	O303	O	0.086150	-0.138814	0.163863
	H304	H	0.075097	-0.132101	0.176924
	H305	H	0.071552	-0.143260	0.156866
	O306	O	0.789661	-0.193279	0.037264
	H307	H	0.789721	-0.179835	0.014265
	H308	H	0.780418	-0.201593	0.025476
	O309	O	0.464408	0.439039	0.288298
	H310	H	0.456562	0.448270	0.281290
	H311	H	0.464824	0.450315	0.286445
	O312	O	0.373250	0.301227	0.384170
	H313	H	0.384902	0.322350	0.381092
	H314	H	0.384876	0.314493	0.402939
	O315	O	0.514171	0.626461	0.718258
	H316	H	0.520799	0.626823	0.733758
	H317	H	0.517836	0.616111	0.706329
	O318	O	1.037708	0.795853	-0.204940
	H319	H	1.065678	0.786086	-0.211076
	H320	H	1.061208	0.779946	-0.207859
	O321	O	0.185083	1.193053	0.813604
	H322	H	0.164998	1.182603	0.839355
	H323	H	0.167088	1.166676	0.826735
	O324	O	0.965531	-0.210000	1.221985
	H325	H	0.960872	-0.220800	1.245741
	H326	H	0.959718	-0.205350	1.232317
	O327	O	0.456564	0.528993	0.570986
	H328	H	0.449824	0.527790	0.577517
	H329	H	0.463430	0.521272	0.564988
	O330	O	0.304552	0.519913	0.291250
	H331	H	0.294215	0.540534	0.280158
	H332	H	0.298949	0.526790	0.297615
	O333	O	0.639342	0.501205	0.566540
	H334	H	0.640408	0.498513	0.589542
	H335	H	0.653110	0.487310	0.555652
	O336	O	0.561428	0.377369	0.524484
	H337	H	0.567232	0.379125	0.541666
	H338	H	0.560639	0.387042	0.525477
	O339	O	0.433728	0.729251	0.579651
	H340	H	0.451205	0.728796	0.577365
	H341	H	0.456521	0.730167	0.582461
	O342	O	0.206734	0.851432	-0.046585
	H343	H	0.199381	0.847732	-0.034039
	H344	H	0.226755	0.825758	-0.056336
	O345	O	0.402356	0.552320	0.651286
	H346	H	0.407657	0.543571	0.619180
	H347	H	0.386804	0.547948	0.675147
	O348	O	0.274571	0.456322	0.724329
	H349	H	0.241820	0.454416	0.753305
	H350	H	0.278716	0.409616	0.722806
	O351	O	0.196907	0.196279	1.019639
	H352	H	0.213092	0.190860	1.011228
	H353	H	0.168490	0.196109	1.000586
	O354	O	0.788100	-0.081379	0.901661
	H355	H	0.800830	-0.088800	0.891275
	H356	H	0.775868	-0.083688	0.875597
	O357	O	0.501641	0.718864	0.296591
	H358	H	0.488181	0.720541	0.279439
	H359	H	0.478231	0.723277	0.312643
	O360	O	0.705605	0.710137	0.708548
	H361	H	0.690936	0.715740	0.672847
	H362	H	0.694297	0.685542	0.709911
	O363	O	0.541276	0.726807	0.483424
	H364	H	0.558326	0.729935	0.470706
	H365	H	0.553495	0.714948	0.478828
	O366	O	0.710142	0.719103	0.535862
	H367	H	0.732697	0.735812	0.531187
	H368	H	0.714999	0.690438	0.521225
	O369	O	-0.102148	0.153922	1.144256
	H370	H	-0.092263	0.149628	1.133492
	H371	H	-0.092678	0.143722	1.138300
	O372	O	0.009879	0.826385	1.032702
	H373	H	0.005916	0.832681	1.057376
	H374	H	-0.007819	0.820781	1.034596
	O375	O	1.153102	0.031236	-0.133850
	H376	H	1.165640	0.026749	-0.130348
	H377	H	1.144821	0.020564	-0.149392
	O378	O	0.697997	0.308595	0.309279
	H379	H	0.646412	0.298252	0.301456
	H380	H	0.717871	0.288150	0.309111
	O381	O	0.073863	1.032530	0.212950
	H382	H	0.074437	1.030182	0.225967
	H383	H	0.059918	1.037710	0.206112
	O384	O	0.286812	0.288861	0.541020
	H385	H	0.294975	0.282504	0.520342
	H386	H	0.281140	0.289263	0.524079
	O387	O	-0.047116	1.111530	0.787156
	H388	H	-0.068209	1.113887	0.781984
	H389	H	-0.054141	1.109022	0.774343
	O390	O	0.198848	0.837410	0.798223
	H391	H	0.226407	0.823825	0.771632
	H392	H	0.200894	0.844348	0.807753
	O393	O	1.190575	0.196484	0.192788
	H394	H	1.208650	0.193929	0.187361
	H395	H	1.193676	0.203434	0.159691
	O396	O	0.535965	0.565372	0.314053
	H397	H	0.544425	0.585297	0.302407
	H398	H	0.539154	0.560230	0.313849
	O399	O	0.612418	0.520258	0.604795
	H400	H	0.614961	0.491461	0.598800
	H401	H	0.593936	0.519361	0.612859
	O402	O	0.786527	0.213158	0.795689
	H403	H	0.784210	0.237094	0.784886
	H404	H	0.781494	0.205359	0.839153
	O405	O	0.430865	0.302183	0.439310
	H406	H	0.446204	0.328305	0.444855
	H407	H	0.429871	0.288648	0.436696
	O408	O	0.778280	1.047235	0.793869
	H409	H	0.782283	1.082204	0.793665
	H410	H	0.758150	1.039971	0.765397
	O411	O	0.785962	1.002771	0.158447
	H412	H	0.782318	0.985964	0.162416
	H413	H	0.782734	0.982511	0.169066
	O414	O	0.053541	0.003553	-0.058435
	H415	H	0.057005	-0.014297	-0.059333
	H416	H	0.030760	0.008524	-0.059972
	O417	O	1.018538	0.209577	0.214366
	H418	H	1.035599	0.208956	0.223388
	H419	H	1.043536	0.221344	0.215224
	O420	O	0.872004	0.001695	1.024446
	H421	H	0.868589	-0.005302	1.023949
	H422	H	0.880675	-0.010869	1.017144
	O423	O	1.167920	0.824476	0.067246
	H424	H	1.160092	0.824934	0.055482
	H425	H	1.167018	0.822714	0.059662
	O426	O	0.708868	0.573295	0.450146
	H427	H	0.705402	0.561534	0.435934
	H428	H	0.716529	0.549758	0.448169
	O429	O	0.278115	0.463666	0.445522
	H430	H	0.271425	0.470829	0.442594
	H431	H	0.280184	0.465535	0.452304
	O432	O	0.791954	0.209836	0.976625
	H433	H	0.776467	0.221070	0.988597
	H434	H	0.801604	0.191535	1.001493
	O435	O	0.429586	0.583756	0.403318
	H436	H	0.428451	0.597812	0.391760
	H437	H	0.443049	0.586163	0.406145
	O438	O	0.800469	0.810794	0.201304
	H439	H	0.808939	0.788946	0.221178
	H440	H	0.792396	0.808956	0.151657
	O441	O	0.709212	0.536171	0.715809
	H442	H	0.717220	0.531259	0.734066
	H443	H	0.701595	0.538924	0.713114
	O444	O	0.292465	0.713606	0.454144
	H445	H	0.319210	0.718693	0.463652
	H446	H	0.277309	0.734442	0.468603
	O447	O	0.699856	0.279794	0.488098
	H448	H	0.708890	0.261205	0.474349
	H449	H	0.695111	0.266619	0.476196
	O450	O	0.938398	0.171290	0.114839
	H451	H	0.928220	0.163511	0.106336
	H452	H	0.956677	0.179702	0.123939
	O453	O	0.685046	0.317851	0.693554
	H454	H	0.681653	0.315944	0.697211
	H455	H	0.666525	0.330624	0.677902
	O456	O	0.013635	1.090023	0.948488
	H457	H	0.002823	1.076367	0.933534
	H458	H	-0.005586	1.089402	0.963442
	O459	O	0.721938	0.476205	0.285168
	H460	H	0.722262	0.439810	0.283777
	H461	H	0.742287	0.460620	0.259477
	O462	O	0.533039	0.285957	0.291008
	H463	H	0.511530	0.298434	0.288625
	H464	H	0.523767	0.264037	0.274718
	O465	O	0.674780	0.654655	0.341222
	H466	H	0.678619	0.642221	0.346437
	H467	H	0.653461	0.636383	0.343379
	O468	O	-0.049601	0.833855	-0.092488
	H469	H	-0.033976	0.827741	-0.106941
	H470	H	-0.048700	0.832382	-0.075726
	O471	O	0.310721	0.693290	0.689686
	H472	H	0.326805	0.661408	0.680112
	H473	H	0.331390	0.692525	0.660212
	O474	O	0.942895	0.967751	0.225891
	H475	H	0.965609	0.963291	0.226668
	H476	H	0.919212	0.981399	0.228119
	O477	O	0.287604	0.293403	0.712442
	H478	H	0.282066	0.285879	0.659305
	H479	H	0.252817	0.258935	0.740688
