data_Molecule from HDF5

_cell_length_a		16.531037
_cell_length_b		16.262208
_cell_length_c		16.300618
_cell_angle_alpha	90.197432
_cell_angle_beta	90.039820
_cell_angle_gamma	90.142947
_symmetry_space_group_name_H-M	'P 1'
_symmetry_Int_Tables_number		1

loop_
	_symmetry_equiv_pos_as_xyz
	x,y,z

loop_
	_atom_site_label
	_atom_site_type_symbol
	_atom_site_fract_x
	_atom_site_fract_y
	_atom_site_fract_z
	H0	H	0.394725	0.821162	0.713926
	H1	H	0.599621	0.144076	0.715919
	H2	H	0.595837	0.819854	0.282039
	H3	H	0.394560	0.142859	0.280312
	H4	H	0.717047	0.376180	0.840069
	H5	H	0.716567	0.589292	0.159540
	H6	H	0.274402	0.589298	0.839474
	H7	H	0.273632	0.376291	0.157695
	H8	H	0.836344	0.702027	0.396797
	H9	H	0.155055	0.703053	0.602046
	H10	H	0.836469	0.261623	0.602600
	H11	H	0.155333	0.264723	0.396522
	H12	H	0.836086	0.379218	0.718995
	H13	H	0.154806	0.586833	0.719517
	H14	H	0.837005	0.588145	0.277637
	H15	H	0.153889	0.378756	0.277595
	H16	H	0.393767	0.700360	0.837429
	H17	H	0.595450	0.699715	0.161714
	H18	H	0.599354	0.263370	0.838638
	H19	H	0.396001	0.267339	0.161472
	H20	H	0.717038	0.822498	0.391514
	H21	H	0.717204	0.143417	0.603561
	H22	H	0.274142	0.823787	0.603953
	H23	H	0.275745	0.142243	0.391473
	H24	H	0.893850	0.321452	0.215904
	H25	H	0.101428	0.643648	0.220504
	H26	H	0.095207	0.320828	0.782286
	H27	H	0.894199	0.644512	0.783626
	H28	H	0.216497	0.876605	0.338275
	H29	H	0.216787	0.089328	0.657502
	H30	H	0.775021	0.089205	0.338747
	H31	H	0.775336	0.877812	0.657992
	H32	H	0.337791	0.201545	0.896316
	H33	H	0.654811	0.204654	0.104588
	H34	H	0.336880	0.762931	0.101794
	H35	H	0.654982	0.761681	0.895715
	H36	H	0.337359	0.878353	0.218967
	H37	H	0.654849	0.087884	0.220636
	H38	H	0.338545	0.087291	0.776502
	H39	H	0.655096	0.876946	0.776840
	H40	H	0.895338	0.200264	0.336371
	H41	H	0.096311	0.199880	0.659779
	H42	H	0.098334	0.762944	0.337657
	H43	H	0.894912	0.767159	0.660673
	H44	H	0.216534	0.323692	0.891317
	H45	H	0.218150	0.642954	0.106208
	H46	H	0.774730	0.323413	0.105884
	H47	H	0.775308	0.643108	0.896146
	H48	H	0.400935	0.100937	0.590136
	H49	H	0.590627	0.865376	0.589392
	H50	H	0.593031	0.099537	0.410045
	H51	H	0.409075	0.869091	0.409652
	H52	H	0.581677	0.396344	0.111360
	H53	H	0.584808	0.575055	0.883911
	H54	H	0.408940	0.571392	0.112268
	H55	H	0.404656	0.392504	0.883678
	H56	H	0.110120	0.580396	0.410395
	H57	H	0.881016	0.577042	0.591804
	H58	H	0.108981	0.391625	0.592885
	H59	H	0.884025	0.396841	0.406609
	H60	H	0.108050	0.390509	0.588145
	H61	H	0.882998	0.574398	0.588301
	H62	H	0.104587	0.568471	0.415979
	H63	H	0.880672	0.389534	0.405009
	H64	H	0.403983	0.574630	0.114728
	H65	H	0.590648	0.568257	0.884041
	H66	H	0.587288	0.389952	0.115936
	H67	H	0.404726	0.394527	0.884409
	H68	H	0.584458	0.097614	0.404958
	H69	H	0.582233	0.869022	0.588325
	H70	H	0.413072	0.096732	0.589930
	H71	H	0.402035	0.867436	0.413552
	H72	H	0.907637	0.598191	0.089911
	H73	H	0.085065	0.371282	0.081050
	H74	H	0.083460	0.596952	0.909559
	H75	H	0.907609	0.370099	0.914542
	H76	H	0.084188	0.898827	0.610341
	H77	H	0.080878	0.077465	0.382948
	H78	H	0.907164	0.075525	0.613650
	H79	H	0.907859	0.899107	0.386036
	H80	H	0.606911	0.073557	0.914009
	H81	H	0.384214	0.072153	0.088640
	H82	H	0.608568	0.890879	0.086628
	H83	H	0.382118	0.882930	0.909326
	H84	H	0.608076	0.895218	0.089709
	H85	H	0.384181	0.071808	0.089599
	H86	H	0.608805	0.067440	0.904687
	H87	H	0.387498	0.898065	0.912252
	H88	H	0.902183	0.070863	0.613150
	H89	H	0.094651	0.074883	0.379450
	H90	H	0.085049	0.890591	0.613745
	H91	H	0.909376	0.888981	0.383882
	H92	H	0.087189	0.597867	0.914199
	H93	H	0.090064	0.367544	0.087983
	H94	H	0.907093	0.596721	0.085883
	H95	H	0.898447	0.366096	0.909764
	H96	H	0.405089	0.095715	0.579420
	H97	H	0.588109	0.869297	0.581445
	H98	H	0.585297	0.095054	0.415341
	H99	H	0.402799	0.864644	0.405868
	H100	H	0.590895	0.398730	0.114727
	H101	H	0.582863	0.567250	0.887399
	H102	H	0.403563	0.568347	0.112619
	H103	H	0.406723	0.393281	0.885196
	H104	H	0.108886	0.568563	0.402985
	H105	H	0.882674	0.572260	0.592421
	H106	H	0.107645	0.394701	0.590044
	H107	H	0.884020	0.390888	0.412618
	H108	H	0.903719	0.598904	0.087187
	H109	H	0.080716	0.369386	0.089232
	H110	H	0.088518	0.599175	0.909021
	H111	H	0.907754	0.365579	0.904047
	H112	H	0.092006	0.895888	0.613744
	H113	H	0.086218	0.064448	0.385409
	H114	H	0.908108	0.068751	0.610712
	H115	H	0.900910	0.893190	0.382095
	H116	H	0.612783	0.078419	0.905062
	H117	H	0.383584	0.072908	0.089102
	H118	H	0.610372	0.890614	0.091802
	H119	H	0.381011	0.894720	0.897655
	C120	C	0.375096	-0.008423	0.618516
	C121	C	0.618081	0.974420	0.618346
	C122	C	0.618114	-0.008963	0.377515
	C123	C	0.374604	0.973265	0.377483
	C124	C	0.618106	0.361428	0.008299
	C125	C	0.616758	0.603089	0.991155
	C126	C	0.374205	0.603837	0.007558
	C127	C	0.374389	0.361817	0.990367
	C128	C	0.003414	0.604352	0.377889
	C129	C	0.987345	0.605705	0.621875
	C130	C	0.003220	0.361260	0.620866
	C131	C	0.987579	0.361175	0.376880
	C132	C	0.874962	0.491593	0.119838
	C133	C	0.117885	0.474944	0.119936
	C134	C	0.116934	0.491715	0.878548
	C135	C	0.873476	0.473730	0.878488
	C136	C	0.117636	0.862404	0.506709
	C137	C	0.118088	0.104329	0.488947
	C138	C	0.874892	0.103730	0.506407
	C139	C	0.875097	0.862438	0.490008
	C140	C	0.504983	0.104243	0.876540
	C141	C	0.488760	0.104386	0.121072
	C142	C	0.504023	0.860785	0.120894
	C143	C	0.488484	0.860410	0.875690
	C144	C	0.374970	0.870047	0.676107
	C145	C	0.618492	0.095873	0.676784
	C146	C	0.616764	0.869012	0.319562
	C147	C	0.375021	0.094827	0.319145
	C148	C	0.677399	0.358388	0.888001
	C149	C	0.676019	0.606393	0.111807
	C150	C	0.314844	0.606393	0.886985
	C151	C	0.314419	0.359170	0.110456
	C152	C	0.883885	0.663007	0.377228
	C153	C	0.107270	0.663839	0.621581
	C154	C	0.883724	0.301998	0.621392
	C155	C	0.107154	0.303083	0.376527
	C156	C	0.883803	0.360047	0.679752
	C157	C	0.107149	0.605881	0.680029
	C158	C	0.884374	0.606175	0.317999
	C159	C	0.106669	0.360133	0.317474
	C160	C	0.374101	0.661892	0.886191
	C161	C	0.616051	0.661809	0.112818
	C162	C	0.618638	0.302228	0.887249
	C163	C	0.374979	0.304634	0.112122
	C164	C	0.676985	0.870364	0.374223
	C165	C	0.677287	0.095256	0.620834
	C166	C	0.315250	0.871223	0.620846
	C167	C	0.315960	0.094350	0.374518
	C168	C	0.874077	0.370497	0.178171
	C169	C	0.119727	0.595350	0.180501
	C170	C	0.115898	0.369836	0.820106
	C171	C	0.874008	0.595880	0.821423
	C172	C	0.176363	0.859090	0.385987
	C173	C	0.176951	0.107015	0.609631
	C174	C	0.815593	0.106445	0.386065
	C175	C	0.815600	0.860051	0.610361
	C176	C	0.385427	0.162463	0.876521
	C177	C	0.607505	0.164663	0.123047
	C178	C	0.384566	0.802328	0.120883
	C179	C	0.607675	0.801361	0.876046
	C180	C	0.384859	0.859604	0.179534
	C181	C	0.607411	0.106426	0.180997
	C182	C	0.385998	0.105531	0.816787
	C183	C	0.607873	0.858884	0.817064
	C184	C	0.875134	0.162035	0.385004
	C185	C	0.116687	0.161766	0.610842
	C186	C	0.117896	0.802237	0.385829
	C187	C	0.875087	0.804845	0.611511
	C188	C	0.175717	0.370982	0.874983
	C189	C	0.178086	0.594986	0.123647
	C190	C	0.814900	0.371235	0.123022
	C191	C	0.814963	0.594837	0.877466
	C192	C	0.399402	0.075942	0.593661
	C193	C	0.593961	0.889717	0.593426
	C194	C	0.594690	0.075465	0.402625
	C195	C	0.397897	0.889070	0.402375
	C196	C	0.593620	0.387483	0.092352
	C197	C	0.592873	0.577673	0.907219
	C198	C	0.398375	0.578724	0.091172
	C199	C	0.398485	0.386322	0.906307
	C200	C	0.086305	0.579622	0.402625
	C201	C	0.903921	0.581471	0.597891
	C202	C	0.086439	0.385257	0.597124
	C203	C	0.904507	0.385349	0.401172
	C204	C	0.899257	0.575931	0.094849
	C205	C	0.092664	0.391079	0.093742
	C206	C	0.093338	0.576166	0.903646
	C207	C	0.897562	0.389231	0.902416
	C208	C	0.093789	0.887809	0.590664
	C209	C	0.094365	0.079282	0.404344
	C210	C	0.898926	0.078978	0.590548
	C211	C	0.899061	0.886846	0.405810
	C212	C	0.587742	0.079987	0.900875
	C213	C	0.405723	0.079227	0.096233
	C214	C	0.587440	0.885390	0.096455
	C215	C	0.405373	0.884881	0.899589
	Zn216	Zn	0.497367	-0.017804	0.745922
	Zn217	Zn	0.496215	-0.018017	0.250623
	Zn218	Zn	0.746274	0.482783	0.000142
	Zn219	Zn	0.246226	0.483119	-0.001824
	Zn220	Zn	-0.004292	0.734453	0.499024
	Zn221	Zn	-0.004138	0.231651	0.498390
	Zn222	Zn	-0.004706	0.483081	0.751096
	Zn223	Zn	-0.004344	0.483310	0.247611
	Zn224	Zn	0.495600	0.731429	-0.001012
	Zn225	Zn	0.496387	0.234126	-0.000759
	Zn226	Zn	0.746513	-0.017582	0.497760
	Zn227	Zn	0.246081	-0.016764	0.497561
	N228	N	0.411503	0.945949	0.674745
	N229	N	0.582463	0.019735	0.675330
	N230	N	0.580995	0.945029	0.321558
	N231	N	0.410965	0.018764	0.320962
	N232	N	0.677192	0.394629	0.964294
	N233	N	0.676695	0.570562	0.035365
	N234	N	0.314600	0.571177	0.963438
	N235	N	0.313544	0.393677	0.033531
	N236	N	0.958904	0.662167	0.413554
	N237	N	0.031809	0.663830	0.586317
	N238	N	0.958933	0.302330	0.585693
	N239	N	0.032073	0.303462	0.412417
	N240	N	0.958894	0.396598	0.679381
	N241	N	0.031456	0.570527	0.680525
	N242	N	0.959764	0.570474	0.318191
	N243	N	0.031407	0.395571	0.317502
	N244	N	0.410206	0.660642	0.962122
	N245	N	0.580151	0.660176	0.036689
	N246	N	0.582593	0.303996	0.963183
	N247	N	0.411567	0.306076	0.036507
	N248	N	0.678241	0.947406	0.409197
	N249	N	0.677059	0.018516	0.585199
	N250	N	0.315102	0.948005	0.585703
	N251	N	0.315489	0.017910	0.410033
	N252	N	0.910762	0.446379	0.176215
	N253	N	0.082950	0.519609	0.178231
	N254	N	0.079971	0.445980	0.822119
	N255	N	0.909431	0.519565	0.821760
	N256	N	0.176373	0.895784	0.462024
	N257	N	0.177896	0.072089	0.532689
	N258	N	0.815436	0.070789	0.462412
	N259	N	0.815245	0.894863	0.533646
	N260	N	0.460355	0.162093	0.912996
	N261	N	0.532652	0.163420	0.086253
	N262	N	0.459697	0.803171	0.084914
	N263	N	0.532441	0.801985	0.911742
	N264	N	0.460299	0.895218	0.179519
	N265	N	0.532537	0.069644	0.179822
	N266	N	0.461284	0.070259	0.816553
	N267	N	0.532748	0.894735	0.816631
	N268	N	0.911301	0.160377	0.460820
	N269	N	0.081006	0.160308	0.534738
	N270	N	0.081964	0.804233	0.461783
	N271	N	0.911568	0.806273	0.535831
	N272	N	0.176471	0.447778	0.910396
	N273	N	0.177052	0.518896	0.086524
	N274	N	0.815316	0.447829	0.087519
	N275	N	0.814269	0.517736	0.911709
	O276	O	1.077763	0.963391	-0.167821
	H277	H	1.077748	0.973213	-0.181762
	H278	H	1.086457	0.976517	-0.162211
	O279	O	0.378134	0.602634	0.663066
	H280	H	0.399718	0.613757	0.655694
	H281	H	0.384686	0.604212	0.658694
	O282	O	0.433848	0.290410	0.669626
	H283	H	0.435489	0.273048	0.653958
	H284	H	0.415735	0.279629	0.669279
	O285	O	1.101445	-0.147790	0.072642
	H286	H	1.096698	-0.148692	0.066825
	H287	H	1.097246	-0.153690	0.071167
	O288	O	-0.124309	0.016193	0.885589
	H289	H	-0.143016	0.027098	0.876538
	H290	H	-0.131022	0.016625	0.883060
	O291	O	0.615599	0.313985	0.374074
	H292	H	0.623612	0.307332	0.375913
	H293	H	0.617701	0.311764	0.380442
	O294	O	1.012949	0.947293	1.074924
	H295	H	1.022295	0.934276	1.081036
	H296	H	1.010850	0.943918	1.073686
	O297	O	0.815530	1.008836	1.121438
	H298	H	0.798393	0.998947	1.133861
	H299	H	0.838077	1.008379	1.132266
	O300	O	0.081400	0.169294	0.154295
	H301	H	0.077216	0.173994	0.144287
	H302	H	0.076482	0.182369	0.180978
	O303	O	0.479540	0.639767	0.535985
	H304	H	0.468727	0.632724	0.535585
	H305	H	0.480077	0.633790	0.552615
	O306	O	0.825084	0.080323	-0.067224
	H307	H	0.821133	0.080956	-0.051688
	H308	H	0.820094	0.092706	-0.072881
	O309	O	0.658964	0.450356	0.640879
	H310	H	0.635172	0.430720	0.636135
	H311	H	0.671024	0.442891	0.662302
	O312	O	1.090178	1.019754	0.023022
	H313	H	1.087059	1.021979	0.033987
	H314	H	1.088610	1.011290	0.016835
	O315	O	0.320932	0.455695	0.483254
	H316	H	0.316381	0.439134	0.498015
	H317	H	0.329194	0.447013	0.492372
	O318	O	0.679824	0.642111	0.633883
	H319	H	0.689210	0.635798	0.606767
	H320	H	0.698441	0.615917	0.646467
	O321	O	1.156371	-0.020116	0.940879
	H322	H	1.149433	-0.013582	0.942851
	H323	H	1.147185	-0.011154	0.937515
	O324	O	0.380099	0.362164	0.693384
	H325	H	0.377665	0.370112	0.680554
	H326	H	0.386775	0.350342	0.705869
	O327	O	1.154674	1.161366	0.952991
	H328	H	1.164736	1.170722	0.951808
	H329	H	1.160452	1.154659	0.980164
	O330	O	0.610149	0.437030	0.411920
	H331	H	0.605378	0.437542	0.410398
	H332	H	0.614791	0.430003	0.427254
	O333	O	0.950419	0.820022	0.825404
	H334	H	0.957554	0.817170	0.813136
	H335	H	0.969249	0.814063	0.825894
	O336	O	0.580235	0.646901	0.449963
	H337	H	0.587348	0.653876	0.464328
	H338	H	0.574786	0.666533	0.445885
	O339	O	0.898818	0.041179	0.797682
	H340	H	0.896432	0.055142	0.805749
	H341	H	0.902606	0.032289	0.791787
	O342	O	-0.097496	1.017484	1.042452
	H343	H	-0.107965	1.003765	1.052734
	H344	H	-0.098010	1.007659	1.035335
	O345	O	-0.308832	1.374929	1.365322
	H346	H	-0.303040	1.373527	1.365392
	H347	H	-0.315088	1.390173	1.363211
	O348	O	0.400626	0.502344	0.547859
	H349	H	0.385024	0.502724	0.556319
	H350	H	0.390450	0.520840	0.548222
	O351	O	0.397583	-0.535868	-0.380398
	H352	H	0.413507	-0.544374	-0.385294
	H353	H	0.383896	-0.536964	-0.365188
	O354	O	1.018705	1.079553	-0.076734
	H355	H	1.012817	1.077045	-0.076584
	H356	H	1.016461	1.080697	-0.061911
	O357	O	-0.132980	0.940971	0.111608
	H358	H	-0.125019	0.939617	0.107240
	H359	H	-0.142198	0.933584	0.106535
	O360	O	-0.065192	0.812433	0.892237
	H361	H	-0.060963	0.812337	0.907361
	H362	H	-0.050876	0.826010	0.883440
	O363	O	0.442629	0.620405	0.338022
	H364	H	0.425606	0.625496	0.353177
	H365	H	0.459648	0.631647	0.346783
	O366	O	0.191345	1.073616	-0.154068
	H367	H	0.180957	1.081300	-0.143535
	H368	H	0.192908	1.081193	-0.144219
	O369	O	0.302229	0.323382	0.478701
	H370	H	0.317604	0.315838	0.468174
	H371	H	0.290111	0.328182	0.479525
	O372	O	0.546860	0.680251	0.692236
	H373	H	0.587563	0.666972	0.675651
	H374	H	0.553216	0.708633	0.722454
	O375	O	0.413671	0.635713	0.347112
	H376	H	0.423093	0.639249	0.356186
	H377	H	0.410410	0.622019	0.350400
	O378	O	0.669009	0.512577	0.366546
	H379	H	0.667490	0.507224	0.373170
	H380	H	0.682842	0.511162	0.370391
	O381	O	0.356291	0.580035	0.400530
	H382	H	0.357919	0.573676	0.403256
	H383	H	0.345273	0.566456	0.408657
	O384	O	0.176521	1.158546	1.188288
	H385	H	0.157183	1.145077	1.201555
	H386	H	0.172386	1.141155	1.197117
	O387	O	1.104882	0.841376	0.072020
	H388	H	1.116861	0.828487	0.080608
	H389	H	1.101231	0.846305	0.060917
	O390	O	0.356897	0.428046	0.347326
	H391	H	0.362328	0.443246	0.338938
	H392	H	0.355112	0.449396	0.334279
	O393	O	0.886287	-0.079130	0.952982
	H394	H	0.898261	-0.087432	0.942428
	H395	H	0.897253	-0.070623	0.952874
	O396	O	0.200164	0.826371	0.893952
	H397	H	0.211977	0.831034	0.884812
	H398	H	0.214598	0.839729	0.899207
	O399	O	0.342600	0.434262	0.578736
	H400	H	0.337721	0.428894	0.574252
	H401	H	0.344720	0.416363	0.585967
	O402	O	1.570021	0.397231	0.658401
	H403	H	1.548723	0.377079	0.655187
	H404	H	1.540390	0.410861	0.658696
	O405	O	-0.111401	-0.085250	0.168799
	H406	H	-0.113313	-0.091651	0.155009
	H407	H	-0.113610	-0.073365	0.175120
	O408	O	0.597461	1.313387	0.445983
	H409	H	0.604915	1.316115	0.450594
	H410	H	0.600684	1.322345	0.453143
	O411	O	0.942340	1.125083	-0.134691
	H412	H	0.957358	1.114469	-0.131675
	H413	H	0.946016	1.126980	-0.127202
	O414	O	-0.434120	-0.494880	1.388209
	H415	H	-0.455286	-0.482289	1.396985
	H416	H	-0.439062	-0.510665	1.377988
	O417	O	0.511064	0.289537	0.475882
	H418	H	0.502116	0.298925	0.449116
	H419	H	0.513099	0.281719	0.476057
	O420	O	-0.077718	1.083863	0.101670
	H421	H	-0.074036	1.079458	0.111840
	H422	H	-0.085606	1.085866	0.107616
	O423	O	0.934906	-0.164507	0.096983
	H424	H	0.932337	-0.157712	0.088862
	H425	H	0.935845	-0.167352	0.099495
	O426	O	0.007094	-0.128884	1.087893
	H427	H	0.000173	-0.138988	1.083735
	H428	H	-0.003097	-0.131032	1.096848
	O429	O	0.636945	0.543155	0.465849
	H430	H	0.634561	0.523328	0.467398
	H431	H	0.639990	0.548813	0.476835
