data_Molecule from HDF5

_cell_length_a		16.217621
_cell_length_b		16.346121
_cell_length_c		16.329171
_cell_angle_alpha	89.949210
_cell_angle_beta	90.102005
_cell_angle_gamma	90.056010
_symmetry_space_group_name_H-M	'P 1'
_symmetry_Int_Tables_number		1

loop_
	_symmetry_equiv_pos_as_xyz
	x,y,z

loop_
	_atom_site_label
	_atom_site_type_symbol
	_atom_site_fract_x
	_atom_site_fract_y
	_atom_site_fract_z
	H0	H	0.403910	0.848624	0.703312
	H1	H	0.604746	0.174736	0.703240
	H2	H	0.604404	0.848325	0.272605
	H3	H	0.405522	0.174466	0.271462
	H4	H	0.719108	0.411056	0.824447
	H5	H	0.718386	0.607135	0.151552
	H6	H	0.290418	0.607202	0.824446
	H7	H	0.290754	0.413110	0.150957
	H8	H	0.840028	0.725242	0.388842
	H9	H	0.168630	0.726791	0.587028
	H10	H	0.841134	0.296946	0.586522
	H11	H	0.168748	0.298743	0.389107
	H12	H	0.840787	0.412223	0.701900
	H13	H	0.168225	0.611203	0.702936
	H14	H	0.840462	0.610123	0.272483
	H15	H	0.168393	0.414607	0.273819
	H16	H	0.403570	0.725628	0.824375
	H17	H	0.604770	0.726122	0.150214
	H18	H	0.603550	0.294905	0.825010
	H19	H	0.404347	0.294339	0.150685
	H20	H	0.719174	0.848040	0.390008
	H21	H	0.718743	0.175411	0.584209
	H22	H	0.289823	0.848196	0.584542
	H23	H	0.291248	0.174797	0.388889
	H24	H	0.905069	0.348187	0.203183
	H25	H	0.103763	0.674659	0.201665
	H26	H	0.104689	0.348855	0.770399
	H27	H	0.905932	0.674280	0.773410
	H28	H	0.216469	0.916376	0.322712
	H29	H	0.218851	0.109216	0.650795
	H30	H	0.791347	0.109196	0.323451
	H31	H	0.792499	0.915755	0.650744
	H32	H	0.340495	0.225928	0.887057
	H33	H	0.668643	0.225306	0.085546
	H34	H	0.339922	0.796508	0.085574
	H35	H	0.668189	0.795715	0.888837
	H36	H	0.340790	0.912271	0.201506
	H37	H	0.669017	0.109053	0.200876
	H38	H	0.340742	0.108351	0.773448
	H39	H	0.669344	0.912721	0.773885
	H40	H	0.905789	0.227124	0.323819
	H41	H	0.105465	0.229228	0.649385
	H42	H	0.104467	0.795870	0.324377
	H43	H	0.905189	0.796592	0.649756
	H44	H	0.218223	0.347300	0.889815
	H45	H	0.219467	0.674288	0.084495
	H46	H	0.791218	0.346857	0.083997
	H47	H	0.789461	0.673565	0.889228
	H48	H	0.413589	0.125430	0.576853
	H49	H	0.601564	0.897455	0.573457
	H50	H	0.592209	0.124498	0.395266
	H51	H	0.422328	0.897822	0.392448
	H52	H	0.597501	0.414357	0.104235
	H53	H	0.605840	0.599883	0.870104
	H54	H	0.407822	0.592876	0.101984
	H55	H	0.402092	0.421815	0.870112
	H56	H	0.125477	0.616119	0.395619
	H57	H	0.887398	0.603103	0.581697
	H58	H	0.119311	0.415873	0.572041
	H59	H	0.891402	0.427106	0.400533
	H60	H	0.117977	0.429483	0.578327
	H61	H	0.886628	0.607541	0.580875
	H62	H	0.116505	0.598952	0.404577
	H63	H	0.884549	0.420272	0.384878
	H64	H	0.424634	0.606314	0.100588
	H65	H	0.589610	0.598426	0.875669
	H66	H	0.599758	0.417609	0.104018
	H67	H	0.419464	0.422096	0.875864
	H68	H	0.602753	0.128305	0.396235
	H69	H	0.603353	0.892410	0.587420
	H70	H	0.409877	0.127848	0.580836
	H71	H	0.406650	0.897449	0.403206
	H72	H	0.909199	0.626802	0.076918
	H73	H	0.098585	0.393146	0.088138
	H74	H	0.099689	0.627632	0.891920
	H75	H	0.904111	0.392152	0.892968
	H76	H	0.094310	0.911805	0.604439
	H77	H	0.107103	0.099607	0.370227
	H78	H	0.920342	0.110579	0.602376
	H79	H	0.915549	0.907747	0.367980
	H80	H	0.620278	0.109375	0.904933
	H81	H	0.385516	0.103213	0.086353
	H82	H	0.619813	0.919653	0.077713
	H83	H	0.387398	0.921152	0.890077
	H84	H	0.622292	0.917972	0.082701
	H85	H	0.386561	0.110134	0.076476
	H86	H	0.618120	0.093053	0.893558
	H87	H	0.386291	0.913237	0.894137
	H88	H	0.904706	0.109568	0.606995
	H89	H	0.088416	0.102283	0.374697
	H90	H	0.104991	0.919101	0.604387
	H91	H	0.901268	0.920005	0.368436
	H92	H	0.094029	0.625869	0.893523
	H93	H	0.090874	0.397218	0.079935
	H94	H	0.908688	0.628769	0.084434
	H95	H	0.916883	0.394433	0.887600
	H96	H	0.415905	0.126475	0.582876
	H97	H	0.589914	0.897859	0.582261
	H98	H	0.597325	0.129107	0.386293
	H99	H	0.405647	0.891838	0.385324
	H100	H	0.596132	0.418222	0.103201
	H101	H	0.595834	0.613404	0.869157
	H102	H	0.405587	0.613123	0.108628
	H103	H	0.412033	0.406902	0.868966
	H104	H	0.122374	0.598405	0.383855
	H105	H	0.888803	0.605141	0.577959
	H106	H	0.124400	0.417750	0.585905
	H107	H	0.886104	0.410230	0.399777
	H108	H	0.915621	0.625765	0.081365
	H109	H	0.102150	0.394994	0.076305
	H110	H	0.098822	0.625881	0.897637
	H111	H	0.914562	0.397983	0.900790
	H112	H	0.093181	0.923811	0.600222
	H113	H	0.098580	0.116740	0.367308
	H114	H	0.912053	0.096266	0.600197
	H115	H	0.918210	0.925165	0.374706
	H116	H	0.626391	0.109345	0.885584
	H117	H	0.390290	0.098118	0.076336
	H118	H	0.622122	0.914239	0.078439
	H119	H	0.389724	0.920181	0.898820
	C120	C	0.383678	0.019050	0.608872
	C121	C	0.626545	1.003591	0.609131
	C122	C	0.626410	0.019523	0.364968
	C123	C	0.382999	1.003293	0.364723
	C124	C	0.625923	0.388579	-0.004134
	C125	C	0.625999	0.632310	0.979481
	C126	C	0.383187	0.632350	-0.003957
	C127	C	0.382776	0.388597	0.979506
	C128	C	0.012941	0.633231	0.365787
	C129	C	0.996067	0.633711	0.609109
	C130	C	0.012849	0.391080	0.608345
	C131	C	0.995630	0.390735	0.366086
	C132	C	0.883214	0.519125	0.108696
	C133	C	0.126164	0.502984	0.109327
	C134	C	0.126134	0.518907	0.865555
	C135	C	0.882927	0.502545	0.865379
	C136	C	0.126055	0.890483	0.495152
	C137	C	0.126684	0.134365	0.478648
	C138	C	0.883595	0.133840	0.495180
	C139	C	0.883277	0.889875	0.478604
	C140	C	0.513100	0.132541	0.866045
	C141	C	0.496153	0.131991	0.107876
	C142	C	0.513099	0.889065	0.108496
	C143	C	0.496388	0.889734	0.865985
	C144	C	0.384380	0.897153	0.664882
	C145	C	0.624466	0.126247	0.664422
	C146	C	0.624300	0.896865	0.310554
	C147	C	0.385359	0.125640	0.309418
	C148	C	0.680942	0.391077	0.873061
	C149	C	0.680835	0.628399	0.102415
	C150	C	0.328107	0.628518	0.873174
	C151	C	0.328304	0.391875	0.102408
	C152	C	0.889271	0.687883	0.368355
	C153	C	0.119789	0.688626	0.606915
	C154	C	0.889729	0.335335	0.606168
	C155	C	0.119511	0.336274	0.368593
	C156	C	0.889612	0.392696	0.663610
	C157	C	0.119596	0.631283	0.664612
	C158	C	0.889348	0.630436	0.310698
	C159	C	0.119509	0.393783	0.311433
	C160	C	0.384391	0.687315	0.873189
	C161	C	0.624343	0.687605	0.101827
	C162	C	0.623759	0.333210	0.873338
	C163	C	0.384845	0.333068	0.102086
	C164	C	0.681487	0.896836	0.369001
	C165	C	0.681259	0.126686	0.605629
	C166	C	0.327436	0.896901	0.606031
	C167	C	0.328579	0.126034	0.368031
	C168	C	0.885044	0.396492	0.164503
	C169	C	0.124341	0.625810	0.164178
	C170	C	0.124552	0.396979	0.809349
	C171	C	0.885279	0.625602	0.811034
	C172	C	0.180190	0.894336	0.371957
	C173	C	0.181794	0.130970	0.601722
	C174	C	0.828844	0.130464	0.372209
	C175	C	0.829225	0.894048	0.601648
	C176	C	0.389600	0.187867	0.867767
	C177	C	0.619761	0.187371	0.105796
	C178	C	0.389229	0.834316	0.106045
	C179	C	0.619522	0.834051	0.868569
	C180	C	0.389712	0.891582	0.163633
	C181	C	0.619959	0.129578	0.162843
	C182	C	0.389573	0.129664	0.810924
	C183	C	0.620198	0.892377	0.811565
	C184	C	0.886085	0.188739	0.372410
	C185	C	0.124759	0.189709	0.601340
	C186	C	0.124311	0.834764	0.372624
	C187	C	0.885583	0.834953	0.601290
	C188	C	0.180853	0.396241	0.868702
	C189	C	0.181354	0.625767	0.105596
	C190	C	0.828734	0.395758	0.105269
	C191	C	0.827526	0.625063	0.868518
	C192	C	0.406509	0.104741	0.586709
	C193	C	0.604780	0.918037	0.587441
	C194	C	0.604136	0.105335	0.386395
	C195	C	0.405028	0.917686	0.386964
	C196	C	0.604099	0.410320	0.081596
	C197	C	0.603553	0.610539	0.893730
	C198	C	0.406046	0.610462	0.081613
	C199	C	0.404860	0.410423	0.893839
	C200	C	0.099222	0.611173	0.387908
	C201	C	0.910005	0.611607	0.586731
	C202	C	0.098467	0.414265	0.585398
	C203	C	0.909633	0.412878	0.388296
	C204	C	0.904956	0.604701	0.087372
	C205	C	0.103715	0.417312	0.087818
	C206	C	0.103967	0.604573	0.887693
	C207	C	0.905253	0.416878	0.887189
	C208	C	0.104068	0.912047	0.581056
	C209	C	0.104610	0.112705	0.392919
	C210	C	0.905840	0.111829	0.581005
	C211	C	0.905201	0.911374	0.392516
	C212	C	0.599420	0.110426	0.888185
	C213	C	0.409868	0.110041	0.086090
	C214	C	0.599151	0.910890	0.086336
	C215	C	0.409986	0.911747	0.887825
	Zn216	Zn	0.505251	0.011372	0.738117
	Zn217	Zn	0.504825	0.010980	0.236048
	Zn218	Zn	0.754332	0.510071	-0.012839
	Zn219	Zn	0.254967	0.510619	-0.012188
	Zn220	Zn	0.004963	0.761624	0.487116
	Zn221	Zn	0.004758	0.262885	0.486981
	Zn222	Zn	0.004373	0.511820	0.736776
	Zn223	Zn	0.004479	0.511488	0.238053
	Zn224	Zn	0.504130	0.761007	-0.012775
	Zn225	Zn	0.504785	0.260531	-0.012531
	Zn226	Zn	0.755095	0.012168	0.486839
	Zn227	Zn	0.254697	0.011820	0.486910
	N228	N	0.418747	0.974202	0.666401
	N229	N	0.591204	0.048800	0.666724
	N230	N	0.590949	0.974132	0.307894
	N231	N	0.418520	0.048157	0.307364
	N232	N	0.682284	0.424931	0.950208
	N233	N	0.681904	0.594587	0.025252
	N234	N	0.327401	0.594885	0.950461
	N235	N	0.326842	0.425658	0.025194
	N236	N	0.967087	0.689669	0.402174
	N237	N	0.042287	0.689909	0.572635
	N238	N	0.967493	0.334027	0.572738
	N239	N	0.041633	0.334316	0.401810
	N240	N	0.967186	0.426927	0.664890
	N241	N	0.041614	0.597985	0.666210
	N242	N	0.967243	0.597236	0.309056
	N243	N	0.041596	0.427043	0.309931
	N244	N	0.417898	0.689971	0.950621
	N245	N	0.591000	0.690156	0.024394
	N246	N	0.590161	0.331791	0.950612
	N247	N	0.418004	0.330880	0.024619
	N248	N	0.682707	0.974169	0.402299
	N249	N	0.682599	0.049678	0.571734
	N250	N	0.327068	0.973875	0.571807
	N251	N	0.327046	0.048990	0.401857
	N252	N	0.918145	0.474076	0.166873
	N253	N	0.090561	0.548439	0.166509
	N254	N	0.091371	0.474329	0.807407
	N255	N	0.919017	0.548363	0.809035
	N256	N	0.181280	0.928288	0.449064
	N257	N	0.183058	0.097106	0.524572
	N258	N	0.827477	0.096847	0.449460
	N259	N	0.827505	0.927259	0.524155
	N260	N	0.467593	0.189739	0.901345
	N261	N	0.541900	0.188880	0.072329
	N262	N	0.466904	0.832643	0.072352
	N263	N	0.541484	0.832293	0.901579
	N264	N	0.467697	0.924715	0.165410
	N265	N	0.542263	0.095733	0.164220
	N266	N	0.467161	0.096033	0.809850
	N267	N	0.542375	0.925886	0.809683
	N268	N	0.919133	0.191029	0.450032
	N269	N	0.091541	0.192095	0.523839
	N270	N	0.091334	0.832319	0.450226
	N271	N	0.918582	0.832401	0.523763
	N272	N	0.181878	0.473058	0.903159
	N273	N	0.182642	0.548627	0.072392
	N274	N	0.827483	0.472774	0.071192
	N275	N	0.825656	0.547620	0.901391
	O276	O	0.471395	-0.461322	1.539127
	H277	H	0.467215	-0.471906	1.541063
	H278	H	0.473747	-0.455624	1.550772
	O279	O	0.515225	0.579294	0.519514
	H280	H	0.520607	0.590855	0.517923
	H281	H	0.522738	0.570658	0.517707
	O282	O	-0.506759	0.536291	1.537201
	H283	H	-0.522450	0.544936	1.539747
	H284	H	-0.513079	0.538851	1.542558
	O285	O	0.504294	0.461188	0.562630
	H286	H	0.498612	0.455326	0.564236
	H287	H	0.504304	0.463654	0.565940
	O288	O	0.515559	0.517999	0.521341
	H289	H	0.515519	0.516387	0.523819
	H290	H	0.516279	0.517376	0.505524
	O291	O	0.485582	0.492231	0.485772
	H292	H	0.493498	0.499359	0.498342
	H293	H	0.476805	0.491520	0.488390
	O294	O	0.478243	0.490460	0.545301
	H295	H	0.492673	0.492044	0.541473
	H296	H	0.475311	0.492771	0.537628
	O297	O	0.489686	-0.521802	0.520758
	H298	H	0.483252	-0.514146	0.523526
	H299	H	0.497377	-0.531100	0.520500
