data_Molecule from HDF5

_cell_length_a		16.269326
_cell_length_b		16.346112
_cell_length_c		16.166909
_cell_angle_alpha	89.781612
_cell_angle_beta	89.836556
_cell_angle_gamma	90.246223
_symmetry_space_group_name_H-M	'P 1'
_symmetry_Int_Tables_number		1

loop_
	_symmetry_equiv_pos_as_xyz
	x,y,z

loop_
	_atom_site_label
	_atom_site_type_symbol
	_atom_site_fract_x
	_atom_site_fract_y
	_atom_site_fract_z
	H0	H	0.416067	0.835964	0.709780
	H1	H	0.612150	0.163433	0.705271
	H2	H	0.613183	0.834987	0.280296
	H3	H	0.419680	0.162357	0.280035
	H4	H	0.730273	0.402387	0.830136
	H5	H	0.730600	0.597776	0.159442
	H6	H	0.303781	0.596650	0.829342
	H7	H	0.302441	0.398452	0.159234
	H8	H	0.851998	0.713827	0.393485
	H9	H	0.177981	0.715671	0.594850
	H10	H	0.852839	0.281669	0.595103
	H11	H	0.178802	0.283219	0.393858
	H12	H	0.852135	0.399440	0.709247
	H13	H	0.179256	0.596867	0.706974
	H14	H	0.851509	0.595814	0.279525
	H15	H	0.180565	0.402274	0.281428
	H16	H	0.416582	0.714442	0.830394
	H17	H	0.616581	0.714303	0.158353
	H18	H	0.615662	0.287136	0.829059
	H19	H	0.416900	0.282839	0.158423
	H20	H	0.731112	0.835639	0.393524
	H21	H	0.731990	0.161535	0.591190
	H22	H	0.298411	0.836460	0.595455
	H23	H	0.301494	0.162092	0.394332
	H24	H	0.916786	0.335065	0.209424
	H25	H	0.114762	0.661832	0.206904
	H26	H	0.112543	0.334752	0.780271
	H27	H	0.919036	0.661847	0.779198
	H28	H	0.229595	0.901478	0.329521
	H29	H	0.228147	0.096038	0.659456
	H30	H	0.803696	0.096937	0.328971
	H31	H	0.799742	0.898696	0.657680
	H32	H	0.352503	0.213740	0.895805
	H33	H	0.680301	0.213816	0.092528
	H34	H	0.354036	0.780164	0.096225
	H35	H	0.679857	0.784741	0.893126
	H36	H	0.351922	0.900611	0.208033
	H37	H	0.680836	0.097234	0.207976
	H38	H	0.350942	0.095533	0.781733
	H39	H	0.680102	0.904023	0.780199
	H40	H	0.915498	0.214906	0.330678
	H41	H	0.114737	0.212967	0.658757
	H42	H	0.114729	0.784798	0.329487
	H43	H	0.914347	0.783288	0.658124
	H44	H	0.230849	0.334796	0.895113
	H45	H	0.232616	0.661039	0.093016
	H46	H	0.798212	0.336237	0.095960
	H47	H	0.801801	0.661571	0.894039
	H48	H	0.428448	0.117052	0.598434
	H49	H	0.614346	0.880236	0.588886
	H50	H	0.612596	0.114461	0.401842
	H51	H	0.422962	0.879842	0.392099
	H52	H	0.609051	0.411186	0.110810
	H53	H	0.607135	0.585757	0.880579
	H54	H	0.426164	0.587824	0.109699
	H55	H	0.416132	0.401288	0.873799
	H56	H	0.130261	0.588356	0.400995
	H57	H	0.900109	0.589578	0.583570
	H58	H	0.134530	0.403165	0.592148
	H59	H	0.896404	0.399220	0.397911
	H60	H	0.133076	0.400335	0.581889
	H61	H	0.899118	0.588735	0.588339
	H62	H	0.134332	0.595800	0.396671
	H63	H	0.901664	0.403599	0.411299
	H64	H	0.425333	0.591824	0.111376
	H65	H	0.604560	0.598249	0.876363
	H66	H	0.601890	0.403261	0.111125
	H67	H	0.423965	0.413732	0.878757
	H68	H	0.609074	0.115114	0.397646
	H69	H	0.602596	0.883511	0.591667
	H70	H	0.426588	0.110053	0.576440
	H71	H	0.429008	0.887258	0.407957
	H72	H	0.929787	0.614268	0.093388
	H73	H	0.109951	0.380840	0.091810
	H74	H	0.112307	0.613825	0.903842
	H75	H	0.919815	0.382946	0.906861
	H76	H	0.107463	0.908488	0.610588
	H77	H	0.106057	0.090004	0.378626
	H78	H	0.911262	0.083979	0.612497
	H79	H	0.920883	0.910542	0.377073
	H80	H	0.633787	0.097053	0.899498
	H81	H	0.401368	0.083523	0.090469
	H82	H	0.633681	0.903672	0.086400
	H83	H	0.400863	0.911642	0.901230
	H84	H	0.632429	0.907031	0.083801
	H85	H	0.396425	0.098340	0.092102
	H86	H	0.631782	0.092886	0.901329
	H87	H	0.396866	0.900660	0.897724
	H88	H	0.933317	0.082858	0.607294
	H89	H	0.107294	0.095621	0.376390
	H90	H	0.103674	0.903888	0.610259
	H91	H	0.928228	0.903925	0.377500
	H92	H	0.113437	0.615525	0.897848
	H93	H	0.105566	0.382925	0.086543
	H94	H	0.927061	0.610729	0.078673
	H95	H	0.920165	0.381279	0.898818
	H96	H	0.409307	0.119102	0.587230
	H97	H	0.606547	0.885249	0.580010
	H98	H	0.607554	0.112558	0.402865
	H99	H	0.411150	0.881269	0.405873
	H100	H	0.612007	0.401033	0.114221
	H101	H	0.616598	0.593713	0.874332
	H102	H	0.422953	0.588575	0.111838
	H103	H	0.430776	0.399993	0.876613
	H104	H	0.131458	0.596565	0.405479
	H105	H	0.897366	0.592784	0.586917
	H106	H	0.130010	0.410371	0.584960
	H107	H	0.901538	0.413064	0.399952
	H108	H	0.915712	0.616628	0.086442
	H109	H	0.113025	0.381939	0.085295
	H110	H	0.107787	0.613309	0.899860
	H111	H	0.926185	0.383595	0.902048
	H112	H	0.108632	0.903039	0.612801
	H113	H	0.112209	0.090997	0.376754
	H114	H	0.924115	0.102903	0.614684
	H115	H	0.919841	0.900670	0.373768
	H116	H	0.633991	0.092742	0.896877
	H117	H	0.402897	0.093276	0.078206
	H118	H	0.632457	0.908057	0.087476
	H119	H	0.401212	0.902654	0.909430
	C120	C	0.392757	0.007592	0.616552
	C121	C	0.637156	0.990701	0.615063
	C122	C	0.637903	0.006537	0.371946
	C123	C	0.393306	0.990631	0.372708
	C124	C	0.636804	0.377899	0.003070
	C125	C	0.638134	0.621190	0.985777
	C126	C	0.395859	0.619007	0.002626
	C127	C	0.394937	0.376476	0.985627
	C128	C	0.023603	0.620960	0.371777
	C129	C	1.006683	0.619837	0.615094
	C130	C	0.024526	0.375789	0.616196
	C131	C	1.007632	0.377041	0.373347
	C132	C	0.894214	0.506676	0.116362
	C133	C	0.138855	0.489700	0.116039
	C134	C	0.138788	0.506340	0.872188
	C135	C	0.894464	0.490393	0.873067
	C136	C	0.136051	0.877382	0.502674
	C137	C	0.136909	0.120327	0.485939
	C138	C	0.894746	0.118956	0.502648
	C139	C	0.893552	0.876595	0.484993
	C140	C	0.524372	0.121757	0.871592
	C141	C	0.508446	0.120231	0.115199
	C142	C	0.524997	0.876667	0.115842
	C143	C	0.507754	0.877364	0.873207
	C144	C	0.395552	0.884631	0.671700
	C145	C	0.634074	0.114047	0.668734
	C146	C	0.634158	0.883772	0.317310
	C147	C	0.397955	0.113381	0.317376
	C148	C	0.692396	0.381363	0.879134
	C149	C	0.693412	0.618713	0.109831
	C150	C	0.340817	0.617310	0.878723
	C151	C	0.339786	0.378399	0.109793
	C152	C	0.900677	0.675573	0.373750
	C153	C	0.129543	0.676502	0.613618
	C154	C	0.901500	0.320030	0.615247
	C155	C	0.130233	0.321633	0.374577
	C156	C	0.901105	0.379027	0.671439
	C157	C	0.130459	0.617405	0.669230
	C158	C	0.900538	0.616905	0.316847
	C159	C	0.131195	0.380955	0.318582
	C160	C	0.397236	0.675574	0.879215
	C161	C	0.636629	0.676253	0.109511
	C162	C	0.635617	0.323685	0.878870
	C163	C	0.396430	0.320540	0.109368
	C164	C	0.692954	0.884178	0.373739
	C165	C	0.693067	0.113277	0.611780
	C166	C	0.337012	0.885008	0.615049
	C167	C	0.339318	0.113257	0.374353
	C168	C	0.896033	0.384015	0.171935
	C169	C	0.135950	0.612879	0.169970
	C170	C	0.134328	0.383410	0.817798
	C171	C	0.898063	0.613017	0.817098
	C172	C	0.191974	0.880410	0.378843
	C173	C	0.190994	0.116851	0.610028
	C174	C	0.840548	0.117193	0.378512
	C175	C	0.837585	0.878640	0.608647
	C176	C	0.401302	0.175960	0.875083
	C177	C	0.631478	0.175813	0.113068
	C178	C	0.402455	0.819381	0.115337
	C179	C	0.630945	0.823007	0.874116
	C180	C	0.401289	0.879350	0.170698
	C181	C	0.631772	0.117573	0.170170
	C182	C	0.400457	0.117309	0.818319
	C183	C	0.631036	0.881876	0.817611
	C184	C	0.896163	0.175797	0.379371
	C185	C	0.134605	0.174964	0.609712
	C186	C	0.134946	0.822330	0.378715
	C187	C	0.894352	0.821094	0.608845
	C188	C	0.193226	0.383586	0.874667
	C189	C	0.194444	0.612251	0.113120
	C190	C	0.836910	0.384605	0.115603
	C191	C	0.839852	0.613059	0.874451
	C192	C	0.415046	0.093287	0.594071
	C193	C	0.614501	0.905221	0.593357
	C194	C	0.616053	0.092001	0.394154
	C195	C	0.414830	0.904791	0.395260
	C196	C	0.614220	0.398957	0.089720
	C197	C	0.616060	0.599021	0.899389
	C198	C	0.418306	0.596107	0.088788
	C199	C	0.417067	0.398418	0.898859
	C200	C	0.109923	0.599681	0.394329
	C201	C	0.921014	0.597145	0.592793
	C202	C	0.110345	0.398140	0.593229
	C203	C	0.921866	0.398996	0.396469
	C204	C	0.917288	0.591965	0.092951
	C205	C	0.116097	0.404025	0.094420
	C206	C	0.117541	0.592112	0.893956
	C207	C	0.915814	0.404758	0.895875
	C208	C	0.113289	0.898824	0.588982
	C209	C	0.114885	0.098642	0.399529
	C210	C	0.916601	0.096490	0.589114
	C211	C	0.916366	0.898621	0.398594
	C212	C	0.610919	0.100390	0.892836
	C213	C	0.422452	0.098172	0.093299
	C214	C	0.610751	0.899571	0.092743
	C215	C	0.421869	0.898662	0.896152
	Zn216	Zn	0.515146	-0.001013	0.744525
	Zn217	Zn	0.516282	-0.001723	0.243771
	Zn218	Zn	0.764879	0.499051	-0.005306
	Zn219	Zn	0.267377	0.497650	-0.006106
	Zn220	Zn	0.014702	0.748868	0.494141
	Zn221	Zn	0.015161	0.247580	0.494615
	Zn222	Zn	0.016097	0.498589	0.743503
	Zn223	Zn	0.016394	0.498327	0.244271
	Zn224	Zn	0.516913	0.748082	-0.005552
	Zn225	Zn	0.516777	0.249239	-0.005955
	Zn226	Zn	0.766873	-0.002038	0.493050
	Zn227	Zn	0.264429	-0.000915	0.494657
	N228	N	0.429349	0.961866	0.672931
	N229	N	0.599714	0.037014	0.670693
	N230	N	0.600367	0.960793	0.316199
	N231	N	0.431099	0.035903	0.316254
	N232	N	0.693278	0.414459	0.957117
	N233	N	0.694559	0.585045	0.031885
	N234	N	0.339731	0.582898	0.956463
	N235	N	0.338965	0.412493	0.031777
	N236	N	0.978348	0.678093	0.407238
	N237	N	0.051627	0.678092	0.580578
	N238	N	0.979152	0.318026	0.581692
	N239	N	0.052329	0.319132	0.408002
	N240	N	0.978768	0.412865	0.672348
	N241	N	0.053261	0.582833	0.670327
	N242	N	0.978138	0.583786	0.315670
	N243	N	0.053857	0.414622	0.317641
	N244	N	0.430945	0.676774	0.957225
	N245	N	0.602839	0.677630	0.031576
	N246	N	0.601710	0.321489	0.957014
	N247	N	0.430066	0.319270	0.031203
	N248	N	0.695211	0.961412	0.406943
	N249	N	0.695071	0.035644	0.579108
	N250	N	0.335165	0.962378	0.581359
	N251	N	0.336438	0.035881	0.407863
	N252	N	0.930718	0.460828	0.172560
	N253	N	0.102013	0.535627	0.172049
	N254	N	0.101238	0.460684	0.816074
	N255	N	0.931312	0.535773	0.816245
	N256	N	0.192752	0.913759	0.456826
	N257	N	0.192335	0.083556	0.532148
	N258	N	0.839574	0.082591	0.456098
	N259	N	0.836938	0.912295	0.530483
	N260	N	0.479522	0.178853	0.907223
	N261	N	0.553954	0.177338	0.079470
	N262	N	0.480381	0.817640	0.082199
	N263	N	0.553173	0.819997	0.907784
	N264	N	0.478428	0.914269	0.171253
	N265	N	0.554160	0.083864	0.171945
	N266	N	0.478210	0.084441	0.816227
	N267	N	0.553515	0.915115	0.816973
	N268	N	0.929161	0.177094	0.457673
	N269	N	0.101589	0.177158	0.531478
	N270	N	0.100829	0.820280	0.456621
	N271	N	0.928716	0.819764	0.531043
	N272	N	0.195876	0.461012	0.907704
	N273	N	0.196199	0.534715	0.080329
	N274	N	0.835652	0.461911	0.081591
	N275	N	0.837429	0.535849	0.908509
	O276	O	1.032151	1.029182	-0.002521
	H277	H	1.033035	1.027478	0.000491
	H278	H	1.031160	1.033004	-0.010775
	O279	O	0.039923	-0.013784	0.986025
	H280	H	0.039622	-0.017040	0.987068
	H281	H	0.037391	-0.015210	0.983367
	O282	O	-0.430499	0.483482	0.507980
	H283	H	-0.423683	0.492908	0.503383
	H284	H	-0.428478	0.479442	0.510446
	O285	O	0.455905	0.463521	0.462034
	H286	H	0.455457	0.471654	0.455964
	H287	H	0.451493	0.461698	0.468682
	O288	O	-0.044897	-0.041088	-0.024566
	H289	H	-0.050069	-0.038499	-0.024691
	H290	H	-0.048065	-0.047130	-0.030906
	O291	O	0.027543	1.001523	-0.024625
	H292	H	0.023391	1.002656	-0.012428
	H293	H	0.024355	1.000114	-0.026560
	O294	O	-0.046787	0.973561	0.092228
	H295	H	-0.051527	0.971302	0.087351
	H296	H	-0.041340	0.980347	0.085694
	O297	O	0.561494	0.598567	0.528833
	H298	H	0.560851	0.607225	0.522075
	H299	H	0.556977	0.590358	0.535808
	O300	O	0.458071	0.481258	0.515749
	H301	H	0.454802	0.487595	0.508189
	H302	H	0.453265	0.474358	0.510342
	O303	O	0.496103	-0.471377	1.462337
	H304	H	0.493320	-0.473424	1.470803
	H305	H	0.505034	-0.472215	1.473572
	O306	O	0.070025	0.951354	0.978798
	H307	H	0.068903	0.952202	0.966487
	H308	H	0.077089	0.953163	0.977595
	O309	O	-0.028778	0.964480	1.026861
	H310	H	-0.019869	0.955521	1.022839
	H311	H	-0.024493	0.967933	1.026918
	O312	O	-0.011402	-0.016028	1.036398
	H313	H	-0.008769	-0.011793	1.043097
	H314	H	-0.012067	-0.022102	1.044850
	O315	O	0.544610	0.519413	0.493922
	H316	H	0.551942	0.515771	0.492805
	H317	H	0.547232	0.521934	0.493997
	O318	O	-0.039602	-0.002037	0.965480
	H319	H	-0.032235	-0.005401	0.963571
	H320	H	-0.044543	-0.003541	0.966316
	O321	O	0.506401	0.557188	0.469551
	H322	H	0.509837	0.557225	0.460541
	H323	H	0.512320	0.568629	0.469097
	O324	O	1.057571	-0.021202	0.965011
	H325	H	1.055727	-0.017122	0.964831
	H326	H	1.059527	-0.016055	0.962321
	O327	O	1.020793	0.926355	0.969428
	H328	H	1.020865	0.922316	0.977661
	H329	H	1.014176	0.932024	0.970684
	O330	O	0.475396	0.495780	0.494330
	H331	H	0.467159	0.497629	0.492715
	H332	H	0.470719	0.485863	0.487177
	O333	O	0.506970	0.526017	0.482159
	H334	H	0.508445	0.523263	0.497266
	H335	H	0.506306	0.543294	0.476736
	O336	O	0.485771	0.459454	0.499321
	H337	H	0.481451	0.462424	0.503240
	H338	H	0.477621	0.465026	0.493327
	O339	O	-0.491165	0.479745	-0.400746
	H340	H	-0.492751	0.470454	-0.397472
	H341	H	-0.494542	0.476277	-0.405070
	O342	O	0.439537	0.508966	0.519665
	H343	H	0.445151	0.507203	0.520462
	H344	H	0.435242	0.507311	0.503855
	O345	O	0.528852	0.525750	0.480597
	H346	H	0.521264	0.523178	0.482641
	H347	H	0.532044	0.521308	0.484172
