data_Molecule from HDF5

_cell_length_a		16.391967
_cell_length_b		16.389299
_cell_length_c		16.355747
_cell_angle_alpha	89.987974
_cell_angle_beta	89.806576
_cell_angle_gamma	89.893660
_symmetry_space_group_name_H-M	'P 1'
_symmetry_Int_Tables_number		1

loop_
	_symmetry_equiv_pos_as_xyz
	x,y,z

loop_
	_atom_site_label
	_atom_site_type_symbol
	_atom_site_fract_x
	_atom_site_fract_y
	_atom_site_fract_z
	H0	H	0.392986	0.837790	0.717814
	H1	H	0.599188	0.157189	0.717179
	H2	H	0.599316	0.837698	0.278946
	H3	H	0.394088	0.158646	0.279439
	H4	H	0.718159	0.392472	0.838594
	H5	H	0.714675	0.599519	0.158605
	H6	H	0.279301	0.600091	0.838054
	H7	H	0.277905	0.395295	0.159314
	H8	H	0.838010	0.717342	0.394878
	H9	H	0.157856	0.715291	0.599667
	H10	H	0.837163	0.277109	0.603325
	H11	H	0.157676	0.276904	0.394238
	H12	H	0.838240	0.393595	0.720385
	H13	H	0.157999	0.600199	0.716370
	H14	H	0.837391	0.600368	0.279413
	H15	H	0.158193	0.394488	0.279206
	H16	H	0.395006	0.716114	0.838219
	H17	H	0.598416	0.715113	0.159076
	H18	H	0.601666	0.277629	0.838021
	H19	H	0.392823	0.278135	0.158929
	H20	H	0.717375	0.837690	0.393034
	H21	H	0.716520	0.156811	0.601388
	H22	H	0.277234	0.838113	0.602552
	H23	H	0.276504	0.157607	0.393442
	H24	H	0.890622	0.337995	0.221798
	H25	H	0.099946	0.657076	0.217418
	H26	H	0.104630	0.338344	0.776290
	H27	H	0.893380	0.656313	0.778949
	H28	H	0.219056	0.893511	0.337814
	H29	H	0.217858	0.102613	0.656753
	H30	H	0.777997	0.101733	0.337120
	H31	H	0.775044	0.891462	0.656332
	H32	H	0.337823	0.218180	0.894325
	H33	H	0.656982	0.219366	0.103516
	H34	H	0.337310	0.777328	0.104415
	H35	H	0.656772	0.777170	0.894640
	H36	H	0.337159	0.895828	0.218972
	H37	H	0.657308	0.102298	0.218523
	H38	H	0.337470	0.101708	0.778050
	H39	H	0.655461	0.890485	0.775976
	H40	H	0.892140	0.218955	0.338430
	H41	H	0.103321	0.218339	0.656577
	H42	H	0.101911	0.777605	0.337132
	H43	H	0.892766	0.778208	0.658006
	H44	H	0.218921	0.337840	0.893588
	H45	H	0.215656	0.657202	0.102021
	H46	H	0.773664	0.338486	0.106644
	H47	H	0.778384	0.656779	0.895274
	H48	H	0.398019	0.114528	0.587233
	H49	H	0.588734	0.883781	0.583345
	H50	H	0.587651	0.113495	0.402208
	H51	H	0.410286	0.884512	0.406291
	H52	H	0.585502	0.418769	0.107589
	H53	H	0.589249	0.580344	0.885028
	H54	H	0.404348	0.581322	0.111604
	H55	H	0.408000	0.404120	0.883656
	H56	H	0.111602	0.588705	0.409063
	H57	H	0.883747	0.583402	0.594172
	H58	H	0.111852	0.407019	0.590252
	H59	H	0.884770	0.406436	0.413306
	H60	H	0.110220	0.404780	0.584184
	H61	H	0.881060	0.593941	0.590505
	H62	H	0.110957	0.585298	0.407430
	H63	H	0.885426	0.412180	0.409917
	H64	H	0.412035	0.590868	0.112901
	H65	H	0.579502	0.588630	0.885716
	H66	H	0.576364	0.402454	0.111456
	H67	H	0.404617	0.410011	0.884104
	H68	H	0.584484	0.109374	0.410469
	H69	H	0.589415	0.881626	0.590146
	H70	H	0.412192	0.112641	0.596023
	H71	H	0.409091	0.886455	0.412065
	H72	H	0.905149	0.610400	0.088800
	H73	H	0.093737	0.382861	0.083915
	H74	H	0.087763	0.608064	0.918257
	H75	H	0.907696	0.382008	0.907894
	H76	H	0.082888	0.912927	0.608190
	H77	H	0.081025	0.080428	0.387354
	H78	H	0.903765	0.084878	0.612088
	H79	H	0.909853	0.901062	0.381564
	H80	H	0.608494	0.081388	0.909202
	H81	H	0.387089	0.083745	0.084416
	H82	H	0.605145	0.915737	0.080562
	H83	H	0.385022	0.913186	0.907925
	H84	H	0.613043	0.910341	0.098634
	H85	H	0.382315	0.086564	0.095854
	H86	H	0.612802	0.088033	0.904671
	H87	H	0.379470	0.903790	0.903491
	H88	H	0.910227	0.083673	0.609594
	H89	H	0.083557	0.092878	0.382897
	H90	H	0.083326	0.899016	0.613100
	H91	H	0.902025	0.909086	0.382018
	H92	H	0.097785	0.616126	0.904088
	H93	H	0.087730	0.380088	0.095084
	H94	H	0.907424	0.610577	0.089433
	H95	H	0.911848	0.384173	0.910276
	H96	H	0.411193	0.107219	0.579940
	H97	H	0.583207	0.884555	0.588427
	H98	H	0.593449	0.112747	0.409564
	H99	H	0.405243	0.883595	0.408507
	H100	H	0.594800	0.404540	0.116138
	H101	H	0.591189	0.592230	0.881854
	H102	H	0.400264	0.591456	0.116481
	H103	H	0.411353	0.410078	0.885767
	H104	H	0.112962	0.587758	0.405572
	H105	H	0.885042	0.586294	0.582801
	H106	H	0.109320	0.410951	0.585667
	H107	H	0.883057	0.406525	0.406998
	H108	H	0.906997	0.609955	0.087486
	H109	H	0.081571	0.386444	0.085506
	H110	H	0.080148	0.610505	0.901714
	H111	H	0.907170	0.384221	0.912977
	H112	H	0.095319	0.908055	0.613961
	H113	H	0.093845	0.084068	0.382874
	H114	H	0.908882	0.090061	0.612682
	H115	H	0.912459	0.911263	0.386282
	H116	H	0.609269	0.089207	0.913283
	H117	H	0.382706	0.095371	0.086607
	H118	H	0.612485	0.897415	0.082801
	H119	H	0.383436	0.903400	0.914290
	C120	C	0.375269	0.006154	0.619630
	C121	C	0.618504	0.988838	0.619146
	C122	C	0.619253	0.006293	0.375898
	C123	C	0.376123	0.990277	0.377095
	C124	C	0.618404	0.375979	0.006578
	C125	C	0.617573	0.618209	0.989925
	C126	C	0.375314	0.619080	0.007571
	C127	C	0.375785	0.376401	0.990372
	C128	C	0.006113	0.618865	0.376665
	C129	C	0.989124	0.618711	0.619748
	C130	C	0.005412	0.375743	0.619744
	C131	C	0.989603	0.376090	0.377508
	C132	C	0.874586	0.505445	0.120974
	C133	C	0.118313	0.488729	0.119404
	C134	C	0.120007	0.505828	0.876314
	C135	C	0.876938	0.488652	0.878271
	C136	C	0.119557	0.875604	0.506000
	C137	C	0.118562	0.118119	0.489332
	C138	C	0.876005	0.118250	0.505881
	C139	C	0.876128	0.875659	0.489222
	C140	C	0.505375	0.118471	0.877265
	C141	C	0.489462	0.119940	0.120330
	C142	C	0.504979	0.876645	0.119882
	C143	C	0.488128	0.874818	0.876655
	C144	C	0.374062	0.885935	0.678512
	C145	C	0.618514	0.109198	0.677789
	C146	C	0.619246	0.885682	0.317526
	C147	C	0.375018	0.110575	0.318391
	C148	C	0.678708	0.373874	0.886591
	C149	C	0.675698	0.618649	0.110571
	C150	C	0.318127	0.619323	0.886338
	C151	C	0.317091	0.375968	0.111251
	C152	C	0.885742	0.677694	0.376090
	C153	C	0.109630	0.676556	0.619322
	C154	C	0.885398	0.316618	0.622009
	C155	C	0.109918	0.316932	0.375767
	C156	C	0.885741	0.374393	0.680350
	C157	C	0.109793	0.618895	0.677341
	C158	C	0.885422	0.619629	0.318645
	C159	C	0.110222	0.375216	0.318521
	C160	C	0.375809	0.676960	0.886271
	C161	C	0.617738	0.676085	0.110961
	C162	C	0.620863	0.316607	0.886379
	C163	C	0.374340	0.317858	0.110980
	C164	C	0.677925	0.885713	0.374291
	C165	C	0.676707	0.109184	0.619878
	C166	C	0.316292	0.886239	0.621202
	C167	C	0.316600	0.110062	0.375379
	C168	C	0.872305	0.385748	0.181693
	C169	C	0.118895	0.609039	0.178249
	C170	C	0.122362	0.386035	0.816589
	C171	C	0.875559	0.608838	0.819220
	C172	C	0.179426	0.874361	0.385908
	C173	C	0.178402	0.120926	0.609044
	C174	C	0.817278	0.120004	0.385305
	C175	C	0.815479	0.873452	0.608835
	C176	C	0.385554	0.178322	0.875951
	C177	C	0.609241	0.179295	0.121668
	C178	C	0.385214	0.817223	0.122535
	C179	C	0.608676	0.816103	0.875533
	C180	C	0.384992	0.876074	0.179601
	C181	C	0.609480	0.121080	0.179045
	C182	C	0.385292	0.120375	0.818015
	C183	C	0.608026	0.872736	0.816627
	C184	C	0.873786	0.178772	0.386090
	C185	C	0.121208	0.178385	0.608996
	C186	C	0.121392	0.816496	0.385574
	C187	C	0.874399	0.817138	0.609887
	C188	C	0.179583	0.385785	0.874913
	C189	C	0.176522	0.609089	0.120791
	C190	C	0.813821	0.386248	0.124450
	C191	C	0.817819	0.608913	0.876937
	C192	C	0.399916	0.089823	0.594979
	C193	C	0.594174	0.905177	0.594646
	C194	C	0.595383	0.090021	0.400227
	C195	C	0.400925	0.906678	0.401897
	C196	C	0.592906	0.401091	0.090028
	C197	C	0.593637	0.594210	0.905962
	C198	C	0.398843	0.595056	0.091732
	C199	C	0.400725	0.400824	0.906454
	C200	C	0.090040	0.594337	0.400465
	C201	C	0.905109	0.594777	0.596077
	C202	C	0.088723	0.400398	0.594283
	C203	C	0.906018	0.401019	0.402736
	C204	C	0.899374	0.588611	0.095958
	C205	C	0.094344	0.404865	0.095140
	C206	C	0.095524	0.589724	0.900830
	C207	C	0.901817	0.405245	0.903249
	C208	C	0.094628	0.899772	0.589984
	C209	C	0.093323	0.093063	0.406225
	C210	C	0.900450	0.093402	0.589497
	C211	C	0.901075	0.900076	0.405436
	C212	C	0.588514	0.093394	0.901944
	C213	C	0.405795	0.095399	0.096163
	C214	C	0.588494	0.901043	0.094734
	C215	C	0.404459	0.899634	0.901386
	Zn216	Zn	0.496765	-0.003176	0.748331
	Zn217	Zn	0.497402	-0.001521	0.248528
	Zn218	Zn	0.746659	0.497121	-0.001752
	Zn219	Zn	0.247262	0.497600	-0.001021
	Zn220	Zn	-0.002647	0.747626	0.497850
	Zn221	Zn	-0.002518	0.246532	0.498157
	Zn222	Zn	-0.002292	0.497388	0.748731
	Zn223	Zn	-0.002460	0.496627	0.248244
	Zn224	Zn	0.496737	0.747327	-0.001117
	Zn225	Zn	0.497285	0.247924	-0.001868
	Zn226	Zn	0.747608	-0.002911	0.497134
	Zn227	Zn	0.247290	-0.001891	0.498003
	N228	N	0.409939	0.961549	0.677841
	N229	N	0.583078	0.033182	0.677506
	N230	N	0.583513	0.961668	0.318554
	N231	N	0.411466	0.035075	0.319425
	N232	N	0.677569	0.409770	0.962534
	N233	N	0.675867	0.583385	0.034330
	N234	N	0.317616	0.584219	0.962670
	N235	N	0.317955	0.411628	0.035162
	N236	N	0.961786	0.677421	0.411241
	N237	N	0.033538	0.676621	0.584349
	N238	N	0.960912	0.317361	0.585010
	N239	N	0.033805	0.317182	0.411463
	N240	N	0.961453	0.410123	0.679106
	N241	N	0.033646	0.583815	0.677892
	N242	N	0.961310	0.583809	0.318790
	N243	N	0.034331	0.411159	0.319571
	N244	N	0.410461	0.677046	0.962687
	N245	N	0.582375	0.675924	0.034992
	N246	N	0.584245	0.317675	0.962119
	N247	N	0.409838	0.317809	0.034695
	N248	N	0.678224	0.961699	0.409633
	N249	N	0.676617	0.033387	0.584171
	N250	N	0.316878	0.962169	0.585374
	N251	N	0.317421	0.034140	0.411299
	N252	N	0.909436	0.460805	0.179834
	N253	N	0.083142	0.533212	0.177418
	N254	N	0.085979	0.461769	0.817294
	N255	N	0.911680	0.533238	0.819989
	N256	N	0.178411	0.910096	0.461892
	N257	N	0.176735	0.083924	0.533706
	N258	N	0.818276	0.083286	0.460946
	N259	N	0.816503	0.909038	0.532748
	N260	N	0.461288	0.177274	0.911910
	N261	N	0.533523	0.178754	0.085975
	N262	N	0.460626	0.817825	0.085859
	N263	N	0.533258	0.817523	0.912352
	N264	N	0.460468	0.912488	0.178013
	N265	N	0.533969	0.084813	0.178206
	N266	N	0.460660	0.083830	0.818509
	N267	N	0.532153	0.908746	0.817228
	N268	N	0.909279	0.178186	0.462186
	N269	N	0.084394	0.176773	0.533613
	N270	N	0.084701	0.817187	0.461266
	N271	N	0.911164	0.818272	0.534238
	N272	N	0.178320	0.461328	0.911243
	N273	N	0.176252	0.533338	0.084870
	N274	N	0.815269	0.461363	0.087255
	N275	N	0.818345	0.533006	0.912809
	O276	O	1.131152	0.981916	0.161851
	H277	H	1.121676	0.974188	0.163630
	H278	H	1.139495	0.976726	0.165624
	O279	O	0.421675	0.433082	0.433063
	H280	H	0.428108	0.418572	0.437665
	H281	H	0.420172	0.444589	0.438381
	O282	O	0.350053	0.581337	0.392452
	H283	H	0.363988	0.577996	0.392912
	H284	H	0.338865	0.579111	0.382495
	O285	O	1.125122	0.178644	0.178479
	H286	H	1.129484	0.182235	0.166087
	H287	H	1.148537	0.162989	0.179425
	O288	O	-0.196773	0.181089	0.882413
	H289	H	-0.209119	0.192793	0.915521
	H290	H	-0.176548	0.186551	0.881580
	O291	O	0.418467	0.597246	0.668658
	H292	H	0.420157	0.607224	0.668804
	H293	H	0.416257	0.594876	0.662364
	O294	O	0.449321	0.342157	0.379846
	H295	H	0.464183	0.346031	0.374603
	H296	H	0.448497	0.339681	0.363413
	O297	O	0.855428	1.000890	0.800964
	H298	H	0.847244	1.011806	0.789060
	H299	H	0.859668	1.016562	0.808098
	O300	O	-0.030684	0.067689	-0.060775
	H301	H	-0.041493	0.068996	-0.050892
	H302	H	-0.034593	0.054415	-0.044114
	O303	O	0.468036	0.431127	0.408250
	H304	H	0.469569	0.441709	0.401821
	H305	H	0.452319	0.440192	0.423799
	O306	O	1.146596	-0.043565	-0.189156
	H307	H	1.122623	-0.029943	-0.189990
	H308	H	1.148953	-0.033315	-0.205419
	O309	O	0.515608	0.653836	0.387381
	H310	H	0.511089	0.647707	0.392233
	H311	H	0.534197	0.662265	0.394090
	O312	O	0.943427	0.833699	-0.058796
	H313	H	0.947327	0.847975	-0.059199
	H314	H	0.932566	0.823512	-0.069290
	O315	O	0.450446	0.484219	0.600059
	H316	H	0.443531	0.479405	0.598294
	H317	H	0.454604	0.503896	0.598017
	O318	O	0.398182	0.666791	0.534255
	H319	H	0.411729	0.659486	0.521614
	H320	H	0.386447	0.675196	0.520524
	O321	O	0.863285	0.110818	1.050077
	H322	H	0.861175	0.104102	1.080625
	H323	H	0.889818	0.118635	1.037616
	O324	O	-0.000866	0.096376	0.786519
	H325	H	-0.019171	0.091616	0.778180
	H326	H	-0.020202	0.099708	0.794992
	O327	O	0.476057	0.353760	0.601060
	H328	H	0.467706	0.340738	0.610931
	H329	H	0.467537	0.348618	0.614184
	O330	O	0.621613	0.404552	0.383153
	H331	H	0.606064	0.407241	0.376998
	H332	H	0.625066	0.409769	0.386446
	O333	O	0.800816	0.956856	1.157136
	H334	H	0.797155	0.933404	1.164932
	H335	H	0.794724	0.939579	1.173537
	O336	O	0.590572	0.440415	0.624318
	H337	H	0.594609	0.437312	0.624541
	H338	H	0.592872	0.422863	0.615661
	O339	O	1.067616	-0.156869	1.013442
	H340	H	1.071703	-0.160617	0.997775
	H341	H	1.075121	-0.151826	1.006826
	O342	O	-0.016155	1.002624	0.889446
	H343	H	-0.013455	1.004422	0.910658
	H344	H	-0.042226	1.028053	0.877567
	O345	O	-0.104431	1.139431	0.794059
	H346	H	-0.087530	1.149941	0.814307
	H347	H	-0.114051	1.157116	0.767180
	O348	O	0.597711	0.503074	0.491119
	H349	H	0.603510	0.504760	0.510021
	H350	H	0.599346	0.494526	0.484615
	O351	O	0.426118	-0.450331	-0.451929
	H352	H	0.414788	-0.449130	-0.435874
	H353	H	0.425069	-0.439126	-0.464011
	O354	O	0.809795	0.799364	0.133728
	H355	H	0.829359	0.793962	0.136276
	H356	H	0.803379	0.792207	0.097026
	O357	O	0.170419	1.181622	0.097637
	H358	H	0.180542	1.163160	0.081644
	H359	H	0.186323	1.180317	0.095376
	O360	O	0.063499	1.114757	1.136369
	H361	H	0.090063	1.107075	1.135567
	H362	H	0.060225	1.115421	1.149136
	O363	O	0.440429	0.319889	0.623685
	H364	H	0.440426	0.324356	0.623911
	H365	H	0.412950	0.299531	0.629059
	O366	O	0.336380	0.635543	0.360413
	H367	H	0.328515	0.631157	0.340417
	H368	H	0.340613	0.638547	0.363448
	O369	O	0.663312	0.483503	0.394573
	H370	H	0.667562	0.472440	0.384321
	H371	H	0.676693	0.497178	0.396514
	O372	O	0.565631	0.556774	0.587615
	H373	H	0.567957	0.558849	0.596811
	H374	H	0.564401	0.529428	0.592859
	O375	O	0.401824	0.384309	0.581391
	H376	H	0.402798	0.386713	0.568139
	H377	H	0.399523	0.403852	0.576369
	O378	O	0.580722	0.498669	0.466912
	H379	H	0.572552	0.493319	0.472287
	H380	H	0.592991	0.491758	0.470412
	O381	O	0.431454	0.519847	0.421446
	H382	H	0.436257	0.524335	0.409000
	H383	H	0.435325	0.530367	0.418826
	O384	O	-0.045711	1.028379	1.084512
	H385	H	-0.045505	1.043124	1.081630
	H386	H	-0.042151	1.034396	1.097938
	O387	O	1.205876	0.980795	-0.149466
	H388	H	1.203230	0.995860	-0.159517
	H389	H	1.208586	0.980359	-0.147231
	O390	O	0.691049	0.412779	0.524456
	H391	H	0.696452	0.413414	0.529257
	H392	H	0.684446	0.414815	0.507161
	O393	O	1.072663	-0.060254	1.157976
	H394	H	1.062194	-0.077126	1.151759
	H395	H	1.064977	-0.050201	1.159459
	O396	O	-0.047233	0.933369	1.148314
	H397	H	-0.060399	0.932696	1.148100
	H398	H	-0.063219	0.923386	1.155851
	O399	O	0.576338	0.492274	0.496101
	H400	H	0.584277	0.489069	0.496255
	H401	H	0.572804	0.489017	0.519276
	O402	O	1.060354	-0.067096	1.008641
	H403	H	1.049361	-0.070725	1.007307
	H404	H	1.055740	-0.069959	0.990150
	O405	O	-0.154222	-0.193723	0.027292
	H406	H	-0.150387	-0.199668	0.010515
	H407	H	-0.157657	-0.177385	0.011793
	O408	O	1.029760	0.812485	0.820448
	H409	H	1.036202	0.820543	0.812685
	H410	H	1.032324	0.804784	0.811727
	O411	O	1.196477	0.834293	-0.069887
	H412	H	1.210501	0.824115	-0.076682
	H413	H	1.184356	0.846353	-0.089659
	O414	O	-0.067446	-0.163376	1.243978
	H415	H	-0.063157	-0.161153	1.232402
	H416	H	-0.068239	-0.182767	1.247486
	O417	O	0.615030	0.643292	0.583988
	H418	H	0.629271	0.642076	0.584594
	H419	H	0.608994	0.654969	0.587214
	O420	O	-0.020013	1.175872	0.011029
	H421	H	-0.027994	1.159665	0.025082
	H422	H	0.000497	1.187083	0.026456
	O423	O	0.814115	0.068793	-0.035027
	H424	H	0.830898	0.084154	-0.033560
	H425	H	0.799430	0.096562	-0.024922
	O426	O	0.123399	0.042400	0.993617
	H427	H	0.117027	0.039704	1.013545
	H428	H	0.114144	0.037867	0.986629
	O429	O	0.494474	0.564064	0.501026
	H430	H	0.503387	0.563237	0.499150
	H431	H	0.482506	0.578045	0.514697
