data_Molecule from HDF5

_cell_length_a		16.222173
_cell_length_b		16.333007
_cell_length_c		16.281102
_cell_angle_alpha	89.783251
_cell_angle_beta	90.046642
_cell_angle_gamma	90.154051
_symmetry_space_group_name_H-M	'P 1'
_symmetry_Int_Tables_number		1

loop_
	_symmetry_equiv_pos_as_xyz
	x,y,z

loop_
	_atom_site_label
	_atom_site_type_symbol
	_atom_site_fract_x
	_atom_site_fract_y
	_atom_site_fract_z
	H0	H	0.407425	0.833553	0.718773
	H1	H	0.606752	0.159877	0.715466
	H2	H	0.603652	0.833840	0.290047
	H3	H	0.408697	0.159659	0.286803
	H4	H	0.719420	0.401766	0.838589
	H5	H	0.720602	0.594317	0.167484
	H6	H	0.292981	0.595611	0.838021
	H7	H	0.293452	0.399512	0.166817
	H8	H	0.843942	0.711316	0.402614
	H9	H	0.171160	0.711201	0.601445
	H10	H	0.842756	0.280364	0.602045
	H11	H	0.170536	0.282730	0.403174
	H12	H	0.842650	0.396843	0.716965
	H13	H	0.170269	0.595160	0.716571
	H14	H	0.842426	0.594984	0.288261
	H15	H	0.170872	0.399536	0.288096
	H16	H	0.408468	0.712708	0.838677
	H17	H	0.605999	0.711714	0.166614
	H18	H	0.607087	0.282137	0.839943
	H19	H	0.406297	0.280936	0.165773
	H20	H	0.720026	0.832959	0.405500
	H21	H	0.722645	0.159266	0.599667
	H22	H	0.292963	0.832481	0.601134
	H23	H	0.293215	0.159867	0.403076
	H24	H	0.907320	0.334016	0.217153
	H25	H	0.106213	0.659932	0.217431
	H26	H	0.105846	0.333755	0.787901
	H27	H	0.907144	0.659570	0.785026
	H28	H	0.220260	0.900417	0.337998
	H29	H	0.221072	0.092970	0.666373
	H30	H	0.793802	0.094065	0.338200
	H31	H	0.792957	0.897203	0.665801
	H32	H	0.342672	0.211778	0.902748
	H33	H	0.669602	0.211462	0.101936
	H34	H	0.342883	0.783047	0.100925
	H35	H	0.671529	0.784988	0.904729
	H36	H	0.342892	0.898932	0.216528
	H37	H	0.670505	0.094944	0.215393
	H38	H	0.342915	0.095776	0.787062
	H39	H	0.671676	0.900432	0.789905
	H40	H	0.908256	0.210954	0.338462
	H41	H	0.107133	0.211528	0.665541
	H42	H	0.106960	0.782401	0.338660
	H43	H	0.906948	0.779148	0.664510
	H44	H	0.219935	0.333067	0.906178
	H45	H	0.221278	0.660973	0.100117
	H46	H	0.792087	0.333981	0.100868
	H47	H	0.792719	0.660956	0.902695
	H48	H	0.410597	0.109735	0.583379
	H49	H	0.601656	0.880685	0.592874
	H50	H	0.604954	0.115031	0.408214
	H51	H	0.410337	0.879223	0.408413
	H52	H	0.598958	0.407508	0.118072
	H53	H	0.596159	0.599085	0.885247
	H54	H	0.416008	0.586661	0.117259
	H55	H	0.416663	0.408742	0.888587
	H56	H	0.128248	0.587484	0.393357
	H57	H	0.894316	0.578049	0.590155
	H58	H	0.123040	0.397843	0.588740
	H59	H	0.892387	0.406281	0.414251
	H60	H	0.120067	0.411797	0.592109
	H61	H	0.886681	0.590658	0.604106
	H62	H	0.126806	0.604985	0.414388
	H63	H	0.888404	0.405868	0.402386
	H64	H	0.416419	0.594221	0.119159
	H65	H	0.607899	0.591920	0.884215
	H66	H	0.596447	0.401505	0.119317
	H67	H	0.416908	0.399765	0.885773
	H68	H	0.599316	0.113875	0.404373
	H69	H	0.603132	0.878207	0.600709
	H70	H	0.406846	0.117031	0.603001
	H71	H	0.417378	0.880733	0.407139
	H72	H	0.917097	0.613416	0.097100
	H73	H	0.107827	0.379224	0.095077
	H74	H	0.090780	0.610071	0.907701
	H75	H	0.920031	0.382873	0.907747
	H76	H	0.099404	0.900816	0.618328
	H77	H	0.098684	0.083259	0.388698
	H78	H	0.920512	0.079070	0.614309
	H79	H	0.917104	0.901331	0.385732
	H80	H	0.622959	0.088990	0.909749
	H81	H	0.388455	0.088408	0.096248
	H82	H	0.624094	0.901081	0.091041
	H83	H	0.388195	0.902998	0.905149
	H84	H	0.622668	0.910082	0.096919
	H85	H	0.388288	0.090134	0.096273
	H86	H	0.624536	0.092477	0.907354
	H87	H	0.390014	0.899910	0.914177
	H88	H	0.921869	0.099832	0.620068
	H89	H	0.094361	0.097736	0.385269
	H90	H	0.100574	0.903723	0.618415
	H91	H	0.910057	0.901711	0.383813
	H92	H	0.103281	0.611234	0.917391
	H93	H	0.095774	0.379881	0.103285
	H94	H	0.914955	0.612097	0.090914
	H95	H	0.911464	0.382543	0.916236
	H96	H	0.426673	0.109181	0.598122
	H97	H	0.595422	0.880528	0.598791
	H98	H	0.599565	0.112054	0.411104
	H99	H	0.414244	0.882173	0.413789
	H100	H	0.602731	0.402912	0.120515
	H101	H	0.596634	0.585208	0.889618
	H102	H	0.409774	0.589695	0.119713
	H103	H	0.408472	0.404492	0.884941
	H104	H	0.118165	0.579105	0.417625
	H105	H	0.889881	0.597279	0.585144
	H106	H	0.126060	0.402983	0.602102
	H107	H	0.887690	0.395760	0.409308
	H108	H	0.910837	0.614687	0.095972
	H109	H	0.095158	0.384143	0.089723
	H110	H	0.104149	0.616182	0.902312
	H111	H	0.908896	0.378884	0.905359
	H112	H	0.097935	0.903356	0.618123
	H113	H	0.108309	0.093571	0.382181
	H114	H	0.903288	0.088771	0.622173
	H115	H	0.914085	0.907292	0.386477
	H116	H	0.623413	0.092698	0.912057
	H117	H	0.388974	0.090008	0.094070
	H118	H	0.626915	0.900560	0.100937
	H119	H	0.392207	0.909056	0.911713
	C120	C	0.385808	0.004288	0.624096
	C121	C	0.628940	0.987839	0.624645
	C122	C	0.628564	0.005476	0.380819
	C123	C	0.385541	0.988462	0.380410
	C124	C	0.628458	0.375766	0.011240
	C125	C	0.628802	0.619578	0.994732
	C126	C	0.385407	0.618920	0.010559
	C127	C	0.384936	0.375539	0.994461
	C128	C	0.015777	0.618513	0.379980
	C129	C	0.998642	0.617886	0.622780
	C130	C	0.014738	0.374912	0.623316
	C131	C	0.997787	0.374990	0.380322
	C132	C	0.885303	0.505481	0.123843
	C133	C	0.128267	0.488815	0.123986
	C134	C	0.128472	0.505167	0.880773
	C135	C	0.884864	0.489211	0.880610
	C136	C	0.128263	0.875134	0.510328
	C137	C	0.129360	0.119080	0.493474
	C138	C	0.886555	0.117390	0.510293
	C139	C	0.885306	0.874434	0.493353
	C140	C	0.515022	0.119415	0.880733
	C141	C	0.497531	0.118030	0.123665
	C142	C	0.515949	0.875459	0.124503
	C143	C	0.498683	0.876416	0.881820
	C144	C	0.387567	0.881928	0.680140
	C145	C	0.627057	0.110953	0.678460
	C146	C	0.625150	0.882424	0.326985
	C147	C	0.388274	0.111006	0.324776
	C148	C	0.682564	0.380082	0.887729
	C149	C	0.683359	0.615295	0.118213
	C150	C	0.330386	0.616608	0.887212
	C151	C	0.330642	0.378341	0.117712
	C152	C	0.892530	0.673551	0.382130
	C153	C	0.121828	0.673301	0.621309
	C154	C	0.891599	0.318766	0.621819
	C155	C	0.121618	0.320745	0.383064
	C156	C	0.891687	0.376557	0.679162
	C157	C	0.121562	0.615494	0.678527
	C158	C	0.891794	0.615410	0.325584
	C159	C	0.121876	0.378530	0.325786
	C160	C	0.387692	0.674749	0.887625
	C161	C	0.626232	0.673599	0.117947
	C162	C	0.626415	0.320792	0.888499
	C163	C	0.386391	0.319380	0.117131
	C164	C	0.682408	0.881953	0.384917
	C165	C	0.684490	0.110798	0.620710
	C166	C	0.330409	0.881464	0.621812
	C167	C	0.330959	0.111094	0.382776
	C168	C	0.887439	0.382791	0.179194
	C169	C	0.126078	0.611649	0.178979
	C170	C	0.126031	0.382326	0.825965
	C171	C	0.887142	0.611307	0.824058
	C172	C	0.182928	0.879054	0.386893
	C173	C	0.184050	0.114805	0.617070
	C174	C	0.831521	0.114822	0.387218
	C175	C	0.830323	0.876377	0.616611
	C176	C	0.391756	0.174033	0.882599
	C177	C	0.620870	0.173287	0.121947
	C178	C	0.391970	0.820368	0.121918
	C179	C	0.622578	0.822424	0.884689
	C180	C	0.391983	0.877917	0.179116
	C181	C	0.621412	0.114997	0.177916
	C182	C	0.392036	0.116399	0.824960
	C183	C	0.622708	0.879890	0.827566
	C184	C	0.888439	0.172917	0.387477
	C185	C	0.127561	0.173734	0.616661
	C186	C	0.126435	0.820581	0.387110
	C187	C	0.887420	0.818184	0.616113
	C188	C	0.182694	0.381920	0.884735
	C189	C	0.183545	0.612184	0.120953
	C190	C	0.829937	0.382650	0.121514
	C191	C	0.830485	0.611995	0.882664
	C192	C	0.408140	0.089816	0.601375
	C193	C	0.606780	0.902192	0.603708
	C194	C	0.607500	0.091332	0.401760
	C195	C	0.407515	0.902766	0.403074
	C196	C	0.605916	0.397459	0.097266
	C197	C	0.606723	0.598291	0.908533
	C198	C	0.407471	0.596516	0.096507
	C199	C	0.407479	0.397845	0.908654
	C200	C	0.101977	0.596695	0.401753
	C201	C	0.912209	0.595218	0.599828
	C202	C	0.100819	0.397578	0.600834
	C203	C	0.911998	0.396443	0.402053
	C204	C	0.907582	0.591374	0.101241
	C205	C	0.106328	0.403256	0.102261
	C206	C	0.106158	0.590402	0.902459
	C207	C	0.906941	0.403515	0.903213
	C208	C	0.105922	0.896310	0.596047
	C209	C	0.107065	0.097627	0.407602
	C210	C	0.908625	0.095361	0.596537
	C211	C	0.907178	0.896862	0.407364
	C212	C	0.601495	0.097863	0.903181
	C213	C	0.410984	0.096242	0.101860
	C214	C	0.602052	0.897364	0.102729
	C215	C	0.412390	0.897830	0.903799
	Zn216	Zn	0.507153	-0.003124	0.753326
	Zn217	Zn	0.507325	-0.002877	0.251770
	Zn218	Zn	0.756952	0.497673	0.002605
	Zn219	Zn	0.257262	0.497162	0.002580
	Zn220	Zn	0.007320	0.746115	0.501592
	Zn221	Zn	0.006858	0.246810	0.502452
	Zn222	Zn	0.006518	0.496774	0.751590
	Zn223	Zn	0.006672	0.497078	0.252571
	Zn224	Zn	0.507108	0.748049	0.002776
	Zn225	Zn	0.506331	0.246993	0.003311
	Zn226	Zn	0.757300	-0.003559	0.502210
	Zn227	Zn	0.256940	-0.003571	0.502437
	N228	N	0.421097	0.959281	0.681753
	N229	N	0.593273	0.033609	0.681039
	N230	N	0.592473	0.959900	0.324440
	N231	N	0.421573	0.033607	0.323435
	N232	N	0.683719	0.413638	0.965052
	N233	N	0.685076	0.582560	0.040371
	N234	N	0.328983	0.582567	0.964556
	N235	N	0.329594	0.412519	0.040528
	N236	N	0.970471	0.675572	0.415246
	N237	N	0.044127	0.674652	0.587330
	N238	N	0.969306	0.317708	0.587870
	N239	N	0.043559	0.318050	0.416053
	N240	N	0.969191	0.410837	0.680097
	N241	N	0.043780	0.581663	0.679237
	N242	N	0.969495	0.581906	0.324193
	N243	N	0.044158	0.411623	0.323921
	N244	N	0.421336	0.676201	0.965247
	N245	N	0.592882	0.676150	0.040315
	N246	N	0.593635	0.317869	0.966455
	N247	N	0.419671	0.317636	0.039384
	N248	N	0.684712	0.959507	0.417739
	N249	N	0.686043	0.033294	0.588144
	N250	N	0.329143	0.958681	0.587660
	N251	N	0.329208	0.033935	0.416799
	N252	N	0.921297	0.460135	0.180448
	N253	N	0.092635	0.534141	0.180992
	N254	N	0.092978	0.459763	0.823374
	N255	N	0.920477	0.533913	0.822888
	N256	N	0.184129	0.912409	0.464382
	N257	N	0.185386	0.081665	0.539559
	N258	N	0.830172	0.080977	0.464751
	N259	N	0.829082	0.910841	0.539427
	N260	N	0.469394	0.176001	0.916490
	N261	N	0.542930	0.175185	0.088808
	N262	N	0.469902	0.818510	0.088743
	N263	N	0.544571	0.820237	0.917947
	N264	N	0.469878	0.911325	0.180916
	N265	N	0.543626	0.081425	0.179350
	N266	N	0.469980	0.083322	0.823770
	N267	N	0.544778	0.912830	0.825873
	N268	N	0.922014	0.174397	0.465078
	N269	N	0.094419	0.176723	0.538815
	N270	N	0.093466	0.817694	0.464896
	N271	N	0.921030	0.816830	0.538516
	N272	N	0.184609	0.459256	0.918037
	N273	N	0.185170	0.534939	0.087582
	N274	N	0.828787	0.459980	0.087622
	N275	N	0.828990	0.534948	0.917070
	O276	O	0.968198	1.011120	0.001892
	H277	H	0.968329	1.001922	-0.000577
	H278	H	0.968331	1.018853	0.008183
	O279	O	0.048611	0.016683	-0.008682
	H280	H	0.045613	0.021166	-0.004278
	H281	H	0.048521	0.010900	-0.013145
	O282	O	-0.002099	0.000184	0.967945
	H283	H	-0.008905	-0.000122	0.966390
	H284	H	-0.002652	-0.001367	0.971333
	O285	O	0.442673	0.415969	0.569901
	H286	H	0.439847	0.416943	0.565416
	H287	H	0.439334	0.422559	0.574807
	O288	O	0.472069	0.452626	0.550386
	H289	H	0.481949	0.452193	0.542560
	H290	H	0.474629	0.456783	0.552264
	O291	O	0.444083	0.471695	0.511609
	H292	H	0.442018	0.471086	0.516361
	H293	H	0.435932	0.468974	0.517139
	O294	O	0.050183	0.033355	-0.038009
	H295	H	0.049454	0.030828	-0.047369
	H296	H	0.047869	0.030870	-0.032165
	O297	O	0.454894	0.385316	0.554883
	H298	H	0.444393	0.386915	0.561238
	H299	H	0.453281	0.372467	0.562668
	O300	O	-0.005521	0.979089	0.951663
	H301	H	0.005692	0.988961	0.956071
	H302	H	-0.002850	0.978352	0.948402
	O303	O	0.491156	0.509462	0.544866
	H304	H	0.496430	0.509615	0.549425
	H305	H	0.486174	0.499902	0.542937
	O306	O	-0.544197	0.460534	0.496574
	H307	H	-0.542521	0.464122	0.492101
	H308	H	-0.545036	0.464273	0.490867
	O309	O	1.000097	0.998150	0.984577
	H310	H	0.989328	0.999262	0.977671
	H311	H	1.007384	1.000165	0.991203
	O312	O	0.439514	0.405089	0.568558
	H313	H	0.430687	0.391144	0.576370
	H314	H	0.440022	0.412195	0.568298
	O315	O	0.439595	0.487919	0.494846
	H316	H	0.442357	0.481517	0.489950
	H317	H	0.446219	0.490302	0.492010
	O318	O	-0.057987	0.993517	-0.027295
	H319	H	-0.056944	0.989296	-0.027674
	H320	H	-0.051362	0.992551	-0.026067
	O321	O	0.965471	0.993463	-0.030825
	H322	H	0.960488	0.987666	-0.032911
	H323	H	0.962188	0.994570	-0.035007
