data_Molecule from HDF5

_cell_length_a		16.277367
_cell_length_b		16.319749
_cell_length_c		16.122245
_cell_angle_alpha	89.329658
_cell_angle_beta	89.469043
_cell_angle_gamma	90.471674
_symmetry_space_group_name_H-M	'P 1'
_symmetry_Int_Tables_number		1

loop_
	_symmetry_equiv_pos_as_xyz
	x,y,z

loop_
	_atom_site_label
	_atom_site_type_symbol
	_atom_site_fract_x
	_atom_site_fract_y
	_atom_site_fract_z
	H0	H	0.409038	0.840824	0.714651
	H1	H	0.607211	0.168700	0.706038
	H2	H	0.607636	0.840379	0.283552
	H3	H	0.415998	0.168505	0.282772
	H4	H	0.721598	0.408721	0.831662
	H5	H	0.720615	0.602724	0.161806
	H6	H	0.297631	0.604019	0.830402
	H7	H	0.290596	0.403315	0.160653
	H8	H	0.845882	0.721907	0.394763
	H9	H	0.171219	0.720153	0.593765
	H10	H	0.845601	0.282643	0.600674
	H11	H	0.172642	0.293031	0.395563
	H12	H	0.843966	0.401969	0.713799
	H13	H	0.172679	0.601304	0.706763
	H14	H	0.842941	0.602118	0.284549
	H15	H	0.172091	0.411716	0.281701
	H16	H	0.410002	0.721870	0.832239
	H17	H	0.604994	0.717537	0.161535
	H18	H	0.604842	0.296139	0.831049
	H19	H	0.403407	0.287205	0.160672
	H20	H	0.723631	0.840661	0.398405
	H21	H	0.726180	0.166548	0.592948
	H22	H	0.290247	0.842083	0.601320
	H23	H	0.297837	0.168527	0.396727
	H24	H	0.907087	0.341324	0.213160
	H25	H	0.104046	0.669843	0.205143
	H26	H	0.104062	0.339830	0.784296
	H27	H	0.910917	0.666945	0.779645
	H28	H	0.224143	0.909412	0.331745
	H29	H	0.220883	0.100006	0.663377
	H30	H	0.799644	0.102558	0.330110
	H31	H	0.792468	0.901109	0.661547
	H32	H	0.343256	0.218450	0.898618
	H33	H	0.670315	0.223222	0.094718
	H34	H	0.344686	0.786803	0.100255
	H35	H	0.670876	0.791381	0.894994
	H36	H	0.345253	0.905559	0.214159
	H37	H	0.673468	0.102066	0.205230
	H38	H	0.343819	0.100539	0.783306
	H39	H	0.672596	0.910600	0.783671
	H40	H	0.913473	0.218665	0.331366
	H41	H	0.107687	0.217174	0.662057
	H42	H	0.108178	0.794421	0.330819
	H43	H	0.907139	0.785415	0.660302
	H44	H	0.222941	0.341027	0.897149
	H45	H	0.224597	0.667363	0.093684
	H46	H	0.788670	0.342003	0.099579
	H47	H	0.793845	0.667857	0.894190
	H48	H	0.421902	0.120156	0.592105
	H49	H	0.603405	0.887058	0.589005
	H50	H	0.605513	0.122616	0.394893
	H51	H	0.413410	0.885105	0.396856
	H52	H	0.603012	0.416256	0.115572
	H53	H	0.593623	0.590138	0.883167
	H54	H	0.410118	0.590249	0.114263
	H55	H	0.421102	0.413931	0.880777
	H56	H	0.125454	0.590613	0.389840
	H57	H	0.892272	0.603521	0.579061
	H58	H	0.121759	0.404649	0.575650
	H59	H	0.893330	0.413473	0.406712
	H60	H	0.120697	0.424487	0.590174
	H61	H	0.895462	0.583334	0.585232
	H62	H	0.129896	0.613199	0.396453
	H63	H	0.888794	0.406704	0.400612
	H64	H	0.421324	0.594349	0.111810
	H65	H	0.596490	0.610410	0.877058
	H66	H	0.591305	0.414339	0.111923
	H67	H	0.413415	0.406371	0.875143
	H68	H	0.603108	0.118572	0.403785
	H69	H	0.600708	0.886619	0.594157
	H70	H	0.414274	0.119143	0.581705
	H71	H	0.425517	0.892411	0.409617
	H72	H	0.917415	0.620656	0.088698
	H73	H	0.099916	0.387485	0.092097
	H74	H	0.108354	0.621393	0.903689
	H75	H	0.904186	0.386891	0.911810
	H76	H	0.106230	0.906163	0.618129
	H77	H	0.107600	0.099594	0.378302
	H78	H	0.917382	0.091981	0.613528
	H79	H	0.921288	0.919163	0.381468
	H80	H	0.626446	0.096545	0.890995
	H81	H	0.393207	0.094332	0.086021
	H82	H	0.622726	0.914468	0.084977
	H83	H	0.389947	0.913439	0.902242
	H84	H	0.626458	0.911092	0.093204
	H85	H	0.390434	0.093657	0.094129
	H86	H	0.628193	0.115793	0.901130
	H87	H	0.389963	0.905877	0.909062
	H88	H	0.917288	0.094897	0.613762
	H89	H	0.103260	0.097705	0.379799
	H90	H	0.099219	0.918981	0.611330
	H91	H	0.921085	0.905907	0.378198
	H92	H	0.102633	0.622852	0.894918
	H93	H	0.096216	0.389479	0.089842
	H94	H	0.910539	0.620891	0.084743
	H95	H	0.913875	0.385618	0.898366
	H96	H	0.409618	0.123271	0.592749
	H97	H	0.597516	0.888478	0.589475
	H98	H	0.611255	0.121831	0.402436
	H99	H	0.407273	0.887741	0.414449
	H100	H	0.598104	0.405156	0.116462
	H101	H	0.612067	0.596843	0.876193
	H102	H	0.412100	0.601314	0.116567
	H103	H	0.410313	0.417162	0.878114
	H104	H	0.120871	0.597484	0.413376
	H105	H	0.887488	0.597259	0.598689
	H106	H	0.129863	0.402813	0.599594
	H107	H	0.891109	0.404471	0.410061
	H108	H	0.911003	0.623096	0.093097
	H109	H	0.100167	0.389212	0.086940
	H110	H	0.098287	0.617637	0.903413
	H111	H	0.920685	0.392076	0.911903
	H112	H	0.090876	0.905385	0.613016
	H113	H	0.103474	0.102665	0.378097
	H114	H	0.914504	0.093060	0.614383
	H115	H	0.910323	0.913094	0.376816
	H116	H	0.620371	0.097932	0.911538
	H117	H	0.389913	0.101423	0.090331
	H118	H	0.626158	0.905100	0.086354
	H119	H	0.393891	0.916124	0.910872
	C120	C	0.385987	0.013008	0.619575
	C121	C	0.630319	0.995560	0.617764
	C122	C	0.633337	0.012617	0.373194
	C123	C	0.388374	0.996235	0.376722
	C124	C	0.627127	0.384851	0.005254
	C125	C	0.628751	0.626653	0.987971
	C126	C	0.386895	0.625452	0.005226
	C127	C	0.385122	0.382877	0.987296
	C128	C	0.016819	0.627868	0.372684
	C129	C	0.999740	0.624130	0.616198
	C130	C	0.016211	0.380600	0.618939
	C131	C	0.999732	0.382728	0.375254
	C132	C	0.883645	0.513692	0.119090
	C133	C	0.128228	0.496763	0.116985
	C134	C	0.130506	0.512572	0.873146
	C135	C	0.885811	0.495929	0.875957
	C136	C	0.129097	0.883156	0.505186
	C137	C	0.131958	0.126849	0.488293
	C138	C	0.889043	0.123454	0.504772
	C139	C	0.887240	0.881891	0.487685
	C140	C	0.516369	0.129168	0.873483
	C141	C	0.499568	0.125949	0.117307
	C142	C	0.516906	0.881425	0.118959
	C143	C	0.499566	0.884495	0.877046
	C144	C	0.388010	0.889992	0.676672
	C145	C	0.628072	0.119198	0.670039
	C146	C	0.629019	0.889589	0.319788
	C147	C	0.393812	0.119499	0.320438
	C148	C	0.683109	0.388565	0.880913
	C149	C	0.683374	0.623625	0.112224
	C150	C	0.334015	0.624034	0.880126
	C151	C	0.328705	0.383767	0.111504
	C152	C	0.894171	0.683316	0.375403
	C153	C	0.122603	0.681061	0.614041
	C154	C	0.893944	0.322457	0.619463
	C155	C	0.123461	0.330184	0.376195
	C156	C	0.893311	0.381275	0.676054
	C157	C	0.123152	0.621905	0.670060
	C158	C	0.892398	0.623514	0.320817
	C159	C	0.123082	0.389157	0.319383
	C160	C	0.389918	0.682699	0.881035
	C161	C	0.625876	0.680556	0.112174
	C162	C	0.625076	0.332280	0.880649
	C163	C	0.385059	0.326197	0.111497
	C164	C	0.686747	0.889640	0.376981
	C165	C	0.687412	0.118118	0.613946
	C166	C	0.328867	0.890542	0.620387
	C167	C	0.334947	0.119562	0.377034
	C168	C	0.885819	0.390482	0.175594
	C169	C	0.124991	0.620485	0.169133
	C170	C	0.125819	0.389059	0.820595
	C171	C	0.889604	0.618451	0.818132
	C172	C	0.185651	0.888230	0.380990
	C173	C	0.184726	0.122033	0.613311
	C174	C	0.835916	0.122443	0.379942
	C175	C	0.830643	0.881860	0.611858
	C176	C	0.392534	0.181648	0.877300
	C177	C	0.622156	0.183755	0.114355
	C178	C	0.393712	0.825348	0.119470
	C179	C	0.622373	0.829577	0.876431
	C180	C	0.393818	0.884460	0.175779
	C181	C	0.623753	0.123393	0.169154
	C182	C	0.392785	0.122910	0.820275
	C183	C	0.623384	0.889120	0.821215
	C184	C	0.892663	0.180100	0.380381
	C185	C	0.128194	0.179871	0.612919
	C186	C	0.128378	0.830652	0.380534
	C187	C	0.887399	0.824008	0.611289
	C188	C	0.184945	0.389773	0.876784
	C189	C	0.185089	0.619187	0.113851
	C190	C	0.826888	0.390884	0.119108
	C191	C	0.831477	0.618998	0.875336
	C192	C	0.408623	0.098589	0.595955
	C193	C	0.607390	0.909738	0.597028
	C194	C	0.612717	0.098780	0.394199
	C195	C	0.409012	0.910559	0.400129
	C196	C	0.604210	0.405663	0.092358
	C197	C	0.607097	0.605329	0.901211
	C198	C	0.408008	0.601990	0.091663
	C199	C	0.408197	0.405866	0.900286
	C200	C	0.103018	0.606658	0.393756
	C201	C	0.913863	0.601309	0.594125
	C202	C	0.101928	0.403958	0.595467
	C203	C	0.913374	0.402475	0.398896
	C204	C	0.906349	0.599276	0.095854
	C205	C	0.105410	0.410875	0.095829
	C206	C	0.109496	0.598609	0.894359
	C207	C	0.906792	0.410464	0.900191
	C208	C	0.105565	0.903813	0.591948
	C209	C	0.111046	0.106165	0.401207
	C210	C	0.910241	0.100228	0.591414
	C211	C	0.910714	0.905773	0.401199
	C212	C	0.602645	0.109399	0.894827
	C213	C	0.413459	0.103172	0.096458
	C214	C	0.602952	0.903635	0.095242
	C215	C	0.413569	0.905580	0.900573
	Zn216	Zn	0.508866	0.004751	0.747016
	Zn217	Zn	0.510099	0.004290	0.246484
	Zn218	Zn	0.755653	0.505320	-0.003358
	Zn219	Zn	0.258649	0.504343	-0.004349
	Zn220	Zn	0.008399	0.754386	0.495263
	Zn221	Zn	0.009306	0.252775	0.496989
	Zn222	Zn	0.007571	0.503299	0.746328
	Zn223	Zn	0.006630	0.505501	0.246578
	Zn224	Zn	0.507709	0.753960	-0.003567
	Zn225	Zn	0.506486	0.256720	-0.003374
	Zn226	Zn	0.760214	0.003373	0.496113
	Zn227	Zn	0.258153	0.004711	0.497396
	N228	N	0.422823	0.967100	0.676243
	N229	N	0.593526	0.041878	0.672816
	N230	N	0.596679	0.967202	0.316963
	N231	N	0.426428	0.041948	0.320126
	N232	N	0.684439	0.420397	0.959544
	N233	N	0.685172	0.590707	0.034068
	N234	N	0.331794	0.589199	0.958372
	N235	N	0.328518	0.418171	0.033204
	N236	N	0.972584	0.686289	0.407005
	N237	N	0.045018	0.682462	0.581087
	N238	N	0.971492	0.321851	0.584642
	N239	N	0.045606	0.326012	0.410222
	N240	N	0.970224	0.416851	0.675679
	N241	N	0.045789	0.586878	0.671396
	N242	N	0.969530	0.590000	0.318874
	N243	N	0.045125	0.421121	0.318809
	N244	N	0.422028	0.683658	0.959663
	N245	N	0.592789	0.682618	0.033881
	N246	N	0.590713	0.330125	0.959037
	N247	N	0.419491	0.325676	0.033181
	N248	N	0.689658	0.967237	0.409267
	N249	N	0.688874	0.040246	0.582188
	N250	N	0.327546	0.967999	0.585399
	N251	N	0.331430	0.041900	0.411382
	N252	N	0.920500	0.467644	0.175839
	N253	N	0.090276	0.543201	0.171218
	N254	N	0.092759	0.466294	0.818408
	N255	N	0.922454	0.541042	0.818231
	N256	N	0.186240	0.919979	0.459621
	N257	N	0.187178	0.089982	0.534732
	N258	N	0.833571	0.087786	0.458233
	N259	N	0.830310	0.916876	0.533855
	N260	N	0.470323	0.185703	0.909669
	N261	N	0.543726	0.185601	0.082812
	N262	N	0.471316	0.823380	0.084925
	N263	N	0.544575	0.826854	0.910557
	N264	N	0.471383	0.918627	0.175760
	N265	N	0.546732	0.088246	0.171073
	N266	N	0.470824	0.091114	0.817799
	N267	N	0.546111	0.922759	0.821629
	N268	N	0.925201	0.180756	0.458887
	N269	N	0.096321	0.183376	0.534099
	N270	N	0.093794	0.827640	0.458668
	N271	N	0.921882	0.824030	0.533021
	N272	N	0.188133	0.467626	0.908644
	N273	N	0.187305	0.541357	0.082228
	N274	N	0.825455	0.468437	0.084699
	N275	N	0.829141	0.541839	0.910864
	O276	O	-0.046311	0.068329	-0.088144
	H277	H	-0.042132	0.069860	-0.083943
	H278	H	-0.059055	0.070322	-0.099567
	O279	O	0.480466	0.580631	0.407716
	H280	H	0.487575	0.574122	0.394275
	H281	H	0.484048	0.588991	0.404756
	O282	O	0.440699	0.433673	0.509445
	H283	H	0.432345	0.437610	0.507985
	H284	H	0.436612	0.427117	0.515600
	O285	O	0.995424	0.019688	0.901891
	H286	H	0.993808	0.022887	0.906001
	H287	H	0.994855	0.021736	0.902642
	O288	O	0.963438	0.014562	0.090565
	H289	H	0.952234	0.015814	0.095615
	H290	H	0.972695	0.019723	0.097275
	O291	O	0.475517	0.461041	0.531205
	H292	H	0.480533	0.459364	0.529208
	H293	H	0.475606	0.454836	0.530391
	O294	O	0.988979	-0.007956	1.032069
	H295	H	0.976436	0.000556	1.025245
	H296	H	0.989768	-0.012440	1.033862
	O297	O	0.007300	0.014472	-0.023410
	H298	H	0.008285	0.012420	-0.014851
	H299	H	-0.002588	0.011549	-0.018630
	O300	O	0.485972	0.462990	0.567519
	H301	H	0.493620	0.463841	0.565450
	H302	H	0.487883	0.457497	0.571752
	O303	O	0.516639	0.558717	0.537822
	H304	H	0.513017	0.558266	0.536974
	H305	H	0.511648	0.548927	0.540047
	O306	O	1.092099	0.055053	0.032006
	H307	H	1.086387	0.049017	0.030735
	H308	H	1.090677	0.058741	0.032679
	O309	O	0.004491	-0.006366	0.997957
	H310	H	0.009895	-0.004455	0.995788
	H311	H	0.012386	0.003058	0.991056
	O312	O	0.940844	1.012881	0.972732
	H313	H	0.926416	1.012127	0.981104
	H314	H	0.938674	1.022160	0.967502
	O315	O	0.530170	0.439914	0.459154
	H316	H	0.527672	0.436327	0.461025
	H317	H	0.539814	0.437694	0.463390
	O318	O	0.441580	0.516450	0.490858
	H319	H	0.433954	0.521154	0.480808
	H320	H	0.435098	0.507206	0.490337
	O321	O	-0.040318	0.932720	1.053706
	H322	H	-0.035485	0.936104	1.053429
	H323	H	-0.035156	0.919153	1.057479
	O324	O	0.522536	0.413247	0.596418
	H325	H	0.516469	0.415971	0.594758
	H326	H	0.521555	0.412920	0.593367
	O327	O	0.492769	0.589234	0.455141
	H328	H	0.498070	0.591900	0.459591
	H329	H	0.483169	0.591000	0.470283
	O330	O	0.488915	0.475077	0.484577
	H331	H	0.488876	0.482960	0.490246
	H332	H	0.488176	0.477479	0.473437
	O333	O	0.540037	0.530814	0.482080
	H334	H	0.538806	0.539119	0.483490
	H335	H	0.531701	0.517879	0.487320
	O336	O	0.510872	0.543602	0.493002
	H337	H	0.513073	0.554706	0.490702
	H338	H	0.508534	0.549973	0.488552
	O339	O	0.998720	1.058291	-0.003778
	H340	H	1.008150	1.054613	-0.017552
	H341	H	0.998870	1.051167	-0.014383
	O342	O	0.500751	0.499898	0.490182
	H343	H	0.509631	0.498737	0.490453
	H344	H	0.496092	0.492300	0.500422
	O345	O	0.417661	0.424791	0.562415
	H346	H	0.427084	0.414316	0.569292
	H347	H	0.410671	0.432092	0.565352
	O348	O	-0.070621	0.110250	-0.020876
	H349	H	-0.067972	0.115501	-0.013651
	H350	H	-0.058968	0.105491	-0.013882
	O351	O	-0.022503	1.013980	0.943030
	H352	H	-0.018422	1.002909	0.942165
	H353	H	-0.026923	1.004554	0.952267
	O354	O	0.479998	0.467757	0.480256
	H355	H	0.466924	0.470333	0.488107
	H356	H	0.484077	0.457543	0.465523
	O357	O	-0.014245	0.956761	1.055521
	H358	H	-0.017213	0.954202	1.058143
	H359	H	-0.017074	0.950309	1.064378
