data_Molecule from HDF5

_cell_length_a		16.318975
_cell_length_b		16.270248
_cell_length_c		16.264920
_cell_angle_alpha	89.598227
_cell_angle_beta	89.791861
_cell_angle_gamma	90.198688
_symmetry_space_group_name_H-M	'P 1'
_symmetry_Int_Tables_number		1

loop_
	_symmetry_equiv_pos_as_xyz
	x,y,z

loop_
	_atom_site_label
	_atom_site_type_symbol
	_atom_site_fract_x
	_atom_site_fract_y
	_atom_site_fract_z
	H0	H	0.402498	0.834637	0.716313
	H1	H	0.600408	0.161548	0.712959
	H2	H	0.600733	0.833580	0.288493
	H3	H	0.405049	0.161688	0.284402
	H4	H	0.717198	0.398459	0.836344
	H5	H	0.715691	0.593934	0.163419
	H6	H	0.288466	0.596145	0.836125
	H7	H	0.284959	0.396356	0.163817
	H8	H	0.838023	0.713520	0.401155
	H9	H	0.164268	0.713933	0.597159
	H10	H	0.838758	0.282717	0.598726
	H11	H	0.165373	0.285067	0.400438
	H12	H	0.839140	0.398738	0.714991
	H13	H	0.164732	0.598006	0.713833
	H14	H	0.838032	0.597207	0.285083
	H15	H	0.164728	0.401185	0.285225
	H16	H	0.404277	0.712623	0.836515
	H17	H	0.600241	0.710531	0.164136
	H18	H	0.598559	0.285241	0.836379
	H19	H	0.402298	0.281034	0.164040
	H20	H	0.718106	0.834978	0.401307
	H21	H	0.716630	0.161558	0.597908
	H22	H	0.286131	0.835006	0.600900
	H23	H	0.288392	0.162301	0.400612
	H24	H	0.902265	0.334580	0.216405
	H25	H	0.100123	0.662561	0.211965
	H26	H	0.099716	0.334264	0.786584
	H27	H	0.904594	0.661614	0.785393
	H28	H	0.217465	0.900872	0.337455
	H29	H	0.217248	0.098505	0.663663
	H30	H	0.787506	0.098629	0.336489
	H31	H	0.785939	0.898117	0.663535
	H32	H	0.338372	0.211182	0.903149
	H33	H	0.664913	0.212213	0.097971
	H34	H	0.338765	0.779862	0.101177
	H35	H	0.664691	0.783814	0.901822
	H36	H	0.338745	0.895901	0.217673
	H37	H	0.665545	0.095322	0.212788
	H38	H	0.338715	0.096934	0.785647
	H39	H	0.665003	0.900510	0.785044
	H40	H	0.904032	0.214752	0.336575
	H41	H	0.100379	0.212726	0.663986
	H42	H	0.100157	0.786360	0.335662
	H43	H	0.901296	0.781812	0.662854
	H44	H	0.214882	0.333955	0.902414
	H45	H	0.218147	0.660698	0.098733
	H46	H	0.786882	0.334183	0.100276
	H47	H	0.788759	0.661336	0.900804
	H48	H	0.411066	0.113074	0.589025
	H49	H	0.594960	0.879184	0.601138
	H50	H	0.597233	0.112727	0.414132
	H51	H	0.409614	0.882936	0.410445
	H52	H	0.595041	0.399088	0.118989
	H53	H	0.594098	0.587952	0.884353
	H54	H	0.409502	0.592194	0.117579
	H55	H	0.397827	0.403284	0.880169
	H56	H	0.118019	0.588017	0.397564
	H57	H	0.885340	0.586072	0.596951
	H58	H	0.116028	0.405194	0.582911
	H59	H	0.887872	0.412839	0.409358
	H60	H	0.117434	0.413665	0.600564
	H61	H	0.883664	0.594980	0.594303
	H62	H	0.120230	0.602022	0.406903
	H63	H	0.883894	0.403553	0.402684
	H64	H	0.404210	0.584930	0.116773
	H65	H	0.593631	0.594744	0.882360
	H66	H	0.598889	0.406302	0.117102
	H67	H	0.411270	0.414019	0.886901
	H68	H	0.598473	0.116358	0.401404
	H69	H	0.587283	0.883243	0.591046
	H70	H	0.404871	0.116195	0.592323
	H71	H	0.407188	0.881926	0.410220
	H72	H	0.907867	0.614507	0.092306
	H73	H	0.088996	0.383955	0.087799
	H74	H	0.101493	0.616155	0.908814
	H75	H	0.907833	0.382183	0.911909
	H76	H	0.091094	0.909982	0.614388
	H77	H	0.099330	0.089095	0.383133
	H78	H	0.909206	0.090614	0.616259
	H79	H	0.914862	0.906250	0.384968
	H80	H	0.617613	0.091470	0.908660
	H81	H	0.383788	0.093818	0.096574
	H82	H	0.617024	0.904631	0.092468
	H83	H	0.386295	0.906586	0.909767
	H84	H	0.618242	0.904149	0.096328
	H85	H	0.387951	0.088984	0.086499
	H86	H	0.618494	0.089925	0.904710
	H87	H	0.384864	0.905166	0.904923
	H88	H	0.908042	0.091126	0.617238
	H89	H	0.092083	0.091833	0.385738
	H90	H	0.090958	0.900726	0.616954
	H91	H	0.906670	0.902998	0.381338
	H92	H	0.093747	0.615609	0.900113
	H93	H	0.101111	0.379824	0.092153
	H94	H	0.909092	0.614919	0.092192
	H95	H	0.905937	0.379583	0.905566
	H96	H	0.410947	0.115524	0.595923
	H97	H	0.599880	0.881172	0.589233
	H98	H	0.586894	0.111665	0.405573
	H99	H	0.408536	0.881334	0.407957
	H100	H	0.590753	0.405594	0.115000
	H101	H	0.600090	0.591267	0.881987
	H102	H	0.413360	0.584347	0.113828
	H103	H	0.414126	0.396608	0.883136
	H104	H	0.113783	0.588042	0.413953
	H105	H	0.887405	0.589456	0.587920
	H106	H	0.122969	0.394447	0.598334
	H107	H	0.886823	0.401445	0.414736
	H108	H	0.908647	0.614268	0.091313
	H109	H	0.089521	0.380505	0.100967
	H110	H	0.090787	0.611441	0.910336
	H111	H	0.912223	0.381695	0.906826
	H112	H	0.098650	0.905230	0.618132
	H113	H	0.096582	0.096927	0.382383
	H114	H	0.908447	0.089810	0.616169
	H115	H	0.907034	0.913027	0.384023
	H116	H	0.618890	0.093821	0.905121
	H117	H	0.386915	0.082087	0.096132
	H118	H	0.618502	0.900521	0.093124
	H119	H	0.384765	0.901293	0.908857
	C120	C	0.379916	0.006650	0.621630
	C121	C	0.622972	0.989338	0.621535
	C122	C	0.623814	0.006119	0.378409
	C123	C	0.380425	0.989881	0.379300
	C124	C	0.623369	0.376014	0.008556
	C125	C	0.623791	0.618974	0.991339
	C126	C	0.380542	0.617693	0.008302
	C127	C	0.379037	0.374961	0.991851
	C128	C	0.009850	0.621549	0.377237
	C129	C	0.993009	0.619692	0.621221
	C130	C	0.010776	0.375769	0.622259
	C131	C	0.993802	0.377659	0.379272
	C132	C	0.879809	0.506368	0.121818
	C133	C	0.122494	0.489685	0.121376
	C134	C	0.123145	0.506152	0.878494
	C135	C	0.880744	0.489174	0.878820
	C136	C	0.123075	0.877189	0.508570
	C137	C	0.123738	0.120645	0.492067
	C138	C	0.880558	0.119857	0.508179
	C139	C	0.880004	0.877245	0.491631
	C140	C	0.510459	0.120199	0.877770
	C141	C	0.493861	0.117603	0.121215
	C142	C	0.510270	0.873995	0.123434
	C143	C	0.493217	0.876643	0.879456
	C144	C	0.382397	0.883412	0.677638
	C145	C	0.620909	0.112634	0.675797
	C146	C	0.621425	0.882778	0.324775
	C147	C	0.383831	0.112836	0.322498
	C148	C	0.678778	0.378732	0.885358
	C149	C	0.678177	0.615342	0.114630
	C150	C	0.325751	0.616547	0.885091
	C151	C	0.323187	0.376206	0.114894
	C152	C	0.886811	0.675935	0.379993
	C153	C	0.115740	0.675612	0.618360
	C154	C	0.887515	0.320680	0.619449
	C155	C	0.116533	0.322950	0.380474
	C156	C	0.887802	0.378034	0.677250
	C157	C	0.115971	0.617791	0.675899
	C158	C	0.886903	0.618452	0.322295
	C159	C	0.116321	0.380649	0.323138
	C160	C	0.383518	0.674278	0.885355
	C161	C	0.620757	0.673093	0.115003
	C162	C	0.619820	0.322638	0.884941
	C163	C	0.381568	0.319083	0.115097
	C164	C	0.679479	0.883333	0.381253
	C165	C	0.678680	0.112505	0.618609
	C166	C	0.324369	0.883750	0.620627
	C167	C	0.326083	0.113243	0.380174
	C168	C	0.881924	0.383499	0.178240
	C169	C	0.120667	0.613173	0.175033
	C170	C	0.120150	0.383112	0.824337
	C171	C	0.883738	0.612535	0.823174
	C172	C	0.178785	0.880511	0.385772
	C173	C	0.179073	0.118184	0.614925
	C174	C	0.825305	0.118869	0.385513
	C175	C	0.823963	0.878247	0.614523
	C176	C	0.387358	0.174331	0.881492
	C177	C	0.616356	0.173860	0.118390
	C178	C	0.387377	0.818294	0.121551
	C179	C	0.616357	0.822189	0.881800
	C180	C	0.387682	0.875584	0.179736
	C181	C	0.616414	0.116046	0.175866
	C182	C	0.387415	0.117150	0.823572
	C183	C	0.616364	0.879893	0.823838
	C184	C	0.883514	0.176259	0.385254
	C185	C	0.120805	0.174790	0.615234
	C186	C	0.120786	0.823289	0.385007
	C187	C	0.881068	0.820204	0.614234
	C188	C	0.177351	0.382826	0.881975
	C189	C	0.179425	0.612268	0.118813
	C190	C	0.824510	0.383231	0.120546
	C191	C	0.826248	0.612328	0.880599
	C192	C	0.402290	0.092667	0.599014
	C193	C	0.600452	0.903382	0.600091
	C194	C	0.601054	0.091522	0.400587
	C195	C	0.402089	0.904245	0.402754
	C196	C	0.601349	0.397324	0.094676
	C197	C	0.602271	0.597719	0.905300
	C198	C	0.402375	0.594093	0.093998
	C199	C	0.401237	0.397890	0.905652
	C200	C	0.095130	0.599206	0.399539
	C201	C	0.907577	0.596955	0.599372
	C202	C	0.096596	0.397727	0.600357
	C203	C	0.908261	0.399617	0.402290
	C204	C	0.901999	0.592398	0.098668
	C205	C	0.099746	0.403647	0.099941
	C206	C	0.101775	0.592165	0.900028
	C207	C	0.902342	0.403356	0.901456
	C208	C	0.100204	0.898923	0.594360
	C209	C	0.102289	0.098997	0.405910
	C210	C	0.902216	0.097105	0.594480
	C211	C	0.902941	0.900543	0.405584
	C212	C	0.596279	0.098220	0.899386
	C213	C	0.408183	0.094889	0.099455
	C214	C	0.595766	0.896681	0.100807
	C215	C	0.407772	0.897957	0.901500
	Zn216	Zn	0.501542	-0.001630	0.750052
	Zn217	Zn	0.502272	-0.003052	0.250764
	Zn218	Zn	0.751949	0.497301	-0.000202
	Zn219	Zn	0.251213	0.497073	-0.000159
	Zn220	Zn	0.001275	0.748949	0.499376
	Zn221	Zn	0.002474	0.248634	0.500119
	Zn222	Zn	0.002123	0.497904	0.749976
	Zn223	Zn	0.001352	0.499025	0.250187
	Zn224	Zn	0.501919	0.746768	0.000602
	Zn225	Zn	0.501957	0.247258	0.000560
	Zn226	Zn	0.751551	-0.001715	0.500147
	Zn227	Zn	0.251178	-0.001002	0.500726
	N228	N	0.416071	0.960988	0.678623
	N229	N	0.587089	0.034992	0.677921
	N230	N	0.587363	0.959988	0.322822
	N231	N	0.416826	0.035057	0.321784
	N232	N	0.680924	0.411257	0.963242
	N233	N	0.680163	0.582524	0.036991
	N234	N	0.323828	0.581971	0.962523
	N235	N	0.321574	0.410181	0.037234
	N236	N	0.964026	0.677915	0.413356
	N237	N	0.038438	0.676789	0.584862
	N238	N	0.965107	0.318985	0.586148
	N239	N	0.039428	0.320913	0.414673
	N240	N	0.965221	0.411615	0.679052
	N241	N	0.038674	0.583637	0.677741
	N242	N	0.964391	0.585048	0.320506
	N243	N	0.038924	0.414147	0.322545
	N244	N	0.416907	0.674981	0.962983
	N245	N	0.587644	0.675668	0.037251
	N246	N	0.586106	0.320617	0.962540
	N247	N	0.415545	0.318212	0.037512
	N248	N	0.681185	0.961039	0.413775
	N249	N	0.679736	0.035037	0.585289
	N250	N	0.322697	0.961329	0.586614
	N251	N	0.323688	0.035864	0.414695
	N252	N	0.915661	0.461201	0.179193
	N253	N	0.085923	0.536027	0.176626
	N254	N	0.087304	0.460748	0.822021
	N255	N	0.916911	0.534967	0.821825
	N256	N	0.180208	0.913289	0.463370
	N257	N	0.181106	0.085393	0.537081
	N258	N	0.823469	0.084496	0.463109
	N259	N	0.823217	0.912933	0.537124
	N260	N	0.464801	0.176305	0.914521
	N261	N	0.539079	0.174769	0.084906
	N262	N	0.464637	0.816863	0.087429
	N263	N	0.538938	0.820165	0.915714
	N264	N	0.465105	0.909410	0.181045
	N265	N	0.539328	0.081609	0.177355
	N266	N	0.465072	0.084341	0.821001
	N267	N	0.538996	0.912873	0.821877
	N268	N	0.917043	0.176892	0.462685
	N269	N	0.087096	0.176352	0.537926
	N270	N	0.086881	0.821001	0.462532
	N271	N	0.915451	0.819842	0.536822
	N272	N	0.179593	0.460485	0.914759
	N273	N	0.180709	0.534427	0.086134
	N274	N	0.823092	0.460683	0.086359
	N275	N	0.824385	0.534762	0.914757
	O276	O	0.982054	0.987133	0.026315
	H277	H	0.979092	0.991960	0.027942
	H278	H	0.981567	0.987410	0.030556
	O279	O	0.037471	-0.015809	-0.007539
	H280	H	0.040320	-0.022692	-0.011282
	H281	H	0.034960	-0.015370	-0.003151
	O282	O	-0.001765	-0.030644	1.011209
	H283	H	-0.008237	-0.026404	1.009371
	H284	H	-0.003675	-0.028204	1.021877
	O285	O	0.488553	0.575978	0.458455
	H286	H	0.484031	0.578506	0.465147
	H287	H	0.488334	0.573763	0.460416
	O288	O	0.457038	0.456156	0.461873
	H289	H	0.456321	0.446124	0.466337
	H290	H	0.451524	0.455385	0.470185
	O291	O	0.409964	0.497519	0.496713
	H292	H	0.415957	0.491716	0.493757
	H293	H	0.414429	0.506090	0.499913
	O294	O	-0.028343	-0.036289	0.021766
	H295	H	-0.039007	-0.034043	0.027638
	H296	H	-0.031258	-0.046627	0.019253
	O297	O	0.487150	0.475081	0.461213
	H298	H	0.488089	0.478510	0.462271
	H299	H	0.482848	0.475473	0.452777
	O300	O	-0.000478	1.018505	0.975181
	H301	H	-0.001250	1.009549	0.980871
	H302	H	-0.000880	1.018523	0.971158
	O303	O	0.463797	0.530309	0.478380
	H304	H	0.458032	0.535000	0.467452
	H305	H	0.468297	0.529138	0.472923
	O306	O	0.052469	0.035897	1.012822
	H307	H	0.058782	0.032561	1.012384
	H308	H	0.049623	0.037283	1.009543
	O309	O	1.018130	0.959357	1.036994
	H310	H	1.017226	0.956415	1.042526
	H311	H	1.023256	0.961566	1.038676
	O312	O	0.498114	0.499298	0.502491
	H313	H	0.490685	0.502233	0.500667
	H314	H	0.500102	0.501269	0.500958
	O315	O	0.454475	0.493503	0.471645
	H316	H	0.453444	0.501120	0.470768
	H317	H	0.446320	0.484987	0.488152
	O318	O	-0.006566	1.008937	-0.015005
	H319	H	-0.005609	1.009435	-0.012707
	H320	H	0.000212	1.006407	-0.026693
	O321	O	1.084135	1.007480	0.030998
	H322	H	1.082942	1.003316	0.028074
	H323	H	1.085921	1.013979	0.028917
