data_Molecule from HDF5

_cell_length_a		16.691982
_cell_length_b		16.469821
_cell_length_c		16.611726
_cell_angle_alpha	89.930434
_cell_angle_beta	90.029368
_cell_angle_gamma	89.981170
_symmetry_space_group_name_H-M	'P 1'
_symmetry_Int_Tables_number		1

loop_
	_symmetry_equiv_pos_as_xyz
	x,y,z

loop_
	_atom_site_label
	_atom_site_type_symbol
	_atom_site_fract_x
	_atom_site_fract_y
	_atom_site_fract_z
	H0	H	0.371209	0.826613	0.712196
	H1	H	0.577441	0.142350	0.712666
	H2	H	0.575279	0.826551	0.278834
	H3	H	0.366600	0.141734	0.269580
	H4	H	0.696092	0.377295	0.835979
	H5	H	0.698676	0.591314	0.146865
	H6	H	0.253147	0.589825	0.838070
	H7	H	0.253798	0.376542	0.150146
	H8	H	0.819613	0.703439	0.391082
	H9	H	0.133961	0.701301	0.592707
	H10	H	0.823036	0.260169	0.601038
	H11	H	0.131184	0.260893	0.386514
	H12	H	0.822999	0.375376	0.718753
	H13	H	0.133091	0.586681	0.712541
	H14	H	0.821508	0.590346	0.270663
	H15	H	0.129530	0.374349	0.267300
	H16	H	0.371547	0.703627	0.836781
	H17	H	0.578036	0.703321	0.149547
	H18	H	0.576855	0.264116	0.835631
	H19	H	0.371795	0.263737	0.150475
	H20	H	0.694110	0.827900	0.391865
	H21	H	0.695524	0.142160	0.599100
	H22	H	0.253957	0.827977	0.597473
	H23	H	0.251748	0.142071	0.385555
	H24	H	0.867134	0.328511	0.216630
	H25	H	0.079963	0.639535	0.213074
	H26	H	0.080572	0.326544	0.773277
	H27	H	0.874547	0.643105	0.776427
	H28	H	0.199043	0.877756	0.338464
	H29	H	0.201642	0.095486	0.646839
	H30	H	0.750613	0.095511	0.340366
	H31	H	0.754807	0.879810	0.649104
	H32	H	0.319070	0.207031	0.887667
	H33	H	0.630228	0.207172	0.098826
	H34	H	0.319699	0.764323	0.096742
	H35	H	0.629700	0.763669	0.890244
	H36	H	0.320524	0.878705	0.216264
	H37	H	0.629353	0.092637	0.217903
	H38	H	0.319121	0.090555	0.771082
	H39	H	0.628491	0.877919	0.770967
	H40	H	0.868584	0.209889	0.339339
	H41	H	0.083412	0.210082	0.647175
	H42	H	0.079738	0.764343	0.337162
	H43	H	0.875529	0.767506	0.650557
	H44	H	0.197996	0.326637	0.887338
	H45	H	0.196183	0.639456	0.098379
	H46	H	0.751737	0.328174	0.100241
	H47	H	0.755083	0.640936	0.888350
	H48	H	0.389140	0.096373	0.581021
	H49	H	0.560811	0.874120	0.580024
	H50	H	0.564625	0.097051	0.412369
	H51	H	0.384758	0.874644	0.408946
	H52	H	0.563489	0.390410	0.105786
	H53	H	0.566356	0.578538	0.878293
	H54	H	0.379245	0.570973	0.106405
	H55	H	0.391202	0.397346	0.884649
	H56	H	0.086371	0.575517	0.407616
	H57	H	0.861322	0.580691	0.588595
	H58	H	0.086036	0.394635	0.575166
	H59	H	0.868034	0.398273	0.408778
	H60	H	0.083534	0.406230	0.582048
	H61	H	0.865023	0.576052	0.582391
	H62	H	0.085338	0.568574	0.400678
	H63	H	0.867589	0.400885	0.405052
	H64	H	0.388471	0.567190	0.103579
	H65	H	0.568721	0.567491	0.881143
	H66	H	0.570676	0.399946	0.103903
	H67	H	0.384399	0.391064	0.879876
	H68	H	0.569464	0.101849	0.401988
	H69	H	0.572797	0.870047	0.579845
	H70	H	0.386011	0.097593	0.579468
	H71	H	0.384587	0.871829	0.403707
	H72	H	0.883317	0.600168	0.089488
	H73	H	0.062651	0.372659	0.075460
	H74	H	0.067923	0.595280	0.910793
	H75	H	0.884956	0.371161	0.907030
	H76	H	0.058670	0.894417	0.603209
	H77	H	0.061526	0.070695	0.383508
	H78	H	0.886502	0.068195	0.603619
	H79	H	0.879079	0.894852	0.378551
	H80	H	0.585477	0.075351	0.902892
	H81	H	0.362310	0.071991	0.090048
	H82	H	0.587181	0.893683	0.085648
	H83	H	0.360747	0.886566	0.907552
	H84	H	0.587563	0.894054	0.085918
	H85	H	0.364036	0.078499	0.077787
	H86	H	0.583150	0.071650	0.907689
	H87	H	0.367121	0.901187	0.907549
	H88	H	0.891069	0.073227	0.604180
	H89	H	0.062943	0.071320	0.383750
	H90	H	0.070933	0.888749	0.608925
	H91	H	0.885189	0.901588	0.382720
	H92	H	0.071418	0.599635	0.899720
	H93	H	0.068256	0.368432	0.081458
	H94	H	0.896783	0.592087	0.079470
	H95	H	0.883856	0.369414	0.903278
	H96	H	0.386631	0.097309	0.583070
	H97	H	0.565593	0.869048	0.590343
	H98	H	0.558366	0.097362	0.402339
	H99	H	0.389590	0.874828	0.405401
	H100	H	0.559273	0.400158	0.099938
	H101	H	0.558014	0.572094	0.883973
	H102	H	0.387022	0.577912	0.106541
	H103	H	0.381328	0.400914	0.882607
	H104	H	0.089539	0.577528	0.398555
	H105	H	0.863589	0.572265	0.589823
	H106	H	0.089375	0.395780	0.588471
	H107	H	0.865806	0.396633	0.405119
	H108	H	0.879868	0.594987	0.071981
	H109	H	0.059625	0.370472	0.083813
	H110	H	0.059985	0.595408	0.901193
	H111	H	0.888185	0.371049	0.903988
	H112	H	0.070473	0.902700	0.604719
	H113	H	0.062382	0.069196	0.383775
	H114	H	0.884663	0.074245	0.605794
	H115	H	0.888527	0.892299	0.380816
	H116	H	0.584988	0.068255	0.901453
	H117	H	0.368700	0.065292	0.079738
	H118	H	0.587375	0.893979	0.085739
	H119	H	0.360021	0.895392	0.894500
	C120	C	0.354396	-0.006673	0.613538
	C121	C	0.597140	0.975564	0.615327
	C122	C	0.595610	-0.005699	0.374219
	C123	C	0.353399	0.977173	0.372398
	C124	C	0.596088	0.363438	0.000199
	C125	C	0.596360	0.605043	0.984296
	C126	C	0.353168	0.604803	0.002305
	C127	C	0.354007	0.363078	0.985705
	C128	C	-0.015909	0.605584	0.371161
	C129	C	0.967530	0.606635	0.616143
	C130	C	-0.015330	0.364128	0.615177
	C131	C	0.968399	0.363572	0.372210
	C132	C	0.853260	0.492743	0.114197
	C133	C	0.095470	0.474517	0.112895
	C134	C	0.098016	0.492361	0.872226
	C135	C	0.854699	0.474957	0.872449
	C136	C	0.097925	0.863183	0.502004
	C137	C	0.096457	0.105780	0.485175
	C138	C	0.854030	0.106817	0.502744
	C139	C	0.854311	0.864477	0.484606
	C140	C	0.481933	0.104912	0.872226
	C141	C	0.466873	0.105734	0.115361
	C142	C	0.484053	0.862447	0.116261
	C143	C	0.465026	0.862103	0.871391
	C144	C	0.352445	0.874306	0.672775
	C145	C	0.596890	0.094764	0.673726
	C146	C	0.595077	0.874366	0.317193
	C147	C	0.349446	0.094715	0.310561
	C148	C	0.655780	0.359901	0.883031
	C149	C	0.657362	0.608495	0.100840
	C150	C	0.293321	0.607725	0.885089
	C151	C	0.294054	0.359299	0.103075
	C152	C	0.866793	0.664582	0.371006
	C153	C	0.086562	0.662864	0.613483
	C154	C	0.869123	0.301276	0.618942
	C155	C	0.084467	0.301145	0.368358
	C156	C	0.868953	0.358522	0.677536
	C157	C	0.086079	0.606155	0.672911
	C158	C	0.867423	0.607977	0.311674
	C159	C	0.083627	0.357889	0.309238
	C160	C	0.352190	0.664539	0.884414
	C161	C	0.597832	0.664559	0.102123
	C162	C	0.596535	0.303585	0.882683
	C163	C	0.352748	0.302838	0.103359
	C164	C	0.654127	0.875157	0.373128
	C165	C	0.655801	0.094602	0.617596
	C166	C	0.294275	0.874992	0.615744
	C167	C	0.292190	0.095075	0.368202
	C168	C	0.849791	0.375190	0.175607
	C169	C	0.097941	0.592592	0.172995
	C170	C	0.099475	0.373703	0.812592
	C171	C	0.854631	0.594760	0.814702
	C172	C	0.158184	0.860102	0.384962
	C173	C	0.159835	0.112093	0.600624
	C174	C	0.791891	0.112066	0.386485
	C175	C	0.795344	0.861795	0.602416
	C176	C	0.365524	0.165953	0.869952
	C177	C	0.583531	0.166937	0.117634
	C178	C	0.366401	0.803622	0.116435
	C179	C	0.582716	0.802785	0.870339
	C180	C	0.367074	0.860397	0.175748
	C181	C	0.583142	0.110138	0.176917
	C182	C	0.365481	0.108249	0.811624
	C183	C	0.581934	0.859387	0.811178
	C184	C	0.850689	0.168950	0.386124
	C185	C	0.101058	0.168732	0.601191
	C186	C	0.098922	0.803778	0.384044
	C187	C	0.855186	0.805952	0.603166
	C188	C	0.157432	0.373799	0.869702
	C189	C	0.155714	0.592568	0.116076
	C190	C	0.792115	0.375058	0.118116
	C191	C	0.795158	0.593773	0.870062
	C192	C	0.379676	0.075691	0.588390
	C193	C	0.573262	0.892681	0.590666
	C194	C	0.571226	0.077162	0.398684
	C195	C	0.378939	0.895301	0.398409
	C196	C	0.571560	0.389401	0.082020
	C197	C	0.571412	0.579853	0.902355
	C198	C	0.377723	0.579317	0.084243
	C199	C	0.378635	0.388832	0.903716
	C200	C	0.065842	0.580662	0.395182
	C201	C	0.884860	0.583176	0.593487
	C202	C	0.065194	0.391236	0.589096
	C203	C	0.888122	0.390706	0.398747
	C204	C	0.879125	0.574358	0.087808
	C205	C	0.070661	0.392020	0.087592
	C206	C	0.073533	0.575235	0.896903
	C207	C	0.878822	0.392116	0.897553
	C208	C	0.073638	0.888248	0.584174
	C209	C	0.069766	0.078246	0.404597
	C210	C	0.880039	0.079469	0.583474
	C211	C	0.877609	0.889287	0.402270
	C212	C	0.563435	0.079145	0.897039
	C213	C	0.386232	0.079440	0.089874
	C214	C	0.565911	0.886846	0.092616
	C215	C	0.383731	0.887206	0.896139
	Zn216	Zn	0.474789	-0.015551	0.742110
	Zn217	Zn	0.474854	-0.014909	0.245197
	Zn218	Zn	0.725733	0.483968	-0.007862
	Zn219	Zn	0.225009	0.482613	-0.005954
	Zn220	Zn	-0.024346	0.734762	0.492915
	Zn221	Zn	-0.023256	0.234746	0.493747
	Zn222	Zn	-0.023608	0.483970	0.745135
	Zn223	Zn	-0.024711	0.483893	0.241748
	Zn224	Zn	0.475180	0.733841	-0.006387
	Zn225	Zn	0.474792	0.234695	-0.006628
	Zn226	Zn	0.725072	-0.014533	0.494025
	Zn227	Zn	0.225360	-0.014456	0.493044
	N228	N	0.389175	0.948893	0.671490
	N229	N	0.561268	0.019542	0.672628
	N230	N	0.559700	0.949825	0.317200
	N231	N	0.386756	0.020486	0.313021
	N232	N	0.655814	0.396221	0.957384
	N233	N	0.656469	0.572045	0.026671
	N234	N	0.293569	0.571426	0.959445
	N235	N	0.294534	0.395935	0.028700
	N236	N	0.940373	0.663343	0.407301
	N237	N	0.011658	0.663538	0.579040
	N238	N	0.942056	0.304666	0.580906
	N239	N	0.011706	0.304499	0.406784
	N240	N	0.941845	0.396973	0.675370
	N241	N	0.010880	0.572260	0.675007
	N242	N	0.941601	0.572171	0.311505
	N243	N	0.010459	0.396004	0.311375
	N244	N	0.388769	0.663008	0.958517
	N245	N	0.560308	0.662441	0.028584
	N246	N	0.560257	0.305339	0.956787
	N247	N	0.389138	0.304960	0.029294
	N248	N	0.654866	0.950905	0.407482
	N249	N	0.656236	0.019445	0.582094
	N250	N	0.295023	0.950152	0.579903
	N251	N	0.294229	0.020867	0.405936
	N252	N	0.887119	0.449465	0.173422
	N253	N	0.061178	0.518133	0.171209
	N254	N	0.063028	0.448534	0.814223
	N255	N	0.890735	0.519692	0.815689
	N256	N	0.157732	0.896220	0.459326
	N257	N	0.156986	0.073462	0.527463
	N258	N	0.793625	0.074184	0.460240
	N259	N	0.794509	0.897219	0.527600
	N260	N	0.439014	0.163905	0.906943
	N261	N	0.510286	0.164473	0.080041
	N262	N	0.440257	0.804535	0.080347
	N263	N	0.508994	0.804322	0.906957
	N264	N	0.441171	0.896299	0.175940
	N265	N	0.509785	0.072774	0.175571
	N266	N	0.438990	0.070733	0.812912
	N267	N	0.507956	0.895735	0.811517
	N268	N	0.888559	0.166015	0.459388
	N269	N	0.062310	0.164626	0.528453
	N270	N	0.062180	0.805414	0.458039
	N271	N	0.890992	0.807022	0.528808
	N272	N	0.156932	0.448710	0.905764
	N273	N	0.154308	0.518096	0.079519
	N274	N	0.793793	0.449245	0.080731
	N275	N	0.794895	0.518098	0.904973
	O276	O	0.201840	0.997975	0.192429
	H277	H	0.202122	1.004813	0.193706
	H278	H	0.214237	1.014604	0.205630
	O279	O	0.663166	0.344508	0.630169
	H280	H	0.678981	0.370753	0.626081
	H281	H	0.638739	0.358483	0.614091
	O282	O	0.752210	0.202220	0.962290
	H283	H	0.718027	0.234784	0.954514
	H284	H	0.756654	0.181043	0.954130
	O285	O	0.553852	0.480698	0.518564
	H286	H	0.562371	0.476948	0.497096
	H287	H	0.543521	0.481924	0.521548
	O288	O	0.583774	0.540858	0.451001
	H289	H	0.576282	0.548350	0.448711
	H290	H	0.583861	0.545860	0.442700
	O291	O	0.698246	0.563537	0.666131
	H292	H	0.715836	0.563538	0.690806
	H293	H	0.700704	0.598527	0.672122
	O294	O	0.963097	0.204503	0.993956
	H295	H	0.954164	0.212550	0.998162
	H296	H	0.979257	0.208194	0.993360
	O297	O	0.663998	0.460195	0.545809
	H298	H	0.655467	0.485787	0.543100
	H299	H	0.672106	0.480023	0.546453
	O300	O	-0.048598	0.192264	0.780564
	H301	H	-0.048328	0.198284	0.764593
	H302	H	-0.061591	0.191753	0.796202
	O303	O	0.680503	0.279445	0.289559
	H304	H	0.659275	0.279387	0.311934
	H305	H	0.677130	0.302428	0.311911
	O306	O	0.822268	1.006949	0.973530
	H307	H	0.815133	1.014888	0.987435
	H308	H	0.825875	1.021026	0.984216
	O309	O	0.530733	0.462893	0.505400
	H310	H	0.537167	0.470808	0.495307
	H311	H	0.527010	0.463426	0.505517
	O312	O	0.559564	0.523203	0.330925
	H313	H	0.558752	0.514518	0.316163
	H314	H	0.544771	0.537623	0.327371
	O315	O	0.922441	0.983929	1.032837
	H316	H	0.904311	0.983136	1.035121
	H317	H	0.909788	0.982100	1.026113
	O318	O	0.476105	0.534350	0.713133
	H319	H	0.466813	0.540833	0.715014
	H320	H	0.488325	0.522882	0.716038
	O321	O	0.182223	0.781240	0.790591
	H322	H	0.188296	0.775135	0.845088
	H323	H	0.181427	0.830049	0.783281
	O324	O	1.067506	1.089265	0.007940
	H325	H	1.067230	1.099465	0.010221
	H326	H	1.055438	1.095761	0.009222
	O327	O	-0.228383	-0.214369	0.998465
	H328	H	-0.214465	-0.200487	0.982305
	H329	H	-0.239609	-0.207419	0.993435
	O330	O	0.831096	1.112641	1.065569
	H331	H	0.838393	1.125638	1.072104
	H332	H	0.811689	1.120539	1.062056
	O333	O	0.476576	0.307949	0.660098
	H334	H	0.445256	0.306325	0.666958
	H335	H	0.468524	0.297344	0.652099
	O336	O	1.026350	-0.035050	0.170762
	H337	H	1.034137	-0.047651	0.169046
	H338	H	1.026969	-0.037934	0.167603
	O339	O	1.196928	-0.232078	0.959060
	H340	H	1.189571	-0.237490	0.979661
	H341	H	1.209173	-0.244914	0.973864
	O342	O	0.344196	0.271947	-0.291693
	H343	H	0.325922	0.278741	-0.318813
	H344	H	0.327422	0.246470	-0.265649
	O345	O	0.086604	1.187011	0.970727
	H346	H	0.084461	1.180405	0.980072
	H347	H	0.074253	1.181287	0.980489
	O348	O	0.668363	0.275436	0.486156
	H349	H	0.672697	0.282551	0.502353
	H350	H	0.681415	0.274184	0.496486
	O351	O	0.765781	0.772086	0.209909
	H352	H	0.754113	0.772687	0.179697
	H353	H	0.734758	0.748130	0.238075
	O354	O	0.065946	-0.050031	0.951125
	H355	H	0.059525	-0.038732	0.950181
	H356	H	0.070308	-0.062472	0.947481
	O357	O	0.507405	0.265622	0.277542
	H358	H	0.500552	0.243508	0.274501
	H359	H	0.512565	0.261595	0.273999
	O360	O	0.260193	0.466790	0.700397
	H361	H	0.236608	0.458422	0.723718
	H362	H	0.278338	0.473888	0.699058
	O363	O	-0.222846	-0.206393	-0.204077
	H364	H	-0.227798	-0.204414	-0.196336
	H365	H	-0.214250	-0.196062	-0.178425
	O366	O	0.435894	0.406442	0.324989
	H367	H	0.427261	0.403740	0.327363
	H368	H	0.425851	0.388722	0.317670
	O369	O	0.800874	-0.035482	-0.065886
	H370	H	0.803707	-0.020107	-0.076027
	H371	H	0.796722	-0.013585	-0.060669
	O372	O	1.386341	1.612595	0.495656
	H373	H	1.392446	1.610991	0.501848
	H374	H	1.398132	1.614558	0.493064
	O375	O	0.914668	-0.107497	-0.208857
	H376	H	0.903387	-0.122665	-0.183109
	H377	H	0.936554	-0.131578	-0.221828
	O378	O	0.384317	0.296431	0.614464
	H379	H	0.384836	0.293932	0.606443
	H380	H	0.377224	0.327290	0.625720
	O381	O	0.184059	1.045164	0.934970
	H382	H	0.175432	1.031456	0.927752
	H383	H	0.183312	1.047671	0.935142
	O384	O	1.179350	-0.052585	0.786084
	H385	H	1.204360	-0.043449	0.753503
	H386	H	1.147749	-0.039084	0.788097
	O387	O	1.194605	1.203440	0.020458
	H388	H	1.205661	1.210992	0.024679
	H389	H	1.206626	1.195834	0.008196
	O390	O	0.644864	0.693985	0.492075
	H391	H	0.655352	0.704133	0.500880
	H392	H	0.641630	0.695195	0.520472
	O393	O	0.554594	0.433663	0.701092
	H394	H	0.553947	0.403560	0.699952
	H395	H	0.567514	0.441858	0.701985
	O396	O	-0.033157	1.141809	1.211550
	H397	H	-0.039935	1.166796	1.215588
	H398	H	-0.056568	1.137170	1.214225
	O399	O	-0.226412	0.184839	0.792716
	H400	H	-0.234992	0.200785	0.779437
	H401	H	-0.215471	0.164091	0.796164
	O402	O	0.355215	0.527610	0.468584
	H403	H	0.361281	0.544195	0.462985
	H404	H	0.351314	0.540508	0.462337
	O405	O	0.750971	0.017715	0.778885
	H406	H	0.739210	0.027326	0.762171
	H407	H	0.762284	0.012074	0.766056
	O408	O	-0.109374	-0.011524	0.177048
	H409	H	-0.121670	-0.013343	0.184614
	H410	H	-0.087163	-0.027811	0.186228
	O411	O	0.925631	0.771840	0.942519
	H412	H	0.928648	0.776243	0.939051
	H413	H	0.933086	0.778926	0.942197
	O414	O	0.774398	0.135669	0.144637
	H415	H	0.749891	0.154066	0.177801
	H416	H	0.800173	0.123124	0.143267
	O417	O	0.515245	0.695993	0.701999
	H418	H	0.493692	0.711256	0.701992
	H419	H	0.497467	0.689809	0.706024
	O420	O	0.390508	0.382078	0.360234
	H421	H	0.385314	0.395306	0.359222
	H422	H	0.402237	0.393388	0.360997
	O423	O	0.065430	0.062174	0.772155
	H424	H	0.050940	0.066998	0.766258
	H425	H	0.044449	0.061899	0.768415
	O426	O	0.273004	0.303391	0.546848
	H427	H	0.269282	0.293480	0.535115
	H428	H	0.280871	0.301504	0.529777
	O429	O	1.049026	0.763271	1.031514
	H430	H	1.036287	0.758117	1.038837
	H431	H	1.033916	0.772805	1.038000
	O432	O	0.678932	0.684630	0.696812
	H433	H	0.625215	0.692101	0.702266
	H434	H	0.694463	0.684305	0.718504
	O435	O	0.270562	0.689770	0.284934
	H436	H	0.262345	0.677891	0.300010
	H437	H	0.248443	0.715131	0.257048
	O438	O	-0.049103	0.042830	-0.132404
	H439	H	-0.055772	0.033544	-0.126499
	H440	H	-0.057510	0.033063	-0.126089
	O441	O	0.424380	0.338812	0.387041
	H442	H	0.426678	0.349014	0.386937
	H443	H	0.423625	0.345390	0.398084
	O444	O	0.325254	0.517945	0.526502
	H445	H	0.324741	0.520909	0.524626
	H446	H	0.317619	0.525446	0.528080
	O447	O	0.168449	0.798943	1.178245
	H448	H	0.158646	0.826569	1.161633
	H449	H	0.144185	0.806038	1.156010
	O450	O	0.019242	0.761125	0.768305
	H451	H	0.046839	0.752165	0.756856
	H452	H	0.034480	0.742934	0.759700
	O453	O	0.322770	0.612656	0.553407
	H454	H	0.312612	0.610128	0.562841
	H455	H	0.340851	0.620542	0.560451
	O456	O	0.200699	-0.064246	1.020974
	H457	H	0.196418	-0.047532	1.008160
	H458	H	0.198075	-0.040885	1.029033
	O459	O	0.974025	0.920761	0.147254
	H460	H	0.956753	0.913898	0.159876
	H461	H	0.970600	0.930886	0.157494
	O462	O	0.751796	0.948411	0.219533
	H463	H	0.765397	0.937838	0.220730
	H464	H	0.722094	0.941921	0.251831
	O465	O	1.165710	0.177848	0.183290
	H466	H	1.159963	0.159498	0.162916
	H467	H	1.147312	0.189366	0.175499
	O468	O	0.442845	0.695691	0.275482
	H469	H	0.429844	0.709352	0.266447
	H470	H	0.420106	0.704160	0.267373
	O471	O	0.316375	0.645612	0.620730
	H472	H	0.297306	0.648248	0.622020
	H473	H	0.316727	0.641781	0.627929
	O474	O	0.694336	0.462008	0.275380
	H475	H	0.692432	0.451926	0.257625
	H476	H	0.689033	0.454905	0.254340
	O477	O	0.662365	0.671176	1.310185
	H478	H	0.650828	0.665615	1.345877
	H479	H	0.633618	0.644524	1.309807
	O480	O	0.260206	0.439186	0.474007
	H481	H	0.264803	0.432766	0.477335
	H482	H	0.268490	0.438425	0.463826
	O483	O	0.250474	0.516227	0.271268
	H484	H	0.224527	0.517198	0.257739
	H485	H	0.246660	0.527412	0.277879
	O486	O	0.543900	0.623764	0.400436
	H487	H	0.554806	0.629241	0.410943
	H488	H	0.540268	0.615967	0.403895
	O489	O	0.957678	0.765031	0.213690
	H490	H	0.913568	0.768678	0.204199
	H491	H	0.950253	0.742243	0.240328
