data_Molecule from HDF5

_cell_length_a		16.188579
_cell_length_b		16.273576
_cell_length_c		16.293360
_cell_angle_alpha	90.123837
_cell_angle_beta	89.962812
_cell_angle_gamma	89.726533
_symmetry_space_group_name_H-M	'P 1'
_symmetry_Int_Tables_number		1

loop_
	_symmetry_equiv_pos_as_xyz
	x,y,z

loop_
	_atom_site_label
	_atom_site_type_symbol
	_atom_site_fract_x
	_atom_site_fract_y
	_atom_site_fract_z
	H0	H	0.407027	0.841697	0.714512
	H1	H	0.605798	0.168510	0.715385
	H2	H	0.607360	0.841387	0.283372
	H3	H	0.405345	0.168400	0.282955
	H4	H	0.721764	0.407050	0.833589
	H5	H	0.721252	0.603226	0.161856
	H6	H	0.293144	0.604683	0.834089
	H7	H	0.293795	0.408299	0.161419
	H8	H	0.841992	0.719487	0.400254
	H9	H	0.169776	0.718755	0.598022
	H10	H	0.840275	0.294211	0.596767
	H11	H	0.169825	0.288431	0.398764
	H12	H	0.842128	0.407475	0.713758
	H13	H	0.170332	0.604739	0.711785
	H14	H	0.842999	0.605452	0.282646
	H15	H	0.171729	0.404325	0.284198
	H16	H	0.408042	0.720872	0.834889
	H17	H	0.607718	0.722460	0.160761
	H18	H	0.609324	0.287939	0.835285
	H19	H	0.408831	0.292955	0.161606
	H20	H	0.721396	0.840914	0.400379
	H21	H	0.718629	0.169787	0.595588
	H22	H	0.293129	0.841044	0.596646
	H23	H	0.291802	0.168876	0.401128
	H24	H	0.909452	0.341648	0.212548
	H25	H	0.109194	0.667641	0.215742
	H26	H	0.108728	0.341819	0.781041
	H27	H	0.907776	0.669304	0.784404
	H28	H	0.220374	0.906886	0.334939
	H29	H	0.221273	0.105529	0.662066
	H30	H	0.793281	0.102454	0.333539
	H31	H	0.793841	0.909978	0.662321
	H32	H	0.342939	0.220369	0.901779
	H33	H	0.671817	0.219668	0.098426
	H34	H	0.342567	0.791854	0.097382
	H35	H	0.670904	0.790188	0.898815
	H36	H	0.342026	0.907950	0.211470
	H37	H	0.671266	0.103346	0.213865
	H38	H	0.342331	0.105087	0.785256
	H39	H	0.670878	0.904573	0.783699
	H40	H	0.905484	0.220707	0.334588
	H41	H	0.104645	0.222492	0.661516
	H42	H	0.107688	0.788130	0.336447
	H43	H	0.906081	0.790475	0.661750
	H44	H	0.224005	0.341694	0.898683
	H45	H	0.220093	0.669754	0.095249
	H46	H	0.794490	0.341236	0.096181
	H47	H	0.792033	0.669269	0.898796
	H48	H	0.417266	0.119635	0.589591
	H49	H	0.602628	0.885790	0.599755
	H50	H	0.608027	0.122124	0.412909
	H51	H	0.416660	0.889134	0.405591
	H52	H	0.611099	0.414996	0.116600
	H53	H	0.614322	0.590562	0.879486
	H54	H	0.407534	0.599002	0.116558
	H55	H	0.412346	0.415144	0.880452
	H56	H	0.127278	0.600861	0.396721
	H57	H	0.887810	0.592746	0.600003
	H58	H	0.123417	0.416398	0.596706
	H59	H	0.887201	0.410228	0.400572
	H60	H	0.125315	0.405366	0.588113
	H61	H	0.884680	0.609263	0.592104
	H62	H	0.123601	0.603658	0.413389
	H63	H	0.890840	0.413338	0.410273
	H64	H	0.417470	0.592890	0.111234
	H65	H	0.588487	0.591126	0.887067
	H66	H	0.594332	0.418674	0.111165
	H67	H	0.420264	0.414081	0.884189
	H68	H	0.600209	0.125186	0.393259
	H69	H	0.593147	0.891308	0.590246
	H70	H	0.409846	0.121299	0.590076
	H71	H	0.410525	0.887214	0.405591
	H72	H	0.907528	0.626303	0.099862
	H73	H	0.097485	0.389408	0.092431
	H74	H	0.098932	0.621103	0.904968
	H75	H	0.909764	0.385838	0.900813
	H76	H	0.093857	0.911326	0.613641
	H77	H	0.104198	0.098464	0.381626
	H78	H	0.906625	0.103135	0.616450
	H79	H	0.919818	0.913987	0.384200
	H80	H	0.625905	0.104182	0.907565
	H81	H	0.393376	0.094424	0.084757
	H82	H	0.620758	0.914458	0.080830
	H83	H	0.388728	0.910466	0.904784
	H84	H	0.623931	0.921273	0.098413
	H85	H	0.388399	0.096307	0.099917
	H86	H	0.620860	0.092045	0.913899
	H87	H	0.390405	0.914074	0.910037
	H88	H	0.912253	0.095932	0.613684
	H89	H	0.096522	0.092320	0.384740
	H90	H	0.102482	0.907581	0.617399
	H91	H	0.914433	0.906621	0.380256
	H92	H	0.101565	0.621676	0.904996
	H93	H	0.103279	0.388766	0.086439
	H94	H	0.926551	0.619386	0.093558
	H95	H	0.923080	0.389627	0.900047
	H96	H	0.414197	0.122538	0.595739
	H97	H	0.606660	0.888339	0.585661
	H98	H	0.587922	0.117699	0.408940
	H99	H	0.414254	0.887285	0.400518
	H100	H	0.598740	0.402834	0.116041
	H101	H	0.599879	0.614094	0.876810
	H102	H	0.418848	0.606798	0.115310
	H103	H	0.416671	0.407119	0.879810
	H104	H	0.121846	0.587287	0.406677
	H105	H	0.892073	0.595001	0.582669
	H106	H	0.118876	0.417737	0.582969
	H107	H	0.890138	0.420082	0.401439
	H108	H	0.911500	0.619491	0.079786
	H109	H	0.104111	0.386709	0.094177
	H110	H	0.100327	0.622326	0.902282
	H111	H	0.916167	0.390991	0.912475
	H112	H	0.101279	0.916922	0.614567
	H113	H	0.094202	0.102006	0.382858
	H114	H	0.916296	0.104331	0.614426
	H115	H	0.911215	0.915810	0.381738
	H116	H	0.625038	0.091397	0.899455
	H117	H	0.387829	0.108780	0.090208
	H118	H	0.627756	0.903395	0.094094
	H119	H	0.389226	0.916579	0.904256
	C120	C	0.385042	0.013265	0.620492
	C121	C	0.628866	0.996608	0.620825
	C122	C	0.628364	0.013350	0.376386
	C123	C	0.384436	0.996397	0.376021
	C124	C	0.630587	0.383204	0.006430
	C125	C	0.629344	0.627251	0.989398
	C126	C	0.385985	0.627650	0.006376
	C127	C	0.387068	0.384186	0.989557
	C128	C	0.015479	0.626584	0.376744
	C129	C	0.997084	0.626935	0.619669
	C130	C	0.014091	0.384763	0.618951
	C131	C	0.998014	0.383901	0.375579
	C132	C	0.886427	0.513790	0.119683
	C133	C	0.129789	0.496694	0.119515
	C134	C	0.130149	0.513770	0.874937
	C135	C	0.886240	0.497106	0.875913
	C136	C	0.128374	0.883077	0.507579
	C137	C	0.127095	0.126986	0.490516
	C138	C	0.883401	0.128299	0.506274
	C139	C	0.885928	0.884073	0.490164
	C140	C	0.515383	0.126153	0.877913
	C141	C	0.498714	0.127514	0.120454
	C142	C	0.515445	0.884394	0.119333
	C143	C	0.498145	0.884206	0.877294
	C144	C	0.387203	0.890255	0.676018
	C145	C	0.625965	0.119702	0.676944
	C146	C	0.626922	0.890357	0.321285
	C147	C	0.386100	0.119388	0.321202
	C148	C	0.685096	0.385936	0.883063
	C149	C	0.684220	0.624429	0.112566
	C150	C	0.330896	0.624941	0.883092
	C151	C	0.331456	0.387527	0.112358
	C152	C	0.891500	0.681946	0.379326
	C153	C	0.120643	0.681873	0.617749
	C154	C	0.890023	0.331076	0.616878
	C155	C	0.121230	0.327152	0.378518
	C156	C	0.890631	0.387600	0.674929
	C157	C	0.121070	0.624859	0.674527
	C158	C	0.891921	0.625071	0.321042
	C159	C	0.122185	0.384685	0.321343
	C160	C	0.387736	0.682972	0.883468
	C161	C	0.627219	0.683220	0.112282
	C162	C	0.629058	0.326627	0.883868
	C163	C	0.388692	0.329932	0.112525
	C164	C	0.683862	0.890190	0.379321
	C165	C	0.682108	0.120562	0.617338
	C166	C	0.330280	0.890221	0.617784
	C167	C	0.329542	0.119703	0.380090
	C168	C	0.889259	0.390395	0.174654
	C169	C	0.128257	0.619442	0.176192
	C170	C	0.128859	0.391002	0.818857
	C171	C	0.887375	0.620306	0.821415
	C172	C	0.183357	0.885747	0.384153
	C173	C	0.183016	0.125480	0.613394
	C174	C	0.829721	0.124087	0.382805
	C175	C	0.830680	0.888189	0.613279
	C176	C	0.391792	0.182475	0.880581
	C177	C	0.622803	0.181696	0.118375
	C178	C	0.391749	0.829328	0.117332
	C179	C	0.622035	0.828178	0.879069
	C180	C	0.391364	0.886900	0.174218
	C181	C	0.622427	0.124087	0.175653
	C182	C	0.391688	0.125161	0.822791
	C183	C	0.621835	0.885114	0.821687
	C184	C	0.885706	0.182709	0.383245
	C185	C	0.124707	0.183499	0.613224
	C186	C	0.127122	0.827009	0.384764
	C187	C	0.886560	0.828988	0.613213
	C188	C	0.186109	0.390662	0.877498
	C189	C	0.183648	0.620374	0.116456
	C190	C	0.832183	0.390193	0.116602
	C191	C	0.830180	0.620220	0.878885
	C192	C	0.407474	0.098921	0.598417
	C193	C	0.607228	0.910731	0.598479
	C194	C	0.605475	0.099345	0.398464
	C195	C	0.407299	0.910230	0.397616
	C196	C	0.608040	0.405552	0.092554
	C197	C	0.607383	0.605133	0.903448
	C198	C	0.408168	0.605883	0.092137
	C199	C	0.409901	0.405841	0.903598
	C200	C	0.101902	0.603896	0.399011
	C201	C	0.910493	0.605224	0.597807
	C202	C	0.100299	0.406746	0.596091
	C203	C	0.911650	0.407558	0.397588
	C204	C	0.908564	0.599398	0.097579
	C205	C	0.107952	0.410690	0.097599
	C206	C	0.107110	0.599562	0.897357
	C207	C	0.909554	0.411215	0.897897
	C208	C	0.105753	0.905489	0.593064
	C209	C	0.104889	0.104202	0.405114
	C210	C	0.905348	0.107275	0.592647
	C211	C	0.908501	0.905558	0.404249
	C212	C	0.601673	0.102831	0.900502
	C213	C	0.412352	0.106138	0.098333
	C214	C	0.601622	0.906584	0.097478
	C215	C	0.411923	0.906982	0.899734
	Zn216	Zn	0.506747	0.004914	0.749379
	Zn217	Zn	0.506610	0.004851	0.247946
	Zn218	Zn	0.758369	0.504998	-0.002537
	Zn219	Zn	0.258361	0.505566	-0.002406
	Zn220	Zn	0.006305	0.754550	0.499006
	Zn221	Zn	0.004579	0.256422	0.497748
	Zn222	Zn	0.006589	0.505855	0.746919
	Zn223	Zn	0.007810	0.505240	0.247816
	Zn224	Zn	0.506899	0.756340	-0.002083
	Zn225	Zn	0.508246	0.255522	-0.001350
	Zn226	Zn	0.756649	0.005676	0.497843
	Zn227	Zn	0.256506	0.004846	0.498900
	N228	N	0.420615	0.967870	0.677776
	N229	N	0.593821	0.041640	0.679161
	N230	N	0.593009	0.968087	0.319224
	N231	N	0.419398	0.041458	0.318429
	N232	N	0.685741	0.420356	0.960189
	N233	N	0.685756	0.590257	0.035280
	N234	N	0.329602	0.591162	0.960471
	N235	N	0.330457	0.420483	0.034747
	N236	N	0.969352	0.683100	0.413099
	N237	N	0.042592	0.683072	0.584198
	N238	N	0.967831	0.329275	0.582593
	N239	N	0.042949	0.326551	0.411372
	N240	N	0.968857	0.420161	0.676519
	N241	N	0.043277	0.591458	0.676020
	N242	N	0.970123	0.591387	0.319281
	N243	N	0.044411	0.419194	0.319443
	N244	N	0.421250	0.684714	0.960937
	N245	N	0.593925	0.685168	0.034661
	N246	N	0.595790	0.324837	0.961738
	N247	N	0.422630	0.327789	0.035067
	N248	N	0.684680	0.967759	0.412984
	N249	N	0.683932	0.043245	0.582984
	N250	N	0.328647	0.967685	0.584223
	N251	N	0.328586	0.042256	0.413450
	N252	N	0.922498	0.468197	0.176550
	N253	N	0.095594	0.541729	0.178315
	N254	N	0.094811	0.468690	0.817165
	N255	N	0.921661	0.542873	0.819566
	N256	N	0.184246	0.919891	0.461317
	N257	N	0.184518	0.091133	0.536051
	N258	N	0.827954	0.091209	0.460411
	N259	N	0.830120	0.921606	0.535742
	N260	N	0.469890	0.183229	0.914255
	N261	N	0.544932	0.183972	0.084852
	N262	N	0.469839	0.827607	0.083997
	N263	N	0.544235	0.827503	0.913054
	N264	N	0.469221	0.920325	0.175784
	N265	N	0.544193	0.091405	0.177493
	N266	N	0.469569	0.091041	0.821187
	N267	N	0.544039	0.919473	0.820869
	N268	N	0.918062	0.185417	0.461190
	N269	N	0.091016	0.184936	0.535940
	N270	N	0.093701	0.824822	0.462480
	N271	N	0.920229	0.826298	0.535706
	N272	N	0.187190	0.468003	0.911523
	N273	N	0.184989	0.542970	0.082130
	N274	N	0.830281	0.467787	0.083212
	N275	N	0.829262	0.542356	0.911866
	O276	O	0.056848	0.046031	-0.031434
	H277	H	0.063314	0.045816	-0.038811
	H278	H	0.057651	0.053645	-0.037475
	O279	O	0.497912	0.388684	0.468091
	H280	H	0.495086	0.374007	0.467488
	H281	H	0.492816	0.387475	0.469861
	O282	O	0.434017	0.429896	0.526768
	H283	H	0.437996	0.427639	0.532443
	H284	H	0.432320	0.433919	0.533483
	O285	O	0.981982	-0.043765	1.016155
	H286	H	0.978814	-0.038069	1.020456
	H287	H	0.982052	-0.045884	1.013555
	O288	O	1.013763	-0.019903	0.069969
	H289	H	1.015713	-0.017167	0.075856
	H290	H	0.998042	-0.022649	0.064246
	O291	O	0.576807	0.438282	0.470823
	H292	H	0.574111	0.446586	0.474350
	H293	H	0.577101	0.430140	0.466633
	O294	O	0.965180	-0.033795	0.918358
	H295	H	0.965173	-0.039565	0.918194
	H296	H	0.968284	-0.041793	0.924257
	O297	O	-0.025989	0.027843	-0.085128
	H298	H	-0.029594	0.027870	-0.091277
	H299	H	-0.023772	0.028356	-0.085388
	O300	O	0.486375	0.417369	0.441767
	H301	H	0.483253	0.413473	0.448674
	H302	H	0.487984	0.417375	0.436335
	O303	O	0.457920	0.452279	0.547657
	H304	H	0.452627	0.451434	0.556163
	H305	H	0.457405	0.458458	0.551149
	O306	O	1.004646	-0.008548	0.016761
	H307	H	0.997766	-0.004578	0.012772
	H308	H	1.013361	-0.019668	0.020317
	O309	O	-0.074675	-0.017590	1.029519
	H310	H	-0.075931	-0.022255	1.034157
	H311	H	-0.065637	-0.009870	1.025989
	O312	O	0.996870	1.047782	1.028630
	H313	H	1.004809	1.047745	1.030231
	H314	H	0.994218	1.044092	1.028421
	O315	O	0.447607	0.463719	0.534034
	H316	H	0.447299	0.458225	0.534336
	H317	H	0.459912	0.461992	0.535651
	O318	O	0.534315	0.507408	0.545602
	H319	H	0.534555	0.509480	0.537505
	H320	H	0.529548	0.500816	0.545415
	O321	O	0.048277	1.073593	1.026519
	H322	H	0.042961	1.080259	1.029006
	H323	H	0.047150	1.077522	1.027204
	O324	O	0.529793	0.529106	0.493636
	H325	H	0.535184	0.529881	0.485837
	H326	H	0.527176	0.520411	0.496063
	O327	O	0.504369	0.569513	0.430086
	H328	H	0.502533	0.572826	0.426025
	H329	H	0.509443	0.579562	0.424417
	O330	O	0.465878	0.499812	0.392262
	H331	H	0.466169	0.493753	0.389312
	H332	H	0.475231	0.506383	0.391582
	O333	O	0.434384	0.573961	0.434641
	H334	H	0.437658	0.570181	0.436535
	H335	H	0.425041	0.570657	0.438948
	O336	O	0.458800	0.482422	0.572544
	H337	H	0.460995	0.482552	0.578147
	H338	H	0.459444	0.486652	0.572583
	O339	O	0.990563	1.013977	0.027463
	H340	H	0.992725	1.013080	0.021969
	H341	H	0.980921	1.020185	0.021286
	O342	O	0.542391	0.471793	0.518486
	H343	H	0.537945	0.470824	0.516013
	H344	H	0.535533	0.476710	0.526578
	O345	O	0.473349	0.540263	0.475638
	H346	H	0.464877	0.536995	0.468139
	H347	H	0.474975	0.538090	0.464579
	O348	O	0.024733	-0.016947	0.004816
	H349	H	0.026165	-0.026609	0.005430
	H350	H	0.028319	-0.022654	-0.001008
	O351	O	-0.063564	1.088171	0.922333
	H352	H	-0.068820	1.092061	0.928685
	H353	H	-0.061670	1.084823	0.925304
	O354	O	0.514420	0.558416	0.434275
	H355	H	0.501169	0.565341	0.427053
	H356	H	0.522697	0.545050	0.434729
	O357	O	0.014133	1.019391	0.999041
	H358	H	0.005390	1.019325	1.000152
	H359	H	0.018338	1.014829	1.015870
