data_Molecule from HDF5

_cell_length_a		16.369160
_cell_length_b		16.240812
_cell_length_c		16.234654
_cell_angle_alpha	90.066039
_cell_angle_beta	89.841794
_cell_angle_gamma	89.979073
_symmetry_space_group_name_H-M	'P 1'
_symmetry_Int_Tables_number		1

loop_
	_symmetry_equiv_pos_as_xyz
	x,y,z

loop_
	_atom_site_label
	_atom_site_type_symbol
	_atom_site_fract_x
	_atom_site_fract_y
	_atom_site_fract_z
	H0	H	0.398630	0.836605	0.712310
	H1	H	0.595754	0.164291	0.712424
	H2	H	0.595781	0.836363	0.284059
	H3	H	0.399730	0.164873	0.284389
	H4	H	0.711664	0.401863	0.835678
	H5	H	0.711521	0.601617	0.162449
	H6	H	0.281349	0.600519	0.834984
	H7	H	0.280733	0.400506	0.162519
	H8	H	0.833413	0.714413	0.400807
	H9	H	0.159484	0.716137	0.597394
	H10	H	0.833916	0.285851	0.597795
	H11	H	0.159554	0.284846	0.398496
	H12	H	0.834306	0.403006	0.712548
	H13	H	0.159094	0.601669	0.714718
	H14	H	0.833454	0.596616	0.284982
	H15	H	0.159464	0.400448	0.281825
	H16	H	0.398954	0.714779	0.834154
	H17	H	0.593453	0.714346	0.163000
	H18	H	0.595046	0.287269	0.835350
	H19	H	0.397890	0.285898	0.162990
	H20	H	0.713321	0.837426	0.397245
	H21	H	0.711899	0.163523	0.598424
	H22	H	0.281173	0.837086	0.598286
	H23	H	0.280549	0.163501	0.396831
	H24	H	0.899243	0.335730	0.210958
	H25	H	0.094188	0.664027	0.212744
	H26	H	0.094470	0.336089	0.784350
	H27	H	0.899132	0.665206	0.786232
	H28	H	0.212862	0.899508	0.334563
	H29	H	0.212599	0.102416	0.661301
	H30	H	0.782224	0.099329	0.334252
	H31	H	0.780133	0.900085	0.661577
	H32	H	0.334457	0.216979	0.898933
	H33	H	0.660315	0.215274	0.096534
	H34	H	0.334758	0.785555	0.097883
	H35	H	0.660382	0.784933	0.898606
	H36	H	0.335251	0.901710	0.214085
	H37	H	0.660382	0.099204	0.212756
	H38	H	0.334247	0.099075	0.784631
	H39	H	0.660104	0.901700	0.782133
	H40	H	0.898862	0.214232	0.334364
	H41	H	0.094347	0.215095	0.662265
	H42	H	0.094890	0.786013	0.334089
	H43	H	0.898606	0.787585	0.662835
	H44	H	0.213587	0.337561	0.896712
	H45	H	0.213478	0.662646	0.100811
	H46	H	0.781390	0.336861	0.097926
	H47	H	0.781151	0.663959	0.900057
	H48	H	0.397817	0.119694	0.592494
	H49	H	0.597053	0.881219	0.591923
	H50	H	0.591364	0.118340	0.404555
	H51	H	0.403713	0.882657	0.402619
	H52	H	0.581510	0.404114	0.115608
	H53	H	0.577453	0.597418	0.884834
	H54	H	0.401363	0.594907	0.116374
	H55	H	0.404954	0.406723	0.881913
	H56	H	0.108516	0.585951	0.411650
	H57	H	0.879609	0.600482	0.592193
	H58	H	0.115869	0.397681	0.591562
	H59	H	0.883165	0.413915	0.404576
	H60	H	0.108141	0.411135	0.580160
	H61	H	0.882900	0.591595	0.588067
	H62	H	0.114769	0.591456	0.395577
	H63	H	0.877889	0.402347	0.399448
	H64	H	0.402852	0.588287	0.113379
	H65	H	0.600010	0.599380	0.876712
	H66	H	0.597175	0.402259	0.120295
	H67	H	0.403347	0.409605	0.882833
	H68	H	0.588936	0.117154	0.405311
	H69	H	0.582721	0.884084	0.594555
	H70	H	0.408176	0.116776	0.594873
	H71	H	0.407227	0.884805	0.406586
	H72	H	0.898373	0.621866	0.103347
	H73	H	0.088678	0.380968	0.097725
	H74	H	0.081228	0.616187	0.898877
	H75	H	0.903304	0.383460	0.903947
	H76	H	0.088343	0.912348	0.613855
	H77	H	0.082920	0.093066	0.383923
	H78	H	0.906590	0.095506	0.614995
	H79	H	0.899651	0.911600	0.380676
	H80	H	0.611889	0.079689	0.894828
	H81	H	0.383178	0.092011	0.088875
	H82	H	0.610513	0.917892	0.091123
	H83	H	0.382944	0.909754	0.907536
	H84	H	0.618026	0.902487	0.100555
	H85	H	0.382020	0.090896	0.093586
	H86	H	0.619649	0.109510	0.897840
	H87	H	0.381494	0.908774	0.903220
	H88	H	0.899806	0.094102	0.616387
	H89	H	0.093208	0.097289	0.378573
	H90	H	0.088077	0.906556	0.614478
	H91	H	0.908617	0.908722	0.383443
	H92	H	0.086459	0.612494	0.917710
	H93	H	0.081344	0.387370	0.086058
	H94	H	0.913796	0.613728	0.090964
	H95	H	0.903350	0.383840	0.907778
	H96	H	0.404581	0.114770	0.585062
	H97	H	0.588488	0.886741	0.581914
	H98	H	0.590767	0.116726	0.407750
	H99	H	0.401927	0.885139	0.408172
	H100	H	0.591852	0.416505	0.114688
	H101	H	0.592179	0.577899	0.885188
	H102	H	0.408010	0.592973	0.114261
	H103	H	0.406642	0.409042	0.883345
	H104	H	0.113913	0.602419	0.409028
	H105	H	0.880111	0.591638	0.597956
	H106	H	0.113343	0.415786	0.598747
	H107	H	0.881773	0.403008	0.412134
	H108	H	0.895294	0.616989	0.082498
	H109	H	0.095758	0.383448	0.084438
	H110	H	0.099493	0.621068	0.904763
	H111	H	0.900338	0.382622	0.906699
	H112	H	0.093318	0.908975	0.615964
	H113	H	0.092982	0.085384	0.383396
	H114	H	0.903161	0.088486	0.613384
	H115	H	0.902659	0.902560	0.379946
	H116	H	0.607897	0.093630	0.921731
	H117	H	0.380665	0.095555	0.091845
	H118	H	0.611654	0.901358	0.081681
	H119	H	0.381648	0.904907	0.906216
	C120	C	0.375013	0.008994	0.619288
	C121	C	0.618175	0.991973	0.619029
	C122	C	0.619372	0.008883	0.376472
	C123	C	0.375676	0.992251	0.376670
	C124	C	0.618163	0.379364	0.008161
	C125	C	0.618079	0.621368	0.990272
	C126	C	0.375119	0.621676	0.006685
	C127	C	0.375518	0.379282	0.990574
	C128	C	0.004581	0.621467	0.377132
	C129	C	0.988442	0.623501	0.621373
	C130	C	0.005074	0.379304	0.619464
	C131	C	0.988709	0.377931	0.376183
	C132	C	0.874282	0.509211	0.120667
	C133	C	0.117637	0.491756	0.119542
	C134	C	0.118206	0.508861	0.877159
	C135	C	0.874628	0.492068	0.877607
	C136	C	0.118384	0.879550	0.506668
	C137	C	0.118525	0.122144	0.489691
	C138	C	0.875244	0.121377	0.506584
	C139	C	0.874720	0.879034	0.489746
	C140	C	0.505400	0.122876	0.876431
	C141	C	0.489352	0.121725	0.120104
	C142	C	0.505911	0.878591	0.120106
	C143	C	0.489538	0.878870	0.876415
	C144	C	0.378030	0.885552	0.674602
	C145	C	0.615898	0.115370	0.674435
	C146	C	0.616302	0.885404	0.321698
	C147	C	0.378474	0.115736	0.321617
	C148	C	0.673504	0.381795	0.884581
	C149	C	0.672978	0.620568	0.113669
	C150	C	0.319287	0.620550	0.883802
	C151	C	0.318802	0.380404	0.113634
	C152	C	0.882306	0.676772	0.379831
	C153	C	0.110718	0.678803	0.618588
	C154	C	0.882909	0.323826	0.617594
	C155	C	0.110930	0.322467	0.377683
	C156	C	0.882892	0.382131	0.674800
	C157	C	0.110394	0.621706	0.676831
	C158	C	0.882065	0.618140	0.322515
	C159	C	0.110896	0.379947	0.319841
	C160	C	0.377761	0.677260	0.883349
	C161	C	0.614444	0.676837	0.113905
	C162	C	0.615563	0.324873	0.884366
	C163	C	0.377031	0.323557	0.114005
	C164	C	0.674903	0.886023	0.377921
	C165	C	0.673717	0.114984	0.617773
	C166	C	0.319679	0.885873	0.617897
	C167	C	0.319452	0.115018	0.377853
	C168	C	0.877796	0.385110	0.174403
	C169	C	0.115223	0.614913	0.175344
	C170	C	0.115691	0.385278	0.821526
	C171	C	0.878122	0.615711	0.823232
	C172	C	0.174204	0.880296	0.383384
	C173	C	0.174249	0.121391	0.612650
	C174	C	0.820381	0.119484	0.383221
	C175	C	0.818818	0.880423	0.612968
	C176	C	0.383026	0.178486	0.878957
	C177	C	0.611548	0.177528	0.117302
	C178	C	0.383521	0.823215	0.118273
	C179	C	0.611630	0.822593	0.877858
	C180	C	0.383583	0.881052	0.176010
	C181	C	0.611850	0.119703	0.174910
	C182	C	0.382821	0.120026	0.821897
	C183	C	0.611573	0.880821	0.820248
	C184	C	0.878277	0.176539	0.383276
	C185	C	0.115417	0.177443	0.613233
	C186	C	0.115762	0.823817	0.383031
	C187	C	0.877931	0.824717	0.613575
	C188	C	0.174640	0.385919	0.877457
	C189	C	0.174123	0.614239	0.119288
	C190	C	0.819354	0.385687	0.118227
	C191	C	0.819451	0.615319	0.879852
	C192	C	0.396906	0.094790	0.597185
	C193	C	0.595991	0.906194	0.596276
	C194	C	0.597069	0.095285	0.399207
	C195	C	0.397947	0.906209	0.399020
	C196	C	0.596582	0.401165	0.094544
	C197	C	0.596357	0.598316	0.904436
	C198	C	0.397479	0.598940	0.092458
	C199	C	0.398265	0.401890	0.904876
	C200	C	0.090232	0.599401	0.399004
	C201	C	0.902972	0.601118	0.599322
	C202	C	0.090490	0.401648	0.596698
	C203	C	0.903110	0.400066	0.398729
	C204	C	0.896114	0.595406	0.098818
	C205	C	0.095054	0.406046	0.096370
	C206	C	0.095735	0.594265	0.900377
	C207	C	0.896079	0.405769	0.899440
	C208	C	0.096270	0.902382	0.592556
	C209	C	0.096213	0.098951	0.403907
	C210	C	0.896816	0.099350	0.592664
	C211	C	0.896990	0.901126	0.403591
	C212	C	0.590882	0.100776	0.898331
	C213	C	0.404047	0.099345	0.097906
	C214	C	0.591348	0.900865	0.097517
	C215	C	0.404180	0.901277	0.899123
	Zn216	Zn	0.496948	0.001053	0.747226
	Zn217	Zn	0.497803	0.000380	0.248948
	Zn218	Zn	0.746593	0.500877	-0.000195
	Zn219	Zn	0.246635	0.500080	-0.001199
	Zn220	Zn	-0.002813	0.751704	0.498564
	Zn221	Zn	-0.003151	0.249540	0.498134
	Zn222	Zn	-0.003064	0.500364	0.749415
	Zn223	Zn	-0.003375	0.499783	0.248077
	Zn224	Zn	0.497214	0.749867	-0.001703
	Zn225	Zn	0.496889	0.251192	-0.000875
	Zn226	Zn	0.746549	0.000365	0.498277
	Zn227	Zn	0.246435	0.000348	0.498195
	N228	N	0.411745	0.963150	0.675782
	N229	N	0.581733	0.038103	0.675154
	N230	N	0.582149	0.962947	0.321078
	N231	N	0.412506	0.038401	0.320740
	N232	N	0.675318	0.415052	0.962674
	N233	N	0.675382	0.586940	0.035913
	N234	N	0.317505	0.586699	0.961475
	N235	N	0.317958	0.414521	0.036103
	N236	N	0.959580	0.678974	0.413022
	N237	N	0.033846	0.680058	0.584750
	N238	N	0.960047	0.322207	0.583554
	N239	N	0.034011	0.321043	0.412006
	N240	N	0.959787	0.415994	0.675951
	N241	N	0.033399	0.587864	0.678604
	N242	N	0.959273	0.584716	0.320571
	N243	N	0.033750	0.413706	0.318940
	N244	N	0.411839	0.678057	0.960737
	N245	N	0.580883	0.677393	0.036274
	N246	N	0.581767	0.323523	0.961853
	N247	N	0.411566	0.322741	0.036595
	N248	N	0.676731	0.963901	0.411249
	N249	N	0.675113	0.037308	0.583840
	N250	N	0.317485	0.963619	0.584577
	N251	N	0.317624	0.037279	0.411419
	N252	N	0.911451	0.462744	0.175906
	N253	N	0.080753	0.537694	0.175503
	N254	N	0.081070	0.462594	0.821426
	N255	N	0.911781	0.538061	0.821918
	N256	N	0.175988	0.914080	0.461103
	N257	N	0.176215	0.087596	0.534851
	N258	N	0.818280	0.085695	0.460874
	N259	N	0.816870	0.913504	0.535072
	N260	N	0.460354	0.180474	0.911997
	N261	N	0.534323	0.178919	0.083952
	N262	N	0.460525	0.821708	0.084110
	N263	N	0.534585	0.821282	0.912067
	N264	N	0.460671	0.914799	0.177081
	N265	N	0.534885	0.085761	0.176706
	N266	N	0.459880	0.086212	0.820082
	N267	N	0.534688	0.914893	0.819145
	N268	N	0.911669	0.177774	0.460837
	N269	N	0.081481	0.177889	0.535797
	N270	N	0.081814	0.823294	0.460656
	N271	N	0.912045	0.823592	0.535979
	N272	N	0.176401	0.463534	0.911436
	N273	N	0.175476	0.536706	0.085217
	N274	N	0.816995	0.463785	0.085571
	N275	N	0.817129	0.537477	0.912910
	O276	O	1.104689	0.953730	0.017875
	H277	H	1.103502	0.949977	0.020255
	H278	H	1.103176	0.949304	0.010989
	O279	O	0.085469	0.034995	-0.001504
	H280	H	0.084534	0.033921	0.000949
	H281	H	0.091670	0.021643	-0.005668
	O282	O	0.011466	-0.019081	1.004649
	H283	H	0.008586	-0.014661	0.998959
	H284	H	0.005026	-0.018008	1.016597
	O285	O	0.439808	0.522523	0.573657
	H286	H	0.437914	0.529478	0.577409
	H287	H	0.448609	0.521364	0.576550
	O288	O	0.484915	0.519633	0.549488
	H289	H	0.492877	0.522896	0.544199
	H290	H	0.486846	0.523495	0.544555
	O291	O	0.490812	0.472349	0.588891
	H292	H	0.484095	0.460447	0.596378
	H293	H	0.489751	0.477620	0.594731
	O294	O	0.098460	-0.065536	-0.059275
	H295	H	0.102259	-0.057518	-0.065843
	H296	H	0.107671	-0.064101	-0.058367
	O297	O	0.495542	0.486727	0.576647
	H298	H	0.497842	0.489488	0.574299
	H299	H	0.492592	0.485092	0.576301
	O300	O	0.122323	0.997201	0.983079
	H301	H	0.127113	1.004061	0.983269
	H302	H	0.118111	1.000597	0.996648
	O303	O	0.500454	0.473881	0.516338
	H304	H	0.507540	0.464995	0.517227
	H305	H	0.492886	0.474903	0.519204
	O306	O	0.064391	0.008382	1.014851
	H307	H	0.068630	0.007458	1.014428
	H308	H	0.068391	0.006138	1.017996
	O309	O	1.078730	0.941693	0.946861
	H310	H	1.082787	0.942070	0.937847
	H311	H	1.081468	0.934516	0.949234
	O312	O	0.498592	0.475923	0.561236
	H313	H	0.489481	0.477496	0.550412
	H314	H	0.499790	0.475470	0.567307
	O315	O	0.509720	0.462686	0.524939
	H316	H	0.511632	0.465322	0.528015
	H317	H	0.504806	0.456119	0.534488
	O318	O	0.068749	0.883927	-0.061631
	H319	H	0.070702	0.877552	-0.063945
	H320	H	0.063207	0.882852	-0.065528
	O321	O	1.086111	0.923962	-0.052083
	H322	H	1.091754	0.923390	-0.056128
	H323	H	1.088780	0.922463	-0.051572
