data_Molecule from HDF5

_cell_length_a		16.289907
_cell_length_b		16.292549
_cell_length_c		16.394373
_cell_angle_alpha	89.922159
_cell_angle_beta	90.244882
_cell_angle_gamma	90.240502
_symmetry_space_group_name_H-M	'P 1'
_symmetry_Int_Tables_number		1

loop_
	_symmetry_equiv_pos_as_xyz
	x,y,z

loop_
	_atom_site_label
	_atom_site_type_symbol
	_atom_site_fract_x
	_atom_site_fract_y
	_atom_site_fract_z
	H0	H	0.381824	0.844296	0.719719
	H1	H	0.590260	0.167259	0.721737
	H2	H	0.587848	0.845171	0.282236
	H3	H	0.378932	0.166024	0.280102
	H4	H	0.703946	0.402742	0.839600
	H5	H	0.709730	0.610055	0.160224
	H6	H	0.268724	0.609335	0.840185
	H7	H	0.267454	0.402475	0.161286
	H8	H	0.823909	0.723186	0.396792
	H9	H	0.147547	0.725392	0.603396
	H10	H	0.824047	0.287248	0.602448
	H11	H	0.146399	0.287717	0.396593
	H12	H	0.824977	0.401875	0.719034
	H13	H	0.146684	0.611484	0.720379
	H14	H	0.826439	0.611738	0.277674
	H15	H	0.147534	0.404305	0.282516
	H16	H	0.385507	0.724099	0.839960
	H17	H	0.595142	0.727356	0.160826
	H18	H	0.588564	0.286203	0.841267
	H19	H	0.383582	0.287130	0.162343
	H20	H	0.702289	0.844446	0.399500
	H21	H	0.705230	0.167932	0.604629
	H22	H	0.265931	0.844910	0.603354
	H23	H	0.268713	0.168210	0.398714
	H24	H	0.883260	0.345651	0.218981
	H25	H	0.089721	0.668683	0.217562
	H26	H	0.088225	0.344800	0.782258
	H27	H	0.884933	0.668747	0.782187
	H28	H	0.200886	0.907236	0.338614
	H29	H	0.203916	0.108211	0.661862
	H30	H	0.766588	0.108166	0.340213
	H31	H	0.769102	0.905245	0.661640
	H32	H	0.322828	0.220578	0.902181
	H33	H	0.648294	0.222540	0.103515
	H34	H	0.325022	0.786000	0.101655
	H35	H	0.649832	0.792257	0.903038
	H36	H	0.323147	0.903238	0.216522
	H37	H	0.646919	0.107783	0.220551
	H38	H	0.323895	0.106002	0.784772
	H39	H	0.646923	0.902140	0.782278
	H40	H	0.884112	0.222381	0.338232
	H41	H	0.089492	0.225956	0.660487
	H42	H	0.084706	0.791029	0.338393
	H43	H	0.884178	0.788250	0.661363
	H44	H	0.202060	0.343827	0.900226
	H45	H	0.203642	0.669480	0.099593
	H46	H	0.770299	0.344052	0.101381
	H47	H	0.769688	0.668612	0.898213
	H48	H	0.388802	0.122193	0.587513
	H49	H	0.577946	0.891228	0.591320
	H50	H	0.571124	0.119638	0.410865
	H51	H	0.397093	0.890112	0.407435
	H52	H	0.574538	0.421952	0.112083
	H53	H	0.575636	0.600908	0.887183
	H54	H	0.399444	0.592751	0.113055
	H55	H	0.408111	0.411891	0.890738
	H56	H	0.100490	0.595067	0.411032
	H57	H	0.870814	0.593189	0.594435
	H58	H	0.100869	0.423725	0.598243
	H59	H	0.870322	0.420019	0.404207
	H60	H	0.103298	0.408148	0.591854
	H61	H	0.868581	0.601135	0.591098
	H62	H	0.101788	0.598774	0.406920
	H63	H	0.869611	0.410472	0.410901
	H64	H	0.398778	0.599141	0.115928
	H65	H	0.580665	0.597039	0.886017
	H66	H	0.574681	0.409147	0.116386
	H67	H	0.388079	0.402998	0.881415
	H68	H	0.576381	0.120751	0.415173
	H69	H	0.576332	0.890238	0.595427
	H70	H	0.397405	0.123305	0.601169
	H71	H	0.395184	0.893004	0.414441
	H72	H	0.900175	0.622206	0.092313
	H73	H	0.090102	0.385457	0.098444
	H74	H	0.064512	0.619230	0.904566
	H75	H	0.904354	0.394277	0.907787
	H76	H	0.080269	0.912329	0.616352
	H77	H	0.075158	0.094601	0.387045
	H78	H	0.899011	0.101327	0.614732
	H79	H	0.895113	0.922932	0.389236
	H80	H	0.601525	0.098303	0.913309
	H81	H	0.366548	0.104464	0.096002
	H82	H	0.601245	0.917879	0.092875
	H83	H	0.369628	0.916546	0.907390
	H84	H	0.600834	0.918031	0.094305
	H85	H	0.372801	0.096488	0.084157
	H86	H	0.600795	0.094229	0.911486
	H87	H	0.370897	0.910467	0.910536
	H88	H	0.890970	0.097347	0.616424
	H89	H	0.074485	0.101039	0.384692
	H90	H	0.076638	0.921456	0.613717
	H91	H	0.898982	0.907353	0.384875
	H92	H	0.081849	0.618721	0.922573
	H93	H	0.065502	0.392514	0.101788
	H94	H	0.899896	0.620187	0.087089
	H95	H	0.891725	0.392160	0.916183
	H96	H	0.404786	0.116894	0.588012
	H97	H	0.573765	0.892979	0.592183
	H98	H	0.577393	0.122017	0.408521
	H99	H	0.389553	0.889699	0.409751
	H100	H	0.586045	0.415397	0.117136
	H101	H	0.575052	0.593935	0.888321
	H102	H	0.393211	0.594710	0.115815
	H103	H	0.389537	0.425999	0.888296
	H104	H	0.101677	0.600160	0.412068
	H105	H	0.873425	0.595475	0.586194
	H106	H	0.096690	0.420740	0.581783
	H107	H	0.873992	0.420149	0.414904
	H108	H	0.895636	0.621934	0.089456
	H109	H	0.076966	0.395055	0.078611
	H110	H	0.087483	0.627326	0.899628
	H111	H	0.891436	0.387665	0.901376
	H112	H	0.070613	0.913992	0.613394
	H113	H	0.080776	0.097760	0.385132
	H114	H	0.897929	0.092012	0.612935
	H115	H	0.883367	0.913193	0.381678
	H116	H	0.602395	0.098250	0.908873
	H117	H	0.370665	0.089294	0.097405
	H118	H	0.601587	0.916095	0.093472
	H119	H	0.372714	0.915653	0.913570
	C120	C	0.364840	0.014217	0.622807
	C121	C	0.607783	0.997773	0.624343
	C122	C	0.605943	0.014136	0.380457
	C123	C	0.363326	0.997454	0.379406
	C124	C	0.608398	0.384236	0.009382
	C125	C	0.609805	0.628265	0.992882
	C126	C	0.366404	0.626861	0.009126
	C127	C	0.364828	0.383728	0.993088
	C128	C	-0.005624	0.627988	0.378616
	C129	C	0.977506	0.627874	0.621537
	C130	C	-0.005972	0.385326	0.621142
	C131	C	0.977547	0.385730	0.378760
	C132	C	0.866521	0.514683	0.120834
	C133	C	0.108583	0.498152	0.122261
	C134	C	0.107782	0.514732	0.878986
	C135	C	0.865409	0.498288	0.878181
	C136	C	0.106140	0.885504	0.508441
	C137	C	0.108006	0.128465	0.491980
	C138	C	0.864588	0.127491	0.508560
	C139	C	0.862734	0.883840	0.491624
	C140	C	0.494355	0.126753	0.881005
	C141	C	0.476856	0.127366	0.123461
	C142	C	0.494574	0.884510	0.123315
	C143	C	0.478066	0.884682	0.880547
	C144	C	0.363208	0.892644	0.680769
	C145	C	0.608966	0.119017	0.682400
	C146	C	0.606300	0.893285	0.322033
	C147	C	0.361512	0.118171	0.320117
	C148	C	0.665377	0.383766	0.888102
	C149	C	0.670049	0.628840	0.112657
	C150	C	0.307982	0.628083	0.888377
	C151	C	0.306544	0.383440	0.113531
	C152	C	0.872702	0.685090	0.377623
	C153	C	0.098998	0.686589	0.622499
	C154	C	0.872678	0.326176	0.621767
	C155	C	0.098548	0.327182	0.378144
	C156	C	0.873052	0.383258	0.679801
	C157	C	0.098702	0.629777	0.680700
	C158	C	0.874023	0.629608	0.318242
	C159	C	0.098891	0.384940	0.320925
	C160	C	0.366262	0.684971	0.888194
	C161	C	0.612717	0.687052	0.112971
	C162	C	0.608063	0.325631	0.888988
	C163	C	0.364278	0.325942	0.113990
	C164	C	0.663377	0.892970	0.380375
	C165	C	0.665986	0.119391	0.624042
	C166	C	0.305611	0.892985	0.622764
	C167	C	0.306142	0.119266	0.379045
	C168	C	0.865190	0.393565	0.179237
	C169	C	0.108956	0.620293	0.178756
	C170	C	0.107213	0.393112	0.821497
	C171	C	0.865077	0.620065	0.820447
	C172	C	0.162703	0.887044	0.386917
	C173	C	0.165887	0.128474	0.613171
	C174	C	0.805927	0.127415	0.387839
	C175	C	0.807260	0.885126	0.613344
	C176	C	0.371584	0.182292	0.882528
	C177	C	0.599500	0.184137	0.123340
	C178	C	0.373297	0.825040	0.122109
	C179	C	0.600776	0.829297	0.882070
	C180	C	0.372180	0.883472	0.179183
	C181	C	0.598803	0.127395	0.181626
	C182	C	0.372111	0.125737	0.823795
	C183	C	0.599204	0.884436	0.822337
	C184	C	0.864345	0.184170	0.386922
	C185	C	0.108213	0.186369	0.612662
	C186	C	0.105184	0.829078	0.386879
	C187	C	0.864006	0.826578	0.612998
	C188	C	0.163713	0.392488	0.880253
	C189	C	0.165932	0.620364	0.120445
	C190	C	0.808854	0.392704	0.120727
	C191	C	0.807953	0.620072	0.878402
	C192	C	0.389805	0.098872	0.599241
	C193	C	0.583059	0.913304	0.600108
	C194	C	0.581917	0.098909	0.404592
	C195	C	0.387172	0.912824	0.403650
	C196	C	0.585124	0.408432	0.093242
	C197	C	0.584417	0.604146	0.909037
	C198	C	0.390405	0.602684	0.093108
	C199	C	0.388359	0.406981	0.908927
	C200	C	0.079263	0.604699	0.403031
	C201	C	0.892915	0.603532	0.597483
	C202	C	0.078274	0.410146	0.597272
	C203	C	0.893266	0.410059	0.402979
	C204	C	0.891159	0.599492	0.096440
	C205	C	0.084468	0.412881	0.099515
	C206	C	0.084663	0.599745	0.902204
	C207	C	0.889059	0.413492	0.901567
	C208	C	0.082634	0.909015	0.592650
	C209	C	0.083907	0.104784	0.407613
	C210	C	0.888936	0.103722	0.592828
	C211	C	0.885592	0.907533	0.407197
	C212	C	0.579569	0.103628	0.904294
	C213	C	0.391984	0.103617	0.099541
	C214	C	0.579197	0.909732	0.100394
	C215	C	0.393134	0.907405	0.903855
	Zn216	Zn	0.485827	0.005682	0.751974
	Zn217	Zn	0.484586	0.006155	0.251749
	Zn218	Zn	0.737507	0.505948	-0.000282
	Zn219	Zn	0.236620	0.505648	0.000425
	Zn220	Zn	-0.014369	0.755819	0.500031
	Zn221	Zn	-0.014710	0.256890	0.499719
	Zn222	Zn	-0.013953	0.506532	0.749831
	Zn223	Zn	-0.013317	0.506972	0.250340
	Zn224	Zn	0.487606	0.756312	0.001302
	Zn225	Zn	0.486332	0.255414	0.001924
	Zn226	Zn	0.735064	0.006677	0.501246
	Zn227	Zn	0.236309	0.006056	0.500937
	N228	N	0.399359	0.969055	0.680701
	N229	N	0.573649	0.042294	0.682808
	N230	N	0.571470	0.969915	0.322058
	N231	N	0.396103	0.041326	0.319981
	N232	N	0.665737	0.419675	0.963880
	N233	N	0.668032	0.592734	0.036966
	N234	N	0.307982	0.592428	0.964500
	N235	N	0.306908	0.418855	0.037498
	N236	N	0.948700	0.684361	0.414593
	N237	N	0.022668	0.685410	0.586187
	N238	N	0.948856	0.327298	0.586050
	N239	N	0.022172	0.327450	0.413395
	N240	N	0.949470	0.419521	0.679510
	N241	N	0.022150	0.594140	0.680331
	N242	N	0.950539	0.594747	0.318816
	N243	N	0.022629	0.420716	0.321282
	N244	N	0.402036	0.684355	0.964273
	N245	N	0.575639	0.686630	0.037489
	N246	N	0.573315	0.325750	0.965273
	N247	N	0.399888	0.325901	0.038067
	N248	N	0.663094	0.969292	0.416244
	N249	N	0.665325	0.042908	0.588596
	N250	N	0.306789	0.969429	0.587159
	N251	N	0.307207	0.043172	0.415455
	N252	N	0.900199	0.470423	0.179326
	N253	N	0.074424	0.543139	0.180358
	N254	N	0.073187	0.470295	0.820434
	N255	N	0.899867	0.543257	0.820126
	N256	N	0.163617	0.921278	0.463562
	N257	N	0.165810	0.093168	0.537021
	N258	N	0.805965	0.092940	0.464465
	N259	N	0.805956	0.919538	0.536823
	N260	N	0.448735	0.183215	0.917221
	N261	N	0.522680	0.184515	0.088198
	N262	N	0.450434	0.825412	0.088317
	N263	N	0.524494	0.829324	0.917618
	N264	N	0.448693	0.919557	0.180020
	N265	N	0.521648	0.092828	0.181809
	N266	N	0.449386	0.092024	0.822773
	N267	N	0.521978	0.918166	0.821301
	N268	N	0.900307	0.184199	0.462924
	N269	N	0.073333	0.186726	0.536218
	N270	N	0.070735	0.828090	0.463348
	N271	N	0.897642	0.825482	0.536207
	N272	N	0.164273	0.469143	0.915112
	N273	N	0.166070	0.543169	0.086387
	N274	N	0.809724	0.469202	0.084965
	N275	N	0.808030	0.543324	0.913523
	O276	O	0.947145	-0.016385	1.040304
	H277	H	0.946566	-0.017494	1.030580
	H278	H	0.943419	-0.012263	1.042342
	O279	O	0.405591	0.683164	0.373332
	H280	H	0.406968	0.691836	0.360192
	H281	H	0.421965	0.658241	0.362899
	O282	O	0.507563	0.411014	0.398429
	H283	H	0.503989	0.408863	0.390686
	H284	H	0.516364	0.399637	0.389881
	O285	O	0.523155	0.345803	0.303586
	H286	H	0.537669	0.347387	0.317996
	H287	H	0.528510	0.329938	0.284314
	O288	O	0.417407	0.389263	0.489712
	H289	H	0.410384	0.402721	0.492529
	H290	H	0.420311	0.396106	0.486894
	O291	O	-0.064716	0.041557	0.953450
	H292	H	-0.074860	0.047999	0.948776
	H293	H	-0.064507	0.049042	0.946068
	O294	O	0.966495	0.995112	0.017314
	H295	H	0.965039	1.004985	0.008801
	H296	H	0.970284	0.996376	0.021934
	O297	O	0.948930	1.054257	-0.010401
	H298	H	0.960457	1.047911	-0.014232
	H299	H	0.955376	1.051261	-0.001189
	O300	O	0.345437	0.329524	0.649022
	H301	H	0.330146	0.357650	0.647952
	H302	H	0.364549	0.327824	0.634968
	O303	O	0.616173	0.323786	0.459205
	H304	H	0.631589	0.316817	0.471198
	H305	H	0.614625	0.349952	0.457279
	O306	O	0.583205	0.577759	0.689286
	H307	H	0.584515	0.585357	0.669329
	H308	H	0.566914	0.593566	0.692221
	O309	O	0.287376	0.368408	0.587578
	H310	H	0.265582	0.369960	0.591679
	H311	H	0.285971	0.378413	0.576715
	O312	O	1.563315	1.450278	0.565235
	H313	H	1.554558	1.449037	0.578332
	H314	H	1.560895	1.462603	0.572144
	O315	O	0.973922	1.094157	-0.069882
	H316	H	0.977033	1.099695	-0.068368
	H317	H	0.972992	1.100125	-0.071742
	O318	O	0.477519	0.641563	0.633447
	H319	H	0.488282	0.626304	0.632353
	H320	H	0.459047	0.641424	0.640723
	O321	O	0.427558	0.609895	0.474308
	H322	H	0.428889	0.610600	0.461299
	H323	H	0.427235	0.594721	0.467468
	O324	O	0.034356	0.914983	1.017526
	H325	H	0.032132	0.905787	1.023202
	H326	H	0.028714	0.913228	1.007393
	O327	O	-0.491213	0.612167	1.287536
	H328	H	-0.493869	0.611312	1.277605
	H329	H	-0.486954	0.604266	1.295577
	O330	O	-0.069083	0.036244	-0.041707
	H331	H	-0.074479	0.034841	-0.048645
	H332	H	-0.077050	0.031216	-0.038631
	O333	O	0.583000	0.535250	0.443567
	H334	H	0.581104	0.526677	0.447392
	H335	H	0.583746	0.548200	0.424543
	O336	O	-0.086331	0.067382	-0.018731
	H337	H	-0.088278	0.064753	-0.009605
	H338	H	-0.090614	0.059760	-0.028064
	O339	O	0.555803	0.483682	-0.441276
	H340	H	0.552856	0.486566	-0.434840
	H341	H	0.564204	0.492801	-0.419724
	O342	O	0.437764	0.569479	0.384760
	H343	H	0.444634	0.571801	0.380684
	H344	H	0.443832	0.559411	0.368564
	O345	O	0.620855	0.639872	0.600297
	H346	H	0.633937	0.649458	0.585823
	H347	H	0.616077	0.655669	0.595607
	O348	O	0.363621	0.302452	0.635451
	H349	H	0.357405	0.309171	0.650668
	H350	H	0.359745	0.277716	0.646160
	O351	O	0.464270	0.572230	0.560745
	H352	H	0.468493	0.573578	0.559428
	H353	H	0.446585	0.571939	0.553674
	O354	O	-0.012691	1.141800	-0.016434
	H355	H	-0.001258	1.140899	-0.029306
	H356	H	-0.023472	1.156352	-0.015034
	O357	O	0.319402	0.523168	0.674239
	H358	H	0.324277	0.517556	0.670709
	H359	H	0.313873	0.527234	0.669835
	O360	O	0.986340	-0.011363	0.915422
	H361	H	0.978728	-0.013419	0.926018
	H362	H	0.999538	-0.007325	0.925757
	O363	O	0.462396	0.688915	0.499515
	H364	H	0.457534	0.696897	0.489283
	H365	H	0.461491	0.700243	0.499398
	O366	O	0.587195	0.324012	0.452892
	H367	H	0.586345	0.317433	0.472113
	H368	H	0.577708	0.322670	0.457691
	O369	O	1.058312	-0.014507	0.033228
	H370	H	1.063969	-0.007803	0.034550
	H371	H	1.050241	-0.012632	0.037815
	O372	O	0.330791	0.539953	0.557790
	H373	H	0.333660	0.535611	0.544179
	H374	H	0.320482	0.524879	0.563877
	O375	O	0.928503	0.062960	0.954345
	H376	H	0.929695	0.058267	0.954655
	H377	H	0.935059	0.071143	0.955762
	O378	O	0.424303	0.649592	0.434430
	H379	H	0.411119	0.669975	0.427427
	H380	H	0.447395	0.639815	0.421088
	O381	O	0.624954	0.487518	0.304395
	H382	H	0.638769	0.484227	0.305595
	H383	H	0.619334	0.473070	0.310406
	O384	O	1.530119	0.531603	0.480156
	H385	H	1.541880	0.532913	0.493748
	H386	H	1.511565	0.540047	0.485415
	O387	O	0.953617	-0.019348	1.010546
	H388	H	0.954318	-0.023283	1.008272
	H389	H	0.957911	-0.024179	1.018237
	O390	O	1.054049	1.023991	0.088066
	H391	H	1.053293	1.023141	0.079742
	H392	H	1.043731	1.023250	0.099024
	O393	O	0.675759	0.490734	0.555873
	H394	H	0.665178	0.501076	0.573787
	H395	H	0.696255	0.497408	0.577400
