data_Molecule from HDF5

_cell_length_a		16.266152
_cell_length_b		16.169349
_cell_length_c		16.418912
_cell_angle_alpha	89.906894
_cell_angle_beta	90.165175
_cell_angle_gamma	90.127605
_symmetry_space_group_name_H-M	'P 1'
_symmetry_Int_Tables_number		1

loop_
	_symmetry_equiv_pos_as_xyz
	x,y,z

loop_
	_atom_site_label
	_atom_site_type_symbol
	_atom_site_fract_x
	_atom_site_fract_y
	_atom_site_fract_z
	H0	H	0.400591	0.834050	0.719215
	H1	H	0.601808	0.161565	0.720029
	H2	H	0.600512	0.834308	0.289857
	H3	H	0.398971	0.160749	0.286276
	H4	H	0.716557	0.399411	0.841584
	H5	H	0.717010	0.598139	0.166319
	H6	H	0.284327	0.597113	0.842367
	H7	H	0.285521	0.396391	0.167197
	H8	H	0.835340	0.708678	0.407815
	H9	H	0.164321	0.712183	0.603820
	H10	H	0.836423	0.283791	0.601997
	H11	H	0.165213	0.285453	0.408937
	H12	H	0.837501	0.396469	0.721429
	H13	H	0.162888	0.599176	0.722603
	H14	H	0.838811	0.599660	0.286004
	H15	H	0.162866	0.395921	0.289493
	H16	H	0.402531	0.713257	0.841793
	H17	H	0.599603	0.712208	0.167108
	H18	H	0.599279	0.282635	0.841198
	H19	H	0.404027	0.281898	0.167095
	H20	H	0.712430	0.833064	0.407140
	H21	H	0.714741	0.162375	0.602407
	H22	H	0.285981	0.833807	0.601807
	H23	H	0.288273	0.163510	0.405899
	H24	H	0.899910	0.333888	0.220003
	H25	H	0.102109	0.661302	0.220726
	H26	H	0.100169	0.333975	0.790397
	H27	H	0.897481	0.660957	0.787037
	H28	H	0.215302	0.898432	0.340691
	H29	H	0.218634	0.098933	0.665327
	H30	H	0.784233	0.097356	0.341886
	H31	H	0.783699	0.896916	0.665954
	H32	H	0.336630	0.210734	0.906565
	H33	H	0.665634	0.209985	0.101807
	H34	H	0.336989	0.783819	0.101306
	H35	H	0.665513	0.785605	0.908034
	H36	H	0.338143	0.896729	0.220411
	H37	H	0.663682	0.098778	0.221379
	H38	H	0.338765	0.100425	0.786068
	H39	H	0.663368	0.897237	0.788666
	H40	H	0.902692	0.212586	0.341615
	H41	H	0.100526	0.212757	0.666814
	H42	H	0.097716	0.782133	0.341238
	H43	H	0.901919	0.781980	0.666666
	H44	H	0.213323	0.333152	0.907456
	H45	H	0.215451	0.661613	0.103252
	H46	H	0.786515	0.333431	0.102573
	H47	H	0.787310	0.663278	0.905890
	H48	H	0.405298	0.116284	0.594687
	H49	H	0.593731	0.880573	0.596977
	H50	H	0.597073	0.117469	0.412252
	H51	H	0.403164	0.881177	0.420101
	H52	H	0.597250	0.400603	0.121162
	H53	H	0.597555	0.594896	0.886159
	H54	H	0.400854	0.580704	0.118538
	H55	H	0.413726	0.399285	0.889567
	H56	H	0.118035	0.604018	0.424380
	H57	H	0.886005	0.587640	0.593581
	H58	H	0.118612	0.405904	0.604895
	H59	H	0.883390	0.404739	0.411864
	H60	H	0.117680	0.402150	0.596332
	H61	H	0.883617	0.585623	0.602400
	H62	H	0.110125	0.572824	0.417944
	H63	H	0.884548	0.407393	0.413518
	H64	H	0.418412	0.590011	0.116046
	H65	H	0.596722	0.586320	0.890065
	H66	H	0.596892	0.409838	0.118049
	H67	H	0.397835	0.402043	0.886295
	H68	H	0.590368	0.115467	0.407130
	H69	H	0.592598	0.879484	0.600257
	H70	H	0.411565	0.115917	0.600549
	H71	H	0.403912	0.878344	0.404169
	H72	H	0.900238	0.620258	0.103688
	H73	H	0.091278	0.377588	0.105320
	H74	H	0.092106	0.615254	0.912392
	H75	H	0.910921	0.384553	0.920334
	H76	H	0.098934	0.904075	0.619750
	H77	H	0.094712	0.089996	0.388800
	H78	H	0.906607	0.085974	0.618505
	H79	H	0.909326	0.893258	0.386773
	H80	H	0.620696	0.089812	0.901891
	H81	H	0.380742	0.088588	0.109965
	H82	H	0.620671	0.901452	0.104753
	H83	H	0.383747	0.910355	0.905113
	H84	H	0.617347	0.903047	0.092729
	H85	H	0.383479	0.100009	0.089396
	H86	H	0.617793	0.097454	0.916938
	H87	H	0.382675	0.899590	0.912062
	H88	H	0.911499	0.091720	0.618735
	H89	H	0.091258	0.091403	0.389055
	H90	H	0.093778	0.911773	0.616119
	H91	H	0.894015	0.906272	0.385619
	H92	H	0.091243	0.614281	0.913213
	H93	H	0.087853	0.383279	0.094480
	H94	H	0.921411	0.613096	0.102480
	H95	H	0.901490	0.378305	0.912097
	H96	H	0.412830	0.112727	0.592564
	H97	H	0.590328	0.880185	0.597461
	H98	H	0.589579	0.113701	0.415125
	H99	H	0.417054	0.883324	0.411558
	H100	H	0.588881	0.404205	0.118066
	H101	H	0.589387	0.591936	0.890122
	H102	H	0.402999	0.600317	0.124135
	H103	H	0.407403	0.414112	0.892037
	H104	H	0.122737	0.591974	0.394886
	H105	H	0.882064	0.594065	0.598684
	H106	H	0.114831	0.411144	0.597917
	H107	H	0.884064	0.407469	0.410161
	H108	H	0.908165	0.611193	0.085272
	H109	H	0.099655	0.379041	0.096496
	H110	H	0.092717	0.614809	0.913924
	H111	H	0.914100	0.381385	0.907607
	H112	H	0.089313	0.902704	0.617835
	H113	H	0.093738	0.094115	0.388114
	H114	H	0.904553	0.092212	0.621137
	H115	H	0.912249	0.912544	0.393280
	H116	H	0.613199	0.080754	0.914718
	H117	H	0.390469	0.076631	0.091445
	H118	H	0.616062	0.913007	0.100786
	H119	H	0.387319	0.910467	0.916755
	C120	C	0.380096	0.006837	0.624976
	C121	C	0.621821	0.989072	0.626299
	C122	C	0.620880	0.006621	0.383351
	C123	C	0.379332	0.989683	0.382854
	C124	C	0.622940	0.376017	0.011909
	C125	C	0.622895	0.619833	0.996000
	C126	C	0.378565	0.619922	0.012642
	C127	C	0.378479	0.375471	0.996617
	C128	C	0.008926	0.618649	0.383348
	C129	C	0.991632	0.618930	0.627402
	C130	C	0.009115	0.376465	0.627656
	C131	C	0.992197	0.376912	0.384039
	C132	C	0.880330	0.506194	0.125976
	C133	C	0.122162	0.488544	0.127023
	C134	C	0.120809	0.506019	0.884597
	C135	C	0.879413	0.489902	0.883952
	C136	C	0.122064	0.876636	0.510916
	C137	C	0.122714	0.120161	0.495902
	C138	C	0.878316	0.119528	0.512442
	C139	C	0.877267	0.875184	0.495837
	C140	C	0.509493	0.119243	0.882059
	C141	C	0.492796	0.118591	0.125946
	C142	C	0.509694	0.876452	0.126850
	C143	C	0.492652	0.877301	0.883410
	C144	C	0.380622	0.883179	0.680929
	C145	C	0.621153	0.112665	0.681752
	C146	C	0.619613	0.883067	0.328090
	C147	C	0.380127	0.112568	0.325796
	C148	C	0.678442	0.378618	0.890017
	C149	C	0.678791	0.618066	0.118038
	C150	C	0.322691	0.617581	0.890679
	C151	C	0.323878	0.377065	0.118755
	C152	C	0.885227	0.672828	0.385953
	C153	C	0.115137	0.674304	0.624321
	C154	C	0.885637	0.320937	0.623899
	C155	C	0.115780	0.322254	0.387846
	C156	C	0.885959	0.377244	0.682758
	C157	C	0.114404	0.618263	0.683583
	C158	C	0.886803	0.618306	0.325894
	C159	C	0.114558	0.377159	0.328278
	C160	C	0.381535	0.675072	0.890208
	C161	C	0.620294	0.674896	0.118310
	C162	C	0.620101	0.320834	0.889836
	C163	C	0.382583	0.319807	0.118639
	C164	C	0.675014	0.882333	0.386586
	C165	C	0.677257	0.113059	0.623157
	C166	C	0.324293	0.882809	0.622400
	C167	C	0.324474	0.113735	0.384519
	C168	C	0.880591	0.382928	0.181691
	C169	C	0.121445	0.612224	0.182734
	C170	C	0.119597	0.382845	0.828663
	C171	C	0.879148	0.612502	0.826425
	C172	C	0.177805	0.877824	0.389469
	C173	C	0.179356	0.118139	0.617397
	C174	C	0.822729	0.117610	0.390342
	C175	C	0.822070	0.876866	0.617787
	C176	C	0.386096	0.174313	0.885101
	C177	C	0.616088	0.173539	0.122926
	C178	C	0.386165	0.821246	0.122890
	C179	C	0.616158	0.822569	0.886912
	C180	C	0.386649	0.877337	0.181717
	C181	C	0.615236	0.118065	0.182342
	C182	C	0.386883	0.119092	0.825474
	C183	C	0.615012	0.877861	0.827401
	C184	C	0.881327	0.175174	0.390123
	C185	C	0.120629	0.175027	0.618238
	C186	C	0.119031	0.820420	0.389404
	C187	C	0.880808	0.819737	0.618115
	C188	C	0.175890	0.382348	0.886786
	C189	C	0.177669	0.612579	0.124160
	C190	C	0.824038	0.382706	0.123343
	C191	C	0.824295	0.613608	0.885569
	C192	C	0.403245	0.092698	0.602722
	C193	C	0.598920	0.902397	0.604548
	C194	C	0.598677	0.093189	0.405046
	C195	C	0.401506	0.903261	0.405288
	C196	C	0.600883	0.398276	0.097062
	C197	C	0.600919	0.597685	0.910784
	C198	C	0.400945	0.597221	0.097565
	C199	C	0.400026	0.398477	0.911234
	C200	C	0.094907	0.596286	0.405784
	C201	C	0.905937	0.595842	0.605012
	C202	C	0.094849	0.399552	0.606060
	C203	C	0.906335	0.399912	0.405569
	C204	C	0.903326	0.592609	0.103690
	C205	C	0.099417	0.402209	0.105310
	C206	C	0.098515	0.592394	0.906685
	C207	C	0.902162	0.403732	0.906684
	C208	C	0.100295	0.899430	0.595961
	C209	C	0.099951	0.098194	0.410635
	C210	C	0.900882	0.096743	0.597356
	C211	C	0.898815	0.897425	0.410662
	C212	C	0.595158	0.096182	0.904665
	C213	C	0.406909	0.095143	0.103401
	C214	C	0.595832	0.899165	0.105680
	C215	C	0.406881	0.900126	0.905161
	Zn216	Zn	0.500915	-0.001843	0.753930
	Zn217	Zn	0.500837	-0.002224	0.255310
	Zn218	Zn	0.751954	0.498789	0.004500
	Zn219	Zn	0.249287	0.497342	0.005163
	Zn220	Zn	0.000147	0.746572	0.504115
	Zn221	Zn	0.000833	0.248994	0.504796
	Zn222	Zn	0.000032	0.497959	0.756255
	Zn223	Zn	0.000864	0.497645	0.255001
	Zn224	Zn	0.501288	0.748947	0.004472
	Zn225	Zn	0.500980	0.246635	0.004251
	Zn226	Zn	0.748531	-0.002355	0.504268
	Zn227	Zn	0.251742	-0.001397	0.503240
	N228	N	0.414714	0.961132	0.682708
	N229	N	0.587289	0.034682	0.683469
	N230	N	0.586674	0.961333	0.326055
	N231	N	0.413471	0.034311	0.324646
	N232	N	0.680402	0.412290	0.966930
	N233	N	0.680562	0.584619	0.041048
	N234	N	0.320910	0.583835	0.967742
	N235	N	0.321226	0.410906	0.041625
	N236	N	0.962050	0.672839	0.421213
	N237	N	0.037791	0.675187	0.590223
	N238	N	0.962940	0.320440	0.590146
	N239	N	0.038607	0.322373	0.422072
	N240	N	0.963800	0.410707	0.685508
	N241	N	0.036678	0.584791	0.685501
	N242	N	0.964813	0.585372	0.324141
	N243	N	0.036843	0.410474	0.325980
	N244	N	0.415623	0.676623	0.966970
	N245	N	0.586017	0.675846	0.041660
	N246	N	0.586266	0.319243	0.966639
	N247	N	0.415912	0.318842	0.041789
	N248	N	0.676294	0.960325	0.420203
	N249	N	0.677925	0.035084	0.589550
	N250	N	0.323478	0.960555	0.588456
	N251	N	0.324226	0.036470	0.419606
	N252	N	0.914890	0.460655	0.183267
	N253	N	0.087718	0.534077	0.184725
	N254	N	0.086028	0.460958	0.827129
	N255	N	0.912824	0.534524	0.825326
	N256	N	0.179703	0.912125	0.466120
	N257	N	0.180734	0.084949	0.540289
	N258	N	0.820831	0.083644	0.467327
	N259	N	0.819900	0.910726	0.540849
	N260	N	0.463292	0.174302	0.919661
	N261	N	0.538950	0.173633	0.088337
	N262	N	0.463662	0.820579	0.089457
	N263	N	0.538978	0.822230	0.921144
	N264	N	0.464489	0.910705	0.184453
	N265	N	0.537398	0.084569	0.184358
	N266	N	0.464591	0.085620	0.823443
	N267	N	0.537203	0.911009	0.824857
	N268	N	0.915066	0.176764	0.467055
	N269	N	0.085979	0.176316	0.541760
	N270	N	0.085054	0.819463	0.465953
	N271	N	0.914622	0.818607	0.541380
	N272	N	0.176695	0.459820	0.920835
	N273	N	0.178422	0.534729	0.090669
	N274	N	0.823855	0.460526	0.089263
	N275	N	0.824510	0.536310	0.920678
	O276	O	0.957663	1.016467	-0.108553
	H277	H	0.946939	1.006628	-0.106795
	H278	H	0.967154	1.021388	-0.125705
	O279	O	-0.052669	0.066150	-0.081210
	H280	H	-0.061886	0.060455	-0.091526
	H281	H	-0.056597	0.062002	-0.080941
	O282	O	0.011345	-0.006837	0.935527
	H283	H	0.007748	-0.007273	0.942190
	H284	H	0.011564	-0.004071	0.934398
	O285	O	0.481803	0.501730	0.439420
	H286	H	0.479623	0.497648	0.441922
	H287	H	0.478934	0.504168	0.435988
	O288	O	0.499944	0.542596	0.484405
	H289	H	0.501419	0.541279	0.485707
	H290	H	0.504304	0.536287	0.494504
	O291	O	0.552098	0.489983	0.499342
	H292	H	0.555623	0.495281	0.500339
	H293	H	0.552765	0.484115	0.496710
	O294	O	0.048582	-0.065166	-0.023472
	H295	H	0.038941	-0.065047	-0.027222
	H296	H	0.043876	-0.055168	-0.023397
	O297	O	0.482570	0.470533	0.521008
	H298	H	0.477615	0.472652	0.521049
	H299	H	0.477950	0.469372	0.519042
	O300	O	-0.012665	0.960442	0.936329
	H301	H	-0.019956	0.951791	0.926927
	H302	H	-0.011009	0.959722	0.931880
	O303	O	0.528204	0.548179	0.492470
	H304	H	0.532059	0.544814	0.471456
	H305	H	0.528520	0.556171	0.493789
	O306	O	0.017110	-0.036450	0.966451
	H307	H	0.029261	-0.031423	0.960281
	H308	H	0.009524	-0.031839	0.962043
	O309	O	1.041297	0.933422	0.922489
	H310	H	1.046676	0.926539	0.909076
	H311	H	1.042306	0.929746	0.934099
	O312	O	0.478830	0.578032	0.445217
	H313	H	0.477053	0.587154	0.435364
	H314	H	0.478830	0.584337	0.451613
	O315	O	0.473162	0.497390	0.470881
	H316	H	0.480259	0.497131	0.469404
	H317	H	0.473511	0.499605	0.477849
	O318	O	0.019443	0.977609	-0.085066
	H319	H	0.013722	0.977458	-0.085441
	H320	H	0.035055	0.990380	-0.087634
	O321	O	1.041088	0.997169	-0.059700
	H322	H	1.039789	0.993502	-0.053438
	H323	H	1.056486	0.996097	-0.047770
