data_Molecule from HDF5

_cell_length_a		16.245063
_cell_length_b		16.247081
_cell_length_c		16.395691
_cell_angle_alpha	90.166435
_cell_angle_beta	90.013914
_cell_angle_gamma	89.858010
_symmetry_space_group_name_H-M	'P 1'
_symmetry_Int_Tables_number		1

loop_
	_symmetry_equiv_pos_as_xyz
	x,y,z

loop_
	_atom_site_label
	_atom_site_type_symbol
	_atom_site_fract_x
	_atom_site_fract_y
	_atom_site_fract_z
	H0	H	0.401205	0.842873	0.704910
	H1	H	0.600012	0.169950	0.707544
	H2	H	0.600614	0.843584	0.275246
	H3	H	0.399178	0.169845	0.275687
	H4	H	0.714572	0.406886	0.828550
	H5	H	0.714848	0.604996	0.153717
	H6	H	0.285427	0.603835	0.828187
	H7	H	0.285258	0.408425	0.154032
	H8	H	0.834854	0.719753	0.393805
	H9	H	0.164884	0.719069	0.587860
	H10	H	0.835296	0.295002	0.586835
	H11	H	0.164318	0.292595	0.393765
	H12	H	0.836697	0.407050	0.706655
	H13	H	0.163705	0.605801	0.706737
	H14	H	0.836012	0.605562	0.275729
	H15	H	0.164309	0.406090	0.275376
	H16	H	0.400370	0.721826	0.828515
	H17	H	0.599455	0.722993	0.153637
	H18	H	0.598083	0.290918	0.828080
	H19	H	0.402733	0.292652	0.154005
	H20	H	0.714418	0.842489	0.392805
	H21	H	0.713004	0.171276	0.589131
	H22	H	0.287697	0.842443	0.587374
	H23	H	0.286627	0.171226	0.395130
	H24	H	0.899675	0.343025	0.206237
	H25	H	0.097803	0.670692	0.205429
	H26	H	0.099967	0.343582	0.774852
	H27	H	0.901188	0.670740	0.777371
	H28	H	0.214264	0.908691	0.328198
	H29	H	0.215320	0.105670	0.653670
	H30	H	0.784491	0.105594	0.328705
	H31	H	0.786243	0.910996	0.654695
	H32	H	0.335505	0.219459	0.895589
	H33	H	0.664607	0.219398	0.088138
	H34	H	0.335669	0.795233	0.087408
	H35	H	0.663894	0.790997	0.892753
	H36	H	0.336740	0.907384	0.205865
	H37	H	0.663449	0.106743	0.207254
	H38	H	0.335711	0.105747	0.776511
	H39	H	0.662812	0.905630	0.774891
	H40	H	0.902031	0.220913	0.327763
	H41	H	0.098928	0.222495	0.653939
	H42	H	0.097270	0.792056	0.328123
	H43	H	0.901750	0.792794	0.654055
	H44	H	0.212754	0.342053	0.894229
	H45	H	0.213261	0.671060	0.089186
	H46	H	0.787409	0.341744	0.087014
	H47	H	0.784905	0.670128	0.893261
	H48	H	0.408090	0.123999	0.587485
	H49	H	0.594266	0.890519	0.580112
	H50	H	0.589233	0.121691	0.400989
	H51	H	0.399795	0.886650	0.392443
	H52	H	0.590915	0.404496	0.107872
	H53	H	0.591001	0.600403	0.875965
	H54	H	0.404515	0.601018	0.107253
	H55	H	0.410378	0.411399	0.876870
	H56	H	0.118808	0.604448	0.393931
	H57	H	0.885070	0.592870	0.586728
	H58	H	0.118006	0.408333	0.581850
	H59	H	0.887142	0.416436	0.405033
	H60	H	0.113668	0.418847	0.578591
	H61	H	0.880423	0.605384	0.589774
	H62	H	0.115520	0.599883	0.402600
	H63	H	0.883460	0.421264	0.389267
	H64	H	0.406426	0.597871	0.106180
	H65	H	0.593817	0.597361	0.876030
	H66	H	0.602162	0.415144	0.108569
	H67	H	0.403675	0.407145	0.873407
	H68	H	0.593636	0.123569	0.399588
	H69	H	0.594762	0.888641	0.585854
	H70	H	0.409109	0.122530	0.584285
	H71	H	0.416718	0.891255	0.392917
	H72	H	0.899819	0.625071	0.085174
	H73	H	0.096440	0.389295	0.082244
	H74	H	0.091715	0.624127	0.894939
	H75	H	0.914308	0.391975	0.897553
	H76	H	0.096183	0.915562	0.607053
	H77	H	0.097667	0.103129	0.373121
	H78	H	0.899733	0.099805	0.608248
	H79	H	0.906918	0.916371	0.376849
	H80	H	0.615780	0.096867	0.900300
	H81	H	0.383334	0.099179	0.083712
	H82	H	0.617846	0.916885	0.089666
	H83	H	0.384212	0.919975	0.895722
	H84	H	0.619387	0.908466	0.083828
	H85	H	0.383847	0.098156	0.086079
	H86	H	0.617132	0.096591	0.894249
	H87	H	0.380485	0.910320	0.892862
	H88	H	0.910295	0.098098	0.604339
	H89	H	0.093409	0.094606	0.377720
	H90	H	0.090675	0.913573	0.606098
	H91	H	0.908395	0.911317	0.376126
	H92	H	0.091368	0.623260	0.898931
	H93	H	0.091289	0.389689	0.088243
	H94	H	0.912561	0.623630	0.090125
	H95	H	0.904007	0.389681	0.901268
	H96	H	0.405547	0.124359	0.584228
	H97	H	0.589317	0.891122	0.584089
	H98	H	0.589696	0.123527	0.395818
	H99	H	0.406816	0.892377	0.407288
	H100	H	0.588022	0.419258	0.103557
	H101	H	0.590711	0.596923	0.877951
	H102	H	0.408388	0.601729	0.105876
	H103	H	0.403066	0.415493	0.875458
	H104	H	0.116044	0.594674	0.393777
	H105	H	0.885231	0.601958	0.577425
	H106	H	0.117568	0.416908	0.589638
	H107	H	0.879726	0.405152	0.393785
	H108	H	0.909790	0.620060	0.077052
	H109	H	0.088993	0.391900	0.080959
	H110	H	0.095333	0.624952	0.897485
	H111	H	0.905787	0.387682	0.891125
	H112	H	0.094638	0.909957	0.608119
	H113	H	0.088200	0.103043	0.376320
	H114	H	0.907329	0.107958	0.607965
	H115	H	0.903501	0.913051	0.374687
	H116	H	0.617845	0.101982	0.897242
	H117	H	0.382824	0.100680	0.085327
	H118	H	0.614429	0.916919	0.079868
	H119	H	0.384862	0.912021	0.902855
	C120	C	0.379525	0.015059	0.612318
	C121	C	0.621337	0.998425	0.612614
	C122	C	0.620574	0.014953	0.370079
	C123	C	0.378622	0.998171	0.369420
	C124	C	0.621911	0.384211	-0.000907
	C125	C	0.621204	0.628025	0.983404
	C126	C	0.378021	0.628651	-0.001004
	C127	C	0.377934	0.384060	0.983139
	C128	C	0.008150	0.628208	0.368772
	C129	C	0.991949	0.628115	0.612496
	C130	C	0.008354	0.385953	0.612054
	C131	C	0.991773	0.385127	0.368347
	C132	C	0.878740	0.514602	0.112053
	C133	C	0.121098	0.498508	0.112448
	C134	C	0.121254	0.515378	0.869152
	C135	C	0.878740	0.498162	0.869051
	C136	C	0.121796	0.884767	0.499379
	C137	C	0.121817	0.128903	0.483136
	C138	C	0.877600	0.129913	0.499211
	C139	C	0.878238	0.885762	0.483342
	C140	C	0.508161	0.127052	0.869854
	C141	C	0.491579	0.128231	0.113406
	C142	C	0.508801	0.885473	0.112578
	C143	C	0.491450	0.884588	0.868995
	C144	C	0.381215	0.891792	0.667108
	C145	C	0.619484	0.121332	0.668855
	C146	C	0.619885	0.892024	0.314089
	C147	C	0.379833	0.121331	0.314326
	C148	C	0.676717	0.386332	0.876898
	C149	C	0.677039	0.625987	0.105326
	C150	C	0.323247	0.625155	0.876747
	C151	C	0.323388	0.387754	0.105594
	C152	C	0.884313	0.682433	0.372638
	C153	C	0.115629	0.682101	0.609053
	C154	C	0.884574	0.331835	0.608306
	C155	C	0.115579	0.330041	0.372073
	C156	C	0.885347	0.387324	0.667928
	C157	C	0.115024	0.626062	0.668265
	C158	C	0.884731	0.625761	0.313858
	C159	C	0.115395	0.386644	0.313604
	C160	C	0.380568	0.683731	0.877085
	C161	C	0.619328	0.684304	0.105353
	C162	C	0.618996	0.328704	0.876846
	C163	C	0.381575	0.329975	0.105539
	C164	C	0.676462	0.891657	0.372256
	C165	C	0.675270	0.122271	0.609778
	C166	C	0.325079	0.891442	0.608484
	C167	C	0.324265	0.122141	0.373905
	C168	C	0.880787	0.391438	0.167147
	C169	C	0.118634	0.621806	0.167642
	C170	C	0.119719	0.392325	0.813493
	C171	C	0.880758	0.621843	0.815133
	C172	C	0.176474	0.887803	0.376839
	C173	C	0.177062	0.126299	0.605525
	C174	C	0.822562	0.126573	0.377175
	C175	C	0.823653	0.889478	0.606012
	C176	C	0.384437	0.181895	0.873883
	C177	C	0.615314	0.182527	0.109908
	C178	C	0.384967	0.831717	0.109083
	C179	C	0.614873	0.829005	0.872028
	C180	C	0.385696	0.887128	0.168149
	C181	C	0.614869	0.126108	0.168648
	C182	C	0.384668	0.125356	0.815002
	C183	C	0.614219	0.885625	0.813251
	C184	C	0.880798	0.183959	0.376661
	C185	C	0.119167	0.184391	0.605581
	C186	C	0.118476	0.829725	0.376762
	C187	C	0.881205	0.831001	0.605674
	C188	C	0.175738	0.391539	0.872645
	C189	C	0.175745	0.622005	0.109926
	C190	C	0.824540	0.390845	0.108308
	C191	C	0.822948	0.621391	0.872506
	C192	C	0.401158	0.101163	0.591472
	C193	C	0.599255	0.912477	0.590074
	C194	C	0.597650	0.100781	0.392333
	C195	C	0.401202	0.912176	0.391028
	C196	C	0.600107	0.406448	0.084465
	C197	C	0.598624	0.605015	0.898560
	C198	C	0.400001	0.606585	0.084659
	C199	C	0.399248	0.405232	0.897238
	C200	C	0.094451	0.606029	0.390427
	C201	C	0.905738	0.606401	0.590894
	C202	C	0.094352	0.408246	0.590139
	C203	C	0.905770	0.407588	0.389792
	C204	C	0.900838	0.600661	0.090403
	C205	C	0.098974	0.412502	0.090291
	C206	C	0.099329	0.601919	0.890866
	C207	C	0.901526	0.412060	0.890358
	C208	C	0.100405	0.906650	0.585009
	C209	C	0.099666	0.106786	0.397743
	C210	C	0.899482	0.108370	0.584703
	C211	C	0.899854	0.907317	0.397999
	C212	C	0.594603	0.104858	0.891030
	C213	C	0.405556	0.105872	0.091521
	C214	C	0.595080	0.907595	0.090842
	C215	C	0.405361	0.907323	0.890727
	Zn216	Zn	0.499937	0.006243	0.740911
	Zn217	Zn	0.500104	0.006692	0.240808
	Zn218	Zn	0.750648	0.505994	-0.009332
	Zn219	Zn	0.249047	0.506812	-0.008574
	Zn220	Zn	-0.000179	0.756280	0.491345
	Zn221	Zn	-0.000278	0.258136	0.490995
	Zn222	Zn	-0.000272	0.507013	0.740550
	Zn223	Zn	0.000194	0.506298	0.240694
	Zn224	Zn	0.499756	0.757524	-0.008406
	Zn225	Zn	0.500145	0.255392	-0.008642
	Zn226	Zn	0.748909	0.007139	0.491108
	Zn227	Zn	0.250910	0.006936	0.491423
	N228	N	0.414327	0.969482	0.669511
	N229	N	0.586341	0.043517	0.670406
	N230	N	0.585847	0.969569	0.312499
	N231	N	0.413127	0.043373	0.311501
	N232	N	0.678535	0.420274	0.953810
	N233	N	0.678220	0.591447	0.028606
	N234	N	0.321559	0.591425	0.953633
	N235	N	0.321043	0.420756	0.028317
	N236	N	0.962053	0.684110	0.405977
	N237	N	0.038117	0.683629	0.575381
	N238	N	0.961880	0.331095	0.574049
	N239	N	0.037800	0.328835	0.405426
	N240	N	0.963287	0.420023	0.670400
	N241	N	0.037133	0.592912	0.670284
	N242	N	0.962766	0.592551	0.311594
	N243	N	0.037486	0.420064	0.311111
	N244	N	0.413836	0.685766	0.954249
	N245	N	0.585627	0.685881	0.028489
	N246	N	0.585492	0.327259	0.953887
	N247	N	0.414658	0.327718	0.028454
	N248	N	0.677060	0.969208	0.406466
	N249	N	0.676824	0.044874	0.575646
	N250	N	0.323567	0.969136	0.575236
	N251	N	0.323343	0.044593	0.407286
	N252	N	0.913698	0.469443	0.169701
	N253	N	0.085464	0.544096	0.169257
	N254	N	0.086314	0.470145	0.811501
	N255	N	0.914414	0.544112	0.812451
	N256	N	0.178539	0.921436	0.453941
	N257	N	0.178707	0.092467	0.528573
	N258	N	0.820340	0.093772	0.454335
	N259	N	0.821684	0.922664	0.528892
	N260	N	0.462190	0.183073	0.907130
	N261	N	0.537821	0.183669	0.075992
	N262	N	0.462400	0.830676	0.075092
	N263	N	0.537336	0.828199	0.905783
	N264	N	0.463699	0.919988	0.170420
	N265	N	0.536813	0.093313	0.171046
	N266	N	0.462558	0.091829	0.812587
	N267	N	0.536609	0.919667	0.811594
	N268	N	0.914270	0.186219	0.453578
	N269	N	0.085462	0.185989	0.528555
	N270	N	0.085234	0.827823	0.453941
	N271	N	0.914526	0.828747	0.528557
	N272	N	0.176839	0.469079	0.906564
	N273	N	0.177021	0.544462	0.075978
	N274	N	0.823286	0.468271	0.074612
	N275	N	0.821764	0.543489	0.905166
	O276	O	0.513568	-0.491337	1.486226
	H277	H	0.508680	-0.488608	1.475886
	H278	H	0.509078	-0.492511	1.477909
	O279	O	0.556363	0.495740	0.470475
	H280	H	0.559796	0.489975	0.470613
	H281	H	0.543247	0.495185	0.476164
	O282	O	-0.466669	0.533785	1.507504
	H283	H	-0.468669	0.542901	1.503983
	H284	H	-0.461228	0.543138	1.513174
	O285	O	0.547119	0.524522	0.520721
	H286	H	0.543571	0.529332	0.527813
	H287	H	0.551546	0.522851	0.528472
	O288	O	0.526626	0.504524	0.476551
	H289	H	0.529580	0.504266	0.469206
	H290	H	0.534135	0.498791	0.479589
	O291	O	0.402267	0.685449	0.659472
	H292	H	0.405248	0.681584	0.661399
	H293	H	0.406996	0.690243	0.669444
	O294	O	0.533000	0.567187	0.527949
	H295	H	0.527916	0.569467	0.529847
	H296	H	0.530197	0.565183	0.524028
	O297	O	1.060616	-0.021650	0.007790
	H298	H	1.059837	-0.020174	0.010803
	H299	H	1.066094	-0.020474	0.008652
