data_Molecule from HDF5

_cell_length_a		16.213553
_cell_length_b		16.223838
_cell_length_c		16.368895
_cell_angle_alpha	90.038424
_cell_angle_beta	89.848693
_cell_angle_gamma	90.106583
_symmetry_space_group_name_H-M	'P 1'
_symmetry_Int_Tables_number		1

loop_
	_symmetry_equiv_pos_as_xyz
	x,y,z

loop_
	_atom_site_label
	_atom_site_type_symbol
	_atom_site_fract_x
	_atom_site_fract_y
	_atom_site_fract_z
	H0	H	0.399157	0.840518	0.714279
	H1	H	0.601376	0.167379	0.715141
	H2	H	0.600881	0.841157	0.282420
	H3	H	0.398694	0.168095	0.284356
	H4	H	0.715278	0.406258	0.836325
	H5	H	0.713412	0.604059	0.161887
	H6	H	0.285056	0.602594	0.835692
	H7	H	0.284233	0.406962	0.162297
	H8	H	0.835694	0.716669	0.401609
	H9	H	0.163991	0.718309	0.598653
	H10	H	0.834711	0.289409	0.596940
	H11	H	0.164272	0.290921	0.401552
	H12	H	0.835655	0.402013	0.715570
	H13	H	0.163391	0.603671	0.714074
	H14	H	0.835600	0.602790	0.284838
	H15	H	0.163271	0.403889	0.282945
	H16	H	0.400783	0.719375	0.835829
	H17	H	0.598754	0.721717	0.160813
	H18	H	0.597652	0.290384	0.836103
	H19	H	0.399455	0.289574	0.162677
	H20	H	0.712858	0.839939	0.401078
	H21	H	0.713879	0.168599	0.596057
	H22	H	0.286041	0.839918	0.598095
	H23	H	0.286620	0.168374	0.403611
	H24	H	0.898871	0.340466	0.214080
	H25	H	0.099924	0.667421	0.214596
	H26	H	0.098122	0.339888	0.784191
	H27	H	0.899196	0.668008	0.783183
	H28	H	0.215502	0.905379	0.336708
	H29	H	0.213108	0.101686	0.663298
	H30	H	0.785915	0.102971	0.335948
	H31	H	0.784024	0.904863	0.662145
	H32	H	0.334774	0.217361	0.902237
	H33	H	0.663741	0.218691	0.095930
	H34	H	0.334534	0.791255	0.097203
	H35	H	0.663651	0.791469	0.901085
	H36	H	0.336200	0.905156	0.216325
	H37	H	0.663293	0.105332	0.213297
	H38	H	0.335458	0.103717	0.784397
	H39	H	0.662809	0.903354	0.782904
	H40	H	0.902329	0.217727	0.336154
	H41	H	0.098186	0.219668	0.662558
	H42	H	0.099102	0.788585	0.336589
	H43	H	0.901331	0.788151	0.662094
	H44	H	0.213483	0.339688	0.900556
	H45	H	0.212114	0.668811	0.095550
	H46	H	0.784742	0.339828	0.096729
	H47	H	0.788353	0.669562	0.903315
	H48	H	0.406648	0.122275	0.594191
	H49	H	0.593092	0.888615	0.588727
	H50	H	0.594524	0.123671	0.401402
	H51	H	0.409866	0.890348	0.414291
	H52	H	0.598333	0.407306	0.117688
	H53	H	0.597864	0.601017	0.880877
	H54	H	0.394669	0.598474	0.117895
	H55	H	0.407165	0.411165	0.884190
	H56	H	0.118670	0.597688	0.401320
	H57	H	0.882417	0.594309	0.594695
	H58	H	0.113177	0.415589	0.585578
	H59	H	0.882128	0.407131	0.408025
	H60	H	0.116492	0.416165	0.598101
	H61	H	0.883357	0.598027	0.589854
	H62	H	0.116226	0.598081	0.409764
	H63	H	0.883687	0.413840	0.406449
	H64	H	0.411106	0.587255	0.110235
	H65	H	0.594286	0.593913	0.883904
	H66	H	0.593277	0.419347	0.112773
	H67	H	0.407506	0.410401	0.883418
	H68	H	0.587865	0.119429	0.406642
	H69	H	0.593471	0.885965	0.594841
	H70	H	0.409048	0.120912	0.593472
	H71	H	0.401694	0.885326	0.404210
	H72	H	0.905881	0.623700	0.100310
	H73	H	0.090935	0.387798	0.086698
	H74	H	0.087630	0.615836	0.918120
	H75	H	0.907499	0.387325	0.904404
	H76	H	0.085478	0.911042	0.613383
	H77	H	0.089557	0.090393	0.387296
	H78	H	0.904470	0.095475	0.615267
	H79	H	0.903279	0.902729	0.379704
	H80	H	0.618638	0.102746	0.903008
	H81	H	0.386022	0.090615	0.087092
	H82	H	0.616558	0.910361	0.091579
	H83	H	0.381102	0.910628	0.905130
	H84	H	0.614336	0.914740	0.088332
	H85	H	0.379884	0.093468	0.102772
	H86	H	0.614626	0.097592	0.911801
	H87	H	0.382504	0.911919	0.907888
	H88	H	0.908428	0.096139	0.613605
	H89	H	0.090328	0.105934	0.382459
	H90	H	0.095124	0.902790	0.618322
	H91	H	0.902479	0.917709	0.384542
	H92	H	0.105099	0.624916	0.903399
	H93	H	0.097746	0.384964	0.092896
	H94	H	0.913180	0.618767	0.091338
	H95	H	0.909441	0.389154	0.907122
	H96	H	0.407151	0.121260	0.591447
	H97	H	0.587408	0.888178	0.592639
	H98	H	0.596083	0.121057	0.410219
	H99	H	0.415593	0.888394	0.401649
	H100	H	0.585269	0.407776	0.114618
	H101	H	0.589924	0.600292	0.882644
	H102	H	0.413777	0.607288	0.115163
	H103	H	0.406896	0.410449	0.883038
	H104	H	0.115534	0.590706	0.405797
	H105	H	0.884589	0.591880	0.589377
	H106	H	0.118695	0.405008	0.592048
	H107	H	0.880775	0.409822	0.400750
	H108	H	0.901433	0.621614	0.088855
	H109	H	0.088099	0.386583	0.095822
	H110	H	0.082448	0.621059	0.894951
	H111	H	0.906027	0.387718	0.907539
	H112	H	0.097713	0.915935	0.614953
	H113	H	0.103285	0.096460	0.381697
	H114	H	0.906733	0.098907	0.615916
	H115	H	0.915737	0.909916	0.386652
	H116	H	0.616301	0.092011	0.902376
	H117	H	0.380266	0.106220	0.091449
	H118	H	0.616776	0.915586	0.093538
	H119	H	0.382273	0.913455	0.904781
	C120	C	0.378452	0.012924	0.621390
	C121	C	0.620942	0.995704	0.620578
	C122	C	0.621794	0.012964	0.377192
	C123	C	0.379174	0.996181	0.378482
	C124	C	0.621148	0.382889	0.007455
	C125	C	0.621855	0.627248	0.990317
	C126	C	0.377800	0.626327	0.006867
	C127	C	0.377533	0.382252	0.991084
	C128	C	0.008206	0.624555	0.377387
	C129	C	0.991639	0.624602	0.620586
	C130	C	0.007648	0.382722	0.620703
	C131	C	0.991085	0.382005	0.376870
	C132	C	0.877465	0.512790	0.121372
	C133	C	0.120587	0.495491	0.119974
	C134	C	0.120809	0.512578	0.876973
	C135	C	0.878553	0.496124	0.877773
	C136	C	0.121934	0.881503	0.507913
	C137	C	0.122302	0.126415	0.491553
	C138	C	0.878149	0.125446	0.507232
	C139	C	0.877774	0.881352	0.491073
	C140	C	0.507787	0.125711	0.877856
	C141	C	0.490658	0.126014	0.121194
	C142	C	0.507888	0.883779	0.120828
	C143	C	0.490491	0.883186	0.877147
	C144	C	0.379537	0.889552	0.676545
	C145	C	0.620301	0.118895	0.676157
	C146	C	0.620548	0.890052	0.320789
	C147	C	0.379925	0.119360	0.323227
	C148	C	0.676720	0.385617	0.884938
	C149	C	0.675939	0.624419	0.112951
	C150	C	0.322301	0.623649	0.884555
	C151	C	0.322057	0.385836	0.113672
	C152	C	0.885004	0.679787	0.380449
	C153	C	0.114940	0.680318	0.618270
	C154	C	0.883786	0.327362	0.617752
	C155	C	0.114944	0.327778	0.380516
	C156	C	0.884406	0.383222	0.676757
	C157	C	0.114688	0.623490	0.676127
	C158	C	0.884957	0.622919	0.322520
	C159	C	0.114522	0.383808	0.321536
	C160	C	0.380029	0.681678	0.884557
	C161	C	0.618561	0.682756	0.112641
	C162	C	0.618397	0.327973	0.884838
	C163	C	0.379484	0.327531	0.113845
	C164	C	0.676004	0.889267	0.380175
	C165	C	0.676104	0.119433	0.616936
	C166	C	0.323596	0.888963	0.618443
	C167	C	0.323920	0.119516	0.382269
	C168	C	0.878949	0.389340	0.176048
	C169	C	0.119106	0.618779	0.175757
	C170	C	0.118770	0.388808	0.822020
	C171	C	0.879714	0.619159	0.821641
	C172	C	0.177382	0.884547	0.385255
	C173	C	0.176024	0.122873	0.614492
	C174	C	0.823447	0.122955	0.384724
	C175	C	0.821970	0.883916	0.613468
	C176	C	0.383922	0.180130	0.881143
	C177	C	0.614574	0.181140	0.117019
	C178	C	0.383949	0.828664	0.118158
	C179	C	0.614535	0.828479	0.880250
	C180	C	0.384780	0.885178	0.177307
	C181	C	0.614315	0.125203	0.175645
	C182	C	0.384503	0.123717	0.822479
	C183	C	0.613915	0.884289	0.821604
	C184	C	0.881503	0.180067	0.384755
	C185	C	0.118895	0.181608	0.614033
	C186	C	0.120022	0.826294	0.385275
	C187	C	0.880192	0.825899	0.613501
	C188	C	0.175946	0.388660	0.879840
	C189	C	0.174726	0.619731	0.116357
	C190	C	0.822204	0.389074	0.117949
	C191	C	0.824333	0.619998	0.881144
	C192	C	0.400995	0.099154	0.599586
	C193	C	0.598050	0.909729	0.598611
	C194	C	0.599424	0.099153	0.399678
	C195	C	0.402183	0.910216	0.400414
	C196	C	0.598836	0.404984	0.093024
	C197	C	0.600342	0.605029	0.904579
	C198	C	0.399991	0.604235	0.092522
	C199	C	0.400384	0.404175	0.905537
	C200	C	0.094636	0.602062	0.399100
	C201	C	0.905657	0.601513	0.598056
	C202	C	0.093770	0.405480	0.598422
	C203	C	0.904665	0.403880	0.398729
	C204	C	0.900167	0.599032	0.099921
	C205	C	0.098623	0.409063	0.098283
	C206	C	0.098345	0.598244	0.898860
	C207	C	0.901037	0.410133	0.899932
	C208	C	0.099547	0.903489	0.593270
	C209	C	0.100821	0.104184	0.405892
	C210	C	0.900013	0.103322	0.592808
	C211	C	0.900523	0.903627	0.405702
	C212	C	0.594208	0.103859	0.899411
	C213	C	0.404474	0.103465	0.100069
	C214	C	0.593733	0.906598	0.097757
	C215	C	0.404403	0.905365	0.899454
	Zn216	Zn	0.499565	0.004137	0.749139
	Zn217	Zn	0.500449	0.005183	0.249599
	Zn218	Zn	0.750267	0.504698	-0.000839
	Zn219	Zn	0.248851	0.504207	-0.001332
	Zn220	Zn	0.000293	0.752668	0.499246
	Zn221	Zn	-0.000622	0.254679	0.499312
	Zn222	Zn	-0.000487	0.503815	0.748943
	Zn223	Zn	-0.000426	0.503504	0.248730
	Zn224	Zn	0.499308	0.755456	-0.001708
	Zn225	Zn	0.498875	0.253723	-0.000452
	Zn226	Zn	0.749432	0.004098	0.498695
	Zn227	Zn	0.251249	0.004040	0.500411
	N228	N	0.413153	0.967463	0.678333
	N229	N	0.586585	0.041032	0.678452
	N230	N	0.587373	0.968089	0.319149
	N231	N	0.413609	0.041651	0.320851
	N232	N	0.678522	0.418956	0.962175
	N233	N	0.677925	0.590492	0.035960
	N234	N	0.321115	0.589808	0.961670
	N235	N	0.320904	0.418998	0.036293
	N236	N	0.962707	0.680751	0.414041
	N237	N	0.037403	0.681016	0.584462
	N238	N	0.961308	0.326827	0.583704
	N239	N	0.037074	0.326699	0.414406
	N240	N	0.962445	0.416877	0.678717
	N241	N	0.037030	0.589243	0.677384
	N242	N	0.962697	0.589244	0.320582
	N243	N	0.036503	0.416496	0.318997
	N244	N	0.413957	0.683266	0.961461
	N245	N	0.585724	0.684653	0.035142
	N246	N	0.584630	0.326270	0.961975
	N247	N	0.413241	0.325313	0.036651
	N248	N	0.677063	0.966711	0.414255
	N249	N	0.676601	0.041806	0.583011
	N250	N	0.322798	0.966667	0.584748
	N251	N	0.323404	0.041863	0.415947
	N252	N	0.912627	0.467120	0.178053
	N253	N	0.086172	0.540242	0.178029
	N254	N	0.085244	0.466517	0.820114
	N255	N	0.912618	0.541039	0.819228
	N256	N	0.178964	0.918152	0.462565
	N257	N	0.178205	0.089213	0.537363
	N258	N	0.821255	0.089760	0.462108
	N259	N	0.820339	0.917624	0.536339
	N260	N	0.461497	0.181587	0.914821
	N261	N	0.536650	0.181896	0.083792
	N262	N	0.461649	0.827483	0.083929
	N263	N	0.536701	0.827652	0.914164
	N264	N	0.462646	0.918743	0.178835
	N265	N	0.536335	0.091727	0.178447
	N266	N	0.462756	0.090767	0.820094
	N267	N	0.536067	0.917502	0.819623
	N268	N	0.914733	0.181894	0.461914
	N269	N	0.086244	0.183876	0.536524
	N270	N	0.086425	0.824256	0.462352
	N271	N	0.914066	0.824219	0.536406
	N272	N	0.177519	0.466482	0.913230
	N273	N	0.175979	0.542210	0.082738
	N274	N	0.821226	0.466865	0.084510
	N275	N	0.823629	0.542684	0.915388
	O276	O	0.497326	0.458535	0.502905
	H277	H	0.497909	0.443707	0.497696
	H278	H	0.484564	0.454100	0.503253
	O279	O	0.550120	0.536845	0.563205
	H280	H	0.557842	0.535083	0.568685
	H281	H	0.547992	0.550663	0.565161
	O282	O	0.504456	0.493985	0.448499
	H283	H	0.511663	0.488715	0.440176
	H284	H	0.504516	0.503523	0.450808
	O285	O	-0.044372	1.026752	1.059062
	H286	H	-0.045375	1.025895	1.064755
	H287	H	-0.051534	1.025193	1.062541
	O288	O	-0.012190	0.079160	1.027467
	H289	H	-0.009348	0.072894	1.028323
	H290	H	-0.011372	0.078588	1.026957
	O291	O	-0.235535	0.331737	0.766523
	H292	H	-0.235801	0.331704	0.762367
	H293	H	-0.234960	0.334912	0.772170
	O294	O	0.456725	0.481209	0.496395
	H295	H	0.459183	0.476669	0.493488
	H296	H	0.462691	0.483771	0.495443
	O297	O	0.502526	0.486407	0.451685
	H298	H	0.506488	0.479890	0.450027
	H299	H	0.503229	0.487162	0.462164
	O300	O	0.505550	0.491857	0.509580
	H301	H	0.502683	0.494054	0.507270
	H302	H	0.502078	0.491117	0.499317
	O303	O	0.475335	0.489572	0.477627
	H304	H	0.467269	0.483680	0.478248
	H305	H	0.476171	0.474362	0.477509
	O306	O	0.971773	0.042949	1.003356
	H307	H	0.971002	0.045400	1.002698
	H308	H	0.973701	0.037603	1.003221
	O309	O	0.478906	0.492762	0.499090
	H310	H	0.478563	0.494622	0.491993
	H311	H	0.477551	0.499676	0.497712
	O312	O	0.449260	0.503981	0.546228
	H313	H	0.449666	0.502572	0.551809
	H314	H	0.447083	0.508227	0.550541
	O315	O	0.958273	0.056387	1.019383
	H316	H	0.955859	0.061010	1.014048
	H317	H	0.959006	0.063393	1.018884
	O318	O	0.564323	-0.447315	-0.500809
	H319	H	0.565168	-0.434649	-0.491754
	H320	H	0.566612	-0.440960	-0.504553
	O321	O	0.531309	0.474816	0.461502
	H322	H	0.543152	0.477597	0.466354
	H323	H	0.538459	0.483313	0.460067
	O324	O	0.976798	0.047418	0.069834
	H325	H	0.970148	0.048990	0.070297
	H326	H	0.978173	0.051818	0.060847
	O327	O	0.978443	1.066865	0.012741
	H328	H	0.980032	1.072245	0.018651
	H329	H	0.982821	1.071738	0.019410
	O330	O	0.483094	0.554125	0.489253
	H331	H	0.477858	0.555873	0.486512
	H332	H	0.486384	0.543381	0.492477
	O333	O	0.518879	0.569665	0.478408
	H334	H	0.511976	0.576385	0.486789
	H335	H	0.516126	0.573231	0.460371
