data_Molecule from HDF5

_cell_length_a		16.365350
_cell_length_b		16.370351
_cell_length_c		16.305531
_cell_angle_alpha	89.985849
_cell_angle_beta	90.394969
_cell_angle_gamma	89.755248
_symmetry_space_group_name_H-M	'P 1'
_symmetry_Int_Tables_number		1

loop_
	_symmetry_equiv_pos_as_xyz
	x,y,z

loop_
	_atom_site_label
	_atom_site_type_symbol
	_atom_site_fract_x
	_atom_site_fract_y
	_atom_site_fract_z
	H0	H	0.407973	0.819898	0.704391
	H1	H	0.609620	0.142595	0.710645
	H2	H	0.606055	0.820272	0.274737
	H3	H	0.400264	0.143649	0.268815
	H4	H	0.723011	0.379169	0.827011
	H5	H	0.724927	0.585167	0.150082
	H6	H	0.286484	0.584123	0.827111
	H7	H	0.290109	0.379431	0.151040
	H8	H	0.844877	0.702053	0.385588
	H9	H	0.166295	0.698186	0.593280
	H10	H	0.845763	0.262373	0.595428
	H11	H	0.165162	0.262520	0.387592
	H12	H	0.844569	0.379304	0.707982
	H13	H	0.164927	0.585766	0.710948
	H14	H	0.844948	0.585305	0.270107
	H15	H	0.167029	0.380244	0.274230
	H16	H	0.405464	0.697555	0.826243
	H17	H	0.609074	0.699309	0.150335
	H18	H	0.608303	0.262470	0.827428
	H19	H	0.404301	0.262968	0.149574
	H20	H	0.723452	0.821732	0.389457
	H21	H	0.724613	0.142934	0.594990
	H22	H	0.289304	0.821472	0.590742
	H23	H	0.283983	0.143959	0.384774
	H24	H	0.904179	0.320685	0.206703
	H25	H	0.105430	0.642758	0.206392
	H26	H	0.109075	0.322839	0.767806
	H27	H	0.899819	0.642825	0.769729
	H28	H	0.221503	0.881769	0.328362
	H29	H	0.226143	0.085946	0.650779
	H30	H	0.783869	0.086890	0.329841
	H31	H	0.787109	0.877930	0.650917
	H32	H	0.345246	0.202651	0.881518
	H33	H	0.665890	0.201303	0.094158
	H34	H	0.346488	0.762742	0.090397
	H35	H	0.666897	0.761607	0.886900
	H36	H	0.345184	0.881364	0.205063
	H37	H	0.665420	0.086001	0.211113
	H38	H	0.344793	0.083125	0.769465
	H39	H	0.667385	0.878066	0.771889
	H40	H	0.897975	0.204025	0.330002
	H41	H	0.111097	0.202812	0.650799
	H42	H	0.106295	0.764354	0.328755
	H43	H	0.903370	0.763379	0.651712
	H44	H	0.225761	0.322013	0.883574
	H45	H	0.222941	0.642003	0.091731
	H46	H	0.785380	0.321837	0.094195
	H47	H	0.784053	0.641922	0.885366
	H48	H	0.416233	0.098400	0.586718
	H49	H	0.592582	0.872519	0.570461
	H50	H	0.597095	0.097078	0.401764
	H51	H	0.412707	0.869919	0.400668
	H52	H	0.600847	0.396572	0.102845
	H53	H	0.592508	0.576473	0.872940
	H54	H	0.416539	0.573548	0.103724
	H55	H	0.417354	0.393836	0.874902
	H56	H	0.121338	0.570650	0.394717
	H57	H	0.891847	0.571445	0.576487
	H58	H	0.119845	0.391583	0.582775
	H59	H	0.892701	0.394206	0.402312
	H60	H	0.117982	0.391452	0.575505
	H61	H	0.889454	0.572584	0.581847
	H62	H	0.121824	0.578370	0.398299
	H63	H	0.890481	0.396273	0.395398
	H64	H	0.414316	0.573180	0.104190
	H65	H	0.599892	0.571842	0.872221
	H66	H	0.589151	0.394021	0.100111
	H67	H	0.414820	0.389770	0.873431
	H68	H	0.595175	0.098127	0.396198
	H69	H	0.608149	0.864713	0.579929
	H70	H	0.421955	0.093509	0.575713
	H71	H	0.410523	0.866866	0.395130
	H72	H	0.910501	0.595652	0.073938
	H73	H	0.093128	0.368379	0.081510
	H74	H	0.095191	0.594807	0.902874
	H75	H	0.920675	0.369190	0.894633
	H76	H	0.101491	0.893471	0.605524
	H77	H	0.101286	0.078504	0.371312
	H78	H	0.927001	0.072641	0.600905
	H79	H	0.914434	0.885036	0.373986
	H80	H	0.615226	0.067776	0.907363
	H81	H	0.392105	0.070987	0.079717
	H82	H	0.618239	0.894498	0.077719
	H83	H	0.391768	0.895660	0.894219
	H84	H	0.622211	0.891970	0.086884
	H85	H	0.390724	0.075528	0.078113
	H86	H	0.621297	0.067632	0.892660
	H87	H	0.389939	0.885744	0.895756
	H88	H	0.912999	0.081301	0.608795
	H89	H	0.094948	0.062021	0.379654
	H90	H	0.095495	0.890064	0.605308
	H91	H	0.908450	0.896564	0.375337
	H92	H	0.096583	0.596508	0.899737
	H93	H	0.101907	0.366737	0.077547
	H94	H	0.912367	0.598374	0.084665
	H95	H	0.917012	0.371346	0.906463
	H96	H	0.409666	0.098115	0.575386
	H97	H	0.590594	0.867414	0.589330
	H98	H	0.591519	0.096285	0.399976
	H99	H	0.416490	0.869053	0.395822
	H100	H	0.596276	0.385379	0.104900
	H101	H	0.592556	0.568751	0.876270
	H102	H	0.415540	0.571527	0.103036
	H103	H	0.412290	0.394300	0.873960
	H104	H	0.118584	0.572491	0.402386
	H105	H	0.889743	0.576372	0.577478
	H106	H	0.117535	0.397913	0.579384
	H107	H	0.888854	0.388650	0.397729
	H108	H	0.919927	0.593237	0.078756
	H109	H	0.100500	0.363829	0.086966
	H110	H	0.092075	0.595469	0.900470
	H111	H	0.908970	0.365142	0.897563
	H112	H	0.101266	0.886435	0.607094
	H113	H	0.083289	0.077158	0.378327
	H114	H	0.910858	0.064336	0.603123
	H115	H	0.920718	0.895256	0.378409
	H116	H	0.621871	0.080440	0.901726
	H117	H	0.392601	0.072110	0.074556
	H118	H	0.621945	0.885299	0.079488
	H119	H	0.393861	0.891668	0.903476
	C120	C	0.386121	-0.009632	0.609444
	C121	C	0.628083	0.973875	0.612163
	C122	C	0.625591	-0.009207	0.369405
	C123	C	0.382028	0.974766	0.366211
	C124	C	0.626387	0.360845	-0.003546
	C125	C	0.626834	0.603030	0.980438
	C126	C	0.383971	0.603821	-0.002796
	C127	C	0.384480	0.360750	0.980431
	C128	C	0.014179	0.604557	0.367490
	C129	C	0.996172	0.604000	0.611085
	C130	C	0.013077	0.361947	0.610887
	C131	C	0.996801	0.361429	0.368323
	C132	C	0.883667	0.489857	0.110547
	C133	C	0.127731	0.472653	0.111821
	C134	C	0.125910	0.490153	0.868756
	C135	C	0.883367	0.474187	0.867583
	C136	C	0.128013	0.860348	0.498848
	C137	C	0.125939	0.104009	0.482255
	C138	C	0.884016	0.104601	0.498231
	C139	C	0.884296	0.861039	0.482229
	C140	C	0.513516	0.103303	0.867611
	C141	C	0.497482	0.103889	0.110168
	C142	C	0.514832	0.860236	0.110939
	C143	C	0.498197	0.860231	0.867826
	C144	C	0.387449	0.868556	0.666370
	C145	C	0.628657	0.094383	0.671432
	C146	C	0.625393	0.869130	0.312813
	C147	C	0.381108	0.095440	0.307850
	C148	C	0.684367	0.360073	0.875446
	C149	C	0.685696	0.603830	0.101643
	C150	C	0.325487	0.603630	0.875874
	C151	C	0.328181	0.360420	0.102237
	C152	C	0.892849	0.662535	0.366844
	C153	C	0.117677	0.660341	0.612244
	C154	C	0.893412	0.302194	0.613061
	C155	C	0.117501	0.302462	0.368542
	C156	C	0.892736	0.360643	0.669232
	C157	C	0.117051	0.603835	0.670618
	C158	C	0.893089	0.604713	0.309105
	C159	C	0.118249	0.360914	0.311953
	C160	C	0.384653	0.660172	0.875100
	C161	C	0.627860	0.660828	0.101891
	C162	C	0.626792	0.302346	0.875366
	C163	C	0.385042	0.302275	0.101560
	C164	C	0.683887	0.869741	0.369925
	C165	C	0.685944	0.094779	0.613543
	C166	C	0.328815	0.869227	0.609281
	C167	C	0.323202	0.095650	0.365525
	C168	C	0.884191	0.369209	0.168463
	C169	C	0.126044	0.594266	0.168156
	C170	C	0.127592	0.370331	0.808135
	C171	C	0.881354	0.594523	0.808765
	C172	C	0.183601	0.861611	0.376748
	C173	C	0.186634	0.105392	0.602734
	C174	C	0.823805	0.105623	0.377842
	C175	C	0.826232	0.859946	0.603016
	C176	C	0.393150	0.162552	0.864407
	C177	C	0.617790	0.162116	0.112359
	C178	C	0.394134	0.802267	0.110317
	C179	C	0.618873	0.801308	0.867877
	C180	C	0.393383	0.861218	0.166945
	C181	C	0.617679	0.104585	0.170656
	C182	C	0.392963	0.103463	0.808249
	C183	C	0.619306	0.859602	0.810928
	C184	C	0.880609	0.164224	0.378049
	C185	C	0.128666	0.163035	0.602887
	C186	C	0.126465	0.803314	0.377133
	C187	C	0.884205	0.802639	0.603165
	C188	C	0.185770	0.369870	0.865775
	C189	C	0.184660	0.593729	0.111458
	C190	C	0.825115	0.369662	0.112164
	C191	C	0.823862	0.594357	0.866731
	C192	C	0.409219	0.074572	0.586005
	C193	C	0.604102	0.889889	0.587227
	C194	C	0.601569	0.075274	0.392640
	C195	C	0.406254	0.890582	0.390236
	C196	C	0.602534	0.385037	0.080679
	C197	C	0.602084	0.579262	0.895946
	C198	C	0.408538	0.579792	0.081847
	C199	C	0.407905	0.385265	0.896198
	C200	C	0.098567	0.580670	0.391669
	C201	C	0.912184	0.580355	0.585953
	C202	C	0.096708	0.386520	0.586326
	C203	C	0.912596	0.385840	0.391663
	C204	C	0.907333	0.574074	0.086093
	C205	C	0.105024	0.388229	0.088889
	C206	C	0.101690	0.573759	0.893966
	C207	C	0.908397	0.390351	0.892253
	C208	C	0.105868	0.883368	0.583845
	C209	C	0.100473	0.079573	0.398198
	C210	C	0.909744	0.079901	0.582348
	C211	C	0.907826	0.885226	0.397809
	C212	C	0.597595	0.079027	0.893245
	C213	C	0.413433	0.079835	0.084751
	C214	C	0.599005	0.883906	0.087943
	C215	C	0.413612	0.884253	0.891144
	Zn216	Zn	0.506503	-0.018604	0.739609
	Zn217	Zn	0.505123	-0.017519	0.239077
	Zn218	Zn	0.755301	0.481340	-0.011178
	Zn219	Zn	0.255895	0.481423	-0.010622
	Zn220	Zn	0.005450	0.732377	0.490259
	Zn221	Zn	0.004894	0.233722	0.490338
	Zn222	Zn	0.004516	0.482650	0.739164
	Zn223	Zn	0.005472	0.481697	0.239614
	Zn224	Zn	0.506335	0.731866	-0.011285
	Zn225	Zn	0.505561	0.232614	-0.012027
	Zn226	Zn	0.755776	-0.017096	0.490822
	Zn227	Zn	0.255419	-0.016752	0.489801
	N228	N	0.422256	0.944767	0.666659
	N229	N	0.593806	0.018199	0.670873
	N230	N	0.589877	0.945394	0.312283
	N231	N	0.416806	0.019234	0.307955
	N232	N	0.684208	0.395710	0.951857
	N233	N	0.685000	0.568307	0.025303
	N234	N	0.324968	0.569341	0.952826
	N235	N	0.327784	0.396119	0.025890
	N236	N	0.969183	0.662608	0.402333
	N237	N	0.041588	0.660613	0.575972
	N238	N	0.969394	0.302928	0.577520
	N239	N	0.040997	0.302780	0.403062
	N240	N	0.968123	0.397154	0.667940
	N241	N	0.040413	0.569725	0.670239
	N242	N	0.969426	0.569297	0.309357
	N243	N	0.042214	0.396739	0.311731
	N244	N	0.420222	0.660502	0.951797
	N245	N	0.592127	0.660698	0.025335
	N246	N	0.591816	0.302470	0.951604
	N247	N	0.419250	0.302374	0.024814
	N248	N	0.684252	0.946438	0.404457
	N249	N	0.685805	0.018761	0.577431
	N250	N	0.327774	0.945856	0.574712
	N251	N	0.323568	0.019569	0.401110
	N252	N	0.919800	0.445078	0.167738
	N253	N	0.091500	0.517974	0.168787
	N254	N	0.090873	0.445842	0.810037
	N255	N	0.917646	0.518816	0.809480
	N256	N	0.184670	0.896286	0.453440
	N257	N	0.184691	0.069259	0.526770
	N258	N	0.825788	0.069132	0.453770
	N259	N	0.825993	0.895631	0.526612
	N260	N	0.469243	0.162482	0.900593
	N261	N	0.541992	0.161673	0.075517
	N262	N	0.470674	0.801323	0.076347
	N263	N	0.542625	0.801682	0.902667
	N264	N	0.469458	0.896400	0.167570
	N265	N	0.541685	0.069138	0.169412
	N266	N	0.468853	0.067312	0.810041
	N267	N	0.543190	0.895520	0.811000
	N268	N	0.917447	0.163417	0.453942
	N269	N	0.091434	0.162201	0.527067
	N270	N	0.092564	0.802254	0.453958
	N271	N	0.919529	0.803231	0.527054
	N272	N	0.184824	0.445289	0.902956
	N273	N	0.186006	0.517133	0.077331
	N274	N	0.824619	0.446007	0.077067
	N275	N	0.824931	0.518418	0.902546
	O276	O	0.387322	0.490733	0.552682
	H277	H	0.398944	0.490169	0.561781
	H278	H	0.385100	0.502075	0.551412
	O279	O	0.441209	0.649101	0.429423
	H280	H	0.437025	0.650268	0.442964
	H281	H	0.419106	0.654236	0.428229
	O282	O	1.000323	0.089718	0.790837
	H283	H	0.996516	0.078061	0.780851
	H284	H	1.001577	0.085357	0.795872
	O285	O	0.616059	0.373032	0.544812
	H286	H	0.615520	0.372623	0.540453
	H287	H	0.631315	0.367821	0.542249
	O288	O	0.556220	1.557123	1.411685
	H289	H	0.566426	1.570410	1.399217
	H290	H	0.539637	1.566259	1.417164
	O291	O	0.015815	0.993182	-0.016475
	H292	H	0.017786	1.006526	-0.022138
	H293	H	0.000844	1.004573	0.002761
	O294	O	0.508506	0.420802	0.507063
	H295	H	0.520033	0.420370	0.506007
	H296	H	0.515948	0.414082	0.513170
	O297	O	0.634060	0.530963	0.567949
	H298	H	0.628395	0.538391	0.566544
	H299	H	0.619208	0.531431	0.576729
	O300	O	0.605848	0.443916	0.604351
	H301	H	0.617384	0.453289	0.604404
	H302	H	0.607284	0.440233	0.615556
	O303	O	0.338967	0.705284	0.640030
	H304	H	0.324981	0.698057	0.640992
	H305	H	0.341896	0.715794	0.632954
	O306	O	0.595771	0.480220	0.309323
	H307	H	0.593595	0.475997	0.310814
	H308	H	0.579447	0.498363	0.304091
	O309	O	0.872706	1.135040	-0.033455
	H310	H	0.889206	1.134188	-0.024290
	H311	H	0.878252	1.108763	-0.035749
	O312	O	0.027934	-0.199490	-0.078255
	H313	H	0.034749	-0.187439	-0.092045
	H314	H	0.036750	-0.222495	-0.075387
	O315	O	0.382227	0.434293	0.536199
	H316	H	0.381723	0.441131	0.531680
	H317	H	0.387790	0.425377	0.529487
	O318	O	0.144295	0.871393	0.927625
	H319	H	0.153090	0.872556	0.926985
	H320	H	0.146183	0.875108	0.933325
	O321	O	0.388887	0.516463	0.322269
	H322	H	0.380095	0.512691	0.323451
	H323	H	0.398104	0.525493	0.323016
	O324	O	-0.042709	0.885819	0.187837
	H325	H	-0.050919	0.877192	0.199181
	H326	H	-0.046062	0.876743	0.181989
	O327	O	0.511682	0.395802	0.569214
	H328	H	0.517334	0.396399	0.570081
	H329	H	0.513810	0.383691	0.559930
	O330	O	0.112670	-0.082807	0.956543
	H331	H	0.113817	-0.057142	0.957371
	H332	H	0.120431	-0.095938	0.946312
	O333	O	-0.479837	-0.365227	1.496410
	H334	H	-0.498314	-0.359408	1.485681
	H335	H	-0.501635	-0.367643	1.500376
	O336	O	0.044936	1.172601	1.060818
	H337	H	0.027098	1.164748	1.060856
	H338	H	0.020731	1.163022	1.067299
	O339	O	0.855596	0.126093	0.076316
	H340	H	0.840012	0.123274	0.076623
	H341	H	0.857690	0.124204	0.075981
	O342	O	-0.014253	-0.120124	-0.146175
	H343	H	-0.020138	-0.124869	-0.138397
	H344	H	-0.015783	-0.107893	-0.140278
	O345	O	0.881867	-0.097050	1.005786
	H346	H	0.874155	-0.099832	1.005039
	H347	H	0.874538	-0.107566	0.992970
	O348	O	0.569936	1.536487	0.543186
	H349	H	0.569694	1.531420	0.537473
	H350	H	0.563768	1.522982	0.539996
	O351	O	0.426365	0.419996	0.324473
	H352	H	0.434069	0.422196	0.322188
	H353	H	0.426693	0.408437	0.329978
	O354	O	0.950575	0.070975	1.027275
	H355	H	0.942884	0.066781	1.031362
	H356	H	0.955171	0.079094	1.022289
	O357	O	0.420047	0.512705	0.520936
	H358	H	0.428425	0.509766	0.520267
	H359	H	0.416661	0.515549	0.530604
	O360	O	0.674220	0.463544	0.510433
	H361	H	0.681025	0.464874	0.506315
	H362	H	0.682402	0.461396	0.489921
	O363	O	-0.029696	0.835495	1.161740
	H364	H	-0.030804	0.830863	1.169307
	H365	H	-0.041888	0.820177	1.141359
	O366	O	0.435063	0.385181	0.584282
	H367	H	0.428954	0.389617	0.594944
	H368	H	0.437739	0.389482	0.580884
	O369	O	-0.095392	0.999420	0.022711
	H370	H	-0.081428	1.006535	0.026014
	H371	H	-0.115542	0.992373	0.021038
	O372	O	0.105814	-0.088446	-0.020315
	H373	H	0.097814	-0.073408	-0.020241
	H374	H	0.101608	-0.077838	-0.026125
	O375	O	0.505698	0.598532	0.334008
	H376	H	0.497168	0.579604	0.330128
	H377	H	0.488393	0.619172	0.333310
	O378	O	0.980837	0.960581	0.009569
	H379	H	0.990812	0.957013	0.020078
	H380	H	0.972900	0.952801	0.001006
	O381	O	0.822392	0.085308	-0.092438
	H382	H	0.826232	0.060319	-0.077523
	H383	H	0.814863	0.092829	-0.100288
	O384	O	1.188079	1.059235	-0.048513
	H385	H	1.194349	1.082460	-0.034960
	H386	H	1.180585	1.058817	-0.047011
	O387	O	-0.082148	-0.213735	0.092945
	H388	H	-0.091048	-0.223744	0.084788
	H389	H	-0.063619	-0.221360	0.068062
	O390	O	-0.135919	1.032210	-0.016948
	H391	H	-0.123335	1.044199	-0.020827
	H392	H	-0.137177	1.039256	0.001901
	O393	O	1.122277	0.924980	0.938066
	H394	H	1.136396	0.929256	0.945849
	H395	H	1.124918	0.927360	0.940502
	O396	O	0.561537	0.339604	1.321543
	H397	H	0.551280	0.344889	1.329389
	H398	H	0.569135	0.335553	1.306874
	O399	O	-0.118113	0.976308	0.858743
	H400	H	-0.137897	0.980123	0.860482
	H401	H	-0.116181	0.984072	0.866085
	O402	O	0.504364	0.469260	0.416596
	H403	H	0.503227	0.473201	0.429462
	H404	H	0.511137	0.492482	0.407829
	O405	O	1.280494	0.789352	0.284193
	H406	H	1.290772	0.792263	0.284144
	H407	H	1.268034	0.807852	0.273822
	O408	O	1.101347	1.144349	-0.115931
	H409	H	1.101599	1.149120	-0.114094
	H410	H	1.107124	1.155490	-0.116864
	O411	O	1.091572	0.114857	1.122351
	H412	H	1.080120	0.128621	1.112677
	H413	H	1.104156	0.120838	1.124609
	O414	O	0.478361	0.415151	0.616508
	H415	H	0.470165	0.420888	0.630380
	H416	H	0.486865	0.406942	0.610436
	O417	O	1.196474	0.994080	1.112415
	H418	H	1.193273	0.988465	1.109540
	H419	H	1.187570	1.011401	1.121539
