data_Molecule from HDF5

_cell_length_a		16.340165
_cell_length_b		16.345177
_cell_length_c		16.101179
_cell_angle_alpha	90.067481
_cell_angle_beta	89.724987
_cell_angle_gamma	90.193280
_symmetry_space_group_name_H-M	'P 1'
_symmetry_Int_Tables_number		1

loop_
	_symmetry_equiv_pos_as_xyz
	x,y,z

loop_
	_atom_site_label
	_atom_site_type_symbol
	_atom_site_fract_x
	_atom_site_fract_y
	_atom_site_fract_z
	H0	H	0.418121	0.835687	0.709318
	H1	H	0.612707	0.163010	0.708054
	H2	H	0.614525	0.835988	0.278234
	H3	H	0.422223	0.163713	0.284421
	H4	H	0.730183	0.400481	0.830780
	H5	H	0.729883	0.600688	0.160337
	H6	H	0.301247	0.598221	0.830421
	H7	H	0.301131	0.400653	0.159995
	H8	H	0.854066	0.714595	0.394971
	H9	H	0.178081	0.716592	0.597590
	H10	H	0.854495	0.280202	0.597976
	H11	H	0.179206	0.282635	0.393597
	H12	H	0.852810	0.400164	0.709295
	H13	H	0.180435	0.594760	0.707904
	H14	H	0.851782	0.594466	0.283722
	H15	H	0.179335	0.400484	0.279271
	H16	H	0.416758	0.712674	0.829547
	H17	H	0.613923	0.714995	0.159277
	H18	H	0.614174	0.284975	0.830567
	H19	H	0.415290	0.286409	0.159546
	H20	H	0.733153	0.836272	0.391606
	H21	H	0.733350	0.160932	0.595157
	H22	H	0.297955	0.837495	0.597791
	H23	H	0.300708	0.161261	0.395459
	H24	H	0.917553	0.334374	0.209396
	H25	H	0.111755	0.662442	0.208599
	H26	H	0.112913	0.333761	0.782023
	H27	H	0.920864	0.661392	0.782192
	H28	H	0.231929	0.899142	0.330286
	H29	H	0.229558	0.098092	0.659953
	H30	H	0.803498	0.097467	0.330002
	H31	H	0.798888	0.897693	0.659188
	H32	H	0.351956	0.213580	0.895883
	H33	H	0.676579	0.217943	0.094753
	H34	H	0.352953	0.782337	0.096839
	H35	H	0.676790	0.781862	0.891227
	H36	H	0.352324	0.902145	0.210482
	H37	H	0.679190	0.097405	0.206821
	H38	H	0.351356	0.094609	0.783069
	H39	H	0.679006	0.903032	0.781278
	H40	H	0.918970	0.211855	0.330381
	H41	H	0.114884	0.211900	0.660015
	H42	H	0.116583	0.783369	0.331058
	H43	H	0.915382	0.783950	0.660919
	H44	H	0.232097	0.335491	0.894633
	H45	H	0.232681	0.660950	0.096735
	H46	H	0.796370	0.336449	0.097891
	H47	H	0.801268	0.660950	0.894854
	H48	H	0.420484	0.114876	0.586024
	H49	H	0.601715	0.885477	0.585338
	H50	H	0.616746	0.113531	0.409143
	H51	H	0.426875	0.885065	0.405633
	H52	H	0.611233	0.414447	0.112538
	H53	H	0.616451	0.590394	0.875507
	H54	H	0.423785	0.590964	0.112017
	H55	H	0.429713	0.411962	0.879236
	H56	H	0.133519	0.594346	0.401546
	H57	H	0.903664	0.589490	0.581370
	H58	H	0.132243	0.406071	0.588609
	H59	H	0.900346	0.407484	0.401658
	H60	H	0.134345	0.401591	0.590050
	H61	H	0.900612	0.584908	0.593478
	H62	H	0.130249	0.591378	0.407799
	H63	H	0.898846	0.398489	0.402935
	H64	H	0.423047	0.594167	0.113297
	H65	H	0.604664	0.585451	0.880820
	H66	H	0.597618	0.409855	0.109695
	H67	H	0.425233	0.397581	0.875026
	H68	H	0.615599	0.118015	0.395446
	H69	H	0.613653	0.882888	0.582450
	H70	H	0.421364	0.116474	0.590752
	H71	H	0.418974	0.882726	0.405620
	H72	H	0.919641	0.613879	0.086362
	H73	H	0.112282	0.379670	0.094299
	H74	H	0.113046	0.614968	0.902620
	H75	H	0.924187	0.383807	0.908591
	H76	H	0.107963	0.915051	0.610260
	H77	H	0.111678	0.086614	0.377807
	H78	H	0.914736	0.094085	0.617483
	H79	H	0.918793	0.908184	0.376688
	H80	H	0.630163	0.090345	0.902440
	H81	H	0.397422	0.087605	0.096918
	H82	H	0.632195	0.896047	0.080155
	H83	H	0.400166	0.895367	0.915710
	H84	H	0.626576	0.916053	0.079563
	H85	H	0.396042	0.102808	0.091991
	H86	H	0.632602	0.095883	0.898192
	H87	H	0.402743	0.919059	0.904293
	H88	H	0.923192	0.077831	0.609915
	H89	H	0.105766	0.091766	0.377291
	H90	H	0.101226	0.902754	0.612197
	H91	H	0.930267	0.910323	0.381508
	H92	H	0.107591	0.613861	0.900878
	H93	H	0.102173	0.384771	0.086964
	H94	H	0.921205	0.615503	0.092389
	H95	H	0.916593	0.380450	0.905149
	H96	H	0.425606	0.114267	0.588033
	H97	H	0.609665	0.881046	0.594059
	H98	H	0.604315	0.112774	0.402067
	H99	H	0.423510	0.882513	0.398885
	H100	H	0.608396	0.400372	0.116213
	H101	H	0.605698	0.597707	0.876054
	H102	H	0.420941	0.590926	0.112724
	H103	H	0.414706	0.409430	0.874938
	H104	H	0.131245	0.587655	0.400893
	H105	H	0.897860	0.597827	0.590235
	H106	H	0.132266	0.402602	0.584321
	H107	H	0.902613	0.403360	0.410120
	H108	H	0.926010	0.612759	0.087927
	H109	H	0.114450	0.382466	0.081443
	H110	H	0.109319	0.612525	0.906288
	H111	H	0.923008	0.381064	0.899427
	H112	H	0.114800	0.904053	0.616068
	H113	H	0.112855	0.093836	0.374687
	H114	H	0.933864	0.094978	0.611230
	H115	H	0.927251	0.898480	0.376674
	H116	H	0.631227	0.096837	0.906443
	H117	H	0.401251	0.092246	0.081794
	H118	H	0.633914	0.907746	0.096363
	H119	H	0.393332	0.898966	0.890465
	C120	C	0.393715	0.007441	0.617427
	C121	C	0.637319	0.990627	0.616374
	C122	C	0.639874	0.007157	0.372210
	C123	C	0.395172	0.990942	0.374605
	C124	C	0.635621	0.378568	0.004152
	C125	C	0.637439	0.620672	0.986427
	C126	C	0.394165	0.620226	0.003483
	C127	C	0.393989	0.378123	0.985770
	C128	C	0.023971	0.619494	0.374619
	C129	C	1.007962	0.619902	0.617773
	C130	C	0.025245	0.375069	0.617432
	C131	C	1.007964	0.375213	0.374205
	C132	C	0.893026	0.506619	0.117930
	C133	C	0.137753	0.490120	0.117338
	C134	C	0.138038	0.506012	0.873895
	C135	C	0.893885	0.489842	0.874610
	C136	C	0.137454	0.877798	0.503846
	C137	C	0.137789	0.119443	0.486191
	C138	C	0.895594	0.118461	0.503965
	C139	C	0.894976	0.876379	0.487004
	C140	C	0.523502	0.121662	0.873695
	C141	C	0.506213	0.122146	0.117558
	C142	C	0.523792	0.877540	0.116217
	C143	C	0.506518	0.876648	0.873488
	C144	C	0.397236	0.884725	0.672000
	C145	C	0.634378	0.113803	0.670868
	C146	C	0.636246	0.884687	0.315936
	C147	C	0.399987	0.114429	0.320998
	C148	C	0.692141	0.379951	0.880105
	C149	C	0.692260	0.620031	0.110687
	C150	C	0.338761	0.618474	0.879516
	C151	C	0.338515	0.380558	0.110451
	C152	C	0.902371	0.675830	0.375727
	C153	C	0.129966	0.677272	0.617203
	C154	C	0.902702	0.318996	0.616799
	C155	C	0.130537	0.320629	0.374354
	C156	C	0.901972	0.378579	0.672405
	C157	C	0.131056	0.616679	0.672012
	C158	C	0.901027	0.616031	0.320443
	C159	C	0.130628	0.379343	0.317481
	C160	C	0.396266	0.675378	0.879167
	C161	C	0.634462	0.676743	0.110384
	C162	C	0.634582	0.322615	0.880002
	C163	C	0.395136	0.323762	0.110296
	C164	C	0.694811	0.884774	0.372524
	C165	C	0.694209	0.112658	0.614712
	C166	C	0.337292	0.885565	0.616579
	C167	C	0.339673	0.113316	0.376088
	C168	C	0.895881	0.383501	0.172775
	C169	C	0.133506	0.613382	0.171719
	C170	C	0.134239	0.382931	0.819320
	C171	C	0.898487	0.612311	0.819171
	C172	C	0.193514	0.879269	0.379779
	C173	C	0.192140	0.117908	0.610571
	C174	C	0.841594	0.116867	0.379388
	C175	C	0.837886	0.878209	0.610481
	C176	C	0.400461	0.175588	0.876177
	C177	C	0.628693	0.178580	0.114649
	C178	C	0.401283	0.821565	0.115863
	C179	C	0.628812	0.821229	0.873100
	C180	C	0.400985	0.880683	0.172695
	C181	C	0.629903	0.118999	0.170452
	C182	C	0.400061	0.116574	0.820043
	C183	C	0.629817	0.881075	0.818204
	C184	C	0.898664	0.174118	0.379776
	C185	C	0.135103	0.174641	0.610552
	C186	C	0.136377	0.821498	0.380130
	C187	C	0.895767	0.821353	0.611255
	C188	C	0.193671	0.383982	0.874987
	C189	C	0.193181	0.612743	0.115670
	C190	C	0.835764	0.384656	0.117285
	C191	C	0.839322	0.612206	0.875576
	C192	C	0.415916	0.093274	0.594782
	C193	C	0.614927	0.905130	0.593932
	C194	C	0.618620	0.092667	0.395325
	C195	C	0.416883	0.905542	0.396777
	C196	C	0.612459	0.401427	0.090635
	C197	C	0.615493	0.597791	0.899778
	C198	C	0.416189	0.598353	0.090210
	C199	C	0.416534	0.399954	0.898955
	C200	C	0.109428	0.597525	0.396912
	C201	C	0.922673	0.597559	0.595034
	C202	C	0.110634	0.396870	0.594484
	C203	C	0.922699	0.396877	0.397861
	C204	C	0.915665	0.591928	0.095435
	C205	C	0.115933	0.404483	0.094526
	C206	C	0.116304	0.591704	0.896463
	C207	C	0.915081	0.403994	0.897567
	C208	C	0.114758	0.900727	0.590628
	C209	C	0.116311	0.097355	0.399130
	C210	C	0.917430	0.095725	0.590630
	C211	C	0.918642	0.898906	0.400647
	C212	C	0.609397	0.100421	0.895656
	C213	C	0.420508	0.100474	0.096482
	C214	C	0.608837	0.899939	0.092481
	C215	C	0.420839	0.898082	0.896647
	Zn216	Zn	0.515534	-0.000640	0.746199
	Zn217	Zn	0.516426	-0.000730	0.245197
	Zn218	Zn	0.764303	0.499134	-0.003835
	Zn219	Zn	0.266801	0.498572	-0.005073
	Zn220	Zn	0.016353	0.748998	0.495875
	Zn221	Zn	0.016614	0.246034	0.495640
	Zn222	Zn	0.016457	0.496989	0.745733
	Zn223	Zn	0.015419	0.497946	0.246288
	Zn224	Zn	0.515360	0.747859	-0.005623
	Zn225	Zn	0.513894	0.250242	-0.005126
	Zn226	Zn	0.767611	-0.002064	0.494493
	Zn227	Zn	0.265442	-0.000963	0.495381
	N228	N	0.431612	0.961691	0.672566
	N229	N	0.599648	0.037074	0.671999
	N230	N	0.602787	0.961695	0.315615
	N231	N	0.433791	0.037423	0.319936
	N232	N	0.692704	0.414122	0.958157
	N233	N	0.694241	0.586114	0.032410
	N234	N	0.337314	0.584840	0.957796
	N235	N	0.337791	0.413935	0.032028
	N236	N	0.979902	0.678200	0.408686
	N237	N	0.052562	0.679363	0.584130
	N238	N	0.980392	0.316360	0.583461
	N239	N	0.053477	0.318242	0.409111
	N240	N	0.978894	0.412901	0.672776
	N241	N	0.054281	0.581603	0.672490
	N242	N	0.977645	0.581606	0.319615
	N243	N	0.053386	0.412759	0.317336
	N244	N	0.430028	0.676641	0.957318
	N245	N	0.601201	0.677544	0.032065
	N246	N	0.599859	0.321795	0.958096
	N247	N	0.429083	0.322308	0.032009
	N248	N	0.697537	0.962067	0.406499
	N249	N	0.696181	0.034851	0.581581
	N250	N	0.335071	0.963027	0.583242
	N251	N	0.336735	0.035566	0.408755
	N252	N	0.930989	0.460254	0.173307
	N253	N	0.099837	0.536118	0.172913
	N254	N	0.100613	0.459882	0.818422
	N255	N	0.931660	0.535159	0.818480
	N256	N	0.194182	0.913462	0.457874
	N257	N	0.194071	0.084289	0.532146
	N258	N	0.839514	0.082917	0.457539
	N259	N	0.837273	0.911525	0.532200
	N260	N	0.478206	0.179035	0.908487
	N261	N	0.550820	0.180920	0.082714
	N262	N	0.478551	0.819485	0.081456
	N263	N	0.551131	0.818146	0.906506
	N264	N	0.478103	0.914643	0.173131
	N265	N	0.553028	0.084408	0.172289
	N266	N	0.477630	0.083762	0.818554
	N267	N	0.552861	0.915048	0.818398
	N268	N	0.931553	0.175028	0.458263
	N269	N	0.101893	0.175441	0.532186
	N270	N	0.102113	0.820659	0.458423
	N271	N	0.930535	0.820137	0.533314
	N272	N	0.196082	0.461648	0.908290
	N273	N	0.196226	0.535076	0.082801
	N274	N	0.833764	0.462231	0.084190
	N275	N	0.836571	0.534862	0.909420
	O276	O	0.910223	0.916056	0.040090
	H277	H	0.916232	0.920450	0.044162
	H278	H	0.901193	0.903593	0.031905
	O279	O	-0.031521	-0.013802	1.027190
	H280	H	-0.037422	-0.023575	1.025237
	H281	H	-0.035282	-0.007749	1.027694
	O282	O	-0.426577	0.563077	0.459203
	H283	H	-0.428412	0.559128	0.457881
	H284	H	-0.429076	0.568328	0.446683
	O285	O	0.442382	0.484474	0.420001
	H286	H	0.434080	0.482971	0.425126
	H287	H	0.442187	0.484974	0.408065
	O288	O	0.011688	-0.070972	-0.028119
	H289	H	0.013766	-0.070057	-0.028952
	H290	H	0.009650	-0.074024	-0.028423
	O291	O	-0.014256	0.936805	-0.015795
	H292	H	-0.015245	0.937650	-0.014752
	H293	H	-0.004010	0.938164	-0.017454
	O294	O	-0.010711	0.926499	0.020823
	H295	H	-0.008595	0.931856	0.022668
	H296	H	-0.012337	0.933941	0.010499
	O297	O	0.561271	0.507471	0.481911
	H298	H	0.558147	0.510452	0.489237
	H299	H	0.568786	0.516132	0.478974
	O300	O	0.521472	0.546766	0.513403
	H301	H	0.538939	0.543908	0.520570
	H302	H	0.518698	0.547114	0.506986
	O303	O	0.444539	-0.416654	1.501829
	H304	H	0.444575	-0.419221	1.498289
	H305	H	0.447498	-0.410820	1.502056
	O306	O	-0.006038	1.006313	0.956873
	H307	H	-0.007784	0.999313	0.961025
	H308	H	0.002336	1.007834	0.958997
	O309	O	0.024417	0.958461	0.961973
	H310	H	0.023449	0.956622	0.967988
	H311	H	0.028792	0.955995	0.961597
	O312	O	-0.034007	-0.068666	1.063097
	H313	H	-0.042984	-0.070861	1.074462
	H314	H	-0.029610	-0.085091	1.065307
	O315	O	0.455427	0.450822	0.456206
	H316	H	0.461934	0.454243	0.453304
	H317	H	0.447155	0.447969	0.461087
	O318	O	-0.000579	-0.008941	1.022899
	H319	H	0.004381	-0.010287	1.021924
	H320	H	-0.008450	-0.003253	1.032737
	O321	O	0.567653	0.512238	0.478913
	H322	H	0.570580	0.512105	0.474301
	H323	H	0.567305	0.513483	0.476999
	O324	O	0.976400	0.004042	1.030603
	H325	H	0.964870	0.002453	1.031821
	H326	H	0.969983	0.002140	1.028838
	O327	O	1.032374	0.969918	0.983261
	H328	H	1.031568	0.970148	0.984125
	H329	H	1.035152	0.965170	0.973656
	O330	O	0.544170	0.571206	0.449176
	H331	H	0.551471	0.569507	0.449985
	H332	H	0.550352	0.577312	0.453104
	O333	O	0.498509	0.526670	0.522578
	H334	H	0.496056	0.537189	0.519514
	H335	H	0.494590	0.526848	0.516668
	O336	O	0.592321	0.524933	0.458395
	H337	H	0.589715	0.523785	0.466770
	H338	H	0.594900	0.518234	0.462255
	O339	O	-0.475892	0.579781	-0.487360
	H340	H	-0.471022	0.580810	-0.480350
	H341	H	-0.479237	0.572959	-0.483628
	O342	O	0.526847	0.478642	0.539815
	H343	H	0.531613	0.471072	0.550584
	H344	H	0.516629	0.473988	0.545060
	O345	O	0.508913	0.491536	0.433697
	H346	H	0.502959	0.494171	0.434669
	H347	H	0.509076	0.489152	0.434496
