data_Molecule from HDF5

_cell_length_a		16.234553
_cell_length_b		16.328625
_cell_length_c		16.474236
_cell_angle_alpha	90.123415
_cell_angle_beta	89.792512
_cell_angle_gamma	90.068007
_symmetry_space_group_name_H-M	'P 1'
_symmetry_Int_Tables_number		1

loop_
	_symmetry_equiv_pos_as_xyz
	x,y,z

loop_
	_atom_site_label
	_atom_site_type_symbol
	_atom_site_fract_x
	_atom_site_fract_y
	_atom_site_fract_z
	H0	H	0.393817	0.815188	0.708840
	H1	H	0.603541	0.135912	0.709993
	H2	H	0.602968	0.814968	0.272163
	H3	H	0.396523	0.135851	0.269487
	H4	H	0.719931	0.372302	0.830068
	H5	H	0.717675	0.576356	0.151061
	H6	H	0.284914	0.574250	0.829061
	H7	H	0.279989	0.371402	0.149976
	H8	H	0.836803	0.691387	0.392795
	H9	H	0.163018	0.695519	0.590867
	H10	H	0.835886	0.263082	0.590196
	H11	H	0.163627	0.261710	0.390450
	H12	H	0.837217	0.376046	0.708609
	H13	H	0.162243	0.582440	0.709394
	H14	H	0.838399	0.578905	0.273244
	H15	H	0.163071	0.373573	0.271776
	H16	H	0.395911	0.694341	0.830877
	H17	H	0.602819	0.694177	0.149983
	H18	H	0.602095	0.257132	0.829806
	H19	H	0.398614	0.257236	0.151484
	H20	H	0.717668	0.815942	0.387885
	H21	H	0.712613	0.140138	0.587657
	H22	H	0.279702	0.816101	0.591557
	H23	H	0.286951	0.140676	0.391535
	H24	H	0.894534	0.316878	0.212074
	H25	H	0.105565	0.637733	0.208509
	H26	H	0.103074	0.316124	0.769503
	H27	H	0.893792	0.637265	0.771773
	H28	H	0.217601	0.877345	0.329441
	H29	H	0.219937	0.084100	0.649021
	H30	H	0.782239	0.080128	0.328799
	H31	H	0.781270	0.878359	0.649882
	H32	H	0.338362	0.191282	0.890134
	H33	H	0.662404	0.192805	0.093123
	H34	H	0.338235	0.754085	0.094557
	H35	H	0.662051	0.756420	0.888027
	H36	H	0.339741	0.866844	0.213430
	H37	H	0.661505	0.077599	0.208190
	H38	H	0.339336	0.078893	0.771414
	H39	H	0.660519	0.869847	0.769150
	H40	H	0.895368	0.199015	0.330506
	H41	H	0.101828	0.197987	0.649943
	H42	H	0.104815	0.757279	0.330238
	H43	H	0.895542	0.759638	0.650139
	H44	H	0.215331	0.313294	0.888766
	H45	H	0.217857	0.637684	0.089773
	H46	H	0.784138	0.313181	0.092273
	H47	H	0.781921	0.636993	0.891482
	H48	H	0.410938	0.089788	0.578648
	H49	H	0.588164	0.861488	0.579908
	H50	H	0.593853	0.093537	0.395703
	H51	H	0.407305	0.862938	0.402390
	H52	H	0.593642	0.381430	0.105630
	H53	H	0.592875	0.563242	0.877426
	H54	H	0.408870	0.561819	0.103116
	H55	H	0.414106	0.379470	0.877190
	H56	H	0.113385	0.564238	0.404614
	H57	H	0.881433	0.578697	0.581264
	H58	H	0.114086	0.393234	0.581805
	H59	H	0.884314	0.390054	0.393486
	H60	H	0.116834	0.385461	0.583494
	H61	H	0.889227	0.562425	0.575369
	H62	H	0.116900	0.563769	0.392358
	H63	H	0.884393	0.382500	0.401820
	H64	H	0.413363	0.564911	0.102091
	H65	H	0.589294	0.563244	0.878458
	H66	H	0.592182	0.383917	0.104638
	H67	H	0.404966	0.376969	0.873332
	H68	H	0.585967	0.092238	0.392954
	H69	H	0.589403	0.861522	0.578263
	H70	H	0.407987	0.092519	0.584193
	H71	H	0.408362	0.860456	0.397814
	H72	H	0.905463	0.589758	0.074886
	H73	H	0.090880	0.360118	0.083272
	H74	H	0.087620	0.588795	0.904206
	H75	H	0.901819	0.359012	0.899406
	H76	H	0.091420	0.888967	0.603393
	H77	H	0.097688	0.074702	0.372358
	H78	H	0.909031	0.078163	0.605108
	H79	H	0.904203	0.888888	0.375644
	H80	H	0.618010	0.067586	0.896773
	H81	H	0.389625	0.056602	0.074529
	H82	H	0.615014	0.887249	0.084857
	H83	H	0.383675	0.879386	0.900607
	H84	H	0.615460	0.880190	0.080269
	H85	H	0.382861	0.061057	0.089505
	H86	H	0.614217	0.065267	0.903602
	H87	H	0.387331	0.887598	0.904789
	H88	H	0.899641	0.068258	0.605712
	H89	H	0.093314	0.059285	0.379367
	H90	H	0.086630	0.889409	0.602717
	H91	H	0.914939	0.886646	0.378359
	H92	H	0.098839	0.592818	0.900726
	H93	H	0.085907	0.362319	0.082324
	H94	H	0.907582	0.594327	0.089190
	H95	H	0.916043	0.360267	0.889305
	H96	H	0.414534	0.090639	0.584589
	H97	H	0.590548	0.861632	0.580536
	H98	H	0.588435	0.090881	0.400951
	H99	H	0.411732	0.863205	0.400602
	H100	H	0.590580	0.381392	0.105070
	H101	H	0.590590	0.566557	0.876773
	H102	H	0.408659	0.567056	0.105081
	H103	H	0.407181	0.386761	0.877466
	H104	H	0.117909	0.574614	0.399128
	H105	H	0.882979	0.564230	0.592933
	H106	H	0.113361	0.386867	0.576040
	H107	H	0.887874	0.392623	0.403672
	H108	H	0.918885	0.587796	0.081603
	H109	H	0.089986	0.362868	0.077967
	H110	H	0.089634	0.592490	0.892349
	H111	H	0.917194	0.365720	0.905510
	H112	H	0.088427	0.885310	0.603738
	H113	H	0.081163	0.072284	0.378588
	H114	H	0.911825	0.065504	0.600973
	H115	H	0.908772	0.878452	0.373245
	H116	H	0.615307	0.059860	0.897649
	H117	H	0.383447	0.072149	0.077103
	H118	H	0.612500	0.887239	0.077202
	H119	H	0.383939	0.887423	0.895767
	C120	C	0.378126	-0.015030	0.612494
	C121	C	0.620147	0.968019	0.610196
	C122	C	0.620940	-0.014482	0.366985
	C123	C	0.378500	0.968366	0.368880
	C124	C	0.623102	0.352229	-0.001031
	C125	C	0.621746	0.596087	0.982475
	C126	C	0.379234	0.595689	-0.001645
	C127	C	0.377669	0.351174	0.982030
	C128	C	0.008930	0.597996	0.369308
	C129	C	0.991446	0.599909	0.613210
	C130	C	0.007753	0.357520	0.611122
	C131	C	0.992438	0.356480	0.368592
	C132	C	0.879276	0.484343	0.112694
	C133	C	0.121452	0.468130	0.111274
	C134	C	0.121926	0.484580	0.868097
	C135	C	0.879719	0.467987	0.869428
	C136	C	0.120980	0.856883	0.497923
	C137	C	0.121347	0.100307	0.482089
	C138	C	0.876919	0.100713	0.497867
	C139	C	0.877800	0.855407	0.481360
	C140	C	0.508798	0.095314	0.869362
	C141	C	0.492188	0.094689	0.111185
	C142	C	0.507904	0.852791	0.112175
	C143	C	0.491585	0.853594	0.869045
	C144	C	0.375530	0.863864	0.670091
	C145	C	0.621338	0.088604	0.669407
	C146	C	0.621738	0.863420	0.310620
	C147	C	0.377699	0.088409	0.309420
	C148	C	0.680837	0.353019	0.878212
	C149	C	0.679015	0.595948	0.103097
	C150	C	0.323375	0.594146	0.877161
	C151	C	0.319549	0.352486	0.102389
	C152	C	0.886036	0.653848	0.371912
	C153	C	0.113887	0.657789	0.611758
	C154	C	0.884960	0.300782	0.610487
	C155	C	0.114549	0.299209	0.369847
	C156	C	0.885614	0.357287	0.669179
	C157	C	0.113571	0.601237	0.670359
	C158	C	0.886701	0.597897	0.312419
	C159	C	0.114372	0.355414	0.310804
	C160	C	0.378211	0.654243	0.878310
	C161	C	0.621763	0.654635	0.102426
	C162	C	0.622535	0.295343	0.877969
	C163	C	0.378291	0.295198	0.102973
	C164	C	0.678742	0.863944	0.368333
	C165	C	0.675736	0.090585	0.608504
	C166	C	0.318903	0.864270	0.611353
	C167	C	0.323394	0.091016	0.370356
	C168	C	0.877094	0.364143	0.171959
	C169	C	0.123491	0.589371	0.169021
	C170	C	0.122021	0.363894	0.809412
	C171	C	0.876806	0.589189	0.811808
	C172	C	0.179506	0.857015	0.377444
	C173	C	0.180279	0.102299	0.601529
	C174	C	0.820189	0.100023	0.377086
	C175	C	0.820002	0.857918	0.602025
	C176	C	0.387046	0.153121	0.870240
	C177	C	0.613655	0.153494	0.111925
	C178	C	0.386767	0.793482	0.113522
	C179	C	0.613347	0.795431	0.868568
	C180	C	0.387438	0.849680	0.172536
	C181	C	0.613420	0.095964	0.169213
	C182	C	0.387509	0.097037	0.811298
	C183	C	0.612624	0.851662	0.809409
	C184	C	0.876657	0.159099	0.377997
	C185	C	0.121094	0.158873	0.602072
	C186	C	0.123166	0.797393	0.377948
	C187	C	0.877203	0.799011	0.602004
	C188	C	0.177592	0.362367	0.869019
	C189	C	0.179480	0.589443	0.109892
	C190	C	0.822111	0.362469	0.112106
	C191	C	0.820886	0.588966	0.871190
	C192	C	0.403704	0.069163	0.589335
	C193	C	0.596279	0.883528	0.586446
	C194	C	0.596632	0.070148	0.389918
	C195	C	0.402143	0.883933	0.393321
	C196	C	0.599037	0.375445	0.083136
	C197	C	0.597826	0.571615	0.899093
	C198	C	0.403074	0.571539	0.081693
	C199	C	0.401669	0.374385	0.898023
	C200	C	0.094090	0.574245	0.392028
	C201	C	0.906746	0.575643	0.590065
	C202	C	0.092815	0.381515	0.587372
	C203	C	0.907455	0.381178	0.392563
	C204	C	0.903615	0.568591	0.088797
	C205	C	0.096197	0.383765	0.087949
	C206	C	0.098811	0.569266	0.892158
	C207	C	0.904511	0.383660	0.891669
	C208	C	0.096128	0.880905	0.581342
	C209	C	0.097737	0.075711	0.398510
	C210	C	0.899984	0.077334	0.581860
	C211	C	0.902093	0.878200	0.397601
	C212	C	0.593800	0.071115	0.892626
	C213	C	0.407400	0.070124	0.087272
	C214	C	0.592437	0.877662	0.087748
	C215	C	0.406975	0.877925	0.893366
	Zn216	Zn	0.500349	-0.025059	0.740259
	Zn217	Zn	0.499353	-0.025288	0.239807
	Zn218	Zn	0.751345	0.474551	-0.008780
	Zn219	Zn	0.250254	0.474769	-0.010075
	Zn220	Zn	0.000457	0.726711	0.490350
	Zn221	Zn	-0.001028	0.229101	0.490286
	Zn222	Zn	0.000580	0.478173	0.740110
	Zn223	Zn	0.001026	0.477147	0.240119
	Zn224	Zn	0.499497	0.725346	-0.009618
	Zn225	Zn	0.500877	0.223254	-0.009299
	Zn226	Zn	0.748877	-0.022068	0.488536
	Zn227	Zn	0.250234	-0.021677	0.490195
	N228	N	0.411514	0.940028	0.671048
	N229	N	0.587578	0.011355	0.670548
	N230	N	0.586460	0.940018	0.309807
	N231	N	0.411074	0.011064	0.308465
	N232	N	0.681474	0.387257	0.954549
	N233	N	0.679185	0.560167	0.027470
	N234	N	0.323644	0.558493	0.952705
	N235	N	0.318998	0.386392	0.026033
	N236	N	0.962912	0.654165	0.406354
	N237	N	0.037020	0.657202	0.576920
	N238	N	0.961889	0.300841	0.575168
	N239	N	0.037492	0.299679	0.404766
	N240	N	0.963124	0.391760	0.669807
	N241	N	0.036480	0.566201	0.671481
	N242	N	0.964324	0.563923	0.310532
	N243	N	0.037249	0.390139	0.309915
	N244	N	0.412443	0.655292	0.954463
	N245	N	0.587081	0.654831	0.026433
	N246	N	0.587366	0.294696	0.954076
	N247	N	0.413426	0.293953	0.026971
	N248	N	0.678563	0.940731	0.402471
	N249	N	0.675068	0.014611	0.572284
	N250	N	0.320361	0.940664	0.576404
	N251	N	0.323691	0.015239	0.406604
	N252	N	0.912168	0.440779	0.172295
	N253	N	0.088306	0.512753	0.170103
	N254	N	0.088362	0.441069	0.808608
	N255	N	0.912848	0.513055	0.810481
	N256	N	0.178472	0.893156	0.452991
	N257	N	0.180205	0.066234	0.526062
	N258	N	0.820302	0.064281	0.452536
	N259	N	0.820181	0.892292	0.525901
	N260	N	0.463619	0.152262	0.905560
	N261	N	0.537210	0.152650	0.076382
	N262	N	0.462649	0.795543	0.076616
	N263	N	0.536995	0.796472	0.904827
	N264	N	0.463844	0.885899	0.171924
	N265	N	0.536799	0.059932	0.168677
	N266	N	0.464305	0.061739	0.810759
	N267	N	0.535927	0.887030	0.809366
	N268	N	0.911178	0.159688	0.454004
	N269	N	0.085306	0.157853	0.526686
	N270	N	0.087408	0.797443	0.453769
	N271	N	0.912342	0.797232	0.525993
	N272	N	0.177837	0.438617	0.904697
	N273	N	0.178404	0.512992	0.074734
	N274	N	0.823409	0.438184	0.075850
	N275	N	0.822580	0.512706	0.906223
	O276	O	0.398889	0.362182	0.506030
	H277	H	0.397818	0.365024	0.512432
	H278	H	0.392234	0.365723	0.512346
	O279	O	0.325106	0.447129	0.553876
	H280	H	0.316702	0.452689	0.555800
	H281	H	0.315633	0.450642	0.547193
	O282	O	0.924997	0.050496	1.124895
	H283	H	0.934078	0.062460	1.113918
	H284	H	0.931492	0.054155	1.125193
	O285	O	0.535263	0.383389	0.430173
	H286	H	0.529450	0.390853	0.427144
	H287	H	0.525265	0.378534	0.443418
	O288	O	0.672945	1.403266	1.401653
	H289	H	0.673462	1.397666	1.404128
	H290	H	0.669035	1.383593	1.401482
	O291	O	-0.197692	1.150296	-0.020350
	H292	H	-0.198043	1.154205	-0.042854
	H293	H	-0.199378	1.171685	-0.037833
	O294	O	0.514216	0.386075	0.564110
	H295	H	0.514358	0.383675	0.572544
	H296	H	0.510577	0.383400	0.555265
	O297	O	0.380380	0.573190	0.378178
	H298	H	0.389084	0.581865	0.386058
	H299	H	0.395685	0.572495	0.373840
	O300	O	0.435801	0.555593	0.550296
	H301	H	0.439793	0.564261	0.553101
	H302	H	0.435116	0.566108	0.543141
	O303	O	0.520704	0.582084	0.429481
	H304	H	0.521377	0.577439	0.422730
	H305	H	0.519478	0.584744	0.425787
	O306	O	0.639145	0.560463	0.426701
	H307	H	0.641652	0.546380	0.419898
	H308	H	0.648128	0.556976	0.430386
	O309	O	1.023786	0.964204	-0.183317
	H310	H	1.041760	0.961205	-0.193030
	H311	H	1.022359	0.975380	-0.180048
	O312	O	0.039299	0.098170	0.119404
	H313	H	0.043657	0.113818	0.121685
	H314	H	0.051881	0.098678	0.117376
	O315	O	0.593943	0.458381	0.559241
	H316	H	0.590744	0.468954	0.555011
	H317	H	0.590967	0.440735	0.554615
	O318	O	0.056588	0.789908	0.909768
	H319	H	0.045799	0.772236	0.909211
	H320	H	0.059938	0.785830	0.915437
	O321	O	0.576094	0.542631	0.512403
	H322	H	0.574765	0.539126	0.500647
	H323	H	0.588146	0.537529	0.519129
	O324	O	-0.151555	0.780919	0.051636
	H325	H	-0.168685	0.773064	0.055757
	H326	H	-0.147523	0.793282	0.058358
	O327	O	0.447723	0.342179	0.472626
	H328	H	0.433865	0.334769	0.467688
	H329	H	0.440834	0.353866	0.478450
	O330	O	-0.013944	0.058265	0.844912
	H331	H	-0.012272	0.040182	0.843962
	H332	H	-0.009043	0.048388	0.843713
	O333	O	0.064886	-0.071535	1.073519
	H334	H	0.067903	-0.071526	1.062680
	H335	H	0.055758	-0.066446	1.064172
	O336	O	0.110485	0.821090	0.984537
	H337	H	0.111711	0.824461	0.988426
	H338	H	0.102594	0.826450	0.968813
	O339	O	0.959981	0.009870	0.059998
	H340	H	0.953445	0.035136	0.050789
	H341	H	0.949317	0.001221	0.054360
	O342	O	-0.038852	-0.159554	0.128475
	H343	H	-0.040275	-0.154197	0.134336
	H344	H	-0.041774	-0.159991	0.129933
	O345	O	1.014980	-0.047234	0.879660
	H346	H	1.015950	-0.056774	0.888123
	H347	H	1.012595	-0.055832	0.880664
	O348	O	0.547575	1.502276	0.555484
	H349	H	0.549124	1.506149	0.546651
	H350	H	0.551714	1.503338	0.554887
	O351	O	0.609117	0.419220	0.577431
	H352	H	0.592969	0.410316	0.583531
	H353	H	0.603813	0.423479	0.574348
	O354	O	1.015588	0.085813	1.137869
	H355	H	1.009685	0.092244	1.130060
	H356	H	1.010789	0.099373	1.139583
	O357	O	0.472640	0.619133	0.550652
	H358	H	0.478425	0.620064	0.541396
	H359	H	0.462617	0.626268	0.542899
	O360	O	0.607748	0.458172	0.572576
	H361	H	0.594629	0.453790	0.577859
	H362	H	0.608483	0.463916	0.581589
	O363	O	0.040475	0.884474	0.894784
	H364	H	0.033409	0.884211	0.910217
	H365	H	0.047179	0.897905	0.885247
	O366	O	0.480265	0.380940	0.473898
	H367	H	0.479482	0.381816	0.468680
	H368	H	0.466202	0.394620	0.474018
	O369	O	-0.023181	1.093837	0.016849
	H370	H	-0.009489	1.106443	0.023634
	H371	H	-0.027361	1.096453	0.029856
	O372	O	0.471217	0.610417	0.404027
	H373	H	0.479418	0.608570	0.408165
	H374	H	0.471550	0.612875	0.399258
	O375	O	0.373373	0.542984	0.402361
	H376	H	0.376965	0.554460	0.394551
	H377	H	0.383750	0.555979	0.399730
	O378	O	0.895584	1.145133	-0.197902
	H379	H	0.901183	1.127551	-0.203731
	H380	H	0.900483	1.153927	-0.201729
	O381	O	1.140906	0.007172	0.187491
	H382	H	1.158914	-0.008983	0.186050
	H383	H	1.134358	0.012742	0.191313
	O384	O	1.124275	1.022872	0.107581
	H385	H	1.101883	1.022789	0.119014
	H386	H	1.128961	1.009700	0.119730
	O387	O	-0.038278	0.101447	-0.117650
	H388	H	-0.036806	0.102176	-0.112898
	H389	H	-0.029650	0.083110	-0.117985
	O390	O	0.174519	1.069116	-0.097420
	H391	H	0.201710	1.075099	-0.090136
	H392	H	0.158371	1.059390	-0.083177
	O393	O	0.968415	0.905003	0.926743
	H394	H	0.969330	0.892995	0.919745
	H395	H	0.971609	0.908285	0.931919
	O396	O	0.550512	0.623322	1.408293
	H397	H	0.561169	0.626335	1.402941
	H398	H	0.559216	0.631005	1.414977
	O399	O	-0.007725	0.920374	0.856134
	H400	H	-0.018773	0.914484	0.856931
	H401	H	-0.022787	0.936497	0.858594
	O402	O	0.496857	0.444988	0.652923
	H403	H	0.503021	0.444554	0.650251
	H404	H	0.498899	0.440894	0.657648
	O405	O	1.180175	1.050790	0.154099
	H406	H	1.179668	1.025730	0.168394
	H407	H	1.188422	1.033231	0.147395
	O408	O	1.033539	0.914100	-0.112388
	H409	H	1.025809	0.913476	-0.113916
	H410	H	1.021950	0.912026	-0.117862
	O411	O	0.801959	-0.110881	1.156876
	H412	H	0.808577	-0.095908	1.163705
	H413	H	0.807728	-0.084217	1.151038
	O414	O	0.464649	0.516192	0.456673
	H415	H	0.468757	0.519135	0.463703
	H416	H	0.463198	0.499156	0.463319
	O417	O	0.947070	0.900242	0.886769
	H418	H	0.944370	0.887258	0.900259
	H419	H	0.945416	0.904002	0.894837
