data_Molecule from HDF5

_cell_length_a		16.467851
_cell_length_b		16.538764
_cell_length_c		16.494280
_cell_angle_alpha	90.060754
_cell_angle_beta	89.979557
_cell_angle_gamma	89.928289
_symmetry_space_group_name_H-M	'P 1'
_symmetry_Int_Tables_number		1

loop_
	_symmetry_equiv_pos_as_xyz
	x,y,z

loop_
	_atom_site_label
	_atom_site_type_symbol
	_atom_site_fract_x
	_atom_site_fract_y
	_atom_site_fract_z
	H0	H	0.399988	0.845316	0.715809
	H1	H	0.608870	0.160150	0.721127
	H2	H	0.610896	0.846903	0.273095
	H3	H	0.395648	0.159359	0.272918
	H4	H	0.723205	0.397229	0.838128
	H5	H	0.726208	0.608766	0.153483
	H6	H	0.285576	0.604328	0.837734
	H7	H	0.283140	0.398884	0.155429
	H8	H	0.844335	0.726916	0.388014
	H9	H	0.158540	0.725677	0.601790
	H10	H	0.843904	0.281590	0.602434
	H11	H	0.157534	0.278274	0.387054
	H12	H	0.844685	0.398024	0.718344
	H13	H	0.160349	0.607175	0.715105
	H14	H	0.844879	0.609727	0.272949
	H15	H	0.158968	0.396234	0.273093
	H16	H	0.400919	0.721102	0.838193
	H17	H	0.610851	0.725319	0.153846
	H18	H	0.607698	0.281645	0.838621
	H19	H	0.398589	0.281454	0.155065
	H20	H	0.725468	0.846466	0.390033
	H21	H	0.726503	0.160517	0.605194
	H22	H	0.282630	0.845265	0.599425
	H23	H	0.280361	0.160101	0.390509
	H24	H	0.893823	0.347503	0.222337
	H25	H	0.108446	0.659753	0.219001
	H26	H	0.109254	0.347185	0.772551
	H27	H	0.899995	0.660688	0.777379
	H28	H	0.224954	0.895979	0.338553
	H29	H	0.221088	0.105844	0.652127
	H30	H	0.776291	0.112400	0.338994
	H31	H	0.779408	0.898660	0.652400
	H32	H	0.347553	0.225458	0.890827
	H33	H	0.660987	0.226159	0.104454
	H34	H	0.347671	0.778523	0.105081
	H35	H	0.660886	0.781869	0.891486
	H36	H	0.346474	0.896291	0.218617
	H37	H	0.660417	0.112184	0.221985
	H38	H	0.345109	0.106841	0.777465
	H39	H	0.659974	0.898089	0.774308
	H40	H	0.888667	0.231162	0.340227
	H41	H	0.105595	0.223698	0.651331
	H42	H	0.107547	0.780565	0.337760
	H43	H	0.894116	0.779710	0.651213
	H44	H	0.223761	0.345824	0.891547
	H45	H	0.225311	0.659382	0.102618
	H46	H	0.778144	0.346158	0.105901
	H47	H	0.781430	0.659248	0.892139
	H48	H	0.407771	0.118092	0.590823
	H49	H	0.584146	0.897445	0.578550
	H50	H	0.585017	0.112287	0.411699
	H51	H	0.411974	0.891150	0.408927
	H52	H	0.588568	0.413226	0.108460
	H53	H	0.593283	0.590581	0.884450
	H54	H	0.418691	0.590669	0.108753
	H55	H	0.408818	0.412584	0.882548
	H56	H	0.113036	0.595090	0.413768
	H57	H	0.889518	0.594896	0.582810
	H58	H	0.113376	0.411974	0.581101
	H59	H	0.890466	0.411653	0.416202
	H60	H	0.113469	0.417026	0.583930
	H61	H	0.890047	0.588998	0.585449
	H62	H	0.111561	0.585868	0.407878
	H63	H	0.894021	0.424841	0.410822
	H64	H	0.413560	0.595790	0.110938
	H65	H	0.590935	0.592598	0.884035
	H66	H	0.593039	0.414187	0.109319
	H67	H	0.416287	0.417153	0.886201
	H68	H	0.592582	0.114242	0.411871
	H69	H	0.599621	0.890656	0.581744
	H70	H	0.415210	0.116245	0.588239
	H71	H	0.413957	0.890170	0.404547
	H72	H	0.911972	0.614309	0.084917
	H73	H	0.088628	0.395097	0.077340
	H74	H	0.095408	0.615658	0.908556
	H75	H	0.916696	0.391180	0.906462
	H76	H	0.080381	0.920061	0.602064
	H77	H	0.088375	0.083814	0.384235
	H78	H	0.918333	0.090833	0.604506
	H79	H	0.911153	0.914079	0.382419
	H80	H	0.616831	0.092018	0.908999
	H81	H	0.393458	0.090166	0.083599
	H82	H	0.617366	0.914801	0.088786
	H83	H	0.389517	0.909813	0.907167
	H84	H	0.615832	0.910571	0.080935
	H85	H	0.392004	0.091099	0.086194
	H86	H	0.615884	0.090187	0.909577
	H87	H	0.390180	0.912628	0.908049
	H88	H	0.914662	0.095163	0.606388
	H89	H	0.084232	0.096771	0.382028
	H90	H	0.089888	0.899714	0.612400
	H91	H	0.914512	0.920063	0.384923
	H92	H	0.095084	0.617604	0.903587
	H93	H	0.099412	0.387687	0.085658
	H94	H	0.919071	0.612853	0.084689
	H95	H	0.913534	0.390686	0.909160
	H96	H	0.409334	0.115815	0.583323
	H97	H	0.587621	0.890465	0.593766
	H98	H	0.588502	0.115815	0.405430
	H99	H	0.416702	0.891612	0.407705
	H100	H	0.590279	0.417771	0.107132
	H101	H	0.593930	0.592786	0.883403
	H102	H	0.411184	0.588935	0.109009
	H103	H	0.416286	0.407505	0.883782
	H104	H	0.116283	0.594327	0.403139
	H105	H	0.886684	0.593945	0.589019
	H106	H	0.115991	0.412299	0.586106
	H107	H	0.886469	0.415678	0.402242
	H108	H	0.914826	0.611627	0.078935
	H109	H	0.085459	0.390929	0.091481
	H110	H	0.091518	0.615545	0.905501
	H111	H	0.912749	0.389115	0.905692
	H112	H	0.104252	0.919639	0.610071
	H113	H	0.097250	0.092708	0.378967
	H114	H	0.912552	0.088759	0.606105
	H115	H	0.918322	0.913237	0.384337
	H116	H	0.616029	0.090449	0.907512
	H117	H	0.392080	0.092989	0.083970
	H118	H	0.613060	0.919271	0.081453
	H119	H	0.389091	0.912460	0.905027
	C120	C	0.380408	0.011813	0.618074
	C121	C	0.623426	0.996131	0.618004
	C122	C	0.623296	0.011350	0.375542
	C123	C	0.381172	0.994628	0.374253
	C124	C	0.623844	0.381856	0.004701
	C125	C	0.625352	0.624358	0.987921
	C126	C	0.382720	0.623653	0.005171
	C127	C	0.381688	0.380572	0.988563
	C128	C	0.009464	0.624540	0.374946
	C129	C	0.993257	0.624742	0.617191
	C130	C	0.010215	0.381356	0.617325
	C131	C	0.993474	0.382540	0.375108
	C132	C	0.881456	0.510471	0.117240
	C133	C	0.124065	0.494677	0.117835
	C134	C	0.125521	0.512012	0.873867
	C135	C	0.882038	0.494048	0.875238
	C136	C	0.123718	0.880693	0.503831
	C137	C	0.122039	0.123377	0.485806
	C138	C	0.879861	0.125586	0.503153
	C139	C	0.881269	0.882981	0.487134
	C140	C	0.511932	0.123303	0.876588
	C141	C	0.496177	0.124598	0.118228
	C142	C	0.512023	0.881708	0.117209
	C143	C	0.494356	0.880775	0.875184
	C144	C	0.380524	0.892745	0.676270
	C145	C	0.626870	0.113404	0.680067
	C146	C	0.627939	0.893877	0.313596
	C147	C	0.377682	0.112354	0.313230
	C148	C	0.683906	0.379137	0.885997
	C149	C	0.686086	0.626798	0.106285
	C150	C	0.324562	0.623788	0.885551
	C151	C	0.322692	0.379894	0.107838
	C152	C	0.891473	0.685926	0.370957
	C153	C	0.111554	0.685276	0.619513
	C154	C	0.891501	0.321558	0.620282
	C155	C	0.110739	0.319509	0.369868
	C156	C	0.891868	0.379256	0.678338
	C157	C	0.112390	0.626273	0.676029
	C158	C	0.891743	0.628042	0.313262
	C159	C	0.111360	0.378198	0.313074
	C160	C	0.381864	0.682062	0.885903
	C161	C	0.628626	0.685005	0.106293
	C162	C	0.626331	0.321468	0.886027
	C163	C	0.380304	0.321611	0.107730
	C164	C	0.685184	0.893646	0.371718
	C165	C	0.685144	0.113675	0.622098
	C166	C	0.322120	0.892750	0.618437
	C167	C	0.320433	0.112715	0.371781
	C168	C	0.876899	0.393563	0.180364
	C169	C	0.126681	0.612656	0.178655
	C170	C	0.127469	0.393964	0.813510
	C171	C	0.880664	0.613055	0.816524
	C172	C	0.184250	0.878182	0.385378
	C173	C	0.181270	0.124820	0.604860
	C174	C	0.816932	0.129903	0.386089
	C175	C	0.820008	0.880188	0.605319
	C176	C	0.393828	0.184229	0.873537
	C177	C	0.613756	0.186132	0.122238
	C178	C	0.394615	0.819618	0.121982
	C179	C	0.613356	0.821461	0.872869
	C180	C	0.393879	0.878265	0.178681
	C181	C	0.613598	0.128683	0.180438
	C182	C	0.392801	0.125548	0.816977
	C183	C	0.613116	0.879428	0.814889
	C184	C	0.873131	0.189155	0.386564
	C185	C	0.123980	0.183335	0.604606
	C186	C	0.126084	0.820638	0.385173
	C187	C	0.876860	0.821212	0.604884
	C188	C	0.184375	0.393237	0.872544
	C189	C	0.184863	0.612536	0.120739
	C190	C	0.819113	0.393175	0.122468
	C191	C	0.822191	0.612588	0.873851
	C192	C	0.404246	0.095168	0.594395
	C193	C	0.597796	0.914244	0.592032
	C194	C	0.596371	0.092839	0.402060
	C195	C	0.406846	0.912467	0.399866
	C196	C	0.597993	0.407674	0.086721
	C197	C	0.599975	0.599249	0.905497
	C198	C	0.407374	0.598950	0.088004
	C199	C	0.406486	0.405228	0.905908
	C200	C	0.092095	0.599083	0.400861
	C201	C	0.910430	0.599804	0.592709
	C202	C	0.092609	0.406484	0.591213
	C203	C	0.911607	0.409482	0.401967
	C204	C	0.907900	0.591757	0.090478
	C205	C	0.098395	0.412625	0.092194
	C206	C	0.101053	0.594695	0.898669
	C207	C	0.907211	0.411766	0.900189
	C208	C	0.098693	0.905813	0.586447
	C209	C	0.096918	0.098362	0.403254
	C210	C	0.907451	0.098955	0.584424
	C211	C	0.907377	0.908505	0.405207
	C212	C	0.594655	0.098078	0.901579
	C213	C	0.413769	0.098765	0.092094
	C214	C	0.594104	0.907641	0.091235
	C215	C	0.411190	0.904899	0.899694
	Zn216	Zn	0.502453	0.003247	0.747454
	Zn217	Zn	0.503370	0.003028	0.246212
	Zn218	Zn	0.752790	0.502012	-0.003914
	Zn219	Zn	0.253545	0.502680	-0.003242
	Zn220	Zn	0.001350	0.752966	0.495071
	Zn221	Zn	0.001618	0.253266	0.495090
	Zn222	Zn	0.002586	0.503193	0.745621
	Zn223	Zn	0.001500	0.503494	0.246764
	Zn224	Zn	0.503810	0.752575	-0.003069
	Zn225	Zn	0.503851	0.252614	-0.003302
	Zn226	Zn	0.751895	0.004083	0.495979
	Zn227	Zn	0.251891	0.002602	0.495181
	N228	N	0.415735	0.967985	0.676320
	N229	N	0.589369	0.039307	0.677784
	N230	N	0.590544	0.968189	0.315596
	N231	N	0.414619	0.037830	0.314563
	N232	N	0.682796	0.415657	0.960888
	N233	N	0.684245	0.589734	0.031671
	N234	N	0.324687	0.588299	0.960863
	N235	N	0.323156	0.415488	0.032598
	N236	N	0.965851	0.683827	0.408471
	N237	N	0.036294	0.684537	0.583697
	N238	N	0.966290	0.322553	0.583221
	N239	N	0.036405	0.322030	0.407529
	N240	N	0.966849	0.415698	0.676717
	N241	N	0.037752	0.589244	0.674796
	N242	N	0.966178	0.590596	0.315889
	N243	N	0.037253	0.416521	0.316223
	N244	N	0.416986	0.682276	0.961402
	N245	N	0.591810	0.683718	0.031620
	N246	N	0.589788	0.322862	0.960895
	N247	N	0.415965	0.321645	0.032501
	N248	N	0.682574	0.967797	0.409360
	N249	N	0.683097	0.039572	0.584235
	N250	N	0.321807	0.967944	0.583145
	N251	N	0.322427	0.038364	0.408938
	N252	N	0.914882	0.467332	0.177232
	N253	N	0.089555	0.538396	0.176956
	N254	N	0.091579	0.468827	0.814317
	N255	N	0.917127	0.538359	0.817400
	N256	N	0.182867	0.914816	0.460133
	N257	N	0.180320	0.088322	0.530086
	N258	N	0.820894	0.091032	0.459599
	N259	N	0.822723	0.917956	0.531218
	N260	N	0.468852	0.182863	0.909970
	N261	N	0.539484	0.183742	0.084278
	N262	N	0.468940	0.821679	0.084706
	N263	N	0.538526	0.822471	0.909688
	N264	N	0.468083	0.916419	0.176086
	N265	N	0.539337	0.091167	0.178002
	N266	N	0.467351	0.088339	0.818732
	N267	N	0.538053	0.915470	0.816093
	N268	N	0.911705	0.186452	0.460335
	N269	N	0.087989	0.182646	0.529523
	N270	N	0.089145	0.822041	0.459943
	N271	N	0.913926	0.822713	0.530457
	N272	N	0.183465	0.467881	0.909244
	N273	N	0.183551	0.538017	0.083762
	N274	N	0.821755	0.466808	0.083919
	N275	N	0.822711	0.537550	0.909429
	O276	O	0.206438	0.094742	0.005396
	H277	H	0.210845	0.095150	-0.013218
	H278	H	0.186938	0.107674	0.011211
	O279	O	0.523089	0.657633	0.707447
	H280	H	0.530715	0.661241	0.709254
	H281	H	0.545353	0.677649	0.717601
	O282	O	1.118521	0.918630	-0.201961
	H283	H	1.093204	0.913582	-0.211018
	H284	H	1.127424	0.949192	-0.207581
	O285	O	0.707089	0.702936	0.699814
	H286	H	0.708497	0.691512	0.675028
	H287	H	0.729643	0.726863	0.692573
	O288	O	-0.301853	0.478712	0.290932
	H289	H	-0.280108	0.477274	0.267588
	H290	H	-0.315719	0.449763	0.301387
	O291	O	1.217055	0.969530	0.778216
	H292	H	1.204504	0.970104	0.770050
	H293	H	1.234130	0.973048	0.757335
	O294	O	-0.032699	1.154305	-0.215901
	H295	H	-0.034239	1.157483	-0.188999
	H296	H	-0.043038	1.176300	-0.239076
	O297	O	0.198670	0.201725	1.142809
	H298	H	0.182933	0.203473	1.149128
	H299	H	0.209496	0.180885	1.143184
	O300	O	0.421552	0.605224	0.366031
	H301	H	0.421323	0.608991	0.366172
	H302	H	0.406500	0.611812	0.372031
	O303	O	0.503923	0.558969	0.613939
	H304	H	0.477138	0.577064	0.617087
	H305	H	0.517950	0.575222	0.638635
	O306	O	0.049896	0.921872	0.859071
	H307	H	0.053088	0.912874	0.842354
	H308	H	0.040950	0.932948	0.855402
	O309	O	0.796927	0.800699	0.197424
	H310	H	0.843841	0.791202	0.210219
	H311	H	0.794870	0.844781	0.201944
	O312	O	0.659918	0.577212	0.635905
	H313	H	0.662073	0.597511	0.635460
	H314	H	0.670993	0.600094	0.642724
	O315	O	-0.056516	0.029657	1.050109
	H316	H	-0.034973	0.024028	1.046610
	H317	H	-0.065284	0.020491	1.037724
	O318	O	0.187599	1.182899	0.010187
	H319	H	0.174685	1.175449	0.046916
	H320	H	0.217549	1.205682	0.011931
	O321	O	0.476397	0.370317	0.495548
	H322	H	0.477092	0.398964	0.501134
	H323	H	0.497448	0.361090	0.512993
	O324	O	0.790550	0.028172	0.798862
	H325	H	0.779959	0.044738	0.803959
	H326	H	0.772186	0.038271	0.800312
	O327	O	0.919586	-0.141889	0.957652
	H328	H	0.910706	-0.147548	0.969458
	H329	H	0.918192	-0.148724	0.963412
	O330	O	0.936811	0.055220	0.191457
	H331	H	0.943486	0.062511	0.180905
	H332	H	0.964565	0.034923	0.188712
	O333	O	0.329565	0.691675	0.322547
	H334	H	0.335741	0.700710	0.354976
	H335	H	0.340974	0.678927	0.313031
	O336	O	0.990107	-0.172293	0.817714
	H337	H	0.971486	-0.175455	0.804828
	H338	H	0.974613	-0.160095	0.816864
	O339	O	0.586221	0.339320	0.630380
	H340	H	0.599538	0.327290	0.637365
	H341	H	0.595977	0.352305	0.628098
	O342	O	0.610448	0.452138	0.504803
	H343	H	0.608732	0.463621	0.503194
	H344	H	0.618460	0.471976	0.504106
	O345	O	-0.002719	0.101451	-0.097715
	H346	H	-0.008243	0.111393	-0.097071
	H347	H	-0.001162	0.104941	-0.087094
	O348	O	0.747539	0.217982	0.743551
	H349	H	0.750606	0.206923	0.745127
	H350	H	0.741150	0.220875	0.773733
	O351	O	1.064020	1.214700	-0.076056
	H352	H	1.053461	1.205954	-0.069674
	H353	H	1.076873	1.214998	-0.068711
	O354	O	0.340760	0.558405	0.574623
	H355	H	0.343908	0.545556	0.561932
	H356	H	0.341448	0.564912	0.588078
	O357	O	0.887174	1.159811	1.071301
	H358	H	0.887112	1.140784	1.063199
	H359	H	0.885787	1.157600	1.092049
	O360	O	0.388602	0.715734	0.373392
	H361	H	0.397054	0.706586	0.357216
	H362	H	0.382984	0.714361	0.363130
	O363	O	0.500057	0.467152	0.434546
	H364	H	0.507274	0.465878	0.445089
	H365	H	0.503541	0.483202	0.441730
	O366	O	0.866728	-0.048227	0.970531
	H367	H	0.868429	-0.052010	0.965354
	H368	H	0.874973	-0.055610	0.973600
	O369	O	0.709191	0.614365	0.451408
	H370	H	0.703605	0.597535	0.427098
	H371	H	0.702002	0.619850	0.445569
	O372	O	0.425062	0.306166	0.326081
	H373	H	0.423971	0.305688	0.342677
	H374	H	0.426650	0.306357	0.339456
	O375	O	-0.708838	1.443293	1.427899
	H376	H	-0.701751	1.436283	1.427939
	H377	H	-0.705284	1.436442	1.427759
	O378	O	0.473924	0.314243	0.593534
	H379	H	0.489132	0.318685	0.583768
	H380	H	0.482081	0.318284	0.590501
	O381	O	1.509540	-0.498059	-0.315358
	H382	H	1.511007	-0.485888	-0.310966
	H383	H	1.498496	-0.495937	-0.296456
	O384	O	0.212595	0.022585	1.148215
	H385	H	0.230020	0.023848	1.168144
	H386	H	0.213505	0.030666	1.121931
	O387	O	-0.046885	0.798937	1.202415
	H388	H	-0.038472	0.802381	1.210761
	H389	H	-0.020124	0.798626	1.192058
	O390	O	0.116413	0.075086	0.956174
	H391	H	0.115550	0.078790	0.943952
	H392	H	0.119470	0.068281	0.951418
	O393	O	1.215513	0.785622	-0.032393
	H394	H	1.217222	0.788394	-0.053155
	H395	H	1.230334	0.769846	-0.032345
	O396	O	1.101753	0.867913	0.043328
	H397	H	1.110708	0.866439	0.028796
	H398	H	1.107570	0.874702	0.024159
	O399	O	0.809632	0.854049	0.854870
	H400	H	0.818228	0.857793	0.877521
	H401	H	0.811513	0.861589	0.857750
	O402	O	0.065848	0.175427	1.207641
	H403	H	0.050969	0.168792	1.208603
	H404	H	0.064430	0.168865	1.231657
	O405	O	-0.212219	-0.021771	0.211550
	H406	H	-0.211369	-0.008439	0.219647
	H407	H	-0.221007	-0.008504	0.225385
	O408	O	1.177230	0.839707	1.144692
	H409	H	1.184253	0.833257	1.133346
	H410	H	1.190798	0.835453	1.137007
	O411	O	0.302269	0.684860	0.562721
	H412	H	0.277663	0.705341	0.580159
	H413	H	0.303782	0.670802	0.556147
	O414	O	0.290816	0.299180	0.523174
	H415	H	0.309570	0.291228	0.515720
	H416	H	0.286565	0.296259	0.525511
	O417	O	0.590149	0.614547	0.310354
	H418	H	0.612724	0.609691	0.303761
	H419	H	0.573945	0.602128	0.316333
	O420	O	0.679128	0.705429	0.523286
	H421	H	0.689350	0.717083	0.515318
	H422	H	0.673178	0.692483	0.505839
	O423	O	-0.506877	0.407766	0.381580
	H424	H	-0.509159	0.416213	0.389315
	H425	H	-0.497706	0.403994	0.375507
	O426	O	1.125113	0.944357	1.012832
	H427	H	1.119892	0.942697	1.008039
	H428	H	1.136318	0.958503	1.016862
	O429	O	-0.131430	0.084521	0.038473
	H430	H	-0.119468	0.102186	0.043624
	H431	H	-0.129163	0.077953	0.042757
	O432	O	0.482909	0.639975	0.469668
	H433	H	0.477421	0.648801	0.477093
	H434	H	0.456186	0.651628	0.470878
	O435	O	0.287639	-0.277854	-0.308596
	H436	H	0.288263	-0.277938	-0.296568
	H437	H	0.271721	-0.285021	-0.294776
	O438	O	1.084567	-0.049889	0.195243
	H439	H	1.097949	-0.052221	0.191668
	H440	H	1.092919	-0.055936	0.182892
	O441	O	0.307487	0.472373	0.705597
	H442	H	0.294526	0.468265	0.715713
	H443	H	0.303852	0.449129	0.707925
	O444	O	0.007432	1.074839	0.789639
	H445	H	-0.006101	1.092498	0.783658
	H446	H	0.002132	1.081344	0.808946
	O447	O	0.674783	0.325926	0.313909
	H448	H	0.678116	0.320628	0.347329
	H449	H	0.631297	0.321449	0.302980
	O450	O	0.299279	0.297993	0.694079
	H451	H	0.315765	0.303255	0.667234
	H452	H	0.302112	0.290387	0.699764
	O453	O	0.710633	0.506037	0.584444
	H454	H	0.704804	0.510427	0.598566
	H455	H	0.698662	0.503653	0.584604
	O456	O	0.793331	0.214494	-0.065138
	H457	H	0.802644	0.225609	-0.045446
	H458	H	0.793743	0.235846	-0.051335
	O459	O	0.708200	0.299400	0.476402
	H460	H	0.720233	0.321947	0.488583
	H461	H	0.721156	0.287167	0.471951
	O462	O	0.301184	0.524292	0.290226
	H463	H	0.296360	0.524624	0.276965
	H464	H	0.290919	0.534738	0.301056
	O465	O	0.826251	-0.201724	0.018577
	H466	H	0.811128	-0.214414	0.045574
	H467	H	0.824820	-0.205458	0.044837
