data_Molecule from HDF5

_cell_length_a		16.486081
_cell_length_b		16.494521
_cell_length_c		16.515019
_cell_angle_alpha	90.123363
_cell_angle_beta	89.993989
_cell_angle_gamma	90.014796
_symmetry_space_group_name_H-M	'P 1'
_symmetry_Int_Tables_number		1

loop_
	_symmetry_equiv_pos_as_xyz
	x,y,z

loop_
	_atom_site_label
	_atom_site_type_symbol
	_atom_site_fract_x
	_atom_site_fract_y
	_atom_site_fract_z
	H0	H	0.390396	0.852311	0.720067
	H1	H	0.602176	0.165656	0.718133
	H2	H	0.606691	0.852139	0.273271
	H3	H	0.393029	0.165126	0.274298
	H4	H	0.720835	0.402251	0.839825
	H5	H	0.720961	0.615929	0.153901
	H6	H	0.272533	0.617878	0.842503
	H7	H	0.275629	0.403943	0.153499
	H8	H	0.839889	0.729207	0.394456
	H9	H	0.154513	0.733427	0.606959
	H10	H	0.841500	0.288051	0.602830
	H11	H	0.155187	0.287316	0.391360
	H12	H	0.840190	0.405760	0.717574
	H13	H	0.153705	0.617848	0.722999
	H14	H	0.839672	0.613411	0.278012
	H15	H	0.153874	0.401935	0.273380
	H16	H	0.389223	0.733860	0.841992
	H17	H	0.607916	0.735156	0.152584
	H18	H	0.602883	0.287415	0.838508
	H19	H	0.391972	0.287317	0.152903
	H20	H	0.721017	0.850866	0.391708
	H21	H	0.716856	0.166931	0.600569
	H22	H	0.273378	0.852616	0.604629
	H23	H	0.273336	0.163732	0.387190
	H24	H	0.893908	0.351037	0.216726
	H25	H	0.105105	0.665798	0.222096
	H26	H	0.105202	0.353180	0.774410
	H27	H	0.887933	0.665560	0.773187
	H28	H	0.221333	0.901173	0.340675
	H29	H	0.222036	0.115818	0.653935
	H30	H	0.778710	0.112568	0.340338
	H31	H	0.777903	0.904710	0.655588
	H32	H	0.339825	0.231402	0.887246
	H33	H	0.655219	0.228643	0.098170
	H34	H	0.341828	0.784720	0.105231
	H35	H	0.656322	0.786962	0.891127
	H36	H	0.342549	0.899474	0.222664
	H37	H	0.656134	0.112879	0.215074
	H38	H	0.340174	0.114461	0.773350
	H39	H	0.655422	0.902000	0.774304
	H40	H	0.894623	0.229379	0.340939
	H41	H	0.105313	0.231037	0.655220
	H42	H	0.105032	0.785601	0.340354
	H43	H	0.893425	0.788873	0.655472
	H44	H	0.220703	0.353458	0.889335
	H45	H	0.222887	0.665298	0.108330
	H46	H	0.778578	0.350049	0.098774
	H47	H	0.775644	0.667028	0.892474
	H48	H	0.410045	0.118932	0.580365
	H49	H	0.587265	0.895498	0.584705
	H50	H	0.590361	0.120465	0.409234
	H51	H	0.408359	0.895551	0.409974
	H52	H	0.586987	0.414802	0.109811
	H53	H	0.582326	0.591985	0.889210
	H54	H	0.416499	0.599897	0.108378
	H55	H	0.408046	0.421386	0.883606
	H56	H	0.107493	0.591469	0.411382
	H57	H	0.883269	0.603263	0.588308
	H58	H	0.110970	0.426151	0.589612
	H59	H	0.887420	0.424219	0.412310
	H60	H	0.113642	0.415769	0.588989
	H61	H	0.888742	0.598119	0.578909
	H62	H	0.111745	0.596815	0.403634
	H63	H	0.883548	0.420402	0.402150
	H64	H	0.407054	0.598058	0.111320
	H65	H	0.582743	0.604921	0.883960
	H66	H	0.591252	0.420970	0.109948
	H67	H	0.409322	0.420626	0.884432
	H68	H	0.591875	0.123133	0.404297
	H69	H	0.589039	0.895051	0.585300
	H70	H	0.407970	0.121772	0.587621
	H71	H	0.414113	0.897543	0.406735
	H72	H	0.910339	0.621771	0.089040
	H73	H	0.086131	0.399163	0.082841
	H74	H	0.085734	0.621906	0.910641
	H75	H	0.905404	0.396022	0.909450
	H76	H	0.087465	0.922535	0.608652
	H77	H	0.088822	0.096689	0.385575
	H78	H	0.909666	0.098320	0.610567
	H79	H	0.912236	0.917705	0.384745
	H80	H	0.610969	0.096915	0.904346
	H81	H	0.384116	0.095726	0.087075
	H82	H	0.608958	0.919278	0.079413
	H83	H	0.385535	0.918978	0.908408
	H84	H	0.606940	0.928012	0.083177
	H85	H	0.383980	0.099347	0.086596
	H86	H	0.610149	0.100657	0.907357
	H87	H	0.388302	0.921530	0.911474
	H88	H	0.908813	0.100771	0.611316
	H89	H	0.084111	0.095199	0.386901
	H90	H	0.084964	0.923220	0.607915
	H91	H	0.907024	0.918582	0.384498
	H92	H	0.080749	0.620927	0.910957
	H93	H	0.088181	0.397164	0.086619
	H94	H	0.908163	0.622418	0.085123
	H95	H	0.908486	0.395497	0.902908
	H96	H	0.415571	0.119504	0.586435
	H97	H	0.587229	0.895027	0.586374
	H98	H	0.586365	0.120826	0.404665
	H99	H	0.413435	0.899075	0.413409
	H100	H	0.583989	0.421143	0.106928
	H101	H	0.593963	0.596645	0.882946
	H102	H	0.411999	0.591009	0.105524
	H103	H	0.407925	0.419618	0.883860
	H104	H	0.110784	0.601894	0.413266
	H105	H	0.887301	0.592049	0.588356
	H106	H	0.109075	0.421089	0.581061
	H107	H	0.884051	0.413515	0.410878
	H108	H	0.905882	0.623097	0.088925
	H109	H	0.083721	0.398201	0.086595
	H110	H	0.083813	0.619031	0.915016
	H111	H	0.912606	0.398703	0.908750
	H112	H	0.085422	0.920866	0.608975
	H113	H	0.084985	0.099946	0.385047
	H114	H	0.907102	0.099022	0.612176
	H115	H	0.910145	0.922597	0.386470
	H116	H	0.607974	0.096637	0.908644
	H117	H	0.385432	0.097374	0.084102
	H118	H	0.611307	0.921154	0.088583
	H119	H	0.387095	0.923095	0.907586
	C120	C	0.376936	0.016763	0.618092
	C121	C	0.619086	1.000015	0.617409
	C122	C	0.621583	0.017017	0.374477
	C123	C	0.378155	1.000501	0.376032
	C124	C	0.619115	0.387024	0.004708
	C125	C	0.619963	0.630817	0.988681
	C126	C	0.377008	0.630551	0.005996
	C127	C	0.375852	0.388001	0.987883
	C128	C	0.006087	0.629435	0.377160
	C129	C	0.989400	0.631493	0.619384
	C130	C	0.007054	0.388662	0.618714
	C131	C	0.988971	0.386695	0.375640
	C132	C	0.876336	0.517622	0.118642
	C133	C	0.119564	0.501272	0.119736
	C134	C	0.117438	0.517607	0.877800
	C135	C	0.875771	0.500820	0.875237
	C136	C	0.119686	0.887978	0.505375
	C137	C	0.119938	0.130531	0.489151
	C138	C	0.877299	0.130504	0.506879
	C139	C	0.877179	0.887744	0.489096
	C140	C	0.505454	0.130331	0.874258
	C141	C	0.488941	0.129667	0.117105
	C142	C	0.506614	0.887918	0.118339
	C143	C	0.490152	0.887680	0.875836
	C144	C	0.372840	0.899074	0.679358
	C145	C	0.620839	0.118342	0.677724
	C146	C	0.624443	0.899021	0.313907
	C147	C	0.374574	0.118097	0.314503
	C148	C	0.680045	0.384546	0.886716
	C149	C	0.680873	0.634093	0.106734
	C150	C	0.313810	0.635404	0.889016
	C151	C	0.315938	0.385663	0.106307
	C152	C	0.887569	0.689629	0.375448
	C153	C	0.107517	0.692846	0.623887
	C154	C	0.888538	0.328451	0.620850
	C155	C	0.107774	0.326960	0.372932
	C156	C	0.888038	0.386876	0.678075
	C157	C	0.107060	0.635443	0.681744
	C158	C	0.887449	0.631813	0.317472
	C159	C	0.106976	0.383691	0.314113
	C160	C	0.371838	0.693123	0.888800
	C161	C	0.624516	0.693443	0.106015
	C162	C	0.621514	0.327133	0.886199
	C163	C	0.373500	0.327516	0.105907
	C164	C	0.681604	0.898423	0.372592
	C165	C	0.677614	0.119290	0.618961
	C166	C	0.314732	0.899431	0.621787
	C167	C	0.315254	0.117371	0.370843
	C168	C	0.874923	0.398406	0.177385
	C169	C	0.122906	0.618719	0.181615
	C170	C	0.122004	0.400363	0.815248
	C171	C	0.871693	0.618905	0.814540
	C172	C	0.180958	0.883646	0.387696
	C173	C	0.181669	0.133880	0.606881
	C174	C	0.817968	0.131976	0.388026
	C175	C	0.817466	0.886134	0.608031
	C176	C	0.387360	0.190919	0.870490
	C177	C	0.607932	0.189241	0.117772
	C178	C	0.389136	0.825285	0.122997
	C179	C	0.608579	0.826869	0.872815
	C180	C	0.389386	0.882409	0.181544
	C181	C	0.608261	0.131720	0.175754
	C182	C	0.387635	0.132805	0.813187
	C183	C	0.608244	0.883887	0.814401
	C184	C	0.876043	0.189589	0.388043
	C185	C	0.123357	0.191208	0.607522
	C186	C	0.123181	0.825781	0.387896
	C187	C	0.875072	0.828564	0.608140
	C188	C	0.179884	0.400473	0.872693
	C189	C	0.181758	0.618583	0.124836
	C190	C	0.817911	0.397965	0.118765
	C191	C	0.815294	0.619426	0.873703
	C192	C	0.403558	0.098703	0.592184
	C193	C	0.594854	0.916960	0.592641
	C194	C	0.596638	0.099888	0.399051
	C195	C	0.404524	0.918709	0.402501
	C196	C	0.594277	0.411733	0.087371
	C197	C	0.593834	0.605099	0.906646
	C198	C	0.404056	0.603792	0.087315
	C199	C	0.401143	0.413382	0.905597
	C200	C	0.088568	0.603927	0.402299
	C201	C	0.907817	0.605266	0.592721
	C202	C	0.089738	0.413864	0.593670
	C203	C	0.906573	0.412025	0.401218
	C204	C	0.900817	0.600625	0.094814
	C205	C	0.093474	0.419355	0.093003
	C206	C	0.090893	0.599386	0.904681
	C207	C	0.901555	0.418242	0.899957
	C208	C	0.093602	0.914698	0.587137
	C209	C	0.093646	0.104715	0.407271
	C210	C	0.901598	0.106326	0.589701
	C211	C	0.902409	0.912460	0.406755
	C212	C	0.588258	0.105260	0.899721
	C213	C	0.406132	0.104601	0.092895
	C214	C	0.587859	0.914946	0.091493
	C215	C	0.408275	0.913653	0.901729
	Zn216	Zn	0.498077	0.007941	0.746508
	Zn217	Zn	0.498575	0.008692	0.246674
	Zn218	Zn	0.748394	0.508693	-0.003001
	Zn219	Zn	0.247494	0.510248	-0.002312
	Zn220	Zn	-0.001717	0.759248	0.498375
	Zn221	Zn	-0.000905	0.259377	0.498104
	Zn222	Zn	-0.002032	0.510199	0.747743
	Zn223	Zn	-0.002410	0.509042	0.247540
	Zn224	Zn	0.498242	0.759212	-0.002755
	Zn225	Zn	0.496659	0.258301	-0.004421
	Zn226	Zn	0.748818	0.008432	0.497618
	Zn227	Zn	0.248502	0.008807	0.496700
	N228	N	0.410839	0.973026	0.677066
	N229	N	0.585417	0.043042	0.677064
	N230	N	0.587926	0.973837	0.314868
	N231	N	0.412919	0.044338	0.317634
	N232	N	0.678698	0.421190	0.961506
	N233	N	0.678059	0.595837	0.032858
	N234	N	0.316953	0.597299	0.962875
	N235	N	0.317072	0.422366	0.031705
	N236	N	0.962502	0.688297	0.411928
	N237	N	0.033377	0.690599	0.585864
	N238	N	0.963631	0.329419	0.584717
	N239	N	0.033379	0.328469	0.410146
	N240	N	0.962809	0.423537	0.677059
	N241	N	0.032657	0.598203	0.679307
	N242	N	0.962250	0.595266	0.318235
	N243	N	0.032083	0.420229	0.315534
	N244	N	0.410587	0.690148	0.962384
	N245	N	0.587331	0.691552	0.031556
	N246	N	0.584208	0.328592	0.960444
	N247	N	0.410052	0.328876	0.031314
	N248	N	0.680014	0.973166	0.409480
	N249	N	0.676769	0.044446	0.582266
	N250	N	0.317362	0.973782	0.584276
	N251	N	0.317256	0.043122	0.408356
	N252	N	0.910334	0.473886	0.177647
	N253	N	0.085024	0.544618	0.178602
	N254	N	0.083855	0.474404	0.818169
	N255	N	0.908540	0.544081	0.815264
	N256	N	0.178974	0.921437	0.461857
	N257	N	0.179994	0.097095	0.532150
	N258	N	0.818557	0.096009	0.462945
	N259	N	0.818361	0.922038	0.532949
	N260	N	0.461902	0.189592	0.907630
	N261	N	0.532663	0.188209	0.082069
	N262	N	0.462893	0.828404	0.084472
	N263	N	0.534068	0.828826	0.910236
	N264	N	0.463392	0.920567	0.178625
	N265	N	0.533206	0.095533	0.175782
	N266	N	0.462168	0.095593	0.815476
	N267	N	0.533545	0.920864	0.815946
	N268	N	0.912033	0.189111	0.463086
	N269	N	0.085774	0.189355	0.533304
	N270	N	0.085955	0.828226	0.462325
	N271	N	0.911470	0.829312	0.533286
	N272	N	0.176970	0.474358	0.911121
	N273	N	0.179610	0.544450	0.086928
	N274	N	0.818269	0.473304	0.083456
	N275	N	0.817837	0.544884	0.910646
	O276	O	0.314145	0.369483	0.314004
	H277	H	0.307511	0.360027	0.302940
	H278	H	0.318113	0.359884	0.323698
	O279	O	0.475742	0.410352	0.334592
	H280	H	0.465542	0.399592	0.328772
	H281	H	0.490877	0.414099	0.345889
	O282	O	1.076575	0.810612	0.071871
	H283	H	1.064766	0.806679	0.068750
	H284	H	1.110747	0.810065	0.059672
	O285	O	0.354272	0.282198	0.493716
	H286	H	0.365603	0.291040	0.484140
	H287	H	0.356442	0.268253	0.474221
	O288	O	-0.000032	0.119359	-0.134896
	H289	H	0.008460	0.124947	-0.141532
	H290	H	0.009627	0.117669	-0.115046
	O291	O	1.680118	0.543407	0.483361
	H292	H	1.670637	0.547469	0.475412
	H293	H	1.695790	0.534209	0.473665
	O294	O	0.198639	1.205723	0.167821
	H295	H	0.206251	1.164834	0.172369
	H296	H	0.183644	1.207638	0.141053
	O297	O	0.292637	0.412779	0.542316
	H298	H	0.280095	0.393753	0.547356
	H299	H	0.313530	0.402686	0.522699
	O300	O	0.673294	0.408093	0.555894
	H301	H	0.674421	0.417955	0.575151
	H302	H	0.670413	0.418974	0.544508
	O303	O	0.371414	0.630840	0.551540
	H304	H	0.365318	0.635758	0.563469
	H305	H	0.359524	0.627552	0.543823
	O306	O	-0.028424	1.135335	1.151717
	H307	H	-0.014405	1.150227	1.147027
	H308	H	-0.026637	1.133876	1.159176
	O309	O	0.492944	0.732242	0.498853
	H310	H	0.501435	0.731612	0.512606
	H311	H	0.488951	0.733738	0.484316
	O312	O	0.712074	0.529188	0.712850
	H313	H	0.708295	0.560863	0.713540
	H314	H	0.732588	0.553884	0.731894
	O315	O	0.011995	0.136018	1.152020
	H316	H	0.014969	0.126360	1.161099
	H317	H	0.009149	0.139576	1.164487
	O318	O	-0.175085	1.182354	0.183339
	H319	H	-0.168554	1.165514	0.170333
	H320	H	-0.174659	1.180455	0.195324
	O321	O	0.705921	0.343899	0.292446
	H322	H	0.714450	0.330614	0.276325
	H323	H	0.691782	0.344063	0.310828
	O324	O	0.915162	-0.026679	0.841611
	H325	H	0.902851	-0.000260	0.851255
	H326	H	0.919641	-0.004842	0.834940
	O327	O	0.899656	-0.024943	1.009561
	H328	H	0.897114	-0.020983	1.006466
	H329	H	0.884962	-0.037327	0.996461
	O330	O	0.793853	0.207812	-0.198624
	H331	H	0.810090	0.200968	-0.206150
	H332	H	0.786616	0.223453	-0.191620
	O333	O	0.691423	0.696142	0.627255
	H334	H	0.663607	0.703911	0.626874
	H335	H	0.703239	0.710341	0.595360
	O336	O	0.959023	0.223341	0.787125
	H337	H	0.968674	0.232584	0.788242
	H338	H	0.956666	0.232196	0.777847
	O339	O	0.316846	0.353875	0.686181
	H340	H	0.303456	0.352128	0.654442
	H341	H	0.333933	0.349935	0.682623
	O342	O	0.719019	0.487392	0.324649
	H343	H	0.729205	0.469269	0.312584
	H344	H	0.723767	0.487673	0.302579
	O345	O	0.211764	0.188646	0.001977
	H346	H	0.231068	0.195994	-0.005633
	H347	H	0.209435	0.186493	0.008145
	O348	O	0.973133	-0.199369	1.208813
	H349	H	0.973531	-0.206174	1.196921
	H350	H	0.981262	-0.216344	1.222308
	O351	O	1.164503	0.925219	-0.138612
	H352	H	1.172495	0.931099	-0.150786
	H353	H	1.133089	0.913134	-0.137138
	O354	O	0.533708	0.514504	0.323669
	H355	H	0.553946	0.496459	0.326761
	H356	H	0.532270	0.519418	0.320176
	O357	O	1.018394	0.797292	0.787760
	H358	H	1.008537	0.785687	0.778557
	H359	H	1.002247	0.796854	0.785544
	O360	O	0.317153	0.699319	0.311136
	H361	H	0.333572	0.707363	0.333471
	H362	H	0.311149	0.653229	0.310440
	O363	O	0.487546	0.314440	0.706509
	H364	H	0.466141	0.307509	0.708722
	H365	H	0.500622	0.321411	0.717915
	O366	O	0.874632	0.061752	0.783016
	H367	H	0.874408	0.084489	0.780942
	H368	H	0.857220	0.068829	0.781799
	O369	O	0.281545	0.727088	0.472725
	H370	H	0.292684	0.722383	0.467083
	H371	H	0.250387	0.746320	0.474097
	O372	O	0.290702	0.530913	0.286553
	H373	H	0.287661	0.510446	0.284299
	H374	H	0.273392	0.526506	0.282645
	O375	O	0.045801	1.055588	1.023958
	H376	H	0.030171	1.061459	1.025890
	H377	H	0.039745	1.062570	1.034019
	O378	O	0.492412	0.314964	0.448554
	H379	H	0.479776	0.316895	0.435581
	H380	H	0.508295	0.316071	0.448014
	O381	O	1.297759	-0.268443	-0.258082
	H382	H	1.306212	-0.267670	-0.256337
	H383	H	1.276158	-0.274781	-0.258719
	O384	O	0.041762	-0.187302	0.942986
	H385	H	0.047822	-0.172101	0.931839
	H386	H	0.069954	-0.200858	0.954707
	O387	O	-0.190502	0.818036	1.190010
	H388	H	-0.188964	0.809543	1.164813
	H389	H	-0.176089	0.802697	1.189297
	O390	O	-0.092500	-0.061533	0.895160
	H391	H	-0.090544	-0.052591	0.891359
	H392	H	-0.101081	-0.050271	0.904327
	O393	O	0.790652	0.982151	0.205897
	H394	H	0.792779	0.952687	0.201278
	H395	H	0.770969	0.965565	0.230178
	O396	O	0.580813	0.333477	0.556106
	H397	H	0.576760	0.346095	0.552951
	H398	H	0.574205	0.345742	0.558255
	O399	O	0.774129	0.922054	0.911582
	H400	H	0.760317	0.942080	0.917121
	H401	H	0.771719	0.931096	0.908347
	O402	O	0.203833	0.008404	1.164801
	H403	H	0.217572	-0.002307	1.173446
	H404	H	0.178378	-0.014896	1.158790
	O405	O	0.083638	-0.075896	0.029750
	H406	H	0.076602	-0.081347	0.033143
	H407	H	0.088440	-0.087632	0.017468
	O408	O	0.911228	1.140728	0.966199
	H409	H	0.907120	1.125146	0.968386
	H410	H	0.899052	1.147278	0.978219
	O411	O	0.686770	0.691945	0.454185
	H412	H	0.686828	0.682449	0.438905
	H413	H	0.671768	0.703226	0.441306
	O414	O	0.312249	0.529864	0.545987
	H415	H	0.317873	0.519181	0.562399
	H416	H	0.313070	0.534109	0.553208
	O417	O	0.490771	0.500280	0.489517
	H418	H	0.483496	0.509679	0.483666
	H419	H	0.492994	0.495962	0.502448
	O420	O	0.711805	0.299249	0.469194
	H421	H	0.716560	0.280564	0.467853
	H422	H	0.724446	0.306678	0.483187
	O423	O	-0.409459	0.593992	0.306114
	H424	H	-0.426511	0.599161	0.315918
	H425	H	-0.417717	0.590348	0.312716
	O426	O	1.065935	0.946823	1.210633
	H427	H	1.054422	0.957812	1.208083
	H428	H	1.059381	0.920272	1.203953
	O429	O	0.059617	0.221674	-0.008264
	H430	H	0.057555	0.215903	0.010969
	H431	H	0.054535	0.222596	0.008476
	O432	O	0.550565	0.707804	0.682326
	H433	H	0.548262	0.737671	0.711310
	H434	H	0.527327	0.696525	0.664005
	O435	O	0.165214	0.047752	-0.037892
	H436	H	0.147676	0.053795	-0.032907
	H437	H	0.160949	0.053349	-0.026417
	O438	O	1.217348	-0.130648	-0.000470
	H439	H	1.216717	-0.111864	-0.010844
	H440	H	1.230874	-0.130690	-0.007418
	O441	O	0.316566	0.506991	0.701932
	H442	H	0.322982	0.490917	0.693529
	H443	H	0.311091	0.506479	0.718663
	O444	O	0.191178	0.981692	0.787425
	H445	H	0.196169	0.982535	0.773334
	H446	H	0.196847	0.979361	0.787914
	O447	O	0.484732	0.720260	0.284215
	H448	H	0.473758	0.700143	0.284368
	H449	H	0.474963	0.742840	0.268506
	O450	O	0.459238	0.573755	0.477789
	H451	H	0.454508	0.549897	0.473138
	H452	H	0.452704	0.577514	0.471468
	O453	O	0.530118	0.322453	0.322276
	H454	H	0.523419	0.320348	0.318195
	H455	H	0.527814	0.335636	0.323617
	O456	O	0.793687	0.162469	-0.024092
	H457	H	0.803623	0.166627	-0.032835
	H458	H	0.785407	0.165684	-0.036606
	O459	O	0.512493	0.501228	0.718956
	H460	H	0.526937	0.479572	0.725048
	H461	H	0.516768	0.510788	0.717269
	O462	O	0.532898	0.415452	0.600408
	H463	H	0.547578	0.412590	0.595023
	H464	H	0.534824	0.429792	0.603872
	O465	O	0.791684	-0.190253	0.015797
	H466	H	0.803027	-0.180823	0.005754
	H467	H	0.771965	-0.199846	0.012358
