data_Molecule from HDF5

_cell_length_a		16.418517
_cell_length_b		16.302181
_cell_length_c		16.330767
_cell_angle_alpha	89.898044
_cell_angle_beta	89.788933
_cell_angle_gamma	90.191968
_symmetry_space_group_name_H-M	'P 1'
_symmetry_Int_Tables_number		1

loop_
	_symmetry_equiv_pos_as_xyz
	x,y,z

loop_
	_atom_site_label
	_atom_site_type_symbol
	_atom_site_fract_x
	_atom_site_fract_y
	_atom_site_fract_z
	H0	H	0.401545	0.817500	0.710743
	H1	H	0.604838	0.141575	0.709821
	H2	H	0.605283	0.818033	0.276115
	H3	H	0.404616	0.141590	0.275790
	H4	H	0.722192	0.376644	0.832497
	H5	H	0.720023	0.582585	0.153940
	H6	H	0.286122	0.580846	0.831521
	H7	H	0.283078	0.375178	0.153544
	H8	H	0.842206	0.697047	0.393795
	H9	H	0.163643	0.698536	0.595022
	H10	H	0.843627	0.258638	0.597142
	H11	H	0.165051	0.264552	0.392693
	H12	H	0.841284	0.376403	0.711603
	H13	H	0.163466	0.582046	0.711460
	H14	H	0.841023	0.580504	0.277811
	H15	H	0.162875	0.377922	0.273697
	H16	H	0.401972	0.696713	0.831583
	H17	H	0.603157	0.697306	0.154017
	H18	H	0.602602	0.264580	0.830148
	H19	H	0.402314	0.262186	0.154331
	H20	H	0.720575	0.818496	0.392435
	H21	H	0.720633	0.141815	0.595061
	H22	H	0.282790	0.818820	0.598235
	H23	H	0.286204	0.141038	0.388916
	H24	H	0.897528	0.319022	0.213888
	H25	H	0.103292	0.641348	0.210132
	H26	H	0.104947	0.318448	0.773523
	H27	H	0.901477	0.641366	0.776747
	H28	H	0.224892	0.873686	0.332910
	H29	H	0.226318	0.086917	0.651892
	H30	H	0.784133	0.086347	0.333101
	H31	H	0.782861	0.876466	0.653964
	H32	H	0.343131	0.198898	0.888914
	H33	H	0.663307	0.198591	0.092935
	H34	H	0.343587	0.759141	0.098447
	H35	H	0.662679	0.760539	0.889194
	H36	H	0.345306	0.873057	0.216119
	H37	H	0.664219	0.083017	0.209431
	H38	H	0.343556	0.084267	0.771363
	H39	H	0.663488	0.877053	0.773935
	H40	H	0.902843	0.198930	0.332855
	H41	H	0.108717	0.200474	0.653148
	H42	H	0.106081	0.760910	0.331790
	H43	H	0.901688	0.762841	0.655300
	H44	H	0.221518	0.317843	0.887865
	H45	H	0.223189	0.638847	0.098334
	H46	H	0.782640	0.318329	0.097631
	H47	H	0.783745	0.639432	0.889346
	H48	H	0.411489	0.094276	0.581400
	H49	H	0.590309	0.867159	0.578818
	H50	H	0.590327	0.094167	0.399157
	H51	H	0.411397	0.865876	0.410358
	H52	H	0.588842	0.388547	0.107247
	H53	H	0.590519	0.565050	0.881419
	H54	H	0.407844	0.566969	0.108332
	H55	H	0.407154	0.386778	0.875200
	H56	H	0.116943	0.574814	0.406607
	H57	H	0.887715	0.569977	0.588405
	H58	H	0.116586	0.391906	0.584945
	H59	H	0.891495	0.387840	0.411439
	H60	H	0.117003	0.389765	0.584904
	H61	H	0.887298	0.574822	0.585750
	H62	H	0.114408	0.564548	0.402432
	H63	H	0.890045	0.396025	0.400468
	H64	H	0.414496	0.566645	0.105993
	H65	H	0.590997	0.575575	0.877535
	H66	H	0.594070	0.386188	0.108772
	H67	H	0.411040	0.393707	0.879711
	H68	H	0.596569	0.094073	0.406198
	H69	H	0.599766	0.863413	0.581280
	H70	H	0.415087	0.094255	0.584221
	H71	H	0.410614	0.862510	0.399879
	H72	H	0.914069	0.592993	0.082575
	H73	H	0.097455	0.362031	0.083505
	H74	H	0.094333	0.593992	0.903933
	H75	H	0.912389	0.366000	0.908320
	H76	H	0.087106	0.885602	0.606296
	H77	H	0.096743	0.072356	0.377618
	H78	H	0.908500	0.070973	0.610001
	H79	H	0.918946	0.886391	0.379436
	H80	H	0.616705	0.066095	0.897580
	H81	H	0.389424	0.068989	0.085469
	H82	H	0.617782	0.888227	0.083827
	H83	H	0.388831	0.884538	0.905833
	H84	H	0.617343	0.888392	0.081936
	H85	H	0.389270	0.070614	0.084061
	H86	H	0.618341	0.075531	0.898424
	H87	H	0.391122	0.894339	0.903973
	H88	H	0.912270	0.063576	0.606101
	H89	H	0.095656	0.067103	0.378803
	H90	H	0.100367	0.888904	0.609958
	H91	H	0.905885	0.885028	0.375207
	H92	H	0.095003	0.594615	0.902133
	H93	H	0.087393	0.365150	0.088034
	H94	H	0.907009	0.595120	0.081710
	H95	H	0.907409	0.362286	0.902626
	H96	H	0.414884	0.092578	0.580265
	H97	H	0.591638	0.863123	0.588701
	H98	H	0.598869	0.098102	0.398195
	H99	H	0.419402	0.867906	0.403203
	H100	H	0.593602	0.392637	0.106772
	H101	H	0.600012	0.568872	0.876049
	H102	H	0.412112	0.572296	0.108664
	H103	H	0.415592	0.386527	0.878464
	H104	H	0.119348	0.572614	0.396441
	H105	H	0.889632	0.570664	0.583170
	H106	H	0.115842	0.391163	0.582726
	H107	H	0.886344	0.382490	0.400138
	H108	H	0.910772	0.596163	0.088704
	H109	H	0.088925	0.366988	0.077375
	H110	H	0.093372	0.593854	0.902416
	H111	H	0.915115	0.364742	0.900890
	H112	H	0.092082	0.898541	0.604205
	H113	H	0.092035	0.070682	0.380403
	H114	H	0.917165	0.071106	0.607264
	H115	H	0.910149	0.897081	0.380708
	H116	H	0.615141	0.070363	0.906498
	H117	H	0.389253	0.068531	0.083593
	H118	H	0.617987	0.890214	0.083135
	H119	H	0.387160	0.888518	0.897177
	C120	C	0.381789	-0.012311	0.614044
	C121	C	0.624419	0.971470	0.613539
	C122	C	0.625979	-0.011163	0.370780
	C123	C	0.383540	0.971719	0.372254
	C124	C	0.623274	0.358426	0.001182
	C125	C	0.623877	0.600465	0.984614
	C126	C	0.381279	0.600226	0.001366
	C127	C	0.380670	0.357653	0.984262
	C128	C	0.010870	0.601315	0.372135
	C129	C	0.994269	0.601952	0.615554
	C130	C	0.010984	0.358452	0.615471
	C131	C	0.994996	0.358562	0.372198
	C132	C	0.879634	0.488074	0.115475
	C133	C	0.122274	0.470973	0.113683
	C134	C	0.124472	0.487465	0.871239
	C135	C	0.881293	0.470825	0.872851
	C136	C	0.124981	0.858724	0.501012
	C137	C	0.126036	0.101584	0.484714
	C138	C	0.882246	0.100733	0.501688
	C139	C	0.881164	0.858863	0.485049
	C140	C	0.511216	0.101561	0.869931
	C141	C	0.495094	0.100702	0.113557
	C142	C	0.512106	0.857380	0.115172
	C143	C	0.494529	0.858067	0.870925
	C144	C	0.381533	0.866209	0.672220
	C145	C	0.624068	0.093184	0.670987
	C146	C	0.625135	0.866682	0.314240
	C147	C	0.384323	0.092959	0.314024
	C148	C	0.682051	0.358073	0.880065
	C149	C	0.681387	0.601212	0.105502
	C150	C	0.324519	0.600386	0.879978
	C151	C	0.322821	0.356784	0.105470
	C152	C	0.890244	0.658383	0.373659
	C153	C	0.115412	0.659882	0.614812
	C154	C	0.890945	0.298594	0.616053
	C155	C	0.116523	0.302665	0.372853
	C156	C	0.889837	0.357409	0.672944
	C157	C	0.115111	0.602061	0.673020
	C158	C	0.889566	0.600226	0.316115
	C159	C	0.115281	0.359055	0.313454
	C160	C	0.382055	0.658411	0.879940
	C161	C	0.623359	0.658431	0.105739
	C162	C	0.622633	0.302258	0.879011
	C163	C	0.381834	0.300281	0.105904
	C164	C	0.682584	0.867042	0.371995
	C165	C	0.681727	0.093235	0.613852
	C166	C	0.322680	0.866902	0.615992
	C167	C	0.325492	0.092658	0.370707
	C168	C	0.878551	0.367207	0.174465
	C169	C	0.123094	0.592511	0.171770
	C170	C	0.124234	0.366447	0.812580
	C171	C	0.881713	0.592615	0.814955
	C172	C	0.184473	0.856261	0.380666
	C173	C	0.186027	0.104408	0.604291
	C174	C	0.823796	0.103783	0.381272
	C175	C	0.822505	0.857849	0.606194
	C176	C	0.391012	0.159995	0.869462
	C177	C	0.615503	0.159691	0.112785
	C178	C	0.391794	0.798475	0.117123
	C179	C	0.614971	0.800199	0.870657
	C180	C	0.392685	0.855281	0.175700
	C181	C	0.616017	0.102014	0.170628
	C182	C	0.391283	0.102763	0.811029
	C183	C	0.615022	0.857726	0.812712
	C184	C	0.882905	0.160098	0.381038
	C185	C	0.127467	0.161158	0.604992
	C186	C	0.125684	0.799683	0.380310
	C187	C	0.881613	0.801482	0.606682
	C188	C	0.182281	0.366439	0.869770
	C189	C	0.182527	0.591307	0.115937
	C190	C	0.821260	0.367048	0.116660
	C191	C	0.823083	0.591658	0.871128
	C192	C	0.406581	0.071792	0.589298
	C193	C	0.600885	0.886662	0.589896
	C194	C	0.602403	0.073362	0.394373
	C195	C	0.407219	0.887365	0.397069
	C196	C	0.599338	0.382248	0.085649
	C197	C	0.600601	0.576683	0.900165
	C198	C	0.404701	0.575843	0.085707
	C199	C	0.404352	0.381906	0.899694
	C200	C	0.095038	0.577671	0.395032
	C201	C	0.910250	0.578614	0.592466
	C202	C	0.094532	0.383620	0.591175
	C203	C	0.911003	0.381936	0.396898
	C204	C	0.903773	0.572783	0.091315
	C205	C	0.098105	0.386785	0.089923
	C206	C	0.101034	0.571957	0.895894
	C207	C	0.904904	0.386159	0.896949
	C208	C	0.100376	0.883839	0.585054
	C209	C	0.101815	0.076952	0.400791
	C210	C	0.905659	0.075767	0.585889
	C211	C	0.904870	0.882744	0.400536
	C212	C	0.594960	0.077574	0.893899
	C213	C	0.410981	0.076454	0.090816
	C214	C	0.595939	0.881876	0.090131
	C215	C	0.410677	0.882066	0.895314
	Zn216	Zn	0.503284	-0.020330	0.741828
	Zn217	Zn	0.504559	-0.020637	0.242517
	Zn218	Zn	0.752327	0.478986	-0.006735
	Zn219	Zn	0.252070	0.479073	-0.006678
	Zn220	Zn	0.002715	0.731035	0.493593
	Zn221	Zn	0.004219	0.229646	0.493678
	Zn222	Zn	0.001845	0.479755	0.744718
	Zn223	Zn	0.001690	0.479786	0.242727
	Zn224	Zn	0.502552	0.729356	-0.007076
	Zn225	Zn	0.502599	0.229459	-0.007877
	Zn226	Zn	0.753004	-0.019790	0.493221
	Zn227	Zn	0.253794	-0.020363	0.492637
	N228	N	0.417572	0.942442	0.671234
	N229	N	0.589434	0.016274	0.671150
	N230	N	0.590785	0.943451	0.313317
	N231	N	0.419489	0.016550	0.314749
	N232	N	0.682381	0.392333	0.956835
	N233	N	0.681872	0.565921	0.029160
	N234	N	0.323835	0.565177	0.956494
	N235	N	0.321695	0.391221	0.028762
	N236	N	0.966667	0.659294	0.407565
	N237	N	0.039193	0.660241	0.580017
	N238	N	0.967227	0.298924	0.581348
	N239	N	0.040702	0.302203	0.408641
	N240	N	0.965509	0.393964	0.672721
	N241	N	0.038970	0.566982	0.673795
	N242	N	0.965716	0.565466	0.314940
	N243	N	0.038693	0.392829	0.312856
	N244	N	0.416619	0.658526	0.956561
	N245	N	0.588204	0.658123	0.029551
	N246	N	0.586955	0.302345	0.955303
	N247	N	0.416941	0.300606	0.029388
	N248	N	0.683322	0.943978	0.406266
	N249	N	0.681951	0.016677	0.578786
	N250	N	0.322736	0.943484	0.580648
	N251	N	0.324736	0.016088	0.405952
	N252	N	0.913925	0.443712	0.174074
	N253	N	0.086253	0.516767	0.170433
	N254	N	0.088998	0.442840	0.813369
	N255	N	0.917214	0.516432	0.815864
	N256	N	0.183958	0.892364	0.456697
	N257	N	0.185231	0.068093	0.528326
	N258	N	0.823416	0.067428	0.457330
	N259	N	0.822070	0.892804	0.529481
	N260	N	0.466521	0.159174	0.905426
	N261	N	0.539279	0.159154	0.078130
	N262	N	0.467056	0.799740	0.079931
	N263	N	0.539070	0.800483	0.906443
	N264	N	0.468614	0.890965	0.174577
	N265	N	0.540284	0.065982	0.171356
	N266	N	0.466971	0.066919	0.811378
	N267	N	0.539141	0.893213	0.812937
	N268	N	0.918644	0.158267	0.456945
	N269	N	0.090804	0.159622	0.529620
	N270	N	0.089552	0.801048	0.456419
	N271	N	0.917288	0.801930	0.530502
	N272	N	0.182496	0.442615	0.905650
	N273	N	0.182156	0.514761	0.080396
	N274	N	0.821719	0.443401	0.080948
	N275	N	0.822955	0.515074	0.906467
	O276	O	0.460213	0.339183	0.372921
	H277	H	0.468705	0.331382	0.376987
	H278	H	0.466640	0.344913	0.367926
	O279	O	0.568580	0.452130	0.571655
	H280	H	0.557827	0.455269	0.567034
	H281	H	0.565960	0.442987	0.569890
	O282	O	1.038323	0.091581	0.933384
	H283	H	1.034022	0.094478	0.935149
	H284	H	1.035743	0.100099	0.925568
	O285	O	0.467256	0.500820	0.531385
	H286	H	0.457884	0.509955	0.537124
	H287	H	0.484525	0.503061	0.540178
	O288	O	0.375367	1.544767	1.509629
	H289	H	0.368602	1.529528	1.504404
	H290	H	0.383322	1.550724	1.510672
	O291	O	0.151057	0.928885	0.057674
	H292	H	0.145969	0.929197	0.056165
	H293	H	0.142377	0.920571	0.065191
	O294	O	0.531418	0.547465	0.333964
	H295	H	0.526478	0.550167	0.321942
	H296	H	0.532861	0.544488	0.324878
	O297	O	0.561531	0.466284	0.425257
	H298	H	0.575473	0.464098	0.413279
	H299	H	0.564668	0.464019	0.433043
	O300	O	0.630507	0.437593	0.424347
	H301	H	0.634300	0.440432	0.429367
	H302	H	0.624348	0.430998	0.429469
	O303	O	0.429597	0.429488	0.475012
	H304	H	0.413656	0.420531	0.482384
	H305	H	0.432245	0.440749	0.480336
	O306	O	0.645912	0.427117	0.488161
	H307	H	0.638805	0.425152	0.486309
	H308	H	0.659877	0.416157	0.486732
	O309	O	1.038393	0.835307	0.145373
	H310	H	1.040353	0.855595	0.142976
	H311	H	1.040241	0.825711	0.135003
	O312	O	0.175248	-0.079951	-0.167755
	H313	H	0.188386	-0.084018	-0.181429
	H314	H	0.169216	-0.085911	-0.171684
	O315	O	0.536760	0.521855	0.605327
	H316	H	0.535133	0.514479	0.600821
	H317	H	0.548945	0.528980	0.602424
	O318	O	-0.074663	1.024609	1.050902
	H319	H	-0.071746	1.027401	1.043934
	H320	H	-0.067028	1.014463	1.055815
	O321	O	0.562246	0.389540	0.444923
	H322	H	0.566628	0.401732	0.442173
	H323	H	0.575306	0.386624	0.436257
	O324	O	0.195292	0.862544	0.034949
	H325	H	0.210750	0.862066	0.057702
	H326	H	0.198631	0.895188	0.046253
	O327	O	0.434537	0.330219	0.615103
	H328	H	0.428541	0.338553	0.606454
	H329	H	0.445929	0.325419	0.626762
	O330	O	0.072837	0.009792	0.999817
	H331	H	0.080633	0.018208	1.004933
	H332	H	0.075565	0.014528	0.999281
	O333	O	0.043962	0.165799	0.892795
	H334	H	0.025881	0.172187	0.891737
	H335	H	0.027790	0.167160	0.880800
	O336	O	-0.016214	0.793414	1.118756
	H337	H	-0.011770	0.791999	1.120292
	H338	H	-0.022047	0.791433	1.123660
	O339	O	0.886652	0.091135	-0.146155
	H340	H	0.892871	0.089664	-0.151185
	H341	H	0.891340	0.086193	-0.157293
	O342	O	-0.055881	-0.179257	-0.086454
	H343	H	-0.050759	-0.174218	-0.073594
	H344	H	-0.048712	-0.187925	-0.088601
	O345	O	0.854220	0.164695	0.959809
	H346	H	0.831587	0.166704	0.957319
	H347	H	0.847549	0.152527	0.942840
	O348	O	0.516015	1.514965	0.488474
	H349	H	0.508638	1.514593	0.485577
	H350	H	0.511773	1.518190	0.486033
	O351	O	0.537815	0.558344	0.516790
	H352	H	0.526436	0.557147	0.517563
	H353	H	0.546885	0.555405	0.528185
	O354	O	0.865454	-0.076717	0.869904
	H355	H	0.877021	-0.070637	0.866358
	H356	H	0.866576	-0.069577	0.891108
	O357	O	0.526145	0.513329	0.363186
	H358	H	0.523606	0.526157	0.365603
	H359	H	0.541677	0.508161	0.352830
	O360	O	0.456812	0.480330	0.461922
	H361	H	0.451937	0.473298	0.463851
	H362	H	0.460907	0.482086	0.452952
	O363	O	0.015588	0.908461	1.114868
	H364	H	0.032748	0.894414	1.120091
	H365	H	0.014999	0.927754	1.127713
	O366	O	0.499991	0.481178	0.651518
	H367	H	0.507794	0.483221	0.657146
	H368	H	0.491696	0.482694	0.656873
	O369	O	-0.006359	0.914093	-0.132984
	H370	H	-0.020733	0.913900	-0.137520
	H371	H	-0.003773	0.923525	-0.117858
	O372	O	-0.145125	-0.122579	0.002716
	H373	H	-0.146638	-0.116094	0.021913
	H374	H	-0.145444	-0.128388	-0.002964
	O375	O	0.388635	0.583347	0.405568
	H376	H	0.376770	0.584630	0.402366
	H377	H	0.380771	0.594083	0.414896
	O378	O	0.843985	0.962990	0.147023
	H379	H	0.841584	0.957963	0.142256
	H380	H	0.849759	0.979745	0.143520
	O381	O	0.954769	-0.144860	0.030424
	H382	H	0.960326	-0.144856	0.037279
	H383	H	0.951645	-0.163373	0.015744
	O384	O	1.111243	1.194314	0.139870
	H385	H	1.136094	1.216125	0.148273
	H386	H	1.124441	1.196729	0.136085
	O387	O	-0.143521	0.061102	-0.033265
	H388	H	-0.145875	0.054881	-0.042670
	H389	H	-0.111194	0.068385	-0.038446
	O390	O	0.125118	1.118780	0.183951
	H391	H	0.127111	1.100530	0.190800
	H392	H	0.126691	1.116394	0.178056
	O393	O	0.824572	0.998407	1.009700
	H394	H	0.819419	1.016162	1.025597
	H395	H	0.831543	0.991682	1.019046
	O396	O	0.532061	0.532991	1.516328
	H397	H	0.553789	0.527590	1.504460
	H398	H	0.531388	0.527257	1.534068
	O399	O	-0.094337	1.080754	1.117445
	H400	H	-0.098298	1.073658	1.120032
	H401	H	-0.096519	1.072931	1.123615
	O402	O	0.317960	0.535246	0.448418
	H403	H	0.314361	0.534401	0.460301
	H404	H	0.323505	0.533494	0.453820
	O405	O	1.197447	1.003043	-0.114691
	H406	H	1.198977	1.003314	-0.133700
	H407	H	1.195640	1.012408	-0.119270
	O408	O	1.089621	0.777347	-0.211287
	H409	H	1.086344	0.762931	-0.198732
	H410	H	1.092358	0.764112	-0.219366
	O411	O	1.021984	0.063093	0.836513
	H412	H	1.022558	0.050276	0.835200
	H413	H	1.013704	0.055575	0.845757
	O414	O	0.561820	0.529315	0.595828
	H415	H	0.557668	0.524310	0.590354
	H416	H	0.569594	0.538283	0.607044
	O417	O	1.191650	1.063578	1.176493
	H418	H	1.192264	1.057770	1.164301
	H419	H	1.193220	1.063474	1.172056
