data_Molecule from HDF5

_cell_length_a		16.323597
_cell_length_b		16.233813
_cell_length_c		16.345680
_cell_angle_alpha	90.125867
_cell_angle_beta	90.069568
_cell_angle_gamma	90.122038
_symmetry_space_group_name_H-M	'P 1'
_symmetry_Int_Tables_number		1

loop_
	_symmetry_equiv_pos_as_xyz
	x,y,z

loop_
	_atom_site_label
	_atom_site_type_symbol
	_atom_site_fract_x
	_atom_site_fract_y
	_atom_site_fract_z
	H0	H	0.398156	0.836359	0.721980
	H1	H	0.595421	0.165031	0.721836
	H2	H	0.594048	0.836309	0.293027
	H3	H	0.398487	0.164349	0.294791
	H4	H	0.711250	0.401989	0.844507
	H5	H	0.712440	0.600254	0.170631
	H6	H	0.283559	0.598587	0.843967
	H7	H	0.280791	0.401012	0.170434
	H8	H	0.832641	0.713664	0.411121
	H9	H	0.159935	0.715021	0.605578
	H10	H	0.832182	0.288029	0.603208
	H11	H	0.159968	0.286149	0.409213
	H12	H	0.833884	0.401516	0.722784
	H13	H	0.159749	0.600863	0.723660
	H14	H	0.833509	0.598484	0.293173
	H15	H	0.159782	0.401591	0.292262
	H16	H	0.401106	0.713614	0.844107
	H17	H	0.594917	0.715472	0.171306
	H18	H	0.594273	0.286274	0.844869
	H19	H	0.399779	0.288132	0.171652
	H20	H	0.710156	0.835503	0.409117
	H21	H	0.712406	0.163653	0.607169
	H22	H	0.283026	0.835674	0.604826
	H23	H	0.283463	0.164565	0.410546
	H24	H	0.897897	0.336545	0.221431
	H25	H	0.095441	0.665010	0.222052
	H26	H	0.093767	0.336722	0.793713
	H27	H	0.898919	0.664657	0.794273
	H28	H	0.211219	0.901463	0.344424
	H29	H	0.211926	0.099628	0.670649
	H30	H	0.780557	0.098370	0.345410
	H31	H	0.781583	0.900593	0.671391
	H32	H	0.333757	0.214458	0.910911
	H33	H	0.660775	0.214795	0.106065
	H34	H	0.332882	0.787398	0.104136
	H35	H	0.661579	0.789122	0.912875
	H36	H	0.333432	0.902220	0.221786
	H37	H	0.659671	0.099638	0.224175
	H38	H	0.333883	0.099563	0.793830
	H39	H	0.660543	0.902408	0.793386
	H40	H	0.899403	0.213185	0.344083
	H41	H	0.094229	0.215311	0.671177
	H42	H	0.092390	0.787127	0.344028
	H43	H	0.899638	0.786985	0.671548
	H44	H	0.210849	0.336557	0.909362
	H45	H	0.212073	0.664943	0.105511
	H46	H	0.781728	0.336594	0.105450
	H47	H	0.783756	0.664769	0.910317
	H48	H	0.404090	0.118546	0.606652
	H49	H	0.593988	0.881703	0.602654
	H50	H	0.596278	0.118703	0.415466
	H51	H	0.399135	0.883800	0.420124
	H52	H	0.597999	0.412252	0.124934
	H53	H	0.596004	0.589846	0.891950
	H54	H	0.393180	0.592227	0.126605
	H55	H	0.403411	0.405316	0.891548
	H56	H	0.111749	0.593195	0.418111
	H57	H	0.874991	0.600986	0.614141
	H58	H	0.112531	0.408772	0.601049
	H59	H	0.882665	0.404477	0.422885
	H60	H	0.113512	0.408104	0.602259
	H61	H	0.881589	0.600715	0.587808
	H62	H	0.111731	0.590861	0.413195
	H63	H	0.882619	0.416598	0.410861
	H64	H	0.409270	0.587035	0.119962
	H65	H	0.584778	0.592790	0.893416
	H66	H	0.584784	0.412986	0.119654
	H67	H	0.401375	0.408677	0.891521
	H68	H	0.585132	0.116912	0.411444
	H69	H	0.584802	0.883190	0.605232
	H70	H	0.408465	0.115549	0.599223
	H71	H	0.400791	0.881115	0.408548
	H72	H	0.899002	0.616503	0.091200
	H73	H	0.085667	0.386646	0.095974
	H74	H	0.090568	0.618464	0.913377
	H75	H	0.905534	0.382394	0.909243
	H76	H	0.091371	0.895785	0.627157
	H77	H	0.088167	0.096796	0.391286
	H78	H	0.903074	0.095752	0.624585
	H79	H	0.905757	0.913350	0.395543
	H80	H	0.615257	0.095046	0.911149
	H81	H	0.378830	0.093276	0.108524
	H82	H	0.613409	0.905547	0.099315
	H83	H	0.379632	0.901220	0.914045
	H84	H	0.611734	0.911948	0.101291
	H85	H	0.380214	0.100359	0.099366
	H86	H	0.613014	0.096427	0.917770
	H87	H	0.382829	0.910192	0.918199
	H88	H	0.901886	0.092744	0.623882
	H89	H	0.094400	0.093741	0.390451
	H90	H	0.100797	0.914672	0.624852
	H91	H	0.905696	0.902204	0.391962
	H92	H	0.090100	0.617320	0.915344
	H93	H	0.096408	0.382982	0.098755
	H94	H	0.898663	0.621477	0.110352
	H95	H	0.907105	0.385577	0.917964
	H96	H	0.399298	0.117382	0.598496
	H97	H	0.587848	0.885633	0.596268
	H98	H	0.587641	0.113582	0.422382
	H99	H	0.409825	0.884872	0.415181
	H100	H	0.589621	0.400933	0.125482
	H101	H	0.592550	0.600703	0.889553
	H102	H	0.407130	0.604204	0.125534
	H103	H	0.404983	0.408653	0.892705
	H104	H	0.113398	0.595997	0.413846
	H105	H	0.884779	0.578421	0.602653
	H106	H	0.112835	0.407754	0.601088
	H107	H	0.877093	0.400219	0.406650
	H108	H	0.915544	0.614259	0.102142
	H109	H	0.087840	0.383647	0.106677
	H110	H	0.092292	0.618612	0.914818
	H111	H	0.898371	0.382920	0.915205
	H112	H	0.080379	0.912680	0.619933
	H113	H	0.088760	0.089858	0.393263
	H114	H	0.904568	0.093399	0.623323
	H115	H	0.895994	0.908603	0.390677
	H116	H	0.612126	0.089877	0.914917
	H117	H	0.383044	0.088858	0.098711
	H118	H	0.613788	0.907649	0.106023
	H119	H	0.379864	0.910153	0.908397
	C120	C	0.375251	0.008662	0.629578
	C121	C	0.618156	0.991913	0.629855
	C122	C	0.617678	0.008232	0.387291
	C123	C	0.375123	0.991788	0.386388
	C124	C	0.618732	0.379622	0.015983
	C125	C	0.619062	0.622898	0.999491
	C126	C	0.375449	0.622437	0.015890
	C127	C	0.375071	0.379204	0.999832
	C128	C	0.004598	0.621870	0.386615
	C129	C	0.988187	0.622508	0.629994
	C130	C	0.004833	0.379590	0.629131
	C131	C	0.988722	0.378683	0.385368
	C132	C	0.875529	0.508726	0.128903
	C133	C	0.118628	0.492897	0.128988
	C134	C	0.118366	0.509128	0.886331
	C135	C	0.875704	0.492163	0.886578
	C136	C	0.118289	0.879047	0.515960
	C137	C	0.118697	0.122338	0.499497
	C138	C	0.874901	0.121734	0.516030
	C139	C	0.874577	0.879077	0.500505
	C140	C	0.505621	0.122203	0.886643
	C141	C	0.488440	0.122742	0.130478
	C142	C	0.504947	0.879740	0.129629
	C143	C	0.488873	0.878998	0.885952
	C144	C	0.377917	0.885116	0.684051
	C145	C	0.616437	0.115532	0.684800
	C146	C	0.614845	0.885045	0.331154
	C147	C	0.377857	0.115445	0.332089
	C148	C	0.673379	0.381631	0.893118
	C149	C	0.674541	0.620713	0.122062
	C150	C	0.320978	0.619506	0.892894
	C151	C	0.319516	0.381252	0.122052
	C152	C	0.881649	0.676257	0.389846
	C153	C	0.111217	0.677500	0.627043
	C154	C	0.881497	0.324707	0.625262
	C155	C	0.111414	0.323862	0.388319
	C156	C	0.882303	0.381235	0.684467
	C157	C	0.111098	0.620787	0.685665
	C158	C	0.882084	0.619376	0.331142
	C159	C	0.111258	0.381353	0.330285
	C160	C	0.379349	0.676497	0.892846
	C161	C	0.615937	0.677783	0.122579
	C162	C	0.615115	0.324366	0.893194
	C163	C	0.378622	0.324990	0.122588
	C164	C	0.671938	0.884446	0.389376
	C165	C	0.674052	0.115072	0.627311
	C166	C	0.320394	0.884952	0.626255
	C167	C	0.321073	0.115421	0.389873
	C168	C	0.877381	0.385466	0.183842
	C169	C	0.116101	0.615993	0.184376
	C170	C	0.114986	0.385615	0.831499
	C171	C	0.878381	0.615723	0.832115
	C172	C	0.172825	0.881346	0.392948
	C173	C	0.173545	0.120066	0.622350
	C174	C	0.819168	0.118955	0.393665
	C175	C	0.819925	0.881213	0.622930
	C176	C	0.382470	0.176721	0.890181
	C177	C	0.611830	0.177370	0.127273
	C178	C	0.381679	0.824880	0.125446
	C179	C	0.612385	0.825643	0.890572
	C180	C	0.381786	0.882111	0.183526
	C181	C	0.611342	0.120173	0.185705
	C182	C	0.382647	0.119996	0.831455
	C183	C	0.611966	0.882089	0.831561
	C184	C	0.878282	0.175747	0.392984
	C185	C	0.115220	0.177429	0.622539
	C186	C	0.113934	0.824519	0.392790
	C187	C	0.878270	0.824348	0.622951
	C188	C	0.173285	0.385599	0.888552
	C189	C	0.173616	0.616213	0.126338
	C190	C	0.819781	0.385435	0.126072
	C191	C	0.821115	0.615670	0.889625
	C192	C	0.397555	0.094894	0.607884
	C193	C	0.595503	0.905692	0.607873
	C194	C	0.595939	0.094207	0.409622
	C195	C	0.396895	0.905432	0.408083
	C196	C	0.596974	0.402067	0.101322
	C197	C	0.597506	0.600971	0.913850
	C198	C	0.396847	0.600847	0.101826
	C199	C	0.396740	0.401172	0.914072
	C200	C	0.090256	0.599798	0.408649
	C201	C	0.902620	0.600048	0.607908
	C202	C	0.090775	0.401639	0.607636
	C203	C	0.902868	0.400607	0.407207
	C204	C	0.897856	0.595111	0.107459
	C205	C	0.096498	0.406659	0.106909
	C206	C	0.097262	0.595719	0.908176
	C207	C	0.897455	0.405805	0.907730
	C208	C	0.097179	0.901347	0.601800
	C209	C	0.096830	0.100198	0.413848
	C210	C	0.896727	0.100237	0.601847
	C211	C	0.896252	0.901326	0.414661
	C212	C	0.591284	0.100339	0.908301
	C213	C	0.402912	0.100663	0.108726
	C214	C	0.590784	0.901811	0.108499
	C215	C	0.403041	0.900809	0.907332
	Zn216	Zn	0.496928	0.000680	0.757596
	Zn217	Zn	0.496112	0.000515	0.258778
	Zn218	Zn	0.747690	0.500854	0.007521
	Zn219	Zn	0.247037	0.501070	0.007414
	Zn220	Zn	-0.003637	0.750915	0.508192
	Zn221	Zn	-0.003251	0.251042	0.507290
	Zn222	Zn	-0.003441	0.501057	0.758241
	Zn223	Zn	-0.003555	0.500598	0.257570
	Zn224	Zn	0.497030	0.751036	0.008112
	Zn225	Zn	0.497088	0.250885	0.008495
	Zn226	Zn	0.745883	-0.000438	0.508529
	Zn227	Zn	0.247488	0.000319	0.507449
	N228	N	0.411247	0.963081	0.686173
	N229	N	0.582099	0.038097	0.686220
	N230	N	0.581753	0.962958	0.329858
	N231	N	0.410732	0.037505	0.329825
	N232	N	0.675375	0.415604	0.970220
	N233	N	0.676591	0.587281	0.044531
	N234	N	0.318535	0.586612	0.970476
	N235	N	0.317503	0.414500	0.044731
	N236	N	0.958884	0.677887	0.423767
	N237	N	0.034052	0.678855	0.593236
	N238	N	0.958777	0.323598	0.591458
	N239	N	0.034146	0.322263	0.421850
	N240	N	0.959747	0.414543	0.686989
	N241	N	0.033561	0.587143	0.687439
	N242	N	0.959429	0.586231	0.329183
	N243	N	0.033829	0.414688	0.328398
	N244	N	0.412698	0.678186	0.970207
	N245	N	0.582088	0.679242	0.045498
	N246	N	0.581897	0.322776	0.970578
	N247	N	0.412370	0.323553	0.045565
	N248	N	0.673960	0.962019	0.423446
	N249	N	0.675284	0.037027	0.594214
	N250	N	0.318541	0.962730	0.593114
	N251	N	0.319336	0.037521	0.422897
	N252	N	0.911179	0.463070	0.185667
	N253	N	0.082485	0.538096	0.186007
	N254	N	0.081930	0.463410	0.829861
	N255	N	0.911611	0.537890	0.830237
	N256	N	0.175626	0.914476	0.470505
	N257	N	0.175631	0.086366	0.545069
	N258	N	0.817219	0.086041	0.471195
	N259	N	0.817657	0.914497	0.545677
	N260	N	0.459720	0.178232	0.923838
	N261	N	0.534471	0.179127	0.093714
	N262	N	0.459332	0.823239	0.092578
	N263	N	0.535016	0.823859	0.923816
	N264	N	0.459201	0.915285	0.186373
	N265	N	0.533848	0.086846	0.187806
	N266	N	0.460162	0.086835	0.828978
	N267	N	0.534098	0.914548	0.828560
	N268	N	0.912099	0.177724	0.470046
	N269	N	0.081807	0.178830	0.545138
	N270	N	0.080711	0.822968	0.470226
	N271	N	0.911500	0.823095	0.545743
	N272	N	0.175251	0.463547	0.922134
	N273	N	0.175366	0.538564	0.092900
	N274	N	0.818500	0.463221	0.092759
	N275	N	0.819125	0.537841	0.922634
	O276	O	0.516611	0.471950	0.471346
	H277	H	0.519702	0.466726	0.470969
	H278	H	0.519206	0.472353	0.472884
	O279	O	0.483784	0.465336	0.498377
	H280	H	0.493782	0.477492	0.499065
	H281	H	0.480436	0.465824	0.498325
	O282	O	1.506292	0.466236	-0.509027
	H283	H	1.497057	0.466975	-0.500246
	H284	H	1.506774	0.465684	-0.513166
	O285	O	0.489410	0.443208	0.482434
	H286	H	0.483049	0.424767	0.476083
	H287	H	0.492361	0.447857	0.482125
