data_Molecule from HDF5

_cell_length_a		16.361007
_cell_length_b		16.237481
_cell_length_c		16.276159
_cell_angle_alpha	90.032902
_cell_angle_beta	90.117398
_cell_angle_gamma	89.912549
_symmetry_space_group_name_H-M	'P 1'
_symmetry_Int_Tables_number		1

loop_
	_symmetry_equiv_pos_as_xyz
	x,y,z

loop_
	_atom_site_label
	_atom_site_type_symbol
	_atom_site_fract_x
	_atom_site_fract_y
	_atom_site_fract_z
	H0	H	0.412580	0.846030	0.703885
	H1	H	0.606976	0.174343	0.704164
	H2	H	0.607922	0.846560	0.275782
	H3	H	0.411898	0.174853	0.277328
	H4	H	0.723053	0.411303	0.826152
	H5	H	0.724607	0.609914	0.153117
	H6	H	0.293247	0.609879	0.827020
	H7	H	0.294836	0.410301	0.153496
	H8	H	0.845755	0.726713	0.390830
	H9	H	0.171864	0.724342	0.590103
	H10	H	0.845571	0.295210	0.587793
	H11	H	0.172216	0.294960	0.392614
	H12	H	0.845177	0.411406	0.704324
	H13	H	0.171165	0.607989	0.706033
	H14	H	0.845434	0.609599	0.274163
	H15	H	0.171417	0.409800	0.274731
	H16	H	0.411327	0.723467	0.825411
	H17	H	0.606794	0.724042	0.154177
	H18	H	0.605888	0.296523	0.826232
	H19	H	0.413355	0.297604	0.154216
	H20	H	0.723829	0.846146	0.391397
	H21	H	0.722123	0.175033	0.587794
	H22	H	0.294204	0.847010	0.591398
	H23	H	0.292729	0.173085	0.389103
	H24	H	0.911498	0.345614	0.203293
	H25	H	0.106713	0.674364	0.204633
	H26	H	0.105891	0.346016	0.776490
	H27	H	0.911026	0.674490	0.777580
	H28	H	0.225073	0.909282	0.326367
	H29	H	0.225476	0.109451	0.653314
	H30	H	0.794716	0.109245	0.326365
	H31	H	0.794715	0.911210	0.653322
	H32	H	0.346647	0.225174	0.892034
	H33	H	0.672920	0.223642	0.086767
	H34	H	0.345855	0.796032	0.086748
	H35	H	0.672657	0.796164	0.892869
	H36	H	0.346596	0.911670	0.205792
	H37	H	0.672438	0.108583	0.204853
	H38	H	0.346484	0.108057	0.775708
	H39	H	0.672468	0.911969	0.775853
	H40	H	0.913848	0.222170	0.325598
	H41	H	0.106798	0.223623	0.655092
	H42	H	0.107592	0.794668	0.326509
	H43	H	0.913935	0.798619	0.655047
	H44	H	0.223510	0.345850	0.891502
	H45	H	0.224264	0.673764	0.089944
	H46	H	0.793586	0.346213	0.089544
	H47	H	0.794459	0.673366	0.891331
	H48	H	0.421321	0.125570	0.580534
	H49	H	0.612495	0.892580	0.577372
	H50	H	0.610402	0.131020	0.392834
	H51	H	0.416012	0.892136	0.395646
	H52	H	0.606645	0.416355	0.108331
	H53	H	0.601288	0.610371	0.870920
	H54	H	0.415332	0.597531	0.105385
	H55	H	0.412107	0.409413	0.870032
	H56	H	0.124521	0.609076	0.401770
	H57	H	0.892932	0.609460	0.575537
	H58	H	0.121578	0.421676	0.579233
	H59	H	0.891751	0.414015	0.394887
	H60	H	0.125407	0.418925	0.591850
	H61	H	0.894970	0.595999	0.584959
	H62	H	0.119669	0.595674	0.402567
	H63	H	0.893697	0.416481	0.400358
	H64	H	0.421897	0.605123	0.105248
	H65	H	0.610165	0.599287	0.872454
	H66	H	0.603149	0.420415	0.105975
	H67	H	0.410080	0.425892	0.874290
	H68	H	0.595764	0.126624	0.392297
	H69	H	0.605123	0.889282	0.593234
	H70	H	0.414363	0.126107	0.578661
	H71	H	0.421702	0.895027	0.397344
	H72	H	0.926222	0.621877	0.078135
	H73	H	0.107363	0.391914	0.081090
	H74	H	0.100825	0.628477	0.890055
	H75	H	0.917968	0.398522	0.913244
	H76	H	0.111941	0.919489	0.607302
	H77	H	0.101664	0.105269	0.373638
	H78	H	0.923619	0.107117	0.605611
	H79	H	0.916608	0.915207	0.372947
	H80	H	0.627117	0.108523	0.898254
	H81	H	0.391557	0.107968	0.084396
	H82	H	0.622395	0.919914	0.076900
	H83	H	0.394319	0.920323	0.895934
	H84	H	0.625793	0.921657	0.090471
	H85	H	0.395022	0.103180	0.080186
	H86	H	0.622894	0.100042	0.900189
	H87	H	0.391622	0.915833	0.892074
	H88	H	0.907956	0.109054	0.610626
	H89	H	0.105642	0.101934	0.374112
	H90	H	0.097632	0.924723	0.602716
	H91	H	0.913360	0.919447	0.373030
	H92	H	0.096927	0.624543	0.902333
	H93	H	0.102625	0.392711	0.087685
	H94	H	0.908459	0.626001	0.074551
	H95	H	0.899186	0.386679	0.891864
	H96	H	0.416040	0.127541	0.585274
	H97	H	0.595309	0.896897	0.580117
	H98	H	0.603568	0.124539	0.405326
	H99	H	0.416317	0.894938	0.401594
	H100	H	0.600979	0.414528	0.106949
	H101	H	0.596643	0.598309	0.876811
	H102	H	0.413150	0.606516	0.108478
	H103	H	0.425430	0.418634	0.876602
	H104	H	0.125185	0.600625	0.390347
	H105	H	0.888678	0.609311	0.591374
	H106	H	0.126176	0.409214	0.581847
	H107	H	0.893573	0.419692	0.395723
	H108	H	0.914752	0.629642	0.092276
	H109	H	0.099512	0.395509	0.080187
	H110	H	0.109763	0.628070	0.900580
	H111	H	0.928292	0.392916	0.884943
	H112	H	0.099179	0.909313	0.607804
	H113	H	0.100931	0.100475	0.374678
	H114	H	0.913136	0.093872	0.604900
	H115	H	0.918246	0.919645	0.375017
	H116	H	0.626242	0.101627	0.891686
	H117	H	0.393261	0.101062	0.087191
	H118	H	0.627542	0.909081	0.084248
	H119	H	0.393361	0.914110	0.898323
	C120	C	0.388657	0.018333	0.610875
	C121	C	0.631509	1.002027	0.611704
	C122	C	0.631202	0.018790	0.368491
	C123	C	0.388632	1.001973	0.368972
	C124	C	0.631415	0.388718	-0.001429
	C125	C	0.631079	0.631605	0.981655
	C126	C	0.388249	0.631497	-0.001934
	C127	C	0.387766	0.389263	0.981708
	C128	C	0.016125	0.631378	0.368735
	C129	C	1.000417	0.632441	0.612526
	C130	C	0.016533	0.388228	0.612018
	C131	C	1.000511	0.387615	0.368246
	C132	C	0.887879	0.517647	0.110588
	C133	C	0.131500	0.501645	0.112312
	C134	C	0.130443	0.518514	0.869121
	C135	C	0.887174	0.501197	0.868663
	C136	C	0.131471	0.888302	0.498166
	C137	C	0.131130	0.131213	0.482197
	C138	C	0.887294	0.131712	0.498653
	C139	C	0.888088	0.889330	0.481955
	C140	C	0.517990	0.132213	0.867959
	C141	C	0.501196	0.132260	0.111812
	C142	C	0.517523	0.888461	0.112006
	C143	C	0.500983	0.888666	0.867883
	C144	C	0.391742	0.895073	0.666286
	C145	C	0.628051	0.125432	0.666557
	C146	C	0.628557	0.895251	0.313450
	C147	C	0.391015	0.125590	0.314306
	C148	C	0.685753	0.390912	0.875243
	C149	C	0.686467	0.629811	0.104464
	C150	C	0.331727	0.630032	0.875574
	C151	C	0.332742	0.390658	0.104607
	C152	C	0.894142	0.688046	0.370400
	C153	C	0.123089	0.686790	0.610256
	C154	C	0.894085	0.332880	0.609049
	C155	C	0.123285	0.332613	0.371393
	C156	C	0.893903	0.390949	0.666717
	C157	C	0.122691	0.628840	0.667877
	C158	C	0.893930	0.629906	0.312607
	C159	C	0.122909	0.389949	0.312930
	C160	C	0.390417	0.686505	0.874742
	C161	C	0.627927	0.686607	0.104947
	C162	C	0.627084	0.334423	0.874936
	C163	C	0.391666	0.334573	0.105075
	C164	C	0.686159	0.895046	0.370819
	C165	C	0.685443	0.125536	0.608948
	C166	C	0.332822	0.895693	0.610413
	C167	C	0.332244	0.124834	0.370427
	C168	C	0.890669	0.394519	0.165742
	C169	C	0.128351	0.625156	0.167523
	C170	C	0.127172	0.395001	0.814196
	C171	C	0.890090	0.625191	0.814608
	C172	C	0.187062	0.889553	0.375195
	C173	C	0.186629	0.129271	0.605123
	C174	C	0.832750	0.129303	0.375144
	C175	C	0.832851	0.891052	0.604875
	C176	C	0.395345	0.187264	0.870854
	C177	C	0.624119	0.186281	0.108112
	C178	C	0.394510	0.834079	0.108170
	C179	C	0.624090	0.833950	0.871723
	C180	C	0.394950	0.891239	0.167250
	C181	C	0.623995	0.128925	0.166544
	C182	C	0.395299	0.129285	0.813027
	C183	C	0.623938	0.891221	0.813508
	C184	C	0.891789	0.185332	0.374792
	C185	C	0.127873	0.185887	0.606055
	C186	C	0.128674	0.832630	0.375120
	C187	C	0.892376	0.835357	0.605662
	C188	C	0.185459	0.395108	0.871231
	C189	C	0.186249	0.625025	0.110138
	C190	C	0.832369	0.394785	0.108943
	C191	C	0.832400	0.624652	0.871225
	C192	C	0.410723	0.104337	0.588090
	C193	C	0.610452	0.915188	0.589956
	C194	C	0.609666	0.105024	0.390404
	C195	C	0.411500	0.916288	0.391576
	C196	C	0.609923	0.410687	0.084715
	C197	C	0.609055	0.609369	0.895494
	C198	C	0.410396	0.609606	0.083940
	C199	C	0.409335	0.411531	0.895756
	C200	C	0.101192	0.608413	0.391445
	C201	C	0.914391	0.611117	0.590552
	C202	C	0.102292	0.410074	0.590525
	C203	C	0.915059	0.409964	0.390447
	C204	C	0.909939	0.603800	0.088197
	C205	C	0.109611	0.415585	0.089662
	C206	C	0.108922	0.604742	0.891214
	C207	C	0.908899	0.414989	0.890267
	C208	C	0.109499	0.911040	0.583833
	C209	C	0.109111	0.109225	0.396551
	C210	C	0.908611	0.109867	0.584787
	C211	C	0.909742	0.911665	0.395928
	C212	C	0.603473	0.109802	0.890134
	C213	C	0.415322	0.110481	0.090134
	C214	C	0.603155	0.910376	0.090304
	C215	C	0.415289	0.910239	0.889081
	Zn216	Zn	0.509811	0.010304	0.739119
	Zn217	Zn	0.509408	0.010574	0.240821
	Zn218	Zn	0.759318	0.509834	-0.010288
	Zn219	Zn	0.259432	0.510290	-0.009562
	Zn220	Zn	0.009068	0.760779	0.490041
	Zn221	Zn	0.009064	0.259251	0.490731
	Zn222	Zn	0.008150	0.510028	0.740738
	Zn223	Zn	0.008712	0.509880	0.239240
	Zn224	Zn	0.509390	0.759982	-0.010783
	Zn225	Zn	0.509243	0.260990	-0.009880
	Zn226	Zn	0.759317	0.010063	0.490077
	Zn227	Zn	0.259992	0.009582	0.489620
	N228	N	0.425869	0.972555	0.666703
	N229	N	0.595335	0.047556	0.668241
	N230	N	0.595028	0.972986	0.312039
	N231	N	0.425507	0.048229	0.313395
	N232	N	0.688317	0.424002	0.953201
	N233	N	0.688502	0.596401	0.026793
	N234	N	0.329966	0.596679	0.953288
	N235	N	0.330521	0.424121	0.027043
	N236	N	0.971111	0.689022	0.404544
	N237	N	0.045953	0.688849	0.576254
	N238	N	0.971305	0.331120	0.575717
	N239	N	0.046332	0.331164	0.405196
	N240	N	0.970912	0.424870	0.668447
	N241	N	0.045336	0.595779	0.669229
	N242	N	0.970721	0.595188	0.311518
	N243	N	0.045499	0.423329	0.310873
	N244	N	0.425182	0.687117	0.951737
	N245	N	0.594088	0.687829	0.027514
	N246	N	0.594233	0.332847	0.952624
	N247	N	0.425105	0.333514	0.027675
	N248	N	0.687906	0.972793	0.404470
	N249	N	0.687488	0.047677	0.575328
	N250	N	0.330749	0.973317	0.576795
	N251	N	0.330587	0.046944	0.403651
	N252	N	0.924466	0.472021	0.166809
	N253	N	0.094872	0.547357	0.168872
	N254	N	0.093540	0.472601	0.812811
	N255	N	0.923591	0.547440	0.812810
	N256	N	0.188940	0.923458	0.452777
	N257	N	0.188705	0.095940	0.527432
	N258	N	0.829919	0.096652	0.453123
	N259	N	0.830215	0.923955	0.526952
	N260	N	0.472451	0.188865	0.904425
	N261	N	0.546643	0.188448	0.074961
	N262	N	0.471739	0.832083	0.074820
	N263	N	0.546656	0.832184	0.904792
	N264	N	0.472412	0.924188	0.169683
	N265	N	0.546610	0.095905	0.168739
	N266	N	0.472682	0.095846	0.811049
	N267	N	0.546583	0.924654	0.811121
	N268	N	0.925172	0.186878	0.452428
	N269	N	0.094137	0.187407	0.528533
	N270	N	0.095088	0.831685	0.452317
	N271	N	0.926081	0.834455	0.528229
	N272	N	0.187528	0.472996	0.904739
	N273	N	0.188306	0.547281	0.076704
	N274	N	0.830809	0.472464	0.075299
	N275	N	0.830551	0.546784	0.904132
	O276	O	0.409653	-0.430062	1.436564
	H277	H	0.410054	-0.417314	1.436512
	H278	H	0.404074	-0.425143	1.419020
	O279	O	0.381966	0.544541	0.432353
	H280	H	0.381025	0.540482	0.426837
	H281	H	0.380663	0.542737	0.426182
	O282	O	-0.599603	0.447679	1.550312
	H283	H	-0.606739	0.445908	1.557247
	H284	H	-0.595556	0.459174	1.550198
	O285	O	0.421430	0.556459	0.494448
	H286	H	0.420103	0.562633	0.496394
	H287	H	0.431241	0.566949	0.494417
	O288	O	0.418936	0.534469	0.474021
	H289	H	0.420720	0.534572	0.477743
	H290	H	0.415232	0.545246	0.466223
	O291	O	0.394703	0.491536	0.511346
	H292	H	0.390640	0.478398	0.516986
	H293	H	0.395465	0.486024	0.528480
	O294	O	0.416864	0.592063	0.437019
	H295	H	0.414105	0.587307	0.425972
	H296	H	0.410351	0.582382	0.437059
	O297	O	0.408804	-0.460768	0.462440
	H298	H	0.403509	-0.471508	0.468352
	H299	H	0.406034	-0.453990	0.468787
