data_Molecule from HDF5

_cell_length_a		16.546679
_cell_length_b		16.611759
_cell_length_c		16.481168
_cell_angle_alpha	89.868917
_cell_angle_beta	90.081561
_cell_angle_gamma	89.970327
_symmetry_space_group_name_H-M	'P 1'
_symmetry_Int_Tables_number		1

loop_
	_symmetry_equiv_pos_as_xyz
	x,y,z

loop_
	_atom_site_label
	_atom_site_type_symbol
	_atom_site_fract_x
	_atom_site_fract_y
	_atom_site_fract_z
	H0	H	0.373311	0.851529	0.704912
	H1	H	0.579646	0.165417	0.706468
	H2	H	0.582518	0.853608	0.261756
	H3	H	0.371739	0.164854	0.265022
	H4	H	0.694324	0.405057	0.825389
	H5	H	0.695493	0.610472	0.141864
	H6	H	0.255931	0.611469	0.826332
	H7	H	0.257372	0.407348	0.143567
	H8	H	0.817789	0.729598	0.379154
	H9	H	0.130966	0.729661	0.591628
	H10	H	0.817149	0.287512	0.588945
	H11	H	0.131500	0.288468	0.381652
	H12	H	0.816432	0.404936	0.703344
	H13	H	0.132046	0.610512	0.704824
	H14	H	0.816780	0.610507	0.265321
	H15	H	0.132390	0.405827	0.265738
	H16	H	0.372378	0.728765	0.827523
	H17	H	0.579073	0.727097	0.142979
	H18	H	0.579207	0.287793	0.826518
	H19	H	0.373287	0.290192	0.143092
	H20	H	0.699871	0.854101	0.378124
	H21	H	0.698988	0.163030	0.594101
	H22	H	0.255024	0.851732	0.589286
	H23	H	0.255250	0.165518	0.382115
	H24	H	0.872469	0.352073	0.203172
	H25	H	0.080293	0.664796	0.205348
	H26	H	0.078595	0.349738	0.765235
	H27	H	0.868988	0.663346	0.760071
	H28	H	0.195772	0.904169	0.327344
	H29	H	0.195241	0.112728	0.642898
	H30	H	0.752893	0.112362	0.328305
	H31	H	0.753227	0.901103	0.642268
	H32	H	0.317249	0.229540	0.879548
	H33	H	0.631755	0.228806	0.088727
	H34	H	0.317608	0.787521	0.090990
	H35	H	0.630911	0.785712	0.878770
	H36	H	0.316286	0.906279	0.204419
	H37	H	0.631691	0.111929	0.205884
	H38	H	0.317159	0.111947	0.765303
	H39	H	0.631945	0.904284	0.764600
	H40	H	0.869582	0.228634	0.327615
	H41	H	0.079922	0.228791	0.642651
	H42	H	0.081815	0.786219	0.328098
	H43	H	0.867766	0.783295	0.640866
	H44	H	0.197350	0.351645	0.879482
	H45	H	0.196818	0.664593	0.089850
	H46	H	0.755251	0.351795	0.085810
	H47	H	0.752492	0.664175	0.876913
	H48	H	0.387295	0.117952	0.569787
	H49	H	0.563488	0.895488	0.581980
	H50	H	0.560510	0.120407	0.392500
	H51	H	0.385117	0.898357	0.399740
	H52	H	0.564480	0.423494	0.094822
	H53	H	0.558038	0.599648	0.873407
	H54	H	0.386124	0.602501	0.099377
	H55	H	0.384452	0.413713	0.868867
	H56	H	0.088563	0.601449	0.395306
	H57	H	0.863764	0.598035	0.567816
	H58	H	0.085615	0.413847	0.566728
	H59	H	0.861613	0.418348	0.394147
	H60	H	0.086447	0.424324	0.577039
	H61	H	0.864674	0.592507	0.571085
	H62	H	0.084981	0.597195	0.398398
	H63	H	0.861572	0.417881	0.394836
	H64	H	0.380544	0.596053	0.098865
	H65	H	0.565769	0.601015	0.869519
	H66	H	0.561252	0.415459	0.096468
	H67	H	0.380708	0.421184	0.870856
	H68	H	0.557589	0.115184	0.403230
	H69	H	0.557693	0.900005	0.571465
	H70	H	0.378030	0.123136	0.574933
	H71	H	0.380257	0.893592	0.394472
	H72	H	0.887718	0.620119	0.072111
	H73	H	0.064861	0.397683	0.070688
	H74	H	0.068524	0.619237	0.900085
	H75	H	0.877409	0.390799	0.884860
	H76	H	0.061168	0.917918	0.596704
	H77	H	0.064445	0.100207	0.371441
	H78	H	0.886769	0.097921	0.597906
	H79	H	0.885975	0.924882	0.374715
	H80	H	0.584955	0.098312	0.901066
	H81	H	0.363659	0.093895	0.074983
	H82	H	0.590982	0.910612	0.079532
	H83	H	0.361244	0.916405	0.894452
	H84	H	0.583835	0.917365	0.064665
	H85	H	0.359958	0.102097	0.079445
	H86	H	0.587136	0.095604	0.893459
	H87	H	0.364173	0.918783	0.901123
	H88	H	0.885939	0.098011	0.598278
	H89	H	0.065680	0.096822	0.371998
	H90	H	0.065611	0.916417	0.598844
	H91	H	0.891655	0.920431	0.376154
	H92	H	0.065147	0.621785	0.888234
	H93	H	0.069647	0.394777	0.075507
	H94	H	0.883268	0.620396	0.071415
	H95	H	0.897336	0.399054	0.893282
	H96	H	0.387815	0.121484	0.580907
	H97	H	0.570105	0.896559	0.571115
	H98	H	0.568892	0.120311	0.402050
	H99	H	0.388179	0.896198	0.392049
	H100	H	0.569369	0.417642	0.098705
	H101	H	0.563899	0.593409	0.873699
	H102	H	0.388568	0.595211	0.096127
	H103	H	0.389232	0.420079	0.872862
	H104	H	0.087372	0.595933	0.393038
	H105	H	0.861887	0.597902	0.573500
	H106	H	0.091325	0.411109	0.580237
	H107	H	0.861986	0.418713	0.395016
	H108	H	0.885152	0.621275	0.075088
	H109	H	0.062748	0.396277	0.077367
	H110	H	0.057205	0.616043	0.895858
	H111	H	0.878360	0.398707	0.906635
	H112	H	0.064839	0.921319	0.597276
	H113	H	0.062450	0.098074	0.373115
	H114	H	0.886238	0.097332	0.597939
	H115	H	0.886014	0.918051	0.372088
	H116	H	0.588656	0.102806	0.895552
	H117	H	0.362643	0.102675	0.069676
	H118	H	0.585584	0.927036	0.079205
	H119	H	0.364004	0.923450	0.895232
	C120	C	0.353801	0.017126	0.606567
	C121	C	0.596524	1.000268	0.607740
	C122	C	0.595631	0.016390	0.365316
	C123	C	0.352884	0.999773	0.363491
	C124	C	0.596153	0.387471	-0.007681
	C125	C	0.595377	0.629296	0.976225
	C126	C	0.353595	0.629707	-0.006370
	C127	C	0.354047	0.387606	0.975969
	C128	C	-0.016899	0.629730	0.363667
	C129	C	0.966797	0.628384	0.604538
	C130	C	-0.016739	0.385797	0.605622
	C131	C	0.966026	0.387226	0.363489
	C132	C	0.853773	0.517168	0.104548
	C133	C	0.097279	0.499820	0.106470
	C134	C	0.095526	0.515338	0.863328
	C135	C	0.852720	0.499527	0.861957
	C136	C	0.096535	0.886574	0.493536
	C137	C	0.096135	0.129880	0.476525
	C138	C	0.853668	0.129609	0.493887
	C139	C	0.854336	0.887502	0.477261
	C140	C	0.483133	0.130687	0.863866
	C141	C	0.466124	0.130638	0.106575
	C142	C	0.482923	0.887180	0.106605
	C143	C	0.466777	0.887538	0.864800
	C144	C	0.353440	0.898681	0.665669
	C145	C	0.598388	0.118052	0.667093
	C146	C	0.599942	0.899909	0.303104
	C147	C	0.352692	0.118105	0.304867
	C148	C	0.654879	0.386384	0.873139
	C149	C	0.655476	0.629796	0.094739
	C150	C	0.295561	0.630500	0.873950
	C151	C	0.296570	0.387781	0.095897
	C152	C	0.864907	0.689399	0.360940
	C153	C	0.084222	0.688869	0.608637
	C154	C	0.864372	0.327269	0.607064
	C155	C	0.084566	0.328374	0.362815
	C156	C	0.864097	0.385387	0.664296
	C157	C	0.084853	0.629396	0.664879
	C158	C	0.864340	0.630311	0.304446
	C159	C	0.084952	0.386690	0.305264
	C160	C	0.353046	0.688791	0.874409
	C161	C	0.597317	0.687235	0.095521
	C162	C	0.597669	0.328060	0.873680
	C163	C	0.354045	0.329718	0.095770
	C164	C	0.658266	0.899984	0.360887
	C165	C	0.657669	0.116879	0.610827
	C166	C	0.295232	0.898750	0.607856
	C167	C	0.294804	0.118219	0.362883
	C168	C	0.853191	0.398959	0.163555
	C169	C	0.099074	0.617614	0.165979
	C170	C	0.097549	0.397183	0.804439
	C171	C	0.850728	0.616871	0.800856
	C172	C	0.155973	0.885582	0.374761
	C173	C	0.155771	0.131302	0.595315
	C174	C	0.793422	0.131157	0.375364
	C175	C	0.793578	0.883388	0.595162
	C176	C	0.364639	0.190036	0.861189
	C177	C	0.584641	0.189148	0.107835
	C178	C	0.364626	0.827648	0.108941
	C179	C	0.584255	0.826641	0.861292
	C180	C	0.364027	0.886578	0.165483
	C181	C	0.584614	0.130950	0.165759
	C182	C	0.364441	0.131305	0.804705
	C183	C	0.584795	0.885665	0.804655
	C184	C	0.851187	0.188815	0.374998
	C185	C	0.098103	0.189033	0.595166
	C186	C	0.099441	0.826687	0.375108
	C187	C	0.850609	0.824974	0.594563
	C188	C	0.156440	0.398142	0.861616
	C189	C	0.157126	0.617479	0.108352
	C190	C	0.795199	0.398831	0.105342
	C191	C	0.792613	0.617291	0.858614
	C192	C	0.377579	0.099446	0.582154
	C193	C	0.570925	0.918527	0.582160
	C194	C	0.569618	0.097365	0.391658
	C195	C	0.377475	0.917468	0.388394
	C196	C	0.571894	0.411870	0.075212
	C197	C	0.569826	0.605009	0.893520
	C198	C	0.377969	0.605094	0.076678
	C199	C	0.377838	0.411319	0.892593
	C200	C	0.065627	0.605189	0.388471
	C201	C	0.884649	0.603238	0.578243
	C202	C	0.066197	0.409607	0.581419
	C203	C	0.883282	0.411409	0.387644
	C204	C	0.878231	0.599228	0.079870
	C205	C	0.072626	0.417574	0.081796
	C206	C	0.070555	0.597368	0.887699
	C207	C	0.877328	0.417720	0.887601
	C208	C	0.071216	0.911422	0.575993
	C209	C	0.071278	0.105404	0.393662
	C210	C	0.878995	0.104846	0.576584
	C211	C	0.880338	0.913694	0.395513
	C212	C	0.565554	0.106018	0.889303
	C213	C	0.383558	0.106509	0.081743
	C214	C	0.565409	0.911624	0.081686
	C215	C	0.384638	0.912577	0.890124
	Zn216	Zn	0.474882	0.008843	0.736270
	Zn217	Zn	0.475138	0.008260	0.235193
	Zn218	Zn	0.724457	0.508665	-0.016948
	Zn219	Zn	0.225262	0.508562	-0.015426
	Zn220	Zn	-0.025026	0.758771	0.484796
	Zn221	Zn	-0.025310	0.257762	0.484749
	Zn222	Zn	-0.025301	0.507029	0.733612
	Zn223	Zn	-0.024907	0.508965	0.234158
	Zn224	Zn	0.474503	0.758486	-0.014424
	Zn225	Zn	0.474680	0.259030	-0.015756
	Zn226	Zn	0.725609	0.008334	0.486111
	Zn227	Zn	0.224329	0.008351	0.485250
	N228	N	0.389204	0.973178	0.664980
	N229	N	0.561086	0.044347	0.665397
	N230	N	0.561502	0.972946	0.305897
	N231	N	0.387846	0.043170	0.304829
	N232	N	0.654064	0.422802	0.947955
	N233	N	0.654642	0.594874	0.019351
	N234	N	0.295849	0.594641	0.949082
	N235	N	0.296325	0.422950	0.020356
	N236	N	0.939772	0.689343	0.396867
	N237	N	0.009671	0.688316	0.571900
	N238	N	0.939474	0.327239	0.571552
	N239	N	0.009569	0.328487	0.398017
	N240	N	0.939070	0.420932	0.663823
	N241	N	0.010668	0.592603	0.662528
	N242	N	0.938972	0.594041	0.305694
	N243	N	0.010069	0.422427	0.305335
	N244	N	0.388105	0.688516	0.949954
	N245	N	0.560763	0.687122	0.020663
	N246	N	0.561651	0.328835	0.948637
	N247	N	0.389001	0.329644	0.020246
	N248	N	0.655578	0.973210	0.399257
	N249	N	0.656890	0.042441	0.574770
	N250	N	0.295135	0.973309	0.572004
	N251	N	0.294761	0.043495	0.398408
	N252	N	0.889186	0.473359	0.162870
	N253	N	0.062748	0.543254	0.165084
	N254	N	0.060337	0.471107	0.805201
	N255	N	0.887467	0.542742	0.802848
	N256	N	0.154200	0.922174	0.449433
	N257	N	0.154621	0.095110	0.520455
	N258	N	0.794902	0.095056	0.450414
	N259	N	0.795725	0.921631	0.521196
	N260	N	0.439584	0.189749	0.897205
	N261	N	0.509868	0.189220	0.071988
	N262	N	0.439763	0.827466	0.073430
	N263	N	0.509865	0.827856	0.898156
	N264	N	0.438792	0.922558	0.164510
	N265	N	0.509731	0.095551	0.165359
	N266	N	0.439253	0.095430	0.805896
	N267	N	0.510814	0.923068	0.806806
	N268	N	0.887802	0.187931	0.449869
	N269	N	0.061782	0.188320	0.520181
	N270	N	0.062924	0.827340	0.449973
	N271	N	0.887535	0.827401	0.520156
	N272	N	0.155505	0.472715	0.897287
	N273	N	0.156225	0.543088	0.072159
	N274	N	0.795210	0.473469	0.069605
	N275	N	0.793807	0.543387	0.895772
	O276	O	0.941392	1.221169	-0.225640
	H277	H	0.934538	1.231766	-0.231489
	H278	H	0.944281	1.222455	-0.234113
	O279	O	0.181747	0.211668	1.194820
	H280	H	0.189036	0.181873	1.179649
	H281	H	0.216592	0.240468	1.225877
	O282	O	-0.196195	0.074014	1.001879
	H283	H	-0.187331	0.058234	1.000558
	H284	H	-0.194146	0.071694	0.994687
	O285	O	0.504209	0.636445	0.654325
	H286	H	0.493945	0.642052	0.659224
	H287	H	0.507400	0.648782	0.641408
	O288	O	1.104189	-0.038752	1.824974
	H289	H	1.095446	-0.029553	1.824705
	H290	H	1.106765	-0.028822	1.831670
	O291	O	1.181017	-0.202835	-0.218320
	H292	H	1.207896	-0.221893	-0.248321
	H293	H	1.167383	-0.180538	-0.228274
	O294	O	0.675132	0.346865	0.288003
	H295	H	0.698624	0.349069	0.264224
	H296	H	0.676850	0.375252	0.279768
	O297	O	0.421892	-0.525945	-0.315443
	H298	H	0.423412	-0.529687	-0.317942
	H299	H	0.435893	-0.514490	-0.307450
	O300	O	0.192220	0.093873	0.098442
	H301	H	0.203956	0.103889	0.115420
	H302	H	0.203481	0.084988	0.105024
	O303	O	-0.184076	-0.096801	-0.190951
	H304	H	-0.184228	-0.089504	-0.179548
	H305	H	-0.174385	-0.083979	-0.189121
	O306	O	1.444632	0.300596	-0.310796
	H307	H	1.463307	0.294261	-0.298248
	H308	H	1.455032	0.299554	-0.314428
	O309	O	-0.329173	0.708518	-0.317943
	H310	H	-0.306367	0.719819	-0.289185
	H311	H	-0.345713	0.714345	-0.343305
	O312	O	0.560044	0.453240	0.542130
	H313	H	0.572722	0.447488	0.538842
	H314	H	0.555980	0.455940	0.533340
	O315	O	0.310859	0.506346	0.694591
	H316	H	0.311502	0.488985	0.712354
	H317	H	0.322315	0.491005	0.703715
	O318	O	1.132067	1.077896	-0.138327
	H319	H	1.131825	1.080622	-0.146972
	H320	H	1.138701	1.078832	-0.137463
	O321	O	-0.231673	1.217625	0.782428
	H322	H	-0.228762	1.201199	0.800184
	H323	H	-0.227513	1.223349	0.801729
	O324	O	1.001896	-0.023026	0.809185
	H325	H	1.015681	-0.030256	0.813844
	H326	H	1.012657	-0.027943	0.801753
	O327	O	-0.225668	1.051151	0.783067
	H328	H	-0.232688	1.058811	0.762416
	H329	H	-0.223852	1.057071	0.783173
	O330	O	0.519236	0.572107	0.274217
	H331	H	0.505643	0.581494	0.278076
	H332	H	0.518205	0.600006	0.275836
	O333	O	0.434539	1.627876	1.488489
	H334	H	0.430279	1.619037	1.480453
	H335	H	0.435939	1.620572	1.470316
	O336	O	0.519858	0.405430	0.588976
	H337	H	0.541784	0.400495	0.588583
	H338	H	0.523063	0.406860	0.595511
	O339	O	0.267892	0.298402	0.508599
	H340	H	0.295762	0.285015	0.500307
	H341	H	0.255481	0.289176	0.503960
	O342	O	0.112461	1.003728	0.107145
	H343	H	0.123317	1.011825	0.102797
	H344	H	0.125379	1.008141	0.106028
	O345	O	0.288999	0.699865	0.670354
	H346	H	0.310553	0.691539	0.646960
	H347	H	0.311285	0.674057	0.661464
	O348	O	0.444606	0.732957	0.266776
	H349	H	0.431171	0.757141	0.238239
	H350	H	0.408198	0.727184	0.265662
	O351	O	0.551114	-0.270568	1.408157
	H352	H	0.553954	-0.271076	1.404395
	H353	H	0.540775	-0.267949	1.385696
	O354	O	0.962465	0.009658	0.793521
	H355	H	0.971322	0.000514	0.794499
	H356	H	0.967129	0.011248	0.785328
	O357	O	0.289786	0.319489	0.301180
	H358	H	0.311145	0.334173	0.317654
	H359	H	0.307785	0.338441	0.319970
	O360	O	1.582864	0.716053	1.596365
	H361	H	1.595211	0.733169	1.590448
	H362	H	1.599933	0.722041	1.616380
	O363	O	1.040227	1.007142	-0.050809
	H364	H	1.050686	1.010020	-0.067167
	H365	H	1.024876	1.020025	-0.041091
	O366	O	1.054920	1.004657	1.145164
	H367	H	1.062313	1.012070	1.138228
	H368	H	1.054924	1.006783	1.143643
	O369	O	0.103193	0.167949	1.170981
	H370	H	0.105477	0.179002	1.171950
	H371	H	0.130962	0.158103	1.166609
	O372	O	0.662910	0.471082	1.324386
	H373	H	0.669437	0.489307	1.326430
	H374	H	0.659301	0.493969	1.326195
	O375	O	1.547409	-0.714517	0.304146
	H376	H	1.574534	-0.730511	0.288389
	H377	H	1.568561	-0.718585	0.285433
	O378	O	0.427313	0.295023	0.434136
	H379	H	0.451658	0.295593	0.422411
	H380	H	0.447410	0.291903	0.427387
	O381	O	0.624670	0.562804	0.441637
	H382	H	0.621652	0.575876	0.433122
	H383	H	0.632599	0.579228	0.420336
	O384	O	0.336847	0.578602	0.324849
	H385	H	0.340797	0.573423	0.312472
	H386	H	0.337239	0.573948	0.328274
	O387	O	-0.016457	0.802323	0.804216
	H388	H	-0.017030	0.802383	0.822356
	H389	H	-0.004842	0.776985	0.789532
	O390	O	-0.229292	0.972813	1.016145
	H391	H	-0.232511	0.972216	1.005222
	H392	H	-0.221926	0.957564	1.019208
	O393	O	0.951279	-0.194441	0.197640
	H394	H	0.957296	-0.197260	0.206672
	H395	H	0.949251	-0.194064	0.207738
	O396	O	0.282105	0.321066	0.674166
	H397	H	0.328030	0.310020	0.683737
	H398	H	0.272430	0.323340	0.633698
	O399	O	0.259817	0.452005	0.428851
	H400	H	0.275629	0.459213	0.443213
	H401	H	0.251791	0.442897	0.435652
	O402	O	0.977009	-0.195912	1.011515
	H403	H	0.987943	-0.194675	1.030750
	H404	H	0.990463	-0.196431	1.007171
	O405	O	0.665408	0.517090	0.659216
	H406	H	0.686178	0.514039	0.681363
	H407	H	0.670282	0.521071	0.659462
	O408	O	0.876997	1.072578	1.132649
	H409	H	0.891966	1.076756	1.124717
	H410	H	0.887720	1.086991	1.148408
	O411	O	1.140205	1.197336	-0.031544
	H412	H	1.126091	1.195999	-0.034096
	H413	H	1.149185	1.213608	-0.024112
	O414	O	0.154296	-0.147361	0.124472
	H415	H	0.158400	-0.154691	0.111468
	H416	H	0.149624	-0.144810	0.128671
	O417	O	0.881579	-0.172513	-0.108416
	H418	H	0.898004	-0.177630	-0.091959
	H419	H	0.878728	-0.165782	-0.089055
	O420	O	1.421084	-0.544363	1.269275
	H421	H	1.447448	-0.549222	1.264066
	H422	H	1.412605	-0.528589	1.265072
	O423	O	1.058314	1.099643	-0.003190
	H424	H	1.065051	1.092167	0.000547
	H425	H	1.058723	1.100273	-0.012829
	O426	O	0.260641	0.563912	0.535012
	H427	H	0.278471	0.544655	0.541355
	H428	H	0.261166	0.545021	0.565060
	O429	O	0.752744	0.231588	0.206361
	H430	H	0.766117	0.244741	0.183942
	H431	H	0.774263	0.204961	0.185598
	O432	O	0.970105	0.147007	1.109084
	H433	H	0.975831	0.166245	1.131542
	H434	H	0.994419	0.144260	1.102507
	O435	O	0.751109	0.785783	0.206508
	H436	H	0.744964	0.820860	0.201717
	H437	H	0.776746	0.774493	0.210894
	O438	O	0.756986	0.788625	0.016195
	H439	H	0.757000	0.780064	0.027111
	H440	H	0.744794	0.772701	0.029592
	O441	O	0.517712	0.634368	0.485008
	H442	H	0.515070	0.646963	0.485768
	H443	H	0.524717	0.616881	0.499440
	O444	O	0.261464	0.720022	0.454597
	H445	H	0.245143	0.719717	0.469744
	H446	H	0.245883	0.708169	0.470176
	O447	O	0.096668	0.969858	0.946778
	H448	H	0.107510	0.957308	0.932253
	H449	H	0.085712	0.956368	0.951548
	O450	O	1.271150	-0.288513	0.284637
	H451	H	1.262753	-0.326201	0.274000
	H452	H	1.265270	-0.279176	0.334356
	O453	O	0.657766	0.602605	0.366130
	H454	H	0.659281	0.600302	0.376808
	H455	H	0.651717	0.603531	0.366694
	O456	O	-0.223248	1.200089	0.955109
	H457	H	-0.207953	1.205260	0.955427
	H458	H	-0.219660	1.184262	0.971590
	O459	O	0.586376	0.526611	0.586588
	H460	H	0.582019	0.525978	0.604642
	H461	H	0.601582	0.528376	0.587961
	O462	O	0.965254	0.129508	1.053861
	H463	H	0.975700	0.122183	1.054420
	H464	H	0.975884	0.142989	1.045720
	O465	O	0.656216	0.283531	0.484252
	H466	H	0.658342	0.288820	0.453648
	H467	H	0.672617	0.270706	0.460312
	O468	O	0.190744	0.786390	-0.047433
	H469	H	0.198814	0.771431	-0.074368
	H470	H	0.202900	0.774857	-0.070182
	O471	O	0.893186	0.068646	0.063498
	H472	H	0.909374	0.069706	0.073064
	H473	H	0.889320	0.069069	0.064141
	O474	O	0.844864	1.047310	0.147867
	H475	H	0.862972	1.038922	0.144334
	H476	H	0.849750	1.052827	0.140599
	O477	O	0.531418	0.375226	0.553530
	H478	H	0.522196	0.365962	0.532991
	H479	H	0.561314	0.356972	0.564381
