data_Molecule from HDF5

_cell_length_a		16.693762
_cell_length_b		16.621388
_cell_length_c		16.466588
_cell_angle_alpha	89.973607
_cell_angle_beta	89.978254
_cell_angle_gamma	90.008626
_symmetry_space_group_name_H-M	'P 1'
_symmetry_Int_Tables_number		1

loop_
	_symmetry_equiv_pos_as_xyz
	x,y,z

loop_
	_atom_site_label
	_atom_site_type_symbol
	_atom_site_fract_x
	_atom_site_fract_y
	_atom_site_fract_z
	H0	H	0.380222	0.848398	0.712099
	H1	H	0.587782	0.161089	0.716050
	H2	H	0.585572	0.848993	0.273589
	H3	H	0.379968	0.161895	0.274490
	H4	H	0.701700	0.401940	0.836702
	H5	H	0.703293	0.612340	0.149973
	H6	H	0.262328	0.610032	0.836442
	H7	H	0.261308	0.401413	0.150658
	H8	H	0.829286	0.730370	0.384266
	H9	H	0.137731	0.727587	0.598796
	H10	H	0.827114	0.284144	0.598933
	H11	H	0.135954	0.282883	0.387552
	H12	H	0.825560	0.403089	0.712837
	H13	H	0.138062	0.609740	0.714339
	H14	H	0.826985	0.611515	0.270568
	H15	H	0.136280	0.399806	0.270833
	H16	H	0.377410	0.726747	0.836713
	H17	H	0.586435	0.726763	0.150662
	H18	H	0.586420	0.286023	0.836126
	H19	H	0.378195	0.287310	0.151544
	H20	H	0.701788	0.849209	0.389949
	H21	H	0.707319	0.158885	0.602770
	H22	H	0.260891	0.849631	0.599380
	H23	H	0.259804	0.160551	0.387167
	H24	H	0.877116	0.350398	0.214111
	H25	H	0.086506	0.661661	0.214915
	H26	H	0.085581	0.349532	0.773450
	H27	H	0.879296	0.663375	0.773787
	H28	H	0.204262	0.899588	0.336235
	H29	H	0.204365	0.111504	0.649202
	H30	H	0.761999	0.109255	0.336845
	H31	H	0.760862	0.898302	0.649570
	H32	H	0.326403	0.229102	0.887386
	H33	H	0.636951	0.227926	0.099425
	H34	H	0.327756	0.781220	0.103124
	H35	H	0.636319	0.784731	0.888844
	H36	H	0.326133	0.901068	0.215993
	H37	H	0.637301	0.109793	0.214930
	H38	H	0.326378	0.112196	0.770723
	H39	H	0.638049	0.904062	0.774920
	H40	H	0.877284	0.226578	0.337414
	H41	H	0.088383	0.226863	0.650528
	H42	H	0.087737	0.783924	0.336009
	H43	H	0.876672	0.783278	0.649792
	H44	H	0.204783	0.351190	0.885202
	H45	H	0.205837	0.660377	0.101642
	H46	H	0.757846	0.352267	0.101227
	H47	H	0.761218	0.662221	0.888716
	H48	H	0.391843	0.116598	0.579618
	H49	H	0.573042	0.892660	0.585159
	H50	H	0.573807	0.116833	0.408482
	H51	H	0.389339	0.893791	0.407574
	H52	H	0.571449	0.414379	0.107683
	H53	H	0.573055	0.587759	0.882118
	H54	H	0.395156	0.593709	0.105696
	H55	H	0.396233	0.419371	0.881972
	H56	H	0.093801	0.593923	0.402770
	H57	H	0.870355	0.595414	0.582546
	H58	H	0.093506	0.418322	0.585287
	H59	H	0.873124	0.415954	0.411172
	H60	H	0.095307	0.411765	0.584603
	H61	H	0.871349	0.596529	0.581940
	H62	H	0.092598	0.595706	0.407275
	H63	H	0.870299	0.421124	0.400654
	H64	H	0.392175	0.596004	0.107559
	H65	H	0.564135	0.597881	0.882473
	H66	H	0.572241	0.420191	0.106727
	H67	H	0.393328	0.413160	0.879227
	H68	H	0.573447	0.118140	0.403544
	H69	H	0.569279	0.895150	0.582535
	H70	H	0.392021	0.117815	0.581568
	H71	H	0.391195	0.891308	0.401108
	H72	H	0.891152	0.619154	0.083473
	H73	H	0.074472	0.394332	0.077300
	H74	H	0.071243	0.617167	0.907165
	H75	H	0.889475	0.392621	0.900887
	H76	H	0.066595	0.921220	0.602721
	H77	H	0.069604	0.094039	0.381424
	H78	H	0.896416	0.091982	0.605064
	H79	H	0.887062	0.921429	0.381168
	H80	H	0.592777	0.097227	0.903218
	H81	H	0.367795	0.097346	0.088319
	H82	H	0.593181	0.911775	0.080806
	H83	H	0.369490	0.918278	0.900111
	H84	H	0.589780	0.918971	0.078682
	H85	H	0.371252	0.100654	0.076948
	H86	H	0.591691	0.096808	0.906946
	H87	H	0.367972	0.911013	0.905433
	H88	H	0.893939	0.097206	0.607621
	H89	H	0.071200	0.094244	0.380692
	H90	H	0.068836	0.912738	0.606240
	H91	H	0.899124	0.919967	0.383204
	H92	H	0.074176	0.618412	0.905100
	H93	H	0.072120	0.393253	0.084744
	H94	H	0.897397	0.615698	0.079752
	H95	H	0.893054	0.395195	0.903329
	H96	H	0.393928	0.116528	0.580741
	H97	H	0.573762	0.893829	0.580164
	H98	H	0.569782	0.116010	0.405959
	H99	H	0.396263	0.894650	0.405221
	H100	H	0.566938	0.418357	0.105586
	H101	H	0.576020	0.599903	0.876639
	H102	H	0.391319	0.592295	0.106458
	H103	H	0.389605	0.419165	0.879805
	H104	H	0.091104	0.591451	0.405683
	H105	H	0.871744	0.595445	0.582039
	H106	H	0.092955	0.415002	0.579351
	H107	H	0.867647	0.409558	0.402658
	H108	H	0.890517	0.616412	0.075815
	H109	H	0.067650	0.396598	0.079743
	H110	H	0.070581	0.617309	0.903352
	H111	H	0.888515	0.393961	0.905657
	H112	H	0.075462	0.919227	0.605462
	H113	H	0.070581	0.092881	0.380952
	H114	H	0.890422	0.092204	0.607043
	H115	H	0.892786	0.910900	0.377987
	H116	H	0.591205	0.093828	0.904503
	H117	H	0.374228	0.089916	0.080979
	H118	H	0.592877	0.918329	0.086290
	H119	H	0.372008	0.918406	0.908745
	C120	C	0.361080	0.013955	0.613787
	C121	C	0.604124	0.996866	0.615546
	C122	C	0.603452	0.013660	0.373409
	C123	C	0.360403	0.996647	0.372248
	C124	C	0.602579	0.385380	0.002702
	C125	C	0.603069	0.627513	0.984718
	C126	C	0.360736	0.626811	0.002863
	C127	C	0.360886	0.385259	0.984629
	C128	C	-0.009505	0.627070	0.371426
	C129	C	0.973975	0.627541	0.614606
	C130	C	-0.009275	0.383897	0.614970
	C131	C	0.973174	0.383723	0.371930
	C132	C	0.860336	0.514860	0.113715
	C133	C	0.103810	0.497373	0.114410
	C134	C	0.103785	0.514773	0.872298
	C135	C	0.859867	0.497865	0.871936
	C136	C	0.102971	0.884938	0.501065
	C137	C	0.102988	0.126357	0.484744
	C138	C	0.861451	0.125829	0.502528
	C139	C	0.861195	0.884368	0.484615
	C140	C	0.489556	0.128559	0.872141
	C141	C	0.473718	0.127365	0.114563
	C142	C	0.489694	0.883980	0.115591
	C143	C	0.473155	0.884815	0.872947
	C144	C	0.360757	0.895742	0.673035
	C145	C	0.606402	0.114124	0.676082
	C146	C	0.604398	0.896055	0.313555
	C147	C	0.359933	0.114828	0.313406
	C148	C	0.662200	0.383403	0.884150
	C149	C	0.663210	0.630271	0.102785
	C150	C	0.301477	0.629035	0.883971
	C151	C	0.301226	0.383153	0.103250
	C152	C	0.875068	0.688987	0.367094
	C153	C	0.091052	0.687323	0.617018
	C154	C	0.873570	0.324594	0.616981
	C155	C	0.089483	0.323236	0.369003
	C156	C	0.872861	0.383670	0.673645
	C157	C	0.091065	0.628965	0.674721
	C158	C	0.874011	0.629991	0.310480
	C159	C	0.089670	0.381452	0.311155
	C160	C	0.358735	0.686866	0.884149
	C161	C	0.605080	0.687149	0.103157
	C162	C	0.604630	0.325914	0.883907
	C163	C	0.359300	0.326316	0.103833
	C164	C	0.662388	0.895921	0.371110
	C165	C	0.665882	0.113136	0.619833
	C166	C	0.301627	0.896367	0.616584
	C167	C	0.300646	0.114063	0.369520
	C168	C	0.858509	0.397514	0.174054
	C169	C	0.105176	0.614812	0.174760
	C170	C	0.104742	0.397040	0.812582
	C171	C	0.860352	0.616194	0.813692
	C172	C	0.163835	0.881504	0.383336
	C173	C	0.163833	0.129374	0.602481
	C174	C	0.802057	0.127734	0.383939
	C175	C	0.800875	0.880773	0.602437
	C176	C	0.372759	0.188453	0.869659
	C177	C	0.590479	0.187218	0.117242
	C178	C	0.373755	0.822782	0.119753
	C179	C	0.590154	0.825467	0.871074
	C180	C	0.372832	0.882324	0.175943
	C181	C	0.590634	0.128806	0.174839
	C182	C	0.372850	0.130554	0.811452
	C183	C	0.590873	0.884625	0.814290
	C184	C	0.859308	0.185817	0.384063
	C185	C	0.106237	0.186801	0.602890
	C186	C	0.105947	0.824138	0.383089
	C187	C	0.858545	0.823490	0.602498
	C188	C	0.164049	0.397707	0.868524
	C189	C	0.164447	0.614263	0.118412
	C190	C	0.799179	0.398257	0.118034
	C191	C	0.801278	0.615608	0.870344
	C192	C	0.385598	0.095751	0.588034
	C193	C	0.579014	0.915287	0.589919
	C194	C	0.579227	0.095597	0.398750
	C195	C	0.385107	0.914592	0.397465
	C196	C	0.577442	0.410471	0.085229
	C197	C	0.578169	0.602461	0.901956
	C198	C	0.385695	0.601358	0.085206
	C199	C	0.385873	0.410100	0.901871
	C200	C	0.071511	0.601130	0.397885
	C201	C	0.892455	0.603076	0.589260
	C202	C	0.072642	0.408319	0.590172
	C203	C	0.891565	0.408429	0.397616
	C204	C	0.885684	0.595958	0.087182
	C205	C	0.078717	0.415864	0.088135
	C206	C	0.079099	0.596544	0.897915
	C207	C	0.883478	0.415378	0.896358
	C208	C	0.077470	0.910510	0.583424
	C209	C	0.077680	0.100973	0.402414
	C210	C	0.886560	0.101005	0.584980
	C211	C	0.886104	0.910053	0.402156
	C212	C	0.570839	0.103332	0.897514
	C213	C	0.392206	0.102874	0.089313
	C214	C	0.570853	0.909213	0.089453
	C215	C	0.391122	0.909147	0.897777
	Zn216	Zn	0.481448	0.006208	0.743408
	Zn217	Zn	0.481889	0.005667	0.244425
	Zn218	Zn	0.730672	0.506626	-0.006596
	Zn219	Zn	0.232442	0.506156	-0.006628
	Zn220	Zn	-0.017575	0.756445	0.492648
	Zn221	Zn	-0.018133	0.254689	0.493755
	Zn222	Zn	-0.017946	0.505850	0.743664
	Zn223	Zn	-0.018067	0.505833	0.242673
	Zn224	Zn	0.481390	0.754784	-0.005802
	Zn225	Zn	0.481671	0.257326	-0.006085
	Zn226	Zn	0.732818	0.005239	0.493916
	Zn227	Zn	0.231629	0.005309	0.493097
	N228	N	0.396895	0.970024	0.671698
	N229	N	0.568684	0.040906	0.673574
	N230	N	0.568494	0.970415	0.314627
	N231	N	0.396143	0.040697	0.314832
	N232	N	0.661220	0.419501	0.959119
	N233	N	0.662044	0.593858	0.028039
	N234	N	0.302531	0.592265	0.958721
	N235	N	0.301660	0.418672	0.027941
	N236	N	0.948692	0.687468	0.404209
	N237	N	0.017139	0.686912	0.580612
	N238	N	0.948100	0.324387	0.581589
	N239	N	0.015850	0.324447	0.405966
	N240	N	0.946863	0.419758	0.672654
	N241	N	0.017328	0.592695	0.673539
	N242	N	0.947021	0.592172	0.313018
	N243	N	0.015999	0.417998	0.312501
	N244	N	0.394697	0.685755	0.959177
	N245	N	0.568443	0.685646	0.028512
	N246	N	0.568516	0.326568	0.958943
	N247	N	0.395689	0.327350	0.028909
	N248	N	0.662102	0.970199	0.407398
	N249	N	0.664749	0.039010	0.583162
	N250	N	0.301301	0.970903	0.580830
	N251	N	0.300651	0.039410	0.405157
	N252	N	0.895827	0.470968	0.171601
	N253	N	0.068124	0.541083	0.172411
	N254	N	0.067951	0.470916	0.814477
	N255	N	0.895944	0.541733	0.814366
	N256	N	0.162119	0.918436	0.457772
	N257	N	0.162009	0.092321	0.528056
	N258	N	0.803171	0.091290	0.458626
	N259	N	0.802348	0.917923	0.527923
	N260	N	0.446378	0.187355	0.906617
	N261	N	0.516742	0.186487	0.080621
	N262	N	0.447457	0.823669	0.082906
	N263	N	0.515813	0.825508	0.906932
	N264	N	0.446070	0.919896	0.173340
	N265	N	0.516928	0.092113	0.173290
	N266	N	0.446546	0.094059	0.812780
	N267	N	0.516999	0.920927	0.815433
	N268	N	0.895494	0.184799	0.458953
	N269	N	0.068906	0.185083	0.528523
	N270	N	0.068760	0.826173	0.457575
	N271	N	0.895382	0.825476	0.528140
	N272	N	0.163703	0.472086	0.904791
	N273	N	0.163714	0.540087	0.081753
	N274	N	0.800043	0.472319	0.081354
	N275	N	0.800831	0.540975	0.905717
	O276	O	-0.229152	0.792331	0.021267
	H277	H	-0.234849	0.792090	0.036840
	H278	H	-0.237706	0.777770	0.028539
	O279	O	0.675610	0.328636	-0.329700
	H280	H	0.688939	0.313397	-0.313479
	H281	H	0.682223	0.316860	-0.347314
	O282	O	0.772925	0.038607	0.783736
	H283	H	0.779419	0.040042	0.785272
	H284	H	0.761144	0.029376	0.770117
	O285	O	0.350254	0.441990	0.451335
	H286	H	0.350953	0.455521	0.448454
	H287	H	0.353266	0.440740	0.448326
	O288	O	0.186643	0.801328	0.792359
	H289	H	0.193688	0.789015	0.785984
	H290	H	0.190642	0.783935	0.801885
	O291	O	0.612870	0.704873	0.679884
	H292	H	0.599699	0.705413	0.686027
	H293	H	0.627333	0.719216	0.677748
	O294	O	0.521669	-0.331122	1.479325
	H295	H	0.524762	-0.322443	1.479864
	H296	H	0.532399	-0.331995	1.487952
	O297	O	0.061156	1.043767	0.781859
	H298	H	0.061838	1.034085	0.777755
	H299	H	0.070572	1.032574	0.790036
	O300	O	0.150683	0.084714	0.877173
	H301	H	0.167442	0.084642	0.862312
	H302	H	0.148252	0.065182	0.875212
	O303	O	0.763551	0.101067	-0.046669
	H304	H	0.744945	0.111702	-0.038193
	H305	H	0.764485	0.097978	-0.035136
	O306	O	1.015282	0.784884	0.772107
	H307	H	1.016629	0.785951	0.779597
	H308	H	1.024435	0.757246	0.745368
	O309	O	0.503017	0.491585	0.311871
	H310	H	0.507572	0.486699	0.327864
	H311	H	0.511162	0.488289	0.314615
	O312	O	0.533496	0.278651	0.573744
	H313	H	0.530818	0.276844	0.561439
	H314	H	0.541674	0.273810	0.570534
	O315	O	1.276015	0.710432	1.288948
	H316	H	1.284920	0.715458	1.330596
	H317	H	1.301052	0.685727	1.282728
	O318	O	0.015863	0.211608	1.023448
	H319	H	0.017897	0.215795	1.022105
	H320	H	0.023182	0.210487	1.014326
	O321	O	-0.044163	0.015853	-0.118882
	H322	H	-0.044259	0.017861	-0.115956
	H323	H	-0.025755	0.020871	-0.124202
	O324	O	1.050665	0.943543	0.041580
	H325	H	1.039569	0.939058	0.054624
	H326	H	1.059455	0.927237	0.040776
	O327	O	0.065781	-0.040444	1.219295
	H328	H	0.082624	-0.033689	1.216167
	H329	H	0.075766	-0.064883	1.223224
	O330	O	0.917996	0.809608	1.137678
	H331	H	0.922280	0.804262	1.130226
	H332	H	0.923654	0.811161	1.155837
	O333	O	-0.014168	0.225814	-0.175222
	H334	H	-0.014692	0.203190	-0.175489
	H335	H	-0.016408	0.239624	-0.189379
	O336	O	0.821284	-0.087421	0.205633
	H337	H	0.792178	-0.093001	0.213721
	H338	H	0.827239	-0.112968	0.213352
	O339	O	1.417299	-0.422235	0.551289
	H340	H	1.420472	-0.430427	0.558337
	H341	H	1.411004	-0.414480	0.554575
	O342	O	0.481823	0.655188	-0.294426
	H343	H	0.475439	0.649438	-0.277688
	H344	H	0.472604	0.649751	-0.297723
	O345	O	-0.004494	0.995714	0.861168
	H346	H	-0.007309	0.983378	0.865913
	H347	H	-0.002530	0.973173	0.860967
	O348	O	0.476547	0.528997	0.426786
	H349	H	0.493369	0.523302	0.432135
	H350	H	0.464213	0.535065	0.433264
	O351	O	0.773918	1.213508	-0.213133
	H352	H	0.800074	1.219308	-0.190989
	H353	H	0.776787	1.180692	-0.203685
	O354	O	0.206479	-0.011159	0.805946
	H355	H	0.205186	-0.034366	0.806263
	H356	H	0.223325	-0.026666	0.783158
	O357	O	0.205773	1.194391	1.007337
	H358	H	0.197741	1.194994	0.989912
	H359	H	0.220297	1.207832	0.998745
	O360	O	1.204009	0.220935	1.208697
	H361	H	1.176698	0.204511	1.212711
	H362	H	1.194596	0.222324	1.167889
	O363	O	-0.531540	-0.320813	-0.722497
	H364	H	-0.526366	-0.309672	-0.735340
	H365	H	-0.528527	-0.331350	-0.715634
	O366	O	0.523016	0.528479	0.580116
	H367	H	0.523708	0.522210	0.571799
	H368	H	0.523233	0.517740	0.589150
	O369	O	1.170871	0.062204	0.200077
	H370	H	1.179626	0.076945	0.207920
	H371	H	1.180024	0.056703	0.199102
	O372	O	1.653452	1.511246	0.275736
	H373	H	1.665845	1.485670	0.262811
	H374	H	1.651585	1.502489	0.272645
	O375	O	1.108167	0.209758	-0.127667
	H376	H	1.087698	0.201120	-0.125677
	H377	H	1.099711	0.198857	-0.124638
	O378	O	-0.176129	-0.201816	1.191377
	H379	H	-0.161362	-0.207465	1.192240
	H380	H	-0.184477	-0.210835	1.203251
	O381	O	0.010477	0.843672	1.020202
	H382	H	0.028712	0.845454	1.014913
	H383	H	0.008094	0.838383	1.011350
	O384	O	1.168126	-0.158031	1.143459
	H385	H	1.175226	-0.170832	1.155424
	H386	H	1.176233	-0.146645	1.132091
	O387	O	1.264109	0.536709	0.278130
	H388	H	1.270090	0.539932	0.268334
	H389	H	1.260510	0.540040	0.262353
	O390	O	0.624311	0.369760	0.291549
	H391	H	0.641439	0.362697	0.289670
	H392	H	0.613641	0.352098	0.275204
	O393	O	0.429749	0.588552	0.649035
	H394	H	0.427787	0.579040	0.660354
	H395	H	0.445969	0.566525	0.645054
	O396	O	-0.251457	0.777483	0.768880
	H397	H	-0.233604	0.794292	0.780604
	H398	H	-0.261713	0.789390	0.767518
	O399	O	-0.526361	0.706020	0.447486
	H400	H	-0.513279	0.693673	0.436079
	H401	H	-0.535632	0.702613	0.456826
	O402	O	0.276812	0.300001	0.598544
	H403	H	0.278637	0.300078	0.560413
	H404	H	0.254734	0.288073	0.609119
	O405	O	0.802567	0.162768	1.047189
	H406	H	0.803878	0.170286	1.056689
	H407	H	0.814739	0.150443	1.027733
	O408	O	-0.064676	-0.042781	-0.064963
	H409	H	-0.060434	-0.056496	-0.061551
	H410	H	-0.056155	-0.045097	-0.051218
	O411	O	0.891387	1.179207	1.114501
	H412	H	0.892462	1.175895	1.087354
	H413	H	0.910127	1.157613	1.117185
	O414	O	1.211733	-0.023055	0.039533
	H415	H	1.217253	-0.021191	0.039162
	H416	H	1.205850	-0.026207	0.039409
	O417	O	0.696798	0.288278	0.470218
	H418	H	0.701340	0.291800	0.452511
	H419	H	0.705267	0.282160	0.461442
	O420	O	0.696530	0.713989	0.514372
	H421	H	0.707919	0.686883	0.496652
	H422	H	0.709674	0.720828	0.514922
	O423	O	0.552798	-0.555545	1.683147
	H424	H	0.550109	-0.578293	1.686634
	H425	H	0.584749	-0.554491	1.692143
	O426	O	0.747058	0.242024	0.248466
	H427	H	0.747854	0.226333	0.256711
	H428	H	0.761962	0.227062	0.227333
	O429	O	0.925194	1.094541	0.979772
	H430	H	0.922609	1.101128	0.974367
	H431	H	0.927684	1.102211	0.983250
	O432	O	0.306200	0.658929	0.629272
	H433	H	0.313621	0.639951	0.610552
	H434	H	0.325654	0.664292	0.624946
	O435	O	0.280293	0.307381	0.619504
	H436	H	0.289203	0.314446	0.589626
	H437	H	0.299215	0.297318	0.608375
	O438	O	-0.059974	-0.004704	0.078690
	H439	H	-0.055496	-0.010065	0.084845
	H440	H	-0.054276	-0.013581	0.080681
	O441	O	0.476155	0.368835	0.328026
	H442	H	0.461220	0.362400	0.347334
	H443	H	0.469755	0.381396	0.322279
	O444	O	0.428661	0.285576	0.439479
	H445	H	0.429321	0.301107	0.443189
	H446	H	0.422257	0.285183	0.439170
	O447	O	-0.207043	1.011373	0.951390
	H448	H	-0.199859	1.009288	0.956858
	H449	H	-0.214577	1.012887	0.944971
	O450	O	-0.185811	1.047302	1.108008
	H451	H	-0.191773	1.036347	1.112514
	H452	H	-0.177212	1.040046	1.109254
	O453	O	0.350845	0.460855	0.342133
	H454	H	0.348778	0.460586	0.334490
	H455	H	0.358670	0.458815	0.345691
	O456	O	0.003546	0.213229	1.210309
	H457	H	-0.005749	0.220352	1.215254
	H458	H	0.000090	0.211894	1.224375
	O459	O	0.890784	0.811417	-0.122702
	H460	H	0.900662	0.826129	-0.118897
	H461	H	0.884716	0.817484	-0.109559
	O462	O	1.437763	0.298083	0.703546
	H463	H	1.434544	0.294715	0.688498
	H464	H	1.439445	0.274419	0.728052
	O465	O	1.155382	-0.188079	-0.013338
	H466	H	1.164507	-0.193784	-0.001142
	H467	H	1.156070	-0.188374	-0.024566
	O468	O	0.307718	0.498433	0.715755
	H469	H	0.319898	0.460507	0.715462
	H470	H	0.279150	0.480196	0.737163
	O471	O	0.680473	0.696307	0.307713
	H472	H	0.674016	0.688238	0.336136
	H473	H	0.670054	0.675900	0.301933
	O474	O	0.317088	0.523348	0.539801
	H475	H	0.322510	0.514371	0.530070
	H476	H	0.309162	0.501960	0.564387
	O477	O	0.298692	0.328156	1.308532
	H478	H	0.320755	0.343244	1.314868
	H479	H	0.273507	0.295889	1.277014
	O480	O	0.264722	0.718636	0.460569
	H481	H	0.247600	0.739579	0.456375
	H482	H	0.265045	0.701694	0.479359
	O483	O	0.703948	0.538924	0.709806
	H484	H	0.708147	0.569672	0.719143
	H485	H	0.717958	0.555995	0.726135
	O486	O	0.650438	0.419719	0.486830
	H487	H	0.640485	0.409013	0.489666
	H488	H	0.651877	0.427644	0.505807
	O489	O	0.706515	1.570865	-0.513808
	H490	H	0.705428	1.543300	-0.506040
	H491	H	0.715049	1.558147	-0.524968
