data_Molecule from HDF5

_cell_length_a		16.238003
_cell_length_b		16.333142
_cell_length_c		16.166971
_cell_angle_alpha	89.745518
_cell_angle_beta	90.246901
_cell_angle_gamma	89.768583
_symmetry_space_group_name_H-M	'P 1'
_symmetry_Int_Tables_number		1

loop_
	_symmetry_equiv_pos_as_xyz
	x,y,z

loop_
	_atom_site_label
	_atom_site_type_symbol
	_atom_site_fract_x
	_atom_site_fract_y
	_atom_site_fract_z
	H0	H	0.401294	0.840354	0.709912
	H1	H	0.596845	0.167900	0.706160
	H2	H	0.595444	0.838866	0.281122
	H3	H	0.399023	0.167086	0.278801
	H4	H	0.714442	0.405320	0.831575
	H5	H	0.714229	0.602776	0.160286
	H6	H	0.283757	0.603955	0.830951
	H7	H	0.289073	0.406731	0.160587
	H8	H	0.835687	0.717987	0.392668
	H9	H	0.162692	0.716494	0.596074
	H10	H	0.835082	0.287030	0.596017
	H11	H	0.162416	0.285404	0.397301
	H12	H	0.835000	0.403725	0.709557
	H13	H	0.164313	0.597131	0.708653
	H14	H	0.835766	0.601467	0.279365
	H15	H	0.165157	0.404462	0.285036
	H16	H	0.399747	0.718960	0.829994
	H17	H	0.599908	0.718846	0.158588
	H18	H	0.600000	0.290492	0.831029
	H19	H	0.399720	0.288370	0.157746
	H20	H	0.714968	0.840102	0.393826
	H21	H	0.713562	0.166488	0.592209
	H22	H	0.285319	0.838938	0.593220
	H23	H	0.280514	0.165127	0.392629
	H24	H	0.904696	0.338748	0.209509
	H25	H	0.098843	0.666228	0.210568
	H26	H	0.098468	0.338323	0.784649
	H27	H	0.899710	0.665027	0.778237
	H28	H	0.210498	0.903466	0.328829
	H29	H	0.213182	0.099368	0.658349
	H30	H	0.784713	0.100935	0.328400
	H31	H	0.784490	0.903513	0.658826
	H32	H	0.336286	0.222979	0.891370
	H33	H	0.662961	0.217921	0.094929
	H34	H	0.335937	0.788351	0.093526
	H35	H	0.662423	0.787782	0.893969
	H36	H	0.333908	0.906214	0.205300
	H37	H	0.663159	0.099194	0.207878
	H38	H	0.334429	0.103357	0.780058
	H39	H	0.664179	0.907796	0.782564
	H40	H	0.896307	0.220631	0.331257
	H41	H	0.097837	0.213780	0.659190
	H42	H	0.095711	0.788413	0.330130
	H43	H	0.898069	0.785645	0.658350
	H44	H	0.216745	0.340799	0.897708
	H45	H	0.214580	0.666813	0.094916
	H46	H	0.783601	0.341064	0.097668
	H47	H	0.784900	0.666621	0.896248
	H48	H	0.410635	0.120659	0.594433
	H49	H	0.590738	0.887064	0.591783
	H50	H	0.585968	0.117461	0.400526
	H51	H	0.410022	0.887319	0.396576
	H52	H	0.594462	0.401337	0.116111
	H53	H	0.585389	0.607781	0.876652
	H54	H	0.409976	0.594011	0.110591
	H55	H	0.408248	0.418441	0.877982
	H56	H	0.116575	0.596317	0.403556
	H57	H	0.882211	0.595317	0.587519
	H58	H	0.115471	0.406135	0.585939
	H59	H	0.883395	0.409688	0.405528
	H60	H	0.115797	0.409543	0.592553
	H61	H	0.883253	0.595038	0.583846
	H62	H	0.116825	0.596348	0.405009
	H63	H	0.883320	0.413603	0.402569
	H64	H	0.409224	0.602376	0.113740
	H65	H	0.604165	0.595951	0.873644
	H66	H	0.598808	0.416239	0.113582
	H67	H	0.411600	0.410040	0.877714
	H68	H	0.594349	0.119293	0.405119
	H69	H	0.589629	0.888429	0.585673
	H70	H	0.408477	0.115111	0.575103
	H71	H	0.403575	0.887761	0.405395
	H72	H	0.907948	0.619815	0.090920
	H73	H	0.093943	0.385484	0.095342
	H74	H	0.086955	0.617925	0.902961
	H75	H	0.905636	0.388347	0.910275
	H76	H	0.085023	0.906818	0.610795
	H77	H	0.084202	0.087127	0.380219
	H78	H	0.902072	0.091260	0.611687
	H79	H	0.904003	0.901196	0.374317
	H80	H	0.615103	0.090961	0.898212
	H81	H	0.383367	0.095858	0.084340
	H82	H	0.621834	0.908924	0.105095
	H83	H	0.384551	0.918348	0.904939
	H84	H	0.617410	0.895251	0.076348
	H85	H	0.381549	0.098714	0.086188
	H86	H	0.619374	0.103925	0.896615
	H87	H	0.379518	0.911015	0.893808
	H88	H	0.909841	0.092788	0.609979
	H89	H	0.084128	0.102469	0.376419
	H90	H	0.096715	0.902821	0.615089
	H91	H	0.899308	0.914844	0.376611
	H92	H	0.093737	0.618780	0.905829
	H93	H	0.093305	0.388082	0.086656
	H94	H	0.908824	0.617817	0.085103
	H95	H	0.900295	0.383586	0.900772
	H96	H	0.393200	0.122516	0.585326
	H97	H	0.594938	0.886445	0.587384
	H98	H	0.593009	0.121135	0.395824
	H99	H	0.399742	0.884318	0.396077
	H100	H	0.584288	0.412082	0.110128
	H101	H	0.585670	0.586354	0.882202
	H102	H	0.402318	0.596839	0.114160
	H103	H	0.402564	0.412087	0.875831
	H104	H	0.116254	0.595110	0.404869
	H105	H	0.883809	0.592070	0.586192
	H106	H	0.117667	0.401888	0.591188
	H107	H	0.882065	0.409134	0.400849
	H108	H	0.903655	0.619482	0.086769
	H109	H	0.100707	0.385548	0.090094
	H110	H	0.092586	0.619998	0.898315
	H111	H	0.912433	0.387143	0.900138
	H112	H	0.094518	0.915725	0.610405
	H113	H	0.097920	0.094840	0.374139
	H114	H	0.904585	0.098583	0.612619
	H115	H	0.913575	0.911564	0.379653
	H116	H	0.614333	0.099780	0.908539
	H117	H	0.382676	0.099331	0.082052
	H118	H	0.609615	0.924906	0.080965
	H119	H	0.382036	0.904211	0.906272
	C120	C	0.376385	0.011525	0.614959
	C121	C	0.620302	0.995113	0.615725
	C122	C	0.619825	0.011162	0.372190
	C123	C	0.375385	0.994330	0.370800
	C124	C	0.621548	0.382190	0.004383
	C125	C	0.620558	0.625142	0.986342
	C126	C	0.377975	0.626083	0.003867
	C127	C	0.378977	0.384052	0.986023
	C128	C	0.008122	0.624705	0.373600
	C129	C	0.990950	0.622697	0.616041
	C130	C	0.007816	0.378158	0.618469
	C131	C	0.991169	0.381263	0.374663
	C132	C	0.878897	0.511058	0.117156
	C133	C	0.123668	0.494374	0.118964
	C134	C	0.120784	0.511187	0.874592
	C135	C	0.876989	0.494156	0.873572
	C136	C	0.119760	0.880460	0.503056
	C137	C	0.118613	0.122649	0.485670
	C138	C	0.876156	0.124194	0.503022
	C139	C	0.876623	0.880107	0.485681
	C140	C	0.507749	0.127410	0.871811
	C141	C	0.490751	0.125580	0.114626
	C142	C	0.507632	0.881353	0.115915
	C143	C	0.490527	0.882607	0.873031
	C144	C	0.380400	0.888901	0.671404
	C145	C	0.617545	0.118663	0.669359
	C146	C	0.616549	0.887961	0.318112
	C147	C	0.378063	0.117837	0.316224
	C148	C	0.676871	0.385055	0.880692
	C149	C	0.676539	0.622989	0.110656
	C150	C	0.321687	0.624652	0.880089
	C151	C	0.325437	0.386198	0.110844
	C152	C	0.884765	0.680041	0.373609
	C153	C	0.114032	0.678167	0.615523
	C154	C	0.884219	0.324277	0.616233
	C155	C	0.114008	0.324438	0.377289
	C156	C	0.884379	0.382119	0.673112
	C157	C	0.114953	0.618749	0.671349
	C158	C	0.884786	0.621873	0.317420
	C159	C	0.115236	0.383623	0.321482
	C160	C	0.379575	0.681294	0.879544
	C161	C	0.619601	0.680734	0.109899
	C162	C	0.620104	0.327730	0.880406
	C163	C	0.380373	0.327199	0.109279
	C164	C	0.675986	0.888451	0.374315
	C165	C	0.675563	0.117831	0.612306
	C166	C	0.322971	0.887933	0.612951
	C167	C	0.319040	0.116906	0.372822
	C168	C	0.882890	0.388085	0.172402
	C169	C	0.120038	0.617440	0.173349
	C170	C	0.118966	0.387813	0.821169
	C171	C	0.879350	0.616573	0.816870
	C172	C	0.173652	0.882978	0.378640
	C173	C	0.174555	0.119337	0.609510
	C174	C	0.821256	0.122266	0.378420
	C175	C	0.821683	0.882602	0.609476
	C176	C	0.384778	0.183763	0.872554
	C177	C	0.613974	0.179897	0.113836
	C178	C	0.384676	0.826300	0.113455
	C179	C	0.613746	0.826507	0.874500
	C180	C	0.383566	0.885103	0.168976
	C181	C	0.614065	0.121027	0.170362
	C182	C	0.383914	0.124606	0.816903
	C183	C	0.614509	0.886244	0.819061
	C184	C	0.876696	0.181524	0.379621
	C185	C	0.117310	0.176584	0.609821
	C186	C	0.116825	0.825678	0.379099
	C187	C	0.877949	0.823815	0.609317
	C188	C	0.177683	0.388916	0.877602
	C189	C	0.177247	0.617781	0.115503
	C190	C	0.822798	0.389208	0.116759
	C191	C	0.822113	0.617344	0.875335
	C192	C	0.397783	0.097134	0.591813
	C193	C	0.598373	0.909458	0.594486
	C194	C	0.597631	0.097048	0.394043
	C195	C	0.397895	0.908640	0.392655
	C196	C	0.599060	0.403571	0.090854
	C197	C	0.598385	0.603059	0.899958
	C198	C	0.400563	0.604259	0.090194
	C199	C	0.400980	0.406877	0.899733
	C200	C	0.094243	0.602467	0.397309
	C201	C	0.905351	0.600653	0.592874
	C202	C	0.094091	0.399466	0.596320
	C203	C	0.905091	0.403961	0.396590
	C204	C	0.900640	0.597057	0.094351
	C205	C	0.102371	0.408570	0.097232
	C206	C	0.097830	0.596784	0.896032
	C207	C	0.899424	0.408604	0.896943
	C208	C	0.098282	0.902072	0.589531
	C209	C	0.095484	0.101295	0.399326
	C210	C	0.898910	0.101198	0.589122
	C211	C	0.899104	0.902510	0.399238
	C212	C	0.593923	0.104891	0.894325
	C213	C	0.404624	0.104171	0.091063
	C214	C	0.593858	0.903119	0.094101
	C215	C	0.404392	0.904816	0.895126
	Zn216	Zn	0.498716	0.004770	0.744610
	Zn217	Zn	0.498128	0.003230	0.242884
	Zn218	Zn	0.748716	0.503684	-0.003901
	Zn219	Zn	0.250793	0.504175	-0.004457
	Zn220	Zn	-0.001264	0.752429	0.494874
	Zn221	Zn	-0.002346	0.251576	0.495491
	Zn222	Zn	-0.000536	0.501192	0.745385
	Zn223	Zn	0.000537	0.503125	0.246179
	Zn224	Zn	0.499579	0.753615	-0.005859
	Zn225	Zn	0.499564	0.255489	-0.006427
	Zn226	Zn	0.749125	0.002660	0.493826
	Zn227	Zn	0.247124	0.001960	0.493223
	N228	N	0.412724	0.966794	0.673010
	N229	N	0.583689	0.041561	0.671631
	N230	N	0.582310	0.965309	0.316774
	N231	N	0.412601	0.040720	0.315022
	N232	N	0.678061	0.418105	0.958796
	N233	N	0.677207	0.589113	0.032796
	N234	N	0.320554	0.591062	0.958144
	N235	N	0.324319	0.420895	0.033222
	N236	N	0.962493	0.681851	0.408016
	N237	N	0.036082	0.680974	0.581829
	N238	N	0.962152	0.321358	0.583361
	N239	N	0.035812	0.322953	0.409752
	N240	N	0.962288	0.414907	0.674591
	N241	N	0.037443	0.584949	0.671899
	N242	N	0.962512	0.588228	0.317224
	N243	N	0.037964	0.418306	0.319645
	N244	N	0.413748	0.682528	0.957591
	N245	N	0.585760	0.682432	0.031756
	N246	N	0.586328	0.325844	0.958394
	N247	N	0.413001	0.325751	0.030821
	N248	N	0.677864	0.965840	0.407303
	N249	N	0.677505	0.040067	0.579709
	N250	N	0.320277	0.965228	0.578876
	N251	N	0.317245	0.039180	0.405952
	N252	N	0.917106	0.465012	0.172413
	N253	N	0.087557	0.539865	0.175696
	N254	N	0.084326	0.464868	0.819194
	N255	N	0.912442	0.538867	0.815413
	N256	N	0.175758	0.916295	0.456728
	N257	N	0.175411	0.086578	0.531382
	N258	N	0.820790	0.087327	0.456019
	N259	N	0.820711	0.916719	0.531524
	N260	N	0.462859	0.185505	0.906000
	N261	N	0.536243	0.182556	0.079586
	N262	N	0.462981	0.823735	0.081171
	N263	N	0.535741	0.824273	0.907435
	N264	N	0.461120	0.918558	0.170676
	N265	N	0.536300	0.088031	0.170956
	N266	N	0.461283	0.090099	0.816361
	N267	N	0.536874	0.920470	0.818088
	N268	N	0.910166	0.182772	0.458002
	N269	N	0.082879	0.178708	0.531826
	N270	N	0.083866	0.824028	0.457227
	N271	N	0.911585	0.822489	0.531319
	N272	N	0.178992	0.466642	0.910173
	N273	N	0.179746	0.540236	0.082354
	N274	N	0.820307	0.466878	0.083111
	N275	N	0.820595	0.540182	0.909865
	O276	O	-0.004352	0.002988	-0.012725
	H277	H	-0.002016	-0.004905	-0.009557
	H278	H	0.006720	-0.006097	-0.011262
	O279	O	0.474444	0.515286	0.439391
	H280	H	0.478235	0.520808	0.434913
	H281	H	0.491912	0.524672	0.433178
	O282	O	0.502732	0.531290	0.561610
	H283	H	0.501876	0.532998	0.549777
	H284	H	0.501579	0.527054	0.562970
	O285	O	-0.120396	0.049693	0.903095
	H286	H	-0.121010	0.033468	0.902499
	H287	H	-0.117578	0.051706	0.908919
	O288	O	0.549625	0.421472	0.534403
	H289	H	0.553299	0.427604	0.528846
	H290	H	0.542208	0.413778	0.547936
	O291	O	1.080032	0.972742	1.025026
	H292	H	1.079616	0.974537	1.025307
	H293	H	1.074093	0.972299	1.031006
	O294	O	0.918230	1.120932	0.964280
	H295	H	0.908346	1.115818	0.966649
	H296	H	0.917849	1.119252	0.958681
	O297	O	1.023553	0.068866	0.974749
	H298	H	1.027558	0.083750	0.963266
	H299	H	1.006558	0.057020	0.980878
	O300	O	0.528437	0.496458	0.479328
	H301	H	0.519089	0.496766	0.470096
	H302	H	0.523152	0.483497	0.470731
	O303	O	0.954742	-0.017581	-0.033175
	H304	H	0.953537	-0.013485	-0.037825
	H305	H	0.969877	-0.021318	-0.025367
	O306	O	0.073801	1.023463	0.934264
	H307	H	0.084185	1.029941	0.934238
	H308	H	0.067820	1.032567	0.932314
	O309	O	0.507219	0.549743	0.514982
	H310	H	0.513510	0.555126	0.519509
	H311	H	0.499559	0.535058	0.513800
	O312	O	0.973399	-0.060218	1.017577
	H313	H	0.958683	-0.059433	1.016942
	H314	H	0.975927	-0.055487	1.020348
	O315	O	0.569502	0.543164	0.529146
	H316	H	0.573746	0.543794	0.525829
	H317	H	0.570941	0.553982	0.529385
	O318	O	-0.019615	0.881293	0.951559
	H319	H	-0.015513	0.887520	0.935648
	H320	H	-0.028710	0.887062	0.955955
	O321	O	1.038746	0.952250	1.006161
	H322	H	1.046193	0.945592	1.008706
	H323	H	1.043017	0.953400	0.993076
	O324	O	0.591096	0.619658	0.548581
	H325	H	0.584852	0.618038	0.543442
	H326	H	0.595889	0.613247	0.540193
	O327	O	0.483793	0.491325	0.477990
	H328	H	0.483744	0.503850	0.477593
	H329	H	0.476561	0.496889	0.476906
	O330	O	1.094980	0.061319	0.911978
	H331	H	1.097666	0.063116	0.910644
	H332	H	1.096160	0.074311	0.901355
	O333	O	1.000639	1.009893	0.017047
	H334	H	0.994119	0.990400	0.018056
	H335	H	0.998061	1.013905	0.022170
	O336	O	0.572942	0.473234	0.555851
	H337	H	0.568552	0.483016	0.552859
	H338	H	0.569334	0.469721	0.561887
	O339	O	0.515150	0.562506	0.478886
	H340	H	0.518907	0.564260	0.477194
	H341	H	0.503629	0.555036	0.484115
	O342	O	-0.018262	1.094800	0.036973
	H343	H	-0.008550	1.101103	0.035502
	H344	H	-0.020608	1.095353	0.032479
	O345	O	0.066936	-0.071533	-0.076947
	H346	H	0.076623	-0.075823	-0.081710
	H347	H	0.059933	-0.072850	-0.081184
	O348	O	0.417157	0.426804	0.473916
	H349	H	0.407537	0.415533	0.477137
	H350	H	0.418991	0.436170	0.472803
	O351	O	0.500197	0.482672	0.515268
	H352	H	0.494362	0.490077	0.522061
	H353	H	0.505935	0.484710	0.524260
	O354	O	0.551956	0.626385	0.609064
	H355	H	0.549438	0.620853	0.605339
	H356	H	0.573511	0.632792	0.612947
	O357	O	0.432521	0.560262	0.416032
	H358	H	0.435499	0.561814	0.412952
	H359	H	0.427551	0.549781	0.417657
	O360	O	-0.093844	-0.029528	0.034791
	H361	H	-0.104499	-0.034679	0.036992
	H362	H	-0.082677	-0.021977	0.038447
	O363	O	0.507923	0.494581	0.438943
	H364	H	0.506946	0.500896	0.438774
	H365	H	0.512072	0.488070	0.436586
	O366	O	0.058192	0.036476	0.951534
	H367	H	0.064494	0.039627	0.961095
	H368	H	0.058675	0.028155	0.952729
	O369	O	0.384999	0.479534	0.495485
	H370	H	0.405096	0.479634	0.497195
	H371	H	0.384994	0.484420	0.504064
