data_Molecule from HDF5

_cell_length_a		16.484206
_cell_length_b		16.289907
_cell_length_c		16.304269
_cell_angle_alpha	90.116389
_cell_angle_beta	89.772363
_cell_angle_gamma	89.990892
_symmetry_space_group_name_H-M	'P 1'
_symmetry_Int_Tables_number		1

loop_
	_symmetry_equiv_pos_as_xyz
	x,y,z

loop_
	_atom_site_label
	_atom_site_type_symbol
	_atom_site_fract_x
	_atom_site_fract_y
	_atom_site_fract_z
	H0	H	0.394438	0.826657	0.722832
	H1	H	0.599674	0.148073	0.717302
	H2	H	0.601042	0.825444	0.281999
	H3	H	0.400585	0.149307	0.287761
	H4	H	0.719404	0.382835	0.841673
	H5	H	0.722445	0.594819	0.160846
	H6	H	0.279019	0.590735	0.841709
	H7	H	0.277754	0.379941	0.161845
	H8	H	0.839639	0.704514	0.399729
	H9	H	0.159402	0.705216	0.605628
	H10	H	0.839332	0.264639	0.605723
	H11	H	0.158096	0.262568	0.395936
	H12	H	0.839739	0.381798	0.723127
	H13	H	0.157928	0.590106	0.723205
	H14	H	0.839118	0.587300	0.283533
	H15	H	0.156562	0.377097	0.277648
	H16	H	0.398629	0.704482	0.840020
	H17	H	0.603070	0.706948	0.162658
	H18	H	0.602021	0.270175	0.840618
	H19	H	0.399558	0.271807	0.164914
	H20	H	0.718923	0.825032	0.393978
	H21	H	0.721286	0.144362	0.607598
	H22	H	0.280748	0.825133	0.606277
	H23	H	0.279473	0.145884	0.396783
	H24	H	0.896208	0.322470	0.217894
	H25	H	0.098719	0.645794	0.219891
	H26	H	0.099805	0.323032	0.785101
	H27	H	0.894904	0.645292	0.782275
	H28	H	0.219850	0.879969	0.341596
	H29	H	0.219127	0.090533	0.662159
	H30	H	0.780318	0.089682	0.341237
	H31	H	0.775749	0.878298	0.661000
	H32	H	0.338948	0.205043	0.902927
	H33	H	0.661415	0.203884	0.101565
	H34	H	0.341864	0.766691	0.105270
	H35	H	0.659286	0.765429	0.893905
	H36	H	0.339811	0.887733	0.217928
	H37	H	0.660443	0.090469	0.221238
	H38	H	0.339646	0.090842	0.783205
	H39	H	0.659976	0.884536	0.780515
	H40	H	0.898388	0.201801	0.340058
	H41	H	0.100641	0.203134	0.662977
	H42	H	0.100683	0.767357	0.339866
	H43	H	0.896336	0.767201	0.664039
	H44	H	0.218700	0.324156	0.898192
	H45	H	0.217974	0.645182	0.107877
	H46	H	0.778765	0.325030	0.105697
	H47	H	0.779212	0.645429	0.895596
	H48	H	0.404616	0.101866	0.589736
	H49	H	0.581509	0.872095	0.592684
	H50	H	0.592402	0.098938	0.418946
	H51	H	0.408405	0.871237	0.413409
	H52	H	0.587698	0.395261	0.116952
	H53	H	0.587181	0.577171	0.887944
	H54	H	0.404191	0.577472	0.117633
	H55	H	0.412727	0.396757	0.888904
	H56	H	0.110908	0.569573	0.408585
	H57	H	0.886830	0.576075	0.589520
	H58	H	0.113285	0.385885	0.586950
	H59	H	0.886870	0.398099	0.409458
	H60	H	0.107073	0.402642	0.587158
	H61	H	0.887498	0.571931	0.595220
	H62	H	0.113928	0.578283	0.410071
	H63	H	0.883515	0.389121	0.408330
	H64	H	0.410720	0.570778	0.113432
	H65	H	0.592991	0.576542	0.885899
	H66	H	0.593805	0.395950	0.118669
	H67	H	0.407808	0.393593	0.885379
	H68	H	0.597847	0.104181	0.409837
	H69	H	0.587165	0.873795	0.582125
	H70	H	0.409055	0.101434	0.593399
	H71	H	0.406494	0.869548	0.409563
	H72	H	0.908106	0.599950	0.092191
	H73	H	0.091743	0.368869	0.090173
	H74	H	0.090063	0.599266	0.915591
	H75	H	0.915969	0.376884	0.922693
	H76	H	0.085103	0.888247	0.617858
	H77	H	0.086487	0.064448	0.392308
	H78	H	0.916474	0.073547	0.613742
	H79	H	0.911771	0.890269	0.386716
	H80	H	0.613078	0.079122	0.910810
	H81	H	0.384058	0.081925	0.101387
	H82	H	0.612004	0.898251	0.085573
	H83	H	0.388856	0.896219	0.916256
	H84	H	0.614099	0.902797	0.094192
	H85	H	0.386143	0.085697	0.091089
	H86	H	0.613191	0.077737	0.907376
	H87	H	0.389433	0.901208	0.912282
	H88	H	0.905016	0.078525	0.618987
	H89	H	0.084721	0.080638	0.386242
	H90	H	0.098051	0.895872	0.619544
	H91	H	0.904167	0.893666	0.385590
	H92	H	0.091572	0.600558	0.912519
	H93	H	0.087292	0.370026	0.091294
	H94	H	0.910219	0.599719	0.093570
	H95	H	0.898689	0.368313	0.916382
	H96	H	0.409733	0.100225	0.587822
	H97	H	0.593285	0.868776	0.591418
	H98	H	0.586277	0.100614	0.408336
	H99	H	0.410882	0.870748	0.408586
	H100	H	0.590609	0.401155	0.116244
	H101	H	0.590538	0.571501	0.888710
	H102	H	0.413278	0.579971	0.115954
	H103	H	0.406430	0.399840	0.887852
	H104	H	0.110220	0.573395	0.416896
	H105	H	0.884950	0.578395	0.595399
	H106	H	0.114240	0.395661	0.601943
	H107	H	0.886807	0.391954	0.416646
	H108	H	0.909719	0.600447	0.091459
	H109	H	0.088946	0.370353	0.087502
	H110	H	0.087915	0.599753	0.912731
	H111	H	0.913953	0.369083	0.903943
	H112	H	0.085255	0.903124	0.612966
	H113	H	0.099642	0.073081	0.384346
	H114	H	0.905697	0.065483	0.614533
	H115	H	0.910097	0.898513	0.389776
	H116	H	0.614462	0.081466	0.908349
	H117	H	0.388662	0.074801	0.093670
	H118	H	0.616001	0.893159	0.092928
	H119	H	0.386186	0.895678	0.910524
	C120	C	0.377239	-0.005232	0.622988
	C121	C	0.619267	0.977536	0.620789
	C122	C	0.621957	-0.005207	0.379812
	C123	C	0.378441	0.977566	0.380405
	C124	C	0.621582	0.366198	0.010728
	C125	C	0.621939	0.607775	0.993257
	C126	C	0.377920	0.607749	0.009839
	C127	C	0.378490	0.365726	0.993934
	C128	C	0.006746	0.605238	0.380987
	C129	C	0.991188	0.607623	0.624868
	C130	C	0.006428	0.363607	0.623167
	C131	C	0.990534	0.361337	0.379253
	C132	C	0.877264	0.493806	0.123334
	C133	C	0.119959	0.475576	0.122740
	C134	C	0.120731	0.493472	0.881417
	C135	C	0.878694	0.477349	0.882126
	C136	C	0.120738	0.863809	0.510684
	C137	C	0.120962	0.105820	0.493321
	C138	C	0.878182	0.104840	0.509767
	C139	C	0.877046	0.862689	0.493347
	C140	C	0.507877	0.110006	0.879388
	C141	C	0.491857	0.110648	0.125171
	C142	C	0.509034	0.866721	0.122267
	C143	C	0.492686	0.865967	0.879842
	C144	C	0.376399	0.874341	0.682880
	C145	C	0.619494	0.099472	0.678766
	C146	C	0.620976	0.873555	0.320660
	C147	C	0.380011	0.100155	0.324920
	C148	C	0.679985	0.364957	0.889679
	C149	C	0.681863	0.611804	0.113328
	C150	C	0.318703	0.609062	0.889569
	C151	C	0.318960	0.363320	0.114534
	C152	C	0.887176	0.664485	0.380952
	C153	C	0.111234	0.666217	0.625131
	C154	C	0.886731	0.304630	0.624283
	C155	C	0.110213	0.302062	0.377421
	C156	C	0.886878	0.362763	0.682787
	C157	C	0.110555	0.608984	0.683782
	C158	C	0.886669	0.606188	0.322847
	C159	C	0.109512	0.359168	0.318387
	C160	C	0.378221	0.665666	0.888529
	C161	C	0.622734	0.667829	0.114076
	C162	C	0.621864	0.308414	0.889250
	C163	C	0.379669	0.309486	0.115907
	C164	C	0.679498	0.873419	0.376781
	C165	C	0.680100	0.097206	0.624380
	C166	C	0.319582	0.873639	0.624947
	C167	C	0.319639	0.098223	0.379390
	C168	C	0.876857	0.371442	0.179862
	C169	C	0.119025	0.597260	0.181455
	C170	C	0.120261	0.371841	0.823183
	C171	C	0.876949	0.597663	0.822255
	C172	C	0.179922	0.861821	0.389801
	C173	C	0.179391	0.108404	0.614054
	C174	C	0.819880	0.106989	0.389140
	C175	C	0.817114	0.861067	0.613857
	C176	C	0.387139	0.166842	0.882136
	C177	C	0.612995	0.166349	0.122562
	C178	C	0.389205	0.807082	0.123609
	C179	C	0.611842	0.805883	0.876548
	C180	C	0.387983	0.867153	0.179740
	C181	C	0.612487	0.109631	0.181855
	C182	C	0.387260	0.109512	0.822925
	C183	C	0.612110	0.865093	0.819779
	C184	C	0.878594	0.163270	0.388657
	C185	C	0.120687	0.164774	0.614602
	C186	C	0.120716	0.805772	0.388846
	C187	C	0.876695	0.805468	0.615246
	C188	C	0.179322	0.372566	0.879417
	C189	C	0.178342	0.596854	0.125787
	C190	C	0.818151	0.372952	0.124111
	C191	C	0.819251	0.597593	0.878778
	C192	C	0.401078	0.079135	0.597882
	C193	C	0.594262	0.893462	0.596187
	C194	C	0.598988	0.079467	0.405047
	C195	C	0.401820	0.892546	0.403579
	C196	C	0.597553	0.390408	0.095490
	C197	C	0.597504	0.582316	0.909478
	C198	C	0.402225	0.583197	0.093911
	C199	C	0.402181	0.389868	0.909230
	C200	C	0.090092	0.580626	0.404902
	C201	C	0.908071	0.582632	0.600619
	C202	C	0.089851	0.387806	0.598859
	C203	C	0.907324	0.386026	0.404327
	C204	C	0.902045	0.578055	0.099483
	C205	C	0.096258	0.391529	0.097182
	C206	C	0.096699	0.577946	0.906294
	C207	C	0.902929	0.393170	0.907132
	C208	C	0.096490	0.888623	0.594825
	C209	C	0.097211	0.080121	0.409366
	C210	C	0.902178	0.079817	0.593894
	C211	C	0.901669	0.887032	0.409205
	C212	C	0.591928	0.086208	0.902058
	C213	C	0.407983	0.087474	0.102353
	C214	C	0.592252	0.890899	0.098032
	C215	C	0.409604	0.890757	0.905514
	Zn216	Zn	0.499451	-0.012982	0.750176
	Zn217	Zn	0.500137	-0.012710	0.253003
	Zn218	Zn	0.750003	0.486631	0.002009
	Zn219	Zn	0.249609	0.485028	0.002349
	Zn220	Zn	-0.000525	0.735601	0.502296
	Zn221	Zn	-0.000953	0.232861	0.502100
	Zn222	Zn	-0.000894	0.485155	0.753451
	Zn223	Zn	-0.002052	0.484007	0.250694
	Zn224	Zn	0.500851	0.736429	0.001109
	Zn225	Zn	0.500398	0.238733	0.002195
	Zn226	Zn	0.748839	-0.015802	0.501274
	Zn227	Zn	0.249762	-0.014558	0.501673
	N228	N	0.411496	0.950805	0.681771
	N229	N	0.582351	0.023858	0.676832
	N230	N	0.586012	0.950072	0.322446
	N231	N	0.415923	0.024018	0.325471
	N232	N	0.679891	0.400134	0.966381
	N233	N	0.681543	0.575417	0.037144
	N234	N	0.318391	0.573973	0.966379
	N235	N	0.318187	0.397548	0.037615
	N236	N	0.962709	0.663996	0.416425
	N237	N	0.035928	0.665563	0.589438
	N238	N	0.962253	0.304957	0.588053
	N239	N	0.035218	0.303125	0.414538
	N240	N	0.962194	0.398807	0.682041
	N241	N	0.034815	0.573521	0.684060
	N242	N	0.962101	0.569914	0.322836
	N243	N	0.034208	0.395398	0.319525
	N244	N	0.414062	0.665302	0.964378
	N245	N	0.586122	0.665510	0.038518
	N246	N	0.586231	0.309126	0.965541
	N247	N	0.416115	0.310920	0.039844
	N248	N	0.680283	0.949801	0.412817
	N249	N	0.679692	0.020624	0.588833
	N250	N	0.319896	0.949555	0.588432
	N251	N	0.318622	0.020952	0.413164
	N252	N	0.912725	0.447602	0.179714
	N253	N	0.083579	0.520801	0.179927
	N254	N	0.084733	0.448383	0.824165
	N255	N	0.913326	0.521994	0.824256
	N256	N	0.180306	0.897008	0.466577
	N257	N	0.179933	0.072745	0.537581
	N258	N	0.819623	0.071146	0.465478
	N259	N	0.817127	0.895656	0.537146
	N260	N	0.463251	0.167292	0.916275
	N261	N	0.536994	0.167233	0.088036
	N262	N	0.465275	0.806495	0.088776
	N263	N	0.536536	0.806060	0.913040
	N264	N	0.463440	0.903249	0.179364
	N265	N	0.536182	0.075837	0.183600
	N266	N	0.463343	0.074987	0.821037
	N267	N	0.536986	0.901843	0.821971
	N268	N	0.914158	0.162063	0.464781
	N269	N	0.085127	0.163230	0.538460
	N270	N	0.084788	0.806745	0.465168
	N271	N	0.913412	0.806368	0.539213
	N272	N	0.179774	0.449217	0.914706
	N273	N	0.179286	0.520364	0.090136
	N274	N	0.818094	0.450153	0.089987
	N275	N	0.820331	0.521754	0.915448
	O276	O	0.891909	0.842138	0.110566
	H277	H	0.905264	0.841537	0.114215
	H278	H	0.879553	0.839028	0.109140
	O279	O	0.341773	0.687062	0.296350
	H280	H	0.352260	0.688770	0.298939
	H281	H	0.356620	0.678992	0.290381
	O282	O	0.514112	0.616290	0.415115
	H283	H	0.523871	0.608434	0.404130
	H284	H	0.499715	0.625740	0.418582
	O285	O	1.133315	0.123166	-0.028720
	H286	H	1.131449	0.118857	-0.039620
	H287	H	1.124156	0.126079	-0.031951
	O288	O	-0.111249	-0.031417	0.870845
	H289	H	-0.101186	-0.041947	0.876356
	H290	H	-0.104264	-0.041489	0.860684
	O291	O	0.196405	0.993652	1.095195
	H292	H	0.199918	0.986140	1.094733
	H293	H	0.199925	0.990804	1.101399
	O294	O	1.483828	0.623347	0.620430
	H295	H	1.490282	0.622376	0.606939
	H296	H	1.504427	0.615991	0.615043
	O297	O	1.130127	1.014499	1.128351
	H298	H	1.121943	1.008374	1.137582
	H299	H	1.137202	1.004812	1.127761
	O300	O	-0.434533	-0.511481	-0.629321
	H301	H	-0.435139	-0.515653	-0.631259
	H302	H	-0.439509	-0.519642	-0.620849
	O303	O	0.434605	0.547450	0.390370
	H304	H	0.452291	0.545471	0.395420
	H305	H	0.449124	0.553220	0.403670
	O306	O	0.927526	0.168874	-0.140223
	H307	H	0.922297	0.162039	-0.111019
	H308	H	0.927375	0.143421	-0.135181
	O309	O	0.287861	0.509883	0.299076
	H310	H	0.280773	0.513899	0.294047
	H311	H	0.282131	0.535047	0.288750
	O312	O	0.887122	1.114643	-0.074931
	H313	H	0.903511	1.109687	-0.080868
	H314	H	0.874301	1.117662	-0.093298
	O315	O	0.656320	0.484020	0.583802
	H316	H	0.660584	0.489127	0.580990
	H317	H	0.645507	0.452039	0.576623
	O318	O	0.482419	0.469306	0.628669
	H319	H	0.494996	0.476380	0.630354
	H320	H	0.484917	0.462458	0.632600
	O321	O	1.031270	-0.043878	1.162689
	H322	H	1.023610	-0.026764	1.174805
	H323	H	1.031772	-0.065502	1.165434
	O324	O	0.413901	0.289122	0.689998
	H325	H	0.406520	0.289901	0.690029
	H326	H	0.408469	0.266833	0.696601
	O327	O	0.812850	1.110198	1.027053
	H328	H	0.811054	1.103501	1.019200
	H329	H	0.801912	1.104053	1.016884
	O330	O	0.357216	0.629971	0.471605
	H331	H	0.373313	0.640612	0.469279
	H332	H	0.365710	0.630024	0.478621
	O333	O	1.079076	1.118400	1.055835
	H334	H	1.106937	1.114860	1.057671
	H335	H	1.071624	1.143020	1.082163
	O336	O	0.637320	0.537773	0.406780
	H337	H	0.662687	0.519182	0.413736
	H338	H	0.629974	0.511033	0.399676
	O339	O	1.187096	-0.194725	0.822009
	H340	H	1.189388	-0.160175	0.834372
	H341	H	1.174748	-0.211301	0.805924
	O342	O	0.043119	1.002421	1.110939
	H343	H	0.058256	1.004242	1.117891
	H344	H	0.051491	0.994885	1.105782
	O345	O	-0.469048	1.686074	1.656051
	H346	H	-0.443255	1.676751	1.650633
	H347	H	-0.460051	1.693021	1.673507
	O348	O	0.568307	0.641713	0.552261
	H349	H	0.567979	0.630803	0.553325
	H350	H	0.577231	0.641989	0.539894
	O351	O	0.388984	-0.514879	-0.294209
	H352	H	0.374000	-0.498104	-0.282500
	H353	H	0.396590	-0.501538	-0.301830
	O354	O	1.045167	1.124699	0.149847
	H355	H	1.057007	1.107708	0.159570
	H356	H	1.042504	1.111236	0.128333
	O357	O	-0.085190	0.985914	0.053081
	H358	H	-0.092020	0.985773	0.052560
	H359	H	-0.071513	0.997576	0.042859
	O360	O	-0.008148	1.000155	1.066131
	H361	H	-0.018397	0.999488	1.062238
	H362	H	-0.018934	0.994368	1.057933
	O363	O	0.520037	0.294565	0.348245
	H364	H	0.502196	0.285006	0.344698
	H365	H	0.501662	0.312615	0.350005
	O366	O	0.010797	0.799652	0.004101
	H367	H	-0.007961	0.797757	0.022578
	H368	H	0.001634	0.812642	0.000367
	O369	O	0.604297	0.385793	0.590890
	H370	H	0.601896	0.388309	0.579691
	H371	H	0.580857	0.380293	0.591760
	O372	O	0.424179	0.392147	0.559945
	H373	H	0.426386	0.402714	0.545731
	H374	H	0.434028	0.384197	0.575765
	O375	O	0.342417	0.321548	0.481229
	H376	H	0.325292	0.316373	0.476416
	H377	H	0.327171	0.339149	0.482863
	O378	O	0.589807	0.467361	0.403429
	H379	H	0.582091	0.464616	0.402535
	H380	H	0.574261	0.463982	0.412165
	O381	O	0.328114	0.671478	0.516344
	H382	H	0.343616	0.681584	0.522418
	H383	H	0.319660	0.666660	0.512134
	O384	O	-0.100713	0.885972	0.921132
	H385	H	-0.082911	0.878263	0.924916
	H386	H	-0.091780	0.865321	0.911755
	O387	O	1.193565	0.966964	-0.193699
	H388	H	1.189448	0.983156	-0.198884
	H389	H	1.206905	0.963941	-0.189118
	O390	O	0.358750	0.451484	0.454633
	H391	H	0.365788	0.469014	0.459658
	H392	H	0.356972	0.464152	0.445475
	O393	O	1.020969	-0.173871	0.839245
	H394	H	1.035131	-0.203102	0.813182
	H395	H	1.009978	-0.182212	0.874771
	O396	O	0.010377	1.114671	0.898129
	H397	H	-0.014693	1.126067	0.900160
	H398	H	0.016742	1.118339	0.900294
	O399	O	0.517483	0.276926	0.507848
	H400	H	0.501594	0.275105	0.519516
	H401	H	0.500389	0.272854	0.505781
	O402	O	1.304877	0.373034	0.703715
	H403	H	1.289865	0.355420	0.698114
	H404	H	1.304524	0.390967	0.711195
	O405	O	0.021448	-0.138801	0.062528
	H406	H	0.042324	-0.154876	0.055492
	H407	H	0.015991	-0.126471	0.071310
	O408	O	0.646833	1.511245	0.654038
	H409	H	0.644120	1.496528	0.640913
	H410	H	0.657686	1.502949	0.649530
	O411	O	0.968214	1.022837	-0.114918
	H412	H	0.953508	1.019018	-0.103846
	H413	H	0.971023	1.019260	-0.127559
	O414	O	-0.363111	-0.668761	1.322107
	H415	H	-0.392374	-0.683252	1.309649
	H416	H	-0.371059	-0.682404	1.346675
	O417	O	0.685792	0.402540	0.358173
	H418	H	0.697619	0.396425	0.340538
	H419	H	0.674819	0.382056	0.363015
	O420	O	-0.125179	0.867587	0.028482
	H421	H	-0.128031	0.851416	0.040722
	H422	H	-0.129398	0.872465	0.031292
	O423	O	1.174598	-0.201991	-0.025142
	H424	H	1.197597	-0.211982	-0.033217
	H425	H	1.160836	-0.201360	-0.042924
	O426	O	-0.165129	-0.071164	1.184133
	H427	H	-0.168636	-0.055251	1.177117
	H428	H	-0.173036	-0.081547	1.196537
	O429	O	0.651591	0.589741	0.477063
	H430	H	0.657470	0.573591	0.476094
	H431	H	0.649970	0.588217	0.469995
