data_Molecule from HDF5

_cell_length_a		16.405950
_cell_length_b		16.527903
_cell_length_c		16.429175
_cell_angle_alpha	90.061543
_cell_angle_beta	89.965268
_cell_angle_gamma	89.979563
_symmetry_space_group_name_H-M	'P 1'
_symmetry_Int_Tables_number		1

loop_
	_symmetry_equiv_pos_as_xyz
	x,y,z

loop_
	_atom_site_label
	_atom_site_type_symbol
	_atom_site_fract_x
	_atom_site_fract_y
	_atom_site_fract_z
	H0	H	0.390291	0.849388	0.722488
	H1	H	0.603841	0.161976	0.722024
	H2	H	0.603494	0.849253	0.273979
	H3	H	0.390903	0.162120	0.278169
	H4	H	0.718125	0.401048	0.842135
	H5	H	0.717025	0.614671	0.158670
	H6	H	0.273757	0.609166	0.842310
	H7	H	0.275211	0.401556	0.159131
	H8	H	0.838725	0.730333	0.392734
	H9	H	0.152496	0.726325	0.606750
	H10	H	0.838258	0.278578	0.610013
	H11	H	0.151115	0.282911	0.394669
	H12	H	0.836755	0.397452	0.723989
	H13	H	0.152228	0.609884	0.722315
	H14	H	0.836308	0.613582	0.278814
	H15	H	0.150887	0.400031	0.278951
	H16	H	0.387463	0.727270	0.842891
	H17	H	0.603777	0.732821	0.155422
	H18	H	0.603459	0.282973	0.842409
	H19	H	0.391409	0.284140	0.157943
	H20	H	0.719874	0.848197	0.390736
	H21	H	0.720210	0.161067	0.605728
	H22	H	0.274077	0.848334	0.605019
	H23	H	0.273767	0.161475	0.394096
	H24	H	0.887497	0.348398	0.222438
	H25	H	0.096478	0.665003	0.220614
	H26	H	0.096356	0.347062	0.781242
	H27	H	0.886566	0.663282	0.777653
	H28	H	0.215774	0.900216	0.339566
	H29	H	0.214897	0.106192	0.658266
	H30	H	0.776300	0.108280	0.340052
	H31	H	0.771554	0.896084	0.656221
	H32	H	0.336947	0.224278	0.895669
	H33	H	0.654341	0.228176	0.105962
	H34	H	0.337470	0.784442	0.108138
	H35	H	0.652734	0.781479	0.892588
	H36	H	0.338237	0.901097	0.222899
	H37	H	0.654099	0.113785	0.222430
	H38	H	0.337094	0.107646	0.780297
	H39	H	0.654751	0.899364	0.778580
	H40	H	0.887444	0.227874	0.342615
	H41	H	0.100929	0.225767	0.657361
	H42	H	0.103065	0.781810	0.341610
	H43	H	0.890746	0.783604	0.657355
	H44	H	0.212526	0.346643	0.899459
	H45	H	0.215471	0.664275	0.106412
	H46	H	0.771758	0.348202	0.105570
	H47	H	0.773068	0.665301	0.896827
	H48	H	0.401443	0.119742	0.589460
	H49	H	0.580599	0.893491	0.588501
	H50	H	0.587361	0.118033	0.410743
	H51	H	0.407426	0.891304	0.407217
	H52	H	0.577490	0.417790	0.111147
	H53	H	0.578599	0.594037	0.889735
	H54	H	0.407129	0.594710	0.112873
	H55	H	0.406467	0.416549	0.887962
	H56	H	0.106456	0.596699	0.420282
	H57	H	0.884166	0.588964	0.584642
	H58	H	0.108564	0.409423	0.588596
	H59	H	0.882583	0.423694	0.412744
	H60	H	0.104106	0.418799	0.583904
	H61	H	0.879963	0.593291	0.594579
	H62	H	0.104217	0.584293	0.410977
	H63	H	0.877070	0.411911	0.406428
	H64	H	0.406701	0.598975	0.114899
	H65	H	0.583510	0.595522	0.886815
	H66	H	0.583225	0.412858	0.114473
	H67	H	0.404382	0.411180	0.884806
	H68	H	0.583997	0.116600	0.409310
	H69	H	0.584881	0.894294	0.583288
	H70	H	0.409913	0.118314	0.592501
	H71	H	0.410549	0.893286	0.410516
	H72	H	0.907164	0.617623	0.091180
	H73	H	0.089293	0.390261	0.095215
	H74	H	0.085698	0.619343	0.909677
	H75	H	0.906024	0.396478	0.916483
	H76	H	0.082736	0.916114	0.611429
	H77	H	0.083070	0.094913	0.385794
	H78	H	0.907020	0.087971	0.610905
	H79	H	0.912276	0.918801	0.389123
	H80	H	0.608625	0.092786	0.911888
	H81	H	0.386820	0.092135	0.081933
	H82	H	0.605062	0.917417	0.077202
	H83	H	0.385099	0.924991	0.909737
	H84	H	0.605907	0.926119	0.086736
	H85	H	0.382637	0.090099	0.094285
	H86	H	0.611401	0.094871	0.906459
	H87	H	0.379398	0.913431	0.904741
	H88	H	0.912384	0.092058	0.610828
	H89	H	0.085326	0.093358	0.385525
	H90	H	0.085535	0.910977	0.613612
	H91	H	0.909778	0.911265	0.385626
	H92	H	0.080525	0.617428	0.910166
	H93	H	0.077668	0.394306	0.094388
	H94	H	0.905153	0.617789	0.088415
	H95	H	0.903821	0.393327	0.912243
	H96	H	0.407591	0.115856	0.583973
	H97	H	0.586459	0.891147	0.589045
	H98	H	0.585261	0.115861	0.412965
	H99	H	0.406665	0.892688	0.412217
	H100	H	0.585453	0.420436	0.112138
	H101	H	0.582787	0.590056	0.888176
	H102	H	0.402985	0.596343	0.115030
	H103	H	0.400255	0.416462	0.885955
	H104	H	0.111143	0.597072	0.405038
	H105	H	0.880069	0.599774	0.584807
	H106	H	0.108507	0.418904	0.594755
	H107	H	0.880753	0.411478	0.420440
	H108	H	0.904446	0.618842	0.091412
	H109	H	0.085117	0.394560	0.084739
	H110	H	0.083833	0.617517	0.914951
	H111	H	0.908787	0.395885	0.912247
	H112	H	0.089089	0.916248	0.613268
	H113	H	0.082951	0.092618	0.387449
	H114	H	0.906391	0.094223	0.613432
	H115	H	0.904571	0.918138	0.385007
	H116	H	0.611452	0.098739	0.911720
	H117	H	0.380440	0.102078	0.088537
	H118	H	0.610183	0.914126	0.089004
	H119	H	0.383889	0.914011	0.918024
	C120	C	0.374443	0.013995	0.620750
	C121	C	0.618201	0.995995	0.620772
	C122	C	0.618573	0.013646	0.376888
	C123	C	0.375285	0.996262	0.377957
	C124	C	0.615900	0.384745	0.008271
	C125	C	0.615383	0.627345	0.992010
	C126	C	0.373207	0.627623	0.009518
	C127	C	0.373255	0.383754	0.991595
	C128	C	0.003270	0.626694	0.379067
	C129	C	0.985884	0.626164	0.621171
	C130	C	0.002939	0.382560	0.622584
	C131	C	0.984612	0.383585	0.379998
	C132	C	0.871998	0.514490	0.122754
	C133	C	0.115706	0.497829	0.123263
	C134	C	0.115105	0.513782	0.879866
	C135	C	0.872874	0.498826	0.880327
	C136	C	0.118117	0.882332	0.507820
	C137	C	0.116032	0.125119	0.491259
	C138	C	0.875251	0.124686	0.507721
	C139	C	0.875252	0.883344	0.490798
	C140	C	0.505177	0.126620	0.878266
	C141	C	0.487753	0.127652	0.121144
	C142	C	0.503627	0.885925	0.119390
	C143	C	0.487127	0.884062	0.878079
	C144	C	0.371885	0.896099	0.681899
	C145	C	0.621631	0.114465	0.681711
	C146	C	0.621824	0.896083	0.314755
	C147	C	0.372584	0.115048	0.318194
	C148	C	0.677672	0.382387	0.889605
	C149	C	0.676902	0.632012	0.110658
	C150	C	0.313146	0.628594	0.890049
	C151	C	0.314661	0.382531	0.111260
	C152	C	0.885241	0.688884	0.375671
	C153	C	0.105104	0.686243	0.624750
	C154	C	0.885031	0.320093	0.627090
	C155	C	0.103757	0.323321	0.376515
	C156	C	0.884143	0.379384	0.683521
	C157	C	0.104862	0.628239	0.682172
	C158	C	0.884025	0.630718	0.318909
	C159	C	0.103600	0.381714	0.319231
	C160	C	0.369889	0.687290	0.890245
	C161	C	0.620421	0.690963	0.109199
	C162	C	0.620635	0.323654	0.889579
	C163	C	0.371979	0.323914	0.110547
	C164	C	0.679521	0.895510	0.372832
	C165	C	0.679508	0.114139	0.623791
	C166	C	0.314371	0.895505	0.623466
	C167	C	0.314125	0.114353	0.375642
	C168	C	0.868884	0.395691	0.182869
	C169	C	0.115840	0.617221	0.181539
	C170	C	0.115507	0.394685	0.820919
	C171	C	0.869344	0.616688	0.818825
	C172	C	0.177177	0.880713	0.388030
	C173	C	0.175663	0.125914	0.610573
	C174	C	0.815510	0.126841	0.388078
	C175	C	0.813046	0.879460	0.609133
	C176	C	0.384966	0.184972	0.877091
	C177	C	0.606661	0.188456	0.124157
	C178	C	0.384893	0.824927	0.124807
	C179	C	0.605635	0.822252	0.874796
	C180	C	0.385332	0.883057	0.182020
	C181	C	0.606608	0.131123	0.182066
	C182	C	0.385045	0.127169	0.819547
	C183	C	0.606706	0.881129	0.818188
	C184	C	0.871013	0.186352	0.389303
	C185	C	0.118946	0.185202	0.610077
	C186	C	0.120660	0.821990	0.388710
	C187	C	0.872484	0.823506	0.609918
	C188	C	0.173345	0.394289	0.879544
	C189	C	0.175239	0.616706	0.124664
	C190	C	0.811810	0.395673	0.124196
	C191	C	0.812893	0.617691	0.878202
	C192	C	0.399206	0.096480	0.595591
	C193	C	0.591794	0.914277	0.594516
	C194	C	0.592955	0.095570	0.403458
	C195	C	0.400942	0.913877	0.402794
	C196	C	0.589563	0.409858	0.090997
	C197	C	0.589155	0.600610	0.909925
	C198	C	0.398291	0.603496	0.092592
	C199	C	0.397066	0.407934	0.908075
	C200	C	0.085870	0.600269	0.404868
	C201	C	0.902981	0.601199	0.595157
	C202	C	0.085574	0.408247	0.596521
	C203	C	0.901649	0.408558	0.405835
	C204	C	0.898024	0.596681	0.097706
	C205	C	0.091198	0.414884	0.098527
	C206	C	0.090572	0.596578	0.904737
	C207	C	0.898572	0.416826	0.906267
	C208	C	0.092827	0.907133	0.590952
	C209	C	0.090952	0.100679	0.407909
	C210	C	0.901243	0.098865	0.590336
	C211	C	0.901380	0.908846	0.408136
	C212	C	0.588693	0.102549	0.902869
	C213	C	0.404928	0.102137	0.095614
	C214	C	0.585685	0.911906	0.092153
	C215	C	0.404345	0.910044	0.903593
	Zn216	Zn	0.496700	0.005128	0.749527
	Zn217	Zn	0.496678	0.005931	0.248768
	Zn218	Zn	0.743458	0.506893	0.000905
	Zn219	Zn	0.244946	0.506130	0.001338
	Zn220	Zn	-0.004149	0.754753	0.499577
	Zn221	Zn	-0.005903	0.254426	0.500466
	Zn222	Zn	-0.006976	0.505987	0.749722
	Zn223	Zn	-0.006927	0.505812	0.251786
	Zn224	Zn	0.494339	0.756213	-0.000115
	Zn225	Zn	0.496072	0.255182	-0.000099
	Zn226	Zn	0.746708	0.004137	0.498784
	Zn227	Zn	0.245552	0.004197	0.498472
	N228	N	0.408624	0.970752	0.680325
	N229	N	0.584306	0.039967	0.680171
	N230	N	0.584791	0.970616	0.317028
	N231	N	0.409864	0.040645	0.319448
	N232	N	0.674810	0.419658	0.964332
	N233	N	0.673752	0.593081	0.036820
	N234	N	0.314819	0.592403	0.965242
	N235	N	0.315024	0.418719	0.036046
	N236	N	0.960577	0.686586	0.412114
	N237	N	0.030065	0.685353	0.587674
	N238	N	0.959980	0.322058	0.589875
	N239	N	0.028705	0.324281	0.413497
	N240	N	0.958431	0.417702	0.680832
	N241	N	0.029672	0.591702	0.680087
	N242	N	0.958338	0.592487	0.321085
	N243	N	0.028458	0.418376	0.321273
	N244	N	0.406232	0.686999	0.965537
	N245	N	0.582888	0.688227	0.034520
	N246	N	0.582720	0.325280	0.964195
	N247	N	0.407475	0.324420	0.034896
	N248	N	0.677484	0.969425	0.410797
	N249	N	0.677587	0.039472	0.586796
	N250	N	0.315888	0.969592	0.586002
	N251	N	0.315522	0.039478	0.411783
	N252	N	0.905425	0.470587	0.182267
	N253	N	0.079748	0.542222	0.180886
	N254	N	0.080245	0.470073	0.820838
	N255	N	0.905844	0.541781	0.819911
	N256	N	0.175738	0.917377	0.463005
	N257	N	0.173748	0.089256	0.535506
	N258	N	0.818023	0.089005	0.462671
	N259	N	0.814781	0.916005	0.534025
	N260	N	0.460816	0.185089	0.912494
	N261	N	0.531667	0.186415	0.086964
	N262	N	0.459381	0.826597	0.086600
	N263	N	0.530083	0.823826	0.911136
	N264	N	0.460194	0.920286	0.178786
	N265	N	0.531688	0.094073	0.180240
	N266	N	0.460847	0.091766	0.819945
	N267	N	0.532072	0.918844	0.820100
	N268	N	0.907225	0.185164	0.464732
	N269	N	0.082755	0.184938	0.534742
	N270	N	0.084956	0.822577	0.464583
	N271	N	0.910380	0.825888	0.535367
	N272	N	0.173444	0.469485	0.915253
	N273	N	0.175301	0.541326	0.089189
	N274	N	0.813186	0.470699	0.088060
	N275	N	0.814903	0.543411	0.915549
	O276	O	0.319486	0.682243	0.320345
	H277	H	0.331176	0.696445	0.349976
	H278	H	0.354351	0.688504	0.329803
	O279	O	1.059394	-0.049311	1.051421
	H280	H	1.058649	-0.058382	1.059149
	H281	H	1.056780	-0.048792	1.050846
	O282	O	0.463846	0.287098	0.717985
	H283	H	0.485493	0.290535	0.706047
	H284	H	0.473148	0.257925	0.734752
	O285	O	0.481816	0.478641	0.565852
	H286	H	0.485979	0.462131	0.561422
	H287	H	0.480290	0.481115	0.572787
	O288	O	0.889295	1.191604	-0.036447
	H289	H	0.898485	1.199691	-0.022019
	H290	H	0.890180	1.179785	-0.019856
	O291	O	0.285626	0.465006	0.436823
	H292	H	0.289425	0.464036	0.435919
	H293	H	0.283308	0.481201	0.415080
	O294	O	-0.171131	0.049861	1.056621
	H295	H	-0.145282	0.038310	1.069061
	H296	H	-0.183179	0.046328	1.045768
	O297	O	0.510804	0.721288	0.495195
	H298	H	0.507167	0.711449	0.480066
	H299	H	0.491717	0.719249	0.518610
	O300	O	0.343920	0.550141	0.592450
	H301	H	0.349644	0.530736	0.597433
	H302	H	0.330483	0.533713	0.603067
	O303	O	0.359281	0.382318	0.312092
	H304	H	0.357496	0.403798	0.327512
	H305	H	0.359749	0.381095	0.312326
	O306	O	0.616564	0.345324	0.309021
	H307	H	0.602941	0.346522	0.296473
	H308	H	0.592842	0.362190	0.301336
	O309	O	0.563931	0.391697	0.684646
	H310	H	0.590973	0.392285	0.687254
	H311	H	0.558940	0.391457	0.669644
	O312	O	0.187559	1.201007	1.177423
	H313	H	0.144734	1.208301	1.183599
	H314	H	0.197294	1.195765	1.191964
	O315	O	0.659607	0.635769	0.409360
	H316	H	0.661901	0.646772	0.419553
	H317	H	0.638083	0.624423	0.409919
	O318	O	1.194551	-0.126642	-0.091923
	H319	H	1.198829	-0.123578	-0.091553
	H320	H	1.182210	-0.117071	-0.105420
	O321	O	0.119873	-0.010207	-0.142048
	H322	H	0.121152	0.007877	-0.142487
	H323	H	0.131446	-0.011795	-0.152334
	O324	O	0.701849	0.437755	0.291345
	H325	H	0.687521	0.453453	0.294162
	H326	H	0.724941	0.447341	0.276663
	O327	O	0.539306	0.295792	0.560307
	H328	H	0.541626	0.304040	0.556893
	H329	H	0.540988	0.286649	0.550993
	O330	O	-0.029358	1.153096	0.182629
	H331	H	-0.036692	1.120534	0.188372
	H332	H	-0.039143	1.156735	0.188523
	O333	O	0.993975	-0.181658	0.839214
	H334	H	0.986209	-0.182892	0.824954
	H335	H	0.997041	-0.187019	0.820728
	O336	O	-0.215910	0.024937	-0.204399
	H337	H	-0.233916	0.050879	-0.215239
	H338	H	-0.227099	0.050980	-0.210807
	O339	O	0.134754	0.996229	0.840006
	H340	H	0.131769	1.021234	0.844427
	H341	H	0.121586	1.006764	0.842113
	O342	O	0.135225	0.869275	0.876250
	H343	H	0.147201	0.869287	0.860762
	H344	H	0.132881	0.866604	0.872163
	O345	O	1.191875	1.022304	0.155888
	H346	H	1.193436	1.032322	0.150354
	H347	H	1.205141	1.025190	0.161702
	O348	O	0.368919	0.711040	0.623010
	H349	H	0.369227	0.700052	0.615694
	H350	H	0.370067	0.694551	0.625211
	O351	O	-0.162316	0.832257	0.998255
	H352	H	-0.165729	0.815916	0.982823
	H353	H	-0.166774	0.853787	0.991052
	O354	O	0.010492	0.955863	-0.006522
	H355	H	0.020047	0.954454	0.000923
	H356	H	0.004779	0.962684	-0.003486
	O357	O	-0.069950	0.191679	0.809838
	H358	H	-0.073353	0.202314	0.808712
	H359	H	-0.065375	0.197019	0.825145
	O360	O	0.522419	0.714603	0.706004
	H361	H	0.500348	0.688069	0.708551
	H362	H	0.509105	0.735756	0.732227
	O363	O	-0.087890	0.045397	1.047721
	H364	H	-0.106629	0.028685	1.044641
	H365	H	-0.078920	0.022665	1.056656
	O366	O	0.594238	0.541072	0.278468
	H367	H	0.597234	0.533060	0.269901
	H368	H	0.599976	0.535474	0.297364
	O369	O	0.450597	0.361928	0.521403
	H370	H	0.428250	0.363920	0.527518
	H371	H	0.453809	0.359951	0.536625
	O372	O	1.000217	-0.134877	1.049349
	H373	H	0.990994	-0.136154	1.028816
	H374	H	1.018035	-0.135683	1.032465
	O375	O	0.315848	0.334329	0.673638
	H376	H	0.310334	0.315977	0.692903
	H377	H	0.345740	0.327630	0.668101
	O378	O	0.679899	0.679950	0.676562
	H379	H	0.669821	0.692977	0.648153
	H380	H	0.650830	0.695006	0.663728
	O381	O	0.290759	0.719759	0.479756
	H382	H	0.282199	0.727080	0.486107
	H383	H	0.284669	0.714799	0.487496
	O384	O	0.704643	0.293028	0.482591
	H385	H	0.722078	0.291852	0.467730
	H386	H	0.704385	0.288641	0.453133
	O387	O	0.212289	0.220786	1.042774
	H388	H	0.219672	0.231358	1.069882
	H389	H	0.221171	0.235213	1.053518
	O390	O	0.169810	-0.128856	0.048671
	H391	H	0.179515	-0.150098	0.045717
	H392	H	0.180004	-0.130329	0.032583
	O393	O	1.170126	1.178388	0.782273
	H394	H	1.162815	1.181022	0.803888
	H395	H	1.160510	1.156625	0.774357
	O396	O	0.990851	0.175731	0.147111
	H397	H	0.992939	0.178069	0.153014
	H398	H	0.981195	0.157639	0.161697
	O399	O	0.818825	-0.111366	1.201285
	H400	H	0.835843	-0.128475	1.190547
	H401	H	0.812194	-0.110611	1.217734
	O402	O	1.468557	0.530289	0.696600
	H403	H	1.472664	0.514539	0.697129
	H404	H	1.461850	0.523442	0.695238
	O405	O	0.977109	1.053020	0.066808
	H406	H	0.988487	1.049657	0.082958
	H407	H	0.964942	1.035884	0.068507
	O408	O	0.948405	-0.074165	-0.197344
	H409	H	0.957021	-0.074242	-0.189127
	H410	H	0.919636	-0.066785	-0.203906
	O411	O	1.038074	1.136893	-0.017504
	H412	H	1.036172	1.134650	-0.008747
	H413	H	1.047453	1.127307	-0.021195
	O414	O	0.515669	0.304664	0.312522
	H415	H	0.500922	0.305469	0.332717
	H416	H	0.506428	0.293557	0.308097
	O417	O	0.706021	0.713041	0.516174
	H418	H	0.717939	0.723123	0.505470
	H419	H	0.678643	0.729860	0.496100
	O420	O	0.482847	0.713453	0.295874
	H421	H	0.494200	0.729628	0.279975
	H422	H	0.504208	0.691968	0.302635
	O423	O	0.684745	0.500647	0.496807
	H424	H	0.699538	0.505508	0.518140
	H425	H	0.683513	0.495412	0.495869
	O426	O	0.633194	0.510472	0.530736
	H427	H	0.636506	0.496251	0.522070
	H428	H	0.639498	0.511287	0.549502
	O429	O	0.278676	0.529194	0.282516
	H430	H	0.266030	0.556155	0.274514
	H431	H	0.272140	0.559345	0.271879
	O432	O	0.406419	0.542043	0.515292
	H433	H	0.404101	0.540037	0.533483
	H434	H	0.428597	0.530367	0.515979
	O435	O	0.275770	0.473590	0.719305
	H436	H	0.276100	0.436810	0.719554
	H437	H	0.249568	0.458427	0.739509
	O438	O	-0.194019	0.166780	-0.127811
	H439	H	-0.187714	0.187504	-0.136547
	H440	H	-0.192997	0.173524	-0.091640
	O441	O	0.804156	-0.124954	0.138405
	H442	H	0.803668	-0.120170	0.095775
	H443	H	0.805873	-0.130323	0.147559
	O444	O	0.006647	0.867687	1.184485
	H445	H	0.032081	0.866505	1.181360
	H446	H	0.016220	0.847661	1.175194
	O447	O	0.708892	0.523124	0.706014
	H448	H	0.731845	0.541101	0.724007
	H449	H	0.702384	0.560255	0.703967
	O450	O	0.419311	0.414223	0.320904
	H451	H	0.428044	0.402100	0.327006
	H452	H	0.408143	0.415114	0.317579
	O453	O	0.288529	0.292641	0.526399
	H454	H	0.274127	0.286771	0.520806
	H455	H	0.280548	0.302900	0.544253
