data_Molecule from HDF5

_cell_length_a		16.400030
_cell_length_b		16.357172
_cell_length_c		16.277670
_cell_angle_alpha	90.226828
_cell_angle_beta	90.010345
_cell_angle_gamma	90.035035
_symmetry_space_group_name_H-M	'P 1'
_symmetry_Int_Tables_number		1

loop_
	_symmetry_equiv_pos_as_xyz
	x,y,z

loop_
	_atom_site_label
	_atom_site_type_symbol
	_atom_site_fract_x
	_atom_site_fract_y
	_atom_site_fract_z
	H0	H	0.400969	0.817730	0.708872
	H1	H	0.605442	0.139547	0.712503
	H2	H	0.603470	0.818430	0.275147
	H3	H	0.402567	0.141755	0.276048
	H4	H	0.722675	0.376340	0.832851
	H5	H	0.722189	0.583845	0.154912
	H6	H	0.285657	0.580168	0.832657
	H7	H	0.284496	0.375593	0.155906
	H8	H	0.843018	0.699256	0.392364
	H9	H	0.164577	0.699166	0.598311
	H10	H	0.843136	0.261054	0.598730
	H11	H	0.165523	0.262282	0.393087
	H12	H	0.841511	0.381854	0.710408
	H13	H	0.165999	0.580054	0.711418
	H14	H	0.843034	0.583193	0.276665
	H15	H	0.164491	0.378029	0.275771
	H16	H	0.402797	0.693217	0.831026
	H17	H	0.606405	0.698848	0.154069
	H18	H	0.605389	0.262274	0.831520
	H19	H	0.404497	0.263182	0.156733
	H20	H	0.723260	0.820114	0.386805
	H21	H	0.721776	0.140356	0.597658
	H22	H	0.284325	0.818998	0.593125
	H23	H	0.284532	0.141354	0.390083
	H24	H	0.900864	0.319517	0.214729
	H25	H	0.108110	0.640976	0.216019
	H26	H	0.104920	0.318711	0.776807
	H27	H	0.902466	0.641481	0.779503
	H28	H	0.219603	0.877707	0.331252
	H29	H	0.223770	0.083975	0.654058
	H30	H	0.784085	0.085618	0.331681
	H31	H	0.782164	0.877943	0.653559
	H32	H	0.344223	0.199968	0.888327
	H33	H	0.662422	0.201877	0.100200
	H34	H	0.342724	0.760194	0.094035
	H35	H	0.663443	0.757997	0.886586
	H36	H	0.342132	0.877952	0.209191
	H37	H	0.663420	0.084348	0.214038
	H38	H	0.343205	0.081712	0.773887
	H39	H	0.662979	0.875165	0.771097
	H40	H	0.901468	0.199961	0.332782
	H41	H	0.107090	0.198379	0.656623
	H42	H	0.107019	0.759782	0.333425
	H43	H	0.900093	0.764508	0.655995
	H44	H	0.221217	0.318791	0.891074
	H45	H	0.226571	0.639032	0.102633
	H46	H	0.781421	0.320566	0.102577
	H47	H	0.784224	0.639074	0.891880
	H48	H	0.411637	0.091631	0.574274
	H49	H	0.598450	0.864139	0.580471
	H50	H	0.584880	0.092857	0.399258
	H51	H	0.412423	0.866595	0.402024
	H52	H	0.585553	0.395638	0.103838
	H53	H	0.583820	0.568802	0.881454
	H54	H	0.418203	0.569848	0.107139
	H55	H	0.420197	0.383997	0.879592
	H56	H	0.115481	0.566124	0.407452
	H57	H	0.887499	0.581066	0.585168
	H58	H	0.119004	0.392623	0.593719
	H59	H	0.888633	0.388007	0.401519
	H60	H	0.120687	0.380578	0.586226
	H61	H	0.891776	0.567833	0.583306
	H62	H	0.117998	0.571505	0.404155
	H63	H	0.891262	0.387646	0.410268
	H64	H	0.413120	0.572215	0.110863
	H65	H	0.600959	0.575811	0.874082
	H66	H	0.591689	0.379457	0.111531
	H67	H	0.404771	0.384084	0.875634
	H68	H	0.595717	0.092446	0.412269
	H69	H	0.589856	0.864928	0.584843
	H70	H	0.407306	0.096777	0.587965
	H71	H	0.407542	0.864959	0.401162
	H72	H	0.913642	0.593128	0.085072
	H73	H	0.092917	0.366655	0.082892
	H74	H	0.097619	0.597813	0.896974
	H75	H	0.911175	0.361975	0.896797
	H76	H	0.095705	0.886232	0.611520
	H77	H	0.095644	0.075594	0.376534
	H78	H	0.908006	0.074301	0.611175
	H79	H	0.914090	0.891929	0.380415
	H80	H	0.616464	0.065378	0.901699
	H81	H	0.390507	0.068381	0.082816
	H82	H	0.616994	0.886347	0.079604
	H83	H	0.389538	0.885972	0.902914
	H84	H	0.616112	0.892514	0.083707
	H85	H	0.389450	0.071856	0.083442
	H86	H	0.618931	0.071883	0.898983
	H87	H	0.388867	0.887700	0.900966
	H88	H	0.910871	0.063587	0.606639
	H89	H	0.097145	0.067067	0.379116
	H90	H	0.099735	0.895985	0.608664
	H91	H	0.916738	0.888654	0.379190
	H92	H	0.087883	0.592185	0.907009
	H93	H	0.095753	0.365945	0.085211
	H94	H	0.914131	0.593151	0.084597
	H95	H	0.921290	0.367118	0.905464
	H96	H	0.421790	0.092642	0.585836
	H97	H	0.591280	0.867696	0.575391
	H98	H	0.600040	0.098744	0.397181
	H99	H	0.410598	0.864481	0.397835
	H100	H	0.603854	0.394602	0.110605
	H101	H	0.599796	0.557308	0.879619
	H102	H	0.413320	0.565551	0.108878
	H103	H	0.411115	0.397521	0.882079
	H104	H	0.115921	0.572020	0.410383
	H105	H	0.886694	0.572044	0.596349
	H106	H	0.115580	0.392537	0.579411
	H107	H	0.891992	0.394932	0.405266
	H108	H	0.913759	0.593219	0.083686
	H109	H	0.092282	0.366317	0.086236
	H110	H	0.102672	0.594088	0.910934
	H111	H	0.908013	0.365037	0.910536
	H112	H	0.088863	0.893703	0.606804
	H113	H	0.088481	0.071334	0.380507
	H114	H	0.918199	0.072577	0.606404
	H115	H	0.912028	0.888511	0.377708
	H116	H	0.617432	0.071472	0.906476
	H117	H	0.390326	0.070812	0.079846
	H118	H	0.619303	0.886022	0.086381
	H119	H	0.389073	0.885212	0.901052
	C120	C	0.382029	-0.012259	0.613286
	C121	C	0.624120	0.971359	0.613008
	C122	C	0.624542	-0.011409	0.370998
	C123	C	0.380447	0.971832	0.370116
	C124	C	0.625210	0.358419	0.002328
	C125	C	0.625568	0.600063	0.985046
	C126	C	0.383640	0.599220	0.002138
	C127	C	0.381778	0.357473	0.985865
	C128	C	0.011377	0.601599	0.375075
	C129	C	0.995400	0.603319	0.618299
	C130	C	0.012184	0.358733	0.616897
	C131	C	0.996174	0.359156	0.374011
	C132	C	0.881809	0.488246	0.117064
	C133	C	0.125243	0.472091	0.116856
	C134	C	0.125308	0.488199	0.873860
	C135	C	0.882643	0.471144	0.873858
	C136	C	0.125022	0.859742	0.502351
	C137	C	0.125229	0.102179	0.485436
	C138	C	0.881848	0.101656	0.501447
	C139	C	0.882324	0.859675	0.485333
	C140	C	0.511819	0.100440	0.871362
	C141	C	0.495609	0.101498	0.114484
	C142	C	0.511576	0.857688	0.113352
	C143	C	0.495045	0.855709	0.869978
	C144	C	0.381426	0.866381	0.670352
	C145	C	0.624409	0.091769	0.672781
	C146	C	0.623812	0.867098	0.313333
	C147	C	0.381901	0.093254	0.313655
	C148	C	0.683570	0.357210	0.881006
	C149	C	0.683106	0.602049	0.106346
	C150	C	0.325006	0.599041	0.880932
	C151	C	0.324423	0.357314	0.107760
	C152	C	0.891074	0.659971	0.373919
	C153	C	0.116314	0.660353	0.617609
	C154	C	0.891037	0.300795	0.617256
	C155	C	0.117203	0.301387	0.373778
	C156	C	0.890392	0.360506	0.673180
	C157	C	0.117000	0.601083	0.674171
	C158	C	0.891038	0.602287	0.316235
	C159	C	0.116760	0.358635	0.315042
	C160	C	0.383271	0.655556	0.879959
	C161	C	0.625830	0.659735	0.105657
	C162	C	0.624793	0.300785	0.880256
	C163	C	0.383384	0.300791	0.107891
	C164	C	0.683349	0.867933	0.369022
	C165	C	0.682270	0.092136	0.615380
	C166	C	0.323827	0.866874	0.612485
	C167	C	0.323183	0.092940	0.370531
	C168	C	0.881015	0.367801	0.176141
	C169	C	0.126790	0.592664	0.176445
	C170	C	0.124564	0.366844	0.815430
	C171	C	0.882778	0.592654	0.817440
	C172	C	0.181641	0.858707	0.380118
	C173	C	0.184225	0.102772	0.606261
	C174	C	0.823356	0.103943	0.380322
	C175	C	0.822114	0.859126	0.605838
	C176	C	0.391958	0.159853	0.869984
	C177	C	0.615154	0.161685	0.117674
	C178	C	0.390819	0.799503	0.113568
	C179	C	0.615298	0.797394	0.868305
	C180	C	0.390519	0.857995	0.170825
	C181	C	0.615329	0.103413	0.174717
	C182	C	0.391438	0.101018	0.812769
	C183	C	0.615280	0.855735	0.810883
	C184	C	0.882057	0.160804	0.380568
	C185	C	0.125998	0.159523	0.607579
	C186	C	0.125404	0.800108	0.381407
	C187	C	0.880944	0.802812	0.607181
	C188	C	0.182589	0.367101	0.872421
	C189	C	0.185720	0.591848	0.119816
	C190	C	0.821758	0.368348	0.120062
	C191	C	0.823931	0.591513	0.873584
	C192	C	0.406614	0.071856	0.589703
	C193	C	0.599873	0.887266	0.587684
	C194	C	0.600483	0.072791	0.395787
	C195	C	0.403499	0.887314	0.393424
	C196	C	0.600844	0.382903	0.086817
	C197	C	0.601712	0.574590	0.900224
	C198	C	0.407934	0.575940	0.086930
	C199	C	0.405158	0.381390	0.901149
	C200	C	0.094987	0.577017	0.400084
	C201	C	0.910418	0.580387	0.595096
	C202	C	0.096463	0.381859	0.593330
	C203	C	0.912462	0.383288	0.398555
	C204	C	0.906746	0.571605	0.091829
	C205	C	0.100748	0.388400	0.092007
	C206	C	0.102505	0.572702	0.897956
	C207	C	0.906623	0.386791	0.897380
	C208	C	0.101386	0.884721	0.586841
	C209	C	0.100707	0.078382	0.400636
	C210	C	0.905535	0.077394	0.585945
	C211	C	0.907169	0.882913	0.401072
	C212	C	0.595712	0.076482	0.895459
	C213	C	0.411960	0.077179	0.089356
	C214	C	0.595656	0.881405	0.089954
	C215	C	0.411064	0.879541	0.894466
	Zn216	Zn	0.503024	-0.021519	0.742275
	Zn217	Zn	0.502988	-0.019926	0.242373
	Zn218	Zn	0.754135	0.478845	-0.005468
	Zn219	Zn	0.253810	0.479477	-0.005181
	Zn220	Zn	0.003720	0.731386	0.495402
	Zn221	Zn	0.003670	0.229807	0.495566
	Zn222	Zn	0.003831	0.480358	0.745891
	Zn223	Zn	0.003312	0.480966	0.245154
	Zn224	Zn	0.503945	0.727788	-0.007549
	Zn225	Zn	0.504101	0.230049	-0.006801
	Zn226	Zn	0.753445	-0.019281	0.492459
	Zn227	Zn	0.252769	-0.019558	0.492624
	N228	N	0.416994	0.942399	0.671005
	N229	N	0.588943	0.015433	0.671573
	N230	N	0.588146	0.943191	0.314221
	N231	N	0.416423	0.016758	0.312953
	N232	N	0.684088	0.392182	0.957952
	N233	N	0.682974	0.565589	0.030193
	N234	N	0.324659	0.565094	0.958078
	N235	N	0.322941	0.391450	0.030675
	N236	N	0.966892	0.659481	0.409912
	N237	N	0.039523	0.661851	0.583672
	N238	N	0.967898	0.299345	0.583233
	N239	N	0.041242	0.301283	0.409540
	N240	N	0.966499	0.395609	0.673288
	N241	N	0.040516	0.566596	0.674805
	N242	N	0.966886	0.566752	0.316660
	N243	N	0.040615	0.393843	0.315035
	N244	N	0.418830	0.655841	0.956383
	N245	N	0.591137	0.658677	0.028823
	N246	N	0.589653	0.301231	0.956789
	N247	N	0.418080	0.300812	0.030998
	N248	N	0.684075	0.944656	0.404038
	N249	N	0.682190	0.016156	0.579069
	N250	N	0.324033	0.943448	0.577937
	N251	N	0.322044	0.016337	0.404714
	N252	N	0.917836	0.443176	0.174240
	N253	N	0.090097	0.517094	0.174917
	N254	N	0.089530	0.443189	0.816206
	N255	N	0.918804	0.516807	0.817698
	N256	N	0.181506	0.894986	0.456365
	N257	N	0.183857	0.067849	0.529195
	N258	N	0.823122	0.067979	0.456441
	N259	N	0.822719	0.893674	0.528884
	N260	N	0.467899	0.159819	0.905539
	N261	N	0.539738	0.160697	0.080796
	N262	N	0.467052	0.799047	0.078655
	N263	N	0.539588	0.797289	0.904333
	N264	N	0.466602	0.893471	0.170977
	N265	N	0.540131	0.066626	0.172538
	N266	N	0.467095	0.064832	0.813533
	N267	N	0.539389	0.891177	0.811679
	N268	N	0.917715	0.159516	0.457003
	N269	N	0.090248	0.159453	0.531326
	N270	N	0.090759	0.800602	0.458469
	N271	N	0.917561	0.802790	0.531373
	N272	N	0.183223	0.443480	0.908081
	N273	N	0.184991	0.515915	0.083449
	N274	N	0.822272	0.444096	0.083825
	N275	N	0.823891	0.515013	0.908103
	O276	O	0.377693	0.390046	0.515944
	H277	H	0.379215	0.396416	0.529413
	H278	H	0.367422	0.364074	0.520024
	O279	O	0.592077	0.553195	0.493648
	H280	H	0.590796	0.546856	0.497573
	H281	H	0.598715	0.547746	0.494856
	O282	O	1.186757	-0.064068	0.807905
	H283	H	1.180564	-0.071991	0.812280
	H284	H	1.202663	-0.059251	0.824538
	O285	O	0.581356	0.541032	0.582206
	H286	H	0.592517	0.535282	0.581065
	H287	H	0.590937	0.540358	0.584559
	O288	O	0.520011	1.438776	1.575999
	H289	H	0.518476	1.439045	1.580970
	H290	H	0.516276	1.430219	1.561486
	O291	O	-0.057073	0.883145	-0.029985
	H292	H	-0.069348	0.887004	-0.027549
	H293	H	-0.067369	0.881465	-0.019079
	O294	O	0.529414	0.383117	0.522761
	H295	H	0.534251	0.386503	0.531160
	H296	H	0.529682	0.391272	0.525008
	O297	O	0.657290	0.442977	0.433089
	H298	H	0.647024	0.434254	0.424054
	H299	H	0.666473	0.451100	0.431190
	O300	O	0.591196	0.559098	0.505631
	H301	H	0.582218	0.550605	0.496892
	H302	H	0.595050	0.560295	0.510926
	O303	O	0.614538	0.507711	0.392557
	H304	H	0.627109	0.508724	0.404569
	H305	H	0.604524	0.497812	0.391436
	O306	O	0.536663	0.379348	0.455892
	H307	H	0.526210	0.373350	0.457974
	H308	H	0.530302	0.378293	0.455906
	O309	O	0.811677	0.831506	-0.008828
	H310	H	0.797248	0.814320	-0.008309
	H311	H	0.816554	0.830924	-0.015492
	O312	O	0.016996	0.171619	-0.034163
	H313	H	0.023754	0.161330	-0.035325
	H314	H	0.023714	0.174425	-0.049590
	O315	O	0.508614	0.428917	0.503939
	H316	H	0.507057	0.433913	0.498947
	H317	H	0.511587	0.420630	0.503931
	O318	O	-0.183187	1.071590	0.805950
	H319	H	-0.176423	1.072845	0.807260
	H320	H	-0.168729	1.047151	0.795659
	O321	O	0.406203	0.490412	0.449988
	H322	H	0.405128	0.499452	0.454508
	H323	H	0.395059	0.488218	0.446605
	O324	O	-0.166069	0.901370	0.007503
	H325	H	-0.160100	0.901015	0.002501
	H326	H	-0.170648	0.914394	0.017067
	O327	O	0.435194	0.381521	0.400747
	H328	H	0.438387	0.377091	0.403560
	H329	H	0.424117	0.390739	0.395130
	O330	O	0.199920	0.029384	1.185404
	H331	H	0.221379	0.026014	1.211556
	H332	H	0.175057	0.035215	1.181872
	O333	O	0.003275	0.102584	0.794780
	H334	H	0.023389	0.083443	0.791640
	H335	H	0.007213	0.101589	0.798940
	O336	O	-0.046867	0.943549	1.125684
	H337	H	-0.047643	0.958127	1.120946
	H338	H	-0.063522	0.935202	1.123939
	O339	O	0.873245	-0.104848	0.108380
	H340	H	0.864228	-0.100427	0.123483
	H341	H	0.862609	-0.093050	0.096760
	O342	O	0.175807	0.048087	-0.010838
	H343	H	0.176381	0.046143	-0.007196
	H344	H	0.176400	0.045479	0.001874
	O345	O	0.853030	0.181110	0.949225
	H346	H	0.851364	0.182511	0.924629
	H347	H	0.849125	0.181577	0.925099
	O348	O	0.455819	1.620587	0.495158
	H349	H	0.456014	1.632705	0.483777
	H350	H	0.481987	1.619983	0.501793
	O351	O	0.536078	0.491264	0.530541
	H352	H	0.539589	0.497846	0.522903
	H353	H	0.541990	0.503750	0.540739
	O354	O	0.937482	-0.115570	1.028917
	H355	H	0.955005	-0.118955	1.029443
	H356	H	0.929156	-0.113749	1.024288
	O357	O	0.437973	0.553677	0.411971
	H358	H	0.435160	0.558162	0.420602
	H359	H	0.443254	0.550253	0.406143
	O360	O	0.448918	0.514168	0.543228
	H361	H	0.449376	0.518659	0.548791
	H362	H	0.452828	0.525931	0.549291
	O363	O	-0.060557	0.974529	1.095286
	H364	H	-0.061956	0.976229	1.093131
	H365	H	-0.063979	0.967310	1.114258
	O366	O	0.527759	0.532400	0.570396
	H367	H	0.523338	0.520035	0.584655
	H368	H	0.531035	0.540857	0.575021
	O369	O	-0.051748	0.922834	-0.061835
	H370	H	-0.066050	0.912518	-0.054884
	H371	H	-0.050515	0.932981	-0.059478
	O372	O	-0.012424	0.065380	0.153126
	H373	H	-0.028748	0.071808	0.173629
	H374	H	-0.024210	0.070388	0.135851
	O375	O	0.385367	0.449312	0.523192
	H376	H	0.381361	0.450878	0.515528
	H377	H	0.378087	0.447975	0.531444
	O378	O	0.953407	0.909804	0.159493
	H379	H	0.935509	0.916556	0.148583
	H380	H	0.967441	0.925667	0.153787
	O381	O	0.988831	-0.215165	-0.007298
	H382	H	0.993132	-0.217792	-0.010020
	H383	H	0.986941	-0.204155	-0.008159
	O384	O	1.091506	1.149935	0.169962
	H385	H	1.101908	1.151656	0.181063
	H386	H	1.063146	1.156627	0.155737
	O387	O	-0.046661	-0.014603	0.171409
	H388	H	-0.059930	-0.009398	0.168963
	H389	H	-0.048587	-0.005605	0.163724
	O390	O	0.203206	0.819634	-0.076765
	H391	H	0.202503	0.829054	-0.066388
	H392	H	0.206424	0.816697	-0.055961
	O393	O	0.823935	1.180304	0.899402
	H394	H	0.828504	1.199224	0.899472
	H395	H	0.828870	1.162493	0.872230
	O396	O	0.569825	0.386989	1.442684
	H397	H	0.571713	0.384862	1.431385
	H398	H	0.559704	0.390860	1.428425
	O399	O	0.151067	1.185870	1.059899
	H400	H	0.140988	1.181615	1.090095
	H401	H	0.173296	1.198292	1.051150
	O402	O	0.377315	0.509980	0.368090
	H403	H	0.380134	0.519140	0.355225
	H404	H	0.373563	0.528895	0.363908
	O405	O	1.058921	0.918008	-0.053854
	H406	H	1.067934	0.917336	-0.057589
	H407	H	1.066444	0.914870	-0.054565
	O408	O	1.096047	0.843850	-0.126239
	H409	H	1.088605	0.835839	-0.120643
	H410	H	1.119024	0.835927	-0.114136
	O411	O	1.093611	-0.219981	0.795692
	H412	H	1.112578	-0.213254	0.809866
	H413	H	1.100041	-0.230840	0.781831
	O414	O	0.461992	0.562696	0.553286
	H415	H	0.463076	0.556231	0.551560
	H416	H	0.466044	0.570559	0.559569
	O417	O	1.176601	1.081576	0.875450
	H418	H	1.179049	1.079439	0.880558
	H419	H	1.182569	1.078448	0.893013
