data_Molecule from HDF5

_cell_length_a		16.368909
_cell_length_b		16.464160
_cell_length_c		16.375068
_cell_angle_alpha	90.044778
_cell_angle_beta	89.992590
_cell_angle_gamma	89.806695
_symmetry_space_group_name_H-M	'P 1'
_symmetry_Int_Tables_number		1

loop_
	_symmetry_equiv_pos_as_xyz
	x,y,z

loop_
	_atom_site_label
	_atom_site_type_symbol
	_atom_site_fract_x
	_atom_site_fract_y
	_atom_site_fract_z
	H0	H	0.389409	0.840334	0.723303
	H1	H	0.596092	0.158335	0.718891
	H2	H	0.600163	0.838304	0.281875
	H3	H	0.391672	0.157428	0.282219
	H4	H	0.713774	0.396225	0.843210
	H5	H	0.713418	0.599822	0.163207
	H6	H	0.272387	0.606025	0.843514
	H7	H	0.273453	0.393613	0.161604
	H8	H	0.836046	0.719979	0.397140
	H9	H	0.153009	0.723685	0.612433
	H10	H	0.835128	0.282033	0.603387
	H11	H	0.153904	0.274852	0.394204
	H12	H	0.835967	0.398393	0.718781
	H13	H	0.155731	0.604189	0.723600
	H14	H	0.835339	0.601327	0.283431
	H15	H	0.154502	0.391512	0.279303
	H16	H	0.387596	0.721572	0.843728
	H17	H	0.598541	0.717405	0.162640
	H18	H	0.599709	0.277914	0.844192
	H19	H	0.387911	0.275639	0.160494
	H20	H	0.715659	0.838513	0.398265
	H21	H	0.709667	0.158603	0.600677
	H22	H	0.272197	0.840747	0.608193
	H23	H	0.272439	0.156280	0.395054
	H24	H	0.892585	0.339561	0.221955
	H25	H	0.102656	0.655348	0.226586
	H26	H	0.101927	0.339954	0.781202
	H27	H	0.893255	0.657727	0.782922
	H28	H	0.218573	0.891544	0.343039
	H29	H	0.216593	0.105627	0.660195
	H30	H	0.776418	0.100438	0.340168
	H31	H	0.778306	0.899418	0.662034
	H32	H	0.337713	0.223577	0.895218
	H33	H	0.654403	0.218580	0.107309
	H34	H	0.337204	0.776110	0.110174
	H35	H	0.654413	0.778485	0.897830
	H36	H	0.337177	0.890110	0.226184
	H37	H	0.655669	0.099737	0.220718
	H38	H	0.336840	0.107414	0.780032
	H39	H	0.654867	0.896818	0.783547
	H40	H	0.891859	0.218130	0.341257
	H41	H	0.099439	0.219569	0.660417
	H42	H	0.105256	0.773349	0.344849
	H43	H	0.890012	0.778497	0.660606
	H44	H	0.219695	0.341619	0.895567
	H45	H	0.218257	0.656794	0.110906
	H46	H	0.777829	0.338413	0.105370
	H47	H	0.774979	0.656915	0.898114
	H48	H	0.404924	0.111973	0.593104
	H49	H	0.591389	0.881970	0.591148
	H50	H	0.588914	0.112978	0.410663
	H51	H	0.408656	0.887253	0.416124
	H52	H	0.585601	0.405478	0.118895
	H53	H	0.585954	0.583928	0.888674
	H54	H	0.404999	0.589265	0.116606
	H55	H	0.410879	0.409667	0.889877
	H56	H	0.107232	0.585944	0.419068
	H57	H	0.881262	0.590056	0.592948
	H58	H	0.111869	0.408588	0.595555
	H59	H	0.882321	0.407902	0.415564
	H60	H	0.111865	0.403058	0.588734
	H61	H	0.883679	0.590511	0.589148
	H62	H	0.107755	0.582479	0.412447
	H63	H	0.882375	0.412349	0.410055
	H64	H	0.407144	0.583476	0.113770
	H65	H	0.580152	0.590996	0.889401
	H66	H	0.588344	0.408514	0.118277
	H67	H	0.406602	0.411911	0.890314
	H68	H	0.582350	0.111000	0.408011
	H69	H	0.585421	0.883264	0.598142
	H70	H	0.408918	0.109635	0.589897
	H71	H	0.404629	0.884962	0.414132
	H72	H	0.899377	0.613378	0.090533
	H73	H	0.083043	0.384729	0.094860
	H74	H	0.083402	0.610407	0.916654
	H75	H	0.909082	0.383125	0.902475
	H76	H	0.082574	0.908541	0.614645
	H77	H	0.088688	0.087451	0.385658
	H78	H	0.906665	0.088103	0.612992
	H79	H	0.909882	0.908652	0.388860
	H80	H	0.609194	0.086470	0.909309
	H81	H	0.381405	0.091363	0.089692
	H82	H	0.603575	0.910790	0.081330
	H83	H	0.379765	0.914055	0.905772
	H84	H	0.608466	0.916455	0.097827
	H85	H	0.383078	0.085079	0.088724
	H86	H	0.609660	0.091445	0.913434
	H87	H	0.378601	0.901955	0.915906
	H88	H	0.903662	0.098956	0.617812
	H89	H	0.080179	0.079659	0.392043
	H90	H	0.084535	0.913215	0.614715
	H91	H	0.905199	0.906024	0.386083
	H92	H	0.086830	0.612375	0.912402
	H93	H	0.078984	0.390024	0.085692
	H94	H	0.906765	0.613067	0.097646
	H95	H	0.907985	0.387581	0.916462
	H96	H	0.403337	0.111379	0.587738
	H97	H	0.583280	0.885563	0.589236
	H98	H	0.583985	0.109388	0.414189
	H99	H	0.409131	0.885516	0.411720
	H100	H	0.584920	0.408846	0.116218
	H101	H	0.588702	0.592031	0.886470
	H102	H	0.411361	0.589191	0.113993
	H103	H	0.411016	0.413829	0.892221
	H104	H	0.110038	0.589737	0.413618
	H105	H	0.883277	0.586448	0.591501
	H106	H	0.109360	0.411549	0.587034
	H107	H	0.879704	0.405014	0.408598
	H108	H	0.908535	0.609170	0.087632
	H109	H	0.089675	0.386036	0.086226
	H110	H	0.081065	0.610898	0.910984
	H111	H	0.896222	0.381069	0.909653
	H112	H	0.080224	0.912726	0.613015
	H113	H	0.076571	0.091554	0.388771
	H114	H	0.896069	0.089584	0.618309
	H115	H	0.904922	0.911838	0.387715
	H116	H	0.607181	0.085252	0.915898
	H117	H	0.381616	0.086896	0.094455
	H118	H	0.613014	0.899806	0.093007
	H119	H	0.385481	0.914842	0.920347
	C120	C	0.372816	0.006882	0.623426
	C121	C	0.616161	0.989627	0.622642
	C122	C	0.617568	0.006199	0.379349
	C123	C	0.374446	0.990529	0.380935
	C124	C	0.617744	0.376388	0.012124
	C125	C	0.616554	0.619779	0.994234
	C126	C	0.373972	0.620766	0.010424
	C127	C	0.375386	0.378516	0.994927
	C128	C	0.003430	0.618943	0.382107
	C129	C	0.987938	0.620620	0.623618
	C130	C	0.004876	0.377901	0.621590
	C131	C	0.986777	0.376313	0.379394
	C132	C	0.874151	0.506548	0.123220
	C133	C	0.117029	0.490615	0.123247
	C134	C	0.117182	0.507062	0.880665
	C135	C	0.873629	0.489357	0.879204
	C136	C	0.116839	0.877111	0.510301
	C137	C	0.115137	0.119315	0.493449
	C138	C	0.872174	0.121747	0.509906
	C139	C	0.874790	0.877935	0.493089
	C140	C	0.503784	0.120865	0.880747
	C141	C	0.487227	0.119018	0.123273
	C142	C	0.503925	0.876569	0.123738
	C143	C	0.486341	0.877676	0.881239
	C144	C	0.370675	0.888425	0.684181
	C145	C	0.615409	0.110299	0.679751
	C146	C	0.618848	0.886230	0.321032
	C147	C	0.372442	0.109549	0.321178
	C148	C	0.675325	0.376329	0.891397
	C149	C	0.674716	0.619466	0.114936
	C150	C	0.312383	0.624194	0.891441
	C151	C	0.313754	0.375580	0.114047
	C152	C	0.883850	0.679546	0.379356
	C153	C	0.106439	0.681956	0.628081
	C154	C	0.883639	0.320726	0.622278
	C155	C	0.106354	0.315448	0.376392
	C156	C	0.883901	0.378561	0.679790
	C157	C	0.107523	0.622532	0.683900
	C158	C	0.883354	0.620577	0.322724
	C159	C	0.106644	0.373498	0.319071
	C160	C	0.369901	0.681955	0.891547
	C161	C	0.617429	0.678068	0.114518
	C162	C	0.618652	0.317466	0.892064
	C163	C	0.370634	0.316661	0.113423
	C164	C	0.676416	0.886167	0.378995
	C165	C	0.671750	0.110688	0.620788
	C166	C	0.312770	0.888030	0.626238
	C167	C	0.313151	0.109045	0.377563
	C168	C	0.873805	0.386933	0.182376
	C169	C	0.120629	0.608629	0.185670
	C170	C	0.120173	0.387814	0.820700
	C171	C	0.873929	0.609891	0.821963
	C172	C	0.178329	0.873638	0.391068
	C173	C	0.176026	0.122586	0.612673
	C174	C	0.815227	0.120463	0.388704
	C175	C	0.816712	0.878670	0.613935
	C176	C	0.384951	0.182847	0.877641
	C177	C	0.606881	0.178388	0.125585
	C178	C	0.384644	0.815838	0.127597
	C179	C	0.606447	0.817913	0.879257
	C180	C	0.384682	0.873090	0.185271
	C181	C	0.607398	0.119324	0.182196
	C182	C	0.384429	0.124780	0.820270
	C183	C	0.606643	0.876563	0.822100
	C184	C	0.872621	0.178881	0.389082
	C185	C	0.117893	0.179828	0.612650
	C186	C	0.122027	0.814558	0.391862
	C187	C	0.872344	0.818761	0.613128
	C188	C	0.178541	0.388546	0.877907
	C189	C	0.178085	0.609089	0.127717
	C190	C	0.816837	0.386466	0.123985
	C191	C	0.815047	0.609325	0.879240
	C192	C	0.398323	0.089491	0.597680
	C193	C	0.593408	0.905626	0.599502
	C194	C	0.592511	0.089572	0.404041
	C195	C	0.400041	0.907448	0.406727
	C196	C	0.593321	0.400634	0.096140
	C197	C	0.592199	0.595753	0.910021
	C198	C	0.400303	0.594847	0.093199
	C199	C	0.402035	0.404415	0.912346
	C200	C	0.086525	0.593397	0.407581
	C201	C	0.904481	0.596147	0.598401
	C202	C	0.089029	0.401068	0.597436
	C203	C	0.903370	0.401353	0.404308
	C204	C	0.898076	0.590174	0.098901
	C205	C	0.091206	0.408486	0.096583
	C206	C	0.091184	0.589857	0.906071
	C207	C	0.897578	0.405639	0.902772
	C208	C	0.090019	0.903754	0.592700
	C209	C	0.089237	0.093492	0.410385
	C210	C	0.895411	0.098828	0.594339
	C211	C	0.899522	0.901861	0.409606
	C212	C	0.586797	0.095125	0.905879
	C213	C	0.403655	0.094716	0.098260
	C214	C	0.586594	0.901736	0.097824
	C215	C	0.403108	0.902836	0.906674
	Zn216	Zn	0.494985	-0.000528	0.752070
	Zn217	Zn	0.495318	-0.002685	0.252003
	Zn218	Zn	0.745391	0.498263	0.002498
	Zn219	Zn	0.245854	0.499270	0.002553
	Zn220	Zn	-0.004205	0.748724	0.502744
	Zn221	Zn	-0.004375	0.248805	0.500871
	Zn222	Zn	-0.003111	0.498086	0.751271
	Zn223	Zn	-0.004310	0.498352	0.252215
	Zn224	Zn	0.495091	0.748806	0.002537
	Zn225	Zn	0.495218	0.248560	0.002952
	Zn226	Zn	0.745315	-0.001354	0.501117
	Zn227	Zn	0.244598	-0.001045	0.501275
	N228	N	0.407249	0.963595	0.682521
	N229	N	0.581735	0.034009	0.681246
	N230	N	0.583064	0.961892	0.321335
	N231	N	0.409525	0.034562	0.322970
	N232	N	0.674888	0.411958	0.967189
	N233	N	0.674389	0.584197	0.038821
	N234	N	0.314657	0.586943	0.966518
	N235	N	0.316625	0.413379	0.039281
	N236	N	0.959758	0.679016	0.415130
	N237	N	0.031239	0.680644	0.591259
	N238	N	0.959903	0.320117	0.586941
	N239	N	0.030937	0.317133	0.413119
	N240	N	0.959999	0.413375	0.679463
	N241	N	0.032772	0.584801	0.681189
	N242	N	0.958772	0.583649	0.324087
	N243	N	0.031304	0.410604	0.320782
	N244	N	0.407296	0.680035	0.966686
	N245	N	0.582306	0.678583	0.038277
	N246	N	0.583756	0.317363	0.968377
	N247	N	0.408150	0.318313	0.038386
	N248	N	0.675786	0.961945	0.414366
	N249	N	0.672725	0.034565	0.586266
	N250	N	0.313891	0.962751	0.589365
	N251	N	0.314343	0.033796	0.413702
	N252	N	0.908777	0.462728	0.182038
	N253	N	0.083297	0.533988	0.183176
	N254	N	0.082751	0.462682	0.822385
	N255	N	0.909437	0.534181	0.821625
	N256	N	0.175192	0.912032	0.465674
	N257	N	0.174566	0.085735	0.537380
	N258	N	0.814776	0.085823	0.464821
	N259	N	0.818075	0.914714	0.538360
	N260	N	0.460222	0.180522	0.914595
	N261	N	0.531039	0.178355	0.089719
	N262	N	0.459662	0.817894	0.090035
	N263	N	0.530650	0.818324	0.914950
	N264	N	0.459677	0.910100	0.183275
	N265	N	0.531868	0.083126	0.180795
	N266	N	0.459140	0.086748	0.822084
	N267	N	0.530963	0.913044	0.823048
	N268	N	0.907163	0.179972	0.465443
	N269	N	0.080687	0.177772	0.537512
	N270	N	0.084502	0.816718	0.466914
	N271	N	0.907913	0.818302	0.537018
	N272	N	0.176978	0.463682	0.914270
	N273	N	0.175903	0.534732	0.089698
	N274	N	0.817081	0.461850	0.087783
	N275	N	0.814564	0.533370	0.913946
	O276	O	0.500830	0.367303	0.373208
	H277	H	0.498672	0.377680	0.366054
	H278	H	0.498262	0.361578	0.396945
	O279	O	0.355589	0.681974	0.316668
	H280	H	0.351488	0.675613	0.338038
	H281	H	0.401437	0.690275	0.318878
	O282	O	0.392370	0.345756	0.497704
	H283	H	0.393712	0.344536	0.493365
	H284	H	0.383711	0.338496	0.500830
	O285	O	0.834092	0.879536	-0.150718
	H286	H	0.831989	0.903738	-0.143274
	H287	H	0.834431	0.876778	-0.128395
	O288	O	0.291045	0.702640	0.443904
	H289	H	0.300344	0.702343	0.448803
	H290	H	0.274383	0.702101	0.432229
	O291	O	0.439159	0.386111	0.565486
	H292	H	0.434445	0.378775	0.576605
	H293	H	0.433155	0.376009	0.581614
	O294	O	0.854453	0.781444	0.955115
	H295	H	0.858870	0.778383	0.976029
	H296	H	0.827959	0.774084	0.961052
	O297	O	0.508117	0.625348	0.443215
	H298	H	0.505049	0.610174	0.450338
	H299	H	0.507332	0.615755	0.440452
	O300	O	0.573493	0.462117	0.524082
	H301	H	0.580379	0.469884	0.540424
	H302	H	0.565146	0.478421	0.529296
	O303	O	0.475955	0.351547	0.657551
	H304	H	0.484403	0.341310	0.664075
	H305	H	0.479475	0.367731	0.664084
	O306	O	-0.158619	0.200037	0.843493
	H307	H	-0.142924	0.193431	0.845756
	H308	H	-0.146733	0.211455	0.843820
	O309	O	0.790562	-0.023869	0.202644
	H310	H	0.798853	-0.025201	0.187803
	H311	H	0.771914	-0.023605	0.226925
	O312	O	0.296666	0.488662	0.688090
	H313	H	0.281034	0.491696	0.700047
	H314	H	0.321225	0.510900	0.684571
	O315	O	0.446351	0.608784	0.600017
	H316	H	0.465350	0.615599	0.585375
	H317	H	0.445090	0.610580	0.601593
	O318	O	0.163261	0.136735	0.193002
	H319	H	0.149347	0.135809	0.183464
	H320	H	0.180773	0.131732	0.180644
	O321	O	0.448001	0.472171	0.408697
	H322	H	0.443569	0.460935	0.408820
	H323	H	0.463451	0.463132	0.401439
	O324	O	1.199808	-0.041589	1.015854
	H325	H	1.190635	-0.040321	1.012298
	H326	H	1.211460	-0.045755	1.008289
	O327	O	0.588910	0.694887	0.687956
	H328	H	0.578100	0.706043	0.683308
	H329	H	0.586432	0.708298	0.689478
	O330	O	0.200787	1.089271	0.941975
	H331	H	0.187176	1.082840	0.940583
	H332	H	0.207956	1.078461	0.919933
	O333	O	-0.137100	1.029312	0.109069
	H334	H	-0.135937	1.026586	0.108682
	H335	H	-0.129150	1.033943	0.104066
	O336	O	1.184721	1.200058	0.056899
	H337	H	1.183531	1.189628	0.032187
	H338	H	1.192169	1.199350	0.055234
	O339	O	-0.090834	0.988404	1.001113
	H340	H	-0.095834	1.003972	1.011548
	H341	H	-0.099866	1.002034	1.000484
	O342	O	0.305556	0.329307	0.686331
	H343	H	0.320564	0.337776	0.670151
	H344	H	0.291954	0.361190	0.687969
	O345	O	-0.067236	0.042265	0.996847
	H346	H	-0.060674	0.031604	0.988519
	H347	H	-0.065299	0.059929	0.988636
	O348	O	0.432004	0.452536	0.672701
	H349	H	0.442068	0.462562	0.665815
	H350	H	0.432085	0.462060	0.680885
	O351	O	0.977695	1.065610	0.152333
	H352	H	0.989319	1.066229	0.146640
	H353	H	0.980316	1.051361	0.138371
	O354	O	0.881410	1.138770	0.801944
	H355	H	0.878774	1.148236	0.777415
	H356	H	0.893690	1.119296	0.801131
	O357	O	0.069894	-0.079597	0.079276
	H358	H	0.071160	-0.062279	0.090232
	H359	H	0.060415	-0.067371	0.073828
	O360	O	0.677189	0.309824	0.378639
	H361	H	0.676339	0.306466	0.378617
	H362	H	0.654962	0.299904	0.375222
	O363	O	1.072452	-0.048778	0.028843
	H364	H	1.074830	-0.035519	0.028152
	H365	H	1.084796	-0.048256	0.034524
	O366	O	0.159261	-0.049559	0.786008
	H367	H	0.139929	-0.089020	0.789797
	H368	H	0.183339	-0.058644	0.755848
	O369	O	0.686467	-0.410524	0.460425
	H370	H	0.699584	-0.415827	0.450973
	H371	H	0.662447	-0.410907	0.458375
	O372	O	0.526301	0.378877	0.388171
	H373	H	0.523795	0.367156	0.383063
	H374	H	0.507523	0.379638	0.378179
	O375	O	0.000071	0.185591	0.921004
	H376	H	0.006755	0.179167	0.902591
	H377	H	0.000638	0.187974	0.919139
	O378	O	0.402168	0.400271	0.395696
	H379	H	0.406313	0.384606	0.388522
	H380	H	0.412660	0.397035	0.388953
	O381	O	0.013588	0.842263	-0.028192
	H382	H	0.017161	0.820634	-0.020733
	H383	H	0.020044	0.847509	-0.019423
	O384	O	0.523771	0.511053	0.514384
	H385	H	0.526222	0.497821	0.483332
	H386	H	0.516337	0.511828	0.502262
	O387	O	0.773485	0.078572	0.860468
	H388	H	0.778246	0.086784	0.859051
	H389	H	0.762427	0.097926	0.853036
	O390	O	0.814644	0.822005	0.173508
	H391	H	0.837371	0.817974	0.159341
	H392	H	0.824052	0.846839	0.186226
	O393	O	0.996529	-0.008749	1.008514
	H394	H	0.998815	-0.027739	1.009596
	H395	H	1.002811	0.010874	1.002733
	O396	O	0.993229	1.178253	0.192334
	H397	H	0.994304	1.176295	0.166850
	H398	H	0.992655	1.199913	0.208502
	O399	O	0.404411	0.538443	0.482023
	H400	H	0.412916	0.533674	0.478068
	H401	H	0.408352	0.526108	0.497120
	O402	O	1.040956	1.096114	-0.167316
	H403	H	1.050865	1.075044	-0.166116
	H404	H	1.063986	1.081809	-0.165620
	O405	O	0.561394	0.635544	0.361344
	H406	H	0.559534	0.612109	0.358156
	H407	H	0.559184	0.638741	0.378156
	O408	O	0.291642	0.517881	0.301187
	H409	H	0.272252	0.514854	0.287224
	H410	H	0.303499	0.538404	0.296793
	O411	O	1.200313	0.803396	0.942573
	H412	H	1.204431	0.793135	0.954624
	H413	H	1.204936	0.796939	0.958361
	O414	O	0.672530	0.463558	0.415476
	H415	H	0.666875	0.464946	0.386803
	H416	H	0.698366	0.448301	0.428956
	O417	O	-0.216318	1.206936	0.973365
	H418	H	-0.217572	1.201772	0.967798
	H419	H	-0.235696	1.225318	0.960572
	O420	O	0.091963	0.826905	0.816505
	H421	H	0.057958	0.819188	0.819573
	H422	H	0.092746	0.810239	0.854897
	O423	O	0.194134	1.000058	0.157323
	H424	H	0.206581	1.007639	0.176694
	H425	H	0.184899	1.001622	0.146683
	O426	O	0.510785	0.575248	0.515239
	H427	H	0.515221	0.570304	0.512244
	H428	H	0.520272	0.569055	0.513678
	O429	O	0.686446	0.692249	0.639651
	H430	H	0.698591	0.696170	0.626061
	H431	H	0.660822	0.691796	0.637914
	O432	O	0.651158	0.369527	0.667096
	H433	H	0.669099	0.375872	0.671696
	H434	H	0.646708	0.373154	0.659525
	O435	O	-0.024312	-0.217516	0.201236
	H436	H	-0.021956	-0.242943	0.227846
	H437	H	-0.018663	-0.191812	0.203466
	O438	O	-0.061851	0.862116	0.850173
	H439	H	-0.076864	0.867921	0.855954
	H440	H	-0.073457	0.866403	0.862798
	O441	O	0.665472	0.537997	0.577851
	H442	H	0.667417	0.554340	0.594948
	H443	H	0.673500	0.552960	0.593850
