data_Molecule from HDF5

_cell_length_a		16.397070
_cell_length_b		16.162771
_cell_length_c		16.324936
_cell_angle_alpha	90.156418
_cell_angle_beta	89.858414
_cell_angle_gamma	89.983459
_symmetry_space_group_name_H-M	'P 1'
_symmetry_Int_Tables_number		1

loop_
	_symmetry_equiv_pos_as_xyz
	x,y,z

loop_
	_atom_site_label
	_atom_site_type_symbol
	_atom_site_fract_x
	_atom_site_fract_y
	_atom_site_fract_z
	H0	H	0.383471	0.839079	0.718973
	H1	H	0.582984	0.166315	0.717518
	H2	H	0.583046	0.838521	0.285020
	H3	H	0.380778	0.165657	0.287648
	H4	H	0.701832	0.397923	0.840361
	H5	H	0.702368	0.607985	0.162132
	H6	H	0.265948	0.604488	0.839886
	H7	H	0.263063	0.397809	0.162997
	H8	H	0.822379	0.717966	0.401494
	H9	H	0.145708	0.718067	0.603249
	H10	H	0.821451	0.285899	0.599740
	H11	H	0.145829	0.285046	0.401745
	H12	H	0.823284	0.396618	0.721010
	H13	H	0.144380	0.603117	0.719786
	H14	H	0.823447	0.604114	0.283466
	H15	H	0.143574	0.395566	0.280613
	H16	H	0.382536	0.720005	0.839821
	H17	H	0.580689	0.717329	0.165115
	H18	H	0.581164	0.286803	0.839197
	H19	H	0.383851	0.288205	0.165540
	H20	H	0.700698	0.838280	0.399239
	H21	H	0.700012	0.165659	0.603637
	H22	H	0.265835	0.839482	0.606637
	H23	H	0.267364	0.165237	0.404066
	H24	H	0.884417	0.337420	0.215282
	H25	H	0.083361	0.665111	0.218184
	H26	H	0.081226	0.336255	0.788026
	H27	H	0.883992	0.665213	0.786131
	H28	H	0.203902	0.897804	0.342146
	H29	H	0.200236	0.104380	0.664680
	H30	H	0.766892	0.101223	0.340526
	H31	H	0.765555	0.898779	0.664613
	H32	H	0.320147	0.216476	0.905780
	H33	H	0.646063	0.217396	0.100966
	H34	H	0.320881	0.786959	0.102008
	H35	H	0.645906	0.786913	0.904284
	H36	H	0.321135	0.901803	0.219622
	H37	H	0.644477	0.103296	0.219819
	H38	H	0.321428	0.104275	0.786457
	H39	H	0.644853	0.900876	0.785670
	H40	H	0.886105	0.214121	0.337803
	H41	H	0.081688	0.217687	0.664966
	H42	H	0.083004	0.786374	0.339382
	H43	H	0.884765	0.786281	0.665519
	H44	H	0.199026	0.337402	0.900679
	H45	H	0.198360	0.665637	0.102480
	H46	H	0.766165	0.338768	0.101041
	H47	H	0.767699	0.666153	0.900674
	H48	H	0.388152	0.117506	0.586390
	H49	H	0.574343	0.885235	0.593372
	H50	H	0.576552	0.118520	0.412386
	H51	H	0.401642	0.888870	0.412449
	H52	H	0.578022	0.411364	0.118558
	H53	H	0.573907	0.596546	0.885861
	H54	H	0.387260	0.593959	0.117875
	H55	H	0.385960	0.405119	0.883724
	H56	H	0.095340	0.587267	0.413476
	H57	H	0.869483	0.592419	0.594175
	H58	H	0.094959	0.413416	0.586882
	H59	H	0.869230	0.409531	0.408904
	H60	H	0.099216	0.414273	0.601902
	H61	H	0.868807	0.591664	0.594325
	H62	H	0.099589	0.590919	0.404683
	H63	H	0.867872	0.408657	0.408853
	H64	H	0.390555	0.590772	0.115468
	H65	H	0.577842	0.591083	0.886013
	H66	H	0.575499	0.414474	0.117447
	H67	H	0.387701	0.417048	0.888485
	H68	H	0.574171	0.118236	0.411611
	H69	H	0.574683	0.885757	0.594397
	H70	H	0.385850	0.122806	0.601040
	H71	H	0.387615	0.886002	0.419415
	H72	H	0.894296	0.616190	0.087785
	H73	H	0.080829	0.383679	0.090760
	H74	H	0.072105	0.616910	0.913059
	H75	H	0.891127	0.386175	0.912401
	H76	H	0.076666	0.912391	0.617635
	H77	H	0.083088	0.094085	0.384056
	H78	H	0.882612	0.090354	0.619643
	H79	H	0.891840	0.903968	0.385447
	H80	H	0.600271	0.095495	0.906016
	H81	H	0.369598	0.091360	0.094959
	H82	H	0.599144	0.915527	0.101454
	H83	H	0.370735	0.916549	0.913299
	H84	H	0.600049	0.903707	0.096692
	H85	H	0.366183	0.094629	0.100369
	H86	H	0.597948	0.097163	0.912908
	H87	H	0.366809	0.911779	0.906468
	H88	H	0.897444	0.087069	0.613600
	H89	H	0.076818	0.083841	0.389287
	H90	H	0.073256	0.909908	0.618000
	H91	H	0.885529	0.913038	0.386220
	H92	H	0.079930	0.618815	0.911129
	H93	H	0.071768	0.384252	0.097357
	H94	H	0.886429	0.620615	0.093759
	H95	H	0.889865	0.384128	0.910589
	H96	H	0.400123	0.117326	0.595989
	H97	H	0.573571	0.886087	0.594306
	H98	H	0.575342	0.117738	0.413646
	H99	H	0.390240	0.881800	0.404425
	H100	H	0.573672	0.410356	0.116787
	H101	H	0.571508	0.591084	0.888138
	H102	H	0.390874	0.595750	0.116837
	H103	H	0.397495	0.408290	0.888268
	H104	H	0.099130	0.597241	0.412539
	H105	H	0.869207	0.592619	0.594525
	H106	H	0.101771	0.400963	0.593736
	H107	H	0.869328	0.408624	0.410228
	H108	H	0.895422	0.618888	0.098447
	H109	H	0.070863	0.387356	0.086090
	H110	H	0.074054	0.619343	0.904587
	H111	H	0.891916	0.385463	0.909641
	H112	H	0.076830	0.908073	0.619450
	H113	H	0.070561	0.095263	0.388436
	H114	H	0.893570	0.101615	0.619328
	H115	H	0.895698	0.913264	0.389662
	H116	H	0.597093	0.090757	0.909554
	H117	H	0.367497	0.098119	0.094546
	H118	H	0.595592	0.912821	0.088753
	H119	H	0.368535	0.908133	0.914089
	C120	C	0.361554	0.011209	0.625136
	C121	C	0.604500	0.993707	0.624033
	C122	C	0.604812	0.010206	0.381851
	C123	C	0.362792	0.993460	0.383021
	C124	C	0.604728	0.381411	0.010290
	C125	C	0.603965	0.623842	0.993442
	C126	C	0.360415	0.624398	0.010091
	C127	C	0.360856	0.380599	0.993917
	C128	C	-0.007880	0.622544	0.380236
	C129	C	0.975488	0.622843	0.624355
	C130	C	-0.007864	0.378887	0.623767
	C131	C	0.975249	0.378862	0.379199
	C132	C	0.862030	0.510769	0.122700
	C133	C	0.104301	0.493141	0.121985
	C134	C	0.104926	0.509782	0.880110
	C135	C	0.861756	0.493244	0.880590
	C136	C	0.105590	0.879829	0.511339
	C137	C	0.105321	0.122419	0.494394
	C138	C	0.862210	0.122229	0.510053
	C139	C	0.861229	0.879269	0.494050
	C140	C	0.491314	0.124116	0.880950
	C141	C	0.474311	0.124845	0.125805
	C142	C	0.491309	0.880923	0.124994
	C143	C	0.475281	0.881404	0.881428
	C144	C	0.363088	0.888111	0.681430
	C145	C	0.603223	0.117089	0.679882
	C146	C	0.603696	0.887380	0.323499
	C147	C	0.362267	0.116768	0.326357
	C148	C	0.662392	0.379664	0.888688
	C149	C	0.662336	0.625655	0.114509
	C150	C	0.304228	0.624089	0.888368
	C151	C	0.303018	0.380252	0.115109
	C152	C	0.870884	0.679912	0.381349
	C153	C	0.097008	0.679726	0.623007
	C154	C	0.870208	0.322992	0.621413
	C155	C	0.097038	0.322612	0.381044
	C156	C	0.870965	0.378616	0.681345
	C157	C	0.096491	0.622442	0.681158
	C158	C	0.871441	0.623001	0.322869
	C159	C	0.096078	0.377710	0.320993
	C160	C	0.362282	0.681526	0.888367
	C161	C	0.601762	0.680130	0.116164
	C162	C	0.602256	0.324400	0.888003
	C163	C	0.363035	0.325181	0.116336
	C164	C	0.661669	0.887162	0.380807
	C165	C	0.661597	0.116440	0.623332
	C166	C	0.304696	0.888243	0.625424
	C167	C	0.305452	0.116452	0.383993
	C168	C	0.863740	0.386876	0.177742
	C169	C	0.103269	0.616185	0.179853
	C170	C	0.102219	0.385849	0.825030
	C171	C	0.863590	0.616370	0.823997
	C172	C	0.163882	0.879458	0.389908
	C173	C	0.161154	0.122949	0.616457
	C174	C	0.805699	0.121027	0.388518
	C175	C	0.804466	0.879767	0.616178
	C176	C	0.368858	0.179098	0.884430
	C177	C	0.596915	0.180225	0.122433
	C178	C	0.369362	0.824754	0.122928
	C179	C	0.597248	0.824961	0.883642
	C180	C	0.369360	0.881996	0.181250
	C181	C	0.596212	0.123418	0.181565
	C182	C	0.369726	0.123531	0.824874
	C183	C	0.596643	0.881559	0.824452
	C184	C	0.865177	0.177032	0.387176
	C185	C	0.102516	0.179617	0.616207
	C186	C	0.103890	0.823887	0.388587
	C187	C	0.863893	0.823700	0.616682
	C188	C	0.161073	0.386630	0.880832
	C189	C	0.160249	0.616437	0.121944
	C190	C	0.805211	0.387477	0.120814
	C191	C	0.805980	0.616869	0.881336
	C192	C	0.384601	0.097061	0.601449
	C193	C	0.581114	0.907809	0.600824
	C194	C	0.582069	0.095810	0.405724
	C195	C	0.386184	0.907866	0.405627
	C196	C	0.582184	0.405077	0.095386
	C197	C	0.580971	0.600025	0.908785
	C198	C	0.383087	0.600554	0.094855
	C199	C	0.383692	0.403564	0.908790
	C200	C	0.076207	0.598545	0.403390
	C201	C	0.891156	0.599102	0.601032
	C202	C	0.076620	0.402722	0.600902
	C203	C	0.890728	0.402062	0.402469
	C204	C	0.885078	0.596284	0.100191
	C205	C	0.081418	0.407347	0.098272
	C206	C	0.082139	0.595996	0.902932
	C207	C	0.884392	0.407456	0.903981
	C208	C	0.082525	0.903185	0.596278
	C209	C	0.083454	0.098113	0.409278
	C210	C	0.884638	0.099541	0.595447
	C211	C	0.884338	0.902919	0.408998
	C212	C	0.576309	0.101281	0.903109
	C213	C	0.389760	0.101650	0.103126
	C214	C	0.576171	0.904087	0.102384
	C215	C	0.390490	0.905193	0.904625
	Zn216	Zn	0.483051	0.002863	0.752134
	Zn217	Zn	0.482451	0.002556	0.254548
	Zn218	Zn	0.733128	0.503502	0.001342
	Zn219	Zn	0.232259	0.501770	0.001254
	Zn220	Zn	-0.015813	0.751309	0.502093
	Zn221	Zn	-0.016324	0.250755	0.501099
	Zn222	Zn	-0.016628	0.500888	0.752702
	Zn223	Zn	-0.015791	0.500660	0.251022
	Zn224	Zn	0.482971	0.752513	0.002567
	Zn225	Zn	0.483114	0.252730	0.002420
	Zn226	Zn	0.732902	0.001194	0.503105
	Zn227	Zn	0.234769	0.001357	0.503466
	N228	N	0.397664	0.965735	0.681342
	N229	N	0.568499	0.039681	0.680574
	N230	N	0.568761	0.964649	0.324282
	N231	N	0.397464	0.039453	0.325724
	N232	N	0.664146	0.414285	0.965784
	N233	N	0.663638	0.591205	0.037435
	N234	N	0.302737	0.589458	0.965157
	N235	N	0.301614	0.414030	0.037949
	N236	N	0.946822	0.679740	0.416525
	N237	N	0.020560	0.680333	0.588422
	N238	N	0.946470	0.323048	0.586464
	N239	N	0.020959	0.323426	0.416787
	N240	N	0.947930	0.412480	0.683076
	N241	N	0.019946	0.587807	0.682071
	N242	N	0.947824	0.587879	0.322152
	N243	N	0.019490	0.412079	0.319814
	N244	N	0.396458	0.681933	0.965257
	N245	N	0.565999	0.679044	0.040000
	N246	N	0.567321	0.325149	0.964736
	N247	N	0.398327	0.325128	0.039954
	N248	N	0.662425	0.964423	0.416314
	N249	N	0.662418	0.038620	0.589255
	N250	N	0.303478	0.965912	0.591297
	N251	N	0.305767	0.038936	0.418562
	N252	N	0.898273	0.464268	0.179162
	N253	N	0.069245	0.538370	0.179899
	N254	N	0.068075	0.463546	0.824387
	N255	N	0.897368	0.538263	0.823211
	N256	N	0.165122	0.913532	0.467343
	N257	N	0.163161	0.088082	0.539614
	N258	N	0.803724	0.087792	0.465866
	N259	N	0.802645	0.913432	0.538937
	N260	N	0.445507	0.179758	0.918454
	N261	N	0.520160	0.181458	0.088608
	N262	N	0.446057	0.823720	0.088721
	N263	N	0.520693	0.824772	0.918299
	N264	N	0.446022	0.916342	0.182336
	N265	N	0.519040	0.090198	0.184045
	N266	N	0.446703	0.089878	0.822798
	N267	N	0.519725	0.915761	0.823003
	N268	N	0.899579	0.177859	0.463944
	N269	N	0.068595	0.179283	0.539321
	N270	N	0.068301	0.824182	0.464850
	N271	N	0.898381	0.823161	0.539607
	N272	N	0.162821	0.464867	0.914313
	N273	N	0.161097	0.538983	0.086748
	N274	N	0.803780	0.465608	0.087576
	N275	N	0.804834	0.539328	0.915623
	O276	O	1.035855	-0.025408	1.061411
	H277	H	1.046173	-0.037606	1.064306
	H278	H	1.032479	-0.036637	1.054228
	O279	O	0.562537	0.592662	0.424666
	H280	H	0.577574	0.614773	0.435061
	H281	H	0.551927	0.588824	0.414218
	O282	O	0.328737	0.432562	0.611505
	H283	H	0.337699	0.427138	0.616201
	H284	H	0.325811	0.419839	0.607412
	O285	O	0.444924	0.616154	0.451800
	H286	H	0.454068	0.611709	0.452478
	H287	H	0.438814	0.623684	0.442690
	O288	O	0.683741	0.685755	0.528193
	H289	H	0.697013	0.696228	0.543667
	H290	H	0.684942	0.696015	0.558750
	O291	O	-0.021053	-0.116608	0.965017
	H292	H	-0.023071	-0.115933	0.958682
	H293	H	-0.018574	-0.114213	0.968489
	O294	O	1.058349	0.972398	0.002769
	H295	H	1.062176	0.975297	0.007665
	H296	H	1.055140	0.973146	-0.000282
	O297	O	1.065168	1.020629	-0.018743
	H298	H	1.061864	1.021211	-0.019605
	H299	H	1.076836	1.018224	-0.021320
	O300	O	0.470296	0.513588	0.605504
	H301	H	0.458354	0.498239	0.603859
	H302	H	0.462855	0.528543	0.588374
	O303	O	0.380981	0.447141	0.507442
	H304	H	0.380556	0.432553	0.509258
	H305	H	0.374564	0.451851	0.493078
	O306	O	0.572518	0.502124	0.676902
	H307	H	0.568180	0.528158	0.672333
	H308	H	0.556768	0.502202	0.681087
	O309	O	0.487107	0.614764	0.445098
	H310	H	0.480817	0.618597	0.451601
	H311	H	0.498384	0.621175	0.448224
	O312	O	1.453495	1.479056	0.482683
	H313	H	1.442942	1.482064	0.477249
	H314	H	1.457589	1.477466	0.481014
	O315	O	0.932797	1.052657	-0.044212
	H316	H	0.935867	1.057345	-0.032109
	H317	H	0.922885	1.054638	-0.039898
	O318	O	0.295386	0.581706	0.370729
	H319	H	0.291276	0.589921	0.359936
	H320	H	0.288216	0.601642	0.361015
	O321	O	0.399357	0.564877	0.360609
	H322	H	0.393031	0.557710	0.374922
	H323	H	0.426014	0.568124	0.348358
	O324	O	-0.003890	1.016256	1.022319
	H325	H	-0.005370	1.017666	1.028697
	H326	H	-0.004579	1.020684	1.017527
	O327	O	-0.089408	1.025735	0.896655
	H328	H	-0.099317	1.033748	0.898665
	H329	H	-0.087396	1.040755	0.892584
	O330	O	0.017812	-0.031409	0.014117
	H331	H	0.020040	-0.046874	0.018815
	H332	H	0.009934	-0.030887	0.000113
	O333	O	0.413187	0.388836	0.625258
	H334	H	0.403105	0.381832	0.615471
	H335	H	0.415996	0.385306	0.624923
	O336	O	-0.074490	-0.026690	-0.046122
	H337	H	-0.065736	-0.028091	-0.048565
	H338	H	-0.085859	-0.028630	-0.045671
	O339	O	0.525355	0.448784	-0.507362
	H340	H	0.516111	0.455134	-0.515172
	H341	H	0.528256	0.435273	-0.518148
	O342	O	0.425097	0.595010	0.643771
	H343	H	0.434732	0.592228	0.659504
	H344	H	0.410310	0.582853	0.635835
	O345	O	-0.012178	0.965588	1.015517
	H346	H	-0.005150	0.964053	1.002593
	H347	H	-0.014595	0.963642	1.021152
	O348	O	0.612138	0.341795	0.494160
	H349	H	0.628999	0.346469	0.500024
	H350	H	0.597471	0.350001	0.487581
	O351	O	0.359993	0.434280	0.578919
	H352	H	0.363007	0.436635	0.564703
	H353	H	0.355634	0.432324	0.591949
	O354	O	-0.025286	0.969052	0.066988
	H355	H	-0.022026	0.967608	0.065538
	H356	H	-0.021268	0.966599	0.074484
	O357	O	0.408278	0.513730	0.571153
	H358	H	0.413356	0.512735	0.569868
	H359	H	0.399407	0.505450	0.564323
	O360	O	1.052158	0.075966	0.998659
	H361	H	1.051825	0.082813	0.991084
	H362	H	1.052878	0.078211	0.991262
	O363	O	0.514630	0.661199	0.404132
	H364	H	0.530530	0.653448	0.412528
	H365	H	0.514497	0.666231	0.404778
	O366	O	0.423615	0.483358	0.375376
	H367	H	0.425747	0.475912	0.373052
	H368	H	0.417480	0.475067	0.372831
	O369	O	0.989006	-0.047133	0.013615
	H370	H	0.989809	-0.047495	0.003629
	H371	H	0.993335	-0.045011	0.014549
	O372	O	0.615529	0.607365	0.590523
	H373	H	0.604519	0.587443	0.605799
	H374	H	0.597702	0.603478	0.594122
	O375	O	0.961980	0.122039	0.913178
	H376	H	0.959837	0.123111	0.908753
	H377	H	0.956679	0.128414	0.914768
	O378	O	0.644143	0.309414	0.331060
	H379	H	0.642239	0.320323	0.337381
	H380	H	0.653544	0.301778	0.344356
	O381	O	0.676015	0.503559	0.688222
	H382	H	0.660712	0.516286	0.670600
	H383	H	0.694679	0.503309	0.695918
	O384	O	1.671857	0.423957	0.308844
	H385	H	1.684003	0.428253	0.312339
	H386	H	1.678655	0.422888	0.304610
	O387	O	1.026437	0.014915	0.982843
	H388	H	1.024616	0.005220	0.994354
	H389	H	1.009429	0.022455	0.977097
	O390	O	0.954461	1.027233	-0.067988
	H391	H	0.966822	1.020848	-0.066946
	H392	H	0.965990	1.026732	-0.065595
	O393	O	0.458445	0.361714	0.345334
	H394	H	0.478460	0.360747	0.334831
	H395	H	0.459690	0.348600	0.342293
