data_Molecule from HDF5

_cell_length_a		16.071965
_cell_length_b		16.424742
_cell_length_c		16.224441
_cell_angle_alpha	89.978418
_cell_angle_beta	89.829145
_cell_angle_gamma	89.873460
_symmetry_space_group_name_H-M	'P 1'
_symmetry_Int_Tables_number		1

loop_
	_symmetry_equiv_pos_as_xyz
	x,y,z

loop_
	_atom_site_label
	_atom_site_type_symbol
	_atom_site_fract_x
	_atom_site_fract_y
	_atom_site_fract_z
	H0	H	0.399527	0.838868	0.712926
	H1	H	0.596707	0.164167	0.712487
	H2	H	0.598462	0.839630	0.279289
	H3	H	0.396307	0.162999	0.279148
	H4	H	0.712245	0.404963	0.832235
	H5	H	0.708457	0.597530	0.162461
	H6	H	0.286773	0.598928	0.831137
	H7	H	0.287615	0.406770	0.161446
	H8	H	0.834022	0.718175	0.394867
	H9	H	0.161724	0.717607	0.598122
	H10	H	0.834748	0.285152	0.599898
	H11	H	0.163034	0.285934	0.394848
	H12	H	0.833351	0.403283	0.711804
	H13	H	0.163798	0.599549	0.708108
	H14	H	0.832726	0.599838	0.284299
	H15	H	0.165220	0.405399	0.284877
	H16	H	0.397700	0.718357	0.832619
	H17	H	0.601096	0.720638	0.158807
	H18	H	0.602531	0.283879	0.833601
	H19	H	0.395463	0.284175	0.158157
	H20	H	0.713666	0.838307	0.397756
	H21	H	0.713429	0.164576	0.594517
	H22	H	0.283906	0.838030	0.595615
	H23	H	0.284658	0.164894	0.401187
	H24	H	0.897724	0.340212	0.215336
	H25	H	0.097157	0.665006	0.211689
	H26	H	0.100657	0.340757	0.779262
	H27	H	0.897061	0.663462	0.780930
	H28	H	0.211298	0.905737	0.331894
	H29	H	0.207728	0.095741	0.662839
	H30	H	0.783812	0.101016	0.331672
	H31	H	0.786347	0.905837	0.660634
	H32	H	0.334191	0.217987	0.894097
	H33	H	0.662870	0.215592	0.095996
	H34	H	0.333604	0.786803	0.096492
	H35	H	0.663005	0.786352	0.893667
	H36	H	0.332281	0.903169	0.209899
	H37	H	0.662865	0.099698	0.209574
	H38	H	0.331847	0.098485	0.784740
	H39	H	0.664220	0.905433	0.783883
	H40	H	0.895722	0.220980	0.333761
	H41	H	0.101325	0.219633	0.658857
	H42	H	0.102120	0.783852	0.333822
	H43	H	0.894495	0.784909	0.658450
	H44	H	0.212739	0.338995	0.900225
	H45	H	0.211357	0.665840	0.092427
	H46	H	0.782342	0.339064	0.097716
	H47	H	0.783862	0.664577	0.900890
	H48	H	0.407327	0.118890	0.601375
	H49	H	0.583414	0.888086	0.593643
	H50	H	0.594418	0.115600	0.410003
	H51	H	0.399505	0.886637	0.412514
	H52	H	0.587818	0.408393	0.113221
	H53	H	0.591161	0.594678	0.880340
	H54	H	0.404961	0.599712	0.114610
	H55	H	0.412202	0.411486	0.881580
	H56	H	0.114227	0.591908	0.409262
	H57	H	0.880666	0.590071	0.591252
	H58	H	0.113888	0.411435	0.582510
	H59	H	0.877771	0.403682	0.402575
	H60	H	0.117276	0.412316	0.592202
	H61	H	0.877330	0.599996	0.591669
	H62	H	0.116822	0.591694	0.399969
	H63	H	0.883374	0.409452	0.414417
	H64	H	0.404791	0.592132	0.112537
	H65	H	0.589155	0.595888	0.879898
	H66	H	0.587942	0.404974	0.113356
	H67	H	0.408458	0.402709	0.876806
	H68	H	0.593053	0.119153	0.396127
	H69	H	0.594261	0.888588	0.581949
	H70	H	0.410432	0.112797	0.584951
	H71	H	0.400542	0.881476	0.393446
	H72	H	0.911615	0.613840	0.087774
	H73	H	0.101672	0.382077	0.097753
	H74	H	0.091511	0.618267	0.898755
	H75	H	0.904731	0.386918	0.909511
	H76	H	0.090579	0.915184	0.611786
	H77	H	0.085771	0.092770	0.381319
	H78	H	0.899793	0.101345	0.616949
	H79	H	0.910263	0.909000	0.379576
	H80	H	0.616722	0.102611	0.911051
	H81	H	0.378632	0.096668	0.088050
	H82	H	0.613176	0.913326	0.081200
	H83	H	0.379685	0.895789	0.917415
	H84	H	0.616745	0.912782	0.093010
	H85	H	0.380602	0.095307	0.085363
	H86	H	0.612101	0.084780	0.907733
	H87	H	0.385875	0.924983	0.908759
	H88	H	0.904762	0.084353	0.610333
	H89	H	0.090418	0.100725	0.378716
	H90	H	0.082280	0.903805	0.612464
	H91	H	0.906672	0.907666	0.378706
	H92	H	0.088932	0.617003	0.903964
	H93	H	0.082220	0.387977	0.096318
	H94	H	0.896567	0.617808	0.087016
	H95	H	0.904625	0.384002	0.899496
	H96	H	0.393655	0.118965	0.588521
	H97	H	0.598461	0.882789	0.596329
	H98	H	0.581951	0.114169	0.402895
	H99	H	0.416244	0.889244	0.403135
	H100	H	0.589720	0.407233	0.113789
	H101	H	0.591525	0.596249	0.879094
	H102	H	0.411236	0.596217	0.111563
	H103	H	0.402175	0.411285	0.878160
	H104	H	0.118621	0.600658	0.404673
	H105	H	0.881013	0.595687	0.582979
	H106	H	0.117787	0.402951	0.587843
	H107	H	0.881541	0.416444	0.402802
	H108	H	0.904041	0.619041	0.100779
	H109	H	0.094563	0.388807	0.080271
	H110	H	0.095008	0.618528	0.904247
	H111	H	0.912709	0.388715	0.904084
	H112	H	0.095582	0.902680	0.616616
	H113	H	0.095132	0.092257	0.379325
	H114	H	0.917504	0.098160	0.609874
	H115	H	0.907605	0.910000	0.379536
	H116	H	0.620274	0.095806	0.893981
	H117	H	0.379670	0.093316	0.088231
	H118	H	0.617396	0.903468	0.085863
	H119	H	0.372873	0.904325	0.888158
	C120	C	0.375686	0.009474	0.619845
	C121	C	0.620407	0.993893	0.619084
	C122	C	0.620031	0.009458	0.373555
	C123	C	0.376184	0.993099	0.374743
	C124	C	0.619642	0.378746	0.005230
	C125	C	0.619647	0.624068	0.988154
	C126	C	0.377894	0.624209	0.004443
	C127	C	0.377612	0.379898	0.987295
	C128	C	0.007269	0.623476	0.375493
	C129	C	0.988971	0.623239	0.617305
	C130	C	0.007410	0.379869	0.617823
	C131	C	0.990077	0.380972	0.376525
	C132	C	0.875312	0.510054	0.120676
	C133	C	0.121047	0.494268	0.119183
	C134	C	0.121140	0.510604	0.874228
	C135	C	0.876810	0.493307	0.875397
	C136	C	0.120234	0.878478	0.505416
	C137	C	0.119346	0.123296	0.488553
	C138	C	0.877129	0.124085	0.504420
	C139	C	0.877844	0.880364	0.487087
	C140	C	0.507198	0.122831	0.875269
	C141	C	0.488896	0.123271	0.116778
	C142	C	0.506396	0.880933	0.116119
	C143	C	0.489296	0.880408	0.875515
	C144	C	0.378276	0.887328	0.675161
	C145	C	0.617664	0.115893	0.674469
	C146	C	0.618933	0.887886	0.317452
	C147	C	0.376788	0.114930	0.318439
	C148	C	0.675555	0.382890	0.881748
	C149	C	0.673038	0.620041	0.112428
	C150	C	0.323380	0.620149	0.880567
	C151	C	0.323541	0.384424	0.111563
	C152	C	0.883113	0.679498	0.376134
	C153	C	0.112890	0.678831	0.616461
	C154	C	0.883743	0.323693	0.618360
	C155	C	0.114177	0.324764	0.376248
	C156	C	0.882939	0.382626	0.673884
	C157	C	0.113707	0.620273	0.671721
	C158	C	0.882410	0.620760	0.320957
	C159	C	0.115238	0.384263	0.321732
	C160	C	0.378722	0.679680	0.881231
	C161	C	0.619371	0.681181	0.110560
	C162	C	0.620668	0.323028	0.882236
	C163	C	0.377287	0.323625	0.109954
	C164	C	0.676192	0.887432	0.376494
	C165	C	0.675337	0.116080	0.615549
	C166	C	0.321024	0.887005	0.616781
	C167	C	0.321193	0.115847	0.378895
	C168	C	0.877655	0.388172	0.176424
	C169	C	0.117639	0.616568	0.173782
	C170	C	0.119849	0.388873	0.818384
	C171	C	0.877720	0.615258	0.819500
	C172	C	0.174819	0.883485	0.381543
	C173	C	0.172439	0.118284	0.612687
	C174	C	0.821566	0.121906	0.380844
	C175	C	0.822347	0.883811	0.611011
	C176	C	0.382951	0.178917	0.875455
	C177	C	0.613357	0.178032	0.115620
	C178	C	0.382654	0.824822	0.115849
	C179	C	0.613793	0.825183	0.875535
	C180	C	0.381880	0.883060	0.171916
	C181	C	0.613253	0.120588	0.172489
	C182	C	0.381905	0.119789	0.821059
	C183	C	0.614520	0.884233	0.820972
	C184	C	0.877083	0.181461	0.382056
	C185	C	0.119003	0.179473	0.610908
	C186	C	0.120384	0.822879	0.382426
	C187	C	0.876681	0.824097	0.610043
	C188	C	0.176187	0.388159	0.878048
	C189	C	0.174486	0.617047	0.114414
	C190	C	0.820101	0.387749	0.118096
	C191	C	0.821406	0.615816	0.879257
	C192	C	0.397537	0.094758	0.598097
	C193	C	0.598425	0.908639	0.597258
	C194	C	0.596661	0.094366	0.396185
	C195	C	0.398776	0.908023	0.396557
	C196	C	0.595616	0.400450	0.091170
	C197	C	0.597365	0.602026	0.902124
	C198	C	0.400427	0.602378	0.090644
	C199	C	0.400763	0.402129	0.901088
	C200	C	0.094223	0.601286	0.397866
	C201	C	0.902005	0.601562	0.595219
	C202	C	0.093944	0.402235	0.594384
	C203	C	0.903405	0.403231	0.399755
	C204	C	0.897619	0.594968	0.098548
	C205	C	0.099339	0.408615	0.097832
	C206	C	0.098347	0.596007	0.895899
	C207	C	0.900384	0.408462	0.897850
	C208	C	0.096524	0.900422	0.591499
	C209	C	0.096919	0.101661	0.401965
	C210	C	0.900372	0.101357	0.589948
	C211	C	0.901250	0.902468	0.401532
	C212	C	0.593706	0.101000	0.897865
	C213	C	0.402140	0.101388	0.093966
	C214	C	0.593378	0.903418	0.093428
	C215	C	0.401952	0.902163	0.898159
	Zn216	Zn	0.497797	0.001499	0.749205
	Zn217	Zn	0.497378	0.001572	0.244034
	Zn218	Zn	0.747058	0.501235	-0.002548
	Zn219	Zn	0.250153	0.502074	-0.003567
	Zn220	Zn	-0.002181	0.751274	0.496184
	Zn221	Zn	-0.001136	0.252642	0.496489
	Zn222	Zn	-0.001497	0.502308	0.745150
	Zn223	Zn	-0.001261	0.502043	0.248906
	Zn224	Zn	0.498813	0.752933	-0.004507
	Zn225	Zn	0.498260	0.250802	-0.004523
	Zn226	Zn	0.749650	0.001736	0.495486
	Zn227	Zn	0.247381	0.001402	0.497245
	N228	N	0.411630	0.964521	0.677460
	N229	N	0.584388	0.038808	0.676923
	N230	N	0.584501	0.964616	0.315746
	N231	N	0.410200	0.037832	0.315755
	N232	N	0.674996	0.416869	0.959241
	N233	N	0.673186	0.585061	0.035368
	N234	N	0.322580	0.586464	0.958240
	N235	N	0.323658	0.418754	0.034253
	N236	N	0.961775	0.681258	0.409447
	N237	N	0.034381	0.680987	0.583319
	N238	N	0.962071	0.322169	0.584047
	N239	N	0.035428	0.322804	0.409596
	N240	N	0.960848	0.417106	0.673681
	N241	N	0.035525	0.586214	0.672359
	N242	N	0.960498	0.586644	0.320583
	N243	N	0.036983	0.418429	0.321350
	N244	N	0.411912	0.682082	0.959253
	N245	N	0.587166	0.684016	0.032184
	N246	N	0.586501	0.320448	0.960070
	N247	N	0.410262	0.320678	0.031483
	N248	N	0.677214	0.964341	0.410256
	N249	N	0.677161	0.039232	0.581878
	N250	N	0.319246	0.963745	0.583077
	N251	N	0.320725	0.039076	0.413189
	N252	N	0.911060	0.465233	0.178472
	N253	N	0.085233	0.539107	0.176809
	N254	N	0.086481	0.466145	0.815801
	N255	N	0.911297	0.538166	0.816867
	N256	N	0.174695	0.917267	0.459063
	N257	N	0.172726	0.084096	0.535279
	N258	N	0.821360	0.087002	0.457898
	N259	N	0.822952	0.918372	0.533859
	N260	N	0.461694	0.180938	0.908476
	N261	N	0.534996	0.180040	0.081827
	N262	N	0.461179	0.823739	0.081617
	N263	N	0.534987	0.822711	0.908551
	N264	N	0.459973	0.917147	0.172333
	N265	N	0.534930	0.087199	0.173332
	N266	N	0.460048	0.085566	0.820632
	N267	N	0.535962	0.917909	0.820916
	N268	N	0.910923	0.182885	0.459885
	N269	N	0.086823	0.182566	0.532489
	N270	N	0.087026	0.819905	0.460637
	N271	N	0.910712	0.821929	0.532134
	N272	N	0.176898	0.464753	0.912082
	N273	N	0.176814	0.539961	0.081283
	N274	N	0.818339	0.464483	0.084317
	N275	N	0.820779	0.538994	0.913324
	O276	O	-0.030646	0.029677	0.009336
	H277	H	-0.032091	0.035470	0.013338
	H278	H	-0.025496	0.034133	0.006051
	O279	O	0.391221	0.587072	0.453863
	H280	H	0.382094	0.587127	0.448242
	H281	H	0.382053	0.584730	0.443924
	O282	O	0.594166	0.417623	0.415421
	H283	H	0.591512	0.411653	0.431238
	H284	H	0.612250	0.412451	0.419687
	O285	O	-0.069596	0.914263	1.088880
	H286	H	-0.070767	0.906632	1.092301
	H287	H	-0.074787	0.905847	1.091805
	O288	O	0.477154	0.541403	0.408804
	H289	H	0.474655	0.536355	0.396236
	H290	H	0.489805	0.544459	0.418693
	O291	O	0.988927	1.094728	0.963893
	H292	H	0.990461	1.093654	0.967273
	H293	H	0.983922	1.094641	0.958473
	O294	O	0.926444	0.996320	0.948608
	H295	H	0.927011	0.991606	0.960868
	H296	H	0.912422	0.991532	0.943846
	O297	O	0.955304	0.001706	1.022691
	H298	H	0.946351	-0.006540	1.023747
	H299	H	0.953943	0.007435	1.027867
	O300	O	0.490571	0.566217	0.540014
	H301	H	0.505134	0.570927	0.541754
	H302	H	0.484767	0.571592	0.554452
	O303	O	1.057869	0.028584	-0.047635
	H304	H	1.055325	0.032393	-0.056327
	H305	H	1.051340	0.037172	-0.056980
	O306	O	-0.016909	0.937180	0.951277
	H307	H	-0.018876	0.941131	0.943679
	H308	H	-0.015268	0.941403	0.940829
	O309	O	0.460847	0.438536	0.436506
	H310	H	0.478408	0.434177	0.448882
	H311	H	0.460397	0.446318	0.432179
	O312	O	0.940472	0.113559	0.891307
	H313	H	0.937441	0.123072	0.883609
	H314	H	0.931901	0.107763	0.902058
	O315	O	0.523712	0.614963	0.526412
	H316	H	0.523796	0.611657	0.532218
	H317	H	0.510027	0.603392	0.525813
	O318	O	0.623971	0.405769	0.428626
	H319	H	0.617514	0.412230	0.450330
	H320	H	0.630331	0.412121	0.420929
	O321	O	0.993968	0.936377	1.012960
	H322	H	0.990003	0.933928	1.007106
	H323	H	1.007627	0.930338	1.014814
	O324	O	0.449581	0.511370	0.380846
	H325	H	0.454968	0.493778	0.375250
	H326	H	0.444256	0.509890	0.380033
	O327	O	0.431191	0.465256	0.500895
	H328	H	0.438070	0.456922	0.504846
	H329	H	0.425589	0.465910	0.504182
	O330	O	1.016452	0.023754	1.004242
	H331	H	1.016436	0.011964	1.015429
	H332	H	1.011803	0.028049	1.007831
	O333	O	1.048016	1.008377	0.011052
	H334	H	1.052894	1.009339	0.013362
	H335	H	1.048463	0.994771	0.016196
	O336	O	0.539529	0.420224	0.423034
	H337	H	0.527742	0.420939	0.427857
	H338	H	0.549863	0.417938	0.401276
	O339	O	0.541192	0.595076	0.517691
	H340	H	0.529891	0.600647	0.515153
	H341	H	0.537826	0.586229	0.500560
	O342	O	-0.084733	0.947099	0.107320
	H343	H	-0.091797	0.939347	0.103745
	H344	H	-0.075243	0.942680	0.119290
	O345	O	-0.012990	0.090457	0.080690
	H346	H	-0.008914	0.085168	0.083872
	H347	H	-0.014733	0.099175	0.071268
	O348	O	0.607243	0.492492	0.597316
	H349	H	0.602205	0.506149	0.609254
	H350	H	0.607226	0.500046	0.605019
	O351	O	0.541804	0.455477	0.546617
	H352	H	0.534242	0.459738	0.541078
	H353	H	0.547949	0.447038	0.542848
	O354	O	0.448391	0.441647	0.588021
	H355	H	0.438608	0.429747	0.591110
	H356	H	0.452884	0.452577	0.589501
	O357	O	0.461474	0.473199	0.436829
	H358	H	0.467795	0.477245	0.427719
	H359	H	0.470359	0.478609	0.426953
	O360	O	0.031792	0.004797	0.058179
	H361	H	0.038084	0.017384	0.050911
	H362	H	0.034211	0.008876	0.050263
	O363	O	0.484859	0.499900	0.504963
	H364	H	0.484175	0.498531	0.501589
	H365	H	0.479686	0.515127	0.504119
	O366	O	-0.009138	0.034520	1.000368
	H367	H	-0.006355	0.028864	1.009977
	H368	H	-0.016145	0.038849	1.004413
	O369	O	0.425690	0.471517	0.584410
	H370	H	0.426491	0.458283	0.567318
	H371	H	0.412347	0.466507	0.598041
