data_Molecule from HDF5

_cell_length_a		16.236280
_cell_length_b		16.330185
_cell_length_c		16.332307
_cell_angle_alpha	89.928547
_cell_angle_beta	89.953828
_cell_angle_gamma	90.124553
_symmetry_space_group_name_H-M	'P 1'
_symmetry_Int_Tables_number		1

loop_
	_symmetry_equiv_pos_as_xyz
	x,y,z

loop_
	_atom_site_label
	_atom_site_type_symbol
	_atom_site_fract_x
	_atom_site_fract_y
	_atom_site_fract_z
	H0	H	0.399174	0.836373	0.722461
	H1	H	0.597707	0.162574	0.722404
	H2	H	0.596155	0.836779	0.293308
	H3	H	0.399140	0.162388	0.290877
	H4	H	0.712728	0.401222	0.843904
	H5	H	0.712032	0.596205	0.170739
	H6	H	0.284953	0.596893	0.843299
	H7	H	0.284777	0.402088	0.170802
	H8	H	0.833661	0.712763	0.408943
	H9	H	0.162544	0.713630	0.604221
	H10	H	0.834693	0.284142	0.605756
	H11	H	0.162255	0.285487	0.407527
	H12	H	0.834474	0.399292	0.721885
	H13	H	0.161640	0.599623	0.721820
	H14	H	0.833256	0.595415	0.294004
	H15	H	0.161942	0.401811	0.292564
	H16	H	0.399408	0.714301	0.844465
	H17	H	0.596974	0.713575	0.170707
	H18	H	0.596553	0.285288	0.843740
	H19	H	0.399028	0.284172	0.170592
	H20	H	0.711549	0.835936	0.410061
	H21	H	0.712276	0.163142	0.604104
	H22	H	0.283774	0.835867	0.605017
	H23	H	0.284888	0.162817	0.409509
	H24	H	0.900047	0.335906	0.221220
	H25	H	0.098364	0.662163	0.222786
	H26	H	0.096533	0.336136	0.791454
	H27	H	0.899563	0.662321	0.791809
	H28	H	0.212451	0.902770	0.343572
	H29	H	0.212567	0.097327	0.671094
	H30	H	0.784616	0.096868	0.343711
	H31	H	0.784710	0.902358	0.670688
	H32	H	0.334244	0.212465	0.909567
	H33	H	0.662032	0.214333	0.105708
	H34	H	0.334463	0.784568	0.106333
	H35	H	0.662315	0.785685	0.909477
	H36	H	0.334387	0.901156	0.221431
	H37	H	0.662773	0.097663	0.220477
	H38	H	0.334799	0.096862	0.793010
	H39	H	0.662238	0.901757	0.793760
	H40	H	0.900933	0.213152	0.343250
	H41	H	0.097649	0.215286	0.670231
	H42	H	0.096504	0.785151	0.343814
	H43	H	0.899888	0.785703	0.670746
	H44	H	0.209232	0.335090	0.911923
	H45	H	0.212177	0.662962	0.103963
	H46	H	0.785074	0.335100	0.103331
	H47	H	0.785207	0.662542	0.910375
	H48	H	0.400283	0.116117	0.598205
	H49	H	0.594693	0.881672	0.602757
	H50	H	0.588615	0.115352	0.412544
	H51	H	0.410126	0.884295	0.412628
	H52	H	0.595805	0.404252	0.124514
	H53	H	0.586261	0.608786	0.887919
	H54	H	0.408679	0.593110	0.122401
	H55	H	0.404348	0.405998	0.891546
	H56	H	0.114685	0.592798	0.413740
	H57	H	0.883965	0.585691	0.596762
	H58	H	0.114606	0.414487	0.606780
	H59	H	0.882399	0.403849	0.420157
	H60	H	0.117971	0.397646	0.600180
	H61	H	0.878266	0.592631	0.608539
	H62	H	0.114663	0.593449	0.413530
	H63	H	0.881773	0.411241	0.410572
	H64	H	0.403890	0.595190	0.124764
	H65	H	0.606367	0.588801	0.888008
	H66	H	0.591200	0.410578	0.121418
	H67	H	0.405168	0.404319	0.890823
	H68	H	0.593417	0.115212	0.416643
	H69	H	0.586518	0.883909	0.603535
	H70	H	0.406643	0.116530	0.606014
	H71	H	0.402446	0.883883	0.417743
	H72	H	0.902305	0.617599	0.102902
	H73	H	0.087276	0.384126	0.100703
	H74	H	0.086638	0.616901	0.903636
	H75	H	0.904650	0.383838	0.917883
	H76	H	0.095084	0.910120	0.622931
	H77	H	0.086122	0.085286	0.395058
	H78	H	0.903542	0.106332	0.628015
	H79	H	0.899797	0.910508	0.390724
	H80	H	0.616121	0.092308	0.911938
	H81	H	0.382042	0.091873	0.099468
	H82	H	0.615606	0.912332	0.103654
	H83	H	0.381388	0.912353	0.909304
	H84	H	0.618420	0.900333	0.105061
	H85	H	0.382454	0.091269	0.099761
	H86	H	0.615987	0.095642	0.914065
	H87	H	0.378124	0.898862	0.911563
	H88	H	0.894576	0.082820	0.622949
	H89	H	0.087011	0.102544	0.390122
	H90	H	0.085426	0.906972	0.621625
	H91	H	0.910947	0.907429	0.393208
	H92	H	0.085061	0.611122	0.920587
	H93	H	0.093602	0.382825	0.098308
	H94	H	0.907841	0.615065	0.102854
	H95	H	0.902015	0.381385	0.909754
	H96	H	0.409943	0.112868	0.596764
	H97	H	0.591092	0.885258	0.596644
	H98	H	0.594538	0.117664	0.410746
	H99	H	0.402725	0.881371	0.409545
	H100	H	0.587675	0.403133	0.123798
	H101	H	0.580072	0.582357	0.897525
	H102	H	0.403271	0.589778	0.122559
	H103	H	0.403348	0.404671	0.890616
	H104	H	0.114770	0.593214	0.414612
	H105	H	0.880275	0.600392	0.595762
	H106	H	0.111291	0.410273	0.589493
	H107	H	0.877898	0.399383	0.409295
	H108	H	0.904596	0.614727	0.097648
	H109	H	0.092312	0.381943	0.105029
	H110	H	0.100819	0.617261	0.914528
	H111	H	0.910208	0.384214	0.911141
	H112	H	0.092005	0.900676	0.624802
	H113	H	0.101263	0.092232	0.389102
	H114	H	0.919031	0.088795	0.617672
	H115	H	0.903040	0.898974	0.388455
	H116	H	0.614852	0.091625	0.915569
	H117	H	0.381463	0.091726	0.099685
	H118	H	0.613657	0.904582	0.094647
	H119	H	0.383843	0.906788	0.922115
	C120	C	0.376940	0.007280	0.628795
	C121	C	0.619577	0.991335	0.628973
	C122	C	0.620268	0.008389	0.385302
	C123	C	0.376952	0.991374	0.385230
	C124	C	0.619614	0.377824	0.015345
	C125	C	0.620151	0.621574	0.998863
	C126	C	0.376775	0.620930	0.015357
	C127	C	0.376282	0.377003	0.999136
	C128	C	0.006067	0.620570	0.385818
	C129	C	0.989798	0.621017	0.628287
	C130	C	0.006102	0.378599	0.627735
	C131	C	0.989392	0.377506	0.385048
	C132	C	0.876826	0.507284	0.128690
	C133	C	0.119562	0.491083	0.128863
	C134	C	0.119389	0.507608	0.884801
	C135	C	0.876883	0.490887	0.885052
	C136	C	0.119644	0.877764	0.515289
	C137	C	0.120387	0.121769	0.499045
	C138	C	0.877283	0.120991	0.515230
	C139	C	0.876208	0.877557	0.498990
	C140	C	0.507287	0.120832	0.885513
	C141	C	0.490044	0.120580	0.128261
	C142	C	0.506962	0.877687	0.129058
	C143	C	0.489635	0.878329	0.886298
	C144	C	0.378786	0.885002	0.684317
	C145	C	0.617825	0.114108	0.684261
	C146	C	0.617177	0.885438	0.330825
	C147	C	0.379299	0.113842	0.329588
	C148	C	0.674569	0.380767	0.892431
	C149	C	0.674628	0.617518	0.121812
	C150	C	0.322095	0.617880	0.892356
	C151	C	0.321902	0.380717	0.122003
	C152	C	0.882583	0.674912	0.388306
	C153	C	0.113372	0.675939	0.625122
	C154	C	0.883161	0.322723	0.625776
	C155	C	0.113296	0.323369	0.387881
	C156	C	0.883104	0.379994	0.683498
	C157	C	0.112928	0.619010	0.683173
	C158	C	0.882507	0.616959	0.331066
	C159	C	0.113184	0.380773	0.330314
	C160	C	0.378716	0.676537	0.892986
	C161	C	0.617735	0.676224	0.121748
	C162	C	0.616816	0.323173	0.892335
	C163	C	0.378794	0.322043	0.121741
	C164	C	0.674369	0.885095	0.388955
	C165	C	0.674749	0.114269	0.625617
	C166	C	0.321599	0.884502	0.625926
	C167	C	0.322239	0.113955	0.388187
	C168	C	0.879450	0.384425	0.182960
	C169	C	0.117358	0.614080	0.183764
	C170	C	0.117001	0.384587	0.829693
	C171	C	0.878952	0.613542	0.829783
	C172	C	0.174610	0.881394	0.392390
	C173	C	0.175108	0.118486	0.622191
	C174	C	0.822587	0.117693	0.392210
	C175	C	0.821698	0.881044	0.621918
	C176	C	0.383298	0.174763	0.889035
	C177	C	0.613294	0.176223	0.126187
	C178	C	0.383416	0.822947	0.126478
	C179	C	0.613452	0.823621	0.888869
	C180	C	0.383463	0.880438	0.184008
	C181	C	0.613774	0.118154	0.182995
	C182	C	0.383639	0.117661	0.831077
	C183	C	0.613214	0.881167	0.831262
	C184	C	0.879860	0.175841	0.392256
	C185	C	0.118117	0.177143	0.621686
	C186	C	0.117531	0.822837	0.392523
	C187	C	0.879208	0.823056	0.621778
	C188	C	0.173561	0.384306	0.888836
	C189	C	0.174104	0.614309	0.124984
	C190	C	0.822066	0.384343	0.124812
	C191	C	0.822148	0.613891	0.888553
	C192	C	0.399070	0.093021	0.606805
	C193	C	0.597353	0.905763	0.607287
	C194	C	0.598577	0.094184	0.406984
	C195	C	0.398714	0.905385	0.406908
	C196	C	0.597965	0.399644	0.101063
	C197	C	0.597442	0.599701	0.913253
	C198	C	0.398814	0.599031	0.101154
	C199	C	0.397944	0.398660	0.913202
	C200	C	0.092288	0.599464	0.407548
	C201	C	0.903189	0.599324	0.606493
	C202	C	0.092308	0.400864	0.605369
	C203	C	0.903154	0.398744	0.406776
	C204	C	0.898802	0.593719	0.107521
	C205	C	0.097391	0.405254	0.107567
	C206	C	0.097431	0.592836	0.906533
	C207	C	0.899164	0.405119	0.906634
	C208	C	0.097377	0.899500	0.600991
	C209	C	0.098237	0.099776	0.413555
	C210	C	0.899219	0.099145	0.600825
	C211	C	0.898111	0.899200	0.412826
	C212	C	0.593462	0.099413	0.907471
	C213	C	0.404035	0.098157	0.106253
	C214	C	0.593683	0.899212	0.107257
	C215	C	0.403408	0.899603	0.908089
	Zn216	Zn	0.498390	-0.000398	0.757774
	Zn217	Zn	0.498698	-0.000522	0.256641
	Zn218	Zn	0.748619	0.499371	0.006633
	Zn219	Zn	0.248061	0.499309	0.007110
	Zn220	Zn	-0.002094	0.748937	0.506827
	Zn221	Zn	-0.001569	0.250003	0.507117
	Zn222	Zn	-0.001864	0.499308	0.755880
	Zn223	Zn	-0.002053	0.499221	0.257762
	Zn224	Zn	0.498059	0.749795	0.007580
	Zn225	Zn	0.498501	0.248708	0.007018
	Zn226	Zn	0.748287	-0.000543	0.507095
	Zn227	Zn	0.248491	-0.000658	0.507294
	N228	N	0.412355	0.962379	0.686199
	N229	N	0.584132	0.036833	0.686221
	N230	N	0.584174	0.962898	0.328479
	N231	N	0.412599	0.036484	0.327755
	N232	N	0.676484	0.413946	0.969711
	N233	N	0.676213	0.584204	0.044482
	N234	N	0.320883	0.583801	0.969399
	N235	N	0.319915	0.414074	0.044623
	N236	N	0.960294	0.677187	0.421599
	N237	N	0.035719	0.677105	0.591611
	N238	N	0.960518	0.322095	0.591602
	N239	N	0.035316	0.321092	0.421158
	N240	N	0.960692	0.413991	0.684714
	N241	N	0.035113	0.585586	0.685148
	N242	N	0.960252	0.583684	0.329533
	N243	N	0.035473	0.413908	0.328718
	N244	N	0.412248	0.678294	0.970384
	N245	N	0.584559	0.678768	0.044249
	N246	N	0.583057	0.321310	0.969619
	N247	N	0.411997	0.319939	0.044346
	N248	N	0.676338	0.962502	0.422123
	N249	N	0.675968	0.037069	0.591856
	N250	N	0.320278	0.961610	0.592117
	N251	N	0.320887	0.036840	0.422175
	N252	N	0.912534	0.461930	0.185491
	N253	N	0.084195	0.536365	0.186245
	N254	N	0.084192	0.462116	0.827075
	N255	N	0.912303	0.536205	0.827600
	N256	N	0.176068	0.914668	0.469705
	N257	N	0.176515	0.084657	0.545117
	N258	N	0.820854	0.084188	0.469538
	N259	N	0.819865	0.914121	0.544515
	N260	N	0.461214	0.177014	0.922160
	N261	N	0.535700	0.177633	0.092774
	N262	N	0.461235	0.821073	0.093234
	N263	N	0.535717	0.821606	0.922485
	N264	N	0.461354	0.913809	0.185625
	N265	N	0.535984	0.084173	0.184504
	N266	N	0.461389	0.084794	0.829092
	N267	N	0.535500	0.914463	0.829766
	N268	N	0.913126	0.177993	0.469633
	N269	N	0.084962	0.179476	0.544261
	N270	N	0.083816	0.820670	0.469815
	N271	N	0.912349	0.820942	0.544156
	N272	N	0.175216	0.461461	0.922488
	N273	N	0.175845	0.537030	0.091813
	N274	N	0.820519	0.461892	0.091710
	N275	N	0.820955	0.536702	0.922276
	O276	O	0.448894	0.506396	0.516034
	H277	H	0.441569	0.506706	0.518810
	H278	H	0.447316	0.514432	0.518772
	O279	O	0.441660	0.505168	0.504721
	H280	H	0.445555	0.497553	0.509452
	H281	H	0.443139	0.505046	0.498309
	O282	O	1.428662	0.521571	-0.488679
	H283	H	1.433732	0.519940	-0.487955
	H284	H	1.422422	0.517554	-0.495430
	O285	O	0.455492	0.510270	0.543643
	H286	H	0.457631	0.512071	0.539908
	H287	H	0.451138	0.513202	0.547899
