data_Molecule from HDF5

_cell_length_a		16.252949
_cell_length_b		16.330998
_cell_length_c		16.325073
_cell_angle_alpha	89.908282
_cell_angle_beta	90.001083
_cell_angle_gamma	89.951163
_symmetry_space_group_name_H-M	'P 1'
_symmetry_Int_Tables_number		1

loop_
	_symmetry_equiv_pos_as_xyz
	x,y,z

loop_
	_atom_site_label
	_atom_site_type_symbol
	_atom_site_fract_x
	_atom_site_fract_y
	_atom_site_fract_z
	H0	H	0.401796	0.836903	0.714835
	H1	H	0.598588	0.163195	0.715652
	H2	H	0.598905	0.836480	0.285444
	H3	H	0.401614	0.163112	0.284700
	H4	H	0.714095	0.402952	0.836593
	H5	H	0.713594	0.595834	0.164213
	H6	H	0.286264	0.597553	0.836284
	H7	H	0.286617	0.402296	0.164020
	H8	H	0.835445	0.714227	0.401974
	H9	H	0.164267	0.713385	0.597598
	H10	H	0.836294	0.286377	0.597897
	H11	H	0.163924	0.285685	0.402027
	H12	H	0.836092	0.402277	0.713985
	H13	H	0.164379	0.597693	0.713466
	H14	H	0.836229	0.597875	0.286049
	H15	H	0.164214	0.401717	0.285814
	H16	H	0.401168	0.715221	0.836642
	H17	H	0.598295	0.713784	0.163564
	H18	H	0.597733	0.285971	0.836613
	H19	H	0.402030	0.284464	0.163279
	H20	H	0.713490	0.836343	0.403654
	H21	H	0.712636	0.164052	0.597105
	H22	H	0.285239	0.836462	0.597889
	H23	H	0.286761	0.164205	0.402566
	H24	H	0.901551	0.337104	0.215520
	H25	H	0.098286	0.663073	0.215102
	H26	H	0.099709	0.337313	0.785397
	H27	H	0.901488	0.663678	0.784756
	H28	H	0.214170	0.901852	0.336077
	H29	H	0.213246	0.096692	0.663660
	H30	H	0.786587	0.096405	0.335899
	H31	H	0.786489	0.903086	0.663845
	H32	H	0.335973	0.213580	0.901803
	H33	H	0.664478	0.212630	0.097448
	H34	H	0.335625	0.786287	0.097869
	H35	H	0.664458	0.786834	0.903080
	H36	H	0.335981	0.901939	0.213915
	H37	H	0.664244	0.097924	0.214432
	H38	H	0.336183	0.098316	0.785649
	H39	H	0.664395	0.902566	0.786227
	H40	H	0.900881	0.215440	0.336338
	H41	H	0.099170	0.215023	0.662666
	H42	H	0.098662	0.785063	0.337021
	H43	H	0.901134	0.784601	0.663326
	H44	H	0.213667	0.336655	0.903847
	H45	H	0.213740	0.663637	0.098026
	H46	H	0.787459	0.336204	0.097449
	H47	H	0.786647	0.664084	0.902691
	H48	H	0.404577	0.118050	0.595829
	H49	H	0.595666	0.883373	0.591330
	H50	H	0.598856	0.119815	0.398827
	H51	H	0.402427	0.880162	0.398310
	H52	H	0.586912	0.404611	0.114944
	H53	H	0.591582	0.591369	0.885388
	H54	H	0.404148	0.588054	0.115237
	H55	H	0.408536	0.408112	0.884999
	H56	H	0.119225	0.599532	0.402966
	H57	H	0.883690	0.592755	0.593517
	H58	H	0.119841	0.406504	0.602419
	H59	H	0.885998	0.413644	0.408146
	H60	H	0.118296	0.398481	0.588117
	H61	H	0.882583	0.595079	0.594544
	H62	H	0.114743	0.594238	0.414390
	H63	H	0.881362	0.405578	0.402175
	H64	H	0.412685	0.593818	0.113701
	H65	H	0.591779	0.596488	0.884072
	H66	H	0.596904	0.400455	0.118764
	H67	H	0.407667	0.402884	0.884246
	H68	H	0.584568	0.114375	0.402794
	H69	H	0.593869	0.883223	0.597050
	H70	H	0.409575	0.115802	0.594119
	H71	H	0.415692	0.886555	0.406398
	H72	H	0.910922	0.616828	0.098901
	H73	H	0.094064	0.385383	0.087637
	H74	H	0.097621	0.617904	0.906845
	H75	H	0.902811	0.380386	0.899830
	H76	H	0.085507	0.909125	0.612621
	H77	H	0.096847	0.093027	0.382094
	H78	H	0.904705	0.094324	0.616827
	H79	H	0.901055	0.906799	0.382792
	H80	H	0.615291	0.085723	0.905466
	H81	H	0.385960	0.088313	0.089434
	H82	H	0.613862	0.908348	0.085799
	H83	H	0.379822	0.897256	0.904713
	H84	H	0.616830	0.912141	0.098378
	H85	H	0.382513	0.091394	0.099402
	H86	H	0.620123	0.097723	0.901072
	H87	H	0.386922	0.908928	0.917028
	H88	H	0.907101	0.092133	0.615405
	H89	H	0.090241	0.090487	0.385121
	H90	H	0.093883	0.898294	0.617981
	H91	H	0.909399	0.911359	0.385947
	H92	H	0.092131	0.617351	0.900883
	H93	H	0.098812	0.381037	0.097848
	H94	H	0.908921	0.614000	0.087133
	H95	H	0.915608	0.386241	0.904822
	H96	H	0.405221	0.115791	0.590052
	H97	H	0.590020	0.885417	0.592693
	H98	H	0.596041	0.115079	0.414047
	H99	H	0.401548	0.884551	0.414408
	H100	H	0.596253	0.411768	0.115370
	H101	H	0.596072	0.593405	0.883309
	H102	H	0.403796	0.598175	0.118145
	H103	H	0.403983	0.406859	0.882846
	H104	H	0.115904	0.586744	0.403704
	H105	H	0.882823	0.594483	0.591629
	H106	H	0.113328	0.414296	0.588862
	H107	H	0.883756	0.403699	0.412707
	H108	H	0.899614	0.618664	0.094009
	H109	H	0.087608	0.384351	0.097307
	H110	H	0.089872	0.615374	0.908343
	H111	H	0.903654	0.385189	0.914293
	H112	H	0.099139	0.911493	0.616726
	H113	H	0.091139	0.097287	0.383098
	H114	H	0.907563	0.095531	0.615519
	H115	H	0.909457	0.901957	0.383660
	H116	H	0.615378	0.095896	0.913575
	H117	H	0.382566	0.098599	0.091409
	H118	H	0.619248	0.899403	0.094519
	H119	H	0.383769	0.914589	0.899357
	C120	C	0.378101	0.008285	0.621590
	C121	C	0.621169	0.992036	0.621530
	C122	C	0.621180	0.008077	0.378009
	C123	C	0.378468	0.991910	0.378443
	C124	C	0.621701	0.378105	0.008344
	C125	C	0.621822	0.621555	0.992071
	C126	C	0.378030	0.622104	0.008228
	C127	C	0.378581	0.377912	0.991998
	C128	C	0.008277	0.621805	0.378614
	C129	C	0.991698	0.621806	0.621408
	C130	C	0.008549	0.378519	0.621201
	C131	C	0.991998	0.378990	0.379002
	C132	C	0.878513	0.508416	0.121589
	C133	C	0.121286	0.491890	0.121932
	C134	C	0.121804	0.508797	0.877900
	C135	C	0.878665	0.492069	0.878164
	C136	C	0.121181	0.878440	0.507792
	C137	C	0.121415	0.121644	0.491623
	C138	C	0.878099	0.122199	0.507819
	C139	C	0.878159	0.878227	0.491926
	C140	C	0.508239	0.121128	0.878685
	C141	C	0.492140	0.121047	0.121507
	C142	C	0.508415	0.878066	0.121685
	C143	C	0.491902	0.878575	0.878623
	C144	C	0.380603	0.885475	0.677188
	C145	C	0.618620	0.114813	0.676544
	C146	C	0.618684	0.884932	0.323756
	C147	C	0.381026	0.114654	0.323127
	C148	C	0.676366	0.381602	0.885303
	C149	C	0.676222	0.617537	0.115400
	C150	C	0.323622	0.618671	0.885130
	C151	C	0.324098	0.381335	0.115018
	C152	C	0.884651	0.676404	0.381334
	C153	C	0.115202	0.676132	0.618668
	C154	C	0.885088	0.324266	0.618316
	C155	C	0.115347	0.323795	0.381449
	C156	C	0.885277	0.381699	0.676037
	C157	C	0.115519	0.618421	0.675764
	C158	C	0.884543	0.618386	0.324101
	C159	C	0.115371	0.381494	0.324004
	C160	C	0.381001	0.676872	0.885250
	C161	C	0.619221	0.676322	0.114724
	C162	C	0.618859	0.323389	0.885349
	C163	C	0.381369	0.322846	0.114861
	C164	C	0.676010	0.884969	0.382043
	C165	C	0.675440	0.115348	0.617937
	C166	C	0.323429	0.885254	0.618723
	C167	C	0.323968	0.115228	0.381599
	C168	C	0.881209	0.385513	0.177103
	C169	C	0.118523	0.614685	0.176858
	C170	C	0.119160	0.385691	0.823803
	C171	C	0.880960	0.614849	0.822904
	C172	C	0.176369	0.881373	0.385030
	C173	C	0.176304	0.118301	0.614540
	C174	C	0.823743	0.118405	0.384735
	C175	C	0.823909	0.881740	0.615172
	C176	C	0.384836	0.175646	0.881664
	C177	C	0.615470	0.175321	0.118278
	C178	C	0.384748	0.823680	0.118667
	C179	C	0.615421	0.824099	0.881828
	C180	C	0.384807	0.881204	0.176054
	C181	C	0.615424	0.118264	0.176222
	C182	C	0.384977	0.118263	0.823912
	C183	C	0.615493	0.881487	0.823933
	C184	C	0.880671	0.177192	0.385092
	C185	C	0.119042	0.176570	0.614282
	C186	C	0.118952	0.823343	0.385338
	C187	C	0.881050	0.823235	0.614817
	C188	C	0.175912	0.385357	0.882516
	C189	C	0.175637	0.615061	0.118518
	C190	C	0.824469	0.385053	0.118364
	C191	C	0.823893	0.615194	0.881489
	C192	C	0.400040	0.094029	0.599800
	C193	C	0.599468	0.906134	0.600042
	C194	C	0.599430	0.094205	0.398954
	C195	C	0.400231	0.906053	0.399987
	C196	C	0.599919	0.399191	0.094247
	C197	C	0.599781	0.600081	0.906273
	C198	C	0.400391	0.599947	0.093601
	C199	C	0.400316	0.399549	0.906248
	C200	C	0.094210	0.599878	0.400525
	C201	C	0.905398	0.600456	0.599742
	C202	C	0.094999	0.399983	0.599420
	C203	C	0.905923	0.401077	0.401165
	C204	C	0.900226	0.594298	0.099895
	C205	C	0.099822	0.406031	0.100612
	C206	C	0.099828	0.594744	0.899157
	C207	C	0.900780	0.406125	0.899956
	C208	C	0.099174	0.900063	0.593631
	C209	C	0.099260	0.099936	0.405580
	C210	C	0.899933	0.100276	0.593800
	C211	C	0.899965	0.900223	0.406367
	C212	C	0.594794	0.099508	0.900327
	C213	C	0.405821	0.099147	0.099804
	C214	C	0.594533	0.900138	0.099496
	C215	C	0.405803	0.900551	0.900402
	Zn216	Zn	0.500068	0.000158	0.750252
	Zn217	Zn	0.500057	-0.000688	0.249552
	Zn218	Zn	0.750097	0.499898	0.000120
	Zn219	Zn	0.249822	0.500114	0.000148
	Zn220	Zn	0.000108	0.749627	0.500181
	Zn221	Zn	0.000263	0.250246	0.499736
	Zn222	Zn	0.000453	0.500317	0.749230
	Zn223	Zn	-0.000194	0.499902	0.250357
	Zn224	Zn	0.499898	0.750494	0.000108
	Zn225	Zn	0.500205	0.248968	0.000182
	Zn226	Zn	0.749742	0.000398	0.499992
	Zn227	Zn	0.249676	0.000040	0.499825
	N228	N	0.413823	0.962967	0.679162
	N229	N	0.585718	0.037310	0.678758
	N230	N	0.585615	0.962527	0.321076
	N231	N	0.414295	0.037233	0.321033
	N232	N	0.678427	0.414476	0.962681
	N233	N	0.677937	0.584291	0.037966
	N234	N	0.321823	0.585148	0.962406
	N235	N	0.322362	0.414952	0.037700
	N236	N	0.962283	0.678225	0.414917
	N237	N	0.037367	0.678213	0.585400
	N238	N	0.962798	0.322098	0.584891
	N239	N	0.037632	0.322119	0.414783
	N240	N	0.963049	0.414687	0.677870
	N241	N	0.037751	0.585307	0.677522
	N242	N	0.962416	0.585311	0.322052
	N243	N	0.037704	0.415071	0.322405
	N244	N	0.414174	0.679124	0.962819
	N245	N	0.585745	0.678599	0.037341
	N246	N	0.585154	0.321366	0.962751
	N247	N	0.414660	0.320611	0.037383
	N248	N	0.677339	0.962371	0.415409
	N249	N	0.677199	0.037925	0.584345
	N250	N	0.321738	0.962424	0.584848
	N251	N	0.322229	0.037970	0.415320
	N252	N	0.914098	0.463047	0.179204
	N253	N	0.085236	0.537200	0.178877
	N254	N	0.086370	0.463443	0.820734
	N255	N	0.914139	0.537205	0.820579
	N256	N	0.177845	0.914928	0.462327
	N257	N	0.177302	0.084564	0.537323
	N258	N	0.822054	0.084886	0.462155
	N259	N	0.821984	0.915326	0.537853
	N260	N	0.462575	0.177430	0.915020
	N261	N	0.537713	0.177138	0.085113
	N262	N	0.462587	0.821645	0.085678
	N263	N	0.537574	0.822221	0.915067
	N264	N	0.462594	0.914396	0.177866
	N265	N	0.537689	0.084970	0.178197
	N266	N	0.462774	0.085059	0.822102
	N267	N	0.537862	0.914898	0.822002
	N268	N	0.913611	0.179478	0.462708
	N269	N	0.085797	0.178783	0.536746
	N270	N	0.085540	0.821391	0.462671
	N271	N	0.913893	0.820916	0.537184
	N272	N	0.177487	0.462807	0.915458
	N273	N	0.177502	0.537754	0.085104
	N274	N	0.823059	0.462271	0.084374
	N275	N	0.822321	0.537836	0.915056
