data_Molecule from HDF5

_cell_length_a		16.602990
_cell_length_b		16.690102
_cell_length_c		16.658670
_cell_angle_alpha	90.030777
_cell_angle_beta	90.019495
_cell_angle_gamma	89.837588
_symmetry_space_group_name_H-M	'P 1'
_symmetry_Int_Tables_number		1

loop_
	_symmetry_equiv_pos_as_xyz
	x,y,z

loop_
	_atom_site_label
	_atom_site_type_symbol
	_atom_site_fract_x
	_atom_site_fract_y
	_atom_site_fract_z
	H0	H	0.382315	0.845537	0.722713
	H1	H	0.598472	0.150961	0.724468
	H2	H	0.597163	0.844093	0.276051
	H3	H	0.383168	0.151757	0.276544
	H4	H	0.711759	0.391325	0.844127
	H5	H	0.711131	0.603376	0.153227
	H6	H	0.266260	0.606480	0.844427
	H7	H	0.262847	0.389247	0.150248
	H8	H	0.835573	0.722175	0.390327
	H9	H	0.142903	0.721578	0.606875
	H10	H	0.834839	0.276068	0.605366
	H11	H	0.145258	0.277717	0.394674
	H12	H	0.834402	0.393482	0.719644
	H13	H	0.142935	0.605489	0.721845
	H14	H	0.834974	0.604757	0.276385
	H15	H	0.144730	0.393159	0.278130
	H16	H	0.381653	0.721830	0.844336
	H17	H	0.595533	0.719886	0.153660
	H18	H	0.597334	0.273581	0.845454
	H19	H	0.376638	0.270923	0.148586
	H20	H	0.712694	0.844155	0.392422
	H21	H	0.712518	0.152582	0.606827
	H22	H	0.265356	0.845632	0.608227
	H23	H	0.266814	0.152495	0.393103
	H24	H	0.885722	0.342577	0.217343
	H25	H	0.096856	0.651632	0.222324
	H26	H	0.095484	0.344075	0.776511
	H27	H	0.883022	0.653232	0.776251
	H28	H	0.213066	0.889973	0.344892
	H29	H	0.207635	0.099443	0.654387
	H30	H	0.770259	0.101043	0.342864
	H31	H	0.766642	0.891958	0.653314
	H32	H	0.335713	0.221192	0.891276
	H33	H	0.642437	0.223037	0.107872
	H34	H	0.333488	0.779096	0.102929
	H35	H	0.644652	0.776195	0.892761
	H36	H	0.333376	0.895579	0.218104
	H37	H	0.643208	0.107622	0.223008
	H38	H	0.335503	0.105624	0.776149
	H39	H	0.644009	0.890820	0.776159
	H40	H	0.883232	0.219831	0.343900
	H41	H	0.091662	0.216464	0.654457
	H42	H	0.097217	0.774255	0.344668
	H43	H	0.881909	0.774900	0.652996
	H44	H	0.212723	0.344820	0.891896
	H45	H	0.212117	0.652536	0.105431
	H46	H	0.770981	0.342470	0.099626
	H47	H	0.766833	0.653276	0.892331
	H48	H	0.399173	0.109570	0.588108
	H49	H	0.572698	0.887327	0.595071
	H50	H	0.577258	0.109008	0.412256
	H51	H	0.400932	0.886459	0.410644
	H52	H	0.575290	0.412038	0.107631
	H53	H	0.577009	0.593771	0.884882
	H54	H	0.404127	0.583983	0.106753
	H55	H	0.404814	0.408586	0.888221
	H56	H	0.099778	0.576638	0.403695
	H57	H	0.877549	0.586980	0.587337
	H58	H	0.100901	0.413381	0.589602
	H59	H	0.874339	0.403286	0.406419
	H60	H	0.103697	0.403754	0.591925
	H61	H	0.879257	0.587165	0.581780
	H62	H	0.105232	0.595223	0.407010
	H63	H	0.879041	0.409101	0.412212
	H64	H	0.403947	0.592555	0.109405
	H65	H	0.583336	0.586056	0.886131
	H66	H	0.575784	0.408037	0.109000
	H67	H	0.399574	0.413026	0.887293
	H68	H	0.579693	0.109570	0.409857
	H69	H	0.572451	0.892370	0.579041
	H70	H	0.401743	0.108365	0.586850
	H71	H	0.401190	0.887415	0.408768
	H72	H	0.900556	0.611186	0.094095
	H73	H	0.071702	0.390196	0.087800
	H74	H	0.075659	0.609753	0.904902
	H75	H	0.897787	0.387673	0.912826
	H76	H	0.076187	0.916198	0.606970
	H77	H	0.079487	0.088647	0.384683
	H78	H	0.903919	0.085074	0.607237
	H79	H	0.902390	0.902625	0.385989
	H80	H	0.600290	0.085969	0.913985
	H81	H	0.374774	0.094251	0.088412
	H82	H	0.600708	0.904709	0.080254
	H83	H	0.378723	0.905685	0.914908
	H84	H	0.599039	0.916743	0.088033
	H85	H	0.383556	0.084003	0.076664
	H86	H	0.599452	0.083753	0.912249
	H87	H	0.380452	0.916388	0.911449
	H88	H	0.901793	0.092402	0.611832
	H89	H	0.078102	0.086457	0.386706
	H90	H	0.070854	0.906430	0.607419
	H91	H	0.895398	0.913345	0.387325
	H92	H	0.072648	0.606863	0.912942
	H93	H	0.078609	0.389200	0.081004
	H94	H	0.904936	0.606734	0.085140
	H95	H	0.897964	0.384971	0.903731
	H96	H	0.399471	0.108163	0.585030
	H97	H	0.586328	0.885945	0.585495
	H98	H	0.577045	0.108018	0.408972
	H99	H	0.402178	0.887197	0.410260
	H100	H	0.579106	0.411166	0.109227
	H101	H	0.574292	0.585335	0.890408
	H102	H	0.396839	0.586799	0.110586
	H103	H	0.405213	0.414838	0.891410
	H104	H	0.096957	0.584717	0.421371
	H105	H	0.880155	0.582980	0.584660
	H106	H	0.099796	0.405975	0.582806
	H107	H	0.876564	0.412040	0.403474
	H108	H	0.894819	0.610875	0.084861
	H109	H	0.079958	0.386141	0.089946
	H110	H	0.080633	0.610239	0.912728
	H111	H	0.905570	0.389392	0.907484
	H112	H	0.080923	0.907355	0.611892
	H113	H	0.076458	0.089565	0.386331
	H114	H	0.895988	0.085997	0.611569
	H115	H	0.907767	0.912887	0.391606
	H116	H	0.600485	0.085901	0.911346
	H117	H	0.379242	0.077299	0.093557
	H118	H	0.604916	0.904863	0.094270
	H119	H	0.375333	0.908832	0.904399
	C120	C	0.367496	0.007059	0.620438
	C121	C	0.610954	0.990089	0.620174
	C122	C	0.611280	0.007051	0.376924
	C123	C	0.368476	0.989332	0.377936
	C124	C	0.610030	0.377112	0.006536
	C125	C	0.610860	0.620179	0.989624
	C126	C	0.367815	0.620903	0.007180
	C127	C	0.368320	0.377851	0.989914
	C128	C	-0.001470	0.619269	0.376991
	C129	C	0.980605	0.619055	0.618938
	C130	C	-0.001852	0.376509	0.619938
	C131	C	0.980183	0.376557	0.376593
	C132	C	0.868471	0.506592	0.119255
	C133	C	0.110529	0.490184	0.119472
	C134	C	0.110333	0.507140	0.877175
	C135	C	0.867653	0.489996	0.876126
	C136	C	0.109924	0.876562	0.506983
	C137	C	0.109543	0.118882	0.489540
	C138	C	0.868034	0.120043	0.507648
	C139	C	0.868520	0.876881	0.490484
	C140	C	0.498335	0.118984	0.878102
	C141	C	0.480662	0.119571	0.119991
	C142	C	0.498149	0.877639	0.119340
	C143	C	0.480693	0.877135	0.877357
	C144	C	0.364313	0.891897	0.682288
	C145	C	0.615703	0.105050	0.683092
	C146	C	0.615181	0.890942	0.315920
	C147	C	0.365226	0.105656	0.317381
	C148	C	0.671405	0.373410	0.890639
	C149	C	0.671050	0.621988	0.106563
	C150	C	0.306512	0.624237	0.890976
	C151	C	0.304393	0.372382	0.104418
	C152	C	0.882196	0.681368	0.372780
	C153	C	0.096596	0.680783	0.623834
	C154	C	0.881312	0.316771	0.622881
	C155	C	0.098017	0.317576	0.375799
	C156	C	0.881234	0.374782	0.679887
	C157	C	0.096616	0.623054	0.680967
	C158	C	0.881815	0.622988	0.316094
	C159	C	0.097997	0.375089	0.317951
	C160	C	0.364188	0.681634	0.891025
	C161	C	0.613637	0.680123	0.106637
	C162	C	0.614489	0.315040	0.891279
	C163	C	0.360861	0.313418	0.103559
	C164	C	0.672555	0.890787	0.374119
	C165	C	0.672583	0.105824	0.624621
	C166	C	0.306133	0.891683	0.625118
	C167	C	0.307370	0.105809	0.375237
	C168	C	0.867371	0.389365	0.177560
	C169	C	0.114493	0.605513	0.181488
	C170	C	0.113655	0.390779	0.816653
	C171	C	0.864829	0.606687	0.816260
	C172	C	0.172165	0.872641	0.391182
	C173	C	0.167930	0.118648	0.607536
	C174	C	0.809178	0.120856	0.389991
	C175	C	0.807317	0.874117	0.606752
	C176	C	0.382238	0.180813	0.873697
	C177	C	0.596179	0.182108	0.124862
	C178	C	0.380504	0.818840	0.121283
	C179	C	0.597715	0.816455	0.874677
	C180	C	0.380448	0.876659	0.178749
	C181	C	0.596555	0.124423	0.182166
	C182	C	0.382308	0.123008	0.816585
	C183	C	0.597487	0.873654	0.816627
	C184	C	0.865325	0.179664	0.390601
	C185	C	0.110292	0.176604	0.607654
	C186	C	0.114693	0.814955	0.391118
	C187	C	0.864516	0.815631	0.606429
	C188	C	0.171669	0.390974	0.874199
	C189	C	0.171463	0.606155	0.123044
	C190	C	0.810220	0.389192	0.119126
	C191	C	0.806847	0.606545	0.873920
	C192	C	0.393087	0.087866	0.594005
	C193	C	0.584695	0.909605	0.593968
	C194	C	0.585128	0.087973	0.402835
	C195	C	0.394220	0.908368	0.402926
	C196	C	0.583936	0.403163	0.087568
	C197	C	0.585513	0.595510	0.908381
	C198	C	0.394098	0.594938	0.087953
	C199	C	0.395652	0.404480	0.909837
	C200	C	0.079595	0.592911	0.403066
	C201	C	0.899945	0.593013	0.592271
	C202	C	0.080268	0.400694	0.595171
	C203	C	0.898130	0.401081	0.400534
	C204	C	0.892993	0.588371	0.094922
	C205	C	0.084445	0.409439	0.093401
	C206	C	0.083928	0.587922	0.902927
	C207	C	0.893187	0.408429	0.900935
	C208	C	0.083640	0.902700	0.587792
	C209	C	0.084984	0.095046	0.407401
	C210	C	0.893369	0.095001	0.588918
	C211	C	0.894493	0.902231	0.409352
	C212	C	0.579060	0.092748	0.904982
	C213	C	0.400064	0.092906	0.093649
	C214	C	0.580286	0.901856	0.094580
	C215	C	0.399434	0.902786	0.902862
	Zn216	Zn	0.489696	-0.001282	0.748805
	Zn217	Zn	0.489826	-0.001745	0.248255
	Zn218	Zn	0.739211	0.498126	-0.001738
	Zn219	Zn	0.239529	0.499101	-0.001876
	Zn220	Zn	-0.010381	0.747373	0.498360
	Zn221	Zn	-0.011020	0.248376	0.498512
	Zn222	Zn	-0.010704	0.498643	0.747718
	Zn223	Zn	-0.010663	0.498231	0.248576
	Zn224	Zn	0.489142	0.748798	-0.001256
	Zn225	Zn	0.489382	0.248243	-0.001385
	Zn226	Zn	0.739644	-0.000984	0.498920
	Zn227	Zn	0.238929	-0.002561	0.498718
	N228	N	0.401855	0.964959	0.679580
	N229	N	0.578131	0.031973	0.680637
	N230	N	0.577865	0.964450	0.317298
	N231	N	0.402488	0.032209	0.318692
	N232	N	0.668630	0.411659	0.963460
	N233	N	0.669749	0.585445	0.032720
	N234	N	0.308477	0.587051	0.964479
	N235	N	0.309026	0.411889	0.032646
	N236	N	0.956052	0.679456	0.409884
	N237	N	0.023434	0.678463	0.585695
	N238	N	0.955247	0.317666	0.586230
	N239	N	0.023759	0.318244	0.411693
	N240	N	0.955152	0.411292	0.678337
	N241	N	0.023420	0.585230	0.678083
	N242	N	0.955194	0.585215	0.318361
	N243	N	0.023559	0.410893	0.318024
	N244	N	0.401631	0.679690	0.964341
	N245	N	0.576957	0.679366	0.032907
	N246	N	0.577004	0.317173	0.964547
	N247	N	0.400507	0.316960	0.031548
	N248	N	0.670547	0.964353	0.411185
	N249	N	0.670005	0.033151	0.586219
	N250	N	0.308128	0.964452	0.587063
	N251	N	0.309075	0.032344	0.412119
	N252	N	0.902592	0.463716	0.178037
	N253	N	0.077270	0.532346	0.179334
	N254	N	0.076157	0.464113	0.818306
	N255	N	0.901880	0.533132	0.817463
	N256	N	0.169441	0.910278	0.464325
	N257	N	0.167922	0.083750	0.532808
	N258	N	0.810511	0.084449	0.463851
	N259	N	0.809497	0.911612	0.533423
	N260	N	0.455568	0.178651	0.911214
	N261	N	0.522899	0.179413	0.086863
	N262	N	0.454914	0.819077	0.085304
	N263	N	0.524110	0.818309	0.911644
	N264	N	0.454747	0.912421	0.177842
	N265	N	0.523605	0.086125	0.179518
	N266	N	0.455599	0.085232	0.818928
	N267	N	0.523573	0.910798	0.817941
	N268	N	0.900924	0.179582	0.464985
	N269	N	0.075301	0.177411	0.532901
	N270	N	0.076617	0.817255	0.464170
	N271	N	0.901626	0.817066	0.532872
	N272	N	0.169991	0.464555	0.910907
	N273	N	0.169374	0.533053	0.085229
	N274	N	0.810662	0.463342	0.083614
	N275	N	0.808055	0.532632	0.910190
	O276	O	-0.243304	1.231165	0.228471
	H277	H	-0.248887	1.219312	0.235616
	H278	H	-0.258704	1.245746	0.233966
	O279	O	0.268802	0.725686	0.478745
	H280	H	0.240495	0.750531	0.465095
	H281	H	0.274006	0.714367	0.443442
	O282	O	1.200243	-0.223321	0.971871
	H283	H	1.204595	-0.230120	0.949664
	H284	H	1.215353	-0.232212	0.951998
	O285	O	0.692654	0.376727	0.574049
	H286	H	0.689663	0.387199	0.593296
	H287	H	0.677819	0.395609	0.563937
	O288	O	-0.117112	0.022147	-0.019796
	H289	H	-0.129506	0.011411	-0.007916
	H290	H	-0.123627	0.014648	-0.018161
	O291	O	0.280708	0.714991	0.284275
	H292	H	0.250468	0.740741	0.251692
	H293	H	0.289300	0.681409	0.283421
	O294	O	1.708768	0.723514	0.530962
	H295	H	1.730918	0.747350	0.533687
	H296	H	1.707700	0.722159	0.555143
	O297	O	0.452849	0.734910	0.545497
	H298	H	0.430194	0.733234	0.548551
	H299	H	0.445471	0.727402	0.539908
	O300	O	0.015657	0.036725	1.006747
	H301	H	0.006337	0.029829	1.011657
	H302	H	0.019694	0.032824	1.034650
	O303	O	0.694031	0.703589	0.704770
	H304	H	0.690774	0.692718	0.707618
	H305	H	0.687471	0.684952	0.707541
	O306	O	0.391475	0.264186	0.458556
	H307	H	0.391247	0.263896	0.459984
	H308	H	0.411730	0.257037	0.462637
	O309	O	0.518040	0.721686	0.720855
	H310	H	0.526143	0.726065	0.727001
	H311	H	0.512895	0.744647	0.725226
	O312	O	0.969206	0.943064	-0.195842
	H313	H	0.941014	0.950502	-0.198152
	H314	H	0.960706	0.943428	-0.198475
	O315	O	0.704034	0.531953	0.714167
	H316	H	0.703381	0.527352	0.723400
	H317	H	0.694503	0.517039	0.735111
	O318	O	0.364436	0.389586	0.513467
	H319	H	0.368618	0.406784	0.518979
	H320	H	0.345115	0.375497	0.524701
	O321	O	0.200125	1.210307	1.028422
	H322	H	0.219220	1.218255	1.024623
	H323	H	0.196203	1.194952	1.027998
	O324	O	1.074657	1.036446	0.220684
	H325	H	1.096841	1.051028	0.231386
	H326	H	1.065862	1.034218	0.212923
	O327	O	0.471240	-0.286474	0.285425
	H328	H	0.454275	-0.276378	0.273605
	H329	H	0.468236	-0.266092	0.290623
	O330	O	0.508698	0.539431	0.271006
	H331	H	0.513545	0.558586	0.269517
	H332	H	0.502183	0.527591	0.280195
	O333	O	0.651384	0.325938	0.339361
	H334	H	0.653318	0.327059	0.372960
	H335	H	0.651226	0.359847	0.338145
	O336	O	0.768974	-0.223181	0.029264
	H337	H	0.759246	-0.228235	0.043239
	H338	H	0.751567	-0.228290	0.035350
	O339	O	1.167233	0.094614	0.978355
	H340	H	1.169845	0.079014	0.974798
	H341	H	1.145585	0.077864	0.982084
	O342	O	0.485097	-0.627620	0.468632
	H343	H	0.505243	-0.627337	0.469026
	H344	H	0.492804	-0.620675	0.473664
	O345	O	0.211156	0.975993	1.127926
	H346	H	0.208710	0.990092	1.128327
	H347	H	0.218933	0.977927	1.143404
	O348	O	0.391751	0.581092	0.672135
	H349	H	0.379987	0.581492	0.676729
	H350	H	0.392820	0.594242	0.687815
	O351	O	0.276820	0.493896	0.386282
	H352	H	0.273224	0.492419	0.394126
	H353	H	0.279454	0.493300	0.384452
	O354	O	-0.228286	-0.078921	0.912390
	H355	H	-0.220609	-0.068292	0.905843
	H356	H	-0.223239	-0.085858	0.913487
	O357	O	0.174036	0.811289	0.180212
	H358	H	0.150288	0.828937	0.173143
	H359	H	0.163093	0.828905	0.156663
	O360	O	0.519232	0.303004	0.306029
	H361	H	0.530087	0.300930	0.298845
	H362	H	0.543494	0.299183	0.311645
	O363	O	0.018705	0.221172	0.220224
	H364	H	0.036433	0.227573	0.228401
	H365	H	0.038953	0.230780	0.235553
	O366	O	0.543304	0.367533	0.599805
	H367	H	0.531577	0.359069	0.600458
	H368	H	0.533031	0.375408	0.601290
	O369	O	0.795295	0.185515	-0.019016
	H370	H	0.787139	0.188480	-0.015157
	H371	H	0.806172	0.189213	-0.003595
	O372	O	1.005168	0.784500	-0.204186
	H373	H	0.998533	0.783941	-0.197964
	H374	H	1.011907	0.769473	-0.211426
	O375	O	1.170333	0.187702	-0.171612
	H376	H	1.149549	0.180665	-0.161649
	H377	H	1.173818	0.171443	-0.154138
	O378	O	0.686631	0.658437	0.329352
	H379	H	0.686311	0.637012	0.350531
	H380	H	0.681528	0.659247	0.322335
	O381	O	0.711075	0.270649	0.475588
	H382	H	0.729973	0.260839	0.475801
	H383	H	0.723439	0.285100	0.486808
	O384	O	0.895519	-0.169072	0.856205
	H385	H	0.901984	-0.171338	0.850807
	H386	H	0.907257	-0.189224	0.872334
	O387	O	0.902085	0.871451	-0.053475
	H388	H	0.901677	0.870279	-0.036897
	H389	H	0.892420	0.882572	-0.050181
	O390	O	0.194052	0.202447	0.210765
	H391	H	0.205425	0.206912	0.184982
	H392	H	0.210833	0.219696	0.226364
	O393	O	0.431807	0.504837	0.641904
	H394	H	0.431413	0.511936	0.648087
	H395	H	0.416214	0.512402	0.637937
	O396	O	-0.032551	0.781347	1.210671
	H397	H	-0.035455	0.784174	1.221801
	H398	H	-0.022748	0.776675	1.220498
	O399	O	-0.204386	-0.202654	1.198136
	H400	H	-0.175638	-0.203611	1.183750
	H401	H	-0.209993	-0.212031	1.220923
	O402	O	0.321742	0.600423	0.489546
	H403	H	0.314892	0.587177	0.481115
	H404	H	0.326553	0.607579	0.478913
	O405	O	0.937013	-0.042168	1.025283
	H406	H	0.936598	-0.041415	1.017211
	H407	H	0.924780	-0.034135	1.019495
	O408	O	0.030915	-0.062863	0.201294
	H409	H	0.033532	-0.050078	0.196674
	H410	H	0.031378	-0.039658	0.204231
	O411	O	-0.036468	1.214221	0.997095
	H412	H	-0.019686	1.216754	1.012551
	H413	H	-0.048308	1.217066	1.008543
	O414	O	1.584218	0.435416	1.514582
	H415	H	1.585264	0.445252	1.511596
	H416	H	1.588012	0.441967	1.517529
	O417	O	0.447797	0.405607	0.255094
	H418	H	0.459082	0.387901	0.248653
	H419	H	0.461972	0.411091	0.251111
	O420	O	-0.233782	-0.037109	0.216973
	H421	H	-0.249694	-0.048606	0.229907
	H422	H	-0.240950	-0.057877	0.218125
	O423	O	0.049531	0.001458	1.060520
	H424	H	0.035265	-0.002215	1.069539
	H425	H	0.047717	-0.003207	1.051129
	O426	O	0.284968	0.532355	0.300809
	H427	H	0.283047	0.521497	0.285799
	H428	H	0.291753	0.520102	0.297768
	O429	O	1.308798	1.306824	1.306210
	H430	H	1.334697	1.325038	1.309534
	H431	H	1.323397	1.314641	1.337314
	O432	O	0.536081	0.456729	0.727863
	H433	H	0.536036	0.454666	0.724276
	H434	H	0.510442	0.453590	0.732392
	O435	O	0.454486	0.560144	0.467584
	H436	H	0.456063	0.556855	0.472868
	H437	H	0.455363	0.571519	0.463613
	O438	O	-0.111722	-0.003736	0.039881
	H439	H	-0.103446	0.018406	0.043653
	H440	H	-0.127820	-0.002275	0.048280
	O441	O	0.707260	0.460660	0.272389
	H442	H	0.689719	0.476556	0.274254
	H443	H	0.732368	0.467290	0.253776
	O444	O	0.466911	0.375982	0.595442
	H445	H	0.458755	0.372448	0.599168
	H446	H	0.463659	0.377687	0.596821
	O447	O	-0.045654	1.204546	0.782725
	H448	H	-0.062097	1.219032	0.770942
	H449	H	-0.038526	1.207692	0.786517
	O450	O	0.096057	1.039668	0.854903
	H451	H	0.091227	1.029324	0.854008
	H452	H	0.098017	1.036196	0.860490
	O453	O	0.710747	0.289528	0.710510
	H454	H	0.702384	0.291858	0.722047
	H455	H	0.700553	0.294276	0.704337
	O456	O	-0.231421	0.019755	0.778249
	H457	H	-0.246392	0.019417	0.773637
	H458	H	-0.238855	0.037933	0.768845
	O459	O	1.204201	0.967260	-0.211106
	H460	H	1.206277	0.977338	-0.209373
	H461	H	1.205560	0.973430	-0.218679
	O462	O	0.575080	0.723394	0.412738
	H463	H	0.573108	0.727072	0.418937
	H464	H	0.566974	0.717154	0.428921
	O465	O	1.267594	0.271319	-0.282201
	H466	H	1.248734	0.271398	-0.268936
	H467	H	1.262712	0.273492	-0.297012
	O468	O	0.261910	0.341253	0.523309
	H469	H	0.273340	0.341966	0.507605
	H470	H	0.258790	0.328019	0.513595
	O471	O	0.270186	0.473884	0.721258
	H472	H	0.246081	0.467104	0.748255
	H473	H	0.273235	0.473576	0.703482
	O474	O	0.298839	0.690110	0.687946
	H475	H	0.285657	0.704470	0.682301
	H476	H	0.296211	0.679048	0.673594
	O477	O	0.425991	0.327068	1.690107
	H478	H	0.416454	0.296823	1.703288
	H479	H	0.402077	0.337771	1.680934
	O480	O	0.667263	0.551194	0.380282
	H481	H	0.662762	0.554793	0.396565
	H482	H	0.658098	0.577829	0.385543
	O483	O	0.189208	0.794475	0.791989
	H484	H	0.188604	0.844173	0.785234
	H485	H	0.169559	0.783161	0.792462
	O486	O	0.881142	0.132617	1.192543
	H487	H	0.864300	0.143223	1.199126
	H488	H	0.895835	0.128065	1.203523
	O489	O	1.003843	1.145160	-0.070928
	H490	H	0.992562	1.150943	-0.074504
	H491	H	0.995467	1.156553	-0.081606
	O492	O	-0.212426	0.190473	-0.171441
	H493	H	-0.224962	0.181315	-0.167127
	H494	H	-0.197136	0.195476	-0.147419
	O495	O	0.018691	0.778906	1.058321
	H496	H	0.032962	0.774150	1.059462
	H497	H	0.020518	0.784210	1.057159
	O498	O	1.069550	0.982817	0.988283
	H499	H	1.066784	0.979466	0.992282
	H500	H	1.061825	0.995311	0.983423
	O501	O	0.641541	0.553982	0.550752
	H502	H	0.654281	0.558703	0.562147
	H503	H	0.619713	0.559455	0.558662
