data_Molecule from HDF5

_cell_length_a		16.205888
_cell_length_b		16.328464
_cell_length_c		16.349352
_cell_angle_alpha	90.051430
_cell_angle_beta	90.089090
_cell_angle_gamma	90.011981
_symmetry_space_group_name_H-M	'P 1'
_symmetry_Int_Tables_number		1

loop_
	_symmetry_equiv_pos_as_xyz
	x,y,z

loop_
	_atom_site_label
	_atom_site_type_symbol
	_atom_site_fract_x
	_atom_site_fract_y
	_atom_site_fract_z
	H0	H	0.406029	0.849167	0.701635
	H1	H	0.604900	0.175542	0.703561
	H2	H	0.604437	0.850018	0.271616
	H3	H	0.405623	0.175456	0.272077
	H4	H	0.718836	0.414639	0.824609
	H5	H	0.717228	0.609000	0.151258
	H6	H	0.291184	0.609036	0.823834
	H7	H	0.291288	0.415666	0.151259
	H8	H	0.839706	0.725860	0.389989
	H9	H	0.169195	0.725805	0.585591
	H10	H	0.840067	0.297891	0.586348
	H11	H	0.168575	0.299079	0.389516
	H12	H	0.839405	0.415000	0.700348
	H13	H	0.168336	0.611294	0.702424
	H14	H	0.839608	0.609145	0.274691
	H15	H	0.168245	0.413627	0.273427
	H16	H	0.404063	0.728507	0.824977
	H17	H	0.604273	0.728640	0.150111
	H18	H	0.605003	0.295989	0.824992
	H19	H	0.404854	0.297203	0.150517
	H20	H	0.718000	0.848788	0.390243
	H21	H	0.719245	0.176565	0.585246
	H22	H	0.292100	0.848447	0.583062
	H23	H	0.290816	0.175732	0.389026
	H24	H	0.904679	0.349566	0.202373
	H25	H	0.102881	0.675318	0.202771
	H26	H	0.102730	0.349569	0.771899
	H27	H	0.904241	0.675912	0.772710
	H28	H	0.217080	0.916181	0.323477
	H29	H	0.218850	0.109970	0.650491
	H30	H	0.791365	0.108823	0.323013
	H31	H	0.792319	0.916854	0.651202
	H32	H	0.340266	0.225996	0.889485
	H33	H	0.668899	0.226116	0.085038
	H34	H	0.340681	0.800018	0.084292
	H35	H	0.668700	0.797692	0.888024
	H36	H	0.341523	0.913961	0.201330
	H37	H	0.668996	0.111268	0.201222
	H38	H	0.340540	0.109968	0.773452
	H39	H	0.669376	0.914984	0.773857
	H40	H	0.904985	0.228687	0.324296
	H41	H	0.103830	0.228168	0.650263
	H42	H	0.103680	0.796783	0.324789
	H43	H	0.907253	0.798854	0.650712
	H44	H	0.219293	0.349329	0.888713
	H45	H	0.217420	0.676739	0.084473
	H46	H	0.791154	0.348705	0.083586
	H47	H	0.789799	0.676276	0.890319
	H48	H	0.409427	0.130598	0.586358
	H49	H	0.603800	0.895765	0.579009
	H50	H	0.596689	0.130492	0.385997
	H51	H	0.418156	0.897770	0.392492
	H52	H	0.593328	0.410855	0.104423
	H53	H	0.597447	0.606457	0.870737
	H54	H	0.417434	0.605431	0.101261
	H55	H	0.413976	0.418633	0.873073
	H56	H	0.123874	0.613519	0.393812
	H57	H	0.886031	0.603811	0.587271
	H58	H	0.118412	0.420374	0.571701
	H59	H	0.889712	0.422057	0.401379
	H60	H	0.120640	0.427414	0.586478
	H61	H	0.885840	0.613174	0.579017
	H62	H	0.118686	0.602820	0.402282
	H63	H	0.887314	0.424918	0.389214
	H64	H	0.410873	0.613951	0.106194
	H65	H	0.596723	0.604001	0.872526
	H66	H	0.605809	0.420192	0.105357
	H67	H	0.410727	0.416505	0.870914
	H68	H	0.592476	0.125617	0.397160
	H69	H	0.596029	0.896110	0.585957
	H70	H	0.419056	0.126579	0.579805
	H71	H	0.408135	0.896854	0.398613
	H72	H	0.904741	0.632092	0.085972
	H73	H	0.093273	0.399548	0.074814
	H74	H	0.097401	0.627727	0.898405
	H75	H	0.912648	0.396694	0.891323
	H76	H	0.097889	0.913209	0.604321
	H77	H	0.094359	0.109374	0.370849
	H78	H	0.912295	0.099732	0.600811
	H79	H	0.911674	0.923957	0.372778
	H80	H	0.623913	0.109236	0.890740
	H81	H	0.388420	0.108521	0.074749
	H82	H	0.622864	0.918370	0.080151
	H83	H	0.389556	0.920674	0.900453
	H84	H	0.621863	0.920088	0.077949
	H85	H	0.388676	0.099401	0.081132
	H86	H	0.620987	0.107338	0.898816
	H87	H	0.388401	0.924863	0.888374
	H88	H	0.917996	0.110927	0.602188
	H89	H	0.100732	0.106277	0.370487
	H90	H	0.103650	0.920785	0.604883
	H91	H	0.916729	0.914977	0.371046
	H92	H	0.101197	0.630135	0.891764
	H93	H	0.105947	0.393920	0.080273
	H94	H	0.917879	0.628392	0.086453
	H95	H	0.911689	0.396691	0.894831
	H96	H	0.408479	0.127821	0.574566
	H97	H	0.594406	0.898833	0.575703
	H98	H	0.604683	0.130639	0.396660
	H99	H	0.408495	0.893533	0.387390
	H100	H	0.592095	0.425058	0.100413
	H101	H	0.594448	0.606831	0.871997
	H102	H	0.406189	0.603720	0.104072
	H103	H	0.410474	0.420695	0.871655
	H104	H	0.121940	0.599968	0.388759
	H105	H	0.889932	0.601525	0.575495
	H106	H	0.124878	0.411927	0.583720
	H107	H	0.884129	0.413267	0.393337
	H108	H	0.910917	0.627585	0.074816
	H109	H	0.093860	0.394752	0.088740
	H110	H	0.093039	0.627955	0.891503
	H111	H	0.909508	0.395776	0.892696
	H112	H	0.094841	0.921795	0.602242
	H113	H	0.095371	0.103106	0.372568
	H114	H	0.905845	0.109467	0.605915
	H115	H	0.906381	0.915517	0.369362
	H116	H	0.621505	0.101114	0.892882
	H117	H	0.385442	0.108516	0.084842
	H118	H	0.622152	0.921489	0.081075
	H119	H	0.384717	0.913243	0.890967
	C120	C	0.383563	0.020631	0.608465
	C121	C	0.626694	1.004957	0.608728
	C122	C	0.626869	0.021126	0.365336
	C123	C	0.383125	1.003884	0.364746
	C124	C	0.625948	0.390578	-0.004206
	C125	C	0.625758	0.634435	0.979251
	C126	C	0.382779	0.635209	-0.004062
	C127	C	0.383098	0.390936	0.979579
	C128	C	0.012806	0.633776	0.366399
	C129	C	0.995795	0.634343	0.609028
	C130	C	0.012422	0.391472	0.608890
	C131	C	0.995857	0.391840	0.366719
	C132	C	0.882705	0.520918	0.109553
	C133	C	0.126286	0.504087	0.109436
	C134	C	0.125737	0.520752	0.865455
	C135	C	0.882462	0.504660	0.865522
	C136	C	0.126354	0.890966	0.495648
	C137	C	0.126076	0.134509	0.479037
	C138	C	0.883130	0.134697	0.495128
	C139	C	0.883391	0.890827	0.478793
	C140	C	0.513451	0.133914	0.866292
	C141	C	0.496158	0.134029	0.108462
	C142	C	0.513685	0.891573	0.108254
	C143	C	0.496467	0.891162	0.865252
	C144	C	0.385608	0.897983	0.663547
	C145	C	0.624469	0.127242	0.664514
	C146	C	0.624763	0.898375	0.309951
	C147	C	0.385770	0.126846	0.310206
	C148	C	0.681167	0.393380	0.873088
	C149	C	0.680455	0.630792	0.102213
	C150	C	0.328361	0.630703	0.872867
	C151	C	0.328596	0.394576	0.102469
	C152	C	0.889181	0.688690	0.368875
	C153	C	0.119792	0.688654	0.606466
	C154	C	0.888908	0.336081	0.606505
	C155	C	0.119651	0.336792	0.369178
	C156	C	0.888537	0.394487	0.663148
	C157	C	0.119415	0.631725	0.664394
	C158	C	0.888878	0.630556	0.311885
	C159	C	0.119528	0.393982	0.311864
	C160	C	0.384269	0.690233	0.873508
	C161	C	0.624141	0.690141	0.101761
	C162	C	0.624776	0.334383	0.873543
	C163	C	0.385126	0.335765	0.102106
	C164	C	0.681403	0.897877	0.368599
	C165	C	0.681561	0.127643	0.605999
	C166	C	0.329293	0.897452	0.604569
	C167	C	0.328429	0.126866	0.368189
	C168	C	0.884857	0.397989	0.164206
	C169	C	0.123056	0.626971	0.164351
	C170	C	0.123351	0.398319	0.810073
	C171	C	0.884511	0.627342	0.810885
	C172	C	0.179997	0.894720	0.372421
	C173	C	0.181133	0.131044	0.601712
	C174	C	0.829105	0.130282	0.371809
	C175	C	0.829413	0.895207	0.602189
	C176	C	0.389310	0.188030	0.869087
	C177	C	0.620142	0.188310	0.105498
	C178	C	0.389879	0.837384	0.105080
	C179	C	0.619806	0.835733	0.867867
	C180	C	0.390314	0.893721	0.163492
	C181	C	0.620282	0.131068	0.162905
	C182	C	0.389665	0.131015	0.811099
	C183	C	0.620189	0.893716	0.810811
	C184	C	0.885103	0.190060	0.372630
	C185	C	0.123921	0.189769	0.601617
	C186	C	0.123612	0.835643	0.373039
	C187	C	0.886044	0.836420	0.601956
	C188	C	0.180955	0.397982	0.868405
	C189	C	0.179860	0.627700	0.105613
	C190	C	0.828320	0.397588	0.105288
	C191	C	0.827609	0.627532	0.869332
	C192	C	0.405887	0.106216	0.586713
	C193	C	0.604508	0.918948	0.586606
	C194	C	0.604536	0.106796	0.386991
	C195	C	0.405220	0.918224	0.386159
	C196	C	0.603825	0.412525	0.081248
	C197	C	0.603059	0.612253	0.893831
	C198	C	0.404930	0.613876	0.081681
	C199	C	0.405160	0.412418	0.894009
	C200	C	0.099180	0.611855	0.388524
	C201	C	0.909447	0.612663	0.587051
	C202	C	0.098925	0.413447	0.587029
	C203	C	0.909590	0.413581	0.388307
	C204	C	0.904575	0.606909	0.088531
	C205	C	0.104274	0.418255	0.087660
	C206	C	0.103659	0.606576	0.887531
	C207	C	0.904554	0.418566	0.886788
	C208	C	0.105128	0.912316	0.581656
	C209	C	0.103332	0.112619	0.393230
	C210	C	0.905356	0.112992	0.580902
	C211	C	0.905166	0.911896	0.393219
	C212	C	0.599891	0.112419	0.887685
	C213	C	0.409884	0.111960	0.086593
	C214	C	0.600186	0.913718	0.086251
	C215	C	0.409911	0.913280	0.887096
	Zn216	Zn	0.505155	0.012602	0.738077
	Zn217	Zn	0.505284	0.012853	0.236300
	Zn218	Zn	0.754455	0.512534	-0.012620
	Zn219	Zn	0.254529	0.512565	-0.012049
	Zn220	Zn	0.004743	0.762142	0.487569
	Zn221	Zn	0.004315	0.263713	0.487490
	Zn222	Zn	0.003883	0.512941	0.736838
	Zn223	Zn	0.004516	0.511977	0.238094
	Zn224	Zn	0.504760	0.763682	-0.012714
	Zn225	Zn	0.504629	0.261956	-0.012545
	Zn226	Zn	0.754723	0.012546	0.486963
	Zn227	Zn	0.255123	0.012622	0.486504
	N228	N	0.418747	0.975592	0.666216
	N229	N	0.591051	0.049659	0.666388
	N230	N	0.591417	0.975948	0.307604
	N231	N	0.419117	0.049364	0.307974
	N232	N	0.681821	0.427722	0.949937
	N233	N	0.681505	0.596808	0.025158
	N234	N	0.327206	0.597179	0.950013
	N235	N	0.327218	0.428096	0.025249
	N236	N	0.967116	0.690505	0.402442
	N237	N	0.041949	0.690270	0.572606
	N238	N	0.966967	0.334240	0.573585
	N239	N	0.041859	0.335438	0.402716
	N240	N	0.966434	0.428243	0.664750
	N241	N	0.041457	0.598477	0.665952
	N242	N	0.966785	0.597255	0.310144
	N243	N	0.041632	0.427330	0.309955
	N244	N	0.417673	0.692817	0.950901
	N245	N	0.590975	0.692619	0.024181
	N246	N	0.591056	0.332526	0.950794
	N247	N	0.418122	0.332982	0.024595
	N248	N	0.682443	0.974979	0.402321
	N249	N	0.682738	0.050590	0.572102
	N250	N	0.327848	0.974718	0.570979
	N251	N	0.326790	0.049536	0.401376
	N252	N	0.917942	0.475601	0.166968
	N253	N	0.090406	0.549098	0.166770
	N254	N	0.089759	0.475614	0.808338
	N255	N	0.917647	0.549779	0.808244
	N256	N	0.181752	0.928460	0.449544
	N257	N	0.182434	0.097503	0.524452
	N258	N	0.827655	0.096883	0.448959
	N259	N	0.827574	0.928321	0.524734
	N260	N	0.467217	0.190149	0.902615
	N261	N	0.542201	0.190193	0.072330
	N262	N	0.467633	0.835989	0.071565
	N263	N	0.541649	0.833893	0.900750
	N264	N	0.468426	0.926749	0.165395
	N265	N	0.542104	0.098174	0.165162
	N266	N	0.467629	0.098005	0.809455
	N267	N	0.542454	0.927427	0.809377
	N268	N	0.917899	0.192806	0.450432
	N269	N	0.090703	0.192248	0.524190
	N270	N	0.091201	0.833068	0.450824
	N271	N	0.918850	0.833488	0.524442
	N272	N	0.182727	0.475291	0.901998
	N273	N	0.181936	0.550330	0.072199
	N274	N	0.826919	0.474970	0.071939
	N275	N	0.826335	0.550176	0.902471
	O276	O	0.490150	-0.562805	1.492737
	H277	H	0.482331	-0.569090	1.490662
	H278	H	0.490341	-0.550336	1.481135
	O279	O	0.488283	0.515969	0.507103
	H280	H	0.493867	0.515020	0.509409
	H281	H	0.493501	0.517971	0.510680
	O282	O	-0.492986	0.456086	1.553200
	H283	H	-0.490368	0.453181	1.558935
	H284	H	-0.495014	0.457238	1.548501
	O285	O	0.538808	0.486218	0.489454
	H286	H	0.537145	0.478773	0.493390
	H287	H	0.531172	0.475803	0.493800
	O288	O	0.463628	0.509122	0.526254
	H289	H	0.461992	0.515759	0.522502
	H290	H	0.466859	0.512417	0.536592
	O291	O	0.549712	0.547562	0.561468
	H292	H	0.552751	0.545525	0.565457
	H293	H	0.567327	0.550048	0.555275
	O294	O	0.462796	0.436927	0.517412
	H295	H	0.464238	0.438897	0.517076
	H296	H	0.445441	0.438775	0.513845
	O297	O	0.461434	-0.495638	0.570676
	H298	H	0.471057	-0.496761	0.582202
	H299	H	0.457911	-0.502559	0.568845
