data_Molecule from HDF5

_cell_length_a		16.288555
_cell_length_b		16.344849
_cell_length_c		16.292749
_cell_angle_alpha	89.938898
_cell_angle_beta	90.047398
_cell_angle_gamma	90.060149
_symmetry_space_group_name_H-M	'P 1'
_symmetry_Int_Tables_number		1

loop_
	_symmetry_equiv_pos_as_xyz
	x,y,z

loop_
	_atom_site_label
	_atom_site_type_symbol
	_atom_site_fract_x
	_atom_site_fract_y
	_atom_site_fract_z
	H0	H	0.401405	0.836939	0.714570
	H1	H	0.597654	0.163373	0.714229
	H2	H	0.597791	0.836862	0.285960
	H3	H	0.401199	0.162864	0.284057
	H4	H	0.715408	0.402735	0.836110
	H5	H	0.714025	0.597782	0.164246
	H6	H	0.285489	0.597444	0.836879
	H7	H	0.286614	0.402310	0.164086
	H8	H	0.835863	0.713943	0.401830
	H9	H	0.163117	0.715708	0.599417
	H10	H	0.836704	0.284533	0.599329
	H11	H	0.163089	0.285308	0.401720
	H12	H	0.836269	0.402135	0.714477
	H13	H	0.164404	0.597019	0.713119
	H14	H	0.836087	0.596905	0.286116
	H15	H	0.164572	0.402756	0.286922
	H16	H	0.401349	0.714086	0.836102
	H17	H	0.598533	0.714136	0.164091
	H18	H	0.599259	0.285480	0.835534
	H19	H	0.402660	0.285631	0.163321
	H20	H	0.713198	0.836534	0.402684
	H21	H	0.714509	0.163493	0.597200
	H22	H	0.285719	0.836729	0.597791
	H23	H	0.286148	0.162888	0.401843
	H24	H	0.902812	0.336673	0.214230
	H25	H	0.098467	0.662856	0.214568
	H26	H	0.098553	0.337093	0.785305
	H27	H	0.901985	0.663499	0.785486
	H28	H	0.212632	0.903802	0.335686
	H29	H	0.215388	0.098151	0.663049
	H30	H	0.785851	0.097394	0.335823
	H31	H	0.785520	0.902566	0.663989
	H32	H	0.337088	0.214957	0.900744
	H33	H	0.663537	0.214634	0.097851
	H34	H	0.336783	0.785298	0.098812
	H35	H	0.663171	0.784982	0.901404
	H36	H	0.336384	0.902643	0.212803
	H37	H	0.664405	0.097674	0.213293
	H38	H	0.335072	0.096715	0.787648
	H39	H	0.663451	0.901826	0.786134
	H40	H	0.900630	0.215569	0.336726
	H41	H	0.098878	0.214270	0.663285
	H42	H	0.096850	0.787259	0.335739
	H43	H	0.901445	0.785366	0.663457
	H44	H	0.214600	0.336690	0.902209
	H45	H	0.214588	0.663249	0.098368
	H46	H	0.785258	0.337085	0.098293
	H47	H	0.785422	0.663430	0.901447
	H48	H	0.408445	0.113913	0.587894
	H49	H	0.593795	0.883349	0.595501
	H50	H	0.586299	0.117088	0.394182
	H51	H	0.402201	0.884087	0.410769
	H52	H	0.606907	0.406592	0.119764
	H53	H	0.595721	0.595927	0.882729
	H54	H	0.410433	0.593634	0.115506
	H55	H	0.399244	0.402140	0.879726
	H56	H	0.117997	0.597721	0.405150
	H57	H	0.885280	0.585726	0.594759
	H58	H	0.117033	0.404131	0.591548
	H59	H	0.883020	0.403861	0.406965
	H60	H	0.115144	0.408819	0.592105
	H61	H	0.879867	0.597404	0.600236
	H62	H	0.114925	0.594098	0.412249
	H63	H	0.884853	0.408322	0.410329
	H64	H	0.406141	0.595584	0.117998
	H65	H	0.594500	0.589296	0.884830
	H66	H	0.587264	0.417867	0.110490
	H67	H	0.406059	0.416502	0.886220
	H68	H	0.586239	0.110980	0.417264
	H69	H	0.589332	0.885252	0.593533
	H70	H	0.400056	0.118516	0.594575
	H71	H	0.403176	0.880827	0.400457
	H72	H	0.914161	0.616001	0.100283
	H73	H	0.092260	0.384660	0.091887
	H74	H	0.093867	0.615140	0.909717
	H75	H	0.895931	0.382895	0.911721
	H76	H	0.083459	0.906874	0.612976
	H77	H	0.104311	0.092907	0.380253
	H78	H	0.905808	0.088157	0.615081
	H79	H	0.904205	0.911911	0.385112
	H80	H	0.615413	0.096165	0.912969
	H81	H	0.384574	0.093851	0.089207
	H82	H	0.612477	0.911988	0.082864
	H83	H	0.379526	0.896063	0.903504
	H84	H	0.617581	0.912666	0.103711
	H85	H	0.384097	0.090167	0.094148
	H86	H	0.614880	0.087363	0.906050
	H87	H	0.386965	0.907097	0.917914
	H88	H	0.911861	0.093973	0.615181
	H89	H	0.087286	0.084531	0.387904
	H90	H	0.097073	0.899141	0.619462
	H91	H	0.912085	0.905591	0.384977
	H92	H	0.095315	0.616614	0.905702
	H93	H	0.095390	0.383616	0.093155
	H94	H	0.907913	0.613435	0.085110
	H95	H	0.910401	0.381474	0.895122
	H96	H	0.411096	0.116289	0.598735
	H97	H	0.593622	0.885536	0.590208
	H98	H	0.606486	0.119873	0.406947
	H99	H	0.411927	0.885643	0.405590
	H100	H	0.585882	0.394153	0.117472
	H101	H	0.588804	0.594056	0.885354
	H102	H	0.406495	0.590991	0.116298
	H103	H	0.415692	0.402297	0.884183
	H104	H	0.115712	0.589628	0.404891
	H105	H	0.884571	0.597094	0.586508
	H106	H	0.117354	0.406413	0.596140
	H107	H	0.883936	0.409148	0.405062
	H108	H	0.898263	0.619702	0.096729
	H109	H	0.092755	0.383317	0.095678
	H110	H	0.090879	0.615403	0.906245
	H111	H	0.916475	0.388970	0.914592
	H112	H	0.097281	0.915412	0.615086
	H113	H	0.086865	0.104643	0.381894
	H114	H	0.904064	0.095720	0.618394
	H115	H	0.903013	0.902927	0.381376
	H116	H	0.618834	0.097121	0.901885
	H117	H	0.382366	0.096410	0.094724
	H118	H	0.620251	0.894164	0.092688
	H119	H	0.383839	0.914829	0.899930
	C120	C	0.378286	0.008449	0.621849
	C121	C	0.621105	0.991963	0.621579
	C122	C	0.621422	0.008382	0.377876
	C123	C	0.378328	0.991336	0.377736
	C124	C	0.622235	0.378092	0.007750
	C125	C	0.621603	0.621491	0.992400
	C126	C	0.378750	0.621243	0.008469
	C127	C	0.378954	0.378582	0.991746
	C128	C	0.008063	0.621675	0.378793
	C129	C	0.991657	0.621779	0.621669
	C130	C	0.008243	0.378410	0.621754
	C131	C	0.991894	0.378570	0.378591
	C132	C	0.878757	0.508519	0.121982
	C133	C	0.121944	0.491565	0.122237
	C134	C	0.122267	0.508254	0.878229
	C135	C	0.878840	0.492157	0.878436
	C136	C	0.121176	0.878595	0.507959
	C137	C	0.121557	0.121934	0.491212
	C138	C	0.878544	0.121173	0.508055
	C139	C	0.878027	0.878338	0.491867
	C140	C	0.508203	0.121453	0.878512
	C141	C	0.492051	0.121545	0.121146
	C142	C	0.508445	0.878305	0.121177
	C143	C	0.491687	0.878176	0.878689
	C144	C	0.381119	0.885522	0.676539
	C145	C	0.618283	0.114851	0.676256
	C146	C	0.618647	0.885512	0.323327
	C147	C	0.381064	0.114179	0.322372
	C148	C	0.677531	0.381508	0.884724
	C149	C	0.676388	0.618479	0.115453
	C150	C	0.323657	0.618074	0.885258
	C151	C	0.324454	0.381510	0.115085
	C152	C	0.884671	0.675996	0.381363
	C153	C	0.114663	0.677325	0.619350
	C154	C	0.885413	0.322637	0.619863
	C155	C	0.114739	0.323504	0.381439
	C156	C	0.885267	0.381017	0.677013
	C157	C	0.115122	0.618638	0.676099
	C158	C	0.884931	0.618059	0.323855
	C159	C	0.115213	0.381547	0.324208
	C160	C	0.380921	0.676174	0.885146
	C161	C	0.618959	0.676365	0.115267
	C162	C	0.619720	0.323437	0.884567
	C163	C	0.381856	0.323481	0.114658
	C164	C	0.675839	0.885283	0.381411
	C165	C	0.676311	0.114897	0.618408
	C166	C	0.323418	0.885440	0.618723
	C167	C	0.323593	0.114352	0.380495
	C168	C	0.881615	0.385329	0.176547
	C169	C	0.119204	0.614357	0.176868
	C170	C	0.119197	0.385407	0.823324
	C171	C	0.881273	0.614956	0.823289
	C172	C	0.175354	0.882295	0.384645
	C173	C	0.176794	0.118717	0.614526
	C174	C	0.823412	0.118541	0.384896
	C175	C	0.823191	0.881389	0.615026
	C176	C	0.385359	0.176828	0.880630
	C177	C	0.614977	0.176486	0.118088
	C178	C	0.385366	0.823342	0.118817
	C179	C	0.614675	0.823380	0.881140
	C180	C	0.385230	0.881603	0.175550
	C181	C	0.615216	0.118621	0.175795
	C182	C	0.384680	0.118227	0.824253
	C183	C	0.614730	0.881285	0.823831
	C184	C	0.880146	0.177295	0.385469
	C185	C	0.118964	0.176237	0.614624
	C186	C	0.118043	0.824155	0.384921
	C187	C	0.880455	0.823027	0.614827
	C188	C	0.176665	0.385475	0.881465
	C189	C	0.176928	0.614344	0.119213
	C190	C	0.823669	0.385595	0.118871
	C191	C	0.823380	0.614750	0.880908
	C192	C	0.400075	0.094213	0.600037
	C193	C	0.598891	0.906620	0.599494
	C194	C	0.599616	0.093831	0.399712
	C195	C	0.399457	0.905517	0.399452
	C196	C	0.599807	0.399631	0.093783
	C197	C	0.599448	0.599582	0.906471
	C198	C	0.401081	0.599654	0.094328
	C199	C	0.400551	0.400606	0.905748
	C200	C	0.094042	0.600088	0.400882
	C201	C	0.905573	0.599978	0.600001
	C202	C	0.094336	0.400074	0.599763
	C203	C	0.905893	0.400694	0.400919
	C204	C	0.900514	0.594307	0.100509
	C205	C	0.099799	0.405849	0.100270
	C206	C	0.099970	0.593762	0.900403
	C207	C	0.900999	0.406574	0.900711
	C208	C	0.099050	0.900561	0.593865
	C209	C	0.099393	0.100311	0.405556
	C210	C	0.900799	0.098979	0.594081
	C211	C	0.900079	0.900374	0.405850
	C212	C	0.594317	0.099971	0.900565
	C213	C	0.405784	0.099883	0.099130
	C214	C	0.594496	0.899891	0.099461
	C215	C	0.405567	0.899826	0.900624
	Zn216	Zn	0.499496	-0.000099	0.750642
	Zn217	Zn	0.500000	-0.000508	0.249462
	Zn218	Zn	0.750473	0.500302	0.000172
	Zn219	Zn	0.250317	0.499694	0.000683
	Zn220	Zn	-0.000490	0.750002	0.499903
	Zn221	Zn	-0.000124	0.250171	0.500104
	Zn222	Zn	0.000344	0.500247	0.750180
	Zn223	Zn	0.000353	0.499778	0.250390
	Zn224	Zn	0.500014	0.750014	-0.000050
	Zn225	Zn	0.499995	0.249817	-0.000686
	Zn226	Zn	0.749500	0.000050	0.499762
	Zn227	Zn	0.249750	0.000191	0.499564
	N228	N	0.414243	0.962813	0.678596
	N229	N	0.584833	0.037430	0.678505
	N230	N	0.585399	0.962850	0.321207
	N231	N	0.414189	0.036895	0.320637
	N232	N	0.678922	0.414856	0.962264
	N233	N	0.678007	0.584939	0.038032
	N234	N	0.322186	0.584698	0.962853
	N235	N	0.322611	0.415041	0.037691
	N236	N	0.962217	0.678370	0.414606
	N237	N	0.036957	0.679330	0.586096
	N238	N	0.962716	0.321058	0.586028
	N239	N	0.037003	0.321656	0.414627
	N240	N	0.962548	0.415063	0.678062
	N241	N	0.037663	0.584895	0.677604
	N242	N	0.962561	0.584766	0.322331
	N243	N	0.037772	0.414988	0.322503
	N244	N	0.414588	0.678173	0.962660
	N245	N	0.585605	0.678390	0.037658
	N246	N	0.585915	0.321379	0.962043
	N247	N	0.415082	0.321675	0.037052
	N248	N	0.678004	0.962652	0.414578
	N249	N	0.678025	0.037698	0.584943
	N250	N	0.321393	0.962928	0.585262
	N251	N	0.321813	0.037187	0.414317
	N252	N	0.915188	0.462622	0.178470
	N253	N	0.085501	0.537186	0.178546
	N254	N	0.086004	0.462810	0.821421
	N255	N	0.915121	0.537849	0.821783
	N256	N	0.177276	0.915684	0.462068
	N257	N	0.178405	0.085547	0.537055
	N258	N	0.822366	0.084440	0.462142
	N259	N	0.821622	0.915171	0.537544
	N260	N	0.463107	0.178792	0.913672
	N261	N	0.537494	0.178169	0.084792
	N262	N	0.462910	0.821307	0.085742
	N263	N	0.537153	0.821410	0.914468
	N264	N	0.462758	0.915308	0.177017
	N265	N	0.537490	0.085283	0.177882
	N266	N	0.462001	0.084201	0.823062
	N267	N	0.537084	0.914674	0.822149
	N268	N	0.913885	0.178901	0.462932
	N269	N	0.085302	0.178379	0.537233
	N270	N	0.084991	0.822012	0.462596
	N271	N	0.913839	0.821254	0.537327
	N272	N	0.178431	0.462654	0.915100
	N273	N	0.178640	0.537038	0.085967
	N274	N	0.821679	0.463122	0.085803
	N275	N	0.821821	0.537514	0.914473
