data_Molecule from HDF5

_cell_length_a		16.378539
_cell_length_b		16.394877
_cell_length_c		16.324027
_cell_angle_alpha	89.937067
_cell_angle_beta	89.804037
_cell_angle_gamma	89.954895
_symmetry_space_group_name_H-M	'P 1'
_symmetry_Int_Tables_number		1

loop_
	_symmetry_equiv_pos_as_xyz
	x,y,z

loop_
	_atom_site_label
	_atom_site_type_symbol
	_atom_site_fract_x
	_atom_site_fract_y
	_atom_site_fract_z
	H0	H	0.393634	0.823281	0.717197
	H1	H	0.601506	0.142754	0.717678
	H2	H	0.600723	0.822189	0.279763
	H3	H	0.394540	0.142332	0.277040
	H4	H	0.719245	0.375710	0.837811
	H5	H	0.713234	0.582864	0.159208
	H6	H	0.278554	0.585797	0.836223
	H7	H	0.275612	0.376534	0.156578
	H8	H	0.837934	0.705967	0.393494
	H9	H	0.156883	0.703732	0.602236
	H10	H	0.837927	0.263844	0.603670
	H11	H	0.156480	0.263102	0.391292
	H12	H	0.837118	0.379609	0.717342
	H13	H	0.156842	0.586010	0.716333
	H14	H	0.835961	0.588037	0.279367
	H15	H	0.156325	0.379271	0.275480
	H16	H	0.393384	0.701955	0.837347
	H17	H	0.599443	0.700612	0.158636
	H18	H	0.602766	0.260954	0.837375
	H19	H	0.392577	0.261914	0.157235
	H20	H	0.720571	0.825106	0.392336
	H21	H	0.716551	0.144045	0.600858
	H22	H	0.274612	0.825053	0.604937
	H23	H	0.277947	0.143514	0.393349
	H24	H	0.893636	0.323869	0.219265
	H25	H	0.102391	0.643073	0.217185
	H26	H	0.098579	0.322547	0.778322
	H27	H	0.893056	0.642987	0.778708
	H28	H	0.219426	0.879184	0.338300
	H29	H	0.217610	0.089228	0.658182
	H30	H	0.776333	0.092662	0.337464
	H31	H	0.778656	0.882858	0.657887
	H32	H	0.338236	0.204675	0.890862
	H33	H	0.656357	0.203020	0.102159
	H34	H	0.337162	0.761801	0.102257
	H35	H	0.657115	0.761796	0.892378
	H36	H	0.338394	0.875398	0.219950
	H37	H	0.657565	0.084093	0.214984
	H38	H	0.337975	0.087557	0.776401
	H39	H	0.657615	0.879070	0.777486
	H40	H	0.893434	0.206714	0.337996
	H41	H	0.100003	0.203503	0.658404
	H42	H	0.105896	0.762245	0.338249
	H43	H	0.893661	0.765905	0.657931
	H44	H	0.215510	0.322848	0.892990
	H45	H	0.219165	0.641305	0.102144
	H46	H	0.778397	0.321913	0.102491
	H47	H	0.776299	0.641225	0.893325
	H48	H	0.409301	0.095505	0.583795
	H49	H	0.591710	0.870474	0.581677
	H50	H	0.585191	0.094819	0.412291
	H51	H	0.409500	0.870335	0.411923
	H52	H	0.592393	0.391204	0.113989
	H53	H	0.587480	0.572948	0.882702
	H54	H	0.406160	0.577424	0.114455
	H55	H	0.413053	0.401039	0.887299
	H56	H	0.111299	0.576891	0.411316
	H57	H	0.881578	0.575906	0.589199
	H58	H	0.112031	0.396613	0.591597
	H59	H	0.881687	0.394416	0.403670
	H60	H	0.112555	0.389927	0.586511
	H61	H	0.882390	0.575894	0.586754
	H62	H	0.108774	0.569144	0.409779
	H63	H	0.883651	0.389897	0.413436
	H64	H	0.402140	0.565737	0.111393
	H65	H	0.587078	0.570641	0.883280
	H66	H	0.585119	0.397636	0.108949
	H67	H	0.412371	0.383614	0.881379
	H68	H	0.595023	0.100106	0.405832
	H69	H	0.589790	0.867721	0.590218
	H70	H	0.404578	0.098216	0.587027
	H71	H	0.405469	0.869035	0.410837
	H72	H	0.910417	0.595010	0.087913
	H73	H	0.080609	0.368772	0.094612
	H74	H	0.085961	0.594809	0.912553
	H75	H	0.908367	0.367487	0.904314
	H76	H	0.081809	0.898577	0.608980
	H77	H	0.094519	0.069885	0.382793
	H78	H	0.912897	0.074563	0.610404
	H79	H	0.917723	0.892110	0.384319
	H80	H	0.611684	0.074638	0.906181
	H81	H	0.384968	0.070953	0.084832
	H82	H	0.611688	0.888195	0.084777
	H83	H	0.382310	0.887028	0.911158
	H84	H	0.610318	0.893898	0.086704
	H85	H	0.382663	0.070457	0.088577
	H86	H	0.609212	0.071880	0.912397
	H87	H	0.385831	0.896982	0.910847
	H88	H	0.903578	0.078298	0.613545
	H89	H	0.081098	0.070531	0.388096
	H90	H	0.083275	0.889725	0.613052
	H91	H	0.903357	0.891281	0.379577
	H92	H	0.092799	0.598470	0.906599
	H93	H	0.081400	0.373531	0.078874
	H94	H	0.902692	0.596288	0.083456
	H95	H	0.910158	0.370109	0.909724
	H96	H	0.409772	0.097007	0.589732
	H97	H	0.583065	0.872034	0.584699
	H98	H	0.583456	0.098252	0.399447
	H99	H	0.408887	0.869587	0.407976
	H100	H	0.582323	0.387128	0.111474
	H101	H	0.585885	0.572929	0.883898
	H102	H	0.413883	0.570002	0.108474
	H103	H	0.397611	0.394478	0.879643
	H104	H	0.112544	0.573874	0.403285
	H105	H	0.882804	0.574171	0.588217
	H106	H	0.109035	0.396543	0.583677
	H107	H	0.885925	0.400788	0.411594
	H108	H	0.902826	0.599169	0.091592
	H109	H	0.094985	0.366854	0.086131
	H110	H	0.083655	0.596959	0.903786
	H111	H	0.904394	0.367608	0.908659
	H112	H	0.091297	0.896519	0.613146
	H113	H	0.087134	0.081518	0.381400
	H114	H	0.904163	0.068415	0.610475
	H115	H	0.908740	0.904383	0.385171
	H116	H	0.610189	0.067812	0.906436
	H117	H	0.383132	0.073669	0.086305
	H118	H	0.612723	0.888991	0.090639
	H119	H	0.382072	0.892619	0.902075
	C120	C	0.375988	-0.008362	0.619487
	C121	C	0.618833	0.975661	0.617555
	C122	C	0.620111	-0.007985	0.374891
	C123	C	0.376192	0.974886	0.377103
	C124	C	0.618618	0.360092	0.005788
	C125	C	0.617951	0.603133	0.989279
	C126	C	0.375833	0.602923	0.005696
	C127	C	0.375445	0.360590	0.988443
	C128	C	0.005285	0.605483	0.376403
	C129	C	0.988106	0.605849	0.619262
	C130	C	0.005633	0.362671	0.619283
	C131	C	0.988893	0.362719	0.376581
	C132	C	0.875027	0.491033	0.119276
	C133	C	0.118382	0.474632	0.118736
	C134	C	0.118398	0.491153	0.875643
	C135	C	0.875627	0.474024	0.876330
	C136	C	0.119004	0.862820	0.505949
	C137	C	0.118882	0.105698	0.489784
	C138	C	0.875691	0.106370	0.505712
	C139	C	0.877331	0.864574	0.488906
	C140	C	0.505243	0.103684	0.876014
	C141	C	0.488864	0.103014	0.118044
	C142	C	0.505838	0.859420	0.119482
	C143	C	0.488987	0.860659	0.875937
	C144	C	0.374392	0.871596	0.678636
	C145	C	0.619655	0.095512	0.677437
	C146	C	0.620608	0.870839	0.317727
	C147	C	0.375294	0.094755	0.316791
	C148	C	0.678925	0.357964	0.885497
	C149	C	0.675222	0.602767	0.110564
	C150	C	0.317262	0.604526	0.884905
	C151	C	0.315580	0.358356	0.108666
	C152	C	0.885534	0.665859	0.374818
	C153	C	0.108801	0.664431	0.620715
	C154	C	0.885926	0.303128	0.621778
	C155	C	0.108631	0.302733	0.373069
	C156	C	0.885296	0.361218	0.678310
	C157	C	0.108784	0.605809	0.677611
	C158	C	0.884496	0.606882	0.318159
	C159	C	0.108507	0.360566	0.315405
	C160	C	0.374520	0.662279	0.885166
	C161	C	0.618239	0.661442	0.110351
	C162	C	0.621087	0.300713	0.885299
	C163	C	0.373799	0.301228	0.109026
	C164	C	0.680485	0.872476	0.373413
	C165	C	0.677160	0.096193	0.619277
	C166	C	0.315265	0.872440	0.622676
	C167	C	0.317536	0.095230	0.374878
	C168	C	0.874662	0.371158	0.179097
	C169	C	0.120876	0.594626	0.178056
	C170	C	0.118008	0.370572	0.817503
	C171	C	0.874274	0.594578	0.817813
	C172	C	0.179511	0.861022	0.386152
	C173	C	0.177809	0.107389	0.610322
	C174	C	0.816365	0.109945	0.385456
	C175	C	0.817761	0.863712	0.609634
	C176	C	0.385872	0.164247	0.873194
	C177	C	0.608805	0.162694	0.120114
	C178	C	0.385283	0.800997	0.120933
	C179	C	0.609307	0.801516	0.873895
	C180	C	0.385856	0.857672	0.179626
	C181	C	0.609395	0.103541	0.176337
	C182	C	0.385824	0.105930	0.816017
	C183	C	0.609624	0.859899	0.816653
	C184	C	0.874759	0.166754	0.385703
	C185	C	0.119492	0.164510	0.610319
	C186	C	0.122793	0.802572	0.386233
	C187	C	0.875062	0.805582	0.609779
	C188	C	0.176517	0.370809	0.874324
	C189	C	0.179402	0.593729	0.120900
	C190	C	0.817326	0.370332	0.120761
	C191	C	0.816278	0.593841	0.875073
	C192	C	0.400825	0.075165	0.594194
	C193	C	0.595116	0.892100	0.592544
	C194	C	0.595141	0.075804	0.398802
	C195	C	0.400950	0.891505	0.402703
	C196	C	0.593785	0.384696	0.089573
	C197	C	0.593816	0.579111	0.905094
	C198	C	0.400333	0.578141	0.089592
	C199	C	0.400502	0.385802	0.904511
	C200	C	0.088798	0.580653	0.400850
	C201	C	0.904253	0.582378	0.595071
	C202	C	0.089330	0.387339	0.594522
	C203	C	0.905585	0.387752	0.402318
	C204	C	0.898659	0.575126	0.094575
	C205	C	0.093021	0.391303	0.093883
	C206	C	0.094318	0.575009	0.900246
	C207	C	0.900389	0.390198	0.900483
	C208	C	0.092919	0.887744	0.589866
	C209	C	0.094555	0.080989	0.405895
	C210	C	0.899865	0.080882	0.589460
	C211	C	0.902712	0.888977	0.405024
	C212	C	0.588751	0.078788	0.901172
	C213	C	0.405339	0.078653	0.093645
	C214	C	0.589660	0.883618	0.094491
	C215	C	0.405220	0.885067	0.901004
	Zn216	Zn	0.497931	-0.017500	0.747088
	Zn217	Zn	0.496972	-0.018554	0.247225
	Zn218	Zn	0.746672	0.481762	-0.002474
	Zn219	Zn	0.247257	0.482303	-0.003184
	Zn220	Zn	-0.002419	0.734772	0.497694
	Zn221	Zn	-0.002441	0.234291	0.498371
	Zn222	Zn	-0.002910	0.483432	0.747371
	Zn223	Zn	-0.003159	0.484145	0.247783
	Zn224	Zn	0.496890	0.731989	-0.002748
	Zn225	Zn	0.497343	0.232337	-0.002753
	Zn226	Zn	0.747901	-0.015238	0.496430
	Zn227	Zn	0.247400	-0.016112	0.498713
	N228	N	0.411350	0.946828	0.676746
	N229	N	0.584133	0.019579	0.676452
	N230	N	0.584073	0.946266	0.318217
	N231	N	0.410932	0.018829	0.317945
	N232	N	0.677673	0.394119	0.961421
	N233	N	0.675260	0.567405	0.034302
	N234	N	0.317776	0.568415	0.961078
	N235	N	0.316347	0.394255	0.032624
	N236	N	0.961575	0.665284	0.410112
	N237	N	0.032809	0.664660	0.585110
	N238	N	0.961790	0.303933	0.585726
	N239	N	0.033396	0.304070	0.410389
	N240	N	0.960823	0.397571	0.676930
	N241	N	0.032686	0.570515	0.677206
	N242	N	0.960010	0.570187	0.318849
	N243	N	0.032990	0.397240	0.317354
	N244	N	0.410334	0.661463	0.961006
	N245	N	0.583416	0.661879	0.033818
	N246	N	0.584003	0.302104	0.960954
	N247	N	0.410308	0.302405	0.033117
	N248	N	0.680330	0.948949	0.407921
	N249	N	0.676761	0.020817	0.582780
	N250	N	0.316144	0.948210	0.586588
	N251	N	0.317868	0.019610	0.411469
	N252	N	0.909911	0.447143	0.178240
	N253	N	0.083798	0.519502	0.177044
	N254	N	0.082777	0.446598	0.818059
	N255	N	0.910682	0.518982	0.818604
	N256	N	0.177231	0.897664	0.461835
	N257	N	0.177626	0.071709	0.534223
	N258	N	0.816857	0.073084	0.461058
	N259	N	0.818894	0.899340	0.533313
	N260	N	0.461215	0.162936	0.909898
	N261	N	0.532956	0.162390	0.084476
	N262	N	0.460890	0.801912	0.084338
	N263	N	0.533160	0.801609	0.909683
	N264	N	0.461884	0.893255	0.178872
	N265	N	0.533767	0.067108	0.175372
	N266	N	0.461021	0.068977	0.817849
	N267	N	0.533728	0.895779	0.817634
	N268	N	0.910673	0.164879	0.461602
	N269	N	0.083834	0.163842	0.534274
	N270	N	0.085958	0.803508	0.461966
	N271	N	0.911356	0.805763	0.533804
	N272	N	0.176602	0.446660	0.910065
	N273	N	0.177986	0.518050	0.084809
	N274	N	0.817438	0.446048	0.084433
	N275	N	0.816869	0.517729	0.910535
	O276	O	0.816587	0.957717	-0.146167
	H277	H	0.805138	0.958507	-0.145174
	H278	H	0.809734	0.963798	-0.146459
	O279	O	0.658122	0.661258	0.663818
	H280	H	0.657522	0.633042	0.670576
	H281	H	0.641866	0.666006	0.644499
	O282	O	0.351044	0.496387	0.628841
	H283	H	0.336341	0.521142	0.621356
	H284	H	0.351797	0.495314	0.648170
	O285	O	1.006236	-0.205759	0.067519
	H286	H	1.001563	-0.200556	0.083844
	H287	H	1.001627	-0.205400	0.075560
	O288	O	0.098672	-0.013491	1.065913
	H289	H	0.091705	-0.000125	1.057854
	H290	H	0.096736	-0.018515	1.064116
	O291	O	0.491844	0.281424	0.506298
	H292	H	0.497253	0.298764	0.502424
	H293	H	0.481629	0.274734	0.519024
	O294	O	1.070351	0.949889	0.874149
	H295	H	1.078939	0.937739	0.866978
	H296	H	1.070031	0.928413	0.873507
	O297	O	0.885606	0.942698	1.126390
	H298	H	0.897031	0.960836	1.126374
	H299	H	0.871003	0.934719	1.142613
	O300	O	0.047239	0.082088	-0.157834
	H301	H	0.052394	0.067520	-0.144712
	H302	H	0.074231	0.075326	-0.157300
	O303	O	0.685680	0.468010	0.672521
	H304	H	0.679625	0.445535	0.667115
	H305	H	0.701875	0.470811	0.702883
	O306	O	0.988088	-0.065618	-0.106548
	H307	H	0.978437	-0.053875	-0.115893
	H308	H	0.980027	-0.067000	-0.086142
	O309	O	0.445997	0.333171	0.590771
	H310	H	0.439009	0.330820	0.573779
	H311	H	0.446097	0.334680	0.580605
	O312	O	0.967370	0.882841	0.099753
	H313	H	0.964031	0.878291	0.113633
	H314	H	0.969067	0.886093	0.104677
	O315	O	0.306874	0.481935	0.574267
	H316	H	0.317850	0.492191	0.568777
	H317	H	0.299722	0.502409	0.566072
	O318	O	0.564011	0.472948	0.383292
	H319	H	0.562323	0.466725	0.375141
	H320	H	0.578304	0.472332	0.390640
	O321	O	1.096206	0.020752	0.938066
	H322	H	1.104439	0.004792	0.938174
	H323	H	1.082431	0.025588	0.938158
	O324	O	0.518386	0.569027	0.613377
	H325	H	0.514067	0.578437	0.609720
	H326	H	0.527126	0.568556	0.610231
	O327	O	0.928941	1.175666	0.960192
	H328	H	0.903275	1.178676	0.954426
	H329	H	0.929401	1.156370	0.955446
	O330	O	0.677070	0.326075	0.394188
	H331	H	0.672333	0.316931	0.394104
	H332	H	0.671417	0.327850	0.396737
	O333	O	1.032783	0.875079	0.794417
	H334	H	1.032322	0.851314	0.771254
	H335	H	1.044008	0.877352	0.815644
	O336	O	0.565529	0.631312	0.475480
	H337	H	0.576680	0.624964	0.482689
	H338	H	0.550180	0.644449	0.490077
	O339	O	1.002204	0.133710	0.960996
	H340	H	1.012624	0.133483	0.961693
	H341	H	1.010225	0.133056	0.954975
	O342	O	-0.183585	0.928652	0.916731
	H343	H	-0.167881	0.916603	0.916647
	H344	H	-0.194685	0.928364	0.907865
	O345	O	-0.463546	1.553885	1.605217
	H346	H	-0.442915	1.563781	1.623870
	H347	H	-0.470769	1.550260	1.606576
	O348	O	0.399585	0.513756	0.430956
	H349	H	0.391975	0.503244	0.425325
	H350	H	0.413547	0.520039	0.453310
	O351	O	0.686130	-0.567652	-0.564032
	H352	H	0.682377	-0.590229	-0.558335
	H353	H	0.697317	-0.575394	-0.580233
	O354	O	1.096597	1.164298	0.127502
	H355	H	1.088239	1.171922	0.095547
	H356	H	1.086818	1.168244	0.123579
	O357	O	-0.021197	1.016861	0.157418
	H358	H	-0.013266	1.020010	0.161505
	H359	H	-0.029507	1.024462	0.152957
	O360	O	-0.134278	1.036924	1.013764
	H361	H	-0.134208	1.043221	1.009044
	H362	H	-0.118654	1.029115	1.019555
	O363	O	0.296741	0.581398	0.349388
	H364	H	0.320178	0.566533	0.333440
	H365	H	0.276005	0.575938	0.330592
	O366	O	0.185308	0.895603	-0.146192
	H367	H	0.201443	0.887400	-0.149569
	H368	H	0.176456	0.879391	-0.135394
	O369	O	0.580936	0.419163	0.355746
	H370	H	0.584202	0.422527	0.359354
	H371	H	0.560466	0.434794	0.357758
	O372	O	0.503097	0.693268	0.621132
	H373	H	0.500624	0.709024	0.641654
	H374	H	0.507162	0.683555	0.612197
	O375	O	0.360840	0.667058	0.324485
	H376	H	0.352282	0.644812	0.309660
	H377	H	0.382465	0.662306	0.322912
	O378	O	0.645021	0.620722	0.445431
	H379	H	0.659751	0.616826	0.443443
	H380	H	0.639460	0.641296	0.436644
	O381	O	0.658599	0.435186	0.527016
	H382	H	0.653155	0.436351	0.536028
	H383	H	0.656815	0.436308	0.524234
	O384	O	0.196184	0.965263	1.115121
	H385	H	0.198473	0.982789	1.119534
	H386	H	0.206818	0.966975	1.117302
	O387	O	0.963454	0.820753	-0.016768
	H388	H	0.958663	0.812361	-0.007923
	H389	H	0.946571	0.827476	0.001102
	O390	O	0.298423	0.638590	0.503189
	H391	H	0.281017	0.659986	0.495323
	H392	H	0.308572	0.621727	0.474209
	O393	O	0.848782	-0.070829	0.982397
	H394	H	0.854433	-0.084389	0.988875
	H395	H	0.851619	-0.075996	0.976759
	O396	O	0.152409	0.832863	0.965940
	H397	H	0.162426	0.836684	0.988198
	H398	H	0.142599	0.823804	0.978177
	O399	O	0.499813	0.387487	0.703556
	H400	H	0.496519	0.384157	0.715045
	H401	H	0.481162	0.375703	0.699263
	O402	O	1.422421	0.305761	0.501872
	H403	H	1.397345	0.299212	0.518898
	H404	H	1.434144	0.302845	0.506891
	O405	O	0.089745	-0.040880	0.186553
	H406	H	0.117673	-0.025155	0.194284
	H407	H	0.088505	-0.019889	0.178213
	O408	O	0.335983	1.405315	0.622889
	H409	H	0.336206	1.412830	0.620261
	H410	H	0.340662	1.409214	0.634471
	O411	O	0.824991	1.059945	0.029107
	H412	H	0.823718	1.070977	0.028816
	H413	H	0.833343	1.057766	0.017983
	O414	O	-0.491742	-0.676567	1.383181
	H415	H	-0.479758	-0.669830	1.389037
	H416	H	-0.511695	-0.675592	1.387544
	O417	O	0.408156	0.352887	0.378481
	H418	H	0.407096	0.344716	0.383710
	H419	H	0.421042	0.342739	0.386829
	O420	O	0.006783	1.146640	0.132567
	H421	H	-0.005065	1.148096	0.126550
	H422	H	0.006832	1.148194	0.131139
	O423	O	0.808623	-0.167483	0.131117
	H424	H	0.811930	-0.166096	0.135429
	H425	H	0.811509	-0.149770	0.129609
	O426	O	0.180289	0.097587	1.012537
	H427	H	0.178733	0.099415	1.009780
	H428	H	0.178362	0.090879	1.008515
	O429	O	0.412498	0.486998	0.346990
	H430	H	0.415572	0.467518	0.364338
	H431	H	0.410979	0.483876	0.339895
