data_Molecule from HDF5

_cell_length_a		16.295906
_cell_length_b		16.336514
_cell_length_c		16.287384
_cell_angle_alpha	90.028954
_cell_angle_beta	90.006646
_cell_angle_gamma	90.038443
_symmetry_space_group_name_H-M	'P 1'
_symmetry_Int_Tables_number		1

loop_
	_symmetry_equiv_pos_as_xyz
	x,y,z

loop_
	_atom_site_label
	_atom_site_type_symbol
	_atom_site_fract_x
	_atom_site_fract_y
	_atom_site_fract_z
	H0	H	0.402845	0.835516	0.713131
	H1	H	0.597365	0.163501	0.714305
	H2	H	0.596545	0.836554	0.287413
	H3	H	0.401439	0.163007	0.284961
	H4	H	0.713791	0.402949	0.836283
	H5	H	0.713391	0.597069	0.163724
	H6	H	0.285887	0.598499	0.836353
	H7	H	0.287493	0.403234	0.163757
	H8	H	0.836678	0.713833	0.402878
	H9	H	0.163535	0.714833	0.598676
	H10	H	0.837096	0.285753	0.598078
	H11	H	0.164177	0.286101	0.402021
	H12	H	0.835750	0.402628	0.713237
	H13	H	0.164091	0.596637	0.712956
	H14	H	0.836051	0.597036	0.286696
	H15	H	0.164091	0.402199	0.286192
	H16	H	0.401382	0.714748	0.836757
	H17	H	0.599603	0.715084	0.162960
	H18	H	0.597777	0.286123	0.835755
	H19	H	0.402930	0.286006	0.163519
	H20	H	0.713955	0.837251	0.401962
	H21	H	0.713689	0.163668	0.597275
	H22	H	0.285837	0.836822	0.597102
	H23	H	0.287295	0.164205	0.403487
	H24	H	0.901879	0.336374	0.214147
	H25	H	0.096806	0.662913	0.214025
	H26	H	0.097354	0.336590	0.785310
	H27	H	0.901049	0.663162	0.784791
	H28	H	0.213871	0.903601	0.336029
	H29	H	0.213639	0.097796	0.664328
	H30	H	0.786127	0.097520	0.336075
	H31	H	0.786897	0.903606	0.663551
	H32	H	0.336431	0.213813	0.901989
	H33	H	0.663806	0.214175	0.098079
	H34	H	0.336488	0.785731	0.097598
	H35	H	0.662858	0.785421	0.902087
	H36	H	0.336290	0.902491	0.213609
	H37	H	0.663970	0.097251	0.213682
	H38	H	0.335634	0.096232	0.787787
	H39	H	0.663546	0.903246	0.787347
	H40	H	0.901999	0.214240	0.336071
	H41	H	0.097873	0.214686	0.663588
	H42	H	0.099059	0.785614	0.336270
	H43	H	0.901882	0.786377	0.663641
	H44	H	0.213295	0.336412	0.902725
	H45	H	0.213623	0.662979	0.098285
	H46	H	0.785944	0.336233	0.096820
	H47	H	0.785590	0.663734	0.902578
	H48	H	0.407176	0.116030	0.594955
	H49	H	0.595281	0.883003	0.595050
	H50	H	0.587464	0.115464	0.405426
	H51	H	0.411202	0.882198	0.394313
	H52	H	0.590806	0.405901	0.116174
	H53	H	0.596444	0.593347	0.882368
	H54	H	0.409034	0.598499	0.117316
	H55	H	0.406369	0.403084	0.882091
	H56	H	0.113610	0.591380	0.414298
	H57	H	0.884182	0.589221	0.594943
	H58	H	0.119957	0.399466	0.597900
	H59	H	0.882754	0.403509	0.407203
	H60	H	0.114345	0.405581	0.584811
	H61	H	0.881196	0.597486	0.595490
	H62	H	0.117608	0.587244	0.401064
	H63	H	0.884759	0.407349	0.408748
	H64	H	0.401738	0.591905	0.117497
	H65	H	0.591496	0.589779	0.885420
	H66	H	0.594586	0.404042	0.117444
	H67	H	0.403482	0.408106	0.882856
	H68	H	0.594383	0.115238	0.412614
	H69	H	0.592716	0.883577	0.594797
	H70	H	0.405646	0.116441	0.594845
	H71	H	0.413221	0.888506	0.416582
	H72	H	0.897294	0.619583	0.096545
	H73	H	0.091903	0.382876	0.097928
	H74	H	0.088406	0.613136	0.911237
	H75	H	0.908322	0.384536	0.907617
	H76	H	0.095607	0.909505	0.615990
	H77	H	0.097814	0.088989	0.383403
	H78	H	0.904926	0.100172	0.618501
	H79	H	0.902314	0.913902	0.383519
	H80	H	0.615340	0.091501	0.908964
	H81	H	0.382329	0.095352	0.097636
	H82	H	0.613933	0.909571	0.087361
	H83	H	0.382029	0.899147	0.910780
	H84	H	0.617408	0.909875	0.099159
	H85	H	0.383287	0.096457	0.090422
	H86	H	0.617791	0.092688	0.904462
	H87	H	0.386013	0.912001	0.909312
	H88	H	0.902562	0.089163	0.616166
	H89	H	0.087137	0.092042	0.385978
	H90	H	0.089642	0.906833	0.615602
	H91	H	0.915194	0.904623	0.385424
	H92	H	0.101100	0.617535	0.908995
	H93	H	0.091109	0.385078	0.089971
	H94	H	0.912997	0.615892	0.100687
	H95	H	0.905324	0.384489	0.906936
	H96	H	0.406125	0.116758	0.596262
	H97	H	0.594362	0.884228	0.592749
	H98	H	0.596637	0.118647	0.403268
	H99	H	0.393052	0.880932	0.408610
	H100	H	0.594800	0.408385	0.116221
	H101	H	0.590286	0.596110	0.883399
	H102	H	0.410476	0.589234	0.114512
	H103	H	0.409439	0.407744	0.884240
	H104	H	0.119236	0.600819	0.405174
	H105	H	0.884475	0.594667	0.587867
	H106	H	0.115163	0.414062	0.597618
	H107	H	0.883902	0.407100	0.404640
	H108	H	0.907612	0.613023	0.085221
	H109	H	0.098296	0.382387	0.092807
	H110	H	0.091749	0.618198	0.898503
	H111	H	0.907444	0.384278	0.904557
	H112	H	0.094970	0.903121	0.617979
	H113	H	0.094651	0.099730	0.381840
	H114	H	0.913180	0.092974	0.614233
	H115	H	0.901674	0.898796	0.379321
	H116	H	0.616684	0.096260	0.908495
	H117	H	0.384621	0.089759	0.093620
	H118	H	0.618291	0.899281	0.092725
	H119	H	0.380713	0.904953	0.898469
	C120	C	0.378350	0.008084	0.622292
	C121	C	0.622199	0.991737	0.622344
	C122	C	0.621135	0.008837	0.378788
	C123	C	0.378145	0.992021	0.378519
	C124	C	0.621594	0.378151	0.008116
	C125	C	0.621437	0.621698	0.991471
	C126	C	0.378589	0.621406	0.008333
	C127	C	0.378450	0.378461	0.991430
	C128	C	0.008349	0.621011	0.378871
	C129	C	0.991501	0.621780	0.621092
	C130	C	0.008254	0.378414	0.621104
	C131	C	0.992030	0.377971	0.378262
	C132	C	0.878001	0.508022	0.122072
	C133	C	0.121638	0.491454	0.121845
	C134	C	0.121541	0.508307	0.878106
	C135	C	0.878353	0.492095	0.877881
	C136	C	0.121567	0.878835	0.508143
	C137	C	0.121426	0.121958	0.491714
	C138	C	0.878887	0.121574	0.507868
	C139	C	0.878799	0.878561	0.491510
	C140	C	0.508264	0.121173	0.879023
	C141	C	0.492138	0.121574	0.121634
	C142	C	0.508274	0.878127	0.121518
	C143	C	0.490944	0.877884	0.878407
	C144	C	0.381798	0.884659	0.675854
	C145	C	0.618528	0.114691	0.676609
	C146	C	0.618072	0.885629	0.324490
	C147	C	0.380983	0.114596	0.323429
	C148	C	0.676149	0.381670	0.884929
	C149	C	0.676295	0.618720	0.114730
	C150	C	0.323729	0.618718	0.885112
	C151	C	0.324250	0.381801	0.114692
	C152	C	0.885277	0.676037	0.381734
	C153	C	0.114833	0.676861	0.619002
	C154	C	0.885213	0.323696	0.618354
	C155	C	0.115168	0.323547	0.381264
	C156	C	0.884898	0.381781	0.675597
	C157	C	0.115096	0.618377	0.675824
	C158	C	0.884967	0.617875	0.324202
	C159	C	0.115080	0.380994	0.323700
	C160	C	0.381456	0.676159	0.885302
	C161	C	0.619362	0.676784	0.114483
	C162	C	0.618656	0.323652	0.884705
	C163	C	0.381762	0.323937	0.114565
	C164	C	0.676039	0.885898	0.381744
	C165	C	0.676242	0.114818	0.618543
	C166	C	0.323403	0.885355	0.618539
	C167	C	0.324132	0.115162	0.382287
	C168	C	0.880920	0.385059	0.176595
	C169	C	0.117963	0.614455	0.176387
	C170	C	0.118195	0.385337	0.823425
	C171	C	0.880598	0.614581	0.822664
	C172	C	0.176172	0.882604	0.384729
	C173	C	0.176139	0.118899	0.615219
	C174	C	0.824145	0.118262	0.384721
	C175	C	0.824410	0.882488	0.614704
	C176	C	0.385148	0.175998	0.881552
	C177	C	0.614946	0.176229	0.118821
	C178	C	0.385195	0.823686	0.118359
	C179	C	0.614352	0.823443	0.881519
	C180	C	0.385108	0.881536	0.175959
	C181	C	0.615056	0.118213	0.176348
	C182	C	0.384778	0.117723	0.824662
	C183	C	0.614691	0.881414	0.824323
	C184	C	0.881551	0.176254	0.384677
	C185	C	0.118680	0.176669	0.615118
	C186	C	0.119150	0.824015	0.384956
	C187	C	0.881652	0.824247	0.614742
	C188	C	0.175998	0.385215	0.881326
	C189	C	0.175844	0.614371	0.118954
	C190	C	0.823540	0.385012	0.118300
	C191	C	0.823410	0.614842	0.881219
	C192	C	0.399928	0.094192	0.601573
	C193	C	0.600574	0.905733	0.600711
	C194	C	0.599097	0.094519	0.400590
	C195	C	0.399672	0.905927	0.400059
	C196	C	0.599911	0.399763	0.094388
	C197	C	0.599338	0.599524	0.905765
	C198	C	0.400591	0.599518	0.094304
	C199	C	0.400042	0.400017	0.905225
	C200	C	0.094612	0.599265	0.400408
	C201	C	0.905578	0.600315	0.599343
	C202	C	0.094367	0.399980	0.599634
	C203	C	0.906053	0.399683	0.400293
	C204	C	0.899671	0.593954	0.100468
	C205	C	0.099965	0.405650	0.100047
	C206	C	0.100091	0.594060	0.899906
	C207	C	0.900412	0.406547	0.899971
	C208	C	0.099764	0.900160	0.594331
	C209	C	0.099722	0.100143	0.405850
	C210	C	0.900600	0.100385	0.594108
	C211	C	0.900200	0.899498	0.405137
	C212	C	0.594354	0.099762	0.900833
	C213	C	0.405555	0.100262	0.100149
	C214	C	0.594411	0.899876	0.099678
	C215	C	0.405160	0.899134	0.899667
	Zn216	Zn	0.500084	-0.000320	0.751216
	Zn217	Zn	0.500180	0.000003	0.250047
	Zn218	Zn	0.749567	0.500112	-0.000048
	Zn219	Zn	0.250054	0.500140	-0.000054
	Zn220	Zn	0.000181	0.750130	0.499874
	Zn221	Zn	0.000171	0.250084	0.499947
	Zn222	Zn	-0.000043	0.500284	0.749079
	Zn223	Zn	0.000091	0.499329	0.250149
	Zn224	Zn	0.499974	0.749646	-0.000234
	Zn225	Zn	0.500054	0.250137	-0.000504
	Zn226	Zn	0.750319	0.000199	0.499619
	Zn227	Zn	0.249749	0.000537	0.500379
	N228	N	0.415275	0.961938	0.678331
	N229	N	0.585406	0.037127	0.678890
	N230	N	0.584475	0.962917	0.322602
	N231	N	0.413897	0.037149	0.321117
	N232	N	0.677818	0.414981	0.962398
	N233	N	0.677790	0.585046	0.037424
	N234	N	0.322030	0.585168	0.962521
	N235	N	0.322147	0.414967	0.037032
	N236	N	0.962983	0.678014	0.414829
	N237	N	0.037182	0.679134	0.585850
	N238	N	0.962799	0.321640	0.585142
	N239	N	0.037448	0.321610	0.414472
	N240	N	0.962488	0.415027	0.677427
	N241	N	0.037547	0.584882	0.677270
	N242	N	0.962512	0.584395	0.322390
	N243	N	0.037619	0.414251	0.321796
	N244	N	0.414643	0.677954	0.962937
	N245	N	0.585909	0.678666	0.036953
	N246	N	0.585547	0.321433	0.962474
	N247	N	0.414810	0.321771	0.037013
	N248	N	0.678143	0.963570	0.414598
	N249	N	0.678599	0.037347	0.585592
	N250	N	0.321282	0.962941	0.585845
	N251	N	0.322431	0.037861	0.415907
	N252	N	0.913894	0.462477	0.179131
	N253	N	0.084727	0.537026	0.178132
	N254	N	0.085354	0.462892	0.820964
	N255	N	0.913993	0.537358	0.820587
	N256	N	0.177804	0.915793	0.462285
	N257	N	0.177804	0.085337	0.537667
	N258	N	0.822612	0.084982	0.462227
	N259	N	0.822778	0.915778	0.537173
	N260	N	0.462800	0.178230	0.914597
	N261	N	0.537380	0.178378	0.085685
	N262	N	0.462860	0.821475	0.085257
	N263	N	0.536674	0.821287	0.914467
	N264	N	0.462670	0.914819	0.177827
	N265	N	0.537514	0.084684	0.177904
	N266	N	0.462304	0.084332	0.823088
	N267	N	0.537265	0.914536	0.822340
	N268	N	0.914864	0.178435	0.462307
	N269	N	0.085319	0.178532	0.537499
	N270	N	0.085704	0.821977	0.462478
	N271	N	0.914789	0.821971	0.537109
	N272	N	0.178128	0.462587	0.914669
	N273	N	0.178182	0.536998	0.085828
	N274	N	0.821562	0.462518	0.085166
	N275	N	0.821979	0.537631	0.915108
