data_Molecule from HDF5

_cell_length_a		16.266752
_cell_length_b		16.478910
_cell_length_c		16.340452
_cell_angle_alpha	89.971252
_cell_angle_beta	89.946119
_cell_angle_gamma	89.974240
_symmetry_space_group_name_H-M	'P 1'
_symmetry_Int_Tables_number		1

loop_
	_symmetry_equiv_pos_as_xyz
	x,y,z

loop_
	_atom_site_label
	_atom_site_type_symbol
	_atom_site_fract_x
	_atom_site_fract_y
	_atom_site_fract_z
	H0	H	0.392077	0.838641	0.720585
	H1	H	0.600411	0.156845	0.718133
	H2	H	0.603050	0.838110	0.276437
	H3	H	0.392821	0.156398	0.277407
	H4	H	0.716184	0.397044	0.838754
	H5	H	0.716758	0.598880	0.161636
	H6	H	0.276895	0.601118	0.839794
	H7	H	0.279244	0.394855	0.160550
	H8	H	0.836078	0.716831	0.395111
	H9	H	0.156804	0.718643	0.604533
	H10	H	0.835867	0.277727	0.605043
	H11	H	0.156104	0.274051	0.393250
	H12	H	0.834777	0.398454	0.716171
	H13	H	0.160205	0.598572	0.715835
	H14	H	0.836774	0.601888	0.279512
	H15	H	0.158673	0.395268	0.283048
	H16	H	0.391183	0.718043	0.840506
	H17	H	0.606237	0.719810	0.158524
	H18	H	0.604312	0.278264	0.839598
	H19	H	0.394682	0.278324	0.160841
	H20	H	0.715863	0.836907	0.395575
	H21	H	0.715087	0.157359	0.600052
	H22	H	0.279682	0.836149	0.600248
	H23	H	0.275468	0.155566	0.393136
	H24	H	0.892136	0.338878	0.222108
	H25	H	0.103425	0.655563	0.221815
	H26	H	0.103136	0.338077	0.779015
	H27	H	0.894381	0.656372	0.779883
	H28	H	0.215337	0.893741	0.337878
	H29	H	0.216397	0.099744	0.658928
	H30	H	0.779762	0.098301	0.337576
	H31	H	0.777480	0.894642	0.659713
	H32	H	0.337810	0.219350	0.895736
	H33	H	0.660043	0.214879	0.101371
	H34	H	0.337240	0.775046	0.105078
	H35	H	0.658039	0.776334	0.892956
	H36	H	0.334283	0.896403	0.215041
	H37	H	0.658962	0.098733	0.216592
	H38	H	0.334966	0.101143	0.781997
	H39	H	0.658749	0.895667	0.779939
	H40	H	0.888358	0.219389	0.341430
	H41	H	0.101818	0.216203	0.659115
	H42	H	0.102734	0.774350	0.339784
	H43	H	0.889871	0.776232	0.658802
	H44	H	0.216289	0.336960	0.897901
	H45	H	0.217900	0.655754	0.103396
	H46	H	0.779444	0.337302	0.103226
	H47	H	0.779189	0.657041	0.897668
	H48	H	0.410456	0.109842	0.592549
	H49	H	0.580906	0.884547	0.592976
	H50	H	0.596332	0.112136	0.410722
	H51	H	0.410390	0.886388	0.410651
	H52	H	0.593314	0.407097	0.116644
	H53	H	0.588857	0.593696	0.883646
	H54	H	0.419355	0.585432	0.109675
	H55	H	0.410898	0.407271	0.886412
	H56	H	0.105080	0.578722	0.422531
	H57	H	0.882054	0.590764	0.586535
	H58	H	0.109319	0.409548	0.583688
	H59	H	0.880775	0.403307	0.409304
	H60	H	0.113999	0.406913	0.596964
	H61	H	0.884602	0.583335	0.588900
	H62	H	0.112366	0.580496	0.401466
	H63	H	0.883212	0.406627	0.415783
	H64	H	0.407515	0.593575	0.116754
	H65	H	0.593663	0.582899	0.885765
	H66	H	0.585312	0.407166	0.112913
	H67	H	0.409163	0.405026	0.884598
	H68	H	0.585136	0.112438	0.397363
	H69	H	0.585777	0.885569	0.583673
	H70	H	0.406659	0.108477	0.584485
	H71	H	0.403029	0.883838	0.408204
	H72	H	0.902896	0.608973	0.081313
	H73	H	0.086797	0.383720	0.092812
	H74	H	0.088987	0.611777	0.904417
	H75	H	0.914122	0.384102	0.902378
	H76	H	0.080019	0.899568	0.613308
	H77	H	0.092109	0.087972	0.382204
	H78	H	0.905678	0.083360	0.613562
	H79	H	0.904744	0.905036	0.383375
	H80	H	0.611462	0.085941	0.910863
	H81	H	0.383223	0.093409	0.080093
	H82	H	0.609670	0.909320	0.082372
	H83	H	0.384573	0.910705	0.912007
	H84	H	0.612391	0.910623	0.092020
	H85	H	0.385543	0.080538	0.086960
	H86	H	0.613416	0.087437	0.903458
	H87	H	0.382111	0.907037	0.907457
	H88	H	0.909955	0.087515	0.612804
	H89	H	0.082546	0.078914	0.388334
	H90	H	0.094629	0.905421	0.616326
	H91	H	0.907742	0.909287	0.386005
	H92	H	0.083124	0.608392	0.909478
	H93	H	0.086815	0.384215	0.089392
	H94	H	0.902983	0.614829	0.098547
	H95	H	0.909107	0.386283	0.916479
	H96	H	0.402007	0.112428	0.591685
	H97	H	0.590848	0.881670	0.591688
	H98	H	0.580092	0.106486	0.412527
	H99	H	0.409618	0.883259	0.403685
	H100	H	0.588490	0.400190	0.116683
	H101	H	0.581652	0.585724	0.888349
	H102	H	0.404649	0.578244	0.112185
	H103	H	0.407926	0.407878	0.885973
	H104	H	0.114827	0.597295	0.415344
	H105	H	0.880405	0.588438	0.593656
	H106	H	0.113915	0.396797	0.586941
	H107	H	0.882652	0.410963	0.408920
	H108	H	0.918315	0.607203	0.091228
	H109	H	0.090436	0.382844	0.091279
	H110	H	0.090687	0.610778	0.912995
	H111	H	0.899635	0.380025	0.905981
	H112	H	0.083549	0.915332	0.609048
	H113	H	0.078298	0.091844	0.385347
	H114	H	0.904499	0.089087	0.615006
	H115	H	0.909903	0.903999	0.384919
	H116	H	0.613708	0.093093	0.908790
	H117	H	0.379654	0.091907	0.094134
	H118	H	0.612702	0.902055	0.087643
	H119	H	0.382668	0.904260	0.913194
	C120	C	0.374675	0.005357	0.620729
	C121	C	0.617710	0.989284	0.620039
	C122	C	0.619008	0.005038	0.375797
	C123	C	0.375585	0.989219	0.375918
	C124	C	0.620252	0.375379	0.008596
	C125	C	0.620291	0.618603	0.991439
	C126	C	0.377333	0.617983	0.007906
	C127	C	0.377394	0.375650	0.991423
	C128	C	0.005317	0.617994	0.379897
	C129	C	0.988507	0.619038	0.621029
	C130	C	0.005625	0.375027	0.620910
	C131	C	0.988176	0.375212	0.379084
	C132	C	0.876526	0.505211	0.122020
	C133	C	0.119705	0.488712	0.122117
	C134	C	0.119579	0.505287	0.877757
	C135	C	0.876749	0.489103	0.878197
	C136	C	0.118063	0.875108	0.507143
	C137	C	0.117237	0.117812	0.490403
	C138	C	0.875085	0.117794	0.507997
	C139	C	0.874984	0.874991	0.490598
	C140	C	0.506214	0.120258	0.877076
	C141	C	0.489533	0.118602	0.119095
	C142	C	0.505157	0.875746	0.119675
	C143	C	0.489400	0.876402	0.878796
	C144	C	0.373258	0.885825	0.680097
	C145	C	0.618642	0.109240	0.678306
	C146	C	0.620569	0.885474	0.316735
	C147	C	0.374193	0.108728	0.316958
	C148	C	0.677903	0.376690	0.887269
	C149	C	0.678530	0.618717	0.112752
	C150	C	0.316729	0.619698	0.887839
	C151	C	0.318613	0.375394	0.112607
	C152	C	0.884383	0.677732	0.376908
	C153	C	0.109337	0.678397	0.622653
	C154	C	0.884128	0.317608	0.622790
	C155	C	0.108363	0.314791	0.375956
	C156	C	0.883692	0.377381	0.678503
	C157	C	0.110713	0.618696	0.678134
	C158	C	0.884791	0.620249	0.319484
	C159	C	0.109686	0.374765	0.320721
	C160	C	0.373469	0.678260	0.888213
	C161	C	0.623369	0.678955	0.111343
	C162	C	0.622054	0.317695	0.887708
	C163	C	0.376046	0.317449	0.112622
	C164	C	0.677086	0.884898	0.375781
	C165	C	0.675992	0.109458	0.619537
	C166	C	0.317388	0.884668	0.620148
	C167	C	0.315741	0.108334	0.374492
	C168	C	0.874155	0.386208	0.182126
	C169	C	0.121617	0.607867	0.181796
	C170	C	0.121168	0.385592	0.818873
	C171	C	0.875635	0.609048	0.819895
	C172	C	0.176792	0.874241	0.386329
	C173	C	0.177041	0.118903	0.610899
	C174	C	0.817323	0.118471	0.386793
	C175	C	0.816053	0.875044	0.611353
	C176	C	0.385465	0.179463	0.876783
	C177	C	0.611438	0.175819	0.120049
	C178	C	0.384735	0.815849	0.122145
	C179	C	0.610272	0.817119	0.875807
	C180	C	0.383414	0.876027	0.177188
	C181	C	0.610966	0.117918	0.177284
	C182	C	0.384139	0.120414	0.820253
	C183	C	0.610595	0.876376	0.819458
	C184	C	0.871839	0.178348	0.388351
	C185	C	0.119597	0.176713	0.611109
	C186	C	0.120724	0.814812	0.387255
	C187	C	0.872394	0.816212	0.610962
	C188	C	0.177862	0.385144	0.877802
	C189	C	0.178776	0.608221	0.122891
	C190	C	0.818271	0.385375	0.122657
	C191	C	0.818054	0.609091	0.878294
	C192	C	0.399224	0.088674	0.596450
	C193	C	0.592992	0.905720	0.596310
	C194	C	0.594282	0.088533	0.399863
	C195	C	0.400550	0.905987	0.400443
	C196	C	0.595947	0.398279	0.093309
	C197	C	0.595279	0.594507	0.907668
	C198	C	0.403195	0.593118	0.091195
	C199	C	0.402160	0.399806	0.907499
	C200	C	0.088861	0.592992	0.405778
	C201	C	0.904333	0.594665	0.596696
	C202	C	0.090388	0.397942	0.596301
	C203	C	0.904128	0.399868	0.404145
	C204	C	0.901012	0.588725	0.097561
	C205	C	0.095219	0.405354	0.097998
	C206	C	0.094858	0.588482	0.902050
	C207	C	0.900798	0.405274	0.901399
	C208	C	0.093154	0.899705	0.591016
	C209	C	0.091866	0.093268	0.407038
	C210	C	0.899429	0.093603	0.591900
	C211	C	0.900329	0.899224	0.406769
	C212	C	0.590926	0.095879	0.900808
	C213	C	0.404825	0.095360	0.094388
	C214	C	0.589722	0.900162	0.094604
	C215	C	0.405185	0.900400	0.903701
	Zn216	Zn	0.496289	-0.002546	0.749498
	Zn217	Zn	0.497244	-0.002760	0.246980
	Zn218	Zn	0.747929	0.496552	0.000491
	Zn219	Zn	0.248662	0.496641	-0.000182
	Zn220	Zn	-0.003548	0.746862	0.499489
	Zn221	Zn	-0.004057	0.246391	0.499760
	Zn222	Zn	-0.001669	0.497225	0.748785
	Zn223	Zn	-0.002534	0.497303	0.251314
	Zn224	Zn	0.498060	0.746835	-0.000436
	Zn225	Zn	0.498621	0.247532	-0.000443
	Zn226	Zn	0.746763	-0.003292	0.498153
	Zn227	Zn	0.246580	-0.003294	0.498154
	N228	N	0.408120	0.961814	0.680677
	N229	N	0.583244	0.033454	0.678856
	N230	N	0.585192	0.961198	0.316803
	N231	N	0.410709	0.033651	0.317934
	N232	N	0.676942	0.411588	0.963515
	N233	N	0.676698	0.581860	0.037288
	N234	N	0.319022	0.582865	0.963223
	N235	N	0.319429	0.410948	0.036539
	N236	N	0.960382	0.676374	0.413883
	N237	N	0.032229	0.679169	0.588290
	N238	N	0.961072	0.315738	0.588035
	N239	N	0.031738	0.314984	0.411422
	N240	N	0.960482	0.412158	0.677586
	N241	N	0.034652	0.582551	0.677297
	N242	N	0.960748	0.583703	0.321249
	N243	N	0.033868	0.411715	0.322402
	N244	N	0.410610	0.677201	0.963784
	N245	N	0.587800	0.679137	0.035018
	N246	N	0.586883	0.316763	0.964333
	N247	N	0.411999	0.317509	0.036215
	N248	N	0.676280	0.960375	0.411888
	N249	N	0.675458	0.033786	0.584111
	N250	N	0.318107	0.960029	0.583984
	N251	N	0.316575	0.033175	0.410651
	N252	N	0.909678	0.461887	0.181924
	N253	N	0.085726	0.532417	0.181677
	N254	N	0.085591	0.461181	0.818781
	N255	N	0.911165	0.533342	0.819465
	N256	N	0.174977	0.911155	0.461745
	N257	N	0.175913	0.082874	0.534943
	N258	N	0.819174	0.081363	0.462090
	N259	N	0.817467	0.910817	0.535435
	N260	N	0.462529	0.179536	0.911170
	N261	N	0.534881	0.176364	0.084784
	N262	N	0.461787	0.815608	0.087275
	N263	N	0.533890	0.817057	0.911935
	N264	N	0.459525	0.912194	0.175892
	N265	N	0.534217	0.082892	0.176647
	N266	N	0.460301	0.084124	0.820429
	N267	N	0.534507	0.912719	0.821292
	N268	N	0.907082	0.178262	0.464728
	N269	N	0.083381	0.176373	0.535268
	N270	N	0.084781	0.815301	0.463453
	N271	N	0.908225	0.815959	0.534793
	N272	N	0.177216	0.460698	0.913715
	N273	N	0.177571	0.533092	0.086590
	N274	N	0.819629	0.460325	0.086077
	N275	N	0.818754	0.533489	0.914002
	O276	O	1.096394	0.884978	0.051543
	H277	H	1.081804	0.874717	0.048778
	H278	H	1.086917	0.877255	0.036281
	O279	O	0.476862	0.603414	0.313210
	H280	H	0.465758	0.609635	0.308758
	H281	H	0.457896	0.608459	0.307720
	O282	O	0.520677	0.439204	0.630428
	H283	H	0.519316	0.451808	0.624359
	H284	H	0.506008	0.442540	0.632073
	O285	O	1.023579	0.046468	-0.146309
	H286	H	1.034666	0.043210	-0.145624
	H287	H	1.029821	0.065680	-0.148485
	O288	O	-0.046750	0.047202	0.924423
	H289	H	-0.056072	0.064929	0.925053
	H290	H	-0.030923	0.030945	0.919061
	O291	O	0.604902	0.386790	0.596205
	H292	H	0.610298	0.394307	0.572339
	H293	H	0.604993	0.389443	0.593855
	O294	O	0.465148	0.485705	0.473487
	H295	H	0.464007	0.491421	0.473411
	H296	H	0.456265	0.475559	0.480847
	O297	O	1.046481	0.861307	1.072897
	H298	H	1.049581	0.861531	1.072182
	H299	H	1.027687	0.861778	1.061903
	O300	O	-0.169775	-0.152704	0.037684
	H301	H	-0.169102	-0.157594	0.056003
	H302	H	-0.179092	-0.152352	0.048732
	O303	O	0.353069	0.352857	0.628605
	H304	H	0.354222	0.360366	0.637646
	H305	H	0.358267	0.357327	0.627362
	O306	O	1.149159	-0.042271	0.172251
	H307	H	1.147159	-0.035814	0.148948
	H308	H	1.144539	-0.021486	0.179313
	O309	O	0.333775	0.677367	0.420997
	H310	H	0.341232	0.665181	0.429649
	H311	H	0.329903	0.682756	0.431576
	O312	O	0.902136	1.151096	0.057500
	H313	H	0.911033	1.154664	0.049200
	H314	H	0.901410	1.150420	0.064862
	O315	O	0.413542	0.559906	0.703792
	H316	H	0.413000	0.572210	0.702779
	H317	H	0.415185	0.565002	0.713234
	O318	O	0.606674	0.434094	0.589939
	H319	H	0.592442	0.443401	0.592163
	H320	H	0.606631	0.432874	0.592696
	O321	O	0.898556	0.124739	1.091031
	H322	H	0.895753	0.135569	1.079782
	H323	H	0.904044	0.140778	1.088413
	O324	O	0.469958	0.431535	0.528849
	H325	H	0.469820	0.438704	0.528842
	H326	H	0.461162	0.419189	0.544820
	O327	O	0.445266	0.556876	0.549660
	H328	H	0.439862	0.551486	0.531071
	H329	H	0.439687	0.554014	0.543867
	O330	O	0.348410	0.506354	0.367561
	H331	H	0.339822	0.510612	0.381674
	H332	H	0.339280	0.514255	0.371939
	O333	O	0.830405	1.118219	0.816754
	H334	H	0.828236	1.108020	0.824227
	H335	H	0.815289	1.130356	0.824411
	O336	O	0.686336	0.655392	0.640863
	H337	H	0.694491	0.654336	0.627015
	H338	H	0.703350	0.657882	0.644817
	O339	O	0.950064	-0.074279	0.850971
	H340	H	0.952334	-0.071023	0.860388
	H341	H	0.943867	-0.092173	0.844120
	O342	O	-0.013676	0.799587	1.050225
	H343	H	-0.020292	0.795249	1.055863
	H344	H	-0.011202	0.793069	1.039350
	O345	O	0.167223	0.854031	0.838708
	H346	H	0.166730	0.874792	0.822598
	H347	H	0.159252	0.844816	0.838711
	O348	O	0.546049	0.381022	0.396595
	H349	H	0.523277	0.375825	0.388161
	H350	H	0.549896	0.394281	0.390542
	O351	O	0.523716	-0.687406	-0.563955
	H352	H	0.516910	-0.689588	-0.546300
	H353	H	0.526376	-0.676653	-0.569065
	O354	O	1.130241	1.074125	0.108934
	H355	H	1.142310	1.077253	0.110922
	H356	H	1.124494	1.064170	0.109775
	O357	O	-0.063229	0.918505	0.093448
	H358	H	-0.042195	0.917943	0.095755
	H359	H	-0.073599	0.929487	0.094258
	O360	O	0.107804	0.892927	0.951211
	H361	H	0.109250	0.893358	0.955386
	H362	H	0.115632	0.905347	0.951074
	O363	O	0.405240	0.354348	0.546624
	H364	H	0.422974	0.359382	0.545226
	H365	H	0.412774	0.359227	0.552639
	O366	O	0.440217	0.335383	0.452156
	H367	H	0.442015	0.334055	0.464999
	H368	H	0.448714	0.335422	0.450885
	O369	O	0.660026	0.454952	0.415369
	H370	H	0.662534	0.463122	0.416849
	H371	H	0.649070	0.456468	0.416293
	O372	O	0.563989	0.696076	0.689073
	H373	H	0.566665	0.696628	0.697880
	H374	H	0.600681	0.698520	0.692324
	O375	O	0.396775	0.571096	0.602581
	H376	H	0.410148	0.572566	0.603971
	H377	H	0.406696	0.576071	0.607955
	O378	O	0.561597	0.485147	0.453257
	H379	H	0.579394	0.483757	0.446266
	H380	H	0.566133	0.496093	0.462848
	O381	O	0.342624	0.576057	0.407644
	H382	H	0.349683	0.569058	0.419000
	H383	H	0.328641	0.577836	0.398384
	O384	O	0.086454	1.020894	1.037869
	H385	H	0.077532	1.019580	1.029028
	H386	H	0.072260	1.013149	1.038596
	O387	O	0.967338	0.992188	-0.133305
	H388	H	0.983693	0.996954	-0.128048
	H389	H	0.967892	0.991316	-0.129193
	O390	O	0.494011	0.485631	0.457417
	H391	H	0.494853	0.478310	0.462783
	H392	H	0.495379	0.483165	0.465536
	O393	O	0.836838	-0.106639	0.929217
	H394	H	0.834670	-0.118827	0.935111
	H395	H	0.822776	-0.089568	0.916071
	O396	O	0.151217	1.050520	1.058358
	H397	H	0.157158	1.042573	1.078466
	H398	H	0.145341	1.039967	1.061262
	O399	O	0.690574	0.366743	0.448468
	H400	H	0.690062	0.361769	0.445656
	H401	H	0.673354	0.370077	0.432926
	O402	O	0.981688	0.149144	0.948065
	H403	H	0.993973	0.149663	0.946187
	H404	H	0.988611	0.156050	0.940603
	O405	O	0.010385	-0.035744	0.055642
	H406	H	0.006617	-0.042068	0.046129
	H407	H	0.011320	-0.033923	0.065160
	O408	O	0.831048	1.083349	1.069307
	H409	H	0.823492	1.084760	1.083454
	H410	H	0.825658	1.072614	1.068918
	O411	O	1.182528	1.159944	-0.004730
	H412	H	1.179406	1.166002	-0.003515
	H413	H	1.189166	1.168686	0.004879
	O414	O	-0.622478	-0.299160	1.328377
	H415	H	-0.645338	-0.284880	1.316397
	H416	H	-0.630487	-0.305881	1.336781
	O417	O	0.623549	0.673998	0.510243
	H418	H	0.625085	0.680964	0.504165
	H419	H	0.614975	0.680118	0.492969
	O420	O	-0.117272	0.938358	0.184695
	H421	H	-0.106824	0.935899	0.185104
	H422	H	-0.126405	0.967822	0.189051
	O423	O	0.902313	0.212241	-0.142702
	H424	H	0.894674	0.223738	-0.145118
	H425	H	0.881903	0.231120	-0.159015
	O426	O	0.032334	-0.157978	0.845000
	H427	H	0.043708	-0.164680	0.833488
	H428	H	0.015775	-0.154732	0.835825
	O429	O	0.538892	0.537487	0.449506
	H430	H	0.518809	0.541246	0.452325
	H431	H	0.539462	0.524446	0.441826
