data_Molecule from HDF5

_cell_length_a		16.509297
_cell_length_b		16.442255
_cell_length_c		16.540052
_cell_angle_alpha	90.117993
_cell_angle_beta	89.794918
_cell_angle_gamma	90.087841
_symmetry_space_group_name_H-M	'P 1'
_symmetry_Int_Tables_number		1

loop_
	_symmetry_equiv_pos_as_xyz
	x,y,z

loop_
	_atom_site_label
	_atom_site_type_symbol
	_atom_site_fract_x
	_atom_site_fract_y
	_atom_site_fract_z
	H0	H	0.394564	0.855360	0.715343
	H1	H	0.605919	0.171250	0.715323
	H2	H	0.609168	0.856557	0.269816
	H3	H	0.396985	0.170366	0.274018
	H4	H	0.725439	0.403019	0.837240
	H5	H	0.723366	0.619205	0.149602
	H6	H	0.279316	0.617283	0.836181
	H7	H	0.276841	0.406349	0.150276
	H8	H	0.841314	0.731548	0.392725
	H9	H	0.157898	0.734830	0.598262
	H10	H	0.844029	0.286426	0.603300
	H11	H	0.157685	0.293152	0.390046
	H12	H	0.844063	0.402559	0.719180
	H13	H	0.158100	0.617564	0.714169
	H14	H	0.842940	0.619170	0.272506
	H15	H	0.156473	0.407516	0.271279
	H16	H	0.396918	0.732737	0.835797
	H17	H	0.606892	0.735246	0.148945
	H18	H	0.605401	0.291525	0.834851
	H19	H	0.397179	0.293075	0.150939
	H20	H	0.721832	0.855338	0.388737
	H21	H	0.724062	0.170225	0.600888
	H22	H	0.278029	0.854536	0.599531
	H23	H	0.279802	0.169833	0.389134
	H24	H	0.893755	0.353933	0.216108
	H25	H	0.103592	0.670745	0.214640
	H26	H	0.106070	0.354500	0.771675
	H27	H	0.896563	0.668614	0.772933
	H28	H	0.222134	0.907342	0.335672
	H29	H	0.221191	0.117779	0.650143
	H30	H	0.780700	0.116764	0.335575
	H31	H	0.777893	0.907558	0.649656
	H32	H	0.343302	0.232369	0.891041
	H33	H	0.658152	0.236393	0.099205
	H34	H	0.344882	0.789203	0.101570
	H35	H	0.658897	0.793207	0.889212
	H36	H	0.345109	0.906432	0.217307
	H37	H	0.658045	0.121776	0.216449
	H38	H	0.344603	0.119220	0.771905
	H39	H	0.658019	0.908186	0.771891
	H40	H	0.897803	0.231796	0.334905
	H41	H	0.103616	0.233454	0.650308
	H42	H	0.104524	0.791906	0.335630
	H43	H	0.897553	0.793905	0.651463
	H44	H	0.218384	0.353356	0.891629
	H45	H	0.220190	0.671196	0.098590
	H46	H	0.778760	0.353093	0.099984
	H47	H	0.780379	0.668493	0.890320
	H48	H	0.407627	0.126306	0.579614
	H49	H	0.587828	0.902083	0.577573
	H50	H	0.589125	0.127046	0.402065
	H51	H	0.414871	0.899237	0.402921
	H52	H	0.592154	0.428894	0.104395
	H53	H	0.595396	0.594575	0.880890
	H54	H	0.405596	0.594534	0.104439
	H55	H	0.410689	0.417133	0.879361
	H56	H	0.111335	0.602152	0.406923
	H57	H	0.887991	0.599641	0.587179
	H58	H	0.110500	0.431787	0.588201
	H59	H	0.888310	0.428511	0.403391
	H60	H	0.115746	0.415764	0.585535
	H61	H	0.886610	0.604366	0.583593
	H62	H	0.112090	0.599032	0.401249
	H63	H	0.885124	0.419669	0.402422
	H64	H	0.418644	0.599740	0.102666
	H65	H	0.583576	0.598725	0.884039
	H66	H	0.583733	0.424313	0.102913
	H67	H	0.404408	0.425238	0.879695
	H68	H	0.589398	0.125097	0.406478
	H69	H	0.593031	0.899886	0.582436
	H70	H	0.411920	0.126366	0.587423
	H71	H	0.412703	0.900758	0.406858
	H72	H	0.915394	0.623432	0.088193
	H73	H	0.087916	0.400921	0.082049
	H74	H	0.090464	0.624469	0.909097
	H75	H	0.911841	0.398491	0.907598
	H76	H	0.088738	0.925336	0.604866
	H77	H	0.097665	0.093937	0.380462
	H78	H	0.916118	0.101278	0.604064
	H79	H	0.915553	0.926630	0.383229
	H80	H	0.611046	0.097003	0.907208
	H81	H	0.390093	0.098520	0.085451
	H82	H	0.613089	0.921253	0.078386
	H83	H	0.392028	0.927440	0.912943
	H84	H	0.610909	0.928663	0.079576
	H85	H	0.388762	0.103479	0.085369
	H86	H	0.614554	0.100063	0.900206
	H87	H	0.387110	0.929183	0.895850
	H88	H	0.909394	0.100836	0.605872
	H89	H	0.081736	0.099954	0.383802
	H90	H	0.089632	0.922110	0.606404
	H91	H	0.912498	0.915419	0.379149
	H92	H	0.093812	0.628048	0.900707
	H93	H	0.090166	0.398524	0.082700
	H94	H	0.913025	0.622326	0.076787
	H95	H	0.913314	0.397294	0.903748
	H96	H	0.415957	0.122894	0.580517
	H97	H	0.586230	0.901042	0.585122
	H98	H	0.593783	0.126520	0.404236
	H99	H	0.410836	0.897931	0.403680
	H100	H	0.591358	0.419648	0.107574
	H101	H	0.592150	0.606828	0.878474
	H102	H	0.408766	0.607825	0.108240
	H103	H	0.413764	0.426057	0.883434
	H104	H	0.114455	0.605087	0.401697
	H105	H	0.889763	0.599738	0.580890
	H106	H	0.107801	0.424386	0.573271
	H107	H	0.888653	0.422409	0.410723
	H108	H	0.905025	0.626658	0.084167
	H109	H	0.087642	0.398796	0.084748
	H110	H	0.084371	0.625374	0.901737
	H111	H	0.915511	0.400089	0.906308
	H112	H	0.091705	0.924539	0.606422
	H113	H	0.093486	0.110093	0.376675
	H114	H	0.912639	0.095259	0.603500
	H115	H	0.904505	0.924488	0.378765
	H116	H	0.614440	0.105076	0.907114
	H117	H	0.389878	0.100966	0.080815
	H118	H	0.614552	0.924508	0.084926
	H119	H	0.384817	0.913463	0.904202
	C120	C	0.379032	0.021074	0.615243
	C121	C	0.621799	1.004867	0.614694
	C122	C	0.623044	0.021982	0.371555
	C123	C	0.380587	1.003682	0.372871
	C124	C	0.621851	0.391082	0.001283
	C125	C	0.622834	0.632979	0.984579
	C126	C	0.378962	0.633665	0.001624
	C127	C	0.378300	0.390865	0.984934
	C128	C	0.008292	0.634224	0.372289
	C129	C	0.992330	0.633785	0.615210
	C130	C	0.008088	0.390353	0.615734
	C131	C	0.991388	0.391618	0.372889
	C132	C	0.878228	0.519926	0.115663
	C133	C	0.120653	0.503931	0.115084
	C134	C	0.121634	0.521193	0.872085
	C135	C	0.880683	0.502696	0.873235
	C136	C	0.122215	0.891246	0.502005
	C137	C	0.122176	0.133697	0.484240
	C138	C	0.880056	0.132869	0.501220
	C139	C	0.878954	0.890793	0.484825
	C140	C	0.509630	0.133563	0.872678
	C141	C	0.493326	0.134591	0.115700
	C142	C	0.509693	0.891255	0.114854
	C143	C	0.492205	0.891797	0.872466
	C144	C	0.376117	0.902608	0.675742
	C145	C	0.624379	0.123700	0.675633
	C146	C	0.626619	0.903659	0.310514
	C147	C	0.378653	0.122835	0.313675
	C148	C	0.683813	0.386323	0.883703
	C149	C	0.683373	0.636880	0.102175
	C150	C	0.319238	0.635904	0.883491
	C151	C	0.317873	0.388454	0.103216
	C152	C	0.889369	0.693073	0.372537
	C153	C	0.110832	0.694194	0.616704
	C154	C	0.890927	0.327548	0.620318
	C155	C	0.110360	0.332688	0.370961
	C156	C	0.891095	0.385275	0.678362
	C157	C	0.111108	0.635876	0.674156
	C158	C	0.889774	0.636775	0.313106
	C159	C	0.109685	0.389679	0.312272
	C160	C	0.377584	0.693592	0.883411
	C161	C	0.625255	0.694656	0.102038
	C162	C	0.624250	0.330591	0.882747
	C163	C	0.377434	0.331867	0.103566
	C164	C	0.682656	0.902982	0.369613
	C165	C	0.682976	0.123267	0.618386
	C166	C	0.318604	0.902144	0.617701
	C167	C	0.320362	0.122615	0.371041
	C168	C	0.875830	0.401220	0.175948
	C169	C	0.122639	0.623218	0.174858
	C170	C	0.124054	0.401951	0.812019
	C171	C	0.877840	0.621264	0.812939
	C172	C	0.181842	0.889153	0.382983
	C173	C	0.181213	0.135935	0.602891
	C174	C	0.820221	0.135397	0.382864
	C175	C	0.818409	0.889006	0.602766
	C176	C	0.390770	0.193105	0.871776
	C177	C	0.611032	0.195855	0.117636
	C178	C	0.391926	0.829842	0.119101
	C179	C	0.611215	0.832486	0.870583
	C180	C	0.392174	0.888164	0.176820
	C181	C	0.611160	0.138628	0.176027
	C182	C	0.391317	0.136792	0.812643
	C183	C	0.610686	0.889455	0.811990
	C184	C	0.878580	0.192529	0.382461
	C185	C	0.122882	0.193625	0.603004
	C186	C	0.123527	0.831682	0.383021
	C187	C	0.877912	0.832736	0.603926
	C188	C	0.179811	0.401313	0.871663
	C189	C	0.180294	0.623555	0.116866
	C190	C	0.818516	0.400716	0.118040
	C191	C	0.820326	0.621377	0.871169
	C192	C	0.404468	0.103575	0.589809
	C193	C	0.596290	0.922494	0.589026
	C194	C	0.597875	0.104775	0.396968
	C195	C	0.405631	0.920861	0.397509
	C196	C	0.596523	0.417069	0.083449
	C197	C	0.597559	0.607081	0.902511
	C198	C	0.403965	0.608143	0.083870
	C199	C	0.402530	0.415748	0.902395
	C200	C	0.091115	0.609243	0.396225
	C201	C	0.909693	0.608439	0.590897
	C202	C	0.089990	0.416573	0.589619
	C203	C	0.908845	0.416567	0.398385
	C204	C	0.903744	0.602561	0.090386
	C205	C	0.095835	0.421066	0.090177
	C206	C	0.096842	0.604288	0.896753
	C207	C	0.906255	0.419997	0.898619
	C208	C	0.097180	0.916689	0.584364
	C209	C	0.097925	0.108620	0.401888
	C210	C	0.905376	0.106744	0.583055
	C211	C	0.903801	0.915025	0.402035
	C212	C	0.591941	0.108030	0.897500
	C213	C	0.410931	0.108493	0.091056
	C214	C	0.591625	0.917370	0.088640
	C215	C	0.409667	0.916196	0.897329
	Zn216	Zn	0.501086	0.013041	0.743712
	Zn217	Zn	0.502229	0.012855	0.243838
	Zn218	Zn	0.751222	0.510629	-0.006368
	Zn219	Zn	0.249453	0.512618	-0.006083
	Zn220	Zn	0.000347	0.762381	0.493912
	Zn221	Zn	-0.000178	0.262451	0.493296
	Zn222	Zn	0.000963	0.511839	0.743672
	Zn223	Zn	-0.000809	0.512407	0.243502
	Zn224	Zn	0.500820	0.762209	-0.006964
	Zn225	Zn	0.501537	0.262587	-0.007041
	Zn226	Zn	0.750398	0.012926	0.493491
	Zn227	Zn	0.251132	0.011845	0.493415
	N228	N	0.413038	0.977564	0.674369
	N229	N	0.587149	0.048993	0.673495
	N230	N	0.590317	0.978739	0.311788
	N231	N	0.415413	0.048004	0.314708
	N232	N	0.682279	0.423310	0.958187
	N233	N	0.682088	0.599256	0.028029
	N234	N	0.319762	0.599556	0.958209
	N235	N	0.318101	0.424336	0.028341
	N236	N	0.964111	0.691386	0.408589
	N237	N	0.036101	0.692972	0.580854
	N238	N	0.964845	0.330481	0.581915
	N239	N	0.035832	0.333744	0.407823
	N240	N	0.964950	0.423522	0.675526
	N241	N	0.036385	0.598869	0.673324
	N242	N	0.964843	0.600828	0.312719
	N243	N	0.034636	0.425625	0.313366
	N244	N	0.413851	0.692388	0.958070
	N245	N	0.588186	0.692317	0.027853
	N246	N	0.586219	0.333549	0.956887
	N247	N	0.414060	0.333059	0.028973
	N248	N	0.680719	0.977623	0.406930
	N249	N	0.681414	0.048633	0.581027
	N250	N	0.320095	0.976900	0.580896
	N251	N	0.321376	0.047368	0.407205
	N252	N	0.911977	0.476571	0.174915
	N253	N	0.086595	0.547943	0.174189
	N254	N	0.088870	0.477612	0.812084
	N255	N	0.914413	0.546387	0.814105
	N256	N	0.181406	0.925061	0.458112
	N257	N	0.180887	0.099553	0.528219
	N258	N	0.820858	0.099226	0.457675
	N259	N	0.818751	0.924263	0.527613
	N260	N	0.465280	0.191077	0.908579
	N261	N	0.536607	0.193541	0.080785
	N262	N	0.465975	0.831677	0.081192
	N263	N	0.536565	0.833541	0.907323
	N264	N	0.466601	0.925423	0.174388
	N265	N	0.536854	0.101189	0.174825
	N266	N	0.466163	0.100448	0.813181
	N267	N	0.535638	0.925337	0.812612
	N268	N	0.914767	0.191404	0.457175
	N269	N	0.086988	0.192696	0.528157
	N270	N	0.087359	0.832557	0.458004
	N271	N	0.914380	0.833461	0.529385
	N272	N	0.178721	0.476419	0.908173
	N273	N	0.179332	0.548279	0.080563
	N274	N	0.819635	0.475626	0.081633
	N275	N	0.822003	0.546407	0.907866
	O276	O	0.196925	0.210208	0.190596
	H277	H	0.221470	0.215748	0.202325
	H278	H	0.203560	0.180959	0.202407
	O279	O	0.496152	0.663343	0.361985
	H280	H	0.499486	0.669812	0.355248
	H281	H	0.483212	0.648371	0.365645
	O282	O	1.002718	0.862001	-0.207077
	H283	H	0.988904	0.859133	-0.206450
	H284	H	0.996977	0.858403	-0.208446
	O285	O	0.615458	0.713961	0.644891
	H286	H	0.631383	0.720257	0.611709
	H287	H	0.628557	0.737356	0.670740
	O288	O	-0.180246	0.131908	0.121752
	H289	H	-0.176849	0.139362	0.122179
	H290	H	-0.181206	0.137378	0.126202
	O291	O	1.489629	0.680871	0.617693
	H292	H	1.485691	0.677913	0.632257
	H293	H	1.497648	0.662688	0.606259
	O294	O	0.057722	1.223326	-0.117999
	H295	H	0.066156	1.233281	-0.103654
	H296	H	0.077123	1.229500	-0.117958
	O297	O	0.169726	0.195884	0.999511
	H298	H	0.174848	0.212737	1.027504
	H299	H	0.177179	0.189334	1.009470
	O300	O	0.557785	0.621182	0.392063
	H301	H	0.560431	0.609275	0.385421
	H302	H	0.548611	0.621493	0.391817
	O303	O	0.539299	0.305190	0.602429
	H304	H	0.564579	0.314316	0.593285
	H305	H	0.556750	0.308895	0.607670
	O306	O	0.026169	1.198619	1.013848
	H307	H	0.042160	1.191196	1.017875
	H308	H	0.037185	1.192460	1.029765
	O309	O	0.444955	0.693837	0.460611
	H310	H	0.443358	0.695150	0.455185
	H311	H	0.426154	0.699093	0.469699
	O312	O	0.655839	0.483344	0.670260
	H313	H	0.653665	0.505495	0.663169
	H314	H	0.673799	0.477132	0.680613
	O315	O	-0.097217	-0.193092	0.897302
	H316	H	-0.102278	-0.189388	0.909101
	H317	H	-0.075402	-0.182906	0.909342
	O318	O	0.003110	0.873111	0.086584
	H319	H	-0.013253	0.854610	0.096736
	H320	H	-0.018915	0.867675	0.080202
	O321	O	0.433901	0.333681	0.437173
	H322	H	0.426172	0.326748	0.463512
	H323	H	0.433621	0.334972	0.448038
	O324	O	1.004521	0.020897	0.954616
	H325	H	0.991644	0.037843	0.952702
	H326	H	0.989490	0.020853	0.959914
	O327	O	0.809422	-0.148141	1.156402
	H328	H	0.795478	-0.150276	1.165595
	H329	H	0.803295	-0.116752	1.150589
	O330	O	0.973877	0.026032	0.138064
	H331	H	0.965861	0.023120	0.137943
	H332	H	0.986618	0.011822	0.148231
	O333	O	0.477963	0.630369	0.602656
	H334	H	0.468063	0.625371	0.594638
	H335	H	0.487500	0.641579	0.610635
	O336	O	1.005281	-0.047311	0.782161
	H337	H	1.013026	-0.027842	0.772706
	H338	H	1.007988	-0.039573	0.782381
	O339	O	0.674247	0.460277	0.555886
	H340	H	0.685656	0.455065	0.542290
	H341	H	0.673849	0.462482	0.563658
	O342	O	0.491181	0.515055	0.669140
	H343	H	0.501911	0.518008	0.678437
	H344	H	0.502556	0.540542	0.663735
	O345	O	-0.140755	0.206490	0.006505
	H346	H	-0.132931	0.208972	0.007370
	H347	H	-0.124320	0.197818	0.020796
	O348	O	0.820921	0.191712	0.817504
	H349	H	0.839652	0.193577	0.828034
	H350	H	0.824243	0.189309	0.837197
	O351	O	1.210326	1.016597	-0.212593
	H352	H	1.222312	1.018094	-0.222207
	H353	H	1.213071	1.022099	-0.208736
	O354	O	0.308138	0.347508	0.326046
	H355	H	0.326968	0.356383	0.340783
	H356	H	0.322202	0.357960	0.342173
	O357	O	1.068596	0.915443	1.166976
	H358	H	1.056620	0.907249	1.175668
	H359	H	1.062861	0.899509	1.154246
	O360	O	0.305844	0.708794	0.552633
	H361	H	0.307008	0.692418	0.541182
	H362	H	0.292861	0.706057	0.544806
	O363	O	0.702331	0.579953	0.498084
	H364	H	0.694015	0.561470	0.506360
	H365	H	0.718081	0.571752	0.515101
	O366	O	1.029680	-0.168685	1.009864
	H367	H	1.026764	-0.172377	1.004723
	H368	H	1.056403	-0.173284	1.003304
	O369	O	0.646892	0.720849	0.491728
	H370	H	0.653653	0.740144	0.473150
	H371	H	0.635128	0.724632	0.483249
	O372	O	0.478796	0.305999	0.621202
	H373	H	0.489643	0.300767	0.627726
	H374	H	0.504030	0.315978	0.622353
	O375	O	-0.340895	1.368823	1.288542
	H376	H	-0.330216	1.401630	1.284197
	H377	H	-0.372520	1.360109	1.285646
	O378	O	0.290086	0.485003	0.703706
	H379	H	0.299052	0.485770	0.715451
	H380	H	0.274183	0.479651	0.710444
	O381	O	1.531232	-0.271705	-0.289403
	H382	H	1.546879	-0.257659	-0.274805
	H383	H	1.552818	-0.264405	-0.287683
	O384	O	0.207660	0.045392	1.201716
	H385	H	0.205220	0.025337	1.217519
	H386	H	0.209500	0.029615	1.191152
	O387	O	-0.199528	0.809517	1.065438
	H388	H	-0.214088	0.802396	1.072567
	H389	H	-0.199737	0.811315	1.064695
	O390	O	0.188428	-0.149556	0.805957
	H391	H	0.175453	-0.154141	0.791779
	H392	H	0.194665	-0.129078	0.812591
	O393	O	1.172055	0.902396	0.092958
	H394	H	1.170155	0.898834	0.084609
	H395	H	1.165183	0.898633	0.083122
	O396	O	0.785135	0.723868	0.276608
	H397	H	0.765276	0.710468	0.289780
	H398	H	0.768471	0.715202	0.281334
	O399	O	0.861732	0.867385	0.802381
	H400	H	0.878117	0.876165	0.807303
	H401	H	0.884781	0.881085	0.816021
	O402	O	0.020240	0.227109	1.177645
	H403	H	0.032252	0.241357	1.198001
	H404	H	0.040997	0.220714	1.179265
	O405	O	-0.208179	0.012111	0.182543
	H406	H	-0.208238	0.026676	0.181255
	H407	H	-0.223744	0.024916	0.181140
	O408	O	1.315797	0.700751	1.302135
	H409	H	1.330590	0.691839	1.293858
	H410	H	1.317145	0.704336	1.328419
	O411	O	0.308966	0.470462	0.471246
	H412	H	0.304996	0.453610	0.484767
	H413	H	0.303094	0.481095	0.476131
	O414	O	0.286185	0.295651	0.522312
	H415	H	0.286264	0.300382	0.554677
	H416	H	0.260844	0.273564	0.540781
	O417	O	0.717966	0.486867	0.274176
	H418	H	0.740253	0.489956	0.260851
	H419	H	0.716602	0.507015	0.276067
	O420	O	0.489117	0.484606	0.358517
	H421	H	0.487795	0.481721	0.352837
	H422	H	0.479338	0.483325	0.376460
	O423	O	-0.682597	0.550193	0.508759
	H424	H	-0.682622	0.549609	0.506082
	H425	H	-0.687698	0.541833	0.528144
	O426	O	1.067170	1.137600	0.814440
	H427	H	1.064556	1.158518	0.804532
	H428	H	1.061131	1.125602	0.823307
	O429	O	0.079989	0.155156	-0.064751
	H430	H	0.097100	0.152242	-0.061305
	H431	H	0.065793	0.158002	-0.056912
	O432	O	0.513657	0.525148	0.275890
	H433	H	0.487374	0.530466	0.269702
	H434	H	0.518521	0.519072	0.282540
	O435	O	0.216712	-0.195831	-0.031095
	H436	H	0.233633	-0.206673	-0.045319
	H437	H	0.230100	-0.193367	-0.042217
	O438	O	0.850593	0.048436	0.070479
	H439	H	0.858260	0.043784	0.060763
	H440	H	0.849311	0.049839	0.075027
	O441	O	0.445793	0.513543	0.542210
	H442	H	0.450633	0.514153	0.555040
	H443	H	0.445514	0.518503	0.534574
	O444	O	-0.210137	1.035353	0.787226
	H445	H	-0.214963	1.055175	0.796553
	H446	H	-0.212203	1.040923	0.775308
	O447	O	0.528111	0.306904	0.288198
	H448	H	0.513639	0.284902	0.301654
	H449	H	0.507879	0.309348	0.286409
	O450	O	0.308935	0.315661	0.687279
	H451	H	0.349221	0.322755	0.693924
	H452	H	0.305560	0.318102	0.707764
	O453	O	0.712083	0.548366	0.606591
	H454	H	0.732609	0.551016	0.634728
	H455	H	0.712071	0.564066	0.595048
	O456	O	0.855155	0.058166	-0.020523
	H457	H	0.870065	0.065577	-0.013828
	H458	H	0.848992	0.051886	-0.023330
	O459	O	0.720530	0.294864	0.491483
	H460	H	0.741135	0.275715	0.473836
	H461	H	0.721652	0.298070	0.456640
	O462	O	0.281667	0.541657	0.270291
	H463	H	0.282171	0.560292	0.280808
	H464	H	0.256186	0.539299	0.245516
	O465	O	1.204757	0.019941	-0.005897
	H466	H	1.196910	0.039060	-0.004913
	H467	H	1.205162	0.025517	0.000401
