data_Molecule from HDF5

_cell_length_a		16.288202
_cell_length_b		16.253454
_cell_length_c		16.262970
_cell_angle_alpha	89.878090
_cell_angle_beta	89.725111
_cell_angle_gamma	89.993306
_symmetry_space_group_name_H-M	'P 1'
_symmetry_Int_Tables_number		1

loop_
	_symmetry_equiv_pos_as_xyz
	x,y,z

loop_
	_atom_site_label
	_atom_site_type_symbol
	_atom_site_fract_x
	_atom_site_fract_y
	_atom_site_fract_z
	H0	H	0.393396	0.839504	0.716908
	H1	H	0.590240	0.167277	0.712847
	H2	H	0.593558	0.839278	0.285924
	H3	H	0.395981	0.167853	0.287401
	H4	H	0.707770	0.404673	0.836728
	H5	H	0.707731	0.601363	0.163587
	H6	H	0.279787	0.603237	0.836222
	H7	H	0.275893	0.402524	0.162716
	H8	H	0.829413	0.717159	0.400321
	H9	H	0.157362	0.715887	0.596527
	H10	H	0.829377	0.287341	0.598643
	H11	H	0.156572	0.286059	0.399059
	H12	H	0.829573	0.402369	0.715328
	H13	H	0.156985	0.601134	0.713690
	H14	H	0.829096	0.601002	0.284770
	H15	H	0.156180	0.402181	0.281391
	H16	H	0.395093	0.719906	0.837687
	H17	H	0.591321	0.716112	0.164558
	H18	H	0.592733	0.289189	0.836435
	H19	H	0.393822	0.288128	0.164455
	H20	H	0.707831	0.838583	0.401988
	H21	H	0.708617	0.165972	0.599430
	H22	H	0.278140	0.839149	0.601818
	H23	H	0.278219	0.166880	0.402768
	H24	H	0.892637	0.339623	0.215550
	H25	H	0.091504	0.666587	0.213814
	H26	H	0.092324	0.338911	0.784289
	H27	H	0.897054	0.666797	0.786624
	H28	H	0.211819	0.901357	0.337657
	H29	H	0.205939	0.100384	0.665149
	H30	H	0.780148	0.100216	0.336247
	H31	H	0.778430	0.902492	0.664134
	H32	H	0.330963	0.218444	0.902394
	H33	H	0.658190	0.217374	0.097643
	H34	H	0.330242	0.788027	0.100812
	H35	H	0.656321	0.788880	0.901508
	H36	H	0.330818	0.904769	0.216562
	H37	H	0.657752	0.103026	0.214975
	H38	H	0.329879	0.102541	0.786701
	H39	H	0.656195	0.904672	0.785477
	H40	H	0.894669	0.217058	0.336033
	H41	H	0.091259	0.217470	0.663537
	H42	H	0.092562	0.788604	0.335259
	H43	H	0.895188	0.787074	0.663758
	H44	H	0.210415	0.339412	0.897880
	H45	H	0.207477	0.666837	0.098040
	H46	H	0.777635	0.339279	0.099800
	H47	H	0.779454	0.666177	0.900921
	H48	H	0.408522	0.121131	0.607351
	H49	H	0.582981	0.884209	0.603072
	H50	H	0.581337	0.116415	0.413915
	H51	H	0.406754	0.887004	0.406518
	H52	H	0.587836	0.418091	0.115172
	H53	H	0.576797	0.590463	0.887692
	H54	H	0.399748	0.596040	0.117195
	H55	H	0.402796	0.412554	0.885142
	H56	H	0.113196	0.597698	0.395637
	H57	H	0.878007	0.593181	0.591638
	H58	H	0.110424	0.404362	0.591840
	H59	H	0.875801	0.408101	0.405281
	H60	H	0.107708	0.410616	0.587494
	H61	H	0.876461	0.594429	0.595160
	H62	H	0.107969	0.601415	0.415564
	H63	H	0.877316	0.408254	0.409905
	H64	H	0.398738	0.591970	0.116206
	H65	H	0.585838	0.607803	0.880261
	H66	H	0.577704	0.406980	0.115099
	H67	H	0.403643	0.408056	0.883915
	H68	H	0.595418	0.121326	0.410722
	H69	H	0.580639	0.889501	0.587011
	H70	H	0.405768	0.113889	0.579688
	H71	H	0.401866	0.888415	0.414659
	H72	H	0.896166	0.621141	0.091936
	H73	H	0.078633	0.388327	0.093698
	H74	H	0.084908	0.620426	0.899228
	H75	H	0.891109	0.383784	0.911830
	H76	H	0.083843	0.907915	0.615616
	H77	H	0.092104	0.097215	0.381764
	H78	H	0.896878	0.095891	0.618193
	H79	H	0.891998	0.901760	0.378483
	H80	H	0.613148	0.105599	0.904948
	H81	H	0.378743	0.093586	0.091503
	H82	H	0.612690	0.906175	0.096735
	H83	H	0.381830	0.922669	0.912942
	H84	H	0.609936	0.907206	0.088605
	H85	H	0.377813	0.093691	0.097138
	H86	H	0.607634	0.093159	0.913796
	H87	H	0.372563	0.908972	0.896917
	H88	H	0.900133	0.090613	0.615472
	H89	H	0.087866	0.087760	0.386402
	H90	H	0.085972	0.906824	0.617034
	H91	H	0.896905	0.919997	0.386021
	H92	H	0.082147	0.616347	0.910570
	H93	H	0.085790	0.389022	0.083892
	H94	H	0.902059	0.620231	0.094553
	H95	H	0.899898	0.382995	0.897214
	H96	H	0.383912	0.123769	0.594034
	H97	H	0.596539	0.883317	0.591732
	H98	H	0.585083	0.120593	0.399636
	H99	H	0.397827	0.885092	0.406925
	H100	H	0.591252	0.404095	0.120929
	H101	H	0.596539	0.590077	0.882608
	H102	H	0.402922	0.593341	0.114472
	H103	H	0.399784	0.409184	0.882593
	H104	H	0.105088	0.582639	0.407203
	H105	H	0.876801	0.596958	0.592215
	H106	H	0.110178	0.411897	0.595174
	H107	H	0.878386	0.412395	0.406535
	H108	H	0.901182	0.617492	0.088680
	H109	H	0.089954	0.383825	0.094232
	H110	H	0.093562	0.620610	0.907908
	H111	H	0.907522	0.389335	0.910894
	H112	H	0.086842	0.909073	0.616511
	H113	H	0.080933	0.096701	0.385873
	H114	H	0.903454	0.096432	0.615736
	H115	H	0.910608	0.905064	0.385199
	H116	H	0.611256	0.090985	0.898053
	H117	H	0.377659	0.098520	0.093918
	H118	H	0.608567	0.913670	0.094832
	H119	H	0.375867	0.901081	0.918315
	C120	C	0.371119	0.011357	0.622936
	C121	C	0.614777	0.994216	0.622217
	C122	C	0.615631	0.011164	0.379471
	C123	C	0.372713	0.994804	0.379820
	C124	C	0.614427	0.381587	0.008734
	C125	C	0.615042	0.624471	0.992005
	C126	C	0.372015	0.623880	0.008641
	C127	C	0.371889	0.380650	0.991685
	C128	C	0.000767	0.623199	0.377609
	C129	C	0.985151	0.623559	0.621093
	C130	C	0.001209	0.380662	0.620591
	C131	C	0.985137	0.380352	0.377275
	C132	C	0.870947	0.511447	0.120937
	C133	C	0.113800	0.494917	0.119740
	C134	C	0.115592	0.510762	0.876991
	C135	C	0.871755	0.493755	0.878127
	C136	C	0.115302	0.879557	0.508294
	C137	C	0.115010	0.123268	0.492669
	C138	C	0.872001	0.123227	0.508295
	C139	C	0.871503	0.880159	0.491679
	C140	C	0.502334	0.124976	0.878161
	C141	C	0.486098	0.124239	0.122094
	C142	C	0.502594	0.880295	0.123098
	C143	C	0.484750	0.882016	0.879886
	C144	C	0.373356	0.888306	0.678799
	C145	C	0.611307	0.118069	0.675862
	C146	C	0.613682	0.888135	0.323976
	C147	C	0.375351	0.118549	0.325079
	C148	C	0.669960	0.384202	0.885587
	C149	C	0.670197	0.621863	0.114765
	C150	C	0.317587	0.622835	0.885152
	C151	C	0.314790	0.382501	0.114230
	C152	C	0.878186	0.679399	0.379892
	C153	C	0.108366	0.678270	0.617553
	C154	C	0.878065	0.325505	0.618872
	C155	C	0.107862	0.324275	0.378574
	C156	C	0.878238	0.382766	0.676752
	C157	C	0.108089	0.621511	0.675822
	C158	C	0.877912	0.621499	0.322517
	C159	C	0.107472	0.381871	0.320072
	C160	C	0.374480	0.681054	0.885913
	C161	C	0.612229	0.678892	0.115200
	C162	C	0.612575	0.326885	0.885433
	C163	C	0.373134	0.325368	0.115085
	C164	C	0.670365	0.887620	0.381835
	C165	C	0.670398	0.117364	0.619735
	C166	C	0.316109	0.888148	0.621426
	C167	C	0.316731	0.118007	0.382259
	C168	C	0.872960	0.388287	0.177008
	C169	C	0.111939	0.617830	0.175911
	C170	C	0.113109	0.387689	0.822026
	C171	C	0.875090	0.617323	0.823286
	C172	C	0.172431	0.881798	0.386052
	C173	C	0.168790	0.120934	0.615983
	C174	C	0.817686	0.120858	0.385150
	C175	C	0.817028	0.882965	0.615394
	C176	C	0.379321	0.180212	0.881576
	C177	C	0.609434	0.179579	0.118639
	C178	C	0.379382	0.825357	0.121448
	C179	C	0.607733	0.826893	0.881464
	C180	C	0.379482	0.883614	0.178524
	C181	C	0.609177	0.122732	0.176979
	C182	C	0.378829	0.122621	0.824251
	C183	C	0.607536	0.884275	0.823770
	C184	C	0.874543	0.178948	0.385155
	C185	C	0.111638	0.178818	0.615295
	C186	C	0.113356	0.825484	0.384783
	C187	C	0.874519	0.825096	0.615104
	C188	C	0.171979	0.388157	0.878356
	C189	C	0.169242	0.618034	0.118160
	C190	C	0.815578	0.388178	0.119633
	C191	C	0.817132	0.617228	0.880292
	C192	C	0.392960	0.097376	0.600269
	C193	C	0.593094	0.908038	0.600401
	C194	C	0.593495	0.097267	0.401540
	C195	C	0.395373	0.909049	0.402544
	C196	C	0.592105	0.403470	0.094846
	C197	C	0.592778	0.602614	0.905834
	C198	C	0.394069	0.600533	0.093955
	C199	C	0.395163	0.403206	0.906104
	C200	C	0.086427	0.600507	0.399743
	C201	C	0.899396	0.601342	0.599359
	C202	C	0.087070	0.402711	0.598135
	C203	C	0.899477	0.403005	0.400426
	C204	C	0.893281	0.597323	0.098248
	C205	C	0.091307	0.409123	0.097166
	C206	C	0.093342	0.596872	0.899220
	C207	C	0.893197	0.407602	0.900073
	C208	C	0.092461	0.901463	0.594310
	C209	C	0.093277	0.100618	0.406828
	C210	C	0.893813	0.100706	0.594277
	C211	C	0.893399	0.902126	0.405480
	C212	C	0.588400	0.103146	0.899323
	C213	C	0.400466	0.102025	0.100521
	C214	C	0.588203	0.902456	0.100244
	C215	C	0.398723	0.904229	0.902922
	Zn216	Zn	0.492623	0.003073	0.750505
	Zn217	Zn	0.494872	0.003353	0.251209
	Zn218	Zn	0.743144	0.502898	-0.000016
	Zn219	Zn	0.243046	0.503092	-0.000604
	Zn220	Zn	-0.006779	0.751761	0.499154
	Zn221	Zn	-0.006975	0.251908	0.499842
	Zn222	Zn	-0.006481	0.502030	0.749402
	Zn223	Zn	-0.007397	0.502730	0.248286
	Zn224	Zn	0.493259	0.752863	0.000312
	Zn225	Zn	0.494007	0.252672	0.000302
	Zn226	Zn	0.743219	0.002149	0.500181
	Zn227	Zn	0.243455	0.002046	0.501414
	N228	N	0.406919	0.965863	0.679696
	N229	N	0.577404	0.040521	0.677452
	N230	N	0.580577	0.965945	0.322443
	N231	N	0.409185	0.040861	0.323277
	N232	N	0.671174	0.417579	0.963197
	N233	N	0.672055	0.588810	0.036967
	N234	N	0.315793	0.587819	0.962362
	N235	N	0.313835	0.416090	0.036584
	N236	N	0.955650	0.680529	0.413424
	N237	N	0.030929	0.679686	0.584225
	N238	N	0.955416	0.324357	0.584581
	N239	N	0.030673	0.323096	0.412979
	N240	N	0.955830	0.416227	0.678147
	N241	N	0.030485	0.588161	0.678091
	N242	N	0.955092	0.587411	0.320830
	N243	N	0.030130	0.416007	0.319214
	N244	N	0.407574	0.681846	0.963438
	N245	N	0.578404	0.680252	0.037827
	N246	N	0.578762	0.325095	0.963096
	N247	N	0.407935	0.324064	0.037829
	N248	N	0.671750	0.965270	0.415550
	N249	N	0.672672	0.039399	0.587009
	N250	N	0.314511	0.965737	0.587409
	N251	N	0.315012	0.040203	0.415538
	N252	N	0.906802	0.465902	0.177830
	N253	N	0.078104	0.540248	0.176886
	N254	N	0.078937	0.464938	0.821196
	N255	N	0.908640	0.539658	0.821994
	N256	N	0.173674	0.914679	0.463876
	N257	N	0.171027	0.087085	0.538674
	N258	N	0.816084	0.086758	0.462625
	N259	N	0.814937	0.916296	0.537583
	N260	N	0.456967	0.181860	0.914200
	N261	N	0.531911	0.180815	0.085365
	N262	N	0.457013	0.823128	0.087756
	N263	N	0.530260	0.825643	0.915632
	N264	N	0.456986	0.917157	0.179847
	N265	N	0.531708	0.088936	0.179237
	N266	N	0.456299	0.088971	0.822069
	N267	N	0.530063	0.917707	0.822545
	N268	N	0.907922	0.180309	0.462641
	N269	N	0.078830	0.180364	0.537485
	N270	N	0.078535	0.824093	0.461836
	N271	N	0.907917	0.823538	0.537279
	N272	N	0.173524	0.465761	0.911960
	N273	N	0.170377	0.540659	0.084047
	N274	N	0.814212	0.465661	0.085661
	N275	N	0.815003	0.539418	0.913801
	O276	O	0.471916	0.439304	0.495100
	H277	H	0.483378	0.437362	0.490932
	H278	H	0.471273	0.434211	0.481370
	O279	O	0.482570	0.518998	0.536852
	H280	H	0.472782	0.526955	0.538561
	H281	H	0.494844	0.525572	0.537846
	O282	O	0.511791	0.499049	0.538259
	H283	H	0.522080	0.505254	0.539846
	H284	H	0.509965	0.513003	0.532952
	O285	O	0.083165	1.078094	1.051714
	H286	H	0.083419	1.080428	1.053164
	H287	H	0.086699	1.077756	1.041147
	O288	O	0.439584	0.568224	0.491804
	H289	H	0.435052	0.566648	0.493888
	H290	H	0.438088	0.571641	0.492684
	O291	O	0.064809	0.062070	1.057187
	H292	H	0.068382	0.058945	1.065819
	H293	H	0.066478	0.071859	1.057462
	O294	O	0.467890	0.526091	0.543893
	H295	H	0.466413	0.525226	0.552080
	H296	H	0.467960	0.521874	0.558428
	O297	O	0.462942	0.484813	0.545071
	H298	H	0.455895	0.486891	0.537424
	H299	H	0.464521	0.477998	0.544845
	O300	O	0.531764	0.481101	0.505765
	H301	H	0.531190	0.499073	0.503818
	H302	H	0.539004	0.473931	0.507569
	O303	O	0.482490	0.591152	0.435668
	H304	H	0.481318	0.594395	0.435101
	H305	H	0.477352	0.587903	0.427326
	O306	O	1.083412	0.079504	1.073673
	H307	H	1.079276	0.078193	1.078580
	H308	H	1.093257	0.081297	1.069819
	O309	O	0.453645	0.520413	0.401799
	H310	H	0.445274	0.513404	0.404187
	H311	H	0.454462	0.526348	0.400526
	O312	O	0.460376	0.465005	0.586226
	H313	H	0.458434	0.452963	0.583367
	H314	H	0.452311	0.461766	0.583424
	O315	O	1.067939	0.069507	1.054533
	H316	H	1.062229	0.071680	1.050853
	H317	H	1.077555	0.066046	1.064643
	O318	O	0.404831	-0.510421	-0.453415
	H319	H	0.406777	-0.514509	-0.451391
	H320	H	0.396663	-0.520841	-0.442810
	O321	O	0.506539	0.501924	0.434861
	H322	H	0.507926	0.508028	0.432580
	H323	H	0.504534	0.504703	0.431374
	O324	O	1.060082	0.046124	0.006655
	H325	H	1.067642	0.052782	0.017512
	H326	H	1.061022	0.046681	0.005974
	O327	O	1.079004	1.087058	0.032241
	H328	H	1.075790	1.085431	0.026778
	H329	H	1.078311	1.095077	0.038971
	O330	O	0.451346	0.460833	0.460379
	H331	H	0.448836	0.448688	0.474654
	H332	H	0.462517	0.463872	0.456780
	O333	O	0.496797	0.520786	0.445758
	H334	H	0.493389	0.523660	0.442625
	H335	H	0.498261	0.528568	0.444475
