data_Molecule from HDF5

_cell_length_a		16.234089
_cell_length_b		16.229244
_cell_length_c		16.277265
_cell_angle_alpha	89.706839
_cell_angle_beta	89.663687
_cell_angle_gamma	90.577811
_symmetry_space_group_name_H-M	'P 1'
_symmetry_Int_Tables_number		1

loop_
	_symmetry_equiv_pos_as_xyz
	x,y,z

loop_
	_atom_site_label
	_atom_site_type_symbol
	_atom_site_fract_x
	_atom_site_fract_y
	_atom_site_fract_z
	H0	H	0.394986	0.838300	0.718098
	H1	H	0.600242	0.165660	0.711948
	H2	H	0.598667	0.837274	0.282874
	H3	H	0.401956	0.164062	0.282203
	H4	H	0.716835	0.403693	0.834885
	H5	H	0.716723	0.600768	0.162264
	H6	H	0.287455	0.600463	0.834936
	H7	H	0.282525	0.398336	0.161081
	H8	H	0.834630	0.711528	0.399108
	H9	H	0.162896	0.717809	0.594198
	H10	H	0.836570	0.282854	0.599369
	H11	H	0.163328	0.287122	0.397378
	H12	H	0.837066	0.398448	0.714810
	H13	H	0.164664	0.600820	0.709860
	H14	H	0.837115	0.598812	0.282290
	H15	H	0.163584	0.401506	0.282516
	H16	H	0.403632	0.716059	0.835560
	H17	H	0.600307	0.715721	0.162367
	H18	H	0.599850	0.288602	0.833780
	H19	H	0.399089	0.283217	0.161181
	H20	H	0.712456	0.836975	0.398514
	H21	H	0.716235	0.164691	0.595688
	H22	H	0.280368	0.837185	0.600567
	H23	H	0.288268	0.165944	0.400346
	H24	H	0.896947	0.336655	0.216901
	H25	H	0.104138	0.663421	0.213312
	H26	H	0.101156	0.336998	0.781265
	H27	H	0.902740	0.664247	0.781214
	H28	H	0.214309	0.902996	0.334924
	H29	H	0.214913	0.101618	0.660794
	H30	H	0.784899	0.101775	0.334328
	H31	H	0.780583	0.898148	0.660507
	H32	H	0.336792	0.214847	0.899184
	H33	H	0.664219	0.216375	0.095821
	H34	H	0.337506	0.781293	0.100174
	H35	H	0.665440	0.789957	0.898867
	H36	H	0.336098	0.897898	0.214291
	H37	H	0.663277	0.101451	0.212085
	H38	H	0.335828	0.100833	0.783852
	H39	H	0.662072	0.902744	0.780107
	H40	H	0.900421	0.217763	0.335615
	H41	H	0.099826	0.215924	0.660870
	H42	H	0.097973	0.788494	0.333959
	H43	H	0.896470	0.782988	0.660328
	H44	H	0.215057	0.336477	0.898986
	H45	H	0.218143	0.663553	0.096197
	H46	H	0.781329	0.337464	0.100948
	H47	H	0.790355	0.665884	0.900595
	H48	H	0.405658	0.121742	0.604344
	H49	H	0.580351	0.887221	0.590553
	H50	H	0.592508	0.117151	0.403077
	H51	H	0.400799	0.882416	0.407587
	H52	H	0.588228	0.394063	0.117613
	H53	H	0.597762	0.597489	0.881166
	H54	H	0.409472	0.590546	0.114046
	H55	H	0.403295	0.409508	0.880997
	H56	H	0.116960	0.596218	0.404493
	H57	H	0.885400	0.586440	0.589688
	H58	H	0.112296	0.423018	0.589493
	H59	H	0.883938	0.403751	0.413333
	H60	H	0.122402	0.403379	0.603956
	H61	H	0.881796	0.589932	0.595893
	H62	H	0.116449	0.595115	0.406715
	H63	H	0.886117	0.415712	0.408744
	H64	H	0.408885	0.590876	0.114690
	H65	H	0.596190	0.592182	0.883390
	H66	H	0.605316	0.413113	0.117210
	H67	H	0.411483	0.410982	0.883809
	H68	H	0.592329	0.117490	0.404638
	H69	H	0.591374	0.886678	0.584010
	H70	H	0.419660	0.112392	0.586288
	H71	H	0.408680	0.883633	0.402908
	H72	H	0.911318	0.615612	0.087488
	H73	H	0.089625	0.383523	0.092120
	H74	H	0.092086	0.616952	0.900898
	H75	H	0.898412	0.383287	0.913329
	H76	H	0.091512	0.915278	0.613208
	H77	H	0.093243	0.095935	0.380675
	H78	H	0.915841	0.099958	0.614419
	H79	H	0.902122	0.903578	0.378877
	H80	H	0.615498	0.093234	0.904083
	H81	H	0.383583	0.087729	0.092208
	H82	H	0.614875	0.911686	0.086902
	H83	H	0.383032	0.904126	0.910518
	H84	H	0.617632	0.911815	0.096536
	H85	H	0.381155	0.094483	0.092608
	H86	H	0.617179	0.094622	0.902377
	H87	H	0.384633	0.910028	0.911137
	H88	H	0.895027	0.093580	0.617971
	H89	H	0.094557	0.094255	0.381144
	H90	H	0.082409	0.908078	0.612276
	H91	H	0.902679	0.912479	0.381197
	H92	H	0.093104	0.615322	0.908630
	H93	H	0.089662	0.384958	0.089957
	H94	H	0.908281	0.616862	0.091211
	H95	H	0.907019	0.380219	0.896387
	H96	H	0.395801	0.118396	0.582056
	H97	H	0.591103	0.882094	0.596943
	H98	H	0.594143	0.118145	0.403909
	H99	H	0.408311	0.885816	0.411675
	H100	H	0.582275	0.417088	0.109114
	H101	H	0.592510	0.595727	0.882887
	H102	H	0.408228	0.589446	0.115247
	H103	H	0.409485	0.402933	0.880868
	H104	H	0.116901	0.593628	0.404743
	H105	H	0.882253	0.594665	0.589465
	H106	H	0.117231	0.399490	0.578397
	H107	H	0.881081	0.406065	0.401544
	H108	H	0.912794	0.616420	0.091968
	H109	H	0.091850	0.383847	0.090511
	H110	H	0.099452	0.618719	0.904204
	H111	H	0.917119	0.388977	0.911874
	H112	H	0.092125	0.903941	0.616984
	H113	H	0.092721	0.093803	0.382279
	H114	H	0.908864	0.079286	0.608687
	H115	H	0.910080	0.906410	0.382034
	H116	H	0.616849	0.095302	0.905339
	H117	H	0.385336	0.091765	0.085653
	H118	H	0.619142	0.902725	0.091122
	H119	H	0.383297	0.908317	0.906030
	C120	C	0.375972	0.009743	0.621357
	C121	C	0.618860	0.993299	0.619008
	C122	C	0.621092	0.009263	0.375807
	C123	C	0.378082	0.992435	0.377681
	C124	C	0.621810	0.379899	0.006460
	C125	C	0.624050	0.623423	0.990320
	C126	C	0.380301	0.620777	0.006965
	C127	C	0.377545	0.377539	0.989546
	C128	C	0.008408	0.622612	0.376045
	C129	C	0.991346	0.621213	0.619184
	C130	C	0.008936	0.378431	0.620448
	C131	C	0.991580	0.379457	0.377662
	C132	C	0.879199	0.508406	0.120756
	C133	C	0.121734	0.491819	0.119786
	C134	C	0.123226	0.508975	0.875546
	C135	C	0.879520	0.492481	0.877365
	C136	C	0.118838	0.880300	0.506417
	C137	C	0.122046	0.123493	0.489027
	C138	C	0.878175	0.121334	0.506130
	C139	C	0.875334	0.877490	0.488846
	C140	C	0.508804	0.123173	0.875635
	C141	C	0.491592	0.121446	0.118785
	C142	C	0.509049	0.878136	0.121027
	C143	C	0.491671	0.879659	0.878048
	C144	C	0.375654	0.886881	0.679026
	C145	C	0.619382	0.116411	0.674214
	C146	C	0.618624	0.886244	0.320643
	C147	C	0.382082	0.115532	0.321417
	C148	C	0.677970	0.383150	0.883482
	C149	C	0.679014	0.621096	0.113411
	C150	C	0.325137	0.620173	0.884088
	C151	C	0.320648	0.378184	0.112188
	C152	C	0.884481	0.675483	0.378771
	C153	C	0.114232	0.679257	0.615699
	C154	C	0.885761	0.321081	0.619147
	C155	C	0.114512	0.324381	0.378147
	C156	C	0.885935	0.378298	0.676838
	C157	C	0.115160	0.620826	0.672904
	C158	C	0.885539	0.619446	0.320446
	C159	C	0.114695	0.381348	0.320957
	C160	C	0.383105	0.677603	0.884223
	C161	C	0.621295	0.678235	0.113588
	C162	C	0.620043	0.325809	0.883048
	C163	C	0.378593	0.320909	0.112195
	C164	C	0.675135	0.886028	0.378371
	C165	C	0.677473	0.115954	0.616626
	C166	C	0.318677	0.886480	0.620568
	C167	C	0.324959	0.116318	0.379809
	C168	C	0.878296	0.385806	0.178103
	C169	C	0.122747	0.614553	0.175243
	C170	C	0.120955	0.385867	0.819706
	C171	C	0.882550	0.615507	0.820224
	C172	C	0.175852	0.882598	0.383481
	C173	C	0.177416	0.121562	0.611962
	C174	C	0.822853	0.121041	0.383324
	C175	C	0.818652	0.878153	0.611487
	C176	C	0.385846	0.178103	0.877963
	C177	C	0.615059	0.178378	0.116058
	C178	C	0.386076	0.820371	0.119969
	C179	C	0.615638	0.826404	0.878998
	C180	C	0.385362	0.878327	0.176564
	C181	C	0.614634	0.121074	0.174091
	C182	C	0.385054	0.120837	0.821191
	C183	C	0.613971	0.882453	0.819780
	C184	C	0.880202	0.179040	0.383845
	C185	C	0.120085	0.178536	0.611953
	C186	C	0.117432	0.825938	0.383059
	C187	C	0.876452	0.820998	0.611394
	C188	C	0.177409	0.385390	0.878482
	C189	C	0.179664	0.614555	0.116972
	C190	C	0.820785	0.386036	0.120363
	C191	C	0.826466	0.616339	0.879370
	C192	C	0.400052	0.095400	0.597713
	C193	C	0.594569	0.907629	0.596994
	C194	C	0.599481	0.095336	0.397580
	C195	C	0.399550	0.906254	0.400685
	C196	C	0.598712	0.401635	0.092345
	C197	C	0.602052	0.601571	0.904792
	C198	C	0.402338	0.597224	0.092571
	C199	C	0.401056	0.401023	0.903971
	C200	C	0.094535	0.601181	0.398570
	C201	C	0.905421	0.597228	0.598140
	C202	C	0.094837	0.401762	0.597416
	C203	C	0.906003	0.401905	0.401099
	C204	C	0.903801	0.594127	0.097143
	C205	C	0.097462	0.406189	0.097402
	C206	C	0.101383	0.594808	0.897853
	C207	C	0.901085	0.406606	0.900446
	C208	C	0.095608	0.902642	0.592129
	C209	C	0.100126	0.101275	0.403447
	C210	C	0.900135	0.097844	0.591371
	C211	C	0.898129	0.900739	0.403109
	C212	C	0.594334	0.100895	0.897348
	C213	C	0.405767	0.097978	0.096654
	C214	C	0.594901	0.901878	0.098261
	C215	C	0.405967	0.901134	0.902078
	Zn216	Zn	0.498438	0.001573	0.749479
	Zn217	Zn	0.499572	0.000080	0.247957
	Zn218	Zn	0.751063	0.501356	-0.001183
	Zn219	Zn	0.250369	0.500045	-0.002109
	Zn220	Zn	-0.001588	0.750389	0.497085
	Zn221	Zn	0.000296	0.250866	0.498232
	Zn222	Zn	0.000529	0.499938	0.748551
	Zn223	Zn	0.000657	0.500449	0.249040
	Zn224	Zn	0.501439	0.750621	-0.000529
	Zn225	Zn	0.500535	0.250554	-0.002546
	Zn226	Zn	0.748281	0.000307	0.497422
	Zn227	Zn	0.248466	0.000997	0.498528
	N228	N	0.410519	0.964471	0.679640
	N229	N	0.583429	0.039190	0.675678
	N230	N	0.585724	0.964013	0.318756
	N231	N	0.414073	0.037345	0.319819
	N232	N	0.679215	0.415863	0.961239
	N233	N	0.680923	0.587866	0.035784
	N234	N	0.323553	0.585320	0.961249
	N235	N	0.319952	0.412751	0.034803
	N236	N	0.962079	0.677674	0.412504
	N237	N	0.036245	0.679818	0.583196
	N238	N	0.963521	0.320974	0.584911
	N239	N	0.036974	0.323050	0.412763
	N240	N	0.963366	0.413036	0.677830
	N241	N	0.037794	0.585280	0.674994
	N242	N	0.963635	0.587572	0.318490
	N243	N	0.037260	0.414878	0.320498
	N244	N	0.416870	0.677998	0.961599
	N245	N	0.588012	0.680153	0.036228
	N246	N	0.585989	0.323430	0.960645
	N247	N	0.413116	0.320298	0.034790
	N248	N	0.676885	0.963527	0.411920
	N249	N	0.677129	0.038301	0.582977
	N250	N	0.318788	0.963915	0.585582
	N251	N	0.322520	0.038740	0.414192
	N252	N	0.914008	0.463173	0.178328
	N253	N	0.087090	0.537325	0.176833
	N254	N	0.087964	0.463542	0.818017
	N255	N	0.915084	0.537410	0.819063
	N256	N	0.176906	0.915624	0.461232
	N257	N	0.178837	0.088060	0.534522
	N258	N	0.821305	0.085808	0.460408
	N259	N	0.817993	0.912929	0.534195
	N260	N	0.463550	0.179726	0.911163
	N261	N	0.537415	0.178775	0.082322
	N262	N	0.463892	0.820071	0.086074
	N263	N	0.538479	0.824562	0.914608
	N264	N	0.462794	0.913604	0.177275
	N265	N	0.537003	0.086564	0.175961
	N266	N	0.462664	0.087657	0.819205
	N267	N	0.535935	0.914462	0.818872
	N268	N	0.913977	0.179377	0.460997
	N269	N	0.086529	0.180216	0.534523
	N270	N	0.082694	0.824530	0.460424
	N271	N	0.910596	0.820009	0.533940
	N272	N	0.179071	0.462968	0.912487
	N273	N	0.178904	0.537029	0.083089
	N274	N	0.821285	0.463329	0.085284
	N275	N	0.824608	0.539102	0.914223
	O276	O	0.481731	0.473822	0.446096
	H277	H	0.475342	0.479387	0.451268
	H278	H	0.488779	0.467395	0.442150
	O279	O	0.495784	0.587369	0.474258
	H280	H	0.499119	0.581838	0.464725
	H281	H	0.497416	0.591803	0.471264
	O282	O	1.046646	1.039679	-0.097911
	H283	H	1.041514	1.043308	-0.095340
	H284	H	1.042061	1.039306	-0.090016
	O285	O	1.071555	0.090624	0.955332
	H286	H	1.070285	0.090303	0.952097
	H287	H	1.071198	0.075753	0.945203
	O288	O	0.550128	0.575458	0.458049
	H289	H	0.550449	0.578938	0.465440
	H290	H	0.541518	0.578125	0.466389
	O291	O	0.466578	0.481620	0.496608
	H292	H	0.453267	0.473138	0.499046
	H293	H	0.476510	0.474349	0.501063
	O294	O	0.618571	0.635845	0.596078
	H295	H	0.609653	0.646587	0.602797
	H296	H	0.611363	0.629034	0.601822
	O297	O	0.038616	0.001305	0.959657
	H298	H	0.031041	0.009815	0.948019
	H299	H	0.043306	0.008406	0.968454
	O300	O	0.528525	0.413172	0.505418
	H301	H	0.525267	0.405826	0.514843
	H302	H	0.530362	0.411393	0.508413
	O303	O	0.880605	0.858854	0.040300
	H304	H	0.892809	0.855589	0.049654
	H305	H	0.864037	0.857077	0.033486
	O306	O	0.053719	0.991179	1.099337
	H307	H	0.048602	0.999761	1.102487
	H308	H	0.070723	1.008791	1.098595
	O309	O	0.506339	0.489489	0.542521
	H310	H	0.505762	0.497923	0.553012
	H311	H	0.512961	0.503157	0.543720
	O312	O	-0.031168	0.014043	-0.080019
	H313	H	-0.027295	0.017106	-0.074524
	H314	H	-0.036605	0.003200	-0.081948
	O315	O	1.010598	0.056041	0.027754
	H316	H	1.013847	0.056768	0.027585
	H317	H	1.009197	0.058610	0.033689
	O318	O	0.988567	0.945287	1.023089
	H319	H	0.981577	0.951121	1.024615
	H320	H	1.000922	0.941566	1.032625
	O321	O	-0.035664	0.052260	0.901000
	H322	H	-0.047117	0.048185	0.903281
	H323	H	-0.041167	0.045933	0.899660
	O324	O	0.535031	0.435348	0.513186
	H325	H	0.545405	0.437752	0.516166
	H326	H	0.541982	0.427819	0.512378
	O327	O	-0.079162	-0.066398	0.104988
	H328	H	-0.069452	-0.060156	0.100538
	H329	H	-0.088203	-0.070617	0.091527
	O330	O	0.531874	0.395579	0.406818
	H331	H	0.540481	0.386263	0.403124
	H332	H	0.534685	0.392295	0.399009
	O333	O	0.054972	1.081097	0.989783
	H334	H	0.053807	1.087777	0.990208
	H335	H	0.057826	1.080296	0.983546
	O336	O	0.044579	0.040986	0.073062
	H337	H	0.039140	0.048986	0.073175
	H338	H	0.053856	0.048326	0.073847
	O339	O	0.541380	0.487790	0.495433
	H340	H	0.548692	0.491735	0.497935
	H341	H	0.544544	0.486801	0.505956
	O342	O	0.989027	1.095273	1.068934
	H343	H	0.998524	1.102103	1.075805
	H344	H	0.984817	1.091640	1.060437
	O345	O	1.097143	0.916774	-0.041009
	H346	H	1.090263	0.909878	-0.037258
	H347	H	1.097020	0.905852	-0.052408
	O348	O	0.466105	0.562978	0.558619
	H349	H	0.462637	0.564404	0.552702
	H350	H	0.469238	0.564109	0.552754
	O351	O	0.505864	0.581700	0.560425
	H352	H	0.504689	0.588996	0.572122
	H353	H	0.495616	0.568557	0.556858
	O354	O	0.493285	0.451941	0.527952
	H355	H	0.482738	0.448972	0.532253
	H356	H	0.503226	0.451148	0.529712
	O357	O	0.957550	0.033172	0.988343
	H358	H	0.960942	0.039931	0.977399
	H359	H	0.945057	0.022169	0.992928
	O360	O	0.499386	0.486540	0.484108
	H361	H	0.500501	0.475411	0.481987
	H362	H	0.497482	0.485623	0.480152
	O363	O	0.517763	0.438000	0.500083
	H364	H	0.514264	0.447045	0.496436
	H365	H	0.521671	0.449512	0.501524
	O366	O	1.078453	0.965411	0.893580
	H367	H	1.076529	0.967447	0.884014
	H368	H	1.068527	0.965868	0.899388
	O369	O	0.967370	0.037378	0.997012
	H370	H	0.981183	0.040581	1.005965
	H371	H	0.967412	0.027663	1.005196
	O372	O	-0.132215	0.023918	0.094315
	H373	H	-0.135557	0.020262	0.095499
	H374	H	-0.143146	0.016306	0.098742
	O375	O	0.944256	-0.114299	0.043551
	H376	H	0.948843	-0.112023	0.054231
	H377	H	0.945284	-0.111895	0.044080
	O378	O	0.496388	0.478292	0.601939
	H379	H	0.493156	0.474492	0.599470
	H380	H	0.482639	0.471947	0.593582
	O381	O	0.441707	0.490677	0.470313
	H382	H	0.433461	0.493458	0.466903
	H383	H	0.436267	0.491108	0.478227
