data_Molecule from HDF5

_cell_length_a		16.324955
_cell_length_b		16.247812
_cell_length_c		16.304588
_cell_angle_alpha	90.014706
_cell_angle_beta	90.100211
_cell_angle_gamma	89.977691
_symmetry_space_group_name_H-M	'P 1'
_symmetry_Int_Tables_number		1

loop_
	_symmetry_equiv_pos_as_xyz
	x,y,z

loop_
	_atom_site_label
	_atom_site_type_symbol
	_atom_site_fract_x
	_atom_site_fract_y
	_atom_site_fract_z
	H0	H	0.406561	0.846827	0.704796
	H1	H	0.602493	0.175109	0.706416
	H2	H	0.603578	0.847476	0.277947
	H3	H	0.406250	0.175938	0.277777
	H4	H	0.719364	0.412976	0.828052
	H5	H	0.719286	0.609721	0.154837
	H6	H	0.290442	0.610598	0.827577
	H7	H	0.291265	0.413043	0.154951
	H8	H	0.840632	0.726176	0.393985
	H9	H	0.167734	0.726376	0.590227
	H10	H	0.841506	0.297974	0.589335
	H11	H	0.168832	0.298031	0.394818
	H12	H	0.841469	0.414185	0.705856
	H13	H	0.167705	0.610349	0.707095
	H14	H	0.841751	0.612233	0.274517
	H15	H	0.168419	0.412449	0.276749
	H16	H	0.408764	0.724926	0.827372
	H17	H	0.603149	0.724909	0.155125
	H18	H	0.602665	0.297197	0.827212
	H19	H	0.408444	0.298740	0.155489
	H20	H	0.718922	0.847197	0.393647
	H21	H	0.719019	0.175105	0.591316
	H22	H	0.289917	0.848211	0.590980
	H23	H	0.290018	0.175657	0.393124
	H24	H	0.908316	0.347751	0.205342
	H25	H	0.103462	0.676030	0.205491
	H26	H	0.103959	0.347756	0.777905
	H27	H	0.907876	0.675637	0.778560
	H28	H	0.219767	0.912900	0.328394
	H29	H	0.218478	0.109959	0.656246
	H30	H	0.789437	0.110743	0.328247
	H31	H	0.790252	0.913900	0.655114
	H32	H	0.341001	0.224719	0.895259
	H33	H	0.668902	0.224978	0.089793
	H34	H	0.341534	0.796686	0.089105
	H35	H	0.669039	0.799211	0.895457
	H36	H	0.341567	0.913369	0.205665
	H37	H	0.668166	0.110312	0.207319
	H38	H	0.340606	0.109826	0.777418
	H39	H	0.667643	0.913155	0.776523
	H40	H	0.907844	0.225752	0.327722
	H41	H	0.100916	0.224378	0.656229
	H42	H	0.101205	0.797932	0.327950
	H43	H	0.907566	0.798949	0.655464
	H44	H	0.218510	0.347411	0.894273
	H45	H	0.219117	0.675800	0.089353
	H46	H	0.791726	0.347045	0.090000
	H47	H	0.791106	0.675464	0.893592
	H48	H	0.404617	0.131386	0.587499
	H49	H	0.594464	0.895074	0.587804
	H50	H	0.597689	0.128505	0.398514
	H51	H	0.408305	0.896613	0.405335
	H52	H	0.593094	0.414926	0.106588
	H53	H	0.601867	0.614451	0.870534
	H54	H	0.403119	0.602754	0.109222
	H55	H	0.411549	0.416873	0.873783
	H56	H	0.121545	0.606850	0.395670
	H57	H	0.887255	0.612723	0.581552
	H58	H	0.122336	0.421051	0.591789
	H59	H	0.889872	0.414873	0.404594
	H60	H	0.122679	0.412079	0.584873
	H61	H	0.891017	0.598056	0.583123
	H62	H	0.119653	0.606279	0.401920
	H63	H	0.892130	0.427027	0.398763
	H64	H	0.417622	0.597050	0.103862
	H65	H	0.605850	0.597559	0.875059
	H66	H	0.604546	0.414335	0.109978
	H67	H	0.410012	0.418543	0.875411
	H68	H	0.595739	0.126904	0.399691
	H69	H	0.597198	0.896509	0.580264
	H70	H	0.416834	0.128158	0.589686
	H71	H	0.407861	0.892035	0.393466
	H72	H	0.909508	0.627876	0.078667
	H73	H	0.102947	0.394092	0.082847
	H74	H	0.094827	0.625446	0.905062
	H75	H	0.908787	0.395202	0.905004
	H76	H	0.083788	0.909499	0.606706
	H77	H	0.099176	0.098873	0.377588
	H78	H	0.916190	0.095231	0.603719
	H79	H	0.911378	0.917052	0.374701
	H80	H	0.621268	0.097410	0.891356
	H81	H	0.389234	0.100523	0.087804
	H82	H	0.617607	0.928638	0.082786
	H83	H	0.387738	0.921761	0.893171
	H84	H	0.624198	0.916790	0.095569
	H85	H	0.386234	0.109597	0.089199
	H86	H	0.624170	0.113312	0.895899
	H87	H	0.385999	0.912146	0.896681
	H88	H	0.917187	0.116206	0.609204
	H89	H	0.092933	0.108258	0.376081
	H90	H	0.112969	0.911816	0.614740
	H91	H	0.909370	0.920392	0.374984
	H92	H	0.105833	0.630264	0.899375
	H93	H	0.099769	0.393820	0.089486
	H94	H	0.909281	0.630059	0.088484
	H95	H	0.907254	0.391687	0.892824
	H96	H	0.412033	0.126278	0.578424
	H97	H	0.602510	0.892678	0.586091
	H98	H	0.598008	0.127845	0.401304
	H99	H	0.419053	0.897237	0.398096
	H100	H	0.599835	0.424461	0.105714
	H101	H	0.589450	0.603516	0.877945
	H102	H	0.416194	0.612618	0.108787
	H103	H	0.412374	0.418916	0.874906
	H104	H	0.118805	0.601157	0.398102
	H105	H	0.885455	0.605554	0.594458
	H106	H	0.118969	0.422275	0.580570
	H107	H	0.886242	0.416912	0.391423
	H108	H	0.917975	0.626072	0.084275
	H109	H	0.095719	0.395970	0.083310
	H110	H	0.094120	0.629778	0.892124
	H111	H	0.918720	0.396421	0.896880
	H112	H	0.098600	0.935952	0.602575
	H113	H	0.104144	0.108791	0.372915
	H114	H	0.898656	0.105604	0.611645
	H115	H	0.912667	0.920235	0.376378
	H116	H	0.618094	0.101760	0.907359
	H117	H	0.389905	0.106605	0.080275
	H118	H	0.620747	0.910729	0.078335
	H119	H	0.389714	0.919070	0.902618
	C120	C	0.382931	0.019960	0.613318
	C121	C	0.626077	1.002931	0.613391
	C122	C	0.625679	0.019492	0.371101
	C123	C	0.383113	1.003626	0.370625
	C124	C	0.627085	0.389441	-0.000678
	C125	C	0.627064	0.633318	0.982797
	C126	C	0.383996	0.632797	-0.000748
	C127	C	0.383561	0.390042	0.983201
	C128	C	0.012397	0.633477	0.370086
	C129	C	0.996151	0.633755	0.614540
	C130	C	0.013185	0.390255	0.613763
	C131	C	0.997183	0.390681	0.370290
	C132	C	0.884036	0.519764	0.112657
	C133	C	0.127595	0.503186	0.113715
	C134	C	0.126434	0.519921	0.870774
	C135	C	0.883389	0.502940	0.870208
	C136	C	0.126693	0.890332	0.500268
	C137	C	0.126523	0.133560	0.483842
	C138	C	0.882116	0.134140	0.500006
	C139	C	0.883437	0.891120	0.483422
	C140	C	0.512943	0.132837	0.870170
	C141	C	0.496841	0.133584	0.113926
	C142	C	0.513201	0.889748	0.113690
	C143	C	0.496295	0.889879	0.869796
	C144	C	0.385838	0.896225	0.667510
	C145	C	0.623052	0.126254	0.668520
	C146	C	0.623663	0.896353	0.315779
	C147	C	0.385659	0.126728	0.315553
	C148	C	0.681540	0.392131	0.876577
	C149	C	0.681664	0.630062	0.105978
	C150	C	0.328270	0.630929	0.876370
	C151	C	0.329070	0.392815	0.106137
	C152	C	0.889280	0.688268	0.373113
	C153	C	0.119084	0.688404	0.610741
	C154	C	0.890160	0.335954	0.610247
	C155	C	0.120097	0.335601	0.373526
	C156	C	0.890175	0.393604	0.668052
	C157	C	0.119066	0.630873	0.668918
	C158	C	0.890126	0.631868	0.313556
	C159	C	0.119916	0.392902	0.315378
	C160	C	0.387353	0.687386	0.876029
	C161	C	0.623984	0.687653	0.106223
	C162	C	0.623666	0.334765	0.876222
	C163	C	0.387397	0.335819	0.106312
	C164	C	0.681199	0.896315	0.373126
	C165	C	0.680981	0.126359	0.611300
	C166	C	0.327937	0.896723	0.610844
	C167	C	0.328235	0.126934	0.373143
	C168	C	0.887107	0.396251	0.167482
	C169	C	0.124426	0.626681	0.168424
	C170	C	0.124022	0.396604	0.816067
	C171	C	0.887101	0.626671	0.816184
	C172	C	0.181242	0.892755	0.376956
	C173	C	0.181056	0.130415	0.607110
	C174	C	0.827504	0.131280	0.376936
	C175	C	0.828548	0.893789	0.606520
	C176	C	0.389798	0.187357	0.873711
	C177	C	0.619846	0.187572	0.110884
	C178	C	0.390105	0.834758	0.110199
	C179	C	0.619823	0.835981	0.873728
	C180	C	0.390112	0.892529	0.168008
	C181	C	0.619484	0.130688	0.169325
	C182	C	0.389652	0.130176	0.815317
	C183	C	0.619249	0.892680	0.815069
	C184	C	0.886664	0.188059	0.376502
	C185	C	0.122525	0.187153	0.607438
	C186	C	0.122814	0.835609	0.376870
	C187	C	0.886532	0.836724	0.606717
	C188	C	0.181250	0.396619	0.873680
	C189	C	0.181927	0.626711	0.110830
	C190	C	0.829240	0.396183	0.110317
	C191	C	0.829075	0.626559	0.873291
	C192	C	0.404716	0.106196	0.591636
	C193	C	0.604437	0.916871	0.591189
	C194	C	0.603541	0.105525	0.393317
	C195	C	0.405009	0.917447	0.392586
	C196	C	0.605472	0.411409	0.085203
	C197	C	0.605390	0.611712	0.896813
	C198	C	0.405879	0.610729	0.085182
	C199	C	0.404907	0.411785	0.896861
	C200	C	0.097958	0.611414	0.392182
	C201	C	0.910220	0.612012	0.592722
	C202	C	0.099183	0.412062	0.592085
	C203	C	0.911551	0.412903	0.391982
	C204	C	0.905796	0.605800	0.090451
	C205	C	0.105801	0.416730	0.091891
	C206	C	0.104527	0.606317	0.892426
	C207	C	0.905006	0.416646	0.891828
	C208	C	0.105065	0.912570	0.585715
	C209	C	0.105025	0.111866	0.397712
	C210	C	0.904006	0.112151	0.585988
	C211	C	0.904795	0.912919	0.397623
	C212	C	0.598929	0.110779	0.891812
	C213	C	0.410693	0.112021	0.092124
	C214	C	0.598773	0.912105	0.091932
	C215	C	0.410152	0.911307	0.891224
	Zn216	Zn	0.503863	0.011108	0.741247
	Zn217	Zn	0.504761	0.011370	0.242428
	Zn218	Zn	0.755345	0.511246	-0.008438
	Zn219	Zn	0.255027	0.511900	-0.008431
	Zn220	Zn	0.004264	0.762235	0.492019
	Zn221	Zn	0.005049	0.262181	0.491944
	Zn222	Zn	0.005264	0.511520	0.742559
	Zn223	Zn	0.005112	0.511799	0.241088
	Zn224	Zn	0.505218	0.761664	-0.008582
	Zn225	Zn	0.505506	0.261459	-0.008254
	Zn226	Zn	0.754032	0.011444	0.491859
	Zn227	Zn	0.255261	0.011788	0.492061
	N228	N	0.419387	0.973822	0.669101
	N229	N	0.589466	0.048717	0.669748
	N230	N	0.589963	0.973975	0.314342
	N231	N	0.419332	0.049099	0.313965
	N232	N	0.683789	0.425371	0.954135
	N233	N	0.683707	0.596989	0.028258
	N234	N	0.326455	0.597421	0.953929
	N235	N	0.326743	0.425971	0.028488
	N236	N	0.966262	0.689295	0.407522
	N237	N	0.041472	0.690290	0.577527
	N238	N	0.967618	0.333714	0.577351
	N239	N	0.042842	0.334171	0.407047
	N240	N	0.967795	0.426656	0.670183
	N241	N	0.041671	0.597723	0.671217
	N242	N	0.967618	0.598366	0.311757
	N243	N	0.042496	0.426417	0.313164
	N244	N	0.421120	0.688786	0.953377
	N245	N	0.590323	0.689589	0.028880
	N246	N	0.590465	0.333073	0.953748
	N247	N	0.420323	0.333742	0.028678
	N248	N	0.682547	0.973877	0.406803
	N249	N	0.682999	0.048636	0.577727
	N250	N	0.326071	0.974609	0.577788
	N251	N	0.326634	0.049338	0.406668
	N252	N	0.920326	0.473867	0.169078
	N253	N	0.091256	0.548606	0.170093
	N254	N	0.090652	0.474381	0.814202
	N255	N	0.920044	0.548701	0.814080
	N256	N	0.183630	0.926121	0.454459
	N257	N	0.183697	0.097674	0.529236
	N258	N	0.824789	0.098552	0.454713
	N259	N	0.826452	0.926839	0.528849
	N260	N	0.467290	0.189028	0.907071
	N261	N	0.542554	0.189539	0.077324
	N262	N	0.467624	0.832843	0.077188
	N263	N	0.542371	0.834223	0.907283
	N264	N	0.467470	0.925983	0.170280
	N265	N	0.541826	0.097645	0.171243
	N266	N	0.467215	0.096871	0.813036
	N267	N	0.541562	0.925191	0.812468
	N268	N	0.919794	0.190074	0.454204
	N269	N	0.089374	0.189280	0.529884
	N270	N	0.089985	0.833620	0.454499
	N271	N	0.920059	0.835105	0.529310
	N272	N	0.182607	0.474390	0.907326
	N273	N	0.184063	0.548991	0.077742
	N274	N	0.827336	0.474015	0.076930
	N275	N	0.826849	0.548746	0.906237
	O276	O	0.533486	-0.463779	1.419217
	H277	H	0.535511	-0.461487	1.423119
	H278	H	0.541807	-0.458309	1.407470
	O279	O	0.512990	0.493302	0.417418
	H280	H	0.509306	0.491247	0.417149
	H281	H	0.518268	0.502213	0.417130
	O282	O	-0.462068	0.537976	1.468450
	H283	H	-0.465247	0.531132	1.471642
	H284	H	-0.464880	0.542695	1.471822
	O285	O	0.520219	0.480428	0.521761
	H286	H	0.526652	0.474506	0.519121
	H287	H	0.521642	0.473982	0.526684
	O288	O	0.489917	0.517514	0.442167
	H289	H	0.486314	0.514145	0.435884
	H290	H	0.479335	0.518567	0.434511
	O291	O	0.417857	0.480832	0.410431
	H292	H	0.419451	0.491537	0.406248
	H293	H	0.419107	0.482650	0.411647
	O294	O	0.476886	0.550960	0.429044
	H295	H	0.475361	0.544040	0.427993
	H296	H	0.484049	0.549435	0.432879
	O297	O	0.431361	-0.555218	0.430894
	H298	H	0.418169	-0.555696	0.425975
	H299	H	0.432455	-0.557081	0.426170
