data_Molecule from HDF5

_cell_length_a		16.612794
_cell_length_b		16.556885
_cell_length_c		16.482517
_cell_angle_alpha	90.130788
_cell_angle_beta	89.823793
_cell_angle_gamma	89.881518
_symmetry_space_group_name_H-M	'P 1'
_symmetry_Int_Tables_number		1

loop_
	_symmetry_equiv_pos_as_xyz
	x,y,z

loop_
	_atom_site_label
	_atom_site_type_symbol
	_atom_site_fract_x
	_atom_site_fract_y
	_atom_site_fract_z
	H0	H	0.392770	0.845513	0.717375
	H1	H	0.596319	0.161455	0.716693
	H2	H	0.598333	0.845838	0.278330
	H3	H	0.389278	0.160794	0.277748
	H4	H	0.716024	0.398827	0.841834
	H5	H	0.713670	0.608095	0.157147
	H6	H	0.273152	0.608945	0.843250
	H7	H	0.276135	0.401186	0.158944
	H8	H	0.837816	0.725236	0.396165
	H9	H	0.152351	0.722854	0.602377
	H10	H	0.839579	0.281857	0.605105
	H11	H	0.152496	0.282216	0.392288
	H12	H	0.839787	0.397925	0.721538
	H13	H	0.152451	0.606203	0.718384
	H14	H	0.837127	0.607100	0.280805
	H15	H	0.152457	0.400165	0.277381
	H16	H	0.391331	0.723146	0.841861
	H17	H	0.597138	0.723757	0.156699
	H18	H	0.598675	0.283420	0.841623
	H19	H	0.391505	0.284112	0.157939
	H20	H	0.715993	0.846243	0.393376
	H21	H	0.714036	0.160801	0.601654
	H22	H	0.274652	0.846761	0.603222
	H23	H	0.270788	0.158966	0.390716
	H24	H	0.892590	0.345648	0.218334
	H25	H	0.097230	0.661160	0.218782
	H26	H	0.100797	0.346568	0.777929
	H27	H	0.890363	0.659085	0.778305
	H28	H	0.217529	0.897606	0.342967
	H29	H	0.214915	0.107937	0.657018
	H30	H	0.776584	0.107608	0.340877
	H31	H	0.773653	0.899429	0.656719
	H32	H	0.338371	0.222399	0.897342
	H33	H	0.649638	0.226535	0.105999
	H34	H	0.339147	0.781196	0.105238
	H35	H	0.651895	0.781488	0.893163
	H36	H	0.338350	0.900096	0.220085
	H37	H	0.650723	0.108738	0.220749
	H38	H	0.337744	0.104973	0.781545
	H39	H	0.652560	0.899534	0.778140
	H40	H	0.894799	0.222042	0.340609
	H41	H	0.099326	0.224177	0.656192
	H42	H	0.101050	0.781328	0.342610
	H43	H	0.890459	0.784120	0.657664
	H44	H	0.217486	0.346841	0.893683
	H45	H	0.214627	0.660379	0.102970
	H46	H	0.774881	0.346358	0.104246
	H47	H	0.772538	0.658618	0.893373
	H48	H	0.399894	0.116521	0.586254
	H49	H	0.594686	0.888530	0.584729
	H50	H	0.589275	0.115022	0.413583
	H51	H	0.408150	0.893848	0.413756
	H52	H	0.587974	0.413059	0.114080
	H53	H	0.580607	0.598871	0.885332
	H54	H	0.403961	0.590300	0.111339
	H55	H	0.401345	0.416106	0.886594
	H56	H	0.107679	0.593158	0.407271
	H57	H	0.880192	0.598191	0.591954
	H58	H	0.104028	0.417229	0.580370
	H59	H	0.885291	0.415795	0.412946
	H60	H	0.107703	0.418463	0.593942
	H61	H	0.884570	0.594604	0.584636
	H62	H	0.106628	0.595093	0.411595
	H63	H	0.883260	0.414940	0.406117
	H64	H	0.408436	0.591699	0.111477
	H65	H	0.593547	0.591098	0.883864
	H66	H	0.585012	0.417758	0.111307
	H67	H	0.409600	0.415420	0.888995
	H68	H	0.588121	0.117860	0.405712
	H69	H	0.584835	0.887868	0.597177
	H70	H	0.405178	0.117156	0.594091
	H71	H	0.404320	0.890960	0.410994
	H72	H	0.903459	0.615959	0.090568
	H73	H	0.081150	0.394227	0.083453
	H74	H	0.084270	0.615169	0.909263
	H75	H	0.906502	0.391216	0.910024
	H76	H	0.081833	0.919134	0.609989
	H77	H	0.083095	0.098404	0.385003
	H78	H	0.907529	0.089663	0.610001
	H79	H	0.905732	0.910672	0.384889
	H80	H	0.610145	0.091876	0.899980
	H81	H	0.383133	0.092735	0.089143
	H82	H	0.607602	0.913719	0.090006
	H83	H	0.382954	0.910480	0.910049
	H84	H	0.607458	0.910889	0.086594
	H85	H	0.382912	0.093583	0.088726
	H86	H	0.610184	0.101324	0.911663
	H87	H	0.384728	0.915129	0.911328
	H88	H	0.906913	0.098263	0.613171
	H89	H	0.091240	0.088999	0.384644
	H90	H	0.081613	0.909044	0.613035
	H91	H	0.904059	0.918252	0.388245
	H92	H	0.084811	0.615691	0.910477
	H93	H	0.091549	0.390057	0.086441
	H94	H	0.903853	0.616052	0.089676
	H95	H	0.908006	0.391157	0.911963
	H96	H	0.408801	0.114012	0.586426
	H97	H	0.579870	0.894182	0.583527
	H98	H	0.581370	0.114558	0.410005
	H99	H	0.409019	0.892751	0.408854
	H100	H	0.582340	0.412873	0.111828
	H101	H	0.581496	0.584417	0.889851
	H102	H	0.405182	0.594479	0.113823
	H103	H	0.405874	0.408872	0.884791
	H104	H	0.105352	0.590471	0.410117
	H105	H	0.883644	0.590086	0.592155
	H106	H	0.109920	0.406666	0.586822
	H107	H	0.883695	0.409220	0.410795
	H108	H	0.902996	0.616135	0.089154
	H109	H	0.082521	0.389266	0.093797
	H110	H	0.085533	0.615701	0.909267
	H111	H	0.905722	0.391253	0.912261
	H112	H	0.090429	0.914468	0.614224
	H113	H	0.079620	0.086953	0.389411
	H114	H	0.899828	0.092476	0.613862
	H115	H	0.911616	0.914724	0.388958
	H116	H	0.604481	0.087508	0.913222
	H117	H	0.383039	0.092913	0.088149
	H118	H	0.605521	0.914746	0.086305
	H119	H	0.382678	0.914123	0.906553
	C120	C	0.373824	0.011892	0.620252
	C121	C	0.616819	0.994641	0.619799
	C122	C	0.617413	0.011922	0.376949
	C123	C	0.374014	0.995656	0.378241
	C124	C	0.616727	0.381869	0.008170
	C125	C	0.616295	0.624003	0.990472
	C126	C	0.374063	0.624063	0.007919
	C127	C	0.374301	0.382512	0.991630
	C128	C	0.003016	0.625191	0.378365
	C129	C	0.986808	0.624829	0.620843
	C130	C	0.004275	0.381619	0.620031
	C131	C	0.987735	0.381874	0.377595
	C132	C	0.872688	0.512269	0.121808
	C133	C	0.115763	0.495131	0.119778
	C134	C	0.117106	0.511570	0.877592
	C135	C	0.874309	0.494298	0.878709
	C136	C	0.116695	0.882103	0.508305
	C137	C	0.116566	0.124192	0.490516
	C138	C	0.874087	0.124945	0.507492
	C139	C	0.875020	0.883176	0.491579
	C140	C	0.504066	0.124237	0.878176
	C141	C	0.486284	0.125329	0.121101
	C142	C	0.503400	0.881993	0.119706
	C143	C	0.487031	0.881256	0.876899
	C144	C	0.373152	0.893305	0.678845
	C145	C	0.616232	0.113882	0.677764
	C146	C	0.617566	0.893235	0.317896
	C147	C	0.371252	0.113379	0.317770
	C148	C	0.675952	0.380450	0.889129
	C149	C	0.674582	0.626179	0.109572
	C150	C	0.314017	0.626562	0.889814
	C151	C	0.315278	0.381691	0.110874
	C152	C	0.884854	0.684939	0.377519
	C153	C	0.105292	0.683126	0.621462
	C154	C	0.886766	0.321688	0.623175
	C155	C	0.105670	0.322716	0.375270
	C156	C	0.886711	0.379610	0.681093
	C157	C	0.105340	0.625213	0.679058
	C158	C	0.884471	0.626275	0.320134
	C159	C	0.105465	0.380996	0.317641
	C160	C	0.372333	0.683588	0.889244
	C161	C	0.616732	0.683912	0.109289
	C162	C	0.617783	0.322943	0.889043
	C163	C	0.372798	0.323579	0.110681
	C164	C	0.676273	0.893357	0.374914
	C165	C	0.674683	0.113728	0.620641
	C166	C	0.314495	0.893712	0.621906
	C167	C	0.312151	0.112511	0.374159
	C168	C	0.873016	0.393072	0.179497
	C169	C	0.116232	0.613764	0.178966
	C170	C	0.119176	0.393609	0.817777
	C171	C	0.872002	0.612319	0.818573
	C172	C	0.177166	0.879329	0.390103
	C173	C	0.175461	0.126291	0.609339
	C174	C	0.816247	0.126055	0.388300
	C175	C	0.814350	0.881237	0.609792
	C176	C	0.385514	0.182745	0.878102
	C177	C	0.603192	0.185982	0.123997
	C178	C	0.385856	0.821886	0.122745
	C179	C	0.604776	0.821299	0.874669
	C180	C	0.385337	0.880753	0.180013
	C181	C	0.603745	0.127556	0.181131
	C182	C	0.385302	0.124322	0.820507
	C183	C	0.605308	0.880093	0.817551
	C184	C	0.874750	0.183039	0.388135
	C185	C	0.118017	0.184105	0.608983
	C186	C	0.119262	0.821601	0.389950
	C187	C	0.872542	0.823883	0.610246
	C188	C	0.177388	0.394124	0.875150
	C189	C	0.174693	0.613448	0.121581
	C190	C	0.814456	0.393609	0.122806
	C191	C	0.813654	0.612056	0.875943
	C192	C	0.397657	0.094541	0.595925
	C193	C	0.593352	0.911901	0.595443
	C194	C	0.593155	0.094318	0.402375
	C195	C	0.399785	0.913856	0.403984
	C196	C	0.592107	0.407185	0.090777
	C197	C	0.592220	0.598814	0.907888
	C198	C	0.398820	0.599194	0.090420
	C199	C	0.398680	0.406523	0.908670
	C200	C	0.085086	0.600260	0.402770
	C201	C	0.904563	0.601075	0.596696
	C202	C	0.085950	0.406668	0.594310
	C203	C	0.905463	0.406476	0.402740
	C204	C	0.896649	0.594574	0.097081
	C205	C	0.091758	0.412629	0.094924
	C206	C	0.092002	0.594234	0.902626
	C207	C	0.899596	0.412648	0.904158
	C208	C	0.091744	0.907103	0.590977
	C209	C	0.091911	0.098783	0.407911
	C210	C	0.897981	0.100465	0.590683
	C211	C	0.900049	0.907663	0.408753
	C212	C	0.586864	0.100516	0.901780
	C213	C	0.404439	0.100174	0.095888
	C214	C	0.585399	0.906293	0.094706
	C215	C	0.404877	0.906162	0.902106
	Zn216	Zn	0.495468	0.003137	0.748523
	Zn217	Zn	0.494682	0.003662	0.249288
	Zn218	Zn	0.745067	0.503185	-0.000250
	Zn219	Zn	0.245534	0.503456	-0.000578
	Zn220	Zn	-0.004904	0.753934	0.500282
	Zn221	Zn	-0.003901	0.252557	0.498439
	Zn222	Zn	-0.004236	0.502799	0.749464
	Zn223	Zn	-0.005351	0.503093	0.249099
	Zn224	Zn	0.495130	0.752449	-0.001564
	Zn225	Zn	0.495073	0.253616	-0.000136
	Zn226	Zn	0.745668	0.003112	0.498339
	Zn227	Zn	0.245207	0.003677	0.499575
	N228	N	0.409236	0.967881	0.678089
	N229	N	0.581114	0.038967	0.677584
	N230	N	0.582160	0.968163	0.318644
	N231	N	0.409320	0.039661	0.320300
	N232	N	0.675654	0.416090	0.964416
	N233	N	0.674692	0.589963	0.034493
	N234	N	0.314628	0.590592	0.964713
	N235	N	0.315835	0.417412	0.035738
	N236	N	0.959795	0.684728	0.412621
	N237	N	0.030544	0.683414	0.586313
	N238	N	0.960904	0.322705	0.586020
	N239	N	0.031319	0.323249	0.411799
	N240	N	0.960837	0.416173	0.679356
	N241	N	0.030527	0.590017	0.679281
	N242	N	0.959093	0.590167	0.320004
	N243	N	0.031101	0.417052	0.318981
	N244	N	0.408788	0.682321	0.963662
	N245	N	0.581575	0.683014	0.034167
	N246	N	0.581921	0.323406	0.964186
	N247	N	0.408659	0.323875	0.035446
	N248	N	0.676528	0.968334	0.410753
	N249	N	0.675389	0.038490	0.585419
	N250	N	0.314602	0.968674	0.586471
	N251	N	0.313711	0.038251	0.410952
	N252	N	0.908384	0.468000	0.179288
	N253	N	0.080248	0.539091	0.177889
	N254	N	0.082484	0.467981	0.819135
	N255	N	0.909076	0.538130	0.819884
	N256	N	0.175831	0.916188	0.464647
	N257	N	0.174851	0.089889	0.534407
	N258	N	0.815592	0.090647	0.463632
	N259	N	0.815858	0.917413	0.534963
	N260	N	0.460405	0.182820	0.913057
	N261	N	0.529147	0.184697	0.087593
	N262	N	0.460057	0.822579	0.086016
	N263	N	0.530172	0.821826	0.910756
	N264	N	0.459455	0.917555	0.178417
	N265	N	0.529822	0.090631	0.179477
	N266	N	0.460150	0.088912	0.820000
	N267	N	0.530932	0.916320	0.818520
	N268	N	0.909821	0.182526	0.463354
	N269	N	0.082247	0.182997	0.533968
	N270	N	0.082273	0.823185	0.464444
	N271	N	0.909711	0.825030	0.535564
	N272	N	0.176443	0.468787	0.911379
	N273	N	0.174509	0.538745	0.085483
	N274	N	0.813960	0.468734	0.087811
	N275	N	0.815038	0.537799	0.912633
	O276	O	0.947965	0.920106	-0.143389
	H277	H	0.945548	0.911854	-0.136743
	H278	H	0.965331	0.917123	-0.132537
	O279	O	0.070442	0.013985	1.131454
	H280	H	0.081391	0.016192	1.133963
	H281	H	0.063929	0.005844	1.132934
	O282	O	0.504463	0.649624	0.512125
	H283	H	0.509811	0.675228	0.518297
	H284	H	0.501302	0.630857	0.525598
	O285	O	0.512155	0.376754	0.712207
	H286	H	0.509591	0.379127	0.711283
	H287	H	0.509302	0.351004	0.722039
	O288	O	1.365706	-0.571487	1.335209
	H289	H	1.385696	-0.581560	1.339828
	H290	H	1.351640	-0.565384	1.338804
	O291	O	0.304004	0.628697	0.604391
	H292	H	0.317058	0.611958	0.595111
	H293	H	0.317745	0.625271	0.591890
	O294	O	0.130469	-0.041776	-0.204012
	H295	H	0.135582	-0.044265	-0.208184
	H296	H	0.134429	-0.059645	-0.212405
	O297	O	1.044733	0.221837	-0.018133
	H298	H	1.032363	0.225371	-0.008742
	H299	H	1.043279	0.216924	-0.026138
	O300	O	0.206124	0.174736	-0.009315
	H301	H	0.193129	0.159049	-0.019064
	H302	H	0.234355	0.194754	-0.014010
	O303	O	-0.038960	-0.159139	-0.058363
	H304	H	-0.017429	-0.156372	-0.051384
	H305	H	-0.029401	-0.181509	-0.067270
	O306	O	0.775748	-0.211521	0.029818
	H307	H	0.776895	-0.224827	0.026700
	H308	H	0.767163	-0.206003	0.021736
	O309	O	0.578527	0.363700	0.521133
	H310	H	0.563675	0.362347	0.525368
	H311	H	0.572764	0.367617	0.534537
	O312	O	0.453686	0.421277	0.320965
	H313	H	0.461914	0.416063	0.330471
	H314	H	0.458793	0.412185	0.325438
	O315	O	0.527447	0.719869	0.712907
	H316	H	0.542349	0.738442	0.731818
	H317	H	0.556821	0.726056	0.709916
	O318	O	1.025701	0.782759	-0.219350
	H319	H	1.056318	0.774874	-0.228495
	H320	H	1.028680	0.759168	-0.225550
	O321	O	0.068439	1.049656	0.839274
	H322	H	0.051877	1.065346	0.841111
	H323	H	0.069443	1.042512	0.836702
	O324	O	0.963904	-0.217081	1.222492
	H325	H	0.955591	-0.241333	1.251819
	H326	H	0.937397	-0.211438	1.217296
	O327	O	0.252702	0.737133	0.741590
	H328	H	0.268694	0.705307	0.731852
	H329	H	0.251506	0.739376	0.764025
	O330	O	0.343821	0.355789	0.238985
	H331	H	0.358431	0.358508	0.243915
	H332	H	0.335001	0.356538	0.247632
	O333	O	0.693666	0.699445	0.691901
	H334	H	0.707403	0.703154	0.701650
	H335	H	0.702243	0.668094	0.681733
	O336	O	0.486055	0.538377	0.615207
	H337	H	0.490245	0.563980	0.610420
	H338	H	0.502328	0.545411	0.622026
	O339	O	0.538883	0.673761	0.469589
	H340	H	0.533447	0.660946	0.478776
	H341	H	0.538733	0.680478	0.492882
	O342	O	0.138929	1.135663	-0.160832
	H343	H	0.131572	1.114779	-0.153996
	H344	H	0.132123	1.132518	-0.144891
	O345	O	0.431664	0.416512	0.639108
	H346	H	0.420671	0.416699	0.655814
	H347	H	0.432747	0.404265	0.656011
	O348	O	0.300788	0.415538	0.454304
	H349	H	0.315133	0.420047	0.455817
	H350	H	0.300850	0.422821	0.455820
	O351	O	0.142749	0.039798	0.978747
	H352	H	0.128651	0.036056	0.973299
	H353	H	0.146591	0.026718	0.977432
	O354	O	0.984084	0.140959	0.895079
	H355	H	0.995130	0.133343	0.891750
	H356	H	0.983524	0.142996	0.909475
	O357	O	0.464706	0.719537	0.297462
	H358	H	0.446430	0.717398	0.300994
	H359	H	0.468759	0.736677	0.277758
	O360	O	0.823865	0.842030	0.815074
	H361	H	0.823512	0.843353	0.831462
	H362	H	0.847308	0.848004	0.820801
	O363	O	0.639889	0.717507	0.490779
	H364	H	0.637273	0.715953	0.482166
	H365	H	0.638684	0.727399	0.517061
	O366	O	0.594994	0.556358	0.489861
	H367	H	0.591540	0.557679	0.482982
	H368	H	0.589478	0.553352	0.483180
	O369	O	-0.189382	0.188653	1.180947
	H370	H	-0.182256	0.184737	1.174385
	H371	H	-0.170065	0.186048	1.159583
	O372	O	-0.046428	1.042341	1.172401
	H373	H	-0.049538	1.060200	1.170780
	H374	H	-0.049410	1.026479	1.183566
	O375	O	1.118712	-0.027580	0.013027
	H376	H	1.105794	-0.011172	0.002336
	H377	H	1.114323	-0.035245	0.012275
	O378	O	0.707531	0.296335	0.295933
	H379	H	0.690448	0.289496	0.279186
	H380	H	0.717008	0.290081	0.306845
	O381	O	0.228691	0.773279	0.235714
	H382	H	0.231766	0.743601	0.240613
	H383	H	0.229340	0.783135	0.233741
	O384	O	0.361252	0.288500	0.477541
	H385	H	0.377901	0.293124	0.486844
	H386	H	0.334638	0.279847	0.479629
	O387	O	-0.032484	1.173477	0.862945
	H388	H	-0.034101	1.171160	0.863002
	H389	H	-0.053336	1.182964	0.845908
	O390	O	0.198617	0.796721	0.923635
	H391	H	0.201794	0.822566	0.925309
	H392	H	0.206894	0.781318	0.933054
	O393	O	1.130535	0.200518	0.196272
	H394	H	1.137681	0.214955	0.173861
	H395	H	1.145095	0.169307	0.191593
	O396	O	0.542680	0.571812	0.425507
	H397	H	0.542955	0.573238	0.422442
	H398	H	0.559850	0.577832	0.414667
	O399	O	0.631194	0.450568	0.538690
	H400	H	0.635549	0.438828	0.528355
	H401	H	0.641037	0.457394	0.524556
	O402	O	0.791247	0.207468	0.797971
	H403	H	0.808524	0.186098	0.797134
	H404	H	0.782544	0.190165	0.786719
	O405	O	0.587825	0.397131	0.538350
	H406	H	0.589112	0.384682	0.539386
	H407	H	0.595555	0.400082	0.541169
	O408	O	0.785637	1.038576	0.782603
	H409	H	0.791083	1.019364	0.786576
	H410	H	0.778098	1.023263	0.764920
	O411	O	0.772448	0.971714	0.218158
	H412	H	0.760232	0.964601	0.223195
	H413	H	0.763058	0.962072	0.237109
	O414	O	-0.220669	0.066448	0.052295
	H415	H	-0.216570	0.073177	0.043604
	H416	H	-0.223201	0.079905	0.059402
	O417	O	0.999681	0.217145	0.129633
	H418	H	1.022522	0.218836	0.138944
	H419	H	1.009850	0.221402	0.129653
	O420	O	0.777059	-0.051599	0.960653
	H421	H	0.783610	-0.048833	0.969373
	H422	H	0.769450	-0.044590	0.964232
	O423	O	1.203964	0.918617	0.011134
	H424	H	1.196766	0.919502	0.024324
	H425	H	1.209061	0.907080	0.030831
	O426	O	0.705276	0.536253	0.657517
	H427	H	0.705627	0.523512	0.660876
	H428	H	0.707672	0.526887	0.648459
	O429	O	0.283616	0.619503	0.294622
	H430	H	0.281504	0.613299	0.313193
	H431	H	0.287629	0.585970	0.294335
	O432	O	0.774283	0.221663	0.973482
	H433	H	0.764459	0.238769	0.954141
	H434	H	0.773402	0.225048	0.953890
	O435	O	0.423985	0.403116	0.581716
	H436	H	0.439829	0.393539	0.573306
	H437	H	0.417600	0.404991	0.572944
	O438	O	0.802653	0.807528	0.191349
	H439	H	0.808840	0.799990	0.175489
	H440	H	0.788968	0.822749	0.177758
	O441	O	0.444602	0.468047	0.635036
	H442	H	0.439076	0.462689	0.633760
	H443	H	0.440939	0.470215	0.627375
	O444	O	0.304841	0.715891	0.471741
	H445	H	0.293160	0.721482	0.467056
	H446	H	0.310918	0.724321	0.465463
	O447	O	0.717054	0.285932	0.470036
	H448	H	0.709868	0.284447	0.460342
	H449	H	0.729060	0.263162	0.463637
	O450	O	1.106440	-0.068195	0.105670
	H451	H	1.102791	-0.062083	0.115389
	H452	H	1.111659	-0.067151	0.107015
	O453	O	0.568973	0.345619	0.588922
	H454	H	0.565713	0.361108	0.586384
	H455	H	0.573826	0.354323	0.569607
	O456	O	0.028894	1.042352	1.118213
	H457	H	0.017818	1.034080	1.118692
	H458	H	0.019924	1.041810	1.118730
	O459	O	0.714851	0.473483	0.287735
	H460	H	0.699505	0.442875	0.299653
	H461	H	0.740792	0.472210	0.253857
	O462	O	0.514777	0.339277	0.291574
	H463	H	0.506560	0.319854	0.291461
	H464	H	0.513959	0.333265	0.289267
	O465	O	0.627696	0.661427	0.370624
	H466	H	0.618174	0.652257	0.366541
	H467	H	0.625882	0.663552	0.393569
	O468	O	0.015315	0.783520	0.038015
	H469	H	0.018517	0.778610	0.049824
	H470	H	0.018832	0.790899	0.039719
	O471	O	0.280666	0.473975	0.716304
	H472	H	0.263160	0.471529	0.739689
	H473	H	0.287799	0.460464	0.702741
	O474	O	1.143482	0.989421	0.196788
	H475	H	1.132249	0.980453	0.203241
	H476	H	1.133777	0.988127	0.208595
	O477	O	0.289425	0.302666	0.700140
	H478	H	0.296483	0.290541	0.681291
	H479	H	0.272212	0.310447	0.706741
