data_Molecule from HDF5

_cell_length_a		16.214674
_cell_length_b		16.317122
_cell_length_c		16.223955
_cell_angle_alpha	90.167756
_cell_angle_beta	90.085759
_cell_angle_gamma	90.382911
_symmetry_space_group_name_H-M	'P 1'
_symmetry_Int_Tables_number		1

loop_
	_symmetry_equiv_pos_as_xyz
	x,y,z

loop_
	_atom_site_label
	_atom_site_type_symbol
	_atom_site_fract_x
	_atom_site_fract_y
	_atom_site_fract_z
	H0	H	0.400835	0.837284	0.713743
	H1	H	0.601016	0.164941	0.717253
	H2	H	0.600404	0.838139	0.283636
	H3	H	0.400707	0.163364	0.284188
	H4	H	0.713837	0.402270	0.834478
	H5	H	0.716222	0.598676	0.162633
	H6	H	0.287241	0.597079	0.835618
	H7	H	0.285738	0.400814	0.163677
	H8	H	0.836270	0.714180	0.398549
	H9	H	0.164216	0.717574	0.599415
	H10	H	0.838510	0.282170	0.600699
	H11	H	0.163714	0.285435	0.397104
	H12	H	0.836213	0.401540	0.711588
	H13	H	0.165115	0.601431	0.714900
	H14	H	0.836226	0.597755	0.284570
	H15	H	0.164214	0.401940	0.283658
	H16	H	0.401895	0.713593	0.836215
	H17	H	0.603727	0.716620	0.162519
	H18	H	0.600349	0.283952	0.836119
	H19	H	0.399817	0.284034	0.163434
	H20	H	0.712443	0.836878	0.402911
	H21	H	0.718352	0.163802	0.601549
	H22	H	0.283038	0.838354	0.600160
	H23	H	0.286146	0.164622	0.402046
	H24	H	0.897979	0.338011	0.214513
	H25	H	0.101972	0.663125	0.215138
	H26	H	0.099050	0.336478	0.781608
	H27	H	0.902030	0.662997	0.783851
	H28	H	0.214041	0.901924	0.335695
	H29	H	0.214877	0.101630	0.664269
	H30	H	0.784303	0.098412	0.336516
	H31	H	0.786444	0.902360	0.664942
	H32	H	0.337238	0.214844	0.898922
	H33	H	0.663357	0.218019	0.102303
	H34	H	0.337864	0.782505	0.100585
	H35	H	0.664665	0.786725	0.900092
	H36	H	0.336629	0.900354	0.214280
	H37	H	0.664322	0.101162	0.216337
	H38	H	0.335405	0.097898	0.787629
	H39	H	0.664105	0.902655	0.785693
	H40	H	0.899910	0.215197	0.335502
	H41	H	0.103009	0.219592	0.661676
	H42	H	0.098658	0.786256	0.335437
	H43	H	0.898779	0.784071	0.663438
	H44	H	0.215584	0.336255	0.898355
	H45	H	0.217803	0.662926	0.099163
	H46	H	0.784520	0.337382	0.096589
	H47	H	0.786642	0.663445	0.899247
	H48	H	0.406161	0.117475	0.592837
	H49	H	0.597246	0.881669	0.599374
	H50	H	0.594439	0.114740	0.417118
	H51	H	0.407035	0.885172	0.409575
	H52	H	0.593337	0.407463	0.115956
	H53	H	0.599381	0.594303	0.879820
	H54	H	0.409142	0.593218	0.117774
	H55	H	0.408008	0.401726	0.881494
	H56	H	0.112150	0.587298	0.416749
	H57	H	0.886478	0.588320	0.586936
	H58	H	0.117683	0.410345	0.592887
	H59	H	0.884381	0.405156	0.411618
	H60	H	0.118042	0.408500	0.589217
	H61	H	0.882458	0.591313	0.596330
	H62	H	0.118964	0.589400	0.396025
	H63	H	0.885219	0.411509	0.405409
	H64	H	0.409229	0.590132	0.116624
	H65	H	0.590969	0.589860	0.883883
	H66	H	0.593687	0.408401	0.116850
	H67	H	0.405467	0.409601	0.883364
	H68	H	0.598337	0.119387	0.405188
	H69	H	0.585418	0.887049	0.595953
	H70	H	0.406471	0.118831	0.597559
	H71	H	0.405538	0.884805	0.407428
	H72	H	0.911247	0.616974	0.094606
	H73	H	0.086310	0.385646	0.094765
	H74	H	0.094595	0.613904	0.909788
	H75	H	0.894729	0.381319	0.909254
	H76	H	0.093174	0.905902	0.618252
	H77	H	0.089583	0.088229	0.384902
	H78	H	0.908985	0.088767	0.615487
	H79	H	0.905671	0.906825	0.382383
	H80	H	0.619246	0.094287	0.904104
	H81	H	0.387436	0.089657	0.084169
	H82	H	0.618303	0.911548	0.096774
	H83	H	0.382913	0.903045	0.908102
	H84	H	0.619197	0.903594	0.092345
	H85	H	0.383612	0.085660	0.099009
	H86	H	0.617235	0.097158	0.913163
	H87	H	0.383652	0.906096	0.909367
	H88	H	0.915802	0.092807	0.614045
	H89	H	0.090208	0.100001	0.381540
	H90	H	0.094129	0.911128	0.615973
	H91	H	0.906923	0.908395	0.383817
	H92	H	0.096283	0.616129	0.906666
	H93	H	0.091621	0.386181	0.084379
	H94	H	0.909134	0.615199	0.088148
	H95	H	0.908637	0.380987	0.893353
	H96	H	0.410497	0.116357	0.595521
	H97	H	0.594590	0.886713	0.587516
	H98	H	0.586213	0.115221	0.406320
	H99	H	0.408421	0.885775	0.406659
	H100	H	0.592835	0.407866	0.115985
	H101	H	0.590954	0.599337	0.880616
	H102	H	0.412118	0.592928	0.116149
	H103	H	0.413653	0.406871	0.884615
	H104	H	0.119537	0.606427	0.409792
	H105	H	0.883297	0.597792	0.589523
	H106	H	0.116413	0.411934	0.589711
	H107	H	0.881599	0.403865	0.403185
	H108	H	0.905053	0.618054	0.092467
	H109	H	0.097285	0.381698	0.093854
	H110	H	0.092160	0.615219	0.906043
	H111	H	0.914773	0.388501	0.912972
	H112	H	0.088184	0.908635	0.615691
	H113	H	0.099955	0.092034	0.380748
	H114	H	0.909365	0.096842	0.617174
	H115	H	0.907503	0.905411	0.383621
	H116	H	0.615721	0.087794	0.910310
	H117	H	0.380888	0.100535	0.093576
	H118	H	0.615985	0.911113	0.088664
	H119	H	0.382550	0.906243	0.906215
	C120	C	0.378155	0.009793	0.623228
	C121	C	0.622577	0.992854	0.623742
	C122	C	0.621587	0.008863	0.379711
	C123	C	0.378754	0.992939	0.379137
	C124	C	0.622123	0.378955	0.007841
	C125	C	0.623196	0.622691	0.989831
	C126	C	0.380810	0.620533	0.008398
	C127	C	0.379197	0.377103	0.991336
	C128	C	0.008685	0.622178	0.377808
	C129	C	0.992206	0.622652	0.621196
	C130	C	0.009273	0.379710	0.619637
	C131	C	0.991832	0.378759	0.377033
	C132	C	0.878476	0.508921	0.120499
	C133	C	0.122125	0.491739	0.120992
	C134	C	0.122849	0.507562	0.877391
	C135	C	0.878107	0.491489	0.876379
	C136	C	0.120777	0.879662	0.508100
	C137	C	0.122561	0.123166	0.490865
	C138	C	0.880379	0.121790	0.507748
	C139	C	0.877540	0.877869	0.491629
	C140	C	0.508699	0.121236	0.879709
	C141	C	0.491813	0.122219	0.122275
	C142	C	0.509416	0.878881	0.121439
	C143	C	0.491613	0.877980	0.878617
	C144	C	0.380005	0.886486	0.677108
	C145	C	0.621170	0.115947	0.679294
	C146	C	0.619490	0.886558	0.322753
	C147	C	0.380787	0.115137	0.322939
	C148	C	0.676481	0.381377	0.883860
	C149	C	0.678577	0.619503	0.113713
	C150	C	0.325181	0.617790	0.884730
	C151	C	0.323051	0.379770	0.114476
	C152	C	0.885309	0.676338	0.379015
	C153	C	0.115374	0.679586	0.619942
	C154	C	0.886795	0.321698	0.619243
	C155	C	0.114894	0.323457	0.377582
	C156	C	0.885488	0.381005	0.674441
	C157	C	0.115703	0.621783	0.677236
	C158	C	0.885246	0.618412	0.322255
	C159	C	0.115115	0.381137	0.321039
	C160	C	0.381949	0.675943	0.885230
	C161	C	0.622870	0.678261	0.113603
	C162	C	0.620088	0.322416	0.884818
	C163	C	0.380164	0.321893	0.114351
	C164	C	0.675612	0.885791	0.381915
	C165	C	0.679555	0.115337	0.621790
	C166	C	0.321404	0.887079	0.620677
	C167	C	0.323843	0.115714	0.381686
	C168	C	0.879090	0.386499	0.175849
	C169	C	0.121651	0.614464	0.177013
	C170	C	0.119778	0.385076	0.820374
	C171	C	0.881347	0.614269	0.821385
	C172	C	0.176342	0.881843	0.384706
	C173	C	0.177487	0.121463	0.614707
	C174	C	0.822999	0.119265	0.385029
	C175	C	0.822732	0.880743	0.615268
	C176	C	0.385775	0.176304	0.880804
	C177	C	0.614946	0.178950	0.121534
	C178	C	0.386578	0.821576	0.120181
	C179	C	0.615184	0.824136	0.880026
	C180	C	0.385965	0.880105	0.176691
	C181	C	0.615135	0.121259	0.178476
	C182	C	0.384945	0.118311	0.824829
	C183	C	0.614983	0.881813	0.823101
	C184	C	0.880253	0.177497	0.384760
	C185	C	0.122147	0.180622	0.613249
	C186	C	0.118716	0.824324	0.384702
	C187	C	0.879054	0.822118	0.614498
	C188	C	0.177793	0.384961	0.878207
	C189	C	0.179258	0.614294	0.119303
	C190	C	0.822080	0.386300	0.117609
	C191	C	0.823961	0.614343	0.878959
	C192	C	0.400965	0.095442	0.601628
	C193	C	0.599303	0.907394	0.601148
	C194	C	0.599658	0.094266	0.402887
	C195	C	0.400649	0.907456	0.401297
	C196	C	0.599944	0.401342	0.093890
	C197	C	0.600538	0.601085	0.903903
	C198	C	0.403584	0.598704	0.094470
	C199	C	0.402306	0.399509	0.905480
	C200	C	0.094741	0.600623	0.400893
	C201	C	0.906369	0.599379	0.597972
	C202	C	0.095099	0.403349	0.597123
	C203	C	0.906112	0.400358	0.399948
	C204	C	0.901587	0.594560	0.098154
	C205	C	0.098574	0.406547	0.097764
	C206	C	0.100863	0.592962	0.900547
	C207	C	0.899844	0.405747	0.898468
	C208	C	0.098306	0.902012	0.594288
	C209	C	0.099800	0.100240	0.404820
	C210	C	0.904390	0.099390	0.593382
	C211	C	0.900080	0.900311	0.405501
	C212	C	0.594924	0.099424	0.902463
	C213	C	0.406005	0.098933	0.098988
	C214	C	0.595568	0.902027	0.099125
	C215	C	0.405520	0.899053	0.901128
	Zn216	Zn	0.499292	0.000951	0.751690
	Zn217	Zn	0.500358	0.000562	0.249561
	Zn218	Zn	0.750171	0.500717	-0.001789
	Zn219	Zn	0.251740	0.499251	-0.000251
	Zn220	Zn	-0.000063	0.750397	0.499399
	Zn221	Zn	0.001394	0.251068	0.498298
	Zn222	Zn	0.000426	0.500015	0.748384
	Zn223	Zn	0.000245	0.500590	0.249535
	Zn224	Zn	0.501385	0.750013	-0.000156
	Zn225	Zn	0.500808	0.249427	-0.000043
	Zn226	Zn	0.751206	0.000261	0.500784
	Zn227	Zn	0.249559	0.001124	0.500765
	N228	N	0.414644	0.963761	0.678797
	N229	N	0.586608	0.038665	0.680848
	N230	N	0.586680	0.964009	0.321238
	N231	N	0.414240	0.037911	0.321313
	N232	N	0.677843	0.415649	0.961271
	N233	N	0.679156	0.585664	0.035875
	N234	N	0.324341	0.583993	0.962303
	N235	N	0.322559	0.413610	0.036931
	N236	N	0.963092	0.678941	0.412762
	N237	N	0.037576	0.680192	0.585833
	N238	N	0.964656	0.320984	0.585736
	N239	N	0.037260	0.321635	0.411702
	N240	N	0.962746	0.416399	0.674861
	N241	N	0.038175	0.587054	0.678185
	N242	N	0.963146	0.585456	0.321416
	N243	N	0.037640	0.414895	0.320659
	N244	N	0.415955	0.677575	0.963124
	N245	N	0.589171	0.680345	0.035800
	N246	N	0.587045	0.320726	0.962988
	N247	N	0.413943	0.319877	0.036579
	N248	N	0.677070	0.962898	0.416715
	N249	N	0.680557	0.037978	0.587912
	N250	N	0.320055	0.964728	0.588055
	N251	N	0.322426	0.038587	0.415927
	N252	N	0.913325	0.463817	0.177877
	N253	N	0.086717	0.537218	0.178110
	N254	N	0.086186	0.462340	0.819667
	N255	N	0.914145	0.536805	0.819526
	N256	N	0.177697	0.915558	0.462531
	N257	N	0.178176	0.086655	0.537470
	N258	N	0.822736	0.085544	0.462581
	N259	N	0.821769	0.914670	0.537721
	N260	N	0.463745	0.178120	0.914301
	N261	N	0.537215	0.179876	0.087389
	N262	N	0.464442	0.820785	0.086471
	N263	N	0.537438	0.821378	0.913679
	N264	N	0.463455	0.915008	0.177528
	N265	N	0.537590	0.086535	0.178739
	N266	N	0.462506	0.084631	0.824163
	N267	N	0.537089	0.914644	0.822017
	N268	N	0.915237	0.178925	0.462113
	N269	N	0.088673	0.181806	0.535222
	N270	N	0.084832	0.822908	0.462503
	N271	N	0.912254	0.820093	0.536496
	N272	N	0.179772	0.462051	0.912939
	N273	N	0.179693	0.537028	0.085030
	N274	N	0.821746	0.463495	0.083776
	N275	N	0.821950	0.536987	0.912425
	O276	O	0.498911	0.549850	0.425632
	H277	H	0.497209	0.557783	0.436722
	H278	H	0.510585	0.555732	0.427544
	O279	O	0.464581	0.442740	0.522992
	H280	H	0.478114	0.430815	0.521941
	H281	H	0.451329	0.440771	0.540842
	O282	O	0.928798	1.040776	-0.104553
	H283	H	0.936825	1.037697	-0.091830
	H284	H	0.943389	1.032101	-0.096106
	O285	O	1.028920	0.015342	1.115661
	H286	H	1.024028	0.021467	1.117956
	H287	H	1.040608	0.011815	1.110411
	O288	O	0.440814	0.420531	0.395824
	H289	H	0.444337	0.424839	0.388638
	H290	H	0.443360	0.426668	0.395044
	O291	O	0.529204	0.465510	0.466748
	H292	H	0.530805	0.463566	0.464975
	H293	H	0.533308	0.470777	0.471175
	O294	O	0.491993	0.576554	0.598101
	H295	H	0.491150	0.572242	0.596442
	H296	H	0.490026	0.572268	0.602593
	O297	O	-0.101491	0.022197	0.972729
	H298	H	-0.101541	0.028423	0.973022
	H299	H	-0.099078	0.019027	0.967034
	O300	O	0.610350	0.564871	0.618915
	H301	H	0.592533	0.557424	0.627148
	H302	H	0.622149	0.575381	0.616020
	O303	O	0.984643	1.017779	0.071082
	H304	H	0.989611	1.026064	0.077907
	H305	H	0.999407	1.016399	0.072148
	O306	O	0.085423	1.076754	1.121375
	H307	H	0.095354	1.083638	1.127864
	H308	H	0.091993	1.084133	1.112709
	O309	O	0.470404	0.450994	0.442594
	H310	H	0.471375	0.450069	0.448971
	H311	H	0.461367	0.457782	0.445674
	O312	O	0.101549	0.071464	0.023770
	H313	H	0.104894	0.065832	0.011024
	H314	H	0.098414	0.074266	0.025980
	O315	O	1.025162	0.035069	-0.071779
	H316	H	1.026972	0.033366	-0.074866
	H317	H	1.029114	0.031449	-0.082284
	O318	O	1.017829	0.929424	1.022890
	H319	H	1.014678	0.929833	1.013495
	H320	H	1.011225	0.940338	1.026252
	O321	O	0.056178	0.068373	0.897498
	H322	H	0.057615	0.067302	0.890184
	H323	H	0.054936	0.060820	0.910231
	O324	O	0.570806	0.532345	0.512196
	H325	H	0.580646	0.537307	0.513168
	H326	H	0.571969	0.537220	0.510994
	O327	O	0.104760	0.078217	-0.045067
	H328	H	0.093190	0.069306	-0.047420
	H329	H	0.121924	0.071500	-0.044302
	O330	O	0.533700	0.536441	0.533365
	H331	H	0.539009	0.529599	0.536845
	H332	H	0.543359	0.543848	0.536300
	O333	O	0.052380	0.996294	0.946915
	H334	H	0.054788	0.995266	0.938843
	H335	H	0.052054	0.994649	0.939975
	O336	O	0.048410	0.040263	-0.096947
	H337	H	0.043695	0.038860	-0.103355
	H338	H	0.046883	0.038230	-0.096457
	O339	O	0.565957	0.465016	0.451224
	H340	H	0.569704	0.478062	0.450873
	H341	H	0.560712	0.461513	0.452997
	O342	O	0.894419	0.909319	0.974897
	H343	H	0.889324	0.919636	0.981446
	H344	H	0.881268	0.895507	0.980124
	O345	O	0.912422	0.962091	-0.034196
	H346	H	0.909910	0.956181	-0.036939
	H347	H	0.913074	0.966334	-0.036720
	O348	O	0.429046	0.432817	0.482304
	H349	H	0.435359	0.428077	0.479399
	H350	H	0.439924	0.434644	0.481442
	O351	O	0.388940	0.570935	0.498143
	H352	H	0.382248	0.564094	0.503176
	H353	H	0.393017	0.573126	0.501924
	O354	O	0.537152	0.542179	0.585759
	H355	H	0.533100	0.544532	0.583215
	H356	H	0.545538	0.546759	0.588243
	O357	O	1.002680	-0.057768	0.981742
	H358	H	1.003109	-0.053274	0.982588
	H359	H	0.993811	-0.051194	0.985607
	O360	O	0.531965	0.456114	0.507393
	H361	H	0.527940	0.448954	0.498128
	H362	H	0.531880	0.449807	0.504713
	O363	O	0.445670	0.452102	0.481471
	H364	H	0.446569	0.448152	0.471829
	H365	H	0.443179	0.460570	0.477828
	O366	O	0.923230	0.982532	0.983855
	H367	H	0.918977	1.003831	0.990575
	H368	H	0.928812	0.981152	0.978315
	O369	O	0.945194	-0.097905	1.077283
	H370	H	0.937006	-0.101121	1.088769
	H371	H	0.946600	-0.093912	1.071374
	O372	O	0.009770	-0.022973	0.095229
	H373	H	0.000960	-0.018404	0.102112
	H374	H	0.005306	-0.025565	0.090103
	O375	O	0.994373	-0.040762	0.052462
	H376	H	0.994990	-0.039092	0.053709
	H377	H	0.987530	-0.037488	0.059351
	O378	O	0.451234	0.509882	0.509270
	H379	H	0.441574	0.513834	0.504341
	H380	H	0.434096	0.500292	0.505524
	O381	O	0.545536	0.567494	0.440928
	H382	H	0.541726	0.564345	0.431637
	H383	H	0.558181	0.570821	0.453550
