data_Molecule from HDF5

_cell_length_a		16.188237
_cell_length_b		16.303180
_cell_length_c		16.219460
_cell_angle_alpha	90.050517
_cell_angle_beta	90.308222
_cell_angle_gamma	90.049368
_symmetry_space_group_name_H-M	'P 1'
_symmetry_Int_Tables_number		1

loop_
	_symmetry_equiv_pos_as_xyz
	x,y,z

loop_
	_atom_site_label
	_atom_site_type_symbol
	_atom_site_fract_x
	_atom_site_fract_y
	_atom_site_fract_z
	H0	H	0.402026	0.833404	0.710889
	H1	H	0.599842	0.160914	0.713047
	H2	H	0.597720	0.833845	0.283131
	H3	H	0.400430	0.160412	0.282207
	H4	H	0.712644	0.397895	0.832500
	H5	H	0.712468	0.593480	0.161398
	H6	H	0.285260	0.595113	0.832326
	H7	H	0.286582	0.399707	0.161755
	H8	H	0.836095	0.711976	0.394735
	H9	H	0.163843	0.712869	0.596907
	H10	H	0.836301	0.281402	0.595169
	H11	H	0.164799	0.283077	0.398676
	H12	H	0.835390	0.398336	0.708853
	H13	H	0.163955	0.595471	0.711388
	H14	H	0.835510	0.593654	0.282866
	H15	H	0.165464	0.399564	0.283761
	H16	H	0.398671	0.711677	0.832863
	H17	H	0.599518	0.711761	0.160525
	H18	H	0.598319	0.281815	0.832809
	H19	H	0.399129	0.280278	0.160338
	H20	H	0.711180	0.832456	0.401723
	H21	H	0.715458	0.160517	0.597425
	H22	H	0.286116	0.833082	0.595343
	H23	H	0.285160	0.160248	0.398807
	H24	H	0.902003	0.333577	0.209552
	H25	H	0.099683	0.660892	0.212159
	H26	H	0.097859	0.333315	0.782236
	H27	H	0.899981	0.660825	0.781171
	H28	H	0.213274	0.897575	0.333028
	H29	H	0.214694	0.094416	0.661617
	H30	H	0.784882	0.094538	0.332595
	H31	H	0.787718	0.900118	0.661956
	H32	H	0.335728	0.211242	0.895915
	H33	H	0.663859	0.211205	0.096974
	H34	H	0.335571	0.782799	0.094415
	H35	H	0.663709	0.782593	0.898295
	H36	H	0.334669	0.897917	0.209881
	H37	H	0.663991	0.096098	0.211798
	H38	H	0.335963	0.094639	0.781570
	H39	H	0.665176	0.900251	0.785382
	H40	H	0.900015	0.210904	0.332449
	H41	H	0.102210	0.213522	0.660524
	H42	H	0.098184	0.782914	0.332173
	H43	H	0.900045	0.781787	0.660283
	H44	H	0.213795	0.333827	0.898334
	H45	H	0.214106	0.661695	0.095575
	H46	H	0.785914	0.333586	0.093579
	H47	H	0.783542	0.660423	0.897156
	H48	H	0.404458	0.117070	0.597145
	H49	H	0.590948	0.878567	0.602696
	H50	H	0.597327	0.115089	0.406763
	H51	H	0.407850	0.880879	0.400911
	H52	H	0.590782	0.391985	0.116464
	H53	H	0.592486	0.592099	0.877535
	H54	H	0.396901	0.592634	0.117846
	H55	H	0.407991	0.400352	0.879442
	H56	H	0.116574	0.585933	0.403672
	H57	H	0.878162	0.596755	0.594195
	H58	H	0.120554	0.399004	0.596432
	H59	H	0.879145	0.392392	0.400497
	H60	H	0.116425	0.400610	0.579722
	H61	H	0.884595	0.592122	0.578187
	H62	H	0.119608	0.592721	0.401951
	H63	H	0.886834	0.405641	0.412389
	H64	H	0.410453	0.581968	0.110350
	H65	H	0.592150	0.587780	0.879597
	H66	H	0.602747	0.408618	0.116193
	H67	H	0.403222	0.404873	0.880292
	H68	H	0.591461	0.114815	0.399573
	H69	H	0.587758	0.884426	0.583528
	H70	H	0.417446	0.109510	0.588139
	H71	H	0.406140	0.880548	0.405876
	H72	H	0.902527	0.616595	0.095145
	H73	H	0.081212	0.385728	0.085574
	H74	H	0.098450	0.615498	0.902634
	H75	H	0.903850	0.379398	0.900503
	H76	H	0.103044	0.908797	0.615345
	H77	H	0.094370	0.089675	0.379435
	H78	H	0.913213	0.089401	0.612131
	H79	H	0.910141	0.910602	0.383052
	H80	H	0.618707	0.091589	0.902994
	H81	H	0.384296	0.087603	0.083260
	H82	H	0.618692	0.905472	0.097429
	H83	H	0.381362	0.899559	0.905112
	H84	H	0.618802	0.896814	0.088249
	H85	H	0.382035	0.085059	0.092240
	H86	H	0.617265	0.091983	0.908139
	H87	H	0.384029	0.907517	0.907128
	H88	H	0.908185	0.095719	0.616111
	H89	H	0.091090	0.086604	0.381069
	H90	H	0.083172	0.909127	0.608617
	H91	H	0.908878	0.895508	0.377543
	H92	H	0.088863	0.614227	0.898515
	H93	H	0.103071	0.380806	0.081928
	H94	H	0.913270	0.612402	0.090248
	H95	H	0.909794	0.382013	0.901686
	H96	H	0.402364	0.112518	0.580880
	H97	H	0.605818	0.878103	0.589078
	H98	H	0.589137	0.111926	0.407709
	H99	H	0.403251	0.878139	0.401216
	H100	H	0.583847	0.409904	0.108837
	H101	H	0.588162	0.590510	0.879870
	H102	H	0.413732	0.599805	0.114859
	H103	H	0.409541	0.405763	0.881953
	H104	H	0.116204	0.591668	0.408762
	H105	H	0.884142	0.580523	0.591345
	H106	H	0.114905	0.413537	0.589793
	H107	H	0.882580	0.411136	0.394377
	H108	H	0.903169	0.613441	0.083407
	H109	H	0.094644	0.377186	0.101734
	H110	H	0.089861	0.611622	0.908868
	H111	H	0.905105	0.381712	0.906133
	H112	H	0.090782	0.892694	0.616990
	H113	H	0.088743	0.091391	0.380316
	H114	H	0.903587	0.087201	0.614207
	H115	H	0.896498	0.905431	0.377289
	H116	H	0.616321	0.086968	0.905576
	H117	H	0.380876	0.093404	0.089537
	H118	H	0.614188	0.908470	0.085946
	H119	H	0.381195	0.905171	0.898614
	C120	C	0.379186	0.005047	0.617806
	C121	C	0.622866	0.988706	0.620295
	C122	C	0.620761	0.005651	0.376364
	C123	C	0.377099	0.988335	0.374419
	C124	C	0.620827	0.374952	0.005345
	C125	C	0.620314	0.618369	0.987823
	C126	C	0.378075	0.619292	0.005307
	C127	C	0.377976	0.375055	0.988889
	C128	C	0.008714	0.618457	0.375402
	C129	C	0.990805	0.618658	0.617357
	C130	C	0.008661	0.375442	0.617619
	C131	C	0.991882	0.374855	0.374077
	C132	C	0.878120	0.505831	0.117633
	C133	C	0.121965	0.489433	0.118856
	C134	C	0.121517	0.505907	0.874757
	C135	C	0.877117	0.488673	0.874056
	C136	C	0.120760	0.875143	0.505329
	C137	C	0.121519	0.118532	0.488618
	C138	C	0.878624	0.118571	0.505341
	C139	C	0.877480	0.875538	0.488123
	C140	C	0.508766	0.118327	0.875657
	C141	C	0.491044	0.118164	0.118149
	C142	C	0.508224	0.875270	0.118450
	C143	C	0.491020	0.875612	0.875387
	C144	C	0.381566	0.882070	0.672964
	C145	C	0.620458	0.112001	0.675332
	C146	C	0.618003	0.882459	0.321435
	C147	C	0.379987	0.111366	0.319827
	C148	C	0.675246	0.377404	0.881564
	C149	C	0.675462	0.614918	0.111982
	C150	C	0.322676	0.615949	0.881623
	C151	C	0.323354	0.378097	0.112180
	C152	C	0.884783	0.673321	0.376017
	C153	C	0.114737	0.674351	0.616276
	C154	C	0.885174	0.319768	0.615119
	C155	C	0.115522	0.320321	0.377359
	C156	C	0.884640	0.377921	0.671539
	C157	C	0.114931	0.616374	0.673366
	C158	C	0.884638	0.614801	0.320312
	C159	C	0.115943	0.378519	0.320509
	C160	C	0.379210	0.673949	0.881788
	C161	C	0.619704	0.673820	0.111588
	C162	C	0.618072	0.319827	0.881599
	C163	C	0.379456	0.318985	0.111792
	C164	C	0.674631	0.881886	0.380169
	C165	C	0.677676	0.111989	0.617700
	C166	C	0.323885	0.881871	0.615582
	C167	C	0.322625	0.111340	0.377791
	C168	C	0.881140	0.382702	0.172244
	C169	C	0.119898	0.612120	0.174315
	C170	C	0.118420	0.382277	0.820077
	C171	C	0.879362	0.611849	0.818993
	C172	C	0.175358	0.877546	0.381664
	C173	C	0.177377	0.115587	0.612279
	C174	C	0.822919	0.115186	0.381679
	C175	C	0.824324	0.878853	0.612405
	C176	C	0.384953	0.173636	0.875989
	C177	C	0.614658	0.173544	0.116737
	C178	C	0.384525	0.820313	0.115306
	C179	C	0.614932	0.820610	0.878211
	C180	C	0.384222	0.877569	0.172632
	C181	C	0.614716	0.116297	0.173905
	C182	C	0.385111	0.115790	0.819219
	C183	C	0.615538	0.878695	0.821651
	C184	C	0.880224	0.172979	0.381466
	C185	C	0.121333	0.174728	0.611754
	C186	C	0.118270	0.820384	0.381474
	C187	C	0.880202	0.820075	0.611580
	C188	C	0.176373	0.382742	0.877511
	C189	C	0.176647	0.612512	0.116083
	C190	C	0.823687	0.382436	0.114272
	C191	C	0.821566	0.611662	0.876587
	C192	C	0.401397	0.090824	0.595376
	C193	C	0.601166	0.902724	0.598482
	C194	C	0.599027	0.091709	0.398263
	C195	C	0.399041	0.902034	0.396321
	C196	C	0.599003	0.397031	0.091390
	C197	C	0.597445	0.596571	0.901555
	C198	C	0.400634	0.597856	0.091816
	C199	C	0.400503	0.397205	0.902790
	C200	C	0.095043	0.596775	0.398195
	C201	C	0.904670	0.596396	0.594684
	C202	C	0.095129	0.397831	0.595365
	C203	C	0.905083	0.396533	0.395811
	C204	C	0.899777	0.591903	0.095869
	C205	C	0.099651	0.403393	0.096313
	C206	C	0.098908	0.591469	0.896786
	C207	C	0.899604	0.403182	0.896258
	C208	C	0.098987	0.897171	0.591340
	C209	C	0.098226	0.095985	0.402491
	C210	C	0.901583	0.096982	0.591743
	C211	C	0.898820	0.897278	0.401623
	C212	C	0.595122	0.096404	0.898708
	C213	C	0.404739	0.095534	0.095023
	C214	C	0.594897	0.897187	0.096854
	C215	C	0.404648	0.897571	0.897235
	Zn216	Zn	0.500040	-0.002872	0.747383
	Zn217	Zn	0.499616	-0.003047	0.246491
	Zn218	Zn	0.748437	0.497360	-0.004067
	Zn219	Zn	0.250180	0.498089	-0.003106
	Zn220	Zn	-0.000601	0.746877	0.496016
	Zn221	Zn	0.000292	0.247226	0.496692
	Zn222	Zn	-0.000438	0.496892	0.745676
	Zn223	Zn	0.000167	0.497519	0.247072
	Zn224	Zn	0.499570	0.747261	-0.003513
	Zn225	Zn	0.499856	0.245966	-0.002994
	Zn226	Zn	0.749971	-0.002552	0.497796
	Zn227	Zn	0.249113	-0.004082	0.496934
	N228	N	0.415465	0.959503	0.674202
	N229	N	0.586851	0.034395	0.677094
	N230	N	0.585126	0.960226	0.319204
	N231	N	0.413064	0.033698	0.317761
	N232	N	0.676968	0.410982	0.959269
	N233	N	0.675805	0.581045	0.034137
	N234	N	0.322111	0.582474	0.959405
	N235	N	0.322431	0.412248	0.034634
	N236	N	0.962965	0.675847	0.409530
	N237	N	0.036628	0.675945	0.582342
	N238	N	0.963336	0.318281	0.582313
	N239	N	0.037221	0.318000	0.409959
	N240	N	0.962555	0.411793	0.673182
	N241	N	0.037140	0.582360	0.674198
	N242	N	0.962669	0.581393	0.319668
	N243	N	0.037838	0.411640	0.318329
	N244	N	0.412795	0.676250	0.959832
	N245	N	0.586168	0.676040	0.033470
	N246	N	0.584992	0.318041	0.959618
	N247	N	0.412624	0.316850	0.033906
	N248	N	0.676636	0.959679	0.413412
	N249	N	0.679321	0.034446	0.584302
	N250	N	0.322419	0.959291	0.581839
	N251	N	0.320764	0.033674	0.411039
	N252	N	0.914604	0.460381	0.174256
	N253	N	0.086549	0.534578	0.175979
	N254	N	0.084922	0.459853	0.818153
	N255	N	0.913221	0.534376	0.817262
	N256	N	0.177075	0.911024	0.459478
	N257	N	0.177473	0.081340	0.534661
	N258	N	0.821816	0.082455	0.459817
	N259	N	0.822690	0.912622	0.534718
	N260	N	0.462910	0.175485	0.910229
	N261	N	0.536629	0.174707	0.082740
	N262	N	0.462580	0.818740	0.082314
	N263	N	0.536533	0.818533	0.910790
	N264	N	0.462237	0.911105	0.174716
	N265	N	0.536709	0.082571	0.174843
	N266	N	0.463017	0.082203	0.819132
	N267	N	0.537587	0.912140	0.819684
	N268	N	0.914258	0.175149	0.459372
	N269	N	0.087369	0.176620	0.533771
	N270	N	0.084727	0.818893	0.459233
	N271	N	0.912632	0.817636	0.533208
	N272	N	0.178378	0.460416	0.910634
	N273	N	0.177747	0.535018	0.082175
	N274	N	0.821626	0.459989	0.081097
	N275	N	0.820111	0.534279	0.910212
	O276	O	0.993857	1.050814	0.022746
	H277	H	0.996160	1.050507	0.020320
	H278	H	0.983170	1.044498	0.020854
	O279	O	0.029852	0.028672	0.032317
	H280	H	0.034878	0.028928	0.047773
	H281	H	0.028647	0.024808	0.029758
	O282	O	-0.057494	0.038479	1.025487
	H283	H	-0.068300	0.044755	1.020918
	H284	H	-0.058903	0.041507	1.031366
	O285	O	0.496136	0.458005	0.528109
	H286	H	0.509009	0.454328	0.527474
	H287	H	0.502150	0.453917	0.528926
	O288	O	0.516814	0.459213	0.471724
	H289	H	0.514213	0.459229	0.476069
	H290	H	0.522336	0.461398	0.475405
	O291	O	0.519901	0.446045	0.542080
	H292	H	0.513765	0.442761	0.541711
	H293	H	0.522577	0.444770	0.544630
	O294	O	-0.005554	-0.002788	0.001006
	H295	H	-0.006012	-0.005417	-0.005903
	H296	H	-0.010814	-0.008406	-0.001018
	O297	O	0.466559	0.459593	0.601857
	H298	H	0.462675	0.460428	0.605687
	H299	H	0.469902	0.456067	0.605240
	O300	O	0.114634	1.062826	1.019015
	H301	H	0.124398	1.067512	1.023666
	H302	H	0.114479	1.070144	1.022194
	O303	O	0.552563	0.453203	0.581124
	H304	H	0.557558	0.448784	0.580920
	H305	H	0.549236	0.457093	0.580626
	O306	O	-0.000367	0.032247	1.045870
	H307	H	0.014035	0.033491	1.049855
	H308	H	-0.003654	0.038567	1.035609
	O309	O	1.049584	1.043299	1.005366
	H310	H	1.041270	1.039605	1.005113
	H311	H	1.044705	1.049523	1.017606
	O312	O	0.502875	0.474881	0.516420
	H313	H	0.497421	0.477465	0.517548
	H314	H	0.496237	0.483538	0.517191
	O315	O	0.545810	0.472449	0.588057
	H316	H	0.548139	0.472824	0.577513
	H317	H	0.539209	0.470853	0.594793
	O318	O	-0.006123	1.065209	-0.075561
	H319	H	-0.002828	1.074457	-0.071313
	H320	H	0.000526	1.071011	-0.079710
	O321	O	0.984643	1.057385	0.043016
	H322	H	0.979249	1.063326	0.037918
	H323	H	1.001015	1.049704	0.040688
