data_Molecule from HDF5

_cell_length_a		16.292189
_cell_length_b		16.413440
_cell_length_c		16.333178
_cell_angle_alpha	90.117573
_cell_angle_beta	90.132406
_cell_angle_gamma	90.229748
_symmetry_space_group_name_H-M	'P 1'
_symmetry_Int_Tables_number		1

loop_
	_symmetry_equiv_pos_as_xyz
	x,y,z

loop_
	_atom_site_label
	_atom_site_type_symbol
	_atom_site_fract_x
	_atom_site_fract_y
	_atom_site_fract_z
	H0	H	0.382640	0.847543	0.706019
	H1	H	0.591864	0.167166	0.709512
	H2	H	0.590907	0.849114	0.266899
	H3	H	0.382207	0.166279	0.267226
	H4	H	0.703734	0.405921	0.828271
	H5	H	0.706678	0.612067	0.149524
	H6	H	0.269083	0.608345	0.828734
	H7	H	0.267386	0.403949	0.149463
	H8	H	0.827620	0.728684	0.384375
	H9	H	0.147288	0.728352	0.596123
	H10	H	0.826293	0.286050	0.592988
	H11	H	0.147427	0.288978	0.384190
	H12	H	0.824794	0.404548	0.706256
	H13	H	0.147711	0.611223	0.708599
	H14	H	0.827710	0.613809	0.267538
	H15	H	0.147851	0.405768	0.269948
	H16	H	0.381100	0.725432	0.828963
	H17	H	0.593308	0.730257	0.148347
	H18	H	0.589658	0.288476	0.828620
	H19	H	0.380579	0.285907	0.148599
	H20	H	0.706218	0.848476	0.383830
	H21	H	0.708756	0.167026	0.594647
	H22	H	0.267891	0.847779	0.589073
	H23	H	0.269475	0.168185	0.386055
	H24	H	0.883781	0.348981	0.208107
	H25	H	0.094737	0.666391	0.211864
	H26	H	0.087841	0.347658	0.769836
	H27	H	0.880530	0.667089	0.767937
	H28	H	0.202191	0.907617	0.327360
	H29	H	0.204138	0.109653	0.650618
	H30	H	0.765221	0.112785	0.329079
	H31	H	0.767216	0.905955	0.649707
	H32	H	0.326600	0.226464	0.884734
	H33	H	0.646167	0.228327	0.094498
	H34	H	0.326459	0.787057	0.091798
	H35	H	0.646311	0.786607	0.881612
	H36	H	0.326578	0.901978	0.207275
	H37	H	0.646172	0.112586	0.209546
	H38	H	0.325637	0.110296	0.768831
	H39	H	0.647720	0.906198	0.770363
	H40	H	0.880704	0.228464	0.328524
	H41	H	0.089685	0.227286	0.649548
	H42	H	0.091345	0.787504	0.329915
	H43	H	0.881522	0.788634	0.649721
	H44	H	0.204651	0.347421	0.886518
	H45	H	0.210137	0.666664	0.095675
	H46	H	0.768743	0.348251	0.092076
	H47	H	0.765695	0.666772	0.884614
	H48	H	0.399354	0.122445	0.581821
	H49	H	0.568000	0.895796	0.579054
	H50	H	0.574783	0.119183	0.404709
	H51	H	0.396671	0.893768	0.398577
	H52	H	0.574949	0.420854	0.102277
	H53	H	0.574168	0.593512	0.875959
	H54	H	0.403043	0.602161	0.103904
	H55	H	0.395773	0.412038	0.872116
	H56	H	0.102879	0.597326	0.398988
	H57	H	0.872510	0.596089	0.579140
	H58	H	0.100880	0.421049	0.579628
	H59	H	0.874895	0.424366	0.399848
	H60	H	0.101788	0.415989	0.581154
	H61	H	0.870654	0.600215	0.580146
	H62	H	0.100935	0.600010	0.402616
	H63	H	0.870231	0.416669	0.393814
	H64	H	0.394544	0.598900	0.105954
	H65	H	0.573704	0.599904	0.874471
	H66	H	0.573815	0.413584	0.104518
	H67	H	0.392536	0.419864	0.874351
	H68	H	0.579005	0.122309	0.397991
	H69	H	0.581027	0.895557	0.571565
	H70	H	0.398315	0.120595	0.576114
	H71	H	0.393455	0.892815	0.397901
	H72	H	0.902727	0.618555	0.071588
	H73	H	0.069100	0.394448	0.085201
	H74	H	0.075580	0.621661	0.897393
	H75	H	0.890953	0.393305	0.900882
	H76	H	0.079173	0.916531	0.606046
	H77	H	0.069526	0.094831	0.377056
	H78	H	0.897295	0.096639	0.603007
	H79	H	0.890931	0.917162	0.373191
	H80	H	0.600163	0.098013	0.902545
	H81	H	0.372668	0.095726	0.076054
	H82	H	0.600554	0.926546	0.080817
	H83	H	0.372438	0.912919	0.904275
	H84	H	0.604871	0.912068	0.081373
	H85	H	0.371362	0.095558	0.077951
	H86	H	0.600899	0.095216	0.897041
	H87	H	0.374051	0.923166	0.896710
	H88	H	0.900658	0.096563	0.600611
	H89	H	0.077129	0.109540	0.370941
	H90	H	0.077376	0.921136	0.603590
	H91	H	0.901435	0.926152	0.378849
	H92	H	0.076499	0.621462	0.901954
	H93	H	0.074420	0.397976	0.070797
	H94	H	0.890410	0.625014	0.076666
	H95	H	0.895990	0.392468	0.891982
	H96	H	0.393733	0.123694	0.579445
	H97	H	0.580190	0.890643	0.585296
	H98	H	0.570688	0.120569	0.397084
	H99	H	0.395778	0.892856	0.395543
	H100	H	0.580624	0.417001	0.104978
	H101	H	0.579074	0.597244	0.874285
	H102	H	0.400852	0.593136	0.102178
	H103	H	0.400785	0.418008	0.876726
	H104	H	0.100314	0.595457	0.401877
	H105	H	0.872153	0.599554	0.575412
	H106	H	0.100257	0.417561	0.576018
	H107	H	0.873093	0.414581	0.404713
	H108	H	0.901872	0.623341	0.085736
	H109	H	0.084730	0.390987	0.081523
	H110	H	0.079981	0.622252	0.898696
	H111	H	0.900988	0.395699	0.899391
	H112	H	0.074836	0.916874	0.603241
	H113	H	0.087180	0.094890	0.372109
	H114	H	0.898930	0.099627	0.603098
	H115	H	0.904025	0.912194	0.376081
	H116	H	0.603569	0.101007	0.897359
	H117	H	0.371396	0.097675	0.076966
	H118	H	0.598162	0.917393	0.068826
	H119	H	0.368320	0.912317	0.891771
	C120	C	0.365356	0.016763	0.609646
	C121	C	0.608535	0.999472	0.610417
	C122	C	0.607303	0.015955	0.367392
	C123	C	0.364747	0.998913	0.366168
	C124	C	0.607830	0.386217	-0.001972
	C125	C	0.608274	0.629581	0.980492
	C126	C	0.366757	0.628324	-0.001905
	C127	C	0.364925	0.385062	0.980465
	C128	C	-0.004149	0.629631	0.368498
	C129	C	0.978229	0.629256	0.610605
	C130	C	-0.005405	0.386789	0.609575
	C131	C	0.978652	0.387238	0.367739
	C132	C	0.866522	0.516952	0.109649
	C133	C	0.109164	0.499556	0.111488
	C134	C	0.107776	0.516167	0.867896
	C135	C	0.864358	0.499096	0.866457
	C136	C	0.107682	0.887166	0.498108
	C137	C	0.108932	0.130311	0.479862
	C138	C	0.866001	0.129135	0.496809
	C139	C	0.865705	0.886748	0.481382
	C140	C	0.495380	0.128905	0.867191
	C141	C	0.477463	0.128708	0.109836
	C142	C	0.495359	0.886309	0.108791
	C143	C	0.477952	0.885536	0.866519
	C144	C	0.363708	0.896045	0.667692
	C145	C	0.610497	0.119376	0.670048
	C146	C	0.609364	0.896646	0.307013
	C147	C	0.363305	0.118752	0.306906
	C148	C	0.665258	0.386286	0.876649
	C149	C	0.667675	0.631254	0.101043
	C150	C	0.307962	0.627795	0.876904
	C151	C	0.306207	0.384398	0.101384
	C152	C	0.875606	0.689276	0.365882
	C153	C	0.099094	0.688600	0.613615
	C154	C	0.874048	0.326612	0.611297
	C155	C	0.099265	0.328490	0.365899
	C156	C	0.873232	0.385639	0.667594
	C157	C	0.099215	0.630258	0.669737
	C158	C	0.875566	0.631909	0.307794
	C159	C	0.099704	0.386756	0.309265
	C160	C	0.363884	0.686222	0.877215
	C161	C	0.611321	0.690125	0.100445
	C162	C	0.608303	0.327909	0.876875
	C163	C	0.362626	0.325851	0.100699
	C164	C	0.666877	0.896523	0.365183
	C165	C	0.668510	0.119355	0.612668
	C166	C	0.306819	0.895809	0.609371
	C167	C	0.307429	0.119701	0.366258
	C168	C	0.864862	0.396658	0.168860
	C169	C	0.112379	0.619131	0.171598
	C170	C	0.107227	0.395585	0.809485
	C171	C	0.862474	0.619341	0.807586
	C172	C	0.164480	0.887311	0.376178
	C173	C	0.166008	0.129564	0.601678
	C174	C	0.805190	0.131166	0.376857
	C175	C	0.806168	0.886120	0.601522
	C176	C	0.374520	0.187189	0.865850
	C177	C	0.598201	0.188412	0.112549
	C178	C	0.374676	0.826691	0.110358
	C179	C	0.598499	0.826843	0.864428
	C180	C	0.374639	0.884098	0.167654
	C181	C	0.597967	0.130851	0.169979
	C182	C	0.374340	0.129429	0.808154
	C183	C	0.599083	0.885972	0.808666
	C184	C	0.862841	0.188713	0.376496
	C185	C	0.109345	0.188409	0.601289
	C186	C	0.108970	0.827819	0.377466
	C187	C	0.863206	0.827615	0.601508
	C188	C	0.165455	0.395536	0.867455
	C189	C	0.169872	0.619114	0.113695
	C190	C	0.807713	0.396191	0.111110
	C191	C	0.804957	0.619050	0.865449
	C192	C	0.389879	0.100407	0.585973
	C193	C	0.583582	0.915809	0.585747
	C194	C	0.582107	0.099128	0.392575
	C195	C	0.388464	0.915120	0.390291
	C196	C	0.583574	0.410154	0.082076
	C197	C	0.582976	0.604329	0.896863
	C198	C	0.391955	0.604783	0.082205
	C199	C	0.389209	0.409652	0.896419
	C200	C	0.079432	0.604747	0.393742
	C201	C	0.893806	0.605327	0.585513
	C202	C	0.079057	0.411140	0.585662
	C203	C	0.894552	0.411482	0.392417
	C204	C	0.891283	0.600333	0.085196
	C205	C	0.083407	0.416130	0.086497
	C206	C	0.084184	0.600065	0.892239
	C207	C	0.888699	0.415661	0.890568
	C208	C	0.084088	0.911281	0.582325
	C209	C	0.085027	0.106698	0.395550
	C210	C	0.891713	0.104422	0.580366
	C211	C	0.891419	0.911419	0.397691
	C212	C	0.579639	0.105091	0.891879
	C213	C	0.393391	0.103576	0.084331
	C214	C	0.579493	0.911393	0.084209
	C215	C	0.393414	0.909285	0.890538
	Zn216	Zn	0.486732	0.007288	0.738625
	Zn217	Zn	0.486030	0.007157	0.237656
	Zn218	Zn	0.737048	0.507758	-0.010348
	Zn219	Zn	0.237769	0.507819	-0.010319
	Zn220	Zn	-0.012334	0.757960	0.490323
	Zn221	Zn	-0.013204	0.258412	0.488172
	Zn222	Zn	-0.013864	0.507952	0.738267
	Zn223	Zn	-0.013151	0.508265	0.239387
	Zn224	Zn	0.486473	0.757738	-0.011916
	Zn225	Zn	0.486450	0.256975	-0.010898
	Zn226	Zn	0.737014	0.008225	0.488387
	Zn227	Zn	0.236619	0.007949	0.488589
	N228	N	0.399352	0.972297	0.668158
	N229	N	0.574006	0.043691	0.669032
	N230	N	0.573026	0.971961	0.308290
	N231	N	0.398144	0.042689	0.306576
	N232	N	0.665380	0.421529	0.952957
	N233	N	0.665994	0.594340	0.025419
	N234	N	0.309501	0.592405	0.953163
	N235	N	0.307235	0.420472	0.025505
	N236	N	0.951480	0.688223	0.402809
	N237	N	0.022663	0.688404	0.577836
	N238	N	0.950450	0.327201	0.575976
	N239	N	0.022918	0.328688	0.401543
	N240	N	0.949232	0.422442	0.666631
	N241	N	0.022955	0.594161	0.668246
	N242	N	0.951375	0.595733	0.309157
	N243	N	0.023619	0.422579	0.310096
	N244	N	0.399905	0.686544	0.953389
	N245	N	0.575120	0.689429	0.024381
	N246	N	0.573199	0.327597	0.953457
	N247	N	0.398131	0.325961	0.024354
	N248	N	0.665874	0.971845	0.401829
	N249	N	0.667224	0.043913	0.576159
	N250	N	0.307498	0.971693	0.574148
	N251	N	0.307907	0.044038	0.402187
	N252	N	0.900560	0.472620	0.168320
	N253	N	0.075369	0.543849	0.170190
	N254	N	0.072054	0.471626	0.809761
	N255	N	0.898487	0.543636	0.807802
	N256	N	0.163867	0.923557	0.452161
	N257	N	0.166210	0.094508	0.525132
	N258	N	0.806987	0.094902	0.452607
	N259	N	0.807686	0.922118	0.525673
	N260	N	0.450894	0.187186	0.901656
	N261	N	0.522327	0.187173	0.076091
	N262	N	0.450828	0.828027	0.074324
	N263	N	0.521969	0.826359	0.899596
	N264	N	0.450826	0.920377	0.166937
	N265	N	0.521719	0.094301	0.168416
	N266	N	0.450451	0.093792	0.809030
	N267	N	0.523123	0.921908	0.809879
	N268	N	0.899956	0.187676	0.452109
	N269	N	0.074576	0.189139	0.524603
	N270	N	0.074447	0.827708	0.454181
	N271	N	0.899713	0.827983	0.525687
	N272	N	0.165921	0.471386	0.903249
	N273	N	0.168174	0.543687	0.077116
	N274	N	0.808337	0.471931	0.075089
	N275	N	0.805783	0.543408	0.901225
	O276	O	1.061818	-0.011266	-0.151787
	H277	H	1.053352	-0.025692	-0.131177
	H278	H	1.056527	-0.010727	-0.149564
	O279	O	0.444942	0.440980	0.338602
	H280	H	0.451728	0.435317	0.332972
	H281	H	0.444646	0.438619	0.349506
	O282	O	0.486532	0.322376	0.501337
	H283	H	0.477437	0.322564	0.501428
	H284	H	0.470636	0.322275	0.511284
	O285	O	1.041144	0.104617	0.089780
	H286	H	1.035498	0.097341	0.081290
	H287	H	1.044055	0.111169	0.093413
	O288	O	0.166146	0.024806	0.998972
	H289	H	0.174745	0.031116	1.009210
	H290	H	0.164200	0.019175	1.003155
	O291	O	0.475045	0.546169	0.476149
	H292	H	0.475525	0.547332	0.482792
	H293	H	0.465366	0.540040	0.474541
	O294	O	0.566988	0.637447	0.541838
	H295	H	0.567847	0.631255	0.541965
	H296	H	0.558330	0.634706	0.543509
	O297	O	0.833180	0.904184	0.975428
	H298	H	0.843412	0.901715	0.961858
	H299	H	0.822909	0.911832	0.972896
	O300	O	-0.087077	-0.096101	-0.054625
	H301	H	-0.090226	-0.089398	-0.046344
	H302	H	-0.087971	-0.097938	-0.043906
	O303	O	0.674253	0.413643	0.289233
	H304	H	0.684731	0.431927	0.281093
	H305	H	0.661724	0.412095	0.291084
	O306	O	0.945757	0.051190	0.093039
	H307	H	0.962698	0.055156	0.091804
	H308	H	0.944733	0.065328	0.082781
	O309	O	0.426820	0.696233	0.582937
	H310	H	0.434184	0.710608	0.581410
	H311	H	0.441681	0.690855	0.567323
	O312	O	0.885970	1.175290	-0.010346
	H313	H	0.882893	1.184360	-0.000662
	H314	H	0.881680	1.177220	-0.004411
	O315	O	1.020128	-0.101510	0.037311
	H316	H	1.032454	-0.105547	0.025376
	H317	H	1.025918	-0.103201	0.042775
	O318	O	0.368781	0.527104	0.618606
	H319	H	0.370777	0.525532	0.620063
	H320	H	0.366330	0.531540	0.635204
	O321	O	1.084797	0.198547	1.154493
	H322	H	1.085298	0.202584	1.150391
	H323	H	1.085376	0.181763	1.164539
	O324	O	0.003321	0.033057	0.803297
	H325	H	-0.014200	0.025794	0.793903
	H326	H	-0.001561	0.045849	0.805449
	O327	O	0.552181	0.434207	0.291985
	H328	H	0.554806	0.426806	0.303966
	H329	H	0.564541	0.421943	0.289710
	O330	O	0.542662	0.584284	0.625780
	H331	H	0.536014	0.579410	0.635291
	H332	H	0.532203	0.574939	0.620975
	O333	O	1.179567	1.005231	1.154021
	H334	H	1.176176	1.006967	1.155836
	H335	H	1.197240	1.000766	1.160371
	O336	O	0.506874	0.524018	0.512285
	H337	H	0.501028	0.531872	0.521498
	H338	H	0.502003	0.513522	0.513786
	O339	O	1.118480	-0.048453	0.825042
	H340	H	1.131699	-0.053147	0.830983
	H341	H	1.130345	-0.026347	0.830151
	O342	O	-0.193579	0.843232	1.041536
	H343	H	-0.183241	0.848633	1.035315
	H344	H	-0.189020	0.830831	1.034980
	O345	O	0.551568	0.381969	1.492222
	H346	H	0.564569	0.365721	1.470044
	H347	H	0.550207	0.403780	1.486980
	O348	O	0.587502	0.326130	0.301626
	H349	H	0.574563	0.340982	0.313361
	H350	H	0.591237	0.306122	0.303056
	O351	O	-0.213048	0.043585	-0.023356
	H352	H	-0.228422	0.028270	-0.027913
	H353	H	-0.207103	0.026128	-0.025386
	O354	O	0.925875	0.814832	0.110609
	H355	H	0.928398	0.825638	0.113383
	H356	H	0.908171	0.817399	0.092949
	O357	O	0.022701	1.164534	-0.139511
	H358	H	-0.001635	1.165172	-0.136486
	H359	H	0.021736	1.152352	-0.133504
	O360	O	0.364204	0.676557	0.344057
	H361	H	0.362051	0.663678	0.352487
	H362	H	0.373963	0.672912	0.344812
	O363	O	0.556134	0.556022	0.460230
	H364	H	0.571276	0.568046	0.455996
	H365	H	0.548846	0.556578	0.459885
	O366	O	0.310694	0.610345	0.487784
	H367	H	0.326142	0.609532	0.508784
	H368	H	0.310379	0.608624	0.487841
	O369	O	0.343358	0.328191	0.651644
	H370	H	0.331001	0.326361	0.666642
	H371	H	0.370468	0.335668	0.647079
	O372	O	0.678667	0.527865	0.590249
	H373	H	0.677742	0.506496	0.588259
	H374	H	0.689724	0.518210	0.584712
	O375	O	0.374104	0.484557	0.638313
	H376	H	0.382944	0.486984	0.647328
	H377	H	0.373290	0.480410	0.640452
	O378	O	0.454206	0.516131	0.552033
	H379	H	0.453960	0.511098	0.554158
	H380	H	0.440044	0.526325	0.543226
	O381	O	0.435880	0.472309	0.668183
	H382	H	0.445675	0.472288	0.661797
	H383	H	0.456665	0.473098	0.677837
	O384	O	0.123445	0.969071	1.003401
	H385	H	0.140015	0.967241	1.004482
	H386	H	0.119882	0.958701	0.999985
	O387	O	0.961301	1.084426	0.091224
	H388	H	0.963170	1.065122	0.101361
	H389	H	0.972499	1.082868	0.097495
	O390	O	0.298988	0.304997	0.512069
	H391	H	0.277593	0.296103	0.521191
	H392	H	0.290942	0.309387	0.537229
	O393	O	0.844846	0.049745	0.882189
	H394	H	0.845914	0.044325	0.890851
	H395	H	0.837993	0.023591	0.864516
	O396	O	-0.049286	0.871335	0.946923
	H397	H	-0.031397	0.869935	0.941576
	H398	H	-0.056901	0.877757	0.957989
	O399	O	0.554654	0.572252	1.537704
	H400	H	0.535498	0.565920	1.532755
	H401	H	0.560115	0.570677	1.542604
	O402	O	0.943023	-0.076857	1.137195
	H403	H	0.947207	-0.075079	1.145081
	H404	H	0.917692	-0.079475	1.140370
	O405	O	0.138654	0.070842	-0.115777
	H406	H	0.138574	0.059374	-0.087491
	H407	H	0.123135	0.082641	-0.106678
	O408	O	0.934571	1.094496	1.090597
	H409	H	0.928365	1.087344	1.089926
	H410	H	0.943422	1.110969	1.084202
	O411	O	1.056427	0.947041	-0.195520
	H412	H	1.056714	0.938967	-0.201956
	H413	H	1.069069	0.955840	-0.195491
	O414	O	0.641411	-0.356104	1.527625
	H415	H	0.650952	-0.341957	1.538748
	H416	H	0.626688	-0.365418	1.530903
	O417	O	0.644256	0.345623	0.524022
	H418	H	0.659758	0.347254	0.514801
	H419	H	0.640810	0.336907	0.516165
	O420	O	0.086017	0.937878	-0.004515
	H421	H	0.104676	0.943396	-0.008300
	H422	H	0.083101	0.940050	0.008472
	O423	O	0.847536	0.095675	-0.002104
	H424	H	0.842844	0.104560	-0.000491
	H425	H	0.844919	0.090575	-0.014405
	O426	O	0.293514	0.521727	1.298714
	H427	H	0.281949	0.520525	1.282955
	H428	H	0.293986	0.538427	1.308152
	O429	O	0.551163	0.672755	0.335244
	H430	H	0.555695	0.674829	0.333116
	H431	H	0.556667	0.656642	0.334416
