data_Molecule from HDF5

_cell_length_a		16.558168
_cell_length_b		16.580520
_cell_length_c		16.583083
_cell_angle_alpha	89.895661
_cell_angle_beta	89.939710
_cell_angle_gamma	89.918810
_symmetry_space_group_name_H-M	'P 1'
_symmetry_Int_Tables_number		1

loop_
	_symmetry_equiv_pos_as_xyz
	x,y,z

loop_
	_atom_site_label
	_atom_site_type_symbol
	_atom_site_fract_x
	_atom_site_fract_y
	_atom_site_fract_z
	H0	H	0.403755	0.837273	0.731017
	H1	H	0.613830	0.149799	0.731498
	H2	H	0.616843	0.838343	0.288297
	H3	H	0.406301	0.151055	0.289861
	H4	H	0.729275	0.393010	0.853405
	H5	H	0.729886	0.598201	0.168072
	H6	H	0.288808	0.599744	0.853764
	H7	H	0.288611	0.388852	0.166743
	H8	H	0.855649	0.719584	0.402271
	H9	H	0.166033	0.716824	0.616390
	H10	H	0.853103	0.274483	0.615949
	H11	H	0.165572	0.273592	0.405579
	H12	H	0.853829	0.391923	0.731956
	H13	H	0.165998	0.601510	0.733492
	H14	H	0.854063	0.602941	0.287054
	H15	H	0.165198	0.389295	0.288983
	H16	H	0.403706	0.716114	0.853790
	H17	H	0.613538	0.714162	0.168133
	H18	H	0.613254	0.276514	0.852550
	H19	H	0.406940	0.273412	0.166810
	H20	H	0.735866	0.840332	0.401827
	H21	H	0.729437	0.150518	0.614563
	H22	H	0.286450	0.838588	0.616091
	H23	H	0.289070	0.151551	0.405749
	H24	H	0.905693	0.338784	0.231233
	H25	H	0.116525	0.649215	0.233175
	H26	H	0.114778	0.338738	0.788810
	H27	H	0.902879	0.649712	0.786451
	H28	H	0.232396	0.888023	0.355475
	H29	H	0.230728	0.099855	0.666043
	H30	H	0.786121	0.101982	0.356349
	H31	H	0.786877	0.887235	0.666285
	H32	H	0.354615	0.217171	0.904995
	H33	H	0.667041	0.213915	0.114251
	H34	H	0.352215	0.773366	0.115092
	H35	H	0.665928	0.773851	0.906138
	H36	H	0.353200	0.888930	0.232973
	H37	H	0.666263	0.098385	0.231990
	H38	H	0.352485	0.098695	0.790279
	H39	H	0.664858	0.888706	0.788813
	H40	H	0.901790	0.218670	0.356817
	H41	H	0.113648	0.216336	0.666463
	H42	H	0.117263	0.771026	0.355778
	H43	H	0.900812	0.768742	0.664325
	H44	H	0.232052	0.339537	0.904602
	H45	H	0.233413	0.648672	0.117123
	H46	H	0.791699	0.337832	0.112818
	H47	H	0.787164	0.650582	0.903925
	H48	H	0.415337	0.107326	0.599071
	H49	H	0.590993	0.884608	0.596957
	H50	H	0.595636	0.104443	0.421698
	H51	H	0.421376	0.882689	0.422466
	H52	H	0.600044	0.400736	0.124084
	H53	H	0.599763	0.581031	0.899682
	H54	H	0.421476	0.582957	0.121778
	H55	H	0.423074	0.403223	0.898451
	H56	H	0.122257	0.581826	0.418662
	H57	H	0.900687	0.577392	0.597299
	H58	H	0.123098	0.409184	0.605017
	H59	H	0.896820	0.408323	0.418305
	H60	H	0.124476	0.398046	0.600284
	H61	H	0.897690	0.583131	0.601465
	H62	H	0.121146	0.584484	0.424191
	H63	H	0.895743	0.402791	0.422156
	H64	H	0.420662	0.582863	0.122388
	H65	H	0.596170	0.585402	0.899250
	H66	H	0.602367	0.403913	0.124132
	H67	H	0.418828	0.405848	0.898023
	H68	H	0.599266	0.105472	0.423173
	H69	H	0.602939	0.882692	0.592961
	H70	H	0.420137	0.108081	0.604644
	H71	H	0.420200	0.882920	0.423180
	H72	H	0.923141	0.607236	0.101514
	H73	H	0.098785	0.380396	0.103584
	H74	H	0.101847	0.607476	0.921867
	H75	H	0.919170	0.383360	0.922356
	H76	H	0.102915	0.908108	0.623251
	H77	H	0.098432	0.090015	0.396626
	H78	H	0.918711	0.083358	0.623722
	H79	H	0.923978	0.908284	0.401234
	H80	H	0.623312	0.085702	0.920705
	H81	H	0.396935	0.089184	0.097777
	H82	H	0.620014	0.904148	0.094294
	H83	H	0.401242	0.910956	0.928205
	H84	H	0.620463	0.909240	0.102257
	H85	H	0.401637	0.078655	0.094034
	H86	H	0.620875	0.081275	0.922415
	H87	H	0.394096	0.907816	0.909990
	H88	H	0.922164	0.081309	0.621781
	H89	H	0.102666	0.082116	0.397146
	H90	H	0.092627	0.912039	0.617863
	H91	H	0.922946	0.906929	0.399829
	H92	H	0.095200	0.606142	0.918670
	H93	H	0.092874	0.384709	0.097940
	H94	H	0.919894	0.607213	0.096501
	H95	H	0.920414	0.382940	0.919869
	H96	H	0.421936	0.105018	0.598323
	H97	H	0.599432	0.879600	0.605145
	H98	H	0.598578	0.106957	0.419268
	H99	H	0.420683	0.882518	0.421587
	H100	H	0.598811	0.404048	0.122827
	H101	H	0.601258	0.585901	0.897394
	H102	H	0.421206	0.582200	0.121686
	H103	H	0.422636	0.408071	0.899821
	H104	H	0.119492	0.578706	0.423100
	H105	H	0.899180	0.584121	0.594446
	H106	H	0.119500	0.406603	0.593429
	H107	H	0.898272	0.408380	0.424847
	H108	H	0.916796	0.609004	0.101627
	H109	H	0.101368	0.382884	0.095571
	H110	H	0.096272	0.604528	0.925948
	H111	H	0.921820	0.383479	0.921782
	H112	H	0.092976	0.900573	0.622388
	H113	H	0.094304	0.083090	0.400369
	H114	H	0.922620	0.085396	0.622815
	H115	H	0.922428	0.908652	0.400314
	H116	H	0.622583	0.081655	0.916847
	H117	H	0.397325	0.079951	0.105100
	H118	H	0.623716	0.900076	0.102038
	H119	H	0.392971	0.894051	0.923774
	C120	C	0.386969	0.003298	0.632252
	C121	C	0.630026	0.985680	0.630875
	C122	C	0.631582	0.002925	0.388822
	C123	C	0.388522	0.986206	0.389815
	C124	C	0.631392	0.372784	0.019194
	C125	C	0.630900	0.615733	1.002374
	C126	C	0.388319	0.615545	0.019041
	C127	C	0.389046	0.372954	1.002043
	C128	C	0.018426	0.615641	0.388779
	C129	C	1.001932	0.615114	0.630928
	C130	C	0.018517	0.373239	0.631986
	C131	C	1.000476	0.373692	0.389453
	C132	C	0.888678	0.503684	0.131390
	C133	C	0.130746	0.485452	0.131492
	C134	C	0.130601	0.503138	0.889837
	C135	C	0.888394	0.486318	0.888707
	C136	C	0.130189	0.873519	0.518906
	C137	C	0.130384	0.116521	0.501859
	C138	C	0.887670	0.116536	0.520148
	C139	C	0.889072	0.873637	0.502374
	C140	C	0.518226	0.115242	0.888622
	C141	C	0.502040	0.114449	0.130935
	C142	C	0.517747	0.872674	0.131980
	C143	C	0.499893	0.872632	0.888942
	C144	C	0.385009	0.884920	0.691648
	C145	C	0.632415	0.102930	0.691507
	C146	C	0.635243	0.885549	0.327983
	C147	C	0.387399	0.103916	0.329724
	C148	C	0.689594	0.373385	0.900377
	C149	C	0.690089	0.616868	0.121005
	C150	C	0.328637	0.617943	0.900941
	C151	C	0.328950	0.370252	0.119711
	C152	C	0.901626	0.678141	0.384751
	C153	C	0.119227	0.676392	0.634301
	C154	C	0.900074	0.314459	0.634238
	C155	C	0.118330	0.313447	0.387258
	C156	C	0.900476	0.372479	0.691876
	C157	C	0.119254	0.619071	0.692430
	C158	C	0.901100	0.620129	0.327462
	C159	C	0.118260	0.371161	0.329329
	C160	C	0.385729	0.676165	0.901199
	C161	C	0.631984	0.674403	0.120934
	C162	C	0.632104	0.315409	0.900183
	C163	C	0.387537	0.312912	0.119764
	C164	C	0.694125	0.886324	0.384661
	C165	C	0.689672	0.103452	0.633229
	C166	C	0.326624	0.885397	0.634547
	C167	C	0.329026	0.104241	0.387326
	C168	C	0.887345	0.385720	0.190942
	C169	C	0.134409	0.602545	0.192501
	C170	C	0.133661	0.385765	0.829265
	C171	C	0.884956	0.603366	0.827413
	C172	C	0.191724	0.870294	0.402009
	C173	C	0.190506	0.118376	0.619644
	C174	C	0.826739	0.119668	0.403002
	C175	C	0.827315	0.869346	0.619216
	C176	C	0.400770	0.175872	0.886898
	C177	C	0.620099	0.173930	0.132865
	C178	C	0.399348	0.813351	0.133987
	C179	C	0.618399	0.813435	0.887436
	C180	C	0.399981	0.870563	0.192501
	C181	C	0.619588	0.116648	0.191386
	C182	C	0.400035	0.117387	0.829757
	C183	C	0.617882	0.870424	0.828883
	C184	C	0.884113	0.177739	0.403167
	C185	C	0.132714	0.176353	0.619643
	C186	C	0.134475	0.812087	0.402272
	C187	C	0.884320	0.810751	0.618477
	C188	C	0.191800	0.385985	0.886674
	C189	C	0.192438	0.602318	0.134891
	C190	C	0.830524	0.385175	0.132245
	C191	C	0.827489	0.603638	0.885771
	C192	C	0.411966	0.085451	0.607530
	C193	C	0.605097	0.903641	0.605462
	C194	C	0.605388	0.084326	0.414272
	C195	C	0.413463	0.904132	0.415315
	C196	C	0.607367	0.396312	0.102030
	C197	C	0.606317	0.591039	0.920154
	C198	C	0.413713	0.590006	0.100586
	C199	C	0.414119	0.398442	0.920060
	C200	C	0.099593	0.589341	0.414749
	C201	C	0.920619	0.589079	0.605147
	C202	C	0.100859	0.397545	0.606815
	C203	C	0.918391	0.399099	0.414648
	C204	C	0.913078	0.586422	0.106786
	C205	C	0.104991	0.403794	0.106205
	C206	C	0.105048	0.584868	0.914991
	C207	C	0.913548	0.404418	0.914036
	C208	C	0.103648	0.899561	0.600085
	C209	C	0.105584	0.091957	0.419554
	C210	C	0.913769	0.090754	0.601541
	C211	C	0.915513	0.900300	0.421331
	C212	C	0.600736	0.090185	0.913159
	C213	C	0.420015	0.089851	0.105884
	C214	C	0.599925	0.897492	0.106774
	C215	C	0.417500	0.897281	0.913585
	Zn216	Zn	0.508825	-0.006232	0.759890
	Zn217	Zn	0.509786	-0.006103	0.260611
	Zn218	Zn	0.759841	0.494690	0.010594
	Zn219	Zn	0.259788	0.494316	0.010717
	Zn220	Zn	0.010141	0.743738	0.510347
	Zn221	Zn	0.009144	0.244905	0.511061
	Zn222	Zn	0.010199	0.494927	0.760489
	Zn223	Zn	0.009555	0.495241	0.260248
	Zn224	Zn	0.509351	0.744285	0.010664
	Zn225	Zn	0.510763	0.243799	0.009951
	Zn226	Zn	0.759763	-0.005769	0.510901
	Zn227	Zn	0.258891	-0.005319	0.510403
	N228	N	0.421703	0.959193	0.690607
	N229	N	0.596052	0.028559	0.690211
	N230	N	0.596956	0.958950	0.330465
	N231	N	0.423508	0.029295	0.331026
	N232	N	0.689549	0.408114	0.975535
	N233	N	0.689811	0.581140	0.046146
	N234	N	0.329806	0.580927	0.975122
	N235	N	0.329795	0.406766	0.045416
	N236	N	0.975321	0.675408	0.422463
	N237	N	0.045356	0.673980	0.596692
	N238	N	0.974615	0.314681	0.597973
	N239	N	0.043951	0.314820	0.423909
	N240	N	0.975149	0.408350	0.690566
	N241	N	0.045405	0.581499	0.690513
	N242	N	0.974784	0.582086	0.329634
	N243	N	0.043909	0.407805	0.330385
	N244	N	0.421902	0.675137	0.975775
	N245	N	0.596111	0.673962	0.046285
	N246	N	0.597033	0.314545	0.975315
	N247	N	0.424089	0.314309	0.045344
	N248	N	0.692257	0.960345	0.421633
	N249	N	0.688341	0.029359	0.596391
	N250	N	0.327473	0.960103	0.598587
	N251	N	0.329604	0.029955	0.423997
	N252	N	0.922569	0.460618	0.190681
	N253	N	0.096770	0.528856	0.190629
	N254	N	0.096248	0.459659	0.830982
	N255	N	0.922251	0.529483	0.829323
	N256	N	0.189205	0.908031	0.475559
	N257	N	0.189155	0.082006	0.545411
	N258	N	0.828770	0.082303	0.476771
	N259	N	0.830142	0.907869	0.546073
	N260	N	0.475450	0.174667	0.922677
	N261	N	0.545913	0.172765	0.096003
	N262	N	0.473673	0.814386	0.097198
	N263	N	0.543986	0.814480	0.924003
	N264	N	0.474679	0.906471	0.191497
	N265	N	0.545376	0.080148	0.190140
	N266	N	0.474134	0.080345	0.830778
	N267	N	0.543180	0.906465	0.829608
	N268	N	0.921348	0.175988	0.476920
	N269	N	0.096247	0.175362	0.545340
	N270	N	0.096701	0.814205	0.475777
	N271	N	0.922086	0.813208	0.544729
	N272	N	0.190145	0.459961	0.923536
	N273	N	0.190305	0.528434	0.097785
	N274	N	0.831054	0.459790	0.096242
	N275	N	0.829332	0.529798	0.923165
	O276	O	-0.039414	0.781440	0.220780
	H277	H	-0.036032	0.768675	0.234009
	H278	H	-0.017568	0.768242	0.200914
	O279	O	0.709789	0.425811	0.666298
	H280	H	0.696632	0.428632	0.665963
	H281	H	0.698986	0.426827	0.649884
	O282	O	1.472290	0.278230	0.704546
	H283	H	1.446711	0.266597	0.712145
	H284	H	1.447870	0.270176	0.721362
	O285	O	0.481429	0.715214	0.292183
	H286	H	0.471626	0.732954	0.268974
	H287	H	0.459084	0.719794	0.298228
	O288	O	0.101016	0.908323	0.227499
	H289	H	0.103270	0.889862	0.232038
	H290	H	0.107614	0.906773	0.225600
	O291	O	0.455711	0.635727	0.664012
	H292	H	0.455754	0.643102	0.665217
	H293	H	0.461805	0.644097	0.649915
	O294	O	0.796422	0.028911	0.793711
	H295	H	0.782491	0.014853	0.799809
	H296	H	0.780372	0.035875	0.790648
	O297	O	0.624892	0.597974	0.566530
	H298	H	0.633149	0.612138	0.570341
	H299	H	0.634770	0.604281	0.567732
	O300	O	-0.014929	0.200536	0.792887
	H301	H	-0.030466	0.190023	0.803818
	H302	H	-0.014560	0.222287	0.773378
	O303	O	0.512039	0.533321	0.518795
	H304	H	0.518405	0.539612	0.526822
	H305	H	0.509498	0.548918	0.511938
	O306	O	0.637101	0.712403	0.673678
	H307	H	0.651196	0.732043	0.680632
	H308	H	0.632968	0.706678	0.676329
	O309	O	0.611438	0.568457	0.442166
	H310	H	0.625590	0.565130	0.452846
	H311	H	0.614427	0.578049	0.419262
	O312	O	0.712566	0.686448	0.479767
	H313	H	0.716283	0.683580	0.492988
	H314	H	0.721190	0.693007	0.495690
	O315	O	0.790115	0.995826	1.166179
	H316	H	0.779683	1.000779	1.190462
	H317	H	0.801291	1.019636	1.171482
	O318	O	0.346747	0.652756	0.623403
	H319	H	0.355610	0.647642	0.606267
	H320	H	0.355114	0.634527	0.615389
	O321	O	0.219053	0.778484	0.976733
	H322	H	0.211651	0.780918	0.961442
	H323	H	0.239832	0.764211	0.977220
	O324	O	1.000560	0.958408	-0.137421
	H325	H	1.000760	0.964920	-0.139189
	H326	H	0.999258	0.971259	-0.134050
	O327	O	0.229503	0.191474	1.027085
	H328	H	0.248145	0.204849	1.028472
	H329	H	0.229529	0.187824	1.026190
	O330	O	0.815600	0.189751	0.204417
	H331	H	0.814729	0.193645	0.219499
	H332	H	0.838967	0.175868	0.195838
	O333	O	0.513336	0.302312	0.505443
	H334	H	0.507349	0.304069	0.523594
	H335	H	0.499879	0.303385	0.512392
	O336	O	0.297856	0.277784	0.538697
	H337	H	0.284890	0.278404	0.529999
	H338	H	0.284386	0.281427	0.539753
	O339	O	0.956182	0.058220	1.237920
	H340	H	0.979906	0.055469	1.241045
	H341	H	0.977099	0.070372	1.238462
	O342	O	-0.167198	-0.194873	0.197367
	H343	H	-0.168855	-0.160405	0.195619
	H344	H	-0.125431	-0.191004	0.202721
	O345	O	0.299430	1.286406	0.721898
	H346	H	0.294120	1.302939	0.692022
	H347	H	0.265078	1.254433	0.752178
	O348	O	0.036058	0.213627	0.237648
	H349	H	0.052482	0.232659	0.246804
	H350	H	0.055051	0.226561	0.235184
	O351	O	0.563520	0.354574	0.507013
	H352	H	0.562427	0.342263	0.518519
	H353	H	0.570347	0.358089	0.502472
	O354	O	0.120347	0.004039	1.173345
	H355	H	0.117126	0.006512	1.173540
	H356	H	0.139126	0.019400	1.179877
	O357	O	0.714463	0.278884	0.487618
	H358	H	0.729303	0.252379	0.488249
	H359	H	0.697990	0.281863	0.461440
	O360	O	0.227342	-0.036520	0.792078
	H361	H	0.226004	-0.039862	0.777802
	H362	H	0.236422	-0.040712	0.772174
	O363	O	-0.063674	-0.033867	0.095130
	H364	H	-0.056550	-0.035561	0.103267
	H365	H	-0.076733	-0.030129	0.093810
	O366	O	0.406988	0.448248	0.560391
	H367	H	0.411300	0.445635	0.571195
	H368	H	0.409451	0.456707	0.561410
	O369	O	0.996524	-0.011008	-0.149943
	H370	H	1.000976	0.005042	-0.138264
	H371	H	0.996199	-0.031087	-0.146926
	O372	O	1.197138	1.184432	-0.175989
	H373	H	1.176763	1.160107	-0.164652
	H374	H	1.178331	1.175666	-0.151182
	O375	O	0.797126	0.211569	-0.036720
	H376	H	0.787202	0.219793	-0.071085
	H377	H	0.778169	0.230355	-0.046870
	O378	O	0.580216	0.646543	0.371694
	H379	H	0.601637	0.659592	0.368838
	H380	H	0.569808	0.655312	0.367694
	O381	O	0.240897	0.757429	0.778036
	H382	H	0.251023	0.755739	0.779454
	H383	H	0.238569	0.756812	0.778457
	O384	O	0.730111	0.271666	0.730762
	H385	H	0.734372	0.292886	0.726395
	H386	H	0.704389	0.285860	0.701787
	O387	O	1.231196	1.033306	-0.037372
	H388	H	1.240274	1.020336	-0.047266
	H389	H	1.229886	1.026063	-0.038641
	O390	O	0.429481	0.608800	0.520354
	H391	H	0.419747	0.598562	0.525442
	H392	H	0.424148	0.611429	0.516008
	O393	O	0.714063	0.561610	0.571601
	H394	H	0.714223	0.578129	0.587445
	H395	H	0.723041	0.554546	0.581074
	O396	O	-0.012928	1.202608	1.006709
	H397	H	-0.026710	1.208515	1.019844
	H398	H	-0.027806	1.205723	1.002380
	O399	O	0.059721	0.151353	1.136050
	H400	H	0.073588	0.146593	1.144352
	H401	H	0.049501	0.170246	1.126429
	O402	O	0.546776	0.425472	0.728716
	H403	H	0.544535	0.416685	0.729436
	H404	H	0.529995	0.423777	0.732958
	O405	O	1.216272	-0.067694	1.060703
	H406	H	1.213291	-0.064633	1.064416
	H407	H	1.213220	-0.071220	1.061354
	O408	O	-0.172691	-0.190707	-0.175823
	H409	H	-0.152020	-0.178752	-0.158045
	H410	H	-0.158644	-0.169320	-0.156805
	O411	O	0.220375	0.777822	0.223273
	H412	H	0.211563	0.783406	0.204983
	H413	H	0.210008	0.787768	0.218176
	O414	O	0.217040	0.204057	0.219747
	H415	H	0.248644	0.226424	0.246861
	H416	H	0.212830	0.198348	0.190751
	O417	O	0.333955	0.464028	0.714207
	H418	H	0.329257	0.463194	0.718850
	H419	H	0.339898	0.464777	0.721754
	O420	O	0.728289	0.454554	0.292732
	H421	H	0.729528	0.468835	0.296556
	H422	H	0.745582	0.469342	0.283287
	O423	O	-0.216033	-0.062098	0.939499
	H424	H	-0.211474	-0.048201	0.952919
	H425	H	-0.225120	-0.072599	0.961750
	O426	O	0.540302	0.296044	0.333636
	H427	H	0.536639	0.287054	0.338633
	H428	H	0.556986	0.286781	0.331730
	O429	O	0.885959	1.055433	1.042339
	H430	H	0.885487	1.058019	1.059649
	H431	H	0.883990	1.076076	1.052451
	O432	O	0.710968	0.288056	0.310565
	H433	H	0.720921	0.313872	0.310216
	H434	H	0.705609	0.290986	0.306952
	O435	O	-0.053921	0.777199	-0.033786
	H436	H	-0.060573	0.785339	-0.034293
	H437	H	-0.065642	0.784657	-0.031235
	O438	O	0.005219	-0.094634	0.012499
	H439	H	-0.008118	-0.087216	0.014318
	H440	H	-0.002792	-0.092445	0.007898
	O441	O	0.138969	0.108700	0.112431
	H442	H	0.133601	0.103496	0.106696
	H443	H	0.143181	0.117491	0.110137
	O444	O	0.337700	0.511218	0.313129
	H445	H	0.339119	0.511107	0.307331
	H446	H	0.351471	0.501059	0.306972
	O447	O	0.032049	0.782896	0.799093
	H448	H	0.035316	0.774206	0.784001
	H449	H	0.031264	0.787830	0.806362
	O450	O	0.021159	0.994564	0.921376
	H451	H	0.010807	1.012193	0.919116
	H452	H	-0.001090	1.006010	0.920984
	O453	O	0.449575	0.615154	0.635062
	H454	H	0.447067	0.618150	0.635626
	H455	H	0.468760	0.598050	0.649675
	O456	O	-0.158797	0.164685	0.846635
	H457	H	-0.179680	0.188072	0.826926
	H458	H	-0.161031	0.128514	0.839330
	O459	O	0.291012	0.617860	0.501285
	H460	H	0.282679	0.624196	0.511570
	H461	H	0.287428	0.621383	0.480949
	O462	O	0.562321	0.527179	0.302847
	H463	H	0.568474	0.546488	0.291635
	H464	H	0.553812	0.538320	0.317092
	O465	O	0.788762	-0.225245	0.038965
	H466	H	0.785198	-0.233843	0.061810
	H467	H	0.775306	-0.240679	0.053130
	O468	O	0.463744	0.437955	0.332961
	H469	H	0.487066	0.425269	0.330279
	H470	H	0.474164	0.432970	0.330740
	O471	O	0.606086	0.520414	0.550855
	H472	H	0.597103	0.521838	0.548813
	H473	H	0.606155	0.515981	0.550931
	O474	O	0.306520	0.433446	0.467416
	H475	H	0.311516	0.441223	0.479065
	H476	H	0.309701	0.453757	0.473788
	O477	O	0.325142	0.312050	1.340406
	H478	H	0.339378	0.334939	1.353480
	H479	H	0.344572	0.322658	1.360911
	O480	O	0.301680	0.660989	0.303057
	H481	H	0.314570	0.631348	0.306341
	H482	H	0.271041	0.682929	0.273845
	O483	O	0.716085	0.660351	0.722376
	H484	H	0.740675	0.683075	0.744380
	H485	H	0.698378	0.652275	0.718624
	O486	O	0.072423	0.759389	0.071204
	H487	H	0.054682	0.764485	0.046386
	H488	H	0.082816	0.758303	0.057844
	O489	O	1.061676	1.139319	-0.129358
	H490	H	1.048222	1.138249	-0.121834
	H491	H	1.052777	1.128833	-0.128538
