data_Molecule from HDF5

_cell_length_a		16.298452
_cell_length_b		16.253438
_cell_length_c		16.273861
_cell_angle_alpha	89.929607
_cell_angle_beta	90.036345
_cell_angle_gamma	90.000323
_symmetry_space_group_name_H-M	'P 1'
_symmetry_Int_Tables_number		1

loop_
	_symmetry_equiv_pos_as_xyz
	x,y,z

loop_
	_atom_site_label
	_atom_site_type_symbol
	_atom_site_fract_x
	_atom_site_fract_y
	_atom_site_fract_z
	H0	H	0.402526	0.835484	0.713495
	H1	H	0.596484	0.164061	0.712666
	H2	H	0.598528	0.836060	0.285714
	H3	H	0.402805	0.164558	0.286540
	H4	H	0.715202	0.400985	0.836805
	H5	H	0.713509	0.597134	0.163719
	H6	H	0.285647	0.598855	0.836063
	H7	H	0.287054	0.402889	0.164039
	H8	H	0.836617	0.714155	0.401102
	H9	H	0.163431	0.714388	0.597979
	H10	H	0.836426	0.286666	0.597674
	H11	H	0.163878	0.286460	0.402788
	H12	H	0.836567	0.401636	0.714574
	H13	H	0.163212	0.598615	0.715085
	H14	H	0.835985	0.597704	0.286128
	H15	H	0.163753	0.401404	0.285680
	H16	H	0.402929	0.713174	0.835815
	H17	H	0.597515	0.713099	0.164014
	H18	H	0.597189	0.287490	0.835297
	H19	H	0.402422	0.286395	0.163740
	H20	H	0.714124	0.835985	0.402966
	H21	H	0.713210	0.164296	0.596701
	H22	H	0.286454	0.835733	0.597363
	H23	H	0.287038	0.164135	0.402767
	H24	H	0.903170	0.335131	0.213247
	H25	H	0.096782	0.664217	0.213433
	H26	H	0.097504	0.335877	0.787312
	H27	H	0.901418	0.663606	0.785460
	H28	H	0.214192	0.901682	0.336250
	H29	H	0.214326	0.098284	0.663687
	H30	H	0.785811	0.098659	0.336227
	H31	H	0.787111	0.902114	0.664023
	H32	H	0.336302	0.214122	0.902209
	H33	H	0.663688	0.213555	0.097420
	H34	H	0.336189	0.786532	0.096761
	H35	H	0.663937	0.787349	0.902681
	H36	H	0.335616	0.902786	0.212840
	H37	H	0.663372	0.097568	0.214033
	H38	H	0.336077	0.097462	0.786049
	H39	H	0.663358	0.903088	0.786316
	H40	H	0.902164	0.214245	0.336456
	H41	H	0.096908	0.213039	0.664319
	H42	H	0.097963	0.786627	0.336324
	H43	H	0.902646	0.786150	0.663462
	H44	H	0.214159	0.335832	0.902900
	H45	H	0.214586	0.663927	0.098576
	H46	H	0.785380	0.336030	0.098502
	H47	H	0.786060	0.663772	0.901645
	H48	H	0.412286	0.113339	0.586260
	H49	H	0.598152	0.878709	0.602745
	H50	H	0.591714	0.115759	0.410534
	H51	H	0.405584	0.882648	0.405680
	H52	H	0.590315	0.410409	0.113999
	H53	H	0.590844	0.589632	0.884883
	H54	H	0.411515	0.594679	0.115667
	H55	H	0.406785	0.407268	0.883008
	H56	H	0.113421	0.584427	0.407095
	H57	H	0.887323	0.584223	0.589943
	H58	H	0.116166	0.410821	0.595375
	H59	H	0.887442	0.411134	0.416035
	H60	H	0.118832	0.403363	0.596549
	H61	H	0.880847	0.593669	0.602518
	H62	H	0.120179	0.596602	0.397620
	H63	H	0.882008	0.412589	0.396519
	H64	H	0.403072	0.597900	0.119410
	H65	H	0.592097	0.598582	0.882530
	H66	H	0.591527	0.401289	0.117798
	H67	H	0.406015	0.405640	0.882303
	H68	H	0.596838	0.117921	0.405919
	H69	H	0.584480	0.885506	0.594217
	H70	H	0.396734	0.119664	0.591830
	H71	H	0.407601	0.882927	0.406193
	H72	H	0.909332	0.615240	0.091571
	H73	H	0.096738	0.383028	0.091604
	H74	H	0.097935	0.618269	0.907347
	H75	H	0.911341	0.384524	0.908666
	H76	H	0.096308	0.904937	0.617973
	H77	H	0.097374	0.087418	0.383587
	H78	H	0.910724	0.096055	0.616691
	H79	H	0.907500	0.902932	0.381739
	H80	H	0.619414	0.096634	0.898867
	H81	H	0.383758	0.094324	0.089101
	H82	H	0.615553	0.907113	0.090740
	H83	H	0.388515	0.914567	0.918849
	H84	H	0.616730	0.908684	0.095645
	H85	H	0.384089	0.089824	0.094681
	H86	H	0.616475	0.098510	0.911285
	H87	H	0.381175	0.913566	0.892086
	H88	H	0.902700	0.094937	0.618994
	H89	H	0.086870	0.093632	0.385835
	H90	H	0.093571	0.910475	0.615833
	H91	H	0.901901	0.906721	0.381535
	H92	H	0.090798	0.617438	0.903172
	H93	H	0.095165	0.381196	0.097431
	H94	H	0.903490	0.616827	0.091883
	H95	H	0.903482	0.382823	0.911257
	H96	H	0.410195	0.118510	0.603619
	H97	H	0.599505	0.883018	0.585625
	H98	H	0.591144	0.116830	0.403172
	H99	H	0.405832	0.882975	0.407688
	H100	H	0.599096	0.407830	0.117735
	H101	H	0.598063	0.592197	0.881976
	H102	H	0.403779	0.588454	0.116344
	H103	H	0.404749	0.406936	0.882816
	H104	H	0.116709	0.599988	0.413822
	H105	H	0.883119	0.600188	0.587359
	H106	H	0.115837	0.405694	0.589867
	H107	H	0.880158	0.394868	0.406268
	H108	H	0.907416	0.617518	0.097046
	H109	H	0.090675	0.383725	0.094060
	H110	H	0.091033	0.615364	0.911162
	H111	H	0.905755	0.381168	0.902721
	H112	H	0.089728	0.905044	0.616057
	H113	H	0.096761	0.099621	0.380868
	H114	H	0.906932	0.088630	0.615114
	H115	H	0.907837	0.908797	0.383965
	H116	H	0.614959	0.087035	0.906088
	H117	H	0.381311	0.096696	0.095612
	H118	H	0.617580	0.903960	0.094372
	H119	H	0.378680	0.891365	0.908146
	C120	C	0.378194	0.008609	0.621557
	C121	C	0.621890	0.991172	0.621537
	C122	C	0.621716	0.008401	0.378379
	C123	C	0.378303	0.991526	0.378421
	C124	C	0.621716	0.378395	0.008129
	C125	C	0.621808	0.621587	0.991464
	C126	C	0.378337	0.621819	0.008508
	C127	C	0.378584	0.378595	0.991350
	C128	C	0.008178	0.621717	0.378056
	C129	C	0.991560	0.621326	0.621686
	C130	C	0.008737	0.378226	0.622235
	C131	C	0.991924	0.378261	0.378459
	C132	C	0.878387	0.508073	0.121835
	C133	C	0.121857	0.491414	0.122095
	C134	C	0.121811	0.508408	0.878818
	C135	C	0.878510	0.491385	0.878746
	C136	C	0.121452	0.878668	0.508420
	C137	C	0.121796	0.121727	0.491589
	C138	C	0.878467	0.121826	0.508776
	C139	C	0.878018	0.877956	0.491151
	C140	C	0.508576	0.121756	0.877880
	C141	C	0.491285	0.121929	0.121396
	C142	C	0.508043	0.878590	0.121321
	C143	C	0.491222	0.878495	0.878267
	C144	C	0.381227	0.884465	0.675972
	C145	C	0.617668	0.115425	0.675152
	C146	C	0.618825	0.884861	0.323893
	C147	C	0.381657	0.115308	0.324019
	C148	C	0.676783	0.381000	0.885193
	C149	C	0.676317	0.618251	0.114831
	C150	C	0.323603	0.619329	0.885045
	C151	C	0.324614	0.381976	0.114914
	C152	C	0.885197	0.676259	0.380949
	C153	C	0.114711	0.676539	0.618719
	C154	C	0.885516	0.323577	0.619246
	C155	C	0.115070	0.324108	0.382035
	C156	C	0.885481	0.381134	0.676878
	C157	C	0.114709	0.619038	0.676595
	C158	C	0.885100	0.618366	0.323856
	C159	C	0.115060	0.381538	0.324345
	C160	C	0.381834	0.676124	0.884671
	C161	C	0.618681	0.675842	0.114952
	C162	C	0.618423	0.324477	0.884630
	C163	C	0.381981	0.324029	0.114953
	C164	C	0.676483	0.885009	0.381786
	C165	C	0.675723	0.115170	0.617970
	C166	C	0.324026	0.884755	0.617988
	C167	C	0.323864	0.115042	0.381341
	C168	C	0.881630	0.384210	0.175932
	C169	C	0.118055	0.615072	0.175931
	C170	C	0.118638	0.384888	0.824724
	C171	C	0.880972	0.614786	0.823400
	C172	C	0.176418	0.881381	0.385357
	C173	C	0.176442	0.118904	0.615000
	C174	C	0.823766	0.119137	0.385214
	C175	C	0.824228	0.881177	0.614859
	C176	C	0.385019	0.175918	0.881679
	C177	C	0.614886	0.175983	0.117994
	C178	C	0.384729	0.824266	0.117733
	C179	C	0.614639	0.824157	0.881241
	C180	C	0.384682	0.881844	0.175492
	C181	C	0.614632	0.118548	0.175944
	C182	C	0.384951	0.118559	0.823593
	C183	C	0.614547	0.882116	0.823898
	C184	C	0.881415	0.176528	0.385192
	C185	C	0.118133	0.175831	0.615050
	C186	C	0.118835	0.823881	0.385147
	C187	C	0.881276	0.823221	0.614465
	C188	C	0.176571	0.384778	0.881956
	C189	C	0.176298	0.614987	0.118726
	C190	C	0.823277	0.384916	0.119232
	C191	C	0.823576	0.614705	0.881038
	C192	C	0.399965	0.094670	0.600259
	C193	C	0.600369	0.904896	0.600484
	C194	C	0.599687	0.094640	0.400028
	C195	C	0.399982	0.905082	0.400044
	C196	C	0.600117	0.399985	0.094356
	C197	C	0.600041	0.600062	0.905250
	C198	C	0.399753	0.600145	0.094937
	C199	C	0.399670	0.400133	0.904908
	C200	C	0.094543	0.600131	0.399943
	C201	C	0.905844	0.599173	0.599810
	C202	C	0.094693	0.400208	0.600335
	C203	C	0.905388	0.400039	0.399849
	C204	C	0.900397	0.594173	0.100079
	C205	C	0.100547	0.405003	0.100611
	C206	C	0.099684	0.594550	0.900780
	C207	C	0.900295	0.405042	0.900925
	C208	C	0.099542	0.900399	0.594479
	C209	C	0.100147	0.099861	0.405596
	C210	C	0.900189	0.099783	0.594757
	C211	C	0.899421	0.899744	0.404706
	C212	C	0.594663	0.100346	0.898892
	C213	C	0.405318	0.100022	0.099579
	C214	C	0.594320	0.900152	0.099898
	C215	C	0.405177	0.900089	0.899972
	Zn216	Zn	0.499776	-0.000362	0.749563
	Zn217	Zn	0.499710	0.000062	0.249843
	Zn218	Zn	0.750225	0.500122	-0.000019
	Zn219	Zn	0.249845	0.500470	-0.000042
	Zn220	Zn	-0.000179	0.749992	0.499674
	Zn221	Zn	-0.000417	0.249977	0.500125
	Zn222	Zn	0.000200	0.499914	0.750727
	Zn223	Zn	-0.000124	0.499600	0.250218
	Zn224	Zn	0.500181	0.749808	-0.000285
	Zn225	Zn	0.500212	0.250441	-0.000179
	Zn226	Zn	0.750313	0.000142	0.500240
	Zn227	Zn	0.250165	0.000104	0.500171
	N228	N	0.414602	0.962255	0.678129
	N229	N	0.584897	0.037440	0.677566
	N230	N	0.585336	0.962595	0.321658
	N231	N	0.414815	0.037475	0.322110
	N232	N	0.678767	0.414032	0.962882
	N233	N	0.678219	0.585245	0.037094
	N234	N	0.321506	0.586286	0.962953
	N235	N	0.322209	0.415007	0.037158
	N236	N	0.962817	0.678176	0.414135
	N237	N	0.037290	0.678063	0.585291
	N238	N	0.962993	0.321771	0.585896
	N239	N	0.037420	0.322172	0.414996
	N240	N	0.963081	0.414292	0.678905
	N241	N	0.037222	0.585499	0.678559
	N242	N	0.962721	0.585213	0.321972
	N243	N	0.037122	0.414268	0.321922
	N244	N	0.415144	0.677982	0.962448
	N245	N	0.585665	0.677964	0.037191
	N246	N	0.584784	0.322816	0.962121
	N247	N	0.414679	0.321753	0.037027
	N248	N	0.678129	0.962741	0.414937
	N249	N	0.678441	0.037080	0.585520
	N250	N	0.321917	0.962678	0.585143
	N251	N	0.321913	0.037156	0.414586
	N252	N	0.915183	0.461784	0.177715
	N253	N	0.084818	0.537362	0.178040
	N254	N	0.085194	0.462606	0.822980
	N255	N	0.914344	0.537057	0.821749
	N256	N	0.178068	0.914714	0.462937
	N257	N	0.178591	0.085694	0.537298
	N258	N	0.821903	0.085765	0.462964
	N259	N	0.822271	0.914441	0.537088
	N260	N	0.462675	0.177977	0.914686
	N261	N	0.537215	0.178203	0.084944
	N262	N	0.462364	0.822179	0.084773
	N263	N	0.536932	0.821819	0.914331
	N264	N	0.462416	0.914813	0.177814
	N265	N	0.536954	0.085602	0.178042
	N266	N	0.462593	0.085258	0.821296
	N267	N	0.536888	0.915044	0.821963
	N268	N	0.914816	0.178229	0.462782
	N269	N	0.084889	0.177688	0.537453
	N270	N	0.085287	0.821970	0.462622
	N271	N	0.914238	0.821373	0.536618
	N272	N	0.178552	0.462757	0.914843
	N273	N	0.178914	0.536948	0.086127
	N274	N	0.821151	0.462880	0.086157
	N275	N	0.822169	0.537097	0.914922
