data_Molecule from HDF5

_cell_length_a		16.636489
_cell_length_b		16.462961
_cell_length_c		16.493495
_cell_angle_alpha	90.089602
_cell_angle_beta	90.048079
_cell_angle_gamma	89.957853
_symmetry_space_group_name_H-M	'P 1'
_symmetry_Int_Tables_number		1

loop_
	_symmetry_equiv_pos_as_xyz
	x,y,z

loop_
	_atom_site_label
	_atom_site_type_symbol
	_atom_site_fract_x
	_atom_site_fract_y
	_atom_site_fract_z
	H0	H	0.401718	0.856197	0.738889
	H1	H	0.607188	0.174124	0.737905
	H2	H	0.611947	0.857042	0.298383
	H3	H	0.405337	0.173963	0.301053
	H4	H	0.729342	0.406899	0.862717
	H5	H	0.726094	0.620169	0.176619
	H6	H	0.282328	0.620953	0.863356
	H7	H	0.285423	0.410806	0.176622
	H8	H	0.847850	0.736564	0.415924
	H9	H	0.164458	0.732961	0.621544
	H10	H	0.848479	0.295023	0.621076
	H11	H	0.161726	0.294936	0.412741
	H12	H	0.847906	0.411847	0.738244
	H13	H	0.162252	0.618482	0.740748
	H14	H	0.847291	0.620239	0.298630
	H15	H	0.161743	0.413709	0.297962
	H16	H	0.401593	0.733196	0.861165
	H17	H	0.608470	0.734150	0.177541
	H18	H	0.608793	0.295125	0.860338
	H19	H	0.404608	0.297379	0.177955
	H20	H	0.726789	0.856528	0.415792
	H21	H	0.726710	0.172454	0.624547
	H22	H	0.284174	0.856970	0.623736
	H23	H	0.284809	0.171955	0.412458
	H24	H	0.900551	0.358899	0.240285
	H25	H	0.108265	0.673944	0.239263
	H26	H	0.107966	0.356621	0.799505
	H27	H	0.900796	0.672826	0.798978
	H28	H	0.226258	0.910734	0.360273
	H29	H	0.228568	0.121359	0.674707
	H30	H	0.785684	0.117849	0.362121
	H31	H	0.785519	0.909458	0.676879
	H32	H	0.349866	0.235809	0.915570
	H33	H	0.662298	0.237515	0.124499
	H34	H	0.348709	0.795843	0.122500
	H35	H	0.662158	0.794694	0.918108
	H36	H	0.349457	0.912402	0.240420
	H37	H	0.663077	0.119278	0.240664
	H38	H	0.349156	0.117767	0.798644
	H39	H	0.661691	0.911013	0.798894
	H40	H	0.905002	0.231176	0.359947
	H41	H	0.110537	0.236036	0.675688
	H42	H	0.108121	0.796064	0.359677
	H43	H	0.905789	0.797282	0.678384
	H44	H	0.225507	0.357480	0.914765
	H45	H	0.228360	0.671315	0.127247
	H46	H	0.783704	0.358145	0.125049
	H47	H	0.783310	0.672242	0.914704
	H48	H	0.418609	0.128014	0.612567
	H49	H	0.592241	0.905572	0.601312
	H50	H	0.597917	0.125645	0.436375
	H51	H	0.409521	0.899925	0.430921
	H52	H	0.594058	0.432467	0.128777
	H53	H	0.593002	0.602656	0.907838
	H54	H	0.419088	0.605356	0.131760
	H55	H	0.419248	0.426366	0.908115
	H56	H	0.117387	0.604341	0.424059
	H57	H	0.892204	0.612339	0.608924
	H58	H	0.113393	0.428840	0.602336
	H59	H	0.893168	0.425430	0.429381
	H60	H	0.118085	0.430452	0.615004
	H61	H	0.896117	0.603585	0.604831
	H62	H	0.117525	0.609931	0.430409
	H63	H	0.893497	0.424984	0.428520
	H64	H	0.412674	0.607352	0.134875
	H65	H	0.595642	0.603963	0.906266
	H66	H	0.591143	0.420915	0.131286
	H67	H	0.414320	0.423227	0.904556
	H68	H	0.600197	0.129415	0.427646
	H69	H	0.605023	0.899064	0.607590
	H70	H	0.419738	0.124078	0.603917
	H71	H	0.420517	0.900218	0.423308
	H72	H	0.913100	0.629284	0.109136
	H73	H	0.098347	0.403427	0.102332
	H74	H	0.089263	0.627143	0.927225
	H75	H	0.919330	0.404360	0.932662
	H76	H	0.092120	0.926514	0.629126
	H77	H	0.099453	0.100254	0.405475
	H78	H	0.917117	0.110466	0.633929
	H79	H	0.920039	0.918625	0.404980
	H80	H	0.614821	0.099668	0.932794
	H81	H	0.399888	0.093509	0.106666
	H82	H	0.618083	0.924755	0.109049
	H83	H	0.394111	0.921915	0.935169
	H84	H	0.617343	0.924382	0.108764
	H85	H	0.390929	0.108093	0.122092
	H86	H	0.620129	0.103563	0.922144
	H87	H	0.394299	0.931036	0.926416
	H88	H	0.910909	0.102761	0.632904
	H89	H	0.092749	0.104424	0.406323
	H90	H	0.099663	0.921898	0.633451
	H91	H	0.907717	0.928737	0.404957
	H92	H	0.093394	0.625192	0.937467
	H93	H	0.096485	0.399659	0.113919
	H94	H	0.916995	0.627796	0.108035
	H95	H	0.911365	0.401592	0.931300
	H96	H	0.411464	0.128188	0.606283
	H97	H	0.592275	0.900556	0.616695
	H98	H	0.591002	0.126503	0.429251
	H99	H	0.421001	0.905315	0.435500
	H100	H	0.601979	0.425107	0.133483
	H101	H	0.595696	0.600632	0.906954
	H102	H	0.413849	0.600071	0.131466
	H103	H	0.413120	0.429622	0.906848
	H104	H	0.114598	0.602283	0.431696
	H105	H	0.892735	0.603459	0.614833
	H106	H	0.119051	0.418777	0.608952
	H107	H	0.893089	0.424891	0.429267
	H108	H	0.913908	0.628155	0.104588
	H109	H	0.087352	0.404372	0.107703
	H110	H	0.099163	0.630138	0.929832
	H111	H	0.917747	0.400594	0.925204
	H112	H	0.100365	0.930918	0.630719
	H113	H	0.099074	0.107525	0.403285
	H114	H	0.920543	0.101820	0.630381
	H115	H	0.921469	0.933090	0.410677
	H116	H	0.618931	0.110996	0.932068
	H117	H	0.395031	0.114546	0.100966
	H118	H	0.618002	0.925072	0.108757
	H119	H	0.390265	0.919427	0.923458
	C120	C	0.384402	0.022615	0.639811
	C121	C	0.627732	1.006333	0.640864
	C122	C	0.628065	0.022906	0.398772
	C123	C	0.385839	1.006652	0.398138
	C124	C	0.627596	0.393439	0.027158
	C125	C	0.626182	0.635068	1.010924
	C126	C	0.383274	0.636048	0.028552
	C127	C	0.384849	0.394614	1.010916
	C128	C	0.012809	0.637554	0.397198
	C129	C	0.997668	0.637056	0.641072
	C130	C	0.013469	0.394127	0.639704
	C131	C	0.996640	0.393958	0.396773
	C132	C	0.883386	0.524220	0.139890
	C133	C	0.125846	0.506735	0.140258
	C134	C	0.125996	0.523263	0.898791
	C135	C	0.883592	0.506523	0.897850
	C136	C	0.128212	0.894178	0.526846
	C137	C	0.128274	0.136716	0.509333
	C138	C	0.885072	0.135740	0.527880
	C139	C	0.885554	0.894554	0.511266
	C140	C	0.514229	0.136160	0.897711
	C141	C	0.498734	0.136797	0.140971
	C142	C	0.514205	0.893803	0.140530
	C143	C	0.496643	0.892485	0.897353
	C144	C	0.382962	0.903670	0.699141
	C145	C	0.627416	0.126110	0.699203
	C146	C	0.630023	0.904302	0.338699
	C147	C	0.385438	0.125848	0.339488
	C148	C	0.687945	0.389961	0.909186
	C149	C	0.685711	0.637761	0.129582
	C150	C	0.323149	0.638501	0.910329
	C151	C	0.325958	0.392837	0.129773
	C152	C	0.894938	0.697005	0.396686
	C153	C	0.116662	0.694507	0.641246
	C154	C	0.895341	0.334892	0.640228
	C155	C	0.114807	0.335192	0.394868
	C156	C	0.895196	0.393096	0.698377
	C157	C	0.115642	0.637544	0.700445
	C158	C	0.894624	0.639047	0.338223
	C159	C	0.114746	0.394015	0.337584
	C160	C	0.382298	0.694676	0.909370
	C161	C	0.627319	0.694699	0.129877
	C162	C	0.628371	0.334142	0.908059
	C163	C	0.384960	0.336258	0.130191
	C164	C	0.687078	0.903910	0.397184
	C165	C	0.686646	0.125209	0.642823
	C166	C	0.324376	0.904235	0.642101
	C167	C	0.325552	0.125084	0.395055
	C168	C	0.881862	0.405812	0.200174
	C169	C	0.127552	0.626091	0.200075
	C170	C	0.127054	0.404164	0.839078
	C171	C	0.881674	0.625522	0.838533
	C172	C	0.186591	0.892195	0.407649
	C173	C	0.188022	0.139352	0.627770
	C174	C	0.825831	0.136490	0.409155
	C175	C	0.826293	0.891875	0.629990
	C176	C	0.396614	0.195770	0.896435
	C177	C	0.616127	0.196447	0.142522
	C178	C	0.395771	0.835374	0.141912
	C179	C	0.615023	0.833628	0.897364
	C180	C	0.396240	0.893130	0.200431
	C181	C	0.616262	0.137999	0.200351
	C182	C	0.396162	0.137042	0.838667
	C183	C	0.614898	0.891320	0.838691
	C184	C	0.885336	0.192522	0.407811
	C185	C	0.129338	0.196381	0.628080
	C186	C	0.127912	0.835318	0.407448
	C187	C	0.885842	0.836144	0.630735
	C188	C	0.185754	0.404701	0.895939
	C189	C	0.187090	0.624684	0.144206
	C190	C	0.823982	0.405453	0.142756
	C191	C	0.823502	0.625062	0.896008
	C192	C	0.409275	0.105152	0.614801
	C193	C	0.603335	0.923285	0.615986
	C194	C	0.603504	0.105563	0.423948
	C195	C	0.410089	0.923622	0.423017
	C196	C	0.602791	0.418664	0.109765
	C197	C	0.601749	0.609735	0.928312
	C198	C	0.408113	0.611316	0.111151
	C199	C	0.408625	0.419248	0.928080
	C200	C	0.095073	0.612569	0.421647
	C201	C	0.915223	0.613277	0.616637
	C202	C	0.095319	0.418914	0.615613
	C203	C	0.914702	0.418216	0.421768
	C204	C	0.907783	0.606914	0.114485
	C205	C	0.101159	0.424105	0.115235
	C206	C	0.101065	0.605938	0.924385
	C207	C	0.908763	0.423697	0.922569
	C208	C	0.104207	0.919264	0.609728
	C209	C	0.103943	0.111628	0.426397
	C210	C	0.909300	0.111851	0.610899
	C211	C	0.909541	0.919570	0.428490
	C212	C	0.596690	0.111626	0.922028
	C213	C	0.416590	0.112443	0.116456
	C214	C	0.596345	0.917960	0.116028
	C215	C	0.414318	0.917033	0.921273
	Zn216	Zn	0.505859	0.014563	0.768304
	Zn217	Zn	0.506993	0.014666	0.270027
	Zn218	Zn	0.755439	0.514954	0.018758
	Zn219	Zn	0.254825	0.514471	0.019688
	Zn220	Zn	0.006473	0.766105	0.519044
	Zn221	Zn	0.006041	0.264421	0.517865
	Zn222	Zn	0.005148	0.515232	0.770016
	Zn223	Zn	0.004382	0.516111	0.267985
	Zn224	Zn	0.505081	0.763905	0.019515
	Zn225	Zn	0.505846	0.265747	0.019422
	Zn226	Zn	0.756633	0.014537	0.519849
	Zn227	Zn	0.256388	0.014702	0.518079
	N228	N	0.419760	0.978244	0.697786
	N229	N	0.591672	0.050953	0.698259
	N230	N	0.594125	0.979389	0.339407
	N231	N	0.422327	0.051269	0.341384
	N232	N	0.687722	0.425770	0.984327
	N233	N	0.685020	0.601050	0.054731
	N234	N	0.323257	0.603101	0.985615
	N235	N	0.325575	0.428391	0.054492
	N236	N	0.969678	0.696397	0.432155
	N237	N	0.042129	0.694650	0.605281
	N238	N	0.969963	0.335165	0.604562
	N239	N	0.040344	0.334897	0.430792
	N240	N	0.969647	0.428963	0.698448
	N241	N	0.040625	0.602728	0.700584
	N242	N	0.969281	0.603163	0.338121
	N243	N	0.040294	0.429883	0.338671
	N244	N	0.419191	0.693187	0.983833
	N245	N	0.590851	0.693108	0.055167
	N246	N	0.591892	0.335896	0.982730
	N247	N	0.420823	0.337234	0.055332
	N248	N	0.685869	0.978636	0.433931
	N249	N	0.687120	0.049592	0.607499
	N250	N	0.325104	0.979282	0.605852
	N251	N	0.325753	0.049781	0.430972
	N252	N	0.918020	0.480750	0.198499
	N253	N	0.089931	0.551867	0.197702
	N254	N	0.090756	0.479138	0.840408
	N255	N	0.918253	0.550616	0.839517
	N256	N	0.186954	0.927907	0.482967
	N257	N	0.187681	0.102983	0.552710
	N258	N	0.825407	0.102127	0.484919
	N259	N	0.825956	0.927348	0.554697
	N260	N	0.471155	0.195225	0.932422
	N261	N	0.541970	0.195824	0.106342
	N262	N	0.469953	0.835594	0.105452
	N263	N	0.540345	0.834115	0.932807
	N264	N	0.470980	0.928402	0.199842
	N265	N	0.542298	0.101461	0.199310
	N266	N	0.470453	0.100854	0.839396
	N267	N	0.540292	0.926915	0.838219
	N268	N	0.921372	0.192313	0.482690
	N269	N	0.093082	0.194864	0.553335
	N270	N	0.092499	0.836216	0.482601
	N271	N	0.921956	0.837563	0.555927
	N272	N	0.185323	0.479924	0.932036
	N273	N	0.186158	0.549573	0.107783
	N274	N	0.824809	0.480120	0.106014
	N275	N	0.824598	0.549872	0.931870
	O276	O	0.797912	0.874336	0.019187
	H277	H	0.809489	0.875399	0.002683
	H278	H	0.792257	0.885726	0.004861
	O279	O	0.111328	-0.083647	1.078101
	H280	H	0.104201	-0.086936	1.066109
	H281	H	0.105111	-0.075050	1.087882
	O282	O	-0.001747	0.840074	-0.079802
	H283	H	0.016140	0.834287	-0.050073
	H284	H	0.023569	0.835391	-0.118246
	O285	O	0.467854	0.305365	0.641080
	H286	H	0.472198	0.318665	0.648396
	H287	H	0.475128	0.304451	0.657519
	O288	O	0.807404	-0.111183	0.885487
	H289	H	0.824636	-0.096628	0.897514
	H290	H	0.812071	-0.084502	0.891908
	O291	O	0.646021	0.494410	0.343820
	H292	H	0.652515	0.498130	0.338001
	H293	H	0.650147	0.507760	0.353479
	O294	O	-0.258689	0.277336	0.349353
	H295	H	-0.247521	0.260811	0.363313
	H296	H	-0.263855	0.302451	0.344920
	O297	O	1.192990	0.109091	0.122911
	H298	H	1.204679	0.117441	0.132533
	H299	H	1.195316	0.115840	0.123590
	O300	O	0.128829	0.041419	0.208610
	H301	H	0.128598	0.024178	0.195735
	H302	H	0.123787	0.022230	0.209871
	O303	O	-0.004988	0.042784	0.000574
	H304	H	0.000991	0.038050	-0.012206
	H305	H	-0.006587	0.040875	-0.001394
	O306	O	0.806678	-0.182701	0.216725
	H307	H	0.799451	-0.159818	0.193584
	H308	H	0.789585	-0.181974	0.200505
	O309	O	0.586832	0.362327	0.388553
	H310	H	0.594070	0.354280	0.391514
	H311	H	0.591015	0.370821	0.384486
	O312	O	0.405731	0.558968	0.540651
	H313	H	0.383788	0.554402	0.523011
	H314	H	0.419748	0.549499	0.537209
	O315	O	0.723539	0.513468	0.422986
	H316	H	0.729056	0.527020	0.441831
	H317	H	0.717750	0.531889	0.426077
	O318	O	1.218795	1.223262	0.049980
	H319	H	1.207702	1.224788	0.069355
	H320	H	1.228789	1.237360	0.061999
	O321	O	0.248548	0.257922	0.249280
	H322	H	0.261713	0.252262	0.253005
	H323	H	0.237811	0.250927	0.253422
	O324	O	0.460024	0.670265	1.660125
	H325	H	0.446830	0.677960	1.640786
	H326	H	0.452353	0.685375	1.668053
	O327	O	0.406078	0.588335	0.617499
	H328	H	0.410369	0.598860	0.619179
	H329	H	0.402915	0.590697	0.612290
	O330	O	-0.138133	1.050528	-0.009983
	H331	H	-0.138915	1.066681	0.001861
	H332	H	-0.128176	1.050720	-0.002245
	O333	O	0.804402	0.213938	-0.183357
	H334	H	0.780615	0.212529	-0.204635
	H335	H	0.803454	0.222393	-0.137475
	O336	O	0.593230	0.401574	0.507619
	H337	H	0.581133	0.412990	0.515925
	H338	H	0.590949	0.401185	0.522440
	O339	O	0.285432	0.295632	0.546010
	H340	H	0.277552	0.289933	0.574034
	H341	H	0.271472	0.278384	0.562734
	O342	O	-0.178561	1.153437	0.168295
	H343	H	-0.179582	1.154205	0.174062
	H344	H	-0.176458	1.144767	0.171760
	O345	O	0.665052	0.410510	0.641124
	H346	H	0.654605	0.416320	0.635945
	H347	H	0.667819	0.428931	0.643171
	O348	O	0.973448	-0.024889	-0.203248
	H349	H	0.962410	-0.039921	-0.216290
	H350	H	0.979117	-0.020904	-0.192366
	O351	O	0.193628	0.010014	0.835401
	H352	H	0.197035	0.018888	0.833102
	H353	H	0.182050	0.026568	0.844179
	O354	O	1.301809	-0.394151	1.316964
	H355	H	1.307986	-0.415019	1.321551
	H356	H	1.314511	-0.405494	1.305998
	O357	O	0.310106	0.575259	0.705443
	H358	H	0.318383	0.573155	0.690108
	H359	H	0.300902	0.561708	0.700718
	O360	O	0.414796	0.406764	0.466488
	H361	H	0.412501	0.407459	0.469098
	H362	H	0.417133	0.387054	0.465290
	O363	O	0.512153	0.713922	-0.667403
	H364	H	0.487779	0.704718	-0.658130
	H365	H	0.508322	0.738325	-0.683292
	O366	O	1.111936	-0.055076	1.171816
	H367	H	1.113961	-0.062616	1.162947
	H368	H	1.106485	-0.062404	1.168219
	O369	O	0.303793	0.319743	0.723153
	H370	H	0.349024	0.321685	0.728966
	H371	H	0.295266	0.347374	0.724771
	O372	O	-0.095661	0.901368	1.152295
	H373	H	-0.119606	0.890652	1.146780
	H374	H	-0.089538	0.884419	1.144625
	O375	O	0.785701	0.229482	-0.015880
	H376	H	0.795717	0.245013	-0.001312
	H377	H	0.783983	0.252379	-0.007365
	O378	O	0.754131	0.682397	0.767865
	H379	H	0.761976	0.699988	0.767291
	H380	H	0.767667	0.703954	0.793289
	O381	O	0.192709	1.014938	0.001560
	H382	H	0.193294	1.017508	0.013278
	H383	H	0.205114	1.027398	0.001791
	O384	O	0.383584	0.711338	0.330421
	H385	H	0.388911	0.684591	0.332610
	H386	H	0.368663	0.712459	0.314291
	O387	O	-0.015168	0.827005	1.179462
	H388	H	-0.032260	0.817627	1.189743
	H389	H	-0.033327	0.817224	1.186155
	O390	O	0.209198	0.838264	0.819431
	H391	H	0.217327	0.862327	0.811969
	H392	H	0.223774	0.845975	0.799112
	O393	O	0.952703	0.223368	0.038158
	H394	H	0.966447	0.221227	0.035228
	H395	H	0.945827	0.215534	0.053579
	O396	O	0.555172	0.727306	0.567857
	H397	H	0.550886	0.724537	0.575332
	H398	H	0.543067	0.731002	0.546411
	O399	O	1.037517	0.800418	-0.194549
	H400	H	1.054606	0.779023	-0.215844
	H401	H	1.068662	0.812102	-0.196743
	O402	O	0.373353	-0.683992	1.316545
	H403	H	0.377552	-0.698764	1.325842
	H404	H	0.368791	-0.685904	1.313648
	O405	O	0.465583	0.564760	0.729971
	H406	H	0.465665	0.566738	0.730630
	H407	H	0.472335	0.569372	0.726881
	O408	O	0.797347	1.040750	0.804352
	H409	H	0.813586	1.058229	0.821899
	H410	H	0.775307	1.046693	0.772974
	O411	O	0.974242	1.234663	-0.199350
	H412	H	0.941748	1.232634	-0.203602
	H413	H	0.967349	1.254031	-0.218808
	O414	O	0.174506	0.174083	-0.161852
	H415	H	0.174748	0.176765	-0.158691
	H416	H	0.169421	0.181117	-0.155984
	O417	O	0.720179	0.718789	0.554266
	H418	H	0.721062	0.736714	0.571856
	H419	H	0.729911	0.732550	0.581549
	O420	O	0.721783	-0.376357	0.732247
	H421	H	0.710579	-0.369258	0.738917
	H422	H	0.737921	-0.346563	0.750189
	O423	O	0.936046	1.084736	0.032306
	H424	H	0.954147	1.087002	0.029642
	H425	H	0.921418	1.089529	0.016676
	O426	O	0.050031	1.195516	0.185802
	H427	H	0.060682	1.188152	0.196832
	H428	H	0.055720	1.199304	0.193082
	O429	O	0.396217	0.721881	0.643967
	H430	H	0.400771	0.720655	0.617283
	H431	H	0.393956	0.698075	0.628345
	O432	O	0.514526	0.546603	0.381832
	H433	H	0.525891	0.551321	0.370579
	H434	H	0.524797	0.552373	0.387017
	O435	O	1.165322	-0.156220	0.185859
	H436	H	1.155839	-0.151824	0.182160
	H437	H	1.153375	-0.146436	0.176414
	O438	O	0.386291	0.423017	0.472736
	H439	H	0.383967	0.407787	0.476667
	H440	H	0.390177	0.415128	0.460915
	O441	O	0.532208	0.395828	0.736902
	H442	H	0.562344	0.410720	0.739581
	H443	H	0.530598	0.403108	0.738885
	O444	O	0.286107	0.734766	0.483935
	H445	H	0.283476	0.738218	0.446688
	H446	H	0.266291	0.756254	0.468631
	O447	O	0.677306	0.354781	0.513929
	H448	H	0.678588	0.349605	0.508473
	H449	H	0.670555	0.357187	0.520220
	O450	O	1.066952	0.162385	-0.105835
	H451	H	1.068551	0.188789	-0.112183
	H452	H	1.069343	0.158410	-0.115689
	O453	O	0.616981	0.657044	0.369811
	H454	H	0.605551	0.667483	0.372328
	H455	H	0.613987	0.666128	0.373359
	O456	O	-0.012592	1.151858	1.188090
	H457	H	-0.004758	1.161691	1.189623
	H458	H	-0.005622	1.139678	1.187186
	O459	O	0.530504	-0.368364	0.628835
	H460	H	0.505024	-0.354300	0.625858
	H461	H	0.537907	-0.368111	0.636029
	O462	O	0.556408	0.330339	0.313675
	H463	H	0.560659	0.332622	0.305510
	H464	H	0.551062	0.317160	0.312529
	O465	O	0.820003	-0.022095	0.209432
	H466	H	0.817149	-0.015098	0.197590
	H467	H	0.803535	-0.020457	0.210580
	O468	O	0.031185	0.794839	0.056871
	H469	H	0.041508	0.790579	0.066222
	H470	H	0.048979	0.794631	0.063435
	O471	O	0.653443	0.445739	0.524782
	H472	H	0.659750	0.444450	0.502460
	H473	H	0.648786	0.448845	0.510628
	O474	O	0.476395	0.473029	0.466277
	H475	H	0.488437	0.466913	0.468980
	H476	H	0.494496	0.491881	0.463056
	O477	O	0.217588	-0.201132	0.997177
	H478	H	0.229730	-0.214325	0.980842
	H479	H	0.219752	-0.205732	0.971936
