data_Molecule from HDF5

_cell_length_a		16.502225
_cell_length_b		16.537069
_cell_length_c		16.558916
_cell_angle_alpha	89.990932
_cell_angle_beta	89.866279
_cell_angle_gamma	90.003890
_symmetry_space_group_name_H-M	'P 1'
_symmetry_Int_Tables_number		1

loop_
	_symmetry_equiv_pos_as_xyz
	x,y,z

loop_
	_atom_site_label
	_atom_site_type_symbol
	_atom_site_fract_x
	_atom_site_fract_y
	_atom_site_fract_z
	H0	H	0.400441	0.848702	0.738445
	H1	H	0.612749	0.161602	0.736337
	H2	H	0.616212	0.849781	0.289490
	H3	H	0.402553	0.162748	0.294282
	H4	H	0.729401	0.401031	0.859586
	H5	H	0.732384	0.615010	0.171744
	H6	H	0.286648	0.611517	0.858489
	H7	H	0.282582	0.399474	0.170700
	H8	H	0.851158	0.731149	0.405708
	H9	H	0.164332	0.728078	0.620026
	H10	H	0.848819	0.288962	0.614345
	H11	H	0.165142	0.284987	0.407192
	H12	H	0.848695	0.403996	0.732419
	H13	H	0.163382	0.612680	0.735789
	H14	H	0.851862	0.616245	0.288652
	H15	H	0.165095	0.402467	0.292078
	H16	H	0.402901	0.729130	0.859513
	H17	H	0.616678	0.731956	0.171837
	H18	H	0.612322	0.284573	0.859571
	H19	H	0.400146	0.284271	0.171544
	H20	H	0.731277	0.848603	0.406503
	H21	H	0.727789	0.162422	0.618591
	H22	H	0.283618	0.849666	0.622146
	H23	H	0.285738	0.162433	0.410253
	H24	H	0.901080	0.351908	0.237631
	H25	H	0.120619	0.661578	0.242157
	H26	H	0.110985	0.350606	0.793444
	H27	H	0.900087	0.664385	0.792448
	H28	H	0.233578	0.897192	0.359175
	H29	H	0.226293	0.108893	0.671461
	H30	H	0.785423	0.110322	0.357635
	H31	H	0.782885	0.898448	0.670125
	H32	H	0.350724	0.225418	0.911502
	H33	H	0.664220	0.226052	0.119193
	H34	H	0.349348	0.784086	0.122536
	H35	H	0.664163	0.782311	0.909358
	H36	H	0.350390	0.899588	0.238979
	H37	H	0.663413	0.111825	0.235922
	H38	H	0.351370	0.109049	0.795157
	H39	H	0.665183	0.899476	0.794136
	H40	H	0.902756	0.227312	0.357049
	H41	H	0.112779	0.228361	0.669689
	H42	H	0.117358	0.781099	0.358590
	H43	H	0.899919	0.783039	0.670828
	H44	H	0.227579	0.351244	0.909996
	H45	H	0.231459	0.663612	0.121529
	H46	H	0.785605	0.351349	0.120492
	H47	H	0.783700	0.663847	0.909521
	H48	H	0.420103	0.116737	0.607436
	H49	H	0.593312	0.893586	0.604746
	H50	H	0.593743	0.116037	0.426125
	H51	H	0.420682	0.895077	0.429749
	H52	H	0.593085	0.414880	0.128091
	H53	H	0.588600	0.593227	0.908375
	H54	H	0.422574	0.592443	0.125237
	H55	H	0.414582	0.417860	0.902152
	H56	H	0.120260	0.602903	0.429851
	H57	H	0.892554	0.594933	0.607835
	H58	H	0.120717	0.420453	0.606629
	H59	H	0.898399	0.421719	0.429468
	H60	H	0.122714	0.412747	0.606589
	H61	H	0.894217	0.599495	0.599255
	H62	H	0.112579	0.587519	0.435603
	H63	H	0.894162	0.419517	0.419770
	H64	H	0.418267	0.597628	0.128679
	H65	H	0.595641	0.598192	0.904115
	H66	H	0.597284	0.416063	0.129242
	H67	H	0.420834	0.416418	0.903937
	H68	H	0.595840	0.115707	0.427934
	H69	H	0.595074	0.894133	0.601364
	H70	H	0.417541	0.117313	0.603253
	H71	H	0.419101	0.893659	0.427490
	H72	H	0.922350	0.618616	0.102918
	H73	H	0.092273	0.397805	0.100181
	H74	H	0.095525	0.619687	0.926937
	H75	H	0.916756	0.394783	0.922365
	H76	H	0.098154	0.918947	0.625804
	H77	H	0.093742	0.100093	0.400535
	H78	H	0.924521	0.098813	0.624436
	H79	H	0.918903	0.919633	0.403208
	H80	H	0.620128	0.097579	0.930461
	H81	H	0.394183	0.087485	0.111592
	H82	H	0.617708	0.921139	0.103747
	H83	H	0.397530	0.918342	0.932692
	H84	H	0.619139	0.916754	0.104070
	H85	H	0.389586	0.103716	0.107307
	H86	H	0.620110	0.089669	0.924755
	H87	H	0.396214	0.922166	0.924544
	H88	H	0.912961	0.100181	0.629361
	H89	H	0.103197	0.093803	0.399722
	H90	H	0.091739	0.920096	0.623385
	H91	H	0.922253	0.920386	0.405337
	H92	H	0.097574	0.621128	0.924130
	H93	H	0.097019	0.395793	0.101156
	H94	H	0.922123	0.617355	0.099062
	H95	H	0.918684	0.395818	0.924275
	H96	H	0.415744	0.118510	0.607296
	H97	H	0.596873	0.892442	0.603897
	H98	H	0.596701	0.116941	0.425375
	H99	H	0.421836	0.895040	0.427190
	H100	H	0.594947	0.419087	0.126992
	H101	H	0.597257	0.588985	0.906810
	H102	H	0.415540	0.590951	0.126714
	H103	H	0.416884	0.411893	0.901187
	H104	H	0.119657	0.588697	0.418838
	H105	H	0.897681	0.590216	0.600822
	H106	H	0.119829	0.415939	0.599948
	H107	H	0.894405	0.411595	0.427738
	H108	H	0.918900	0.618701	0.101119
	H109	H	0.092872	0.396029	0.104811
	H110	H	0.094025	0.620357	0.923372
	H111	H	0.916348	0.394567	0.925079
	H112	H	0.093050	0.913396	0.626078
	H113	H	0.094046	0.089672	0.405066
	H114	H	0.916129	0.089680	0.624239
	H115	H	0.921648	0.916945	0.403794
	H116	H	0.623244	0.098169	0.921429
	H117	H	0.397370	0.093556	0.095778
	H118	H	0.618018	0.918521	0.099737
	H119	H	0.393621	0.913062	0.925594
	C120	C	0.385516	0.013699	0.637841
	C121	C	0.627949	0.996935	0.635356
	C122	C	0.629294	0.013272	0.392427
	C123	C	0.387188	0.997582	0.395243
	C124	C	0.628367	0.384753	0.024606
	C125	C	0.628357	0.627893	1.008762
	C126	C	0.386278	0.627152	0.023583
	C127	C	0.384560	0.383717	1.006162
	C128	C	0.015309	0.627991	0.393176
	C129	C	0.998412	0.627995	0.635473
	C130	C	0.015999	0.385526	0.635165
	C131	C	0.999353	0.385301	0.392662
	C132	C	0.887389	0.515588	0.134899
	C133	C	0.128947	0.499012	0.136167
	C134	C	0.127895	0.516326	0.892764
	C135	C	0.884625	0.498746	0.892298
	C136	C	0.129169	0.883771	0.522630
	C137	C	0.128537	0.127044	0.505395
	C138	C	0.885982	0.127594	0.522155
	C139	C	0.886643	0.884933	0.506554
	C140	C	0.516618	0.126405	0.894291
	C141	C	0.497766	0.127057	0.136669
	C142	C	0.515007	0.885189	0.136470
	C143	C	0.499338	0.884014	0.894438
	C144	C	0.382545	0.895789	0.697925
	C145	C	0.630770	0.114748	0.695834
	C146	C	0.633537	0.896276	0.330371
	C147	C	0.384440	0.115718	0.334810
	C148	C	0.689078	0.382772	0.906635
	C149	C	0.691223	0.632372	0.125269
	C150	C	0.326377	0.630296	0.905570
	C151	C	0.323162	0.381464	0.123757
	C152	C	0.898183	0.690375	0.388144
	C153	C	0.116795	0.688296	0.638063
	C154	C	0.896538	0.327721	0.634564
	C155	C	0.117724	0.325027	0.389491
	C156	C	0.896465	0.384963	0.693087
	C157	C	0.116401	0.630944	0.695829
	C158	C	0.898586	0.633203	0.329909
	C159	C	0.117765	0.383418	0.332250
	C160	C	0.384020	0.688586	0.906151
	C161	C	0.633300	0.690241	0.125482
	C162	C	0.631004	0.324734	0.906595
	C163	C	0.381497	0.323914	0.124204
	C164	C	0.690765	0.895829	0.388719
	C165	C	0.688186	0.115083	0.637540
	C166	C	0.324649	0.896147	0.639942
	C167	C	0.326188	0.115623	0.392333
	C168	C	0.883603	0.398436	0.196637
	C169	C	0.135698	0.615387	0.199843
	C170	C	0.129826	0.397910	0.833388
	C171	C	0.881934	0.617055	0.832546
	C172	C	0.192045	0.879866	0.405689
	C173	C	0.187319	0.128432	0.623917
	C174	C	0.826037	0.129048	0.404231
	C175	C	0.824094	0.880880	0.623574
	C176	C	0.397909	0.185416	0.892742
	C177	C	0.616441	0.186754	0.138185
	C178	C	0.396672	0.824309	0.140087
	C179	C	0.617177	0.822658	0.891304
	C180	C	0.397027	0.881787	0.198007
	C181	C	0.616217	0.129643	0.196229
	C182	C	0.398244	0.127631	0.835095
	C183	C	0.617716	0.880896	0.833987
	C184	C	0.884079	0.187204	0.404006
	C185	C	0.130707	0.187528	0.623189
	C186	C	0.134238	0.821790	0.405580
	C187	C	0.882353	0.823318	0.623884
	C188	C	0.187780	0.398117	0.891068
	C189	C	0.191129	0.616403	0.139739
	C190	C	0.826047	0.398129	0.138660
	C191	C	0.824102	0.616757	0.890819
	C192	C	0.410797	0.096212	0.612995
	C193	C	0.602338	0.914652	0.610320
	C194	C	0.602977	0.094701	0.418877
	C195	C	0.413197	0.915782	0.420771
	C196	C	0.602547	0.409811	0.106725
	C197	C	0.601388	0.601214	0.927589
	C198	C	0.411568	0.601347	0.105492
	C199	C	0.410251	0.408388	0.923946
	C200	C	0.096348	0.600740	0.420194
	C201	C	0.916160	0.602230	0.609909
	C202	C	0.099261	0.409503	0.611292
	C203	C	0.917181	0.410644	0.418245
	C204	C	0.913696	0.597026	0.108569
	C205	C	0.101699	0.417938	0.109622
	C206	C	0.102769	0.598718	0.917634
	C207	C	0.910036	0.416442	0.916869
	C208	C	0.102057	0.910198	0.603992
	C209	C	0.103924	0.101791	0.423170
	C210	C	0.910755	0.103218	0.604378
	C211	C	0.913316	0.911401	0.425253
	C212	C	0.599558	0.101956	0.918698
	C213	C	0.415272	0.101952	0.112148
	C214	C	0.596748	0.911164	0.110070
	C215	C	0.417210	0.910175	0.920169
	Zn216	Zn	0.507968	0.004472	0.765677
	Zn217	Zn	0.507130	0.005609	0.264964
	Zn218	Zn	0.756977	0.507144	0.015946
	Zn219	Zn	0.256677	0.507042	0.014786
	Zn220	Zn	0.007132	0.755894	0.514456
	Zn221	Zn	0.007740	0.256661	0.513545
	Zn222	Zn	0.006380	0.507629	0.764040
	Zn223	Zn	0.007902	0.507363	0.264501
	Zn224	Zn	0.507210	0.756274	0.017055
	Zn225	Zn	0.506744	0.255310	0.015835
	Zn226	Zn	0.756847	0.005677	0.514170
	Zn227	Zn	0.257282	0.005407	0.515071
	N228	N	0.419705	0.970027	0.696648
	N229	N	0.594102	0.040213	0.694550
	N230	N	0.596013	0.970412	0.332324
	N231	N	0.421530	0.041361	0.336304
	N232	N	0.687656	0.419376	0.981081
	N233	N	0.688183	0.594326	0.051594
	N234	N	0.327609	0.593029	0.979737
	N235	N	0.324831	0.417977	0.049262
	N236	N	0.971747	0.687337	0.426515
	N237	N	0.042333	0.686343	0.601055
	N238	N	0.972011	0.327729	0.599721
	N239	N	0.042950	0.325845	0.425970
	N240	N	0.972011	0.420102	0.693879
	N241	N	0.041679	0.594273	0.694450
	N242	N	0.972699	0.595341	0.332671
	N243	N	0.043209	0.420188	0.333934
	N244	N	0.420410	0.686717	0.980629
	N245	N	0.595006	0.687562	0.051959
	N246	N	0.594074	0.325682	0.981000
	N247	N	0.418944	0.325114	0.050024
	N248	N	0.688214	0.969650	0.426491
	N249	N	0.686619	0.040595	0.600643
	N250	N	0.326151	0.970770	0.603473
	N251	N	0.327721	0.041213	0.429092
	N252	N	0.920976	0.472503	0.194554
	N253	N	0.097628	0.541392	0.197718
	N254	N	0.093418	0.472425	0.834121
	N255	N	0.918660	0.542479	0.833256
	N256	N	0.189101	0.917629	0.479598
	N257	N	0.186126	0.091565	0.549620
	N258	N	0.827148	0.092567	0.478584
	N259	N	0.826474	0.918429	0.549606
	N260	N	0.472649	0.184800	0.928787
	N261	N	0.541752	0.185379	0.101883
	N262	N	0.471106	0.826165	0.102695
	N263	N	0.542462	0.824243	0.927970
	N264	N	0.471696	0.918407	0.196283
	N265	N	0.541513	0.093197	0.195425
	N266	N	0.473138	0.091574	0.835834
	N267	N	0.543105	0.917899	0.835553
	N268	N	0.920487	0.186695	0.478410
	N269	N	0.095050	0.186964	0.548363
	N270	N	0.095642	0.824297	0.479145
	N271	N	0.920203	0.825378	0.549852
	N272	N	0.186827	0.472845	0.927190
	N273	N	0.187023	0.543138	0.100847
	N274	N	0.828289	0.472012	0.101032
	N275	N	0.825469	0.542161	0.927130
	O276	O	0.860795	0.935489	-0.115701
	H277	H	0.865385	0.947732	-0.118838
	H278	H	0.848556	0.935638	-0.116991
	O279	O	-0.027198	-0.120877	0.979743
	H280	H	-0.042529	-0.132981	0.967344
	H281	H	-0.016829	-0.118907	0.967624
	O282	O	0.471876	0.728761	0.650635
	H283	H	0.471071	0.747968	0.673693
	H284	H	0.465504	0.697667	0.652318
	O285	O	0.583560	0.418430	0.728050
	H286	H	0.596842	0.425625	0.729135
	H287	H	0.578636	0.424595	0.715938
	O288	O	1.016604	-0.119724	1.060059
	H289	H	1.028902	-0.122339	1.056186
	H290	H	1.008929	-0.107574	1.050818
	O291	O	0.390773	0.484540	0.537567
	H292	H	0.397124	0.474280	0.538633
	H293	H	0.396875	0.478555	0.539783
	O294	O	0.134134	0.032304	-0.087816
	H295	H	0.120958	0.038559	-0.095996
	H296	H	0.136497	0.018810	-0.090821
	O297	O	1.164987	-0.106733	0.090707
	H298	H	1.165321	-0.112499	0.076469
	H299	H	1.167172	-0.087413	0.097598
	O300	O	0.191066	0.120820	0.204224
	H301	H	0.200119	0.126767	0.193845
	H302	H	0.189659	0.084506	0.208132
	O303	O	-0.300105	-0.298996	-0.291840
	H304	H	-0.316062	-0.303765	-0.310079
	H305	H	-0.329018	-0.296872	-0.302149
	O306	O	0.800427	0.059310	0.061183
	H307	H	0.799067	0.043083	0.050229
	H308	H	0.816575	0.057908	0.059791
	O309	O	0.674125	0.291793	0.436189
	H310	H	0.684944	0.273701	0.432558
	H311	H	0.681949	0.285257	0.418304
	O312	O	0.298255	0.671493	0.491687
	H313	H	0.302024	0.678821	0.503500
	H314	H	0.310891	0.685889	0.495065
	O315	O	0.538143	0.495839	0.548958
	H316	H	0.542399	0.495437	0.545587
	H317	H	0.533311	0.489356	0.546031
	O318	O	0.796721	1.041840	-0.198306
	H319	H	0.789899	1.047306	-0.210096
	H320	H	0.793689	1.052915	-0.201006
	O321	O	0.293726	0.297606	0.542936
	H322	H	0.307497	0.291750	0.558366
	H323	H	0.278940	0.278678	0.546700
	O324	O	0.519393	0.330822	1.300434
	H325	H	0.521552	0.342021	1.295130
	H326	H	0.528141	0.323912	1.283256
	O327	O	0.655964	0.664672	0.430572
	H328	H	0.651777	0.663079	0.428551
	H329	H	0.673330	0.662082	0.418365
	O330	O	-0.081797	0.808674	0.216851
	H331	H	-0.072545	0.818580	0.204300
	H332	H	-0.057423	0.782943	0.233629
	O333	O	0.467657	0.566563	0.721118
	H334	H	0.480559	0.552837	0.706154
	H335	H	0.442514	0.545825	0.724073
	O336	O	0.301412	0.477411	0.712632
	H337	H	0.300333	0.449068	0.719382
	H338	H	0.283357	0.462708	0.724259
	O339	O	0.325962	0.689865	0.324563
	H340	H	0.314671	0.688974	0.363348
	H341	H	0.319064	0.653839	0.328488
	O342	O	0.212165	0.993766	0.058474
	H343	H	0.203180	1.016562	0.070628
	H344	H	0.200406	1.003114	0.053947
	O345	O	0.438047	0.490475	0.620722
	H346	H	0.441426	0.475743	0.615576
	H347	H	0.446407	0.494995	0.631463
	O348	O	0.710992	0.301874	0.311753
	H349	H	0.712461	0.305471	0.315627
	H350	H	0.721328	0.279126	0.291957
	O351	O	0.201273	0.195564	0.824688
	H352	H	0.188281	0.180317	0.852649
	H353	H	0.178539	0.170376	0.831804
	O354	O	1.064447	0.190828	0.958181
	H355	H	1.063666	0.191122	0.955861
	H356	H	1.063746	0.197103	0.945106
	O357	O	0.489355	0.715919	0.537213
	H358	H	0.501331	0.713142	0.522628
	H359	H	0.501596	0.726823	0.537237
	O360	O	0.535010	0.294347	0.542380
	H361	H	0.538143	0.293430	0.534358
	H362	H	0.529831	0.290849	0.535118
	O363	O	0.974644	0.229510	-0.211710
	H364	H	0.944647	0.233099	-0.222785
	H365	H	0.951640	0.248142	-0.227690
	O366	O	0.935041	0.003614	0.989109
	H367	H	0.933276	0.007976	0.972206
	H368	H	0.953179	0.013477	0.987498
	O369	O	-0.113488	-0.198051	0.895157
	H370	H	-0.122263	-0.198698	0.913188
	H371	H	-0.112991	-0.208718	0.870489
	O372	O	0.046047	1.078158	0.797790
	H373	H	0.036037	1.101579	0.784460
	H374	H	0.039427	1.065035	0.795169
	O375	O	1.030770	0.052719	0.101084
	H376	H	1.016904	0.041657	0.115643
	H377	H	1.028034	0.052348	0.096057
	O378	O	0.684030	0.436779	0.341615
	H379	H	0.695034	0.426745	0.330339
	H380	H	0.680018	0.433011	0.336987
	O381	O	0.216593	1.218652	0.039093
	H382	H	0.235135	1.223324	0.039101
	H383	H	0.212262	1.225656	0.042916
	O384	O	0.505700	0.448825	0.301016
	H385	H	0.524975	0.468442	0.300541
	H386	H	0.496348	0.453300	0.301970
	O387	O	0.029090	0.798107	0.806433
	H388	H	0.036816	0.792866	0.807918
	H389	H	0.030498	0.794223	0.792354
	O390	O	0.216739	1.096136	1.226223
	H391	H	0.217651	1.075349	1.224475
	H392	H	0.225947	1.099573	1.242098
	O393	O	0.964032	0.061835	0.221230
	H394	H	0.966123	0.074760	0.231234
	H395	H	0.951267	0.054316	0.226605
	O396	O	0.301545	0.302489	0.721012
	H397	H	0.270456	0.267586	0.752528
	H398	H	0.325487	0.302221	0.708004
	O399	O	0.470341	0.512294	0.451093
	H400	H	0.477084	0.513067	0.453106
	H401	H	0.461439	0.506926	0.456482
	O402	O	0.802379	0.207259	0.814115
	H403	H	0.779615	0.219579	0.805850
	H404	H	0.796662	0.204684	0.856131
	O405	O	0.807525	0.811312	0.139348
	H406	H	0.813724	0.792978	0.144286
	H407	H	0.815616	0.804701	0.135689
	O408	O	0.798397	1.195116	0.979499
	H409	H	0.800968	1.194769	0.989109
	H410	H	0.804685	1.202169	1.004188
	O411	O	1.094614	0.855301	0.150610
	H412	H	1.078516	0.870931	0.146584
	H413	H	1.100896	0.852679	0.146723
	O414	O	0.038029	0.228694	0.235663
	H415	H	0.052876	0.249525	0.263221
	H416	H	0.070496	0.223573	0.238657
	O417	O	0.537898	0.608411	0.562015
	H418	H	0.534525	0.600141	0.558212
	H419	H	0.526850	0.604563	0.570806
	O420	O	0.725043	-0.462853	0.739452
	H421	H	0.750916	-0.457623	0.760195
	H422	H	0.723342	-0.435325	0.735040
	O423	O	1.131054	1.016810	-0.117128
	H424	H	1.126523	1.016118	-0.124518
	H425	H	1.132466	0.987200	-0.129213
	O426	O	0.055325	0.860878	0.161922
	H427	H	0.043518	0.854657	0.183814
	H428	H	0.063276	0.870199	0.137879
	O429	O	0.477413	0.290105	0.715058
	H430	H	0.475064	0.303965	0.713517
	H431	H	0.480827	0.270819	0.741515
	O432	O	0.670684	0.307439	0.647178
	H433	H	0.659213	0.326324	0.640100
	H434	H	0.657615	0.315059	0.631994
	O435	O	0.363430	0.644733	0.674580
	H436	H	0.371828	0.640417	0.656404
	H437	H	0.375309	0.634576	0.663639
	O438	O	0.384355	0.304279	0.382891
	H439	H	0.388744	0.322389	0.380418
	H440	H	0.398735	0.302104	0.387080
	O441	O	0.715438	0.716011	0.519018
	H442	H	0.714792	0.719633	0.524397
	H443	H	0.723124	0.715671	0.505069
	O444	O	0.485087	0.730043	0.293538
	H445	H	0.464825	0.752331	0.273472
	H446	H	0.451795	0.729950	0.290485
	O447	O	0.707553	0.537816	0.504618
	H448	H	0.700532	0.538914	0.488832
	H449	H	0.716041	0.545119	0.514946
	O450	O	0.969662	0.227590	0.066810
	H451	H	0.986968	0.217010	0.077349
	H452	H	0.989848	0.236754	0.070385
	O453	O	0.303114	0.526873	0.305208
	H454	H	0.301868	0.515460	0.318321
	H455	H	0.294188	0.517245	0.293944
	O456	O	0.206644	0.806591	0.813951
	H457	H	0.207631	0.783963	0.804763
	H458	H	0.210070	0.795290	0.849622
	O459	O	0.817723	0.190770	0.198438
	H460	H	0.820064	0.157173	0.183218
	H461	H	0.850593	0.190102	0.177806
	O462	O	0.571964	0.599210	0.315501
	H463	H	0.571637	0.613512	0.310397
	H464	H	0.581574	0.611743	0.310936
	O465	O	0.326594	0.508401	0.487703
	H466	H	0.328022	0.502059	0.501528
	H467	H	0.330855	0.505396	0.504731
	O468	O	-0.121723	0.864561	-0.073058
	H469	H	-0.124833	0.839512	-0.077016
	H470	H	-0.126767	0.868918	-0.089289
	O471	O	0.685273	0.475282	0.560093
	H472	H	0.682076	0.466910	0.558188
	H473	H	0.689719	0.480836	0.571805
	O474	O	0.803639	0.990337	0.229712
	H475	H	0.796339	0.998179	0.232915
	H476	H	0.795173	0.966497	0.234686
	O477	O	0.213071	-0.143274	0.906216
	H478	H	0.226639	-0.176657	0.911150
	H479	H	0.222558	-0.132286	0.906027
