data_Molecule from HDF5

_cell_length_a		16.461588
_cell_length_b		16.253599
_cell_length_c		16.329998
_cell_angle_alpha	90.382453
_cell_angle_beta	90.017613
_cell_angle_gamma	90.071005
_symmetry_space_group_name_H-M	'P 1'
_symmetry_Int_Tables_number		1

loop_
	_symmetry_equiv_pos_as_xyz
	x,y,z

loop_
	_atom_site_label
	_atom_site_type_symbol
	_atom_site_fract_x
	_atom_site_fract_y
	_atom_site_fract_z
	H0	H	0.380755	0.834226	0.710123
	H1	H	0.587091	0.157226	0.714678
	H2	H	0.585711	0.835081	0.274220
	H3	H	0.381846	0.158530	0.277910
	H4	H	0.705082	0.384991	0.835931
	H5	H	0.705298	0.603723	0.153104
	H6	H	0.264456	0.596958	0.833224
	H7	H	0.261725	0.392441	0.154096
	H8	H	0.822329	0.715012	0.390345
	H9	H	0.142760	0.715154	0.596087
	H10	H	0.823638	0.275471	0.595349
	H11	H	0.142135	0.273867	0.387095
	H12	H	0.823253	0.390073	0.713817
	H13	H	0.142585	0.598821	0.712891
	H14	H	0.823422	0.598651	0.273208
	H15	H	0.141655	0.390119	0.270717
	H16	H	0.379067	0.713248	0.833408
	H17	H	0.585430	0.716352	0.154578
	H18	H	0.583844	0.275343	0.833332
	H19	H	0.379075	0.278688	0.155580
	H20	H	0.703463	0.836698	0.387513
	H21	H	0.703666	0.157171	0.600057
	H22	H	0.260520	0.836971	0.599660
	H23	H	0.263811	0.157651	0.390224
	H24	H	0.878851	0.334122	0.211642
	H25	H	0.086158	0.657546	0.214035
	H26	H	0.085071	0.334390	0.773210
	H27	H	0.878680	0.657057	0.775731
	H28	H	0.203482	0.890457	0.333733
	H29	H	0.203984	0.103833	0.653862
	H30	H	0.761490	0.102369	0.334556
	H31	H	0.761457	0.891319	0.652892
	H32	H	0.321964	0.213924	0.891206
	H33	H	0.641204	0.218112	0.099431
	H34	H	0.321091	0.780839	0.092673
	H35	H	0.641604	0.773096	0.887953
	H36	H	0.323338	0.891270	0.214058
	H37	H	0.641680	0.101598	0.215540
	H38	H	0.323589	0.099526	0.773175
	H39	H	0.641462	0.888203	0.770101
	H40	H	0.881931	0.212579	0.332058
	H41	H	0.086303	0.217168	0.654243
	H42	H	0.082975	0.778763	0.331824
	H43	H	0.881214	0.781084	0.655586
	H44	H	0.199869	0.333852	0.889750
	H45	H	0.201094	0.658133	0.097545
	H46	H	0.759975	0.336419	0.099698
	H47	H	0.758929	0.654525	0.885955
	H48	H	0.393005	0.109113	0.575756
	H49	H	0.570096	0.882454	0.582866
	H50	H	0.571341	0.109591	0.409796
	H51	H	0.394183	0.882357	0.404729
	H52	H	0.570309	0.401920	0.109501
	H53	H	0.570160	0.574772	0.883116
	H54	H	0.391400	0.593819	0.110937
	H55	H	0.387572	0.408005	0.879152
	H56	H	0.092060	0.581524	0.410388
	H57	H	0.868150	0.586804	0.587853
	H58	H	0.095887	0.411644	0.588540
	H59	H	0.870162	0.404210	0.402858
	H60	H	0.097616	0.401175	0.581996
	H61	H	0.867079	0.591463	0.585524
	H62	H	0.097455	0.582898	0.393975
	H63	H	0.870933	0.406338	0.402967
	H64	H	0.384715	0.585522	0.110762
	H65	H	0.564947	0.585663	0.881675
	H66	H	0.577611	0.411475	0.108448
	H67	H	0.394033	0.405947	0.880514
	H68	H	0.577861	0.113185	0.405597
	H69	H	0.572966	0.882121	0.578191
	H70	H	0.387433	0.114550	0.587988
	H71	H	0.392118	0.881548	0.405007
	H72	H	0.895555	0.610064	0.085110
	H73	H	0.071860	0.380073	0.085950
	H74	H	0.072913	0.609813	0.907161
	H75	H	0.892934	0.384526	0.914645
	H76	H	0.074389	0.909557	0.608663
	H77	H	0.077156	0.082645	0.378671
	H78	H	0.888990	0.083454	0.608799
	H79	H	0.896903	0.917467	0.383873
	H80	H	0.594933	0.084256	0.905675
	H81	H	0.370784	0.078662	0.086754
	H82	H	0.594046	0.911172	0.081891
	H83	H	0.367738	0.897319	0.902772
	H84	H	0.597711	0.907002	0.088148
	H85	H	0.365886	0.090525	0.090934
	H86	H	0.594907	0.084435	0.905248
	H87	H	0.372571	0.909547	0.907642
	H88	H	0.897358	0.082773	0.605739
	H89	H	0.072082	0.081941	0.381476
	H90	H	0.072535	0.906512	0.608253
	H91	H	0.899295	0.895596	0.378493
	H92	H	0.077246	0.611464	0.904189
	H93	H	0.069880	0.383495	0.078806
	H94	H	0.896228	0.608116	0.079232
	H95	H	0.886070	0.377227	0.899509
	H96	H	0.401076	0.110040	0.587431
	H97	H	0.575015	0.880698	0.582686
	H98	H	0.570285	0.112075	0.401373
	H99	H	0.393107	0.880768	0.403157
	H100	H	0.566526	0.412424	0.104756
	H101	H	0.576286	0.583954	0.878235
	H102	H	0.394955	0.583593	0.106865
	H103	H	0.389587	0.401297	0.878189
	H104	H	0.098317	0.595673	0.404910
	H105	H	0.869384	0.587249	0.583306
	H106	H	0.092494	0.410763	0.576846
	H107	H	0.869278	0.406054	0.401470
	H108	H	0.890682	0.610248	0.081283
	H109	H	0.076690	0.380968	0.080100
	H110	H	0.072504	0.611624	0.901438
	H111	H	0.903331	0.383148	0.900113
	H112	H	0.076011	0.906851	0.609728
	H113	H	0.072950	0.087031	0.378701
	H114	H	0.894147	0.090531	0.609352
	H115	H	0.880003	0.905984	0.374909
	H116	H	0.594652	0.084919	0.905543
	H117	H	0.370213	0.088987	0.078595
	H118	H	0.596268	0.903172	0.080925
	H119	H	0.368140	0.908351	0.894415
	C120	C	0.361856	0.004842	0.614852
	C121	C	0.604534	0.987961	0.614685
	C122	C	0.604300	0.005273	0.373036
	C123	C	0.362508	0.988362	0.373532
	C124	C	0.603261	0.374698	0.002266
	C125	C	0.603072	0.615996	0.986030
	C126	C	0.360122	0.617375	0.003010
	C127	C	0.359895	0.374347	0.985562
	C128	C	-0.009630	0.617595	0.372151
	C129	C	0.973875	0.619111	0.616437
	C130	C	-0.009548	0.375058	0.614095
	C131	C	0.974701	0.373028	0.369774
	C132	C	0.861955	0.503757	0.113897
	C133	C	0.104066	0.488000	0.114545
	C134	C	0.104343	0.504282	0.871821
	C135	C	0.861419	0.487181	0.872849
	C136	C	0.104992	0.875442	0.502541
	C137	C	0.105076	0.117724	0.485168
	C138	C	0.862147	0.116840	0.501933
	C139	C	0.860715	0.875207	0.484655
	C140	C	0.490549	0.116591	0.873451
	C141	C	0.473854	0.118560	0.117327
	C142	C	0.490439	0.875452	0.114839
	C143	C	0.474435	0.872452	0.869814
	C144	C	0.361234	0.883264	0.672152
	C145	C	0.606326	0.108856	0.675331
	C146	C	0.604899	0.883676	0.313546
	C147	C	0.362333	0.109966	0.315828
	C148	C	0.663674	0.369045	0.882909
	C149	C	0.664495	0.620687	0.105509
	C150	C	0.302836	0.616750	0.881576
	C151	C	0.301146	0.373799	0.106276
	C152	C	0.870366	0.676082	0.371302
	C153	C	0.094537	0.676433	0.615696
	C154	C	0.871147	0.315228	0.614561
	C155	C	0.094323	0.313515	0.368291
	C156	C	0.871014	0.372659	0.673494
	C157	C	0.094427	0.618538	0.674117
	C158	C	0.870804	0.618049	0.312889
	C159	C	0.094049	0.371388	0.310206
	C160	C	0.360290	0.674259	0.881456
	C161	C	0.604877	0.676834	0.106297
	C162	C	0.603494	0.313985	0.882010
	C163	C	0.359630	0.317202	0.107063
	C164	C	0.663345	0.884455	0.369962
	C165	C	0.663974	0.108845	0.617850
	C166	C	0.301441	0.884597	0.616835
	C167	C	0.303450	0.109360	0.371900
	C168	C	0.860406	0.382695	0.172687
	C169	C	0.105264	0.609237	0.174368
	C170	C	0.104612	0.382994	0.812225
	C171	C	0.859724	0.608448	0.814300
	C172	C	0.163650	0.872753	0.381575
	C173	C	0.164090	0.121222	0.605796
	C174	C	0.801988	0.119652	0.382039
	C175	C	0.801351	0.873410	0.605177
	C176	C	0.370108	0.174884	0.872137
	C177	C	0.593489	0.178440	0.118369
	C178	C	0.369817	0.818160	0.113712
	C179	C	0.593737	0.812445	0.868564
	C180	C	0.370853	0.873648	0.173822
	C181	C	0.593729	0.120330	0.176242
	C182	C	0.370954	0.117884	0.813201
	C183	C	0.593878	0.870340	0.810201
	C184	C	0.862123	0.174265	0.380480
	C185	C	0.105708	0.177890	0.605914
	C186	C	0.103631	0.817077	0.380713
	C187	C	0.861076	0.818253	0.606420
	C188	C	0.161901	0.382799	0.870429
	C189	C	0.162364	0.609503	0.116354
	C190	C	0.801000	0.383770	0.117128
	C191	C	0.799913	0.606954	0.869432
	C192	C	0.386555	0.089444	0.590774
	C193	C	0.579818	0.903515	0.588826
	C194	C	0.580165	0.089664	0.398157
	C195	C	0.386248	0.903686	0.397448
	C196	C	0.578548	0.401168	0.085964
	C197	C	0.577695	0.589239	0.902625
	C198	C	0.383620	0.594384	0.087493
	C199	C	0.383523	0.398105	0.901280
	C200	C	0.074041	0.593505	0.396171
	C201	C	0.889976	0.595367	0.592590
	C202	C	0.073847	0.400743	0.589490
	C203	C	0.891711	0.398163	0.395066
	C204	C	0.887017	0.587777	0.089072
	C205	C	0.079664	0.403426	0.089105
	C206	C	0.080807	0.588938	0.897051
	C207	C	0.886666	0.403460	0.897658
	C208	C	0.081443	0.900463	0.586828
	C209	C	0.080880	0.091598	0.401347
	C210	C	0.886470	0.092643	0.585892
	C211	C	0.884887	0.899371	0.400959
	C212	C	0.573205	0.091794	0.898382
	C213	C	0.390590	0.093400	0.092692
	C214	C	0.574201	0.900043	0.090612
	C215	C	0.391137	0.897628	0.894545
	Zn216	Zn	0.483209	-0.003823	0.742657
	Zn217	Zn	0.482704	-0.004111	0.245004
	Zn218	Zn	0.732648	0.495101	-0.006250
	Zn219	Zn	0.232133	0.496029	-0.005891
	Zn220	Zn	-0.017728	0.747605	0.493647
	Zn221	Zn	-0.016666	0.245064	0.492884
	Zn222	Zn	-0.018131	0.496064	0.744393
	Zn223	Zn	-0.017233	0.495926	0.242117
	Zn224	Zn	0.482096	0.745478	-0.005970
	Zn225	Zn	0.481249	0.246682	-0.005196
	Zn226	Zn	0.732918	-0.003139	0.493979
	Zn227	Zn	0.233684	-0.003205	0.493790
	N228	N	0.398243	0.959088	0.670817
	N229	N	0.570142	0.032610	0.673446
	N230	N	0.569091	0.960054	0.315139
	N231	N	0.398443	0.033789	0.316884
	N232	N	0.663607	0.406021	0.958722
	N233	N	0.663616	0.583693	0.029525
	N234	N	0.302550	0.582220	0.958042
	N235	N	0.301071	0.408463	0.029639
	N236	N	0.945833	0.675868	0.407479
	N237	N	0.018520	0.676991	0.580875
	N238	N	0.946400	0.316821	0.578323
	N239	N	0.019125	0.314441	0.404752
	N240	N	0.946387	0.409223	0.673160
	N241	N	0.018175	0.583987	0.674970
	N242	N	0.946389	0.582446	0.313372
	N243	N	0.018795	0.407767	0.311263
	N244	N	0.395334	0.674824	0.957873
	N245	N	0.567503	0.674118	0.031054
	N246	N	0.566454	0.317540	0.957393
	N247	N	0.395526	0.317577	0.031171
	N248	N	0.663144	0.960919	0.406190
	N249	N	0.662848	0.032491	0.580936
	N250	N	0.301746	0.961420	0.582120
	N251	N	0.303357	0.032593	0.406789
	N252	N	0.897776	0.458435	0.170620
	N253	N	0.069903	0.532600	0.173352
	N254	N	0.069458	0.459656	0.812959
	N255	N	0.897290	0.533135	0.816215
	N256	N	0.164710	0.908197	0.458489
	N257	N	0.163797	0.084544	0.529744
	N258	N	0.801777	0.084679	0.458552
	N259	N	0.800950	0.908026	0.528717
	N260	N	0.445096	0.174157	0.908898
	N261	N	0.517940	0.177501	0.082575
	N262	N	0.445231	0.819223	0.077663
	N263	N	0.518356	0.813443	0.904642
	N264	N	0.447225	0.908383	0.174755
	N265	N	0.518332	0.083846	0.175698
	N266	N	0.446645	0.082264	0.813723
	N267	N	0.518551	0.906718	0.810757
	N268	N	0.898618	0.172853	0.456166
	N269	N	0.069936	0.176011	0.529707
	N270	N	0.068128	0.818393	0.456860
	N271	N	0.897230	0.818998	0.530525
	N272	N	0.161840	0.459350	0.906691
	N273	N	0.161776	0.532916	0.080145
	N274	N	0.802030	0.459847	0.081071
	N275	N	0.800688	0.530476	0.905026
	O276	O	1.118401	0.094042	0.016731
	H277	H	1.125287	0.108167	0.025153
	H278	H	1.111628	0.089205	0.002276
	O279	O	0.562460	0.663330	0.576193
	H280	H	0.561865	0.658051	0.554793
	H281	H	0.577687	0.668926	0.560795
	O282	O	0.416359	0.504566	0.554254
	H283	H	0.414255	0.502961	0.545868
	H284	H	0.436552	0.515156	0.552842
	O285	O	1.164624	-0.132842	-0.017635
	H286	H	1.168496	-0.139555	-0.024702
	H287	H	1.164033	-0.124337	-0.020756
	O288	O	0.019173	0.137354	0.998902
	H289	H	-0.007690	0.136377	0.990048
	H290	H	0.008591	0.138226	1.000559
	O291	O	0.579730	0.343613	0.483274
	H292	H	0.578553	0.337990	0.490990
	H293	H	0.583640	0.338926	0.474811
	O294	O	0.361839	0.405091	0.405425
	H295	H	0.363693	0.413003	0.424445
	H296	H	0.363910	0.394207	0.418313
	O297	O	0.864152	1.052089	1.064099
	H298	H	0.857400	1.051044	1.073621
	H299	H	0.859807	1.048194	1.063872
	O300	O	0.093113	-0.150328	-0.185714
	H301	H	0.115526	-0.158768	-0.209109
	H302	H	0.109423	-0.157385	-0.185970
	O303	O	0.404793	0.542992	0.505631
	H304	H	0.401313	0.543110	0.517422
	H305	H	0.418318	0.541277	0.497962
	O306	O	0.853634	-0.055154	-0.044509
	H307	H	0.863525	-0.053391	-0.038110
	H308	H	0.852885	-0.073346	-0.046537
	O309	O	0.827842	1.179936	1.009455
	H310	H	0.829546	1.183615	1.001975
	H311	H	0.834345	1.169924	0.991215
	O312	O	0.812818	1.007712	-0.114541
	H313	H	0.815496	0.988760	-0.111186
	H314	H	0.791180	1.004174	-0.127162
	O315	O	1.074456	-0.033045	0.098423
	H316	H	1.067437	-0.017349	0.104980
	H317	H	1.071835	-0.028521	0.107175
	O318	O	0.693803	0.508671	0.611531
	H319	H	0.717480	0.508656	0.622383
	H320	H	0.688622	0.518066	0.596033
	O321	O	1.065569	0.051178	1.005684
	H322	H	1.065524	0.064461	1.005485
	H323	H	1.048337	0.046400	1.011201
	O324	O	0.121393	-0.143971	0.911306
	H325	H	0.142792	-0.142680	0.905290
	H326	H	0.120007	-0.151627	0.923270
	O327	O	0.628220	0.517378	0.441560
	H328	H	0.638263	0.491012	0.444303
	H329	H	0.602841	0.525254	0.423445
	O330	O	1.086551	-0.087260	1.027451
	H331	H	1.093644	-0.085061	1.032077
	H332	H	1.093430	-0.082943	1.014490
	O333	O	1.322226	1.621590	0.330546
	H334	H	1.330469	1.595019	0.316297
	H335	H	1.314199	1.611165	0.340349
	O336	O	0.590286	0.631320	0.446525
	H337	H	0.588849	0.605646	0.457107
	H338	H	0.594685	0.641176	0.433163
	O339	O	0.781913	-0.061427	0.895132
	H340	H	0.783303	-0.058820	0.911902
	H341	H	0.774975	-0.065772	0.905813
	O342	O	0.153209	0.998235	1.124168
	H343	H	0.147568	1.016539	1.116793
	H344	H	0.165072	0.995433	1.134519
	O345	O	0.283723	0.428961	1.555278
	H346	H	0.286814	0.426746	1.564262
	H347	H	0.261837	0.430704	1.550958
	O348	O	0.359360	0.668946	0.484936
	H349	H	0.352883	0.681344	0.473414
	H350	H	0.363783	0.669602	0.485846
	O351	O	0.053249	0.030245	-0.169668
	H352	H	0.032371	0.027764	-0.164336
	H353	H	0.052761	0.026779	-0.167443
	O354	O	0.954836	0.922336	0.098793
	H355	H	0.955750	0.923629	0.105554
	H356	H	0.949107	0.935403	0.093531
	O357	O	-0.015746	1.190785	-0.103998
	H358	H	-0.015517	1.184485	-0.107342
	H359	H	-0.009067	1.194374	-0.106701
	O360	O	0.602330	0.395295	0.336876
	H361	H	0.614741	0.378683	0.332258
	H362	H	0.596298	0.391834	0.350405
	O363	O	0.582317	0.458286	0.523010
	H364	H	0.586431	0.461461	0.532106
	H365	H	0.567780	0.463726	0.523080
	O366	O	-0.223260	0.950729	0.199641
	H367	H	-0.217746	0.929913	0.196950
	H368	H	-0.241166	0.943211	0.227164
	O369	O	0.341044	0.332914	0.659683
	H370	H	0.354000	0.346434	0.674862
	H371	H	0.357749	0.348076	0.663955
	O372	O	0.342943	0.440277	0.338531
	H373	H	0.334411	0.421458	0.324066
	H374	H	0.332137	0.419354	0.364747
	O375	O	0.627598	0.666641	0.591156
	H376	H	0.624015	0.672417	0.555500
	H377	H	0.623831	0.678353	0.602971
	O378	O	0.447320	0.319744	0.493436
	H379	H	0.447902	0.319245	0.507679
	H380	H	0.440857	0.317412	0.506089
	O381	O	0.375555	0.610714	0.322410
	H382	H	0.355732	0.592359	0.324527
	H383	H	0.375211	0.609859	0.306879
	O384	O	0.084539	1.012114	0.867474
	H385	H	0.062074	1.022099	0.860300
	H386	H	0.091518	1.008501	0.861875
	O387	O	0.833799	1.178800	-0.070026
	H388	H	0.847780	1.175222	-0.076441
	H389	H	0.825270	1.161422	-0.067926
	O390	O	0.491545	0.697336	0.636540
	H391	H	0.487322	0.710466	0.635366
	H392	H	0.491141	0.700413	0.635955
	O393	O	0.902066	-0.126905	0.942473
	H394	H	0.903732	-0.123215	0.939498
	H395	H	0.886830	-0.139744	0.945544
	O396	O	0.085970	1.130133	1.085559
	H397	H	0.091442	1.136624	1.070901
	H398	H	0.070862	1.117373	1.084048
	O399	O	0.533256	0.396675	1.554991
	H400	H	0.541961	0.412212	1.571294
	H401	H	0.519245	0.402478	1.560301
	O402	O	0.871443	-0.176330	1.095447
	H403	H	0.877544	-0.182524	1.112612
	H404	H	0.881788	-0.174335	1.079892
	O405	O	-0.420239	0.332499	-0.583399
	H406	H	-0.407877	0.333233	-0.588109
	H407	H	-0.445211	0.330354	-0.586599
	O408	O	1.009198	1.178445	1.146088
	H409	H	1.016788	1.183586	1.141128
	H410	H	1.002502	1.195095	1.163943
	O411	O	1.563954	1.477928	-0.570872
	H412	H	1.557504	1.475570	-0.562111
	H413	H	1.574997	1.470175	-0.568008
	O414	O	0.407605	-0.496480	1.406895
	H415	H	0.412981	-0.482772	1.417817
	H416	H	0.397097	-0.502407	1.393676
	O417	O	0.404042	0.641427	0.575914
	H418	H	0.406481	0.635367	0.572609
	H419	H	0.405472	0.653971	0.571501
	O420	O	-0.016653	0.881496	-0.202018
	H421	H	-0.006283	0.860264	-0.200349
	H422	H	-0.022410	0.882561	-0.209338
	O423	O	0.921842	-0.145134	0.158599
	H424	H	0.947891	-0.139359	0.151541
	H425	H	0.921397	-0.151520	0.163811
	O426	O	0.445807	0.581073	1.684782
	H427	H	0.440890	0.583906	1.682688
	H428	H	0.446666	0.581412	1.672429
	O429	O	0.554687	0.426130	0.509693
	H430	H	0.556612	0.435788	0.508778
	H431	H	0.551481	0.435331	0.525776
