data_Molecule from HDF5

_cell_length_a		16.241700
_cell_length_b		16.214814
_cell_length_c		16.327370
_cell_angle_alpha	90.009595
_cell_angle_beta	90.128354
_cell_angle_gamma	89.954295
_symmetry_space_group_name_H-M	'P 1'
_symmetry_Int_Tables_number		1

loop_
	_symmetry_equiv_pos_as_xyz
	x,y,z

loop_
	_atom_site_label
	_atom_site_type_symbol
	_atom_site_fract_x
	_atom_site_fract_y
	_atom_site_fract_z
	H0	H	0.402054	0.838107	0.714976
	H1	H	0.597522	0.166953	0.715118
	H2	H	0.597954	0.838491	0.287142
	H3	H	0.399551	0.166238	0.285833
	H4	H	0.714668	0.404739	0.837559
	H5	H	0.715897	0.602034	0.164420
	H6	H	0.284524	0.602266	0.837643
	H7	H	0.286618	0.404226	0.164515
	H8	H	0.835501	0.714726	0.404271
	H9	H	0.164519	0.716582	0.599270
	H10	H	0.836754	0.289126	0.598704
	H11	H	0.165515	0.290219	0.404955
	H12	H	0.836394	0.404423	0.715348
	H13	H	0.164189	0.602120	0.716852
	H14	H	0.836574	0.602177	0.286190
	H15	H	0.164379	0.402647	0.286837
	H16	H	0.401426	0.718129	0.837597
	H17	H	0.598877	0.716897	0.164857
	H18	H	0.598941	0.288020	0.837599
	H19	H	0.403643	0.288469	0.164641
	H20	H	0.713235	0.837376	0.403625
	H21	H	0.713824	0.167302	0.600024
	H22	H	0.286731	0.837847	0.599831
	H23	H	0.287330	0.168109	0.404589
	H24	H	0.902025	0.338894	0.215688
	H25	H	0.099125	0.666943	0.216776
	H26	H	0.099509	0.339213	0.786418
	H27	H	0.900719	0.666222	0.786056
	H28	H	0.215325	0.904077	0.338266
	H29	H	0.214801	0.100715	0.665336
	H30	H	0.785476	0.100816	0.338015
	H31	H	0.787225	0.905632	0.664985
	H32	H	0.336448	0.215771	0.903938
	H33	H	0.665984	0.215136	0.098245
	H34	H	0.335801	0.788914	0.098254
	H35	H	0.665614	0.790530	0.905671
	H36	H	0.336501	0.903303	0.215847
	H37	H	0.664093	0.102373	0.218170
	H38	H	0.336637	0.101926	0.786651
	H39	H	0.664678	0.902429	0.786557
	H40	H	0.901562	0.217031	0.337660
	H41	H	0.098347	0.216415	0.665190
	H42	H	0.098757	0.787922	0.337804
	H43	H	0.902016	0.788384	0.665220
	H44	H	0.213469	0.337957	0.903404
	H45	H	0.213979	0.667619	0.099521
	H46	H	0.788463	0.337886	0.097881
	H47	H	0.787497	0.667365	0.903573
	H48	H	0.403395	0.119083	0.591171
	H49	H	0.586601	0.886328	0.599591
	H50	H	0.594786	0.118886	0.413051
	H51	H	0.407535	0.884843	0.404634
	H52	H	0.591329	0.404842	0.118012
	H53	H	0.590248	0.605247	0.882779
	H54	H	0.411744	0.594156	0.114649
	H55	H	0.404019	0.420780	0.886623
	H56	H	0.115926	0.589575	0.408851
	H57	H	0.880221	0.598579	0.602511
	H58	H	0.120220	0.411175	0.606423
	H59	H	0.884953	0.410789	0.410631
	H60	H	0.119157	0.399916	0.590706
	H61	H	0.883774	0.600854	0.588246
	H62	H	0.119278	0.596688	0.404722
	H63	H	0.883560	0.412891	0.405821
	H64	H	0.406862	0.599721	0.117861
	H65	H	0.604218	0.594187	0.882759
	H66	H	0.599944	0.408611	0.119657
	H67	H	0.417761	0.405093	0.886925
	H68	H	0.593812	0.121472	0.405937
	H69	H	0.593893	0.887189	0.587382
	H70	H	0.405648	0.122119	0.600771
	H71	H	0.410872	0.887437	0.409948
	H72	H	0.910686	0.617002	0.087845
	H73	H	0.087743	0.386716	0.098515
	H74	H	0.099082	0.622910	0.905132
	H75	H	0.901286	0.384484	0.910252
	H76	H	0.090972	0.915012	0.615657
	H77	H	0.099748	0.090758	0.385154
	H78	H	0.905489	0.094463	0.617251
	H79	H	0.899870	0.908335	0.383211
	H80	H	0.622660	0.097546	0.893799
	H81	H	0.383868	0.091424	0.100339
	H82	H	0.619535	0.901833	0.096541
	H83	H	0.388514	0.914936	0.919034
	H84	H	0.614346	0.912415	0.087810
	H85	H	0.381860	0.102724	0.093789
	H86	H	0.618193	0.106085	0.917323
	H87	H	0.382687	0.917790	0.896160
	H88	H	0.909074	0.096556	0.616727
	H89	H	0.085978	0.094890	0.388255
	H90	H	0.089823	0.904053	0.617652
	H91	H	0.908130	0.915354	0.387811
	H92	H	0.085957	0.619080	0.905104
	H93	H	0.094238	0.387468	0.087983
	H94	H	0.899953	0.622797	0.095312
	H95	H	0.908694	0.383591	0.901540
	H96	H	0.413156	0.118424	0.594100
	H97	H	0.600439	0.881769	0.598911
	H98	H	0.588537	0.118290	0.409930
	H99	H	0.404854	0.885678	0.410202
	H100	H	0.592969	0.414054	0.115273
	H101	H	0.588348	0.588931	0.888916
	H102	H	0.404713	0.591740	0.116965
	H103	H	0.397749	0.402283	0.880713
	H104	H	0.116389	0.598206	0.413148
	H105	H	0.885074	0.587091	0.594039
	H106	H	0.113676	0.418352	0.589411
	H107	H	0.882800	0.407884	0.406524
	H108	H	0.912573	0.620643	0.101195
	H109	H	0.099475	0.383354	0.098799
	H110	H	0.093386	0.617743	0.916379
	H111	H	0.912922	0.387999	0.911755
	H112	H	0.099911	0.909160	0.619276
	H113	H	0.095703	0.104132	0.382108
	H114	H	0.905678	0.099430	0.619280
	H115	H	0.911051	0.904376	0.384670
	H116	H	0.613056	0.082112	0.911306
	H117	H	0.387316	0.091924	0.087222
	H118	H	0.617292	0.915454	0.101609
	H119	H	0.379427	0.896628	0.906385
	C120	C	0.379072	0.010710	0.623106
	C121	C	0.621662	0.994144	0.623638
	C122	C	0.620800	0.010926	0.381014
	C123	C	0.378716	0.994349	0.380064
	C124	C	0.622872	0.380907	0.009523
	C125	C	0.622720	0.624558	0.992921
	C126	C	0.378776	0.624454	0.008755
	C127	C	0.378880	0.380820	0.992779
	C128	C	0.008579	0.623794	0.380149
	C129	C	0.991797	0.624115	0.623417
	C130	C	0.009363	0.381456	0.623522
	C131	C	0.992410	0.381555	0.379563
	C132	C	0.879009	0.511703	0.122980
	C133	C	0.122054	0.494573	0.123308
	C134	C	0.121553	0.511313	0.880310
	C135	C	0.879159	0.494060	0.879892
	C136	C	0.122244	0.880906	0.509525
	C137	C	0.122299	0.124614	0.493134
	C138	C	0.878116	0.124868	0.509664
	C139	C	0.878362	0.880753	0.493197
	C140	C	0.509307	0.123949	0.879283
	C141	C	0.492522	0.124107	0.122726
	C142	C	0.508716	0.880984	0.123239
	C143	C	0.492434	0.881425	0.879654
	C144	C	0.381561	0.887212	0.677568
	C145	C	0.618831	0.117798	0.678137
	C146	C	0.618522	0.887195	0.325336
	C147	C	0.379971	0.117758	0.324115
	C148	C	0.676958	0.383826	0.886238
	C149	C	0.677845	0.622178	0.115777
	C150	C	0.322920	0.622350	0.886232
	C151	C	0.324494	0.383695	0.115766
	C152	C	0.884683	0.677811	0.383547
	C153	C	0.115477	0.679026	0.620352
	C154	C	0.885454	0.326903	0.619725
	C155	C	0.116205	0.327205	0.383776
	C156	C	0.885526	0.384133	0.677654
	C157	C	0.115266	0.622168	0.678707
	C158	C	0.885294	0.621971	0.324665
	C159	C	0.115667	0.383484	0.325129
	C160	C	0.381258	0.679654	0.886097
	C161	C	0.619735	0.679467	0.115790
	C162	C	0.619219	0.326318	0.886254
	C163	C	0.382471	0.326181	0.115824
	C164	C	0.675655	0.886752	0.383020
	C165	C	0.676144	0.118080	0.620470
	C166	C	0.324323	0.887060	0.620216
	C167	C	0.324128	0.118488	0.383055
	C168	C	0.881568	0.387859	0.177875
	C169	C	0.119437	0.618259	0.178573
	C170	C	0.119306	0.387809	0.825143
	C171	C	0.880859	0.617627	0.824643
	C172	C	0.177394	0.883576	0.386913
	C173	C	0.176928	0.121387	0.616483
	C174	C	0.823254	0.121586	0.386722
	C175	C	0.824402	0.884344	0.616182
	C176	C	0.385728	0.178933	0.882563
	C177	C	0.616666	0.178205	0.119751
	C178	C	0.385089	0.826282	0.119392
	C179	C	0.616453	0.827269	0.883810
	C180	C	0.385182	0.883289	0.177726
	C181	C	0.615725	0.122035	0.179022
	C182	C	0.385587	0.122033	0.824498
	C183	C	0.615883	0.882935	0.824763
	C184	C	0.881186	0.179185	0.386470
	C185	C	0.119268	0.179073	0.616515
	C186	C	0.119671	0.825667	0.386720
	C187	C	0.881761	0.826251	0.616339
	C188	C	0.176089	0.387242	0.883021
	C189	C	0.176760	0.618382	0.120788
	C190	C	0.825210	0.387396	0.119489
	C191	C	0.824655	0.618044	0.882975
	C192	C	0.400885	0.097469	0.601561
	C193	C	0.600064	0.907454	0.601695
	C194	C	0.598732	0.096904	0.403013
	C195	C	0.400825	0.908244	0.402018
	C196	C	0.601244	0.402657	0.095405
	C197	C	0.600892	0.602557	0.907011
	C198	C	0.401213	0.601811	0.094405
	C199	C	0.400354	0.402791	0.906921
	C200	C	0.094898	0.601350	0.402276
	C201	C	0.905397	0.602026	0.601546
	C202	C	0.095507	0.403387	0.601986
	C203	C	0.906000	0.403824	0.401441
	C204	C	0.901115	0.597872	0.101076
	C205	C	0.100269	0.408293	0.101518
	C206	C	0.099405	0.597599	0.902393
	C207	C	0.901212	0.407614	0.901466
	C208	C	0.100090	0.902867	0.595387
	C209	C	0.100264	0.103004	0.407442
	C210	C	0.900159	0.103209	0.595632
	C211	C	0.899979	0.902880	0.407357
	C212	C	0.595461	0.101778	0.901136
	C213	C	0.406670	0.102018	0.100362
	C214	C	0.594773	0.903313	0.101782
	C215	C	0.406022	0.903290	0.900991
	Zn216	Zn	0.500289	0.001931	0.751436
	Zn217	Zn	0.500165	0.002895	0.251905
	Zn218	Zn	0.751305	0.502654	0.001093
	Zn219	Zn	0.249721	0.502723	0.000771
	Zn220	Zn	0.000172	0.752162	0.501246
	Zn221	Zn	0.000838	0.253437	0.501167
	Zn222	Zn	0.000346	0.503005	0.751813
	Zn223	Zn	0.000483	0.502716	0.251233
	Zn224	Zn	0.500951	0.753357	0.000859
	Zn225	Zn	0.501327	0.252570	0.001038
	Zn226	Zn	0.749297	0.002717	0.501682
	Zn227	Zn	0.251074	0.003075	0.501746
	N228	N	0.414891	0.965265	0.679379
	N229	N	0.585517	0.039818	0.679898
	N230	N	0.585239	0.965337	0.323804
	N231	N	0.413034	0.039645	0.321994
	N232	N	0.679538	0.416978	0.963851
	N233	N	0.679810	0.588719	0.038342
	N234	N	0.321411	0.588593	0.963605
	N235	N	0.322183	0.417200	0.038363
	N236	N	0.962423	0.679148	0.417252
	N237	N	0.037882	0.680167	0.586467
	N238	N	0.963215	0.325241	0.586458
	N239	N	0.038337	0.325957	0.416982
	N240	N	0.963439	0.417323	0.679947
	N241	N	0.037415	0.588724	0.680487
	N242	N	0.963383	0.589049	0.322538
	N243	N	0.037615	0.416474	0.322460
	N244	N	0.415044	0.681193	0.963316
	N245	N	0.585815	0.680640	0.038536
	N246	N	0.586367	0.324450	0.963857
	N247	N	0.415586	0.324437	0.038395
	N248	N	0.677152	0.964419	0.416992
	N249	N	0.678280	0.039894	0.587651
	N250	N	0.322742	0.965035	0.587016
	N251	N	0.323250	0.040920	0.417061
	N252	N	0.914486	0.466057	0.180103
	N253	N	0.086236	0.540317	0.180128
	N254	N	0.086194	0.465890	0.823349
	N255	N	0.914002	0.539676	0.822679
	N256	N	0.179043	0.917101	0.464321
	N257	N	0.178966	0.088427	0.538867
	N258	N	0.821483	0.088568	0.464188
	N259	N	0.822522	0.917854	0.538835
	N260	N	0.463517	0.180242	0.915954
	N261	N	0.539370	0.179428	0.085361
	N262	N	0.462840	0.824883	0.086159
	N263	N	0.538770	0.825971	0.917013
	N264	N	0.463103	0.916670	0.180286
	N265	N	0.537575	0.089247	0.181161
	N266	N	0.463470	0.088513	0.822276
	N267	N	0.537766	0.915961	0.822189
	N268	N	0.914555	0.181719	0.464096
	N269	N	0.085740	0.180981	0.538965
	N270	N	0.085999	0.823983	0.463884
	N271	N	0.914456	0.823828	0.538631
	N272	N	0.177541	0.465073	0.916735
	N273	N	0.178699	0.540620	0.087224
	N274	N	0.823522	0.465143	0.086054
	N275	N	0.823561	0.540197	0.916687
	O276	O	-0.494442	0.471353	1.424775
	H277	H	-0.490853	0.481454	1.420827
	H278	H	-0.508176	0.471176	1.417879
	O279	O	0.482151	0.470599	0.410826
	H280	H	0.483805	0.470338	0.404147
	H281	H	0.477699	0.468900	0.411020
	O282	O	1.048532	0.030184	-0.003649
	H283	H	1.048479	0.033928	-0.002356
	H284	H	1.050448	0.030182	-0.003862
	O285	O	0.481602	0.448421	0.386032
	H286	H	0.492261	0.448745	0.388613
	H287	H	0.484105	0.447245	0.384042
	O288	O	0.475341	0.496562	0.435395
	H289	H	0.466968	0.494921	0.434697
	H290	H	0.467974	0.492636	0.435276
	O291	O	0.061859	1.024435	1.002656
	H292	H	0.061795	1.025050	0.998892
	H293	H	0.064800	1.025210	1.006622
	O294	O	0.519140	0.460677	0.432610
	H295	H	0.528913	0.459239	0.433564
	H296	H	0.520608	0.461767	0.432641
	O297	O	1.017695	-0.005209	-0.007735
	H298	H	1.019629	-0.002684	-0.006632
	H299	H	1.013866	-0.010041	-0.010136
