data_Molecule from HDF5

_cell_length_a		16.144027
_cell_length_b		16.154392
_cell_length_c		16.370386
_cell_angle_alpha	89.807664
_cell_angle_beta	89.973401
_cell_angle_gamma	89.924554
_symmetry_space_group_name_H-M	'P 1'
_symmetry_Int_Tables_number		1

loop_
	_symmetry_equiv_pos_as_xyz
	x,y,z

loop_
	_atom_site_label
	_atom_site_type_symbol
	_atom_site_fract_x
	_atom_site_fract_y
	_atom_site_fract_z
	H0	H	0.417174	0.847737	0.711537
	H1	H	0.619501	0.175776	0.711214
	H2	H	0.620013	0.846445	0.280329
	H3	H	0.417975	0.174384	0.278336
	H4	H	0.731770	0.412567	0.832568
	H5	H	0.729987	0.609129	0.158884
	H6	H	0.300695	0.610824	0.832697
	H7	H	0.301894	0.412210	0.159115
	H8	H	0.851772	0.724082	0.398907
	H9	H	0.182056	0.722377	0.592240
	H10	H	0.851909	0.297362	0.592314
	H11	H	0.182334	0.299932	0.398710
	H12	H	0.851915	0.409867	0.710982
	H13	H	0.180186	0.611548	0.711521
	H14	H	0.852648	0.612606	0.280544
	H15	H	0.179692	0.409328	0.278930
	H16	H	0.415997	0.727512	0.833358
	H17	H	0.614037	0.724932	0.158426
	H18	H	0.614858	0.297534	0.831961
	H19	H	0.416491	0.294108	0.157806
	H20	H	0.730453	0.845562	0.399465
	H21	H	0.729930	0.177115	0.590910
	H22	H	0.305161	0.846329	0.593779
	H23	H	0.305353	0.176689	0.396875
	H24	H	0.914417	0.347269	0.213790
	H25	H	0.115657	0.675033	0.209748
	H26	H	0.117550	0.347264	0.780680
	H27	H	0.912973	0.674477	0.778511
	H28	H	0.232445	0.913085	0.332163
	H29	H	0.232700	0.109512	0.657826
	H30	H	0.803023	0.111334	0.332122
	H31	H	0.802688	0.913303	0.658203
	H32	H	0.351397	0.223579	0.897829
	H33	H	0.682977	0.223487	0.091394
	H34	H	0.351062	0.800279	0.091787
	H35	H	0.681500	0.797037	0.897726
	H36	H	0.353259	0.910228	0.211074
	H37	H	0.682767	0.109981	0.208546
	H38	H	0.353256	0.115316	0.777659
	H39	H	0.681447	0.910019	0.779484
	H40	H	0.918193	0.228208	0.332533
	H41	H	0.116850	0.226079	0.657890
	H42	H	0.115747	0.797135	0.332503
	H43	H	0.917897	0.796176	0.658125
	H44	H	0.229142	0.346004	0.898922
	H45	H	0.227226	0.676474	0.091455
	H46	H	0.802257	0.345757	0.094808
	H47	H	0.803811	0.676886	0.899859
	H48	H	0.427984	0.128532	0.587080
	H49	H	0.611563	0.894517	0.585849
	H50	H	0.601908	0.130861	0.385891
	H51	H	0.428227	0.892735	0.400837
	H52	H	0.605347	0.418374	0.109668
	H53	H	0.607700	0.607317	0.879769
	H54	H	0.429251	0.596621	0.107331
	H55	H	0.421493	0.417950	0.879299
	H56	H	0.134722	0.598726	0.397754
	H57	H	0.900118	0.604870	0.581211
	H58	H	0.136098	0.413117	0.589436
	H59	H	0.899158	0.425145	0.400043
	H60	H	0.131897	0.421484	0.585796
	H61	H	0.899462	0.596266	0.591671
	H62	H	0.136759	0.607737	0.398891
	H63	H	0.895942	0.415612	0.401591
	H64	H	0.426085	0.615281	0.114551
	H65	H	0.614236	0.604173	0.877982
	H66	H	0.608560	0.412557	0.112480
	H67	H	0.422998	0.418787	0.879401
	H68	H	0.601413	0.122352	0.413533
	H69	H	0.610945	0.892291	0.592026
	H70	H	0.425919	0.128871	0.585578
	H71	H	0.425017	0.893688	0.404998
	H72	H	0.928794	0.627692	0.091579
	H73	H	0.115140	0.391306	0.087145
	H74	H	0.106593	0.629605	0.898273
	H75	H	0.925523	0.396291	0.912079
	H76	H	0.119434	0.913484	0.614610
	H77	H	0.106665	0.112731	0.378219
	H78	H	0.923441	0.110418	0.612935
	H79	H	0.928487	0.913985	0.379255
	H80	H	0.634420	0.102729	0.901411
	H81	H	0.401055	0.096951	0.089305
	H82	H	0.636414	0.917640	0.092943
	H83	H	0.401635	0.919627	0.908592
	H84	H	0.635718	0.914411	0.086805
	H85	H	0.397639	0.104647	0.092937
	H86	H	0.635084	0.103337	0.901687
	H87	H	0.400009	0.927024	0.898134
	H88	H	0.919518	0.099139	0.611054
	H89	H	0.119954	0.106434	0.375721
	H90	H	0.111271	0.924929	0.609639
	H91	H	0.918730	0.916666	0.377511
	H92	H	0.104058	0.627930	0.904285
	H93	H	0.106414	0.390885	0.097376
	H94	H	0.923112	0.626652	0.083302
	H95	H	0.916529	0.390701	0.900691
	H96	H	0.425127	0.129674	0.588690
	H97	H	0.605931	0.895898	0.589544
	H98	H	0.626219	0.133399	0.401947
	H99	H	0.423150	0.891716	0.400406
	H100	H	0.612539	0.418575	0.111495
	H101	H	0.607766	0.600532	0.881302
	H102	H	0.411069	0.602233	0.114305
	H103	H	0.422309	0.416726	0.879821
	H104	H	0.133561	0.603229	0.406009
	H105	H	0.895354	0.608729	0.592744
	H106	H	0.135857	0.421548	0.595208
	H107	H	0.901667	0.421191	0.409844
	H108	H	0.919063	0.631034	0.092453
	H109	H	0.102777	0.395633	0.084938
	H110	H	0.110653	0.629410	0.903725
	H111	H	0.931461	0.394020	0.898007
	H112	H	0.104887	0.912009	0.611296
	H113	H	0.108173	0.098133	0.381664
	H114	H	0.930443	0.101633	0.608391
	H115	H	0.925756	0.923302	0.381073
	H116	H	0.634079	0.103164	0.902744
	H117	H	0.400448	0.104639	0.083773
	H118	H	0.633480	0.921435	0.087181
	H119	H	0.396252	0.914528	0.897832
	C120	C	0.397255	0.020063	0.616400
	C121	C	0.639024	1.003316	0.617054
	C122	C	0.639033	0.019609	0.373121
	C123	C	0.396515	1.001889	0.373354
	C124	C	0.638157	0.388402	0.003800
	C125	C	0.637856	0.632696	0.987344
	C126	C	0.393776	0.633513	0.004502
	C127	C	0.393645	0.388647	0.986973
	C128	C	0.025757	0.632648	0.373378
	C129	C	1.007607	0.631857	0.616830
	C130	C	0.025439	0.389443	0.618093
	C131	C	1.007810	0.390792	0.374647
	C132	C	0.894395	0.519715	0.118154
	C133	C	0.136726	0.501901	0.117240
	C134	C	0.136890	0.520073	0.874230
	C135	C	0.894994	0.502528	0.874529
	C136	C	0.140042	0.888924	0.504012
	C137	C	0.139818	0.133629	0.486321
	C138	C	0.895429	0.133755	0.503601
	C139	C	0.895305	0.889277	0.486820
	C140	C	0.525495	0.132503	0.873271
	C141	C	0.508914	0.131641	0.116646
	C142	C	0.525873	0.889288	0.117021
	C143	C	0.508264	0.890562	0.873412
	C144	C	0.398199	0.896531	0.672765
	C145	C	0.637975	0.127023	0.672419
	C146	C	0.638304	0.895455	0.318784
	C147	C	0.398063	0.125636	0.317078
	C148	C	0.693851	0.391724	0.881303
	C149	C	0.692382	0.630035	0.110105
	C150	C	0.338697	0.631080	0.881453
	C151	C	0.339034	0.391180	0.110060
	C152	C	0.901406	0.687500	0.377335
	C153	C	0.132394	0.685547	0.613507
	C154	C	0.901252	0.334409	0.614037
	C155	C	0.132367	0.336409	0.377689
	C156	C	0.901162	0.390354	0.673027
	C157	C	0.131376	0.630541	0.672742
	C158	C	0.901833	0.631742	0.318583
	C159	C	0.131082	0.390763	0.318123
	C160	C	0.395837	0.689264	0.881755
	C161	C	0.634861	0.687797	0.109600
	C162	C	0.635588	0.334560	0.880863
	C163	C	0.396140	0.332551	0.109386
	C164	C	0.693769	0.895106	0.377473
	C165	C	0.693266	0.127665	0.612895
	C166	C	0.342468	0.895754	0.614084
	C167	C	0.342368	0.126790	0.376172
	C168	C	0.895297	0.395940	0.174672
	C169	C	0.135154	0.626013	0.171809
	C170	C	0.136033	0.396189	0.819301
	C171	C	0.894541	0.625789	0.817855
	C172	C	0.194620	0.892407	0.381027
	C173	C	0.194552	0.130097	0.609136
	C174	C	0.840494	0.131750	0.380822
	C175	C	0.840358	0.892339	0.609559
	C176	C	0.401045	0.187027	0.876594
	C177	C	0.633325	0.186419	0.112625
	C178	C	0.400955	0.836213	0.113455
	C179	C	0.632352	0.834874	0.876890
	C180	C	0.402173	0.890985	0.172758
	C181	C	0.633349	0.129965	0.170893
	C182	C	0.402056	0.132747	0.817013
	C183	C	0.632313	0.890990	0.818121
	C184	C	0.897993	0.189593	0.381128
	C185	C	0.137004	0.188144	0.609130
	C186	C	0.137079	0.834471	0.381223
	C187	C	0.897866	0.834124	0.609376
	C188	C	0.192179	0.395686	0.877675
	C189	C	0.190763	0.626792	0.113260
	C190	C	0.839422	0.395259	0.115527
	C191	C	0.840205	0.627016	0.878096
	C192	C	0.419651	0.106564	0.593865
	C193	C	0.616380	0.916689	0.595392
	C194	C	0.616548	0.106425	0.394186
	C195	C	0.418844	0.915210	0.395664
	C196	C	0.615418	0.410099	0.089278
	C197	C	0.616254	0.610597	0.901693
	C198	C	0.415802	0.611307	0.090009
	C199	C	0.415663	0.411298	0.901595
	C200	C	0.112693	0.609919	0.394669
	C201	C	0.920681	0.609668	0.595011
	C202	C	0.112299	0.412096	0.596473
	C203	C	0.921226	0.413913	0.397244
	C204	C	0.916935	0.606109	0.095598
	C205	C	0.114582	0.415213	0.096023
	C206	C	0.113997	0.606659	0.895768
	C207	C	0.917853	0.416021	0.897084
	C208	C	0.118324	0.910408	0.589726
	C209	C	0.118081	0.112092	0.400632
	C210	C	0.917753	0.110631	0.588674
	C211	C	0.917601	0.911551	0.401236
	C212	C	0.612108	0.109701	0.895324
	C213	C	0.422167	0.108759	0.095004
	C214	C	0.612638	0.911231	0.095410
	C215	C	0.421792	0.913596	0.895066
	Zn216	Zn	0.517293	0.012098	0.745225
	Zn217	Zn	0.518219	0.010263	0.245522
	Zn218	Zn	0.766653	0.510931	-0.004088
	Zn219	Zn	0.264843	0.511344	-0.003807
	Zn220	Zn	0.017249	0.759816	0.495724
	Zn221	Zn	0.017168	0.262395	0.494989
	Zn222	Zn	0.015769	0.511180	0.745894
	Zn223	Zn	0.016227	0.510620	0.245781
	Zn224	Zn	0.516249	0.761862	-0.004699
	Zn225	Zn	0.516149	0.259389	-0.004873
	Zn226	Zn	0.766563	0.011792	0.494658
	Zn227	Zn	0.269028	0.011167	0.494998
	N228	N	0.431451	0.974886	0.674334
	N229	N	0.605079	0.048544	0.674938
	N230	N	0.605037	0.973804	0.316191
	N231	N	0.431020	0.047044	0.315242
	N232	N	0.695757	0.424379	0.958779
	N233	N	0.694413	0.596474	0.033023
	N234	N	0.337014	0.596994	0.958745
	N235	N	0.337365	0.425639	0.033068
	N236	N	0.979594	0.688121	0.410865
	N237	N	0.054515	0.686655	0.579705
	N238	N	0.979521	0.333539	0.580948
	N239	N	0.054509	0.336292	0.412128
	N240	N	0.979523	0.423569	0.675813
	N241	N	0.052648	0.597834	0.674973
	N242	N	0.980151	0.598235	0.316158
	N243	N	0.052648	0.423990	0.316388
	N244	N	0.429338	0.690812	0.958858
	N245	N	0.601741	0.689347	0.032190
	N246	N	0.601941	0.332196	0.958166
	N247	N	0.429184	0.330882	0.031952
	N248	N	0.694359	0.973335	0.410713
	N249	N	0.694021	0.049834	0.578880
	N250	N	0.341804	0.973635	0.579782
	N251	N	0.341231	0.048730	0.410286
	N252	N	0.928502	0.474378	0.176423
	N253	N	0.102432	0.547519	0.174354
	N254	N	0.102481	0.474523	0.816935
	N255	N	0.927753	0.547358	0.815644
	N256	N	0.196711	0.925336	0.458317
	N257	N	0.196720	0.097183	0.531699
	N258	N	0.838713	0.097591	0.457891
	N259	N	0.838875	0.926123	0.532365
	N260	N	0.478710	0.186943	0.910971
	N261	N	0.554893	0.187569	0.079640
	N262	N	0.478777	0.835058	0.079498
	N263	N	0.554260	0.834430	0.910757
	N264	N	0.480901	0.923375	0.175174
	N265	N	0.554916	0.096596	0.173572
	N266	N	0.480617	0.099456	0.814658
	N267	N	0.554219	0.924907	0.815889
	N268	N	0.931401	0.190704	0.458210
	N269	N	0.103636	0.190501	0.531836
	N270	N	0.103858	0.832018	0.458696
	N271	N	0.931362	0.832205	0.532050
	N272	N	0.192792	0.473743	0.911276
	N273	N	0.191852	0.548719	0.079834
	N274	N	0.838678	0.473020	0.081035
	N275	N	0.840245	0.549182	0.912788
	O276	O	1.013160	1.021165	-0.098720
	H277	H	1.007360	1.019935	-0.108291
	H278	H	1.004191	1.014427	-0.100209
	O279	O	-0.040273	-0.017705	0.974911
	H280	H	-0.031898	-0.008260	0.973230
	H281	H	-0.041728	-0.021522	0.985366
	O282	O	-0.269416	-0.218519	0.271509
	H283	H	-0.269251	-0.225591	0.269653
	H284	H	-0.277528	-0.219481	0.271304
	O285	O	0.528018	0.565580	0.508960
	H286	H	0.533380	0.553622	0.508803
	H287	H	0.523123	0.561715	0.505066
	O288	O	-0.999234	-0.942758	-0.080675
	H289	H	-1.004051	-0.937962	-0.084777
	H290	H	-0.997045	-0.942774	-0.084983
	O291	O	0.052257	1.000977	-0.021877
	H292	H	0.048113	0.999620	-0.016029
	H293	H	0.040370	1.003037	-0.033502
	O294	O	-0.028560	0.968800	-0.041323
	H295	H	-0.021572	0.970122	-0.036904
	H296	H	-0.033924	0.961251	-0.033386
	O297	O	0.435633	0.541438	0.507279
	H298	H	0.423258	0.546251	0.513134
	H299	H	0.424052	0.552789	0.507827
	O300	O	0.919539	0.083237	-0.109191
	H301	H	0.922611	0.088348	-0.117860
	H302	H	0.917664	0.075522	-0.110740
	O303	O	1.072638	-0.046263	0.968101
	H304	H	1.077282	-0.046982	0.977647
	H305	H	1.070567	-0.042692	0.971981
	O306	O	0.035359	1.039609	0.997180
	H307	H	0.039695	1.043148	1.002243
	H308	H	0.033210	1.046438	0.989221
	O309	O	-0.006847	0.974724	1.023281
	H310	H	0.005202	0.977006	1.023007
	H311	H	-0.006066	0.974190	1.023607
	O312	O	0.026455	0.008653	0.962205
	H313	H	0.021293	0.007832	0.962088
	H314	H	0.028520	0.005109	0.959944
	O315	O	0.555410	0.532148	0.513255
	H316	H	0.560356	0.532643	0.510894
	H317	H	0.548427	0.528718	0.513631
	O318	O	0.058062	-0.006641	0.979114
	H319	H	0.053833	-0.001804	0.975337
	H320	H	0.056668	-0.021592	0.977522
	O321	O	0.469267	0.492951	0.487594
	H322	H	0.467853	0.498933	0.490853
	H323	H	0.478143	0.494302	0.483688
	O324	O	-0.025295	0.039495	0.999030
	H325	H	-0.033596	0.038553	0.980530
	H326	H	-0.023720	0.045719	1.007501
	O327	O	1.023855	0.953304	1.004315
	H328	H	1.024718	0.948554	1.001326
	H329	H	1.025875	0.961410	1.010111
	O330	O	0.042215	0.026246	1.003647
	H331	H	0.038788	0.031849	1.014588
	H332	H	0.042540	0.033918	0.999183
	O333	O	0.499894	0.437335	0.482650
	H334	H	0.500745	0.444940	0.486770
	H335	H	0.501075	0.429290	0.486797
	O336	O	0.569780	0.602775	0.537858
	H337	H	0.575037	0.602747	0.533646
	H338	H	0.572635	0.610412	0.540166
	O339	O	0.481274	0.459819	0.440828
	H340	H	0.480885	0.454536	0.440104
	H341	H	0.479544	0.463966	0.446109
	O342	O	0.588446	0.491710	0.511609
	H343	H	0.587574	0.486813	0.515627
	H344	H	0.591668	0.495130	0.505083
	O345	O	0.478437	0.470154	0.466159
	H346	H	0.485299	0.472247	0.464142
	H347	H	0.467165	0.462948	0.463588
