data_Molecule from HDF5

_cell_length_a		16.233506
_cell_length_b		16.223192
_cell_length_c		16.287208
_cell_angle_alpha	90.159616
_cell_angle_beta	89.853843
_cell_angle_gamma	89.915480
_symmetry_space_group_name_H-M	'P 1'
_symmetry_Int_Tables_number		1

loop_
	_symmetry_equiv_pos_as_xyz
	x,y,z

loop_
	_atom_site_label
	_atom_site_type_symbol
	_atom_site_fract_x
	_atom_site_fract_y
	_atom_site_fract_z
	H0	H	0.404150	0.841720	0.717747
	H1	H	0.601236	0.170487	0.719020
	H2	H	0.602555	0.841905	0.288704
	H3	H	0.404524	0.170324	0.290750
	H4	H	0.717523	0.407166	0.839921
	H5	H	0.714546	0.604379	0.168368
	H6	H	0.288495	0.603291	0.840611
	H7	H	0.287314	0.407982	0.169141
	H8	H	0.838270	0.718107	0.409247
	H9	H	0.166988	0.720201	0.602557
	H10	H	0.838418	0.292503	0.603669
	H11	H	0.166666	0.290876	0.404650
	H12	H	0.838736	0.408293	0.719458
	H13	H	0.166979	0.603971	0.717852
	H14	H	0.838570	0.605760	0.291784
	H15	H	0.166499	0.406505	0.288509
	H16	H	0.404446	0.720060	0.840411
	H17	H	0.598924	0.720767	0.168057
	H18	H	0.600268	0.291972	0.839481
	H19	H	0.404081	0.292458	0.168315
	H20	H	0.716578	0.841207	0.405823
	H21	H	0.716186	0.169759	0.602517
	H22	H	0.289868	0.840926	0.600089
	H23	H	0.288637	0.170227	0.406867
	H24	H	0.903120	0.342031	0.219656
	H25	H	0.100380	0.670770	0.219049
	H26	H	0.102439	0.342235	0.788843
	H27	H	0.902984	0.670326	0.790423
	H28	H	0.217780	0.905966	0.340868
	H29	H	0.217295	0.105774	0.667630
	H30	H	0.788740	0.103484	0.339692
	H31	H	0.787183	0.907792	0.667860
	H32	H	0.337234	0.218208	0.909211
	H33	H	0.667426	0.219508	0.102206
	H34	H	0.337637	0.795095	0.101413
	H35	H	0.666218	0.792427	0.905161
	H36	H	0.338691	0.907742	0.219252
	H37	H	0.667275	0.103826	0.217290
	H38	H	0.338179	0.104276	0.791296
	H39	H	0.666720	0.906722	0.789777
	H40	H	0.902889	0.221394	0.341459
	H41	H	0.099954	0.220458	0.667500
	H42	H	0.100543	0.791744	0.340495
	H43	H	0.903710	0.792700	0.668313
	H44	H	0.215849	0.341670	0.906321
	H45	H	0.215699	0.670824	0.102950
	H46	H	0.789454	0.341288	0.100747
	H47	H	0.789816	0.671003	0.908457
	H48	H	0.414065	0.120347	0.594673
	H49	H	0.597231	0.884789	0.608494
	H50	H	0.608585	0.123710	0.421466
	H51	H	0.409045	0.886787	0.404584
	H52	H	0.607296	0.404744	0.126268
	H53	H	0.593230	0.601933	0.887618
	H54	H	0.409123	0.605385	0.121734
	H55	H	0.407039	0.411154	0.886850
	H56	H	0.120327	0.604722	0.413754
	H57	H	0.888564	0.592375	0.594992
	H58	H	0.121291	0.410377	0.599945
	H59	H	0.884100	0.412968	0.404568
	H60	H	0.118154	0.412342	0.592308
	H61	H	0.882976	0.599215	0.606695
	H62	H	0.117850	0.593513	0.415096
	H63	H	0.886214	0.407681	0.417273
	H64	H	0.403255	0.599604	0.122398
	H65	H	0.598973	0.599936	0.886556
	H66	H	0.598126	0.427305	0.117032
	H67	H	0.408765	0.414625	0.889615
	H68	H	0.597788	0.128288	0.395730
	H69	H	0.584189	0.892963	0.593257
	H70	H	0.402445	0.123712	0.595214
	H71	H	0.416617	0.891494	0.412885
	H72	H	0.911551	0.625045	0.107355
	H73	H	0.100786	0.388231	0.095990
	H74	H	0.095894	0.623319	0.912384
	H75	H	0.914534	0.393514	0.921059
	H76	H	0.103081	0.915388	0.622469
	H77	H	0.087008	0.104087	0.388399
	H78	H	0.900962	0.105043	0.624832
	H79	H	0.904520	0.917044	0.387708
	H80	H	0.621525	0.102601	0.906765
	H81	H	0.388187	0.089267	0.100313
	H82	H	0.621676	0.911513	0.103523
	H83	H	0.387809	0.918410	0.915459
	H84	H	0.620535	0.907843	0.091894
	H85	H	0.381174	0.106082	0.106960
	H86	H	0.618379	0.101288	0.915316
	H87	H	0.383914	0.916335	0.903381
	H88	H	0.906614	0.088871	0.618085
	H89	H	0.103846	0.102093	0.383829
	H90	H	0.091559	0.918163	0.618534
	H91	H	0.916719	0.912597	0.389023
	H92	H	0.095485	0.623931	0.909784
	H93	H	0.091690	0.388642	0.103082
	H94	H	0.913500	0.619909	0.092696
	H95	H	0.899880	0.385788	0.910891
	H96	H	0.409929	0.124894	0.604601
	H97	H	0.604789	0.888171	0.589522
	H98	H	0.581588	0.117213	0.416280
	H99	H	0.405410	0.888796	0.416096
	H100	H	0.582614	0.406487	0.117860
	H101	H	0.594360	0.596233	0.887993
	H102	H	0.411188	0.597579	0.119558
	H103	H	0.411286	0.411656	0.888191
	H104	H	0.121389	0.597863	0.404409
	H105	H	0.884211	0.607112	0.593726
	H106	H	0.118277	0.417463	0.598852
	H107	H	0.888863	0.420616	0.414890
	H108	H	0.898991	0.625465	0.097657
	H109	H	0.090669	0.392374	0.092180
	H110	H	0.093517	0.622868	0.911125
	H111	H	0.916734	0.388040	0.902749
	H112	H	0.094552	0.906005	0.622660
	H113	H	0.094560	0.088199	0.390809
	H114	H	0.918457	0.102786	0.618888
	H115	H	0.906762	0.903996	0.385172
	H116	H	0.618514	0.094180	0.909244
	H117	H	0.387456	0.103916	0.088856
	H118	H	0.617133	0.919573	0.095704
	H119	H	0.383339	0.906359	0.912526
	C120	C	0.380513	0.014826	0.625970
	C121	C	0.623949	0.997404	0.625698
	C122	C	0.624166	0.013974	0.382596
	C123	C	0.381448	0.997388	0.382555
	C124	C	0.624555	0.384142	0.011987
	C125	C	0.623233	0.627710	0.995648
	C126	C	0.379670	0.628497	0.013092
	C127	C	0.380454	0.384677	0.996751
	C128	C	0.011443	0.627406	0.383688
	C129	C	0.993920	0.627783	0.626448
	C130	C	0.010836	0.385146	0.625813
	C131	C	0.994417	0.384517	0.382741
	C132	C	0.879649	0.514968	0.127159
	C133	C	0.122951	0.498068	0.125847
	C134	C	0.124227	0.514774	0.882274
	C135	C	0.881417	0.497696	0.883293
	C136	C	0.124523	0.884119	0.512880
	C137	C	0.123616	0.127054	0.495796
	C138	C	0.880417	0.127502	0.512349
	C139	C	0.880766	0.883744	0.495870
	C140	C	0.510753	0.127906	0.882775
	C141	C	0.494536	0.128132	0.126480
	C142	C	0.511088	0.885299	0.125532
	C143	C	0.493572	0.884708	0.882073
	C144	C	0.383511	0.890667	0.680208
	C145	C	0.621224	0.121188	0.680941
	C146	C	0.622054	0.890870	0.327119
	C147	C	0.384168	0.121293	0.328376
	C148	C	0.679805	0.386490	0.888564
	C149	C	0.677188	0.625077	0.119186
	C150	C	0.325727	0.624807	0.889577
	C151	C	0.325203	0.387525	0.119932
	C152	C	0.887582	0.682110	0.387399
	C153	C	0.117826	0.682552	0.623520
	C154	C	0.887419	0.330481	0.623447
	C155	C	0.117908	0.329095	0.384518
	C156	C	0.887536	0.387838	0.681259
	C157	C	0.117735	0.625100	0.680882
	C158	C	0.887631	0.625638	0.329325
	C159	C	0.117797	0.386420	0.326770
	C160	C	0.383452	0.682456	0.889415
	C161	C	0.619515	0.682633	0.119244
	C162	C	0.621280	0.329561	0.888555
	C163	C	0.383011	0.330063	0.119761
	C164	C	0.678996	0.890362	0.385232
	C165	C	0.678291	0.121211	0.622961
	C166	C	0.326712	0.890247	0.621991
	C167	C	0.326495	0.121027	0.385873
	C168	C	0.882840	0.391130	0.181519
	C169	C	0.120773	0.621846	0.181137
	C170	C	0.122157	0.391196	0.827056
	C171	C	0.883286	0.621550	0.828778
	C172	C	0.179649	0.885920	0.389571
	C173	C	0.179239	0.125385	0.618704
	C174	C	0.826085	0.124300	0.388903
	C175	C	0.825088	0.887166	0.618932
	C176	C	0.386700	0.181497	0.887483
	C177	C	0.618088	0.182497	0.123155
	C178	C	0.386819	0.831781	0.122534
	C179	C	0.617185	0.829944	0.884978
	C180	C	0.387489	0.887928	0.180908
	C181	C	0.618123	0.125013	0.180484
	C182	C	0.387196	0.125138	0.828652
	C183	C	0.617407	0.886725	0.827289
	C184	C	0.882896	0.182970	0.389777
	C185	C	0.120889	0.182500	0.618863
	C186	C	0.121439	0.829082	0.389475
	C187	C	0.883215	0.830025	0.619305
	C188	C	0.178663	0.390928	0.885291
	C189	C	0.177777	0.621928	0.123164
	C190	C	0.825938	0.390795	0.122844
	C191	C	0.826635	0.621648	0.886885
	C192	C	0.402324	0.100699	0.604338
	C193	C	0.601911	0.910941	0.603736
	C194	C	0.602237	0.100798	0.404650
	C195	C	0.403908	0.911182	0.404491
	C196	C	0.602577	0.406432	0.098096
	C197	C	0.601725	0.605885	0.909670
	C198	C	0.401368	0.607089	0.099038
	C199	C	0.402506	0.406279	0.910564
	C200	C	0.097755	0.605306	0.404870
	C201	C	0.907670	0.606005	0.604743
	C202	C	0.097038	0.406900	0.603583
	C203	C	0.908451	0.406925	0.405547
	C204	C	0.901518	0.601253	0.105705
	C205	C	0.100939	0.411954	0.103633
	C206	C	0.101693	0.601156	0.904517
	C207	C	0.903878	0.411362	0.905008
	C208	C	0.102745	0.906509	0.599020
	C209	C	0.101623	0.104596	0.409828
	C210	C	0.902225	0.105518	0.598383
	C211	C	0.902869	0.904965	0.409550
	C212	C	0.597297	0.105782	0.904108
	C213	C	0.407934	0.106142	0.104942
	C214	C	0.597547	0.906733	0.103418
	C215	C	0.407307	0.907155	0.903955
	Zn216	Zn	0.502490	0.006011	0.754081
	Zn217	Zn	0.502961	0.005916	0.254154
	Zn218	Zn	0.752327	0.506173	0.004088
	Zn219	Zn	0.251511	0.506427	0.004554
	Zn220	Zn	0.002986	0.755848	0.504656
	Zn221	Zn	0.002389	0.256519	0.504141
	Zn222	Zn	0.002523	0.506518	0.754883
	Zn223	Zn	0.002703	0.506590	0.254968
	Zn224	Zn	0.501864	0.756989	0.004232
	Zn225	Zn	0.502527	0.255876	0.004640
	Zn226	Zn	0.752231	0.005841	0.503950
	Zn227	Zn	0.252726	0.005613	0.503890
	N228	N	0.416215	0.968892	0.682969
	N229	N	0.587953	0.043087	0.682600
	N230	N	0.588878	0.968768	0.325568
	N231	N	0.417585	0.043304	0.326159
	N232	N	0.681686	0.419728	0.966347
	N233	N	0.679471	0.591370	0.041626
	N234	N	0.323328	0.592061	0.967346
	N235	N	0.323356	0.420731	0.042214
	N236	N	0.965386	0.683162	0.420754
	N237	N	0.039920	0.684456	0.590350
	N238	N	0.965098	0.328777	0.589491
	N239	N	0.040123	0.327783	0.418460
	N240	N	0.965220	0.421109	0.682691
	N241	N	0.039871	0.591793	0.682831
	N242	N	0.965492	0.592287	0.326834
	N243	N	0.040049	0.420156	0.325559
	N244	N	0.416106	0.685098	0.967287
	N245	N	0.586801	0.684547	0.041357
	N246	N	0.587755	0.327938	0.966252
	N247	N	0.416511	0.328119	0.042274
	N248	N	0.680260	0.968154	0.419280
	N249	N	0.680226	0.043351	0.589597
	N250	N	0.324628	0.968186	0.588954
	N251	N	0.324836	0.043074	0.418894
	N252	N	0.915244	0.469411	0.184699
	N253	N	0.087189	0.544023	0.182708
	N254	N	0.088720	0.469269	0.825451
	N255	N	0.916777	0.543550	0.826589
	N256	N	0.181450	0.919388	0.467087
	N257	N	0.180797	0.091502	0.541115
	N258	N	0.824313	0.090670	0.466388
	N259	N	0.823646	0.920087	0.541090
	N260	N	0.464690	0.183122	0.920573
	N261	N	0.540040	0.184628	0.090431
	N262	N	0.464617	0.829964	0.088714
	N263	N	0.539180	0.828498	0.918392
	N264	N	0.465727	0.920409	0.182743
	N265	N	0.540166	0.092066	0.182874
	N266	N	0.465261	0.092346	0.825889
	N267	N	0.539567	0.920271	0.825362
	N268	N	0.915818	0.184951	0.467476
	N269	N	0.087178	0.183781	0.541458
	N270	N	0.087847	0.827762	0.467222
	N271	N	0.917096	0.827916	0.541911
	N272	N	0.179994	0.468710	0.919042
	N273	N	0.179171	0.544080	0.089507
	N274	N	0.824132	0.468692	0.089617
	N275	N	0.825304	0.543738	0.920016
	O276	O	0.550099	0.438305	0.466665
	H277	H	0.555112	0.434215	0.462232
	H278	H	0.547972	0.437767	0.465223
	O279	O	0.056109	0.012759	-0.028306
	H280	H	0.046649	0.021350	-0.021635
	H281	H	0.049193	0.021832	-0.030521
	O282	O	0.496342	0.520222	0.499411
	H283	H	0.494536	0.517582	0.495867
	H284	H	0.495679	0.517108	0.500239
	O285	O	0.535613	0.498884	0.496656
	H286	H	0.532625	0.497914	0.499149
	H287	H	0.529683	0.499372	0.503625
	O288	O	1.081939	0.010203	-0.018197
	H289	H	1.091054	0.001176	-0.017558
	H290	H	1.088581	0.007536	-0.028184
	O291	O	-0.467443	0.466081	-0.546973
	H292	H	-0.458623	0.473124	-0.559745
	H293	H	-0.467625	0.468801	-0.546726
	O294	O	0.477653	0.449809	0.509070
	H295	H	0.483195	0.453602	0.505554
	H296	H	0.477519	0.446069	0.508432
	O297	O	0.052564	1.008115	-0.014014
	H298	H	0.063303	1.005560	-0.016189
	H299	H	0.045497	1.005523	-0.015441
	O300	O	1.052471	0.060826	0.982094
	H301	H	1.049480	0.073969	0.982422
	H302	H	1.055120	0.059070	0.981671
	O303	O	0.552947	0.471520	0.480291
	H304	H	0.546673	0.471883	0.486475
	H305	H	0.553117	0.465124	0.479012
	O306	O	0.063615	1.010938	1.003152
	H307	H	0.069230	1.004785	1.008695
	H308	H	0.067368	1.007406	1.006448
	O309	O	0.548708	0.493303	0.462522
	H310	H	0.546395	0.491450	0.464057
	H311	H	0.556913	0.487595	0.460652
