data_Molecule from HDF5

_cell_length_a		16.375613
_cell_length_b		16.448326
_cell_length_c		16.204592
_cell_angle_alpha	89.932958
_cell_angle_beta	90.004844
_cell_angle_gamma	90.243849
_symmetry_space_group_name_H-M	'P 1'
_symmetry_Int_Tables_number		1

loop_
	_symmetry_equiv_pos_as_xyz
	x,y,z

loop_
	_atom_site_label
	_atom_site_type_symbol
	_atom_site_fract_x
	_atom_site_fract_y
	_atom_site_fract_z
	H0	H	0.392813	0.841724	0.718184
	H1	H	0.598665	0.161317	0.713793
	H2	H	0.600683	0.841014	0.277426
	H3	H	0.395009	0.159523	0.276957
	H4	H	0.715529	0.398823	0.832880
	H5	H	0.721059	0.602830	0.156689
	H6	H	0.282452	0.601121	0.835581
	H7	H	0.278084	0.390940	0.156715
	H8	H	0.839849	0.719049	0.390272
	H9	H	0.155413	0.723798	0.605514
	H10	H	0.838711	0.278268	0.603824
	H11	H	0.157007	0.277730	0.391147
	H12	H	0.838230	0.398059	0.715035
	H13	H	0.160092	0.601559	0.712593
	H14	H	0.840839	0.603053	0.273991
	H15	H	0.160900	0.398408	0.281642
	H16	H	0.397144	0.719116	0.836017
	H17	H	0.607573	0.719937	0.157618
	H18	H	0.602823	0.281484	0.834810
	H19	H	0.394940	0.278648	0.157508
	H20	H	0.719704	0.842624	0.389110
	H21	H	0.719034	0.159005	0.601546
	H22	H	0.275828	0.842197	0.603697
	H23	H	0.278395	0.159679	0.392799
	H24	H	0.896022	0.339094	0.216686
	H25	H	0.107979	0.656055	0.219734
	H26	H	0.102325	0.339818	0.777189
	H27	H	0.897349	0.658248	0.777060
	H28	H	0.218578	0.894592	0.336657
	H29	H	0.217401	0.103742	0.658133
	H30	H	0.780076	0.102384	0.334425
	H31	H	0.777328	0.895748	0.658453
	H32	H	0.340994	0.222139	0.891290
	H33	H	0.659430	0.220816	0.103084
	H34	H	0.342507	0.774477	0.104870
	H35	H	0.659132	0.780741	0.889807
	H36	H	0.337827	0.896053	0.214615
	H37	H	0.659419	0.102506	0.216523
	H38	H	0.337769	0.102953	0.780017
	H39	H	0.658633	0.898661	0.776163
	H40	H	0.891104	0.221173	0.336270
	H41	H	0.102059	0.219489	0.657973
	H42	H	0.103644	0.778317	0.336619
	H43	H	0.889755	0.777609	0.657858
	H44	H	0.219672	0.339742	0.892183
	H45	H	0.226323	0.654610	0.106649
	H46	H	0.777800	0.340532	0.102825
	H47	H	0.779028	0.657340	0.889484
	H48	H	0.412362	0.110643	0.581484
	H49	H	0.590591	0.886941	0.582226
	H50	H	0.584418	0.112803	0.407373
	H51	H	0.403873	0.884903	0.406202
	H52	H	0.587216	0.407920	0.111519
	H53	H	0.588630	0.584886	0.882955
	H54	H	0.411150	0.577824	0.109442
	H55	H	0.411671	0.414962	0.883332
	H56	H	0.112194	0.588660	0.409928
	H57	H	0.882790	0.590775	0.587674
	H58	H	0.115092	0.406416	0.589843
	H59	H	0.884037	0.410487	0.403446
	H60	H	0.112831	0.405120	0.582371
	H61	H	0.884323	0.588899	0.584270
	H62	H	0.113304	0.590512	0.409054
	H63	H	0.883717	0.406099	0.410194
	H64	H	0.423769	0.587990	0.108325
	H65	H	0.585956	0.596226	0.879935
	H66	H	0.593330	0.408268	0.113440
	H67	H	0.414813	0.408061	0.881883
	H68	H	0.589691	0.112992	0.410798
	H69	H	0.588422	0.884623	0.590783
	H70	H	0.398487	0.115887	0.584362
	H71	H	0.410282	0.886397	0.405494
	H72	H	0.913831	0.610950	0.084182
	H73	H	0.089673	0.383698	0.088504
	H74	H	0.095507	0.613230	0.910693
	H75	H	0.911003	0.387781	0.912213
	H76	H	0.081816	0.916377	0.608248
	H77	H	0.089826	0.088642	0.380757
	H78	H	0.908755	0.093510	0.612933
	H79	H	0.909027	0.913826	0.383549
	H80	H	0.610740	0.086457	0.909169
	H81	H	0.382616	0.094268	0.089373
	H82	H	0.613522	0.908056	0.084235
	H83	H	0.382263	0.899768	0.906886
	H84	H	0.611867	0.914175	0.086622
	H85	H	0.386338	0.092898	0.079929
	H86	H	0.615726	0.091578	0.900752
	H87	H	0.389215	0.909685	0.919290
	H88	H	0.904574	0.085970	0.612407
	H89	H	0.084481	0.086423	0.384018
	H90	H	0.082984	0.905443	0.612868
	H91	H	0.912579	0.906128	0.382528
	H92	H	0.092222	0.614054	0.902886
	H93	H	0.088832	0.385696	0.086078
	H94	H	0.911822	0.610282	0.082194
	H95	H	0.902734	0.382838	0.906780
	H96	H	0.408535	0.117001	0.594988
	H97	H	0.582035	0.888307	0.585469
	H98	H	0.589967	0.115442	0.405091
	H99	H	0.406757	0.888552	0.411423
	H100	H	0.590437	0.412852	0.111086
	H101	H	0.596836	0.591862	0.878319
	H102	H	0.410229	0.592875	0.114682
	H103	H	0.406932	0.408641	0.879904
	H104	H	0.113108	0.590612	0.410612
	H105	H	0.884259	0.586588	0.587961
	H106	H	0.111955	0.412052	0.585587
	H107	H	0.886709	0.413194	0.410265
	H108	H	0.911177	0.612139	0.085032
	H109	H	0.091754	0.384729	0.085774
	H110	H	0.087543	0.611177	0.908815
	H111	H	0.912376	0.383817	0.901453
	H112	H	0.092006	0.913087	0.613096
	H113	H	0.084776	0.092656	0.381160
	H114	H	0.912694	0.086247	0.609794
	H115	H	0.904087	0.908362	0.379736
	H116	H	0.613683	0.096933	0.910343
	H117	H	0.387339	0.085300	0.087296
	H118	H	0.614629	0.909840	0.090501
	H119	H	0.386161	0.916491	0.903637
	C120	C	0.374711	0.009600	0.619598
	C121	C	0.618815	0.991899	0.618103
	C122	C	0.619217	0.008851	0.375596
	C123	C	0.375494	0.991613	0.375080
	C124	C	0.620949	0.378939	0.004659
	C125	C	0.622765	0.621946	0.987157
	C126	C	0.381571	0.618775	0.005163
	C127	C	0.378950	0.377557	0.987928
	C128	C	0.007676	0.620864	0.375867
	C129	C	0.989302	0.620989	0.618755
	C130	C	0.007392	0.377064	0.618562
	C131	C	0.990240	0.378193	0.376185
	C132	C	0.879506	0.506718	0.117292
	C133	C	0.123146	0.489198	0.119716
	C134	C	0.121821	0.507447	0.875376
	C135	C	0.877733	0.489958	0.874337
	C136	C	0.118186	0.878909	0.505484
	C137	C	0.118382	0.120972	0.488268
	C138	C	0.876789	0.120425	0.505233
	C139	C	0.875837	0.877552	0.488219
	C140	C	0.507661	0.122501	0.875471
	C141	C	0.491059	0.121758	0.117932
	C142	C	0.508000	0.878086	0.118938
	C143	C	0.491117	0.878399	0.876230
	C144	C	0.373655	0.889620	0.678917
	C145	C	0.618714	0.112773	0.675547
	C146	C	0.619748	0.888928	0.316487
	C147	C	0.375432	0.111708	0.316246
	C148	C	0.677596	0.379271	0.882108
	C149	C	0.682169	0.622474	0.108358
	C150	C	0.321694	0.620498	0.884005
	C151	C	0.318835	0.374235	0.108690
	C152	C	0.887666	0.679456	0.372432
	C153	C	0.108754	0.682281	0.621947
	C154	C	0.886972	0.318026	0.621409
	C155	C	0.109877	0.318123	0.373545
	C156	C	0.886638	0.377909	0.676820
	C157	C	0.111050	0.621357	0.675267
	C158	C	0.888495	0.621817	0.314262
	C159	C	0.111897	0.378253	0.319018
	C160	C	0.378516	0.679360	0.884301
	C161	C	0.625667	0.680969	0.108785
	C162	C	0.621539	0.320747	0.883012
	C163	C	0.376969	0.317952	0.109052
	C164	C	0.679029	0.889843	0.372328
	C165	C	0.678687	0.111565	0.619676
	C166	C	0.315563	0.889745	0.621901
	C167	C	0.317418	0.111623	0.373923
	C168	C	0.877140	0.387165	0.177465
	C169	C	0.126261	0.608385	0.180067
	C170	C	0.121784	0.387712	0.816322
	C171	C	0.877952	0.610213	0.815862
	C172	C	0.178608	0.876291	0.384746
	C173	C	0.177629	0.122236	0.609693
	C174	C	0.818266	0.121720	0.383364
	C175	C	0.816437	0.876563	0.609735
	C176	C	0.388054	0.181958	0.873453
	C177	C	0.611471	0.180932	0.120956
	C178	C	0.389138	0.816309	0.121780
	C179	C	0.611317	0.820445	0.872608
	C180	C	0.386915	0.876701	0.176792
	C181	C	0.611312	0.122380	0.177740
	C182	C	0.386608	0.122585	0.817985
	C183	C	0.611069	0.879296	0.815924
	C184	C	0.874001	0.180594	0.384255
	C185	C	0.120291	0.179956	0.609663
	C186	C	0.121122	0.818534	0.384940
	C187	C	0.872824	0.817870	0.609504
	C188	C	0.180207	0.387560	0.873702
	C189	C	0.185519	0.607555	0.123891
	C190	C	0.818221	0.387827	0.120597
	C191	C	0.819025	0.609676	0.871928
	C192	C	0.399367	0.092834	0.594212
	C193	C	0.594058	0.908169	0.593446
	C194	C	0.594831	0.092037	0.400438
	C195	C	0.399816	0.908244	0.400315
	C196	C	0.597296	0.402838	0.089953
	C197	C	0.597733	0.597940	0.902440
	C198	C	0.407506	0.593375	0.089013
	C199	C	0.403907	0.403050	0.903462
	C200	C	0.091194	0.596985	0.402199
	C201	C	0.905639	0.596044	0.593914
	C202	C	0.091417	0.400834	0.593317
	C203	C	0.906535	0.402712	0.400826
	C204	C	0.905079	0.589408	0.091363
	C205	C	0.097604	0.406361	0.094181
	C206	C	0.098465	0.591156	0.900299
	C207	C	0.901613	0.406635	0.899605
	C208	C	0.092908	0.904412	0.589556
	C209	C	0.093509	0.096336	0.403836
	C210	C	0.901606	0.095727	0.589635
	C211	C	0.901164	0.902217	0.403881
	C212	C	0.591526	0.098441	0.899658
	C213	C	0.407258	0.097812	0.092788
	C214	C	0.591577	0.903436	0.094196
	C215	C	0.407518	0.901930	0.902424
	Zn216	Zn	0.497699	0.000703	0.747504
	Zn217	Zn	0.498025	0.000301	0.246635
	Zn218	Zn	0.749627	0.498840	-0.004334
	Zn219	Zn	0.251091	0.498223	-0.002976
	Zn220	Zn	-0.002188	0.749671	0.497961
	Zn221	Zn	-0.002688	0.249287	0.496517
	Zn222	Zn	-0.000147	0.499386	0.746235
	Zn223	Zn	0.000571	0.497909	0.247193
	Zn224	Zn	0.501352	0.749066	-0.002605
	Zn225	Zn	0.500425	0.250782	-0.003280
	Zn226	Zn	0.748724	-0.000008	0.496800
	Zn227	Zn	0.247075	-0.000019	0.496705
	N228	N	0.409614	0.965209	0.677973
	N229	N	0.582390	0.037312	0.674720
	N230	N	0.582952	0.963867	0.318457
	N231	N	0.410522	0.036035	0.316500
	N232	N	0.677249	0.414870	0.958904
	N233	N	0.680599	0.586620	0.031860
	N234	N	0.323174	0.583836	0.960293
	N235	N	0.320047	0.410613	0.032378
	N236	N	0.962862	0.678984	0.409962
	N237	N	0.032014	0.682424	0.587588
	N238	N	0.963117	0.317648	0.585541
	N239	N	0.033344	0.317950	0.408326
	N240	N	0.962525	0.413800	0.675157
	N241	N	0.035897	0.584067	0.673561
	N242	N	0.964397	0.586458	0.316001
	N243	N	0.036639	0.415186	0.320825
	N244	N	0.415011	0.678298	0.960672
	N245	N	0.589518	0.680651	0.032267
	N246	N	0.586927	0.320681	0.960214
	N247	N	0.413721	0.319970	0.032842
	N248	N	0.678648	0.965232	0.408558
	N249	N	0.679012	0.035243	0.584989
	N250	N	0.316076	0.965236	0.585806
	N251	N	0.317288	0.035714	0.409655
	N252	N	0.914462	0.461966	0.175617
	N253	N	0.088268	0.533989	0.177492
	N254	N	0.086342	0.463298	0.817186
	N255	N	0.913740	0.534866	0.817136
	N256	N	0.176723	0.913306	0.460602
	N257	N	0.176734	0.086320	0.533058
	N258	N	0.819987	0.084935	0.459545
	N259	N	0.818048	0.912881	0.533319
	N260	N	0.464291	0.182037	0.908489
	N261	N	0.535628	0.180889	0.084706
	N262	N	0.465266	0.817344	0.086448
	N263	N	0.535831	0.819856	0.909347
	N264	N	0.462008	0.914411	0.175195
	N265	N	0.535572	0.086155	0.175917
	N266	N	0.461804	0.086090	0.819353
	N267	N	0.535225	0.914889	0.818134
	N268	N	0.909769	0.180011	0.461059
	N269	N	0.084029	0.179152	0.533198
	N270	N	0.084248	0.820209	0.461172
	N271	N	0.909130	0.818295	0.532960
	N272	N	0.180124	0.463139	0.909899
	N273	N	0.183776	0.532369	0.086962
	N274	N	0.819380	0.463176	0.083825
	N275	N	0.818742	0.533918	0.907625
	O276	O	0.381888	0.547771	0.328515
	H277	H	0.376777	0.543324	0.320628
	H278	H	0.400369	0.559034	0.324745
	O279	O	0.599562	0.617666	0.470450
	H280	H	0.597873	0.608385	0.471893
	H281	H	0.609548	0.624784	0.489770
	O282	O	0.476925	0.674293	0.568940
	H283	H	0.468658	0.684842	0.565719
	H284	H	0.504408	0.671355	0.549834
	O285	O	0.807912	-0.017446	0.123959
	H286	H	0.817339	-0.010237	0.126473
	H287	H	0.808129	-0.002881	0.127557
	O288	O	-0.099212	-0.083831	0.783339
	H289	H	-0.104929	-0.082468	0.773415
	H290	H	-0.091859	-0.071059	0.777294
	O291	O	0.541725	0.524057	0.476774
	H292	H	0.542818	0.521615	0.473074
	H293	H	0.547271	0.527861	0.480966
	O294	O	0.470108	0.320469	0.463703
	H295	H	0.477434	0.325852	0.477733
	H296	H	0.485550	0.312764	0.470356
	O297	O	1.127518	1.011198	1.197317
	H298	H	1.129631	1.002729	1.198773
	H299	H	1.121013	1.001429	1.194317
	O300	O	-0.128323	-0.109570	0.009237
	H301	H	-0.138905	-0.129709	0.027070
	H302	H	-0.124672	-0.106886	-0.010954
	O303	O	0.605981	0.534444	0.636601
	H304	H	0.581396	0.532476	0.639022
	H305	H	0.613782	0.520764	0.630476
	O306	O	0.976036	0.043036	0.097705
	H307	H	0.970315	0.009586	0.095038
	H308	H	0.972816	0.038038	0.094952
	O309	O	0.454497	0.629756	0.680263
	H310	H	0.441044	0.639528	0.664608
	H311	H	0.451936	0.643069	0.684692
	O312	O	1.152229	0.992759	-0.188226
	H313	H	1.152903	1.000997	-0.168725
	H314	H	1.163369	0.994267	-0.199269
	O315	O	0.331442	0.397321	0.434254
	H316	H	0.337394	0.415097	0.431826
	H317	H	0.336879	0.400086	0.427306
	O318	O	0.538714	0.380158	0.536219
	H319	H	0.531506	0.373947	0.548749
	H320	H	0.533128	0.378692	0.537848
	O321	O	1.122694	0.009073	1.067709
	H322	H	1.117622	0.004670	1.070439
	H323	H	1.127908	-0.000523	1.066547
	O324	O	0.040565	0.059786	0.906412
	H325	H	0.051196	0.053136	0.902233
	H326	H	0.033756	0.052924	0.909120
	O327	O	0.509386	0.351330	0.467177
	H328	H	0.506545	0.365207	0.464145
	H329	H	0.498285	0.345957	0.475991
	O330	O	0.609348	0.570023	0.479157
	H331	H	0.617017	0.578905	0.473323
	H332	H	0.611539	0.570541	0.485730
	O333	O	0.808482	0.819931	1.179463
	H334	H	0.832509	0.839333	1.185433
	H335	H	0.827634	0.825719	1.174101
	O336	O	0.337195	0.614958	0.475154
	H337	H	0.350756	0.613164	0.471963
	H338	H	0.333309	0.626954	0.464223
	O339	O	1.025429	0.045387	0.914669
	H340	H	1.017741	0.041833	0.885571
	H341	H	1.040538	0.038025	0.918091
	O342	O	-0.070879	1.168585	0.971212
	H343	H	-0.069362	1.173741	0.963693
	H344	H	-0.062729	1.167141	0.967429
	O345	O	0.098511	0.794194	0.876828
	H346	H	0.087726	0.806741	0.861458
	H347	H	0.100572	0.789149	0.858157
	O348	O	0.516821	0.555170	0.326106
	H349	H	0.512654	0.569628	0.326119
	H350	H	0.520629	0.545503	0.306850
	O351	O	-0.104207	-0.016258	0.003617
	H352	H	-0.102898	-0.017897	-0.022226
	H353	H	-0.122787	-0.014889	-0.005158
	O354	O	0.985449	1.116030	0.100373
	H355	H	0.995743	1.116108	0.113791
	H356	H	0.991643	1.107779	0.089189
	O357	O	-0.199317	1.089687	-0.014942
	H358	H	-0.199525	1.102381	-0.004497
	H359	H	-0.194965	1.085496	-0.000709
	O360	O	0.351292	0.370375	0.662209
	H361	H	0.345622	0.389037	0.667019
	H362	H	0.353397	0.368226	0.645691
	O363	O	0.465172	0.591857	0.684503
	H364	H	0.480068	0.582182	0.684328
	H365	H	0.472344	0.595989	0.676149
	O366	O	0.408999	0.383047	0.303134
	H367	H	0.418374	0.369150	0.323991
	H368	H	0.391803	0.370708	0.273880
	O369	O	0.355267	0.602062	0.376784
	H370	H	0.352641	0.616702	0.377895
	H371	H	0.371683	0.606187	0.388778
	O372	O	0.592875	0.467664	0.356068
	H373	H	0.596588	0.471645	0.365443
	H374	H	0.599573	0.447508	0.362254
	O375	O	0.706428	0.712682	0.515536
	H376	H	0.705945	0.704431	0.542310
	H377	H	0.731097	0.732550	0.516233
	O378	O	0.626620	0.491655	0.396509
	H379	H	0.639048	0.510413	0.385577
	H380	H	0.606329	0.488986	0.381372
	O381	O	0.460633	0.406312	0.598490
	H382	H	0.441988	0.410468	0.595198
	H383	H	0.458024	0.378946	0.604487
	O384	O	0.071574	1.192118	0.995876
	H385	H	0.068696	1.200047	1.006384
	H386	H	0.058420	1.186819	1.009899
	O387	O	0.955229	0.978207	-0.159544
	H388	H	0.964186	0.981440	-0.168812
	H389	H	0.962083	0.985441	-0.163762
	O390	O	0.491106	0.676399	0.401213
	H391	H	0.480442	0.679649	0.408286
	H392	H	0.493661	0.674850	0.371597
	O393	O	1.047193	-0.060525	0.808252
	H394	H	1.033624	-0.035081	0.801346
	H395	H	1.051229	-0.038479	0.820125
	O396	O	0.103094	0.824962	1.052298
	H397	H	0.107393	0.817129	1.030071
	H398	H	0.105339	0.833062	1.030468
	O399	O	0.438234	0.496950	0.585428
	H400	H	0.429612	0.502092	0.586742
	H401	H	0.431842	0.504755	0.575930
	O402	O	1.192799	-0.195013	0.833411
	H403	H	1.175669	-0.178719	0.826136
	H404	H	1.207635	-0.180667	0.825246
	O405	O	0.168926	0.103909	0.091708
	H406	H	0.167291	0.093608	0.098252
	H407	H	0.154656	0.111267	0.091515
	O408	O	0.789592	0.855501	0.965551
	H409	H	0.786649	0.858569	0.991000
	H410	H	0.766690	0.833919	0.987377
	O411	O	0.942102	1.103004	0.105106
	H412	H	0.955303	1.095206	0.098668
	H413	H	0.949922	1.089641	0.116704
	O414	O	-0.076611	-0.211984	1.157628
	H415	H	-0.058287	-0.228850	1.144511
	H416	H	-0.070486	-0.234009	1.151350
	O417	O	0.514683	0.292453	0.495587
	H418	H	0.494030	0.289540	0.469938
	H419	H	0.534405	0.285468	0.474391
	O420	O	-0.045072	1.092439	-0.119685
	H421	H	-0.054444	1.100772	-0.124347
	H422	H	-0.039013	1.097705	-0.116735
	O423	O	1.148720	0.181145	0.155725
	H424	H	1.150502	0.172118	0.164580
	H425	H	1.156475	0.175959	0.152093
	O426	O	0.189679	-0.026998	1.004408
	H427	H	0.177106	-0.022261	0.995902
	H428	H	0.198947	-0.037485	1.005248
	O429	O	0.680745	0.496348	0.595678
	H430	H	0.667645	0.489809	0.592812
	H431	H	0.679052	0.494619	0.595397
