data_Molecule from HDF5

_cell_length_a		16.699558
_cell_length_b		16.629402
_cell_length_c		16.579824
_cell_angle_alpha	90.052911
_cell_angle_beta	90.010367
_cell_angle_gamma	90.024533
_symmetry_space_group_name_H-M	'P 1'
_symmetry_Int_Tables_number		1

loop_
	_symmetry_equiv_pos_as_xyz
	x,y,z

loop_
	_atom_site_label
	_atom_site_type_symbol
	_atom_site_fract_x
	_atom_site_fract_y
	_atom_site_fract_z
	H0	H	0.399735	0.825220	0.714074
	H1	H	0.609868	0.134791	0.712096
	H2	H	0.610981	0.825177	0.269049
	H3	H	0.395116	0.132338	0.265858
	H4	H	0.725286	0.376723	0.835087
	H5	H	0.726319	0.584817	0.147734
	H6	H	0.282981	0.587937	0.837377
	H7	H	0.279986	0.370747	0.143974
	H8	H	0.853452	0.704649	0.380795
	H9	H	0.162114	0.699630	0.592685
	H10	H	0.851552	0.258087	0.597379
	H11	H	0.159170	0.255983	0.383781
	H12	H	0.851381	0.376274	0.712640
	H13	H	0.160611	0.586587	0.712292
	H14	H	0.850709	0.584976	0.268188
	H15	H	0.159505	0.371814	0.266985
	H16	H	0.399003	0.704057	0.837560
	H17	H	0.609230	0.700065	0.148440
	H18	H	0.610760	0.258903	0.836857
	H19	H	0.397277	0.255960	0.144249
	H20	H	0.729127	0.825889	0.382641
	H21	H	0.727839	0.133462	0.598140
	H22	H	0.281730	0.825546	0.598617
	H23	H	0.279813	0.132802	0.382926
	H24	H	0.900018	0.324252	0.211440
	H25	H	0.110311	0.635854	0.211411
	H26	H	0.113440	0.326601	0.766436
	H27	H	0.904228	0.637934	0.772973
	H28	H	0.228039	0.874325	0.336040
	H29	H	0.222498	0.081840	0.648822
	H30	H	0.782932	0.086192	0.336349
	H31	H	0.782786	0.870733	0.645231
	H32	H	0.353101	0.205258	0.883493
	H33	H	0.659946	0.204290	0.100505
	H34	H	0.351564	0.757739	0.097380
	H35	H	0.661512	0.760956	0.887424
	H36	H	0.351142	0.874667	0.214050
	H37	H	0.659381	0.088099	0.216446
	H38	H	0.350986	0.086470	0.769802
	H39	H	0.659469	0.874442	0.768207
	H40	H	0.898621	0.202152	0.336277
	H41	H	0.107053	0.198577	0.648158
	H42	H	0.109569	0.760716	0.333301
	H43	H	0.899521	0.756514	0.644885
	H44	H	0.232664	0.328495	0.879441
	H45	H	0.227865	0.635049	0.097568
	H46	H	0.783558	0.325194	0.096422
	H47	H	0.786978	0.637494	0.887605
	H48	H	0.417132	0.090800	0.581018
	H49	H	0.589041	0.869627	0.577987
	H50	H	0.597741	0.092958	0.402841
	H51	H	0.417696	0.869661	0.403309
	H52	H	0.595534	0.394671	0.102363
	H53	H	0.598344	0.572517	0.877756
	H54	H	0.420203	0.574018	0.103940
	H55	H	0.415343	0.398223	0.880832
	H56	H	0.115137	0.564840	0.399415
	H57	H	0.897491	0.563183	0.579503
	H58	H	0.115482	0.391351	0.574955
	H59	H	0.898106	0.395192	0.404527
	H60	H	0.115712	0.394084	0.581200
	H61	H	0.893005	0.571313	0.584234
	H62	H	0.118667	0.571477	0.397701
	H63	H	0.893906	0.391912	0.397508
	H64	H	0.412415	0.564024	0.103741
	H65	H	0.598291	0.570091	0.878945
	H66	H	0.593430	0.390248	0.104105
	H67	H	0.425852	0.395888	0.883981
	H68	H	0.589589	0.089468	0.402192
	H69	H	0.598080	0.867836	0.575901
	H70	H	0.412562	0.091340	0.578166
	H71	H	0.421638	0.871142	0.405284
	H72	H	0.915754	0.591344	0.079130
	H73	H	0.095029	0.370522	0.071708
	H74	H	0.086703	0.586497	0.907727
	H75	H	0.917069	0.370464	0.904797
	H76	H	0.090971	0.890433	0.601559
	H77	H	0.096225	0.068560	0.377775
	H78	H	0.915470	0.066037	0.602389
	H79	H	0.921670	0.892321	0.381108
	H80	H	0.613173	0.064896	0.906556
	H81	H	0.397106	0.069410	0.076520
	H82	H	0.616836	0.889843	0.079524
	H83	H	0.395346	0.891390	0.904093
	H84	H	0.616829	0.892851	0.081577
	H85	H	0.398519	0.065436	0.076082
	H86	H	0.617567	0.067512	0.898332
	H87	H	0.394564	0.891585	0.902454
	H88	H	0.918988	0.067554	0.602247
	H89	H	0.094247	0.065369	0.381042
	H90	H	0.095099	0.888016	0.603438
	H91	H	0.915175	0.890637	0.377811
	H92	H	0.101842	0.592033	0.908209
	H93	H	0.097615	0.366567	0.080686
	H94	H	0.915652	0.592497	0.080321
	H95	H	0.910785	0.368037	0.900951
	H96	H	0.412506	0.093226	0.583248
	H97	H	0.594822	0.865703	0.584487
	H98	H	0.593942	0.088873	0.409824
	H99	H	0.417375	0.870780	0.407637
	H100	H	0.597727	0.391290	0.105108
	H101	H	0.595846	0.572061	0.878477
	H102	H	0.423755	0.563378	0.098490
	H103	H	0.420018	0.387615	0.878654
	H104	H	0.115606	0.570249	0.404982
	H105	H	0.895978	0.572123	0.574104
	H106	H	0.118342	0.388236	0.579943
	H107	H	0.894515	0.386914	0.404887
	H108	H	0.917052	0.591713	0.080145
	H109	H	0.088398	0.370283	0.079395
	H110	H	0.093464	0.593445	0.894689
	H111	H	0.917583	0.368046	0.897490
	H112	H	0.095637	0.892919	0.602091
	H113	H	0.092152	0.069776	0.379048
	H114	H	0.915976	0.069834	0.603838
	H115	H	0.915749	0.897314	0.380662
	H116	H	0.617396	0.073576	0.905632
	H117	H	0.396532	0.066543	0.079775
	H118	H	0.618436	0.889483	0.083095
	H119	H	0.394131	0.890267	0.903698
	C120	C	0.382634	-0.011048	0.613437
	C121	C	0.626416	0.970443	0.612321
	C122	C	0.626554	-0.011518	0.370868
	C123	C	0.384699	0.972048	0.371212
	C124	C	0.627438	0.359852	0.000612
	C125	C	0.628155	0.602550	0.982582
	C126	C	0.385454	0.601075	-0.000030
	C127	C	0.385519	0.359648	0.982759
	C128	C	0.014143	0.601290	0.368190
	C129	C	0.997794	0.601401	0.610988
	C130	C	0.014010	0.359574	0.611724
	C131	C	0.997263	0.358003	0.369185
	C132	C	0.884215	0.488548	0.111981
	C133	C	0.126983	0.471307	0.111320
	C134	C	0.127544	0.488789	0.869446
	C135	C	0.884650	0.472202	0.869753
	C136	C	0.126722	0.858414	0.499001
	C137	C	0.125939	0.100102	0.482658
	C138	C	0.883992	0.100776	0.499927
	C139	C	0.884506	0.858799	0.481755
	C140	C	0.514065	0.101363	0.870654
	C141	C	0.498239	0.101728	0.112629
	C142	C	0.514486	0.858548	0.113506
	C143	C	0.497224	0.858896	0.870223
	C144	C	0.380914	0.871581	0.673527
	C145	C	0.628507	0.087628	0.672444
	C146	C	0.629411	0.871885	0.309080
	C147	C	0.378838	0.086833	0.307663
	C148	C	0.686032	0.358026	0.882395
	C149	C	0.686212	0.603233	0.100914
	C150	C	0.324030	0.605327	0.883593
	C151	C	0.322039	0.354117	0.097883
	C152	C	0.898917	0.663048	0.364042
	C153	C	0.115097	0.660524	0.611818
	C154	C	0.897880	0.298965	0.615088
	C155	C	0.112989	0.296560	0.365922
	C156	C	0.897719	0.357841	0.672126
	C157	C	0.114473	0.604245	0.671143
	C158	C	0.897744	0.603678	0.307893
	C159	C	0.113179	0.354292	0.307932
	C160	C	0.381625	0.662973	0.883647
	C161	C	0.628058	0.660418	0.101280
	C162	C	0.629254	0.299534	0.883197
	C163	C	0.380248	0.297021	0.098347
	C164	C	0.687883	0.872068	0.365934
	C165	C	0.687090	0.087071	0.615615
	C166	C	0.322537	0.871901	0.616340
	C167	C	0.321459	0.086789	0.365705
	C168	C	0.881963	0.371208	0.171610
	C169	C	0.129122	0.588612	0.171846
	C170	C	0.131545	0.373065	0.806987
	C171	C	0.884941	0.590627	0.811877
	C172	C	0.187387	0.856138	0.382338
	C173	C	0.183649	0.101015	0.601304
	C174	C	0.823368	0.103838	0.382949
	C175	C	0.823533	0.853977	0.598463
	C176	C	0.398619	0.163485	0.866608
	C177	C	0.613507	0.163660	0.117643
	C178	C	0.397847	0.798087	0.115898
	C179	C	0.614329	0.799997	0.868305
	C180	C	0.397524	0.856231	0.173593
	C181	C	0.613466	0.105747	0.175180
	C182	C	0.397738	0.104571	0.809887
	C183	C	0.613327	0.856479	0.809121
	C184	C	0.880983	0.161393	0.382894
	C185	C	0.126203	0.158907	0.601093
	C186	C	0.128656	0.799696	0.380944
	C187	C	0.881498	0.796951	0.598251
	C188	C	0.190505	0.373938	0.863473
	C189	C	0.187338	0.588286	0.114870
	C190	C	0.823876	0.371927	0.114486
	C191	C	0.826451	0.590316	0.868859
	C192	C	0.407365	0.070715	0.588203
	C193	C	0.601149	0.888877	0.586743
	C194	C	0.600906	0.069277	0.397428
	C195	C	0.411512	0.891529	0.397905
	C196	C	0.602780	0.384996	0.082479
	C197	C	0.604164	0.578514	0.899891
	C198	C	0.411421	0.574552	0.080918
	C199	C	0.412723	0.386449	0.902205
	C200	C	0.095340	0.576031	0.393498
	C201	C	0.916724	0.576125	0.586243
	C202	C	0.095366	0.384359	0.586135
	C203	C	0.916403	0.384063	0.395007
	C204	C	0.909160	0.570574	0.086897
	C205	C	0.101151	0.390354	0.084907
	C206	C	0.101266	0.569624	0.896157
	C207	C	0.908425	0.390100	0.894151
	C208	C	0.101125	0.883349	0.581020
	C209	C	0.101360	0.075217	0.400576
	C210	C	0.909543	0.075215	0.581578
	C211	C	0.910203	0.885743	0.400851
	C212	C	0.594899	0.075787	0.896211
	C213	C	0.418047	0.074727	0.085383
	C214	C	0.595988	0.883727	0.088669
	C215	C	0.415740	0.883999	0.895970
	Zn216	Zn	0.504987	-0.019970	0.741192
	Zn217	Zn	0.505584	-0.019549	0.241741
	Zn218	Zn	0.755693	0.481009	-0.008892
	Zn219	Zn	0.256499	0.480237	-0.009101
	Zn220	Zn	0.005648	0.730381	0.489377
	Zn221	Zn	0.005411	0.229048	0.491313
	Zn222	Zn	0.006078	0.480944	0.741007
	Zn223	Zn	0.005812	0.479726	0.239947
	Zn224	Zn	0.506436	0.730153	-0.008146
	Zn225	Zn	0.506541	0.231015	-0.008278
	Zn226	Zn	0.755905	-0.020537	0.491208
	Zn227	Zn	0.255076	-0.020472	0.491466
	N228	N	0.417538	0.945540	0.671968
	N229	N	0.591467	0.013927	0.670673
	N230	N	0.591822	0.945277	0.311896
	N231	N	0.417766	0.014376	0.311149
	N232	N	0.685115	0.394638	0.956487
	N233	N	0.686453	0.568193	0.026040
	N234	N	0.326180	0.567598	0.956980
	N235	N	0.325060	0.392203	0.024636
	N236	N	0.972442	0.661592	0.400887
	N237	N	0.041497	0.659086	0.575199
	N238	N	0.971398	0.299814	0.578168
	N239	N	0.039760	0.298493	0.403270
	N240	N	0.971143	0.394636	0.670222
	N241	N	0.040614	0.568116	0.670933
	N242	N	0.970488	0.565784	0.310519
	N243	N	0.040055	0.391792	0.309671
	N244	N	0.419288	0.660519	0.957031
	N245	N	0.592635	0.660170	0.026452
	N246	N	0.593560	0.300333	0.957708
	N247	N	0.419327	0.300594	0.025792
	N248	N	0.686260	0.945628	0.403516
	N249	N	0.686131	0.013080	0.579032
	N250	N	0.323580	0.945845	0.579714
	N251	N	0.324935	0.014299	0.404574
	N252	N	0.918844	0.445146	0.170347
	N253	N	0.092188	0.514850	0.169894
	N254	N	0.093034	0.445614	0.810514
	N255	N	0.920487	0.516192	0.812102
	N256	N	0.186464	0.891728	0.457022
	N257	N	0.183690	0.065152	0.526532
	N258	N	0.825202	0.066848	0.456890
	N259	N	0.824994	0.891660	0.524874
	N260	N	0.471904	0.161652	0.903840
	N261	N	0.540542	0.161369	0.079645
	N262	N	0.471574	0.799494	0.079333
	N263	N	0.540878	0.801320	0.905698
	N264	N	0.471211	0.893092	0.172367
	N265	N	0.540534	0.067857	0.172415
	N266	N	0.470593	0.066651	0.812081
	N267	N	0.539304	0.892213	0.810187
	N268	N	0.917936	0.159800	0.456770
	N269	N	0.091423	0.158851	0.526128
	N270	N	0.091667	0.800981	0.454780
	N271	N	0.918619	0.799539	0.524494
	N272	N	0.188229	0.447011	0.901636
	N273	N	0.186363	0.514301	0.078050
	N274	N	0.824981	0.446071	0.078388
	N275	N	0.825822	0.515570	0.903925
	O276	O	-0.142011	0.886181	0.062590
	H277	H	-0.151935	0.885728	0.070505
	H278	H	-0.148796	0.879343	0.051292
	O279	O	0.315085	0.668471	0.681148
	H280	H	0.320253	0.658259	0.680585
	H281	H	0.328654	0.662710	0.673657
	O282	O	1.289494	0.265076	0.699168
	H283	H	1.279110	0.272606	0.691833
	H284	H	1.274511	0.247555	0.694330
	O285	O	0.285123	0.476378	0.667732
	H286	H	0.273637	0.475650	0.663059
	H287	H	0.277208	0.474739	0.670908
	O288	O	-0.142200	0.988086	1.212752
	H289	H	-0.150700	0.992797	1.216180
	H290	H	-0.140901	1.000739	1.206300
	O291	O	0.530543	0.628710	0.549760
	H292	H	0.540753	0.624023	0.561631
	H293	H	0.528428	0.617803	0.550971
	O294	O	1.154463	0.028640	1.203784
	H295	H	1.172366	0.033701	1.212336
	H296	H	1.131779	0.014188	1.214826
	O297	O	0.196272	0.796071	0.177704
	H298	H	0.177186	0.819471	0.167805
	H299	H	0.182621	0.809582	0.157652
	O300	O	0.068876	-0.081239	1.034157
	H301	H	0.070769	-0.074120	1.016759
	H302	H	0.060318	-0.084153	1.025602
	O303	O	0.520180	0.286506	0.519848
	H304	H	0.503998	0.277659	0.518070
	H305	H	0.511303	0.278023	0.524912
	O306	O	0.458728	0.472457	0.454948
	H307	H	0.443842	0.466433	0.457629
	H308	H	0.453250	0.466407	0.442432
	O309	O	0.115489	1.102773	1.102592
	H310	H	0.122106	1.104349	1.114260
	H311	H	0.123746	1.097990	1.096994
	O312	O	-0.017392	0.758815	1.192289
	H313	H	-0.046686	0.763698	1.180365
	H314	H	-0.019292	0.737397	1.218657
	O315	O	0.531761	0.697929	1.711029
	H316	H	0.537749	0.707706	1.715378
	H317	H	0.542529	0.703685	1.714558
	O318	O	0.740399	0.416626	0.548012
	H319	H	0.743331	0.420671	0.545649
	H320	H	0.744653	0.410087	0.545734
	O321	O	-0.202858	1.188970	0.784549
	H322	H	-0.203418	1.171807	0.804551
	H323	H	-0.235983	1.221242	0.752896
	O324	O	0.791444	0.759476	0.034149
	H325	H	0.781156	0.753000	0.041430
	H326	H	0.788924	0.747763	0.036779
	O327	O	0.044711	-0.045808	1.033479
	H328	H	0.045314	-0.042019	1.029594
	H329	H	0.053105	-0.035804	1.023479
	O330	O	0.643156	0.465536	0.714689
	H331	H	0.643673	0.462026	0.714559
	H332	H	0.616926	0.485317	0.712517
	O333	O	1.049719	0.164176	0.880558
	H334	H	1.035431	0.167561	0.864154
	H335	H	1.056525	0.164413	0.885574
	O336	O	0.319101	0.291567	0.302300
	H337	H	0.330448	0.301569	0.305935
	H338	H	0.333245	0.304925	0.322549
	O339	O	0.461494	0.280035	0.707074
	H340	H	0.439010	0.250580	0.731430
	H341	H	0.450863	0.283744	0.705720
	O342	O	-0.282627	0.273630	0.285388
	H343	H	-0.257630	0.247032	0.271954
	H344	H	-0.294974	0.306208	0.276730
	O345	O	0.213851	1.195323	1.199604
	H346	H	0.206493	1.164597	1.193920
	H347	H	0.241463	1.210043	1.221361
	O348	O	0.153223	0.063283	0.073227
	H349	H	0.154194	0.055386	0.069457
	H350	H	0.164038	0.071377	0.071874
	O351	O	0.294733	0.690564	0.279474
	H352	H	0.276364	0.712915	0.279295
	H353	H	0.299297	0.695547	0.276855
	O354	O	0.045380	0.060961	0.810869
	H355	H	0.039105	0.068359	0.806992
	H356	H	0.046744	0.057672	0.811380
	O357	O	0.459777	0.548704	0.457612
	H358	H	0.463262	0.542412	0.451053
	H359	H	0.462509	0.554954	0.461359
	O360	O	0.327626	0.416565	0.430821
	H361	H	0.338674	0.427301	0.415930
	H362	H	0.324647	0.425540	0.436077
	O363	O	-0.010083	-0.071144	0.194872
	H364	H	-0.027540	-0.076538	0.189574
	H365	H	-0.017510	-0.076594	0.183847
	O366	O	0.744074	0.533995	0.426555
	H367	H	0.734589	0.521055	0.426827
	H368	H	0.746220	0.544546	0.426307
	O369	O	1.200806	0.058484	-0.202029
	H370	H	1.195365	0.050280	-0.203449
	H371	H	1.204398	0.050778	-0.205741
	O372	O	1.049302	0.771320	0.062838
	H373	H	1.033665	0.782609	0.045658
	H374	H	1.036967	0.760413	0.069203
	O375	O	0.754319	-0.268555	-0.260567
	H376	H	0.752050	-0.308290	-0.270921
	H377	H	0.758322	-0.246479	-0.255744
	O378	O	0.699887	0.275633	0.442931
	H379	H	0.717554	0.275815	0.432372
	H380	H	0.702966	0.262190	0.426486
	O381	O	-0.225390	1.004010	1.036987
	H382	H	-0.233605	0.997553	1.025390
	H383	H	-0.222705	1.018297	1.015439
	O384	O	0.994745	0.202023	1.076535
	H385	H	0.998458	0.218722	1.072356
	H386	H	0.998496	0.198581	1.087313
	O387	O	1.515195	1.541999	-0.444930
	H388	H	1.521853	1.535145	-0.456746
	H389	H	1.512961	1.528970	-0.438599
	O390	O	0.461577	0.543469	0.727510
	H391	H	0.450293	0.551954	0.727950
	H392	H	0.449147	0.553534	0.725346
	O393	O	0.310496	0.531207	0.505143
	H394	H	0.317392	0.531922	0.495462
	H395	H	0.313361	0.538149	0.498999
	O396	O	0.213629	0.772510	0.786088
	H397	H	0.235160	0.761816	0.783979
	H398	H	0.200361	0.781939	0.803448
	O399	O	-0.206999	-0.231021	1.201391
	H400	H	-0.196332	-0.189952	1.208428
	H401	H	-0.227245	-0.249103	1.200178
	O402	O	0.290421	0.697908	0.452419
	H403	H	0.273085	0.712807	0.451935
	H404	H	0.293322	0.692794	0.452617
	O405	O	1.221894	-0.236700	0.957377
	H406	H	1.219251	-0.241815	0.960077
	H407	H	1.230655	-0.246669	0.962829
	O408	O	0.146944	-0.018343	0.056022
	H409	H	0.152243	-0.043495	0.047095
	H410	H	0.139342	-0.021105	0.044352
	O411	O	1.214407	1.100110	0.874725
	H412	H	1.206868	1.106553	0.891777
	H413	H	1.199606	1.097986	0.879938
	O414	O	0.371369	0.612158	0.505935
	H415	H	0.373363	0.619238	0.493516
	H416	H	0.369158	0.618911	0.499451
	O417	O	0.568254	0.436295	0.431353
	H418	H	0.561779	0.423681	0.418448
	H419	H	0.567584	0.432835	0.437183
	O420	O	0.511700	0.356803	0.583883
	H421	H	0.511446	0.343954	0.575411
	H422	H	0.525048	0.365998	0.582675
	O423	O	-0.020585	0.112829	0.796512
	H424	H	-0.031415	0.107571	0.795219
	H425	H	-0.023100	0.116826	0.790350
	O426	O	0.539308	0.509726	0.295059
	H427	H	0.527071	0.493794	0.288121
	H428	H	0.531437	0.520709	0.295789
	O429	O	1.191157	0.955043	0.855262
	H430	H	1.200625	0.961044	0.837341
	H431	H	1.199627	0.958187	0.857708
	O432	O	0.950388	-0.094948	0.782009
	H433	H	0.937337	-0.103226	0.784710
	H434	H	0.958658	-0.090939	0.781963
	O435	O	0.278971	1.508709	0.276976
	H436	H	0.253265	1.512796	0.251288
	H437	H	0.290984	1.541589	0.284144
	O438	O	0.699834	0.287261	-0.315903
	H439	H	0.677209	0.301589	-0.332213
	H440	H	0.680875	0.308153	-0.332965
	O441	O	-0.176050	-0.112693	-0.064820
	H442	H	-0.164992	-0.100345	-0.071749
	H443	H	-0.173460	-0.113366	-0.081615
	O444	O	0.728250	0.693667	0.507605
	H445	H	0.726227	0.710122	0.515420
	H446	H	0.740437	0.687976	0.512030
	O447	O	0.036030	0.853484	0.972388
	H448	H	0.046877	0.859235	0.971712
	H449	H	0.027509	0.859738	0.966345
	O450	O	0.040541	0.759318	0.777326
	H451	H	0.051862	0.749516	0.764818
	H452	H	0.044442	0.756526	0.770310
	O453	O	0.721687	0.581505	0.697758
	H454	H	0.724881	0.568579	0.689561
	H455	H	0.689979	0.571640	0.702752
	O456	O	-0.217491	0.198332	0.962592
	H457	H	-0.230678	0.218939	0.957513
	H458	H	-0.212559	0.203285	0.957346
	O459	O	0.818655	1.166021	0.178132
	H460	H	0.829118	1.157416	0.170636
	H461	H	0.836264	1.145737	0.162410
	O462	O	0.471847	0.691175	0.273494
	H463	H	0.469874	0.715546	0.256547
	H464	H	0.461118	0.692727	0.284867
	O465	O	0.806274	-0.133779	-0.211077
	H466	H	0.809526	-0.126663	-0.217782
	H467	H	0.809814	-0.119411	-0.194315
	O468	O	0.694101	0.669971	0.306506
	H469	H	0.696142	0.673551	0.312509
	H470	H	0.678730	0.650266	0.316545
	O471	O	0.555871	0.711848	0.423907
	H472	H	0.569690	0.711203	0.418611
	H473	H	0.543460	0.707781	0.433775
	O474	O	0.485618	0.252387	0.452398
	H475	H	0.501831	0.251486	0.442924
	H476	H	0.479248	0.247117	0.438655
	O477	O	0.285392	0.256490	1.526595
	H478	H	0.286023	0.270527	1.520174
	H479	H	0.264309	0.236468	1.516184
	O480	O	0.725506	0.445247	0.277294
	H481	H	0.736242	0.440963	0.257453
	H482	H	0.723298	0.459776	0.279329
	O483	O	0.461565	0.355743	0.264858
	H484	H	0.461026	0.360395	0.265272
	H485	H	0.476729	0.344605	0.254255
	O486	O	0.563901	0.311672	0.302630
	H487	H	0.564187	0.310649	0.303115
	H488	H	0.581260	0.310333	0.300635
	O489	O	1.172363	1.161390	0.032973
	H490	H	1.173708	1.181019	0.038505
	H491	H	1.172425	1.167062	0.049029
	O492	O	-0.071085	0.171571	0.017114
	H493	H	-0.066829	0.171323	0.016376
	H494	H	-0.076446	0.176417	0.027312
	O495	O	-0.014060	1.065058	0.951417
	H496	H	-0.021735	1.077233	0.946362
	H497	H	-0.006162	1.062798	0.955418
	O498	O	0.787782	1.025628	0.845785
	H499	H	0.790130	1.019366	0.830946
	H500	H	0.784943	1.030731	0.854643
	O501	O	0.486019	0.405317	0.630176
	H502	H	0.473573	0.410058	0.636787
	H503	H	0.482876	0.417198	0.629045
