data_Molecule from HDF5

_cell_length_a		16.256767
_cell_length_b		16.206903
_cell_length_c		16.297571
_cell_angle_alpha	90.167109
_cell_angle_beta	90.106881
_cell_angle_gamma	90.045114
_symmetry_space_group_name_H-M	'P 1'
_symmetry_Int_Tables_number		1

loop_
	_symmetry_equiv_pos_as_xyz
	x,y,z

loop_
	_atom_site_label
	_atom_site_type_symbol
	_atom_site_fract_x
	_atom_site_fract_y
	_atom_site_fract_z
	H0	H	0.404895	0.838157	0.710652
	H1	H	0.602784	0.166824	0.712473
	H2	H	0.602196	0.839289	0.281816
	H3	H	0.404965	0.166668	0.283801
	H4	H	0.718884	0.402427	0.835937
	H5	H	0.718212	0.602075	0.162841
	H6	H	0.287996	0.600701	0.835884
	H7	H	0.289934	0.404724	0.163772
	H8	H	0.839967	0.716149	0.400886
	H9	H	0.167774	0.716921	0.597820
	H10	H	0.839585	0.288898	0.597126
	H11	H	0.167181	0.288306	0.400819
	H12	H	0.840729	0.401508	0.715195
	H13	H	0.167772	0.601719	0.713492
	H14	H	0.841552	0.602512	0.282993
	H15	H	0.167496	0.403385	0.284885
	H16	H	0.404579	0.715104	0.834932
	H17	H	0.601158	0.717771	0.161720
	H18	H	0.600411	0.289120	0.835041
	H19	H	0.405929	0.287831	0.163054
	H20	H	0.717649	0.838248	0.398255
	H21	H	0.716104	0.167540	0.594971
	H22	H	0.291162	0.837934	0.594554
	H23	H	0.289522	0.166860	0.399615
	H24	H	0.904575	0.339089	0.213341
	H25	H	0.104527	0.666568	0.215560
	H26	H	0.102045	0.338849	0.785167
	H27	H	0.904818	0.667356	0.784897
	H28	H	0.216721	0.903045	0.335181
	H29	H	0.219410	0.102407	0.661550
	H30	H	0.788232	0.100753	0.335289
	H31	H	0.787540	0.903075	0.661881
	H32	H	0.339673	0.215730	0.900620
	H33	H	0.667933	0.215610	0.095978
	H34	H	0.338420	0.790151	0.094463
	H35	H	0.667283	0.788491	0.900730
	H36	H	0.339617	0.903049	0.212282
	H37	H	0.666775	0.101912	0.212442
	H38	H	0.339771	0.100810	0.783653
	H39	H	0.666540	0.901938	0.781722
	H40	H	0.904276	0.217270	0.335664
	H41	H	0.102823	0.217546	0.662208
	H42	H	0.099577	0.787892	0.335957
	H43	H	0.905912	0.788685	0.662885
	H44	H	0.217139	0.338180	0.901158
	H45	H	0.217206	0.667902	0.098214
	H46	H	0.789483	0.338270	0.096970
	H47	H	0.788672	0.667193	0.900554
	H48	H	0.417065	0.118720	0.590916
	H49	H	0.593982	0.888802	0.582452
	H50	H	0.597086	0.118335	0.411430
	H51	H	0.414792	0.885004	0.398601
	H52	H	0.605794	0.401212	0.121238
	H53	H	0.601705	0.592917	0.881248
	H54	H	0.408655	0.593374	0.115329
	H55	H	0.409122	0.413699	0.884515
	H56	H	0.119385	0.595982	0.413335
	H57	H	0.888419	0.601106	0.581638
	H58	H	0.119112	0.410391	0.587536
	H59	H	0.889666	0.404956	0.421047
	H60	H	0.119551	0.415019	0.596407
	H61	H	0.890303	0.583499	0.594316
	H62	H	0.119443	0.588749	0.404648
	H63	H	0.889712	0.425369	0.400801
	H64	H	0.414042	0.597113	0.115060
	H65	H	0.592987	0.591218	0.884989
	H66	H	0.600296	0.420275	0.113764
	H67	H	0.413607	0.407346	0.883190
	H68	H	0.600902	0.122851	0.401231
	H69	H	0.603397	0.882456	0.592033
	H70	H	0.407590	0.119173	0.586500
	H71	H	0.412496	0.887722	0.410396
	H72	H	0.910381	0.619891	0.089249
	H73	H	0.090207	0.388905	0.088026
	H74	H	0.099112	0.620741	0.904700
	H75	H	0.913876	0.384138	0.897071
	H76	H	0.105117	0.914415	0.615764
	H77	H	0.094108	0.095703	0.382358
	H78	H	0.912778	0.100571	0.615683
	H79	H	0.902031	0.910233	0.380431
	H80	H	0.621957	0.092335	0.896245
	H81	H	0.388438	0.093393	0.085732
	H82	H	0.619538	0.907106	0.088358
	H83	H	0.382045	0.901508	0.898387
	H84	H	0.618067	0.914242	0.087668
	H85	H	0.385800	0.092045	0.096206
	H86	H	0.623750	0.103983	0.906315
	H87	H	0.387926	0.908165	0.912453
	H88	H	0.904860	0.094783	0.616600
	H89	H	0.097589	0.096563	0.380829
	H90	H	0.091137	0.913135	0.613408
	H91	H	0.914139	0.915614	0.385775
	H92	H	0.094430	0.620177	0.904667
	H93	H	0.104030	0.384852	0.088469
	H94	H	0.911317	0.620355	0.094218
	H95	H	0.918633	0.390786	0.912259
	H96	H	0.408887	0.122972	0.596632
	H97	H	0.589715	0.885549	0.596137
	H98	H	0.589756	0.118321	0.402140
	H99	H	0.402629	0.882615	0.402847
	H100	H	0.586108	0.405152	0.113667
	H101	H	0.594981	0.599833	0.880782
	H102	H	0.408271	0.599120	0.117346
	H103	H	0.406305	0.407130	0.881437
	H104	H	0.122845	0.600045	0.402841
	H105	H	0.881607	0.602360	0.603067
	H106	H	0.122912	0.405598	0.595090
	H107	H	0.880340	0.399133	0.394731
	H108	H	0.914353	0.619029	0.091283
	H109	H	0.096049	0.383675	0.100361
	H110	H	0.096457	0.619990	0.909101
	H111	H	0.902369	0.384268	0.910061
	H112	H	0.098522	0.902554	0.618907
	H113	H	0.096617	0.093777	0.383278
	H114	H	0.913695	0.090722	0.613956
	H115	H	0.913694	0.901661	0.381975
	H116	H	0.617645	0.090387	0.910440
	H117	H	0.384573	0.101240	0.091368
	H118	H	0.621047	0.911208	0.094514
	H119	H	0.388062	0.917401	0.898151
	C120	C	0.382400	0.011413	0.618975
	C121	C	0.624996	0.994135	0.619308
	C122	C	0.624550	0.011442	0.376137
	C123	C	0.381387	0.993739	0.375600
	C124	C	0.625675	0.380688	0.007797
	C125	C	0.625205	0.623971	0.990328
	C126	C	0.381799	0.623989	0.007438
	C127	C	0.381576	0.380983	0.991247
	C128	C	0.012668	0.623757	0.378070
	C129	C	0.994888	0.624653	0.621415
	C130	C	0.012001	0.381552	0.620821
	C131	C	0.994971	0.381104	0.377199
	C132	C	0.882648	0.511367	0.120304
	C133	C	0.125552	0.494516	0.121182
	C134	C	0.125305	0.511461	0.877864
	C135	C	0.882321	0.494653	0.877562
	C136	C	0.125285	0.881071	0.507640
	C137	C	0.125389	0.124349	0.490242
	C138	C	0.881788	0.123951	0.507158
	C139	C	0.881483	0.880669	0.490659
	C140	C	0.512401	0.124108	0.875980
	C141	C	0.494858	0.124223	0.119494
	C142	C	0.511335	0.882033	0.118432
	C143	C	0.494325	0.879990	0.875160
	C144	C	0.384721	0.887586	0.673177
	C145	C	0.622979	0.117725	0.674595
	C146	C	0.622105	0.887866	0.320470
	C147	C	0.384475	0.117822	0.321530
	C148	C	0.680510	0.382767	0.884514
	C149	C	0.680649	0.622501	0.113512
	C150	C	0.326225	0.621096	0.884535
	C151	C	0.327099	0.383633	0.114517
	C152	C	0.888997	0.678623	0.380347
	C153	C	0.118648	0.679589	0.618627
	C154	C	0.888799	0.325993	0.618123
	C155	C	0.118393	0.325919	0.380153
	C156	C	0.889028	0.382495	0.676300
	C157	C	0.118654	0.622257	0.676125
	C158	C	0.889721	0.621929	0.321983
	C159	C	0.118455	0.383167	0.322497
	C160	C	0.384255	0.677818	0.883986
	C161	C	0.622763	0.680260	0.113003
	C162	C	0.622095	0.326146	0.884151
	C163	C	0.385207	0.326016	0.114278
	C164	C	0.679681	0.887578	0.378104
	C165	C	0.679211	0.118209	0.616178
	C166	C	0.328231	0.887469	0.615374
	C167	C	0.327142	0.117782	0.379133
	C168	C	0.884848	0.387785	0.175062
	C169	C	0.123848	0.617941	0.176854
	C170	C	0.122698	0.387827	0.822756
	C171	C	0.884659	0.618189	0.822602
	C172	C	0.179174	0.883076	0.384094
	C173	C	0.181386	0.122655	0.612846
	C174	C	0.826335	0.121656	0.384091
	C175	C	0.825928	0.882918	0.613327
	C176	C	0.388747	0.178339	0.879447
	C177	C	0.618543	0.178454	0.116565
	C178	C	0.387651	0.827423	0.115138
	C179	C	0.618030	0.825595	0.878973
	C180	C	0.388281	0.883315	0.174026
	C181	C	0.617904	0.122088	0.174829
	C182	C	0.388662	0.121005	0.821726
	C183	C	0.617858	0.882491	0.820541
	C184	C	0.884027	0.179364	0.384325
	C185	C	0.123117	0.179838	0.613270
	C186	C	0.121203	0.825854	0.384526
	C187	C	0.885087	0.826477	0.614057
	C188	C	0.179807	0.387559	0.880735
	C189	C	0.180560	0.618341	0.119214
	C190	C	0.827473	0.387445	0.117336
	C191	C	0.826804	0.618237	0.879882
	C192	C	0.404714	0.097974	0.597610
	C193	C	0.602435	0.907815	0.596855
	C194	C	0.602355	0.097628	0.398157
	C195	C	0.403440	0.907549	0.397359
	C196	C	0.604012	0.402527	0.093836
	C197	C	0.603224	0.601196	0.904401
	C198	C	0.403710	0.602830	0.093496
	C199	C	0.403241	0.403035	0.905315
	C200	C	0.098380	0.601596	0.400418
	C201	C	0.909057	0.602330	0.599599
	C202	C	0.098224	0.403766	0.599093
	C203	C	0.909029	0.403336	0.399085
	C204	C	0.905189	0.597573	0.098120
	C205	C	0.103124	0.408065	0.098878
	C206	C	0.103072	0.598129	0.899800
	C207	C	0.904876	0.408588	0.900016
	C208	C	0.104284	0.903420	0.593724
	C209	C	0.102762	0.101999	0.404457
	C210	C	0.904013	0.101790	0.593087
	C211	C	0.903563	0.902571	0.404884
	C212	C	0.598749	0.101964	0.897733
	C213	C	0.408417	0.102059	0.097538
	C214	C	0.597460	0.904295	0.096609
	C215	C	0.408052	0.902321	0.896680
	Zn216	Zn	0.503310	0.002278	0.747536
	Zn217	Zn	0.502759	0.002823	0.247335
	Zn218	Zn	0.754047	0.502758	-0.000973
	Zn219	Zn	0.252850	0.503013	0.000136
	Zn220	Zn	0.003696	0.752002	0.499765
	Zn221	Zn	0.003283	0.253056	0.498853
	Zn222	Zn	0.003627	0.502856	0.749191
	Zn223	Zn	0.004205	0.503140	0.248930
	Zn224	Zn	0.502885	0.752369	-0.001912
	Zn225	Zn	0.503713	0.252142	-0.001374
	Zn226	Zn	0.752694	0.002412	0.498269
	Zn227	Zn	0.254135	0.002507	0.497823
	N228	N	0.417790	0.965703	0.675672
	N229	N	0.589830	0.039486	0.676678
	N230	N	0.588590	0.965787	0.319115
	N231	N	0.417581	0.039879	0.319371
	N232	N	0.682902	0.415982	0.962355
	N233	N	0.681973	0.587973	0.036211
	N234	N	0.324610	0.588348	0.962258
	N235	N	0.324644	0.416909	0.036881
	N236	N	0.966280	0.679644	0.414635
	N237	N	0.040874	0.681101	0.585287
	N238	N	0.966191	0.325518	0.583989
	N239	N	0.040745	0.324519	0.413443
	N240	N	0.966681	0.416104	0.678258
	N241	N	0.040927	0.588599	0.677925
	N242	N	0.967488	0.588600	0.320364
	N243	N	0.040742	0.416689	0.320366
	N244	N	0.418346	0.679461	0.961253
	N245	N	0.589181	0.681299	0.035572
	N246	N	0.588689	0.324938	0.961521
	N247	N	0.418196	0.324118	0.036574
	N248	N	0.681133	0.965272	0.412247
	N249	N	0.680354	0.040351	0.582549
	N250	N	0.326688	0.965488	0.582449
	N251	N	0.324917	0.039643	0.411737
	N252	N	0.918471	0.465704	0.176904
	N253	N	0.090282	0.539867	0.178193
	N254	N	0.089569	0.465871	0.820910
	N255	N	0.918259	0.540342	0.821118
	N256	N	0.181870	0.916648	0.461739
	N257	N	0.182738	0.088813	0.535474
	N258	N	0.825010	0.087865	0.461492
	N259	N	0.823737	0.915995	0.535705
	N260	N	0.466668	0.180400	0.912558
	N261	N	0.540906	0.179743	0.082953
	N262	N	0.465249	0.826448	0.081297
	N263	N	0.540231	0.824004	0.912139
	N264	N	0.466106	0.916649	0.176124
	N265	N	0.539870	0.089133	0.176835
	N266	N	0.466619	0.088040	0.819496
	N267	N	0.539931	0.915448	0.818039
	N268	N	0.917884	0.180691	0.461757
	N269	N	0.089065	0.181112	0.535811
	N270	N	0.088452	0.824482	0.462195
	N271	N	0.918715	0.824805	0.536667
	N272	N	0.181208	0.465416	0.914463
	N273	N	0.181482	0.540572	0.085175
	N274	N	0.826153	0.465232	0.083784
	N275	N	0.825030	0.540352	0.913271
	O276	O	0.545480	0.558272	0.583538
	H277	H	0.543515	0.561535	0.583311
	H278	H	0.548552	0.550867	0.588337
	O279	O	0.038744	0.040768	0.066449
	H280	H	0.035488	0.048329	0.064530
	H281	H	0.043701	0.045111	0.064521
	O282	O	0.519970	0.490969	0.576872
	H283	H	0.509958	0.496385	0.584299
	H284	H	0.517402	0.491473	0.578504
	O285	O	0.543737	0.558564	0.562430
	H286	H	0.543598	0.559702	0.565757
	H287	H	0.547885	0.565412	0.554173
	O288	O	1.028963	0.050203	0.075578
	H289	H	1.025168	0.046140	0.072785
	H290	H	1.018500	0.045839	0.076005
	O291	O	-0.445824	0.533534	-0.443665
	H292	H	-0.439038	0.527518	-0.446806
	H293	H	-0.428967	0.531240	-0.443385
	O294	O	0.529001	0.514620	0.534417
	H295	H	0.532797	0.512920	0.534987
	H296	H	0.525642	0.505947	0.534566
	O297	O	0.007134	1.076773	0.051105
	H298	H	0.002163	1.070591	0.053219
	H299	H	0.013822	1.082321	0.063596
	O300	O	0.985781	0.083153	1.065428
	H301	H	0.985536	0.081039	1.065651
	H302	H	0.993899	0.084479	1.068931
	O303	O	0.503462	0.469621	0.543203
	H304	H	0.494532	0.476230	0.545070
	H305	H	0.501348	0.477464	0.536638
	O306	O	0.006830	1.053836	1.050849
	H307	H	0.003900	1.050402	1.050164
	H308	H	0.010566	1.058643	1.045661
	O309	O	0.565419	0.544086	0.502026
	H310	H	0.571837	0.540734	0.507389
	H311	H	0.564791	0.538233	0.507979
