data_Molecule from HDF5

_cell_length_a		16.361276
_cell_length_b		16.385389
_cell_length_c		16.276067
_cell_angle_alpha	89.803149
_cell_angle_beta	90.256353
_cell_angle_gamma	89.856817
_symmetry_space_group_name_H-M	'P 1'
_symmetry_Int_Tables_number		1

loop_
	_symmetry_equiv_pos_as_xyz
	x,y,z

loop_
	_atom_site_label
	_atom_site_type_symbol
	_atom_site_fract_x
	_atom_site_fract_y
	_atom_site_fract_z
	H0	H	0.384309	0.836271	0.711152
	H1	H	0.586282	0.158104	0.711359
	H2	H	0.582677	0.835297	0.278265
	H3	H	0.379459	0.158199	0.273816
	H4	H	0.702091	0.396896	0.834541
	H5	H	0.701262	0.601913	0.156506
	H6	H	0.264416	0.600185	0.833093
	H7	H	0.267845	0.396680	0.156891
	H8	H	0.822766	0.717027	0.392358
	H9	H	0.143934	0.715577	0.599709
	H10	H	0.821538	0.279605	0.598087
	H11	H	0.143469	0.276358	0.391897
	H12	H	0.821546	0.397152	0.711846
	H13	H	0.144224	0.598403	0.713551
	H14	H	0.823381	0.603441	0.274474
	H15	H	0.145081	0.395412	0.278908
	H16	H	0.381689	0.714611	0.831363
	H17	H	0.583652	0.715228	0.156778
	H18	H	0.587646	0.280415	0.833525
	H19	H	0.379147	0.278089	0.155083
	H20	H	0.702403	0.836256	0.391046
	H21	H	0.703389	0.156500	0.597563
	H22	H	0.265970	0.836201	0.596269
	H23	H	0.262264	0.157233	0.389256
	H24	H	0.881203	0.338363	0.214588
	H25	H	0.085889	0.658836	0.212859
	H26	H	0.086071	0.336693	0.778038
	H27	H	0.881478	0.659190	0.776146
	H28	H	0.198859	0.895068	0.332838
	H29	H	0.201413	0.098696	0.656081
	H30	H	0.763022	0.100445	0.332856
	H31	H	0.765182	0.895055	0.655650
	H32	H	0.323003	0.219134	0.889021
	H33	H	0.643177	0.216796	0.098266
	H34	H	0.321636	0.780962	0.094703
	H35	H	0.642353	0.778267	0.891239
	H36	H	0.321588	0.895856	0.210669
	H37	H	0.643879	0.098354	0.212400
	H38	H	0.322827	0.101651	0.774363
	H39	H	0.645284	0.899098	0.779841
	H40	H	0.875518	0.219493	0.334727
	H41	H	0.085671	0.214403	0.656938
	H42	H	0.085734	0.778059	0.335391
	H43	H	0.880177	0.779135	0.656453
	H44	H	0.203703	0.337683	0.892430
	H45	H	0.200846	0.658791	0.097146
	H46	H	0.762796	0.338937	0.101388
	H47	H	0.763847	0.659154	0.891781
	H48	H	0.387079	0.114543	0.587419
	H49	H	0.576941	0.883088	0.583409
	H50	H	0.569662	0.110644	0.401219
	H51	H	0.388037	0.883064	0.404576
	H52	H	0.571987	0.407639	0.109335
	H53	H	0.568228	0.590275	0.880816
	H54	H	0.393014	0.586588	0.108620
	H55	H	0.395701	0.406381	0.879365
	H56	H	0.099496	0.585786	0.398742
	H57	H	0.867916	0.594422	0.581839
	H58	H	0.097953	0.399691	0.583521
	H59	H	0.870924	0.411204	0.404509
	H60	H	0.095062	0.409945	0.583559
	H61	H	0.869792	0.584358	0.583786
	H62	H	0.099210	0.594627	0.407861
	H63	H	0.868085	0.407116	0.403046
	H64	H	0.395341	0.593376	0.109922
	H65	H	0.575717	0.593927	0.877465
	H66	H	0.573029	0.407402	0.109906
	H67	H	0.389269	0.411792	0.879164
	H68	H	0.571927	0.109524	0.407291
	H69	H	0.574509	0.881401	0.588210
	H70	H	0.397125	0.111027	0.585079
	H71	H	0.389197	0.881473	0.399427
	H72	H	0.883437	0.615105	0.080769
	H73	H	0.068115	0.383001	0.092999
	H74	H	0.071734	0.611854	0.901951
	H75	H	0.889315	0.384349	0.908807
	H76	H	0.076670	0.906613	0.611273
	H77	H	0.069609	0.088029	0.380373
	H78	H	0.900116	0.081262	0.605165
	H79	H	0.889907	0.910668	0.379535
	H80	H	0.598114	0.089158	0.901712
	H81	H	0.365121	0.095011	0.087153
	H82	H	0.595322	0.914601	0.086514
	H83	H	0.367081	0.913305	0.894035
	H84	H	0.601447	0.900724	0.092116
	H85	H	0.370897	0.090068	0.072518
	H86	H	0.598855	0.092206	0.904803
	H87	H	0.365007	0.897115	0.902596
	H88	H	0.894598	0.097140	0.611687
	H89	H	0.071357	0.089284	0.379742
	H90	H	0.073980	0.908024	0.609844
	H91	H	0.896556	0.908982	0.381991
	H92	H	0.072061	0.610791	0.907640
	H93	H	0.074181	0.386890	0.077825
	H94	H	0.895025	0.614833	0.094179
	H95	H	0.890946	0.383002	0.901923
	H96	H	0.389805	0.110658	0.577433
	H97	H	0.571413	0.883588	0.584607
	H98	H	0.575857	0.112588	0.402933
	H99	H	0.393694	0.883181	0.402216
	H100	H	0.572736	0.407781	0.109974
	H101	H	0.575674	0.585565	0.879919
	H102	H	0.388451	0.592048	0.111992
	H103	H	0.395894	0.414483	0.882134
	H104	H	0.094477	0.583434	0.409846
	H105	H	0.865756	0.590513	0.591535
	H106	H	0.100091	0.405848	0.592214
	H107	H	0.870093	0.406561	0.408378
	H108	H	0.899946	0.607589	0.078698
	H109	H	0.084063	0.379969	0.088938
	H110	H	0.076674	0.613169	0.904245
	H111	H	0.895736	0.385178	0.906772
	H112	H	0.073836	0.905241	0.611053
	H113	H	0.071910	0.086936	0.380133
	H114	H	0.883366	0.082377	0.610794
	H115	H	0.892483	0.904047	0.378220
	H116	H	0.596596	0.088374	0.905834
	H117	H	0.370623	0.079341	0.085364
	H118	H	0.596360	0.901973	0.076354
	H119	H	0.372057	0.911487	0.911906
	C120	C	0.361714	0.005743	0.614783
	C121	C	0.605318	0.988572	0.616127
	C122	C	0.603530	0.005190	0.373192
	C123	C	0.359703	0.988740	0.370944
	C124	C	0.604612	0.377216	0.003815
	C125	C	0.603871	0.619962	0.986079
	C126	C	0.361151	0.620678	0.003361
	C127	C	0.362070	0.378201	0.986363
	C128	C	-0.008076	0.619467	0.374076
	C129	C	0.974567	0.619210	0.616334
	C130	C	-0.008594	0.375151	0.617019
	C131	C	0.975262	0.375875	0.374343
	C132	C	0.861733	0.506921	0.116720
	C133	C	0.105440	0.489443	0.116882
	C134	C	0.104889	0.506016	0.873686
	C135	C	0.861544	0.490259	0.874132
	C136	C	0.104972	0.875733	0.504137
	C137	C	0.103044	0.118337	0.486363
	C138	C	0.860599	0.118939	0.503062
	C139	C	0.862214	0.876846	0.486409
	C140	C	0.491961	0.121283	0.871932
	C141	C	0.474465	0.118820	0.114298
	C142	C	0.491301	0.875793	0.115313
	C143	C	0.474451	0.877256	0.873153
	C144	C	0.363872	0.884528	0.672567
	C145	C	0.605418	0.109774	0.672911
	C146	C	0.603164	0.883677	0.316158
	C147	C	0.359864	0.109773	0.312624
	C148	C	0.662991	0.377537	0.882497
	C149	C	0.661927	0.620421	0.108089
	C150	C	0.303230	0.620009	0.881421
	C151	C	0.304996	0.376782	0.107897
	C152	C	0.870952	0.678014	0.373159
	C153	C	0.095664	0.676429	0.617736
	C154	C	0.870129	0.318166	0.617106
	C155	C	0.095564	0.316287	0.373333
	C156	C	0.870097	0.376448	0.674135
	C157	C	0.095874	0.618112	0.674671
	C158	C	0.871285	0.621511	0.314387
	C159	C	0.096323	0.375445	0.317023
	C160	C	0.361783	0.676686	0.880571
	C161	C	0.603641	0.677059	0.108143
	C162	C	0.605831	0.319563	0.882135
	C163	C	0.360941	0.318111	0.106974
	C164	C	0.662488	0.884117	0.372555
	C165	C	0.663771	0.108987	0.616223
	C166	C	0.305181	0.884315	0.615289
	C167	C	0.301345	0.109542	0.370001
	C168	C	0.861799	0.386457	0.175507
	C169	C	0.105148	0.610513	0.174163
	C170	C	0.105186	0.385034	0.816442
	C171	C	0.861623	0.610987	0.815332
	C172	C	0.161149	0.875843	0.381938
	C173	C	0.162212	0.118259	0.607755
	C174	C	0.801863	0.120016	0.381531
	C175	C	0.804268	0.876057	0.607646
	C176	C	0.371114	0.179615	0.870395
	C177	C	0.595069	0.177301	0.116618
	C178	C	0.369869	0.819330	0.114437
	C179	C	0.595084	0.818456	0.872603
	C180	C	0.369890	0.876514	0.172075
	C181	C	0.595382	0.118398	0.173408
	C182	C	0.371007	0.121280	0.813268
	C183	C	0.596397	0.878447	0.817386
	C184	C	0.857827	0.179192	0.382592
	C185	C	0.104209	0.175486	0.608345
	C186	C	0.104840	0.817554	0.383062
	C187	C	0.861534	0.818437	0.607945
	C188	C	0.164033	0.385597	0.873469
	C189	C	0.162470	0.610509	0.116447
	C190	C	0.802713	0.386863	0.118962
	C191	C	0.803041	0.610939	0.872644
	C192	C	0.384442	0.090107	0.590366
	C193	C	0.581222	0.904407	0.592367
	C194	C	0.579545	0.089054	0.397082
	C195	C	0.383390	0.904438	0.395077
	C196	C	0.579958	0.400832	0.087938
	C197	C	0.580060	0.596708	0.901548
	C198	C	0.385200	0.597546	0.088286
	C199	C	0.386510	0.403514	0.902098
	C200	C	0.075855	0.595001	0.398519
	C201	C	0.889829	0.596276	0.592615
	C202	C	0.075883	0.398341	0.593328
	C203	C	0.891321	0.400937	0.398292
	C204	C	0.885792	0.590817	0.091864
	C205	C	0.082147	0.405212	0.093404
	C206	C	0.080454	0.590133	0.897653
	C207	C	0.885051	0.406023	0.898714
	C208	C	0.081669	0.899742	0.588656
	C209	C	0.078180	0.094792	0.402064
	C210	C	0.885532	0.094062	0.587262
	C211	C	0.886165	0.900999	0.401813
	C212	C	0.576107	0.096970	0.896741
	C213	C	0.390613	0.094998	0.089167
	C214	C	0.575902	0.898889	0.091872
	C215	C	0.389894	0.900583	0.896046
	Zn216	Zn	0.483710	-0.001701	0.744231
	Zn217	Zn	0.482924	-0.003169	0.243600
	Zn218	Zn	0.732407	0.498790	-0.004386
	Zn219	Zn	0.234035	0.498271	-0.004435
	Zn220	Zn	-0.016880	0.748570	0.495719
	Zn221	Zn	-0.017790	0.247178	0.495335
	Zn222	Zn	-0.017104	0.497324	0.744770
	Zn223	Zn	-0.015960	0.498045	0.245824
	Zn224	Zn	0.482907	0.748253	-0.006016
	Zn225	Zn	0.482655	0.249273	-0.006033
	Zn226	Zn	0.732800	-0.003182	0.494159
	Zn227	Zn	0.232111	-0.002535	0.494060
	N228	N	0.398369	0.961048	0.672379
	N229	N	0.569699	0.033952	0.672880
	N230	N	0.567177	0.959609	0.316478
	N231	N	0.394989	0.033536	0.312878
	N232	N	0.662486	0.412548	0.959045
	N233	N	0.662325	0.585800	0.031275
	N234	N	0.302725	0.585865	0.958784
	N235	N	0.305725	0.413305	0.031925
	N236	N	0.947124	0.677241	0.409180
	N237	N	0.019178	0.677279	0.582442
	N238	N	0.946792	0.316971	0.582849
	N239	N	0.019034	0.316456	0.408146
	N240	N	0.946685	0.411048	0.674356
	N241	N	0.019506	0.583252	0.673945
	N242	N	0.947322	0.585770	0.314739
	N243	N	0.020427	0.411777	0.317415
	N244	N	0.397003	0.677230	0.957347
	N245	N	0.568236	0.677274	0.031410
	N246	N	0.570199	0.319129	0.958516
	N247	N	0.395608	0.318661	0.030103
	N248	N	0.662860	0.960555	0.407307
	N249	N	0.664004	0.032503	0.581920
	N250	N	0.303694	0.960752	0.580147
	N251	N	0.300820	0.033215	0.405223
	N252	N	0.897771	0.462134	0.174358
	N253	N	0.070364	0.534228	0.174781
	N254	N	0.069129	0.460830	0.816492
	N255	N	0.897303	0.534977	0.816094
	N256	N	0.161226	0.911401	0.458245
	N257	N	0.161717	0.083616	0.530941
	N258	N	0.803522	0.083240	0.457438
	N259	N	0.804528	0.911555	0.531163
	N260	N	0.447461	0.179811	0.906003
	N261	N	0.518979	0.177704	0.080473
	N262	N	0.446420	0.818753	0.080019
	N263	N	0.518215	0.817593	0.906445
	N264	N	0.446402	0.910920	0.172802
	N265	N	0.519458	0.082667	0.172083
	N266	N	0.447233	0.085836	0.813993
	N267	N	0.520482	0.914396	0.817760
	N268	N	0.893891	0.178568	0.459060
	N269	N	0.068128	0.175835	0.531861
	N270	N	0.070752	0.817124	0.459998
	N271	N	0.896971	0.818759	0.531434
	N272	N	0.164175	0.462095	0.908144
	N273	N	0.163077	0.534196	0.081843
	N274	N	0.802544	0.462944	0.083179
	N275	N	0.802863	0.534823	0.908412
	O276	O	0.973403	0.028910	0.066641
	H277	H	0.986540	0.016190	0.065833
	H278	H	0.976171	0.039278	0.071312
	O279	O	0.393063	0.410581	0.591964
	H280	H	0.392964	0.403405	0.584102
	H281	H	0.409513	0.413712	0.587597
	O282	O	0.463343	0.296215	0.689031
	H283	H	0.466224	0.273468	0.715182
	H284	H	0.450866	0.297556	0.668805
	O285	O	1.169294	-0.156666	-0.165249
	H286	H	1.181363	-0.163425	-0.174414
	H287	H	1.172350	-0.137927	-0.149086
	O288	O	0.084123	0.071798	0.922137
	H289	H	0.080890	0.075939	0.917864
	H290	H	0.083575	0.064264	0.918766
	O291	O	0.317374	0.422595	0.562714
	H292	H	0.321116	0.419520	0.562904
	H293	H	0.305988	0.435439	0.554402
	O294	O	0.438361	0.516325	0.645060
	H295	H	0.430331	0.505164	0.652377
	H296	H	0.438209	0.508711	0.646062
	O297	O	1.091127	1.018218	0.876379
	H298	H	1.094340	1.009212	0.869076
	H299	H	1.095987	1.011192	0.883468
	O300	O	0.012248	0.044982	0.072249
	H301	H	0.014299	0.036957	0.071178
	H302	H	0.022080	0.041979	0.079044
	O303	O	0.288490	0.594718	0.320242
	H304	H	0.278165	0.607711	0.306448
	H305	H	0.292964	0.595814	0.325561
	O306	O	1.042605	-0.116676	-0.160704
	H307	H	1.065007	-0.129498	-0.168873
	H308	H	1.055195	-0.113866	-0.170158
	O309	O	0.835909	0.995644	0.833228
	H310	H	0.844390	0.999886	0.806755
	H311	H	0.847066	1.013038	0.837255
	O312	O	0.854312	1.099023	-0.179712
	H313	H	0.860402	1.106153	-0.161601
	H314	H	0.840881	1.120016	-0.193395
	O315	O	0.975128	-0.100637	0.178348
	H316	H	0.980696	-0.094959	0.172855
	H317	H	0.958227	-0.082651	0.173276
	O318	O	0.576585	0.456264	0.307538
	H319	H	0.577918	0.456240	0.298526
	H320	H	0.578333	0.457086	0.315973
	O321	O	0.978873	-0.193969	1.073695
	H322	H	0.956608	-0.193667	1.071606
	H323	H	0.984583	-0.204190	1.093045
	O324	O	0.100566	0.060732	1.031197
	H325	H	0.103578	0.067715	1.035406
	H326	H	0.111005	0.064712	1.019701
	O327	O	0.516597	0.408917	0.547452
	H328	H	0.518572	0.414788	0.551995
	H329	H	0.529726	0.403995	0.521035
	O330	O	0.903526	-0.131432	1.094351
	H331	H	0.892657	-0.124021	1.085311
	H332	H	0.896101	-0.130819	1.079048
	O333	O	1.359950	1.610317	0.307059
	H334	H	1.360291	1.605503	0.314917
	H335	H	1.359118	1.619241	0.307994
	O336	O	0.391956	0.386779	0.359525
	H337	H	0.383375	0.400918	0.368839
	H338	H	0.392533	0.399124	0.358283
	O339	O	0.969951	-0.058766	0.985131
	H340	H	0.949383	-0.058616	0.971518
	H341	H	0.965279	-0.056548	0.978795
	O342	O	-0.183179	1.006650	0.890523
	H343	H	-0.186527	1.001601	0.883958
	H344	H	-0.176009	1.010279	0.913854
	O345	O	0.450697	0.627999	1.461180
	H346	H	0.449079	0.620969	1.466625
	H347	H	0.439809	0.632304	1.460475
	O348	O	0.635985	0.647420	0.660183
	H349	H	0.647546	0.659133	0.661702
	H350	H	0.622871	0.638824	0.648903
	O351	O	-0.110512	0.097888	0.100495
	H352	H	-0.102850	0.076377	0.107392
	H353	H	-0.101048	0.105753	0.106592
	O354	O	1.134305	0.862211	-0.042674
	H355	H	1.119864	0.856136	-0.036473
	H356	H	1.133545	0.882072	-0.048222
	O357	O	-0.035730	1.171131	-0.176539
	H358	H	-0.058417	1.185179	-0.189289
	H359	H	-0.051471	1.173728	-0.186988
	O360	O	0.527895	0.328375	0.448830
	H361	H	0.534825	0.323509	0.440983
	H362	H	0.538290	0.332910	0.453278
	O363	O	0.461037	0.582736	0.422176
	H364	H	0.450969	0.594238	0.409488
	H365	H	0.466871	0.575492	0.426371
	O366	O	-0.205548	0.927663	0.171802
	H367	H	-0.195320	0.936879	0.165884
	H368	H	-0.219469	0.924647	0.174499
	O369	O	0.504407	0.593216	0.537662
	H370	H	0.506495	0.586807	0.538352
	H371	H	0.509306	0.593779	0.541010
	O372	O	0.571940	0.312977	0.304772
	H373	H	0.569941	0.328934	0.303667
	H374	H	0.561403	0.307172	0.308866
	O375	O	0.659861	0.366654	0.607453
	H376	H	0.655634	0.379630	0.594423
	H377	H	0.652557	0.378454	0.598686
	O378	O	0.303891	0.511258	0.537251
	H379	H	0.293950	0.514973	0.536419
	H380	H	0.308122	0.509996	0.529531
	O381	O	0.487826	0.616814	0.466888
	H382	H	0.500695	0.595129	0.458892
	H383	H	0.480366	0.629560	0.466303
	O384	O	-0.063546	0.907052	0.862840
	H385	H	-0.062767	0.918975	0.866528
	H386	H	-0.047627	0.901211	0.855444
	O387	O	1.104248	1.129526	0.160264
	H388	H	1.105379	1.116762	0.150950
	H389	H	1.120685	1.120775	0.147500
	O390	O	0.605890	0.620140	0.512396
	H391	H	0.600868	0.604364	0.522608
	H392	H	0.592063	0.623586	0.516526
	O393	O	0.928196	-0.175637	1.141810
	H394	H	0.906779	-0.172166	1.146819
	H395	H	0.918457	-0.181720	1.152016
	O396	O	-0.219485	1.138518	0.920413
	H397	H	-0.233424	1.154581	0.927524
	H398	H	-0.200758	1.125053	0.927036
	O399	O	0.432896	0.536857	1.442516
	H400	H	0.439512	0.544175	1.446326
	H401	H	0.429767	0.536497	1.439203
	O402	O	0.941927	0.156871	0.976877
	H403	H	0.943198	0.171169	0.965354
	H404	H	0.928712	0.160115	0.973235
	O405	O	-0.409068	0.531574	-0.454157
	H406	H	-0.400769	0.542633	-0.443898
	H407	H	-0.422133	0.536754	-0.457098
	O408	O	0.990011	1.197501	1.174900
	H409	H	1.013594	1.192672	1.166989
	H410	H	0.995335	1.205137	1.196996
	O411	O	1.476149	1.281774	-0.739440
	H412	H	1.467605	1.277579	-0.743293
	H413	H	1.466482	1.286058	-0.748342
	O414	O	0.400564	-0.393625	1.523134
	H415	H	0.397498	-0.386915	1.531350
	H416	H	0.407839	-0.394960	1.515377
	O417	O	0.546745	0.483169	0.514047
	H418	H	0.543383	0.475088	0.500787
	H419	H	0.536420	0.479773	0.513240
	O420	O	0.116878	0.925606	0.111337
	H421	H	0.128425	0.913134	0.111774
	H422	H	0.091506	0.909104	0.120547
	O423	O	1.111652	0.073571	-0.015783
	H424	H	1.113807	0.079823	-0.010638
	H425	H	1.092566	0.081444	-0.015707
	O426	O	0.368017	0.528094	1.630633
	H427	H	0.373360	0.525394	1.620205
	H428	H	0.364517	0.527381	1.617810
	O429	O	0.671249	0.449825	0.454630
	H430	H	0.684590	0.441715	0.461510
	H431	H	0.671471	0.460096	0.448899
