data_Molecule from HDF5

_cell_length_a		16.063873
_cell_length_b		16.267983
_cell_length_c		16.298872
_cell_angle_alpha	90.537208
_cell_angle_beta	89.958026
_cell_angle_gamma	89.987234
_symmetry_space_group_name_H-M	'P 1'
_symmetry_Int_Tables_number		1

loop_
	_symmetry_equiv_pos_as_xyz
	x,y,z

loop_
	_atom_site_label
	_atom_site_type_symbol
	_atom_site_fract_x
	_atom_site_fract_y
	_atom_site_fract_z
	H0	H	0.400967	0.836380	0.715066
	H1	H	0.603139	0.162324	0.720928
	H2	H	0.603374	0.837611	0.283524
	H3	H	0.399772	0.162969	0.287639
	H4	H	0.712923	0.401150	0.837720
	H5	H	0.712614	0.596365	0.165917
	H6	H	0.287103	0.596337	0.837028
	H7	H	0.284916	0.403547	0.165091
	H8	H	0.834654	0.712485	0.404381
	H9	H	0.165212	0.716884	0.602334
	H10	H	0.835855	0.286910	0.598342
	H11	H	0.165727	0.284608	0.398050
	H12	H	0.836076	0.400341	0.715254
	H13	H	0.165580	0.601461	0.716904
	H14	H	0.834733	0.601020	0.288258
	H15	H	0.165497	0.401548	0.284108
	H16	H	0.400050	0.715561	0.838778
	H17	H	0.600269	0.717473	0.164678
	H18	H	0.602440	0.280419	0.840000
	H19	H	0.399859	0.285944	0.165291
	H20	H	0.714225	0.835227	0.403405
	H21	H	0.713359	0.164666	0.599647
	H22	H	0.286581	0.836635	0.597116
	H23	H	0.287723	0.164116	0.405997
	H24	H	0.898039	0.337795	0.217282
	H25	H	0.100724	0.664327	0.219739
	H26	H	0.103870	0.338644	0.781501
	H27	H	0.898659	0.663508	0.786766
	H28	H	0.214950	0.900589	0.337116
	H29	H	0.214189	0.100507	0.664970
	H30	H	0.785996	0.096671	0.337759
	H31	H	0.786500	0.904083	0.665215
	H32	H	0.335523	0.213076	0.904660
	H33	H	0.665952	0.215401	0.103478
	H34	H	0.334160	0.787900	0.098611
	H35	H	0.666093	0.785159	0.902527
	H36	H	0.335562	0.901440	0.215382
	H37	H	0.665787	0.101601	0.218935
	H38	H	0.336462	0.098981	0.787575
	H39	H	0.666164	0.898085	0.786108
	H40	H	0.900042	0.214683	0.337381
	H41	H	0.105139	0.221213	0.661941
	H42	H	0.101669	0.781532	0.338648
	H43	H	0.898302	0.785349	0.663977
	H44	H	0.213823	0.336267	0.901968
	H45	H	0.214841	0.665238	0.100754
	H46	H	0.788119	0.335041	0.095938
	H47	H	0.787578	0.664443	0.907175
	H48	H	0.416022	0.115057	0.597949
	H49	H	0.593073	0.878171	0.609018
	H50	H	0.592182	0.114960	0.414904
	H51	H	0.401645	0.880394	0.405457
	H52	H	0.590938	0.404989	0.118485
	H53	H	0.591322	0.594872	0.883937
	H54	H	0.410084	0.591520	0.116240
	H55	H	0.408500	0.410167	0.887116
	H56	H	0.118322	0.589210	0.408304
	H57	H	0.883244	0.596736	0.588381
	H58	H	0.120147	0.416465	0.601273
	H59	H	0.882382	0.408864	0.406991
	H60	H	0.122398	0.399964	0.592011
	H61	H	0.882913	0.586837	0.596950
	H62	H	0.119592	0.593208	0.408823
	H63	H	0.881823	0.405090	0.408513
	H64	H	0.411357	0.597821	0.117828
	H65	H	0.597015	0.593013	0.883925
	H66	H	0.596930	0.403747	0.120669
	H67	H	0.413543	0.401544	0.886709
	H68	H	0.598208	0.118925	0.408516
	H69	H	0.579763	0.889550	0.587857
	H70	H	0.403525	0.117193	0.591352
	H71	H	0.413758	0.883471	0.402173
	H72	H	0.907860	0.614941	0.090139
	H73	H	0.079211	0.390898	0.083927
	H74	H	0.095570	0.616819	0.912251
	H75	H	0.913803	0.382990	0.899105
	H76	H	0.088627	0.904603	0.617575
	H77	H	0.100858	0.092724	0.381805
	H78	H	0.907039	0.101090	0.619324
	H79	H	0.905083	0.910006	0.384845
	H80	H	0.622482	0.099899	0.910032
	H81	H	0.381195	0.099806	0.093469
	H82	H	0.620142	0.916559	0.108328
	H83	H	0.383115	0.906325	0.912618
	H84	H	0.623606	0.891704	0.092701
	H85	H	0.385475	0.087282	0.090096
	H86	H	0.614697	0.087201	0.920142
	H87	H	0.383101	0.911844	0.905911
	H88	H	0.905388	0.090056	0.616764
	H89	H	0.091109	0.085234	0.387913
	H90	H	0.098530	0.908186	0.619469
	H91	H	0.914395	0.905185	0.385694
	H92	H	0.092382	0.619139	0.906266
	H93	H	0.104272	0.383116	0.085756
	H94	H	0.899447	0.620040	0.099308
	H95	H	0.910586	0.385437	0.912875
	H96	H	0.405384	0.120277	0.605599
	H97	H	0.606008	0.881656	0.585297
	H98	H	0.588821	0.116277	0.406201
	H99	H	0.410606	0.884811	0.414654
	H100	H	0.594961	0.409993	0.118850
	H101	H	0.592812	0.589964	0.885564
	H102	H	0.404465	0.594818	0.118429
	H103	H	0.403169	0.401852	0.883181
	H104	H	0.118525	0.590800	0.412099
	H105	H	0.878527	0.599166	0.601121
	H106	H	0.114515	0.415406	0.582323
	H107	H	0.883056	0.408020	0.411274
	H108	H	0.911916	0.617447	0.101927
	H109	H	0.088517	0.381895	0.106962
	H110	H	0.087860	0.615680	0.910020
	H111	H	0.900294	0.380388	0.903782
	H112	H	0.090407	0.914147	0.615008
	H113	H	0.087948	0.098564	0.383952
	H114	H	0.915535	0.095289	0.615395
	H115	H	0.905277	0.899737	0.383089
	H116	H	0.619181	0.084007	0.903118
	H117	H	0.381909	0.090049	0.102513
	H118	H	0.613023	0.916020	0.079797
	H119	H	0.380589	0.902938	0.904721
	C120	C	0.379169	0.009004	0.624687
	C121	C	0.622512	0.991343	0.623862
	C122	C	0.622880	0.008562	0.380114
	C123	C	0.379674	0.990937	0.380078
	C124	C	0.622616	0.377119	0.010954
	C125	C	0.622211	0.622032	0.992785
	C126	C	0.379304	0.622513	0.009757
	C127	C	0.378704	0.377523	0.993745
	C128	C	0.009239	0.620104	0.381673
	C129	C	0.991319	0.622978	0.624363
	C130	C	0.009728	0.380871	0.620626
	C131	C	0.991486	0.378582	0.378640
	C132	C	0.877623	0.508878	0.123900
	C133	C	0.121041	0.492897	0.122819
	C134	C	0.121881	0.509063	0.879382
	C135	C	0.878722	0.491223	0.878431
	C136	C	0.122359	0.878403	0.509516
	C137	C	0.123216	0.122796	0.491871
	C138	C	0.879554	0.122738	0.509218
	C139	C	0.878537	0.877765	0.492852
	C140	C	0.509891	0.119994	0.882068
	C141	C	0.492252	0.121597	0.124881
	C142	C	0.509308	0.879132	0.122318
	C143	C	0.491871	0.878015	0.879408
	C144	C	0.380905	0.885407	0.677859
	C145	C	0.621989	0.114079	0.681045
	C146	C	0.622126	0.885816	0.323020
	C147	C	0.380578	0.114104	0.325597
	C148	C	0.676637	0.379646	0.887107
	C149	C	0.675629	0.618364	0.116848
	C150	C	0.323912	0.618266	0.886344
	C151	C	0.323120	0.382539	0.116489
	C152	C	0.884244	0.675168	0.384041
	C153	C	0.115672	0.678823	0.622375
	C154	C	0.885313	0.324833	0.618370
	C155	C	0.116300	0.322578	0.378587
	C156	C	0.885346	0.381671	0.676471
	C157	C	0.115969	0.621341	0.679300
	C158	C	0.884312	0.619599	0.326324
	C159	C	0.116044	0.380360	0.321705
	C160	C	0.380364	0.677057	0.886910
	C161	C	0.619996	0.678580	0.115885
	C162	C	0.621558	0.319841	0.888254
	C163	C	0.380236	0.323805	0.116544
	C164	C	0.677155	0.884479	0.382797
	C165	C	0.677332	0.115027	0.621469
	C166	C	0.323861	0.885513	0.619343
	C167	C	0.324782	0.114959	0.384206
	C168	C	0.878615	0.386297	0.178868
	C169	C	0.120475	0.615681	0.180548
	C170	C	0.122136	0.386958	0.821208
	C171	C	0.879655	0.614605	0.824902
	C172	C	0.177581	0.880187	0.386396
	C173	C	0.177835	0.121289	0.615528
	C174	C	0.824138	0.117927	0.386334
	C175	C	0.823437	0.882415	0.616005
	C176	C	0.385175	0.175365	0.884154
	C177	C	0.616552	0.177695	0.123570
	C178	C	0.384142	0.824854	0.119469
	C179	C	0.616578	0.822545	0.882010
	C180	C	0.384944	0.881554	0.177458
	C181	C	0.616404	0.120687	0.180758
	C182	C	0.385510	0.118549	0.826112
	C183	C	0.616675	0.878688	0.824195
	C184	C	0.880995	0.176600	0.386170
	C185	C	0.123692	0.181716	0.613795
	C186	C	0.121260	0.820727	0.387221
	C187	C	0.879136	0.823184	0.615429
	C188	C	0.177328	0.385873	0.880882
	C189	C	0.177204	0.616008	0.121283
	C190	C	0.824188	0.384647	0.118396
	C191	C	0.824028	0.615084	0.884437
	C192	C	0.401589	0.095150	0.604134
	C193	C	0.599625	0.905369	0.600835
	C194	C	0.599989	0.094328	0.403112
	C195	C	0.402044	0.905214	0.401235
	C196	C	0.600805	0.399705	0.097124
	C197	C	0.600147	0.599316	0.906827
	C198	C	0.401939	0.601081	0.095311
	C199	C	0.401689	0.398184	0.907875
	C200	C	0.096253	0.597552	0.403229
	C201	C	0.903962	0.600754	0.602270
	C202	C	0.096725	0.403847	0.598164
	C203	C	0.905001	0.400731	0.401947
	C204	C	0.899785	0.595003	0.103170
	C205	C	0.097311	0.407433	0.099249
	C206	C	0.098758	0.594883	0.902670
	C207	C	0.901530	0.405224	0.899135
	C208	C	0.099190	0.902123	0.595294
	C209	C	0.100149	0.098999	0.406453
	C210	C	0.902640	0.101582	0.594972
	C211	C	0.901520	0.898725	0.406959
	C212	C	0.596416	0.097209	0.904522
	C213	C	0.405428	0.098955	0.102063
	C214	C	0.596661	0.901518	0.100114
	C215	C	0.404778	0.900579	0.901180
	Zn216	Zn	0.501535	-0.000562	0.752869
	Zn217	Zn	0.501002	-0.000003	0.251567
	Zn218	Zn	0.750545	0.499397	0.001168
	Zn219	Zn	0.250418	0.500596	0.000891
	Zn220	Zn	0.000351	0.748638	0.501495
	Zn221	Zn	0.001774	0.251472	0.500178
	Zn222	Zn	0.000777	0.500912	0.750119
	Zn223	Zn	-0.000556	0.501169	0.252688
	Zn224	Zn	0.500360	0.751568	0.000888
	Zn225	Zn	0.501215	0.248543	0.002999
	Zn226	Zn	0.750877	-0.000023	0.501674
	Zn227	Zn	0.250919	0.000898	0.501399
	N228	N	0.414170	0.963184	0.681401
	N229	N	0.588992	0.036079	0.682690
	N230	N	0.589077	0.963836	0.321214
	N231	N	0.413696	0.036065	0.322519
	N232	N	0.677365	0.414792	0.964251
	N233	N	0.677400	0.584104	0.039343
	N234	N	0.322998	0.585027	0.963712
	N235	N	0.322095	0.415071	0.038943
	N236	N	0.962757	0.675597	0.417886
	N237	N	0.036988	0.679956	0.588806
	N238	N	0.963904	0.324084	0.584575
	N239	N	0.038161	0.321292	0.413114
	N240	N	0.963747	0.415575	0.677877
	N241	N	0.037452	0.587705	0.680511
	N242	N	0.962987	0.585960	0.324534
	N243	N	0.037649	0.414608	0.321543
	N244	N	0.413898	0.679857	0.964443
	N245	N	0.587799	0.680885	0.037704
	N246	N	0.588779	0.318219	0.966255
	N247	N	0.414088	0.320654	0.039083
	N248	N	0.677789	0.961894	0.417710
	N249	N	0.677728	0.037796	0.586498
	N250	N	0.322628	0.963448	0.586997
	N251	N	0.323760	0.037469	0.417320
	N252	N	0.911147	0.464356	0.182437
	N253	N	0.086506	0.538025	0.181735
	N254	N	0.088289	0.464613	0.820409
	N255	N	0.912849	0.536723	0.821196
	N256	N	0.178500	0.915214	0.463687
	N257	N	0.177575	0.085163	0.538795
	N258	N	0.823186	0.085090	0.463827
	N259	N	0.822964	0.915695	0.538940
	N260	N	0.463380	0.176124	0.918538
	N261	N	0.538275	0.178368	0.089309
	N262	N	0.462708	0.823470	0.085715
	N263	N	0.538061	0.822097	0.915690
	N264	N	0.463832	0.914615	0.179330
	N265	N	0.537972	0.086772	0.181784
	N266	N	0.464012	0.084877	0.824622
	N267	N	0.538074	0.912586	0.822485
	N268	N	0.914609	0.180007	0.463793
	N269	N	0.090456	0.182733	0.535933
	N270	N	0.087654	0.819552	0.464912
	N271	N	0.912626	0.820185	0.537751
	N272	N	0.177319	0.462897	0.916503
	N273	N	0.177697	0.538708	0.086314
	N274	N	0.823490	0.462013	0.084942
	N275	N	0.823168	0.537238	0.917195
	O276	O	0.529158	0.529057	0.625086
	H277	H	0.527996	0.532361	0.632040
	H278	H	0.522629	0.530588	0.621922
	O279	O	0.526952	0.469543	0.521906
	H280	H	0.525213	0.473871	0.525021
	H281	H	0.524592	0.475048	0.533510
	O282	O	0.974215	1.072761	-0.022468
	H283	H	0.983525	1.061315	-0.026353
	H284	H	0.974820	1.075633	-0.015076
	O285	O	1.031078	-0.127865	0.930154
	H286	H	1.044839	-0.127554	0.926741
	H287	H	1.028225	-0.118570	0.934496
	O288	O	0.477094	0.425941	0.432461
	H289	H	0.477900	0.423750	0.434116
	H290	H	0.475707	0.429577	0.443904
	O291	O	0.441080	0.631514	0.420055
	H292	H	0.446592	0.633965	0.403769
	H293	H	0.434881	0.614336	0.418520
	O294	O	0.400443	0.532012	0.441187
	H295	H	0.405351	0.535582	0.441724
	H296	H	0.396380	0.529782	0.442044
	O297	O	0.019603	-0.006128	0.936248
	H298	H	0.007674	-0.006353	0.948505
	H299	H	0.016918	0.006174	0.926604
	O300	O	0.565695	0.453497	0.444586
	H301	H	0.573909	0.446949	0.441607
	H302	H	0.583483	0.447932	0.452195
	O303	O	1.011705	0.906502	-0.136544
	H304	H	1.009606	0.901104	-0.143271
	H305	H	1.025924	0.914678	-0.133577
	O306	O	-0.014341	1.092697	0.953382
	H307	H	-0.018234	1.102483	0.959697
	H308	H	-0.009676	1.098924	0.958786
	O309	O	0.408973	0.449817	0.558170
	H310	H	0.412335	0.451907	0.552009
	H311	H	0.407609	0.450892	0.569255
	O312	O	-0.019793	-0.068524	-0.043371
	H313	H	-0.017283	-0.068805	-0.046153
	H314	H	-0.011683	-0.075669	-0.053761
	O315	O	0.920606	0.026739	-0.090375
	H316	H	0.923716	0.024408	-0.093427
	H317	H	0.926901	0.023580	-0.091078
	O318	O	1.001962	0.995816	1.116721
	H319	H	1.002823	0.998818	1.119999
	H320	H	0.998350	0.989035	1.129562
	O321	O	0.016791	0.059685	0.985038
	H322	H	0.026209	0.063471	0.998483
	H323	H	-0.001649	0.054380	0.983008
	O324	O	0.450454	0.367830	0.525737
	H325	H	0.455067	0.369799	0.522231
	H326	H	0.452630	0.366957	0.532244
	O327	O	0.029989	0.045832	0.085902
	H328	H	0.035575	0.046241	0.084153
	H329	H	0.027767	0.048041	0.085916
	O330	O	0.460193	0.498785	0.530883
	H331	H	0.462014	0.500522	0.524063
	H332	H	0.461241	0.497116	0.523856
	O333	O	0.070881	0.937848	0.925754
	H334	H	0.086177	0.920564	0.911990
	H335	H	0.067077	0.939532	0.922133
	O336	O	-0.039567	0.052957	-0.004758
	H337	H	-0.046396	0.051636	0.008220
	H338	H	-0.038826	0.058876	-0.004330
	O339	O	0.567666	0.441688	0.479386
	H340	H	0.571539	0.439545	0.476543
	H341	H	0.556784	0.442782	0.489011
	O342	O	1.040851	0.983897	1.064542
	H343	H	1.044096	0.981796	1.064114
	H344	H	1.047075	0.977650	1.058376
	O345	O	1.012968	1.012708	0.078894
	H346	H	1.012154	1.002003	0.074434
	H347	H	1.013551	1.020711	0.072344
	O348	O	0.577414	0.558192	0.607267
	H349	H	0.569129	0.566167	0.612301
	H350	H	0.586524	0.556192	0.603951
	O351	O	0.475995	0.499960	0.396351
	H352	H	0.476853	0.503692	0.385841
	H353	H	0.480291	0.513199	0.391997
	O354	O	0.514723	0.541622	0.509176
	H355	H	0.513029	0.527744	0.501278
	H356	H	0.519473	0.541712	0.495906
	O357	O	1.033187	-0.068289	1.088248
	H358	H	1.025437	-0.075138	1.088972
	H359	H	1.030059	-0.057170	1.084511
	O360	O	0.443801	0.550991	0.493552
	H361	H	0.457223	0.557978	0.491136
	H362	H	0.434286	0.555638	0.492471
	O363	O	0.485580	0.548317	0.459543
	H364	H	0.482887	0.557116	0.448635
	H365	H	0.480925	0.544175	0.467533
	O366	O	1.015558	0.955608	1.027501
	H367	H	1.026819	0.955633	1.033822
	H368	H	1.029817	0.950062	1.018518
	O369	O	0.980829	0.077995	0.936456
	H370	H	0.967665	0.098277	0.938072
	H371	H	0.985099	0.078541	0.943968
	O372	O	-0.056795	0.091576	-0.165555
	H373	H	-0.065238	0.086309	-0.173437
	H374	H	-0.062750	0.098460	-0.162149
	O375	O	1.036969	0.024149	0.096076
	H376	H	1.039399	0.031176	0.082272
	H377	H	1.019917	0.026113	0.100952
	O378	O	0.545745	0.477604	0.508180
	H379	H	0.533421	0.480553	0.507242
	H380	H	0.545589	0.488953	0.509709
	O381	O	0.562642	0.547261	0.470499
	H382	H	0.567088	0.542330	0.464038
	H383	H	0.557567	0.547319	0.478184
