data_Molecule from HDF5

_cell_length_a		16.346107
_cell_length_b		16.118668
_cell_length_c		16.242683
_cell_angle_alpha	90.002774
_cell_angle_beta	89.795432
_cell_angle_gamma	89.871002
_symmetry_space_group_name_H-M	'P 1'
_symmetry_Int_Tables_number		1

loop_
	_symmetry_equiv_pos_as_xyz
	x,y,z

loop_
	_atom_site_label
	_atom_site_type_symbol
	_atom_site_fract_x
	_atom_site_fract_y
	_atom_site_fract_z
	H0	H	0.396324	0.827280	0.713677
	H1	H	0.591742	0.157247	0.713508
	H2	H	0.590781	0.825903	0.289523
	H3	H	0.397242	0.157331	0.287405
	H4	H	0.711481	0.390923	0.837944
	H5	H	0.709081	0.592568	0.163648
	H6	H	0.278556	0.591749	0.836917
	H7	H	0.277861	0.390422	0.163807
	H8	H	0.830552	0.706589	0.405336
	H9	H	0.156864	0.706903	0.599361
	H10	H	0.829080	0.280209	0.597650
	H11	H	0.156598	0.278342	0.403641
	H12	H	0.829918	0.394269	0.716623
	H13	H	0.156506	0.591270	0.716252
	H14	H	0.830609	0.592605	0.286730
	H15	H	0.156051	0.391417	0.285267
	H16	H	0.397152	0.705098	0.835921
	H17	H	0.589384	0.703465	0.165419
	H18	H	0.591248	0.279922	0.835906
	H19	H	0.396878	0.278332	0.164877
	H20	H	0.710617	0.828048	0.399424
	H21	H	0.706693	0.157387	0.598275
	H22	H	0.279020	0.828465	0.600740
	H23	H	0.280997	0.157857	0.401384
	H24	H	0.895863	0.327267	0.214423
	H25	H	0.091397	0.656985	0.214847
	H26	H	0.091606	0.326917	0.787426
	H27	H	0.895444	0.657955	0.789209
	H28	H	0.209201	0.892332	0.337154
	H29	H	0.210205	0.095424	0.663075
	H30	H	0.780453	0.092111	0.337041
	H31	H	0.777034	0.892538	0.663428
	H32	H	0.331138	0.205288	0.904273
	H33	H	0.658758	0.204263	0.096032
	H34	H	0.330734	0.777764	0.098578
	H35	H	0.657822	0.777184	0.902325
	H36	H	0.331919	0.891640	0.217589
	H37	H	0.658433	0.090015	0.214162
	H38	H	0.331558	0.092361	0.786136
	H39	H	0.656942	0.891598	0.783969
	H40	H	0.898347	0.204563	0.336003
	H41	H	0.088750	0.204815	0.665524
	H42	H	0.091485	0.778269	0.336548
	H43	H	0.897804	0.782304	0.666413
	H44	H	0.208857	0.327249	0.899763
	H45	H	0.209229	0.655656	0.101226
	H46	H	0.778688	0.328123	0.101988
	H47	H	0.779377	0.656467	0.901809
	H48	H	0.400969	0.110612	0.594526
	H49	H	0.582434	0.876085	0.590166
	H50	H	0.591101	0.113209	0.401446
	H51	H	0.399240	0.873446	0.406522
	H52	H	0.587670	0.401444	0.117349
	H53	H	0.581451	0.592550	0.882300
	H54	H	0.408486	0.591942	0.116898
	H55	H	0.396220	0.395673	0.880494
	H56	H	0.104288	0.574368	0.414521
	H57	H	0.876315	0.582321	0.600950
	H58	H	0.108951	0.396149	0.591017
	H59	H	0.880206	0.407497	0.410809
	H60	H	0.107759	0.404274	0.593514
	H61	H	0.874898	0.592339	0.597669
	H62	H	0.113427	0.583028	0.394598
	H63	H	0.873140	0.399121	0.397958
	H64	H	0.388971	0.586084	0.121632
	H65	H	0.598896	0.584650	0.879500
	H66	H	0.585898	0.397299	0.117927
	H67	H	0.398842	0.404282	0.884913
	H68	H	0.581395	0.108876	0.406561
	H69	H	0.590030	0.873718	0.588939
	H70	H	0.401626	0.110521	0.592572
	H71	H	0.403807	0.874831	0.408540
	H72	H	0.905729	0.608051	0.090650
	H73	H	0.084071	0.372647	0.098505
	H74	H	0.083122	0.607574	0.913839
	H75	H	0.893417	0.371318	0.908886
	H76	H	0.092431	0.897052	0.620094
	H77	H	0.084910	0.086771	0.383816
	H78	H	0.892584	0.085044	0.619894
	H79	H	0.902288	0.902296	0.384261
	H80	H	0.606556	0.073646	0.911401
	H81	H	0.378057	0.080523	0.099579
	H82	H	0.613608	0.894211	0.099770
	H83	H	0.379525	0.909288	0.900856
	H84	H	0.610680	0.894872	0.089461
	H85	H	0.377182	0.090616	0.094302
	H86	H	0.615114	0.084873	0.892185
	H87	H	0.374287	0.889299	0.902989
	H88	H	0.900807	0.080831	0.617207
	H89	H	0.091246	0.086165	0.382022
	H90	H	0.088340	0.907966	0.615875
	H91	H	0.902750	0.898665	0.383395
	H92	H	0.091990	0.610625	0.910551
	H93	H	0.082303	0.376327	0.088683
	H94	H	0.895421	0.610561	0.090001
	H95	H	0.905361	0.372441	0.901522
	H96	H	0.399957	0.111181	0.592520
	H97	H	0.586317	0.873022	0.596112
	H98	H	0.590584	0.109433	0.413080
	H99	H	0.399815	0.874219	0.411071
	H100	H	0.590322	0.398535	0.118689
	H101	H	0.584509	0.573984	0.887251
	H102	H	0.403130	0.572877	0.113624
	H103	H	0.405308	0.396589	0.883857
	H104	H	0.111419	0.596991	0.413956
	H105	H	0.879113	0.585034	0.591101
	H106	H	0.110690	0.398309	0.598810
	H107	H	0.876275	0.391614	0.412475
	H108	H	0.901088	0.611901	0.099143
	H109	H	0.092007	0.372536	0.091732
	H110	H	0.084131	0.611285	0.904518
	H111	H	0.904350	0.377055	0.914788
	H112	H	0.081030	0.898449	0.617170
	H113	H	0.089115	0.080915	0.384952
	H114	H	0.900872	0.091181	0.619194
	H115	H	0.899075	0.899909	0.382851
	H116	H	0.612688	0.096670	0.912407
	H117	H	0.381121	0.081967	0.088587
	H118	H	0.609385	0.903552	0.095611
	H119	H	0.381383	0.899893	0.918813
	C120	C	0.372263	0.001670	0.622160
	C121	C	0.614779	0.983667	0.620571
	C122	C	0.615993	0.001214	0.378600
	C123	C	0.372717	0.983634	0.379667
	C124	C	0.616524	0.370445	0.009450
	C125	C	0.615852	0.612715	0.991703
	C126	C	0.371857	0.613069	0.009065
	C127	C	0.372230	0.369993	0.991711
	C128	C	0.002100	0.613952	0.379449
	C129	C	0.984985	0.614838	0.624221
	C130	C	0.001354	0.370983	0.622996
	C131	C	0.984452	0.370324	0.378514
	C132	C	0.872430	0.501102	0.121925
	C133	C	0.115028	0.482855	0.122145
	C134	C	0.115051	0.500920	0.879913
	C135	C	0.872726	0.482965	0.880110
	C136	C	0.115856	0.871334	0.509442
	C137	C	0.116086	0.114169	0.491984
	C138	C	0.871631	0.113963	0.509857
	C139	C	0.872493	0.871499	0.492302
	C140	C	0.503293	0.113487	0.878301
	C141	C	0.486473	0.113368	0.122438
	C142	C	0.502765	0.869491	0.122823
	C143	C	0.486139	0.870368	0.878659
	C144	C	0.375063	0.877046	0.676796
	C145	C	0.612049	0.107979	0.676010
	C146	C	0.612655	0.875937	0.325254
	C147	C	0.376371	0.108151	0.324945
	C148	C	0.672269	0.371756	0.886255
	C149	C	0.670433	0.611454	0.115021
	C150	C	0.316765	0.611670	0.885818
	C151	C	0.316468	0.370924	0.115104
	C152	C	0.879215	0.668992	0.383481
	C153	C	0.107961	0.669352	0.620322
	C154	C	0.878158	0.317252	0.619121
	C155	C	0.107616	0.315471	0.382213
	C156	C	0.878634	0.374012	0.678223
	C157	C	0.107696	0.612095	0.678569
	C158	C	0.879468	0.612186	0.324681
	C159	C	0.107513	0.371859	0.323605
	C160	C	0.375400	0.668294	0.885353
	C161	C	0.611293	0.667077	0.115781
	C162	C	0.612590	0.316781	0.885146
	C163	C	0.375742	0.315422	0.115741
	C164	C	0.672019	0.877176	0.379914
	C165	C	0.669297	0.108071	0.618648
	C166	C	0.317118	0.877740	0.620378
	C167	C	0.318138	0.108113	0.381195
	C168	C	0.875075	0.376707	0.176951
	C169	C	0.112374	0.607363	0.177355
	C170	C	0.112364	0.376565	0.824501
	C171	C	0.875206	0.608045	0.826130
	C172	C	0.171415	0.871958	0.386096
	C173	C	0.171341	0.113629	0.614765
	C174	C	0.818040	0.111785	0.385858
	C175	C	0.816310	0.872987	0.615193
	C176	C	0.380053	0.168078	0.882735
	C177	C	0.609567	0.167489	0.118219
	C178	C	0.379660	0.815310	0.119548
	C179	C	0.608893	0.814900	0.881407
	C180	C	0.380104	0.872211	0.178518
	C181	C	0.609330	0.110585	0.176899
	C182	C	0.380215	0.111632	0.824029
	C183	C	0.608538	0.871840	0.822619
	C184	C	0.876887	0.167571	0.385421
	C185	C	0.111240	0.168392	0.616059
	C186	C	0.112671	0.815692	0.385705
	C187	C	0.876106	0.817910	0.616447
	C188	C	0.170351	0.376575	0.880770
	C189	C	0.170877	0.606614	0.121071
	C190	C	0.817040	0.377150	0.120920
	C191	C	0.817432	0.607396	0.882099
	C192	C	0.394377	0.088355	0.599869
	C193	C	0.592736	0.896701	0.598193
	C194	C	0.594031	0.088149	0.400478
	C195	C	0.394498	0.896697	0.402121
	C196	C	0.594562	0.392464	0.095780
	C197	C	0.594626	0.590190	0.905310
	C198	C	0.393611	0.590289	0.095239
	C199	C	0.393883	0.392098	0.905438
	C200	C	0.087573	0.591449	0.401155
	C201	C	0.899006	0.593160	0.602702
	C202	C	0.087095	0.393190	0.600953
	C203	C	0.898711	0.392774	0.400613
	C204	C	0.894359	0.587655	0.099729
	C205	C	0.092714	0.396297	0.099558
	C206	C	0.092817	0.587382	0.902721
	C207	C	0.894499	0.396177	0.901785
	C208	C	0.093846	0.894330	0.595396
	C209	C	0.094823	0.091539	0.405792
	C210	C	0.892169	0.092101	0.596395
	C211	C	0.894872	0.893769	0.405895
	C212	C	0.589373	0.091409	0.899138
	C213	C	0.400902	0.090944	0.100749
	C214	C	0.588824	0.891145	0.101114
	C215	C	0.400551	0.892855	0.900966
	Zn216	Zn	0.494230	-0.007552	0.749585
	Zn217	Zn	0.494829	-0.008172	0.251791
	Zn218	Zn	0.744658	0.492055	0.000647
	Zn219	Zn	0.243572	0.491360	0.000334
	Zn220	Zn	-0.006082	0.743107	0.501524
	Zn221	Zn	-0.006555	0.241599	0.500754
	Zn222	Zn	-0.006475	0.492697	0.752909
	Zn223	Zn	-0.006427	0.492250	0.250231
	Zn224	Zn	0.494009	0.740682	0.000221
	Zn225	Zn	0.494724	0.242399	0.000355
	Zn226	Zn	0.743363	-0.007485	0.500111
	Zn227	Zn	0.244630	-0.007233	0.500754
	N228	N	0.408811	0.955148	0.677914
	N229	N	0.578785	0.029432	0.677125
	N230	N	0.578406	0.953958	0.324409
	N231	N	0.409557	0.029608	0.323787
	N232	N	0.674644	0.404517	0.964332
	N233	N	0.673366	0.578491	0.036852
	N234	N	0.314431	0.578188	0.963826
	N235	N	0.314031	0.404069	0.037101
	N236	N	0.956236	0.670199	0.416953
	N237	N	0.030575	0.671088	0.587305
	N238	N	0.955502	0.315179	0.585496
	N239	N	0.030226	0.314577	0.415875
	N240	N	0.956297	0.406742	0.680705
	N241	N	0.030220	0.578871	0.681117
	N242	N	0.957037	0.578801	0.322030
	N243	N	0.029944	0.405163	0.321012
	N244	N	0.409002	0.669050	0.962871
	N245	N	0.578152	0.667995	0.037940
	N246	N	0.578697	0.315671	0.962825
	N247	N	0.409501	0.314485	0.038060
	N248	N	0.674214	0.956014	0.412550
	N249	N	0.670956	0.029842	0.584933
	N250	N	0.315150	0.956273	0.587228
	N251	N	0.315917	0.029709	0.414524
	N252	N	0.908705	0.454810	0.178018
	N253	N	0.078345	0.529520	0.178114
	N254	N	0.078611	0.454844	0.823997
	N255	N	0.908955	0.529805	0.824841
	N256	N	0.173484	0.905732	0.463931
	N257	N	0.174284	0.080474	0.536724
	N258	N	0.814692	0.079076	0.464118
	N259	N	0.813839	0.905464	0.536958
	N260	N	0.457558	0.169409	0.915715
	N261	N	0.532300	0.169176	0.084919
	N262	N	0.456912	0.813624	0.085787
	N263	N	0.531692	0.813839	0.915486
	N264	N	0.457762	0.904977	0.180822
	N265	N	0.531651	0.077819	0.179741
	N266	N	0.457752	0.078440	0.821288
	N267	N	0.531227	0.905642	0.820800
	N268	N	0.909348	0.169134	0.463392
	N269	N	0.077535	0.168825	0.538705
	N270	N	0.078966	0.814855	0.463425
	N271	N	0.910262	0.817049	0.538858
	N272	N	0.172252	0.454816	0.914509
	N273	N	0.172582	0.528193	0.087448
	N274	N	0.815182	0.455419	0.087359
	N275	N	0.815671	0.528733	0.914980
	O276	O	1.007727	1.031839	0.037446
	H277	H	1.004717	1.044002	0.033930
	H278	H	1.005304	1.033612	0.033146
	O279	O	0.014956	-0.038010	0.029874
	H280	H	0.018171	-0.040765	0.025186
	H281	H	0.026892	-0.045454	0.031094
	O282	O	0.078775	0.011392	1.020562
	H283	H	0.085532	0.013741	1.020507
	H284	H	0.079806	0.017577	1.025084
	O285	O	1.474208	1.490704	0.486606
	H286	H	1.478841	1.477095	0.503192
	H287	H	1.468840	1.485833	0.487927
	O288	O	0.474546	0.536023	0.463409
	H289	H	0.475377	0.535577	0.456892
	H290	H	0.482118	0.536152	0.461836
	O291	O	0.451542	0.477768	0.524903
	H292	H	0.452811	0.476215	0.517545
	H293	H	0.454354	0.488417	0.523547
	O294	O	0.076735	-0.030614	0.021386
	H295	H	0.080497	-0.034632	0.023186
	H296	H	0.073692	-0.030256	0.014336
	O297	O	0.482136	0.501068	0.483438
	H298	H	0.484805	0.498316	0.472264
	H299	H	0.474506	0.503211	0.478701
	O300	O	0.052390	0.978163	0.979475
	H301	H	0.048432	0.968759	0.979052
	H302	H	0.057386	0.974160	0.970319
	O303	O	0.470871	0.466659	0.444344
	H304	H	0.470345	0.467324	0.443604
	H305	H	0.471579	0.466607	0.436581
	O306	O	0.035514	-0.009902	0.931891
	H307	H	0.030982	-0.007864	0.925259
	H308	H	0.042182	-0.012296	0.941644
	O309	O	1.008417	0.991482	0.977174
	H310	H	1.010907	0.988091	0.979457
	H311	H	0.997481	0.988027	0.968103
	O312	O	0.462702	0.429450	0.453376
	H313	H	0.458430	0.426468	0.456911
	H314	H	0.454400	0.424993	0.456361
	O315	O	0.444452	0.495639	0.534997
	H316	H	0.447910	0.504397	0.537900
	H317	H	0.441371	0.501084	0.537199
	O318	O	0.011928	1.032665	0.006569
	H319	H	0.011102	1.030598	0.013961
	H320	H	0.010774	1.032687	0.012731
	O321	O	1.027257	0.971512	-0.059521
	H322	H	1.031604	0.979395	-0.054093
	H323	H	1.022524	0.974575	-0.051689
