data_Molecule from HDF5

_cell_length_a		16.025335
_cell_length_b		16.313501
_cell_length_c		16.295697
_cell_angle_alpha	89.981180
_cell_angle_beta	90.277767
_cell_angle_gamma	90.516821
_symmetry_space_group_name_H-M	'P 1'
_symmetry_Int_Tables_number		1

loop_
	_symmetry_equiv_pos_as_xyz
	x,y,z

loop_
	_atom_site_label
	_atom_site_type_symbol
	_atom_site_fract_x
	_atom_site_fract_y
	_atom_site_fract_z
	H0	H	0.401806	0.849735	0.717653
	H1	H	0.608552	0.174811	0.715479
	H2	H	0.604668	0.848470	0.282752
	H3	H	0.405335	0.174023	0.281702
	H4	H	0.717302	0.418227	0.834995
	H5	H	0.721327	0.610204	0.163473
	H6	H	0.293841	0.606797	0.835031
	H7	H	0.295659	0.414142	0.164085
	H8	H	0.840696	0.722446	0.399369
	H9	H	0.170293	0.728326	0.602853
	H10	H	0.841886	0.293698	0.601998
	H11	H	0.171751	0.298553	0.403008
	H12	H	0.840822	0.408663	0.714331
	H13	H	0.171972	0.610390	0.713775
	H14	H	0.841834	0.609497	0.285002
	H15	H	0.172119	0.412720	0.288210
	H16	H	0.404808	0.728490	0.836710
	H17	H	0.610360	0.730177	0.161451
	H18	H	0.605772	0.297443	0.836062
	H19	H	0.405056	0.293509	0.161402
	H20	H	0.714599	0.845895	0.404022
	H21	H	0.722691	0.174553	0.595714
	H22	H	0.290971	0.847238	0.595848
	H23	H	0.293964	0.175977	0.402335
	H24	H	0.904136	0.348887	0.216166
	H25	H	0.111290	0.673601	0.218755
	H26	H	0.106400	0.348990	0.783948
	H27	H	0.905158	0.673487	0.782278
	H28	H	0.215926	0.915429	0.335171
	H29	H	0.221812	0.107876	0.663606
	H30	H	0.794788	0.105486	0.335184
	H31	H	0.791441	0.912240	0.663710
	H32	H	0.339988	0.223974	0.898457
	H33	H	0.671197	0.227446	0.098627
	H34	H	0.342218	0.794653	0.098389
	H35	H	0.672528	0.800357	0.901138
	H36	H	0.339497	0.912101	0.209967
	H37	H	0.671247	0.113789	0.214063
	H38	H	0.340431	0.110682	0.783812
	H39	H	0.671846	0.914512	0.786586
	H40	H	0.903082	0.228489	0.338919
	H41	H	0.110292	0.228069	0.663127
	H42	H	0.106659	0.793803	0.338574
	H43	H	0.902235	0.793007	0.662628
	H44	H	0.215920	0.346391	0.905389
	H45	H	0.222576	0.675602	0.097186
	H46	H	0.789832	0.348908	0.097546
	H47	H	0.796425	0.676173	0.903072
	H48	H	0.410901	0.127685	0.589000
	H49	H	0.590751	0.897974	0.589342
	H50	H	0.609777	0.131591	0.402857
	H51	H	0.411620	0.894118	0.402419
	H52	H	0.602553	0.424164	0.115434
	H53	H	0.599967	0.619800	0.878680
	H54	H	0.416781	0.609459	0.117506
	H55	H	0.418985	0.411157	0.883000
	H56	H	0.125706	0.612249	0.416848
	H57	H	0.884846	0.597445	0.602193
	H58	H	0.120310	0.430669	0.588083
	H59	H	0.887309	0.413123	0.410951
	H60	H	0.128676	0.419717	0.605367
	H61	H	0.884431	0.611761	0.590696
	H62	H	0.120948	0.594841	0.415385
	H63	H	0.888965	0.422420	0.409963
	H64	H	0.412746	0.601732	0.115917
	H65	H	0.610825	0.601544	0.880373
	H66	H	0.590626	0.419685	0.114044
	H67	H	0.404377	0.413247	0.879003
	H68	H	0.591227	0.127229	0.398143
	H69	H	0.604731	0.892981	0.592265
	H70	H	0.414952	0.129931	0.598371
	H71	H	0.412454	0.896031	0.405408
	H72	H	0.918706	0.627222	0.093918
	H73	H	0.095978	0.396664	0.091821
	H74	H	0.098180	0.626844	0.907390
	H75	H	0.913856	0.397952	0.913051
	H76	H	0.090231	0.916098	0.615760
	H77	H	0.094876	0.105548	0.384712
	H78	H	0.910825	0.104611	0.617986
	H79	H	0.914174	0.920162	0.385465
	H80	H	0.625632	0.110925	0.909977
	H81	H	0.385387	0.106417	0.091931
	H82	H	0.626990	0.921161	0.097554
	H83	H	0.388065	0.916003	0.911517
	H84	H	0.624648	0.917139	0.088009
	H85	H	0.387603	0.102679	0.086904
	H86	H	0.622983	0.101597	0.909782
	H87	H	0.389492	0.923552	0.908658
	H88	H	0.915734	0.097919	0.615135
	H89	H	0.097416	0.109716	0.382155
	H90	H	0.103330	0.914621	0.618927
	H91	H	0.915135	0.908770	0.382656
	H92	H	0.101475	0.628123	0.907014
	H93	H	0.103269	0.393389	0.095092
	H94	H	0.914360	0.628748	0.093159
	H95	H	0.904614	0.392215	0.905262
	H96	H	0.420431	0.125311	0.589818
	H97	H	0.593929	0.892761	0.602299
	H98	H	0.598099	0.124478	0.415650
	H99	H	0.409232	0.894219	0.405275
	H100	H	0.599593	0.411829	0.118202
	H101	H	0.590206	0.602442	0.886271
	H102	H	0.421921	0.602959	0.113789
	H103	H	0.412105	0.424132	0.883942
	H104	H	0.127956	0.603715	0.401748
	H105	H	0.891290	0.595223	0.584870
	H106	H	0.125663	0.409634	0.586184
	H107	H	0.885548	0.416714	0.403269
	H108	H	0.916876	0.629052	0.097049
	H109	H	0.096498	0.395023	0.100367
	H110	H	0.099017	0.628995	0.904496
	H111	H	0.917226	0.394764	0.901120
	H112	H	0.097625	0.925456	0.615253
	H113	H	0.100298	0.104692	0.383577
	H114	H	0.919553	0.105454	0.616754
	H115	H	0.904683	0.915258	0.381185
	H116	H	0.626266	0.106191	0.901993
	H117	H	0.387957	0.099995	0.093096
	H118	H	0.623050	0.927130	0.090489
	H119	H	0.386178	0.918004	0.902923
	C120	C	0.384725	0.019972	0.620921
	C121	C	0.627358	1.002678	0.622074
	C122	C	0.626974	0.019398	0.377349
	C123	C	0.383209	1.002939	0.376230
	C124	C	0.626430	0.390941	0.007793
	C125	C	0.629466	0.635969	0.990109
	C126	C	0.386463	0.633081	0.007724
	C127	C	0.383380	0.387944	0.990188
	C128	C	0.015309	0.631536	0.380647
	C129	C	0.996489	0.632009	0.622032
	C130	C	0.015439	0.389963	0.622130
	C131	C	0.997155	0.389737	0.380026
	C132	C	0.885548	0.520353	0.122442
	C133	C	0.129569	0.502544	0.124027
	C134	C	0.127486	0.519859	0.878736
	C135	C	0.884554	0.503158	0.877701
	C136	C	0.126222	0.889977	0.508819
	C137	C	0.128105	0.134290	0.491491
	C138	C	0.885500	0.131690	0.509021
	C139	C	0.882466	0.886919	0.491103
	C140	C	0.514960	0.133800	0.877890
	C141	C	0.496889	0.132820	0.119835
	C142	C	0.515369	0.891496	0.119963
	C143	C	0.497630	0.891333	0.879037
	C144	C	0.383627	0.897711	0.677837
	C145	C	0.627869	0.126021	0.677095
	C146	C	0.624074	0.896846	0.321567
	C147	C	0.385766	0.125679	0.320711
	C148	C	0.680650	0.395787	0.884253
	C149	C	0.684496	0.632124	0.114043
	C150	C	0.330998	0.628691	0.884141
	C151	C	0.330844	0.392008	0.114177
	C152	C	0.890773	0.685663	0.380359
	C153	C	0.121033	0.689253	0.621438
	C154	C	0.891164	0.332190	0.621462
	C155	C	0.122101	0.335648	0.382683
	C156	C	0.890528	0.389887	0.677095
	C157	C	0.121823	0.630980	0.676976
	C158	C	0.891140	0.629172	0.323588
	C159	C	0.122358	0.392568	0.325637
	C160	C	0.386324	0.689003	0.885077
	C161	C	0.629336	0.691553	0.112996
	C162	C	0.625402	0.335622	0.884838
	C163	C	0.385507	0.332148	0.113008
	C164	C	0.679197	0.895617	0.381728
	C165	C	0.684576	0.125802	0.617782
	C166	C	0.328437	0.896359	0.617502
	C167	C	0.330295	0.126712	0.380665
	C168	C	0.885150	0.397665	0.177828
	C169	C	0.130345	0.625259	0.180069
	C170	C	0.125567	0.397178	0.823065
	C171	C	0.886806	0.625383	0.821693
	C172	C	0.179626	0.893900	0.384866
	C173	C	0.184444	0.130175	0.614714
	C174	C	0.831246	0.127623	0.384939
	C175	C	0.827882	0.890653	0.614530
	C176	C	0.389863	0.187235	0.878761
	C177	C	0.621719	0.189200	0.118533
	C178	C	0.391059	0.833533	0.118089
	C179	C	0.622716	0.837226	0.880865
	C180	C	0.389743	0.892006	0.173703
	C181	C	0.621798	0.132681	0.176002
	C182	C	0.390045	0.130681	0.821856
	C183	C	0.622238	0.894193	0.823886
	C184	C	0.884944	0.188895	0.386847
	C185	C	0.128786	0.189657	0.614440
	C186	C	0.125147	0.833431	0.386548
	C187	C	0.883343	0.831643	0.614033
	C188	C	0.180391	0.396051	0.883308
	C189	C	0.185514	0.626053	0.119541
	C190	C	0.828368	0.397684	0.118652
	C191	C	0.832090	0.626702	0.881544
	C192	C	0.408436	0.105634	0.598749
	C193	C	0.603606	0.916850	0.600776
	C194	C	0.605843	0.105565	0.399138
	C195	C	0.404810	0.916950	0.397843
	C196	C	0.604213	0.412209	0.093674
	C197	C	0.607070	0.614409	0.904097
	C198	C	0.410194	0.611233	0.093536
	C199	C	0.405223	0.409775	0.904136
	C200	C	0.102513	0.609844	0.404355
	C201	C	0.909391	0.608469	0.599315
	C202	C	0.102389	0.413269	0.599769
	C203	C	0.909860	0.411100	0.401486
	C204	C	0.909694	0.606263	0.100996
	C205	C	0.105701	0.417070	0.102145
	C206	C	0.105843	0.605746	0.899996
	C207	C	0.905884	0.416997	0.899926
	C208	C	0.103541	0.912307	0.594457
	C209	C	0.104354	0.112904	0.405664
	C210	C	0.908596	0.109207	0.594443
	C211	C	0.904827	0.908408	0.405247
	C212	C	0.602528	0.112520	0.900543
	C213	C	0.409641	0.109761	0.097228
	C214	C	0.602156	0.915012	0.098288
	C215	C	0.410426	0.912823	0.901283
	Zn216	Zn	0.505673	0.012258	0.751140
	Zn217	Zn	0.505610	0.012055	0.247800
	Zn218	Zn	0.756333	0.512642	-0.000694
	Zn219	Zn	0.256766	0.511100	-0.000452
	Zn220	Zn	0.005041	0.759312	0.501021
	Zn221	Zn	0.006034	0.262301	0.501478
	Zn222	Zn	0.005876	0.510868	0.748887
	Zn223	Zn	0.007083	0.511476	0.252690
	Zn224	Zn	0.507640	0.763544	-0.000689
	Zn225	Zn	0.505426	0.260645	-0.001432
	Zn226	Zn	0.755910	0.010012	0.499261
	Zn227	Zn	0.255480	0.011503	0.499210
	N228	N	0.417736	0.975427	0.680229
	N229	N	0.593327	0.048556	0.679963
	N230	N	0.592620	0.974995	0.318620
	N231	N	0.417537	0.047649	0.317730
	N232	N	0.681562	0.429360	0.961786
	N233	N	0.684861	0.598062	0.036725
	N234	N	0.331054	0.594375	0.961422
	N235	N	0.329253	0.425939	0.036896
	N236	N	0.969090	0.687010	0.415363
	N237	N	0.042048	0.689985	0.587814
	N238	N	0.969700	0.332279	0.587800
	N239	N	0.043145	0.333647	0.415654
	N240	N	0.968883	0.425030	0.677805
	N241	N	0.043507	0.595857	0.677215
	N242	N	0.969900	0.596218	0.323537
	N243	N	0.043504	0.425304	0.323592
	N244	N	0.419871	0.691793	0.963000
	N245	N	0.596139	0.694207	0.035004
	N246	N	0.592593	0.332418	0.962674
	N247	N	0.417591	0.329638	0.034939
	N248	N	0.681285	0.972901	0.415610
	N249	N	0.684459	0.048248	0.584390
	N250	N	0.329226	0.973235	0.582556
	N251	N	0.328465	0.049407	0.414481
	N252	N	0.920017	0.475108	0.180209
	N253	N	0.096207	0.547613	0.183011
	N254	N	0.093289	0.475198	0.819920
	N255	N	0.918545	0.547327	0.819086
	N256	N	0.180434	0.928482	0.461826
	N257	N	0.184207	0.096615	0.537415
	N258	N	0.831541	0.092423	0.461708
	N259	N	0.827101	0.924430	0.537093
	N260	N	0.468493	0.189155	0.912906
	N261	N	0.543155	0.189312	0.084208
	N262	N	0.470147	0.833109	0.085636
	N263	N	0.544052	0.835292	0.914251
	N264	N	0.467990	0.927271	0.175180
	N265	N	0.543023	0.098132	0.176884
	N266	N	0.468934	0.097880	0.821240
	N267	N	0.543521	0.927245	0.822689
	N268	N	0.918013	0.191452	0.464857
	N269	N	0.094502	0.192374	0.536732
	N270	N	0.092562	0.830843	0.464629
	N271	N	0.916514	0.829161	0.536369
	N272	N	0.181575	0.473162	0.917284
	N273	N	0.185378	0.548798	0.085554
	N274	N	0.828420	0.475042	0.084903
	N275	N	0.830617	0.549623	0.915844
	O276	O	0.011594	-0.049623	-0.026119
	H277	H	0.009528	-0.047893	-0.040838
	H278	H	0.010821	-0.053880	-0.020051
	O279	O	0.554701	0.601706	0.527109
	H280	H	0.563077	0.595157	0.523830
	H281	H	0.559836	0.592622	0.539739
	O282	O	0.562487	0.565644	0.467081
	H283	H	0.560671	0.571769	0.469842
	H284	H	0.554231	0.560142	0.467148
	O285	O	0.956691	-0.004032	1.045153
	H286	H	0.962580	-0.014240	1.042485
	H287	H	0.954082	-0.000364	1.060820
	O288	O	1.056505	0.096670	0.032505
	H289	H	1.050869	0.109625	0.036482
	H290	H	1.063234	0.098203	0.030516
	O291	O	0.499820	0.494425	0.414044
	H292	H	0.503763	0.494604	0.419484
	H293	H	0.501951	0.497879	0.412737
	O294	O	0.951510	0.006815	0.978885
	H295	H	0.945354	0.013087	0.978649
	H296	H	0.940958	0.011719	0.983543
	O297	O	-0.054116	0.068860	-0.048604
	H298	H	-0.047460	0.071303	-0.054089
	H299	H	-0.046559	0.082915	-0.046175
	O300	O	0.447486	0.510296	0.472487
	H301	H	0.447824	0.512783	0.472596
	H302	H	0.452429	0.506651	0.479518
	O303	O	1.005929	-0.072573	-0.035147
	H304	H	1.004675	-0.077877	-0.038906
	H305	H	0.999812	-0.071401	-0.027925
	O306	O	1.057292	-0.001965	0.025022
	H307	H	1.065146	-0.007966	0.021538
	H308	H	1.056785	-0.006733	0.019100
	O309	O	0.074325	0.063281	1.015673
	H310	H	0.074965	0.049374	1.015907
	H311	H	0.067010	0.063948	1.003435
	O312	O	0.988860	0.938162	1.088512
	H313	H	0.989741	0.937428	1.108035
	H314	H	0.987656	0.932934	1.085847
	O315	O	0.489395	0.551038	0.466930
	H316	H	0.491191	0.552825	0.473601
	H317	H	0.494220	0.554095	0.472112
	O318	O	0.563253	0.458004	0.488379
	H319	H	0.557875	0.458355	0.486840
	H320	H	0.564630	0.461678	0.482364
	O321	O	0.052701	1.059872	1.033784
	H322	H	0.052808	1.061185	1.026376
	H323	H	0.053639	1.060097	1.047803
	O324	O	0.241811	0.156521	0.145678
	H325	H	0.237606	0.164916	0.141536
	H326	H	0.245206	0.154113	0.140869
	O327	O	-0.030512	0.058711	1.010806
	H328	H	-0.033099	0.065651	1.008457
	H329	H	-0.035545	0.059051	1.014096
	O330	O	0.519670	0.548940	0.469925
	H331	H	0.506631	0.549565	0.465161
	H332	H	0.523376	0.544983	0.460710
	O333	O	0.481285	0.487637	0.489487
	H334	H	0.476645	0.491141	0.488359
	H335	H	0.478500	0.488094	0.483750
	O336	O	0.537051	0.455743	0.453232
	H337	H	0.542904	0.454675	0.449126
	H338	H	0.534617	0.459341	0.452268
	O339	O	0.922173	0.975420	-0.016822
	H340	H	0.916731	0.975611	-0.014594
	H341	H	0.918651	0.963785	-0.018467
	O342	O	0.477603	0.473232	0.497485
	H343	H	0.479852	0.476631	0.486683
	H344	H	0.469961	0.476567	0.489422
	O345	O	0.481352	0.554064	0.454004
	H346	H	0.492021	0.555996	0.452773
	H347	H	0.475350	0.552525	0.453766
	O348	O	0.029957	-0.015556	-0.033386
	H349	H	0.024717	-0.001334	-0.033994
	H350	H	0.027713	-0.004766	-0.034761
	O351	O	0.060585	1.099305	1.070847
	H352	H	0.065574	1.100032	1.079931
	H353	H	0.069755	1.097867	1.074284
	O354	O	0.481390	0.508584	0.513702
	H355	H	0.479092	0.508644	0.514542
	H356	H	0.482100	0.498186	0.515789
	O357	O	0.007620	0.997582	0.971507
	H358	H	0.003721	1.002509	0.976670
	H359	H	0.007296	0.988135	0.971694
