data_Molecule from HDF5

_cell_length_a		16.247406
_cell_length_b		16.315863
_cell_length_c		16.127402
_cell_angle_alpha	90.611943
_cell_angle_beta	89.801031
_cell_angle_gamma	90.046052
_symmetry_space_group_name_H-M	'P 1'
_symmetry_Int_Tables_number		1

loop_
	_symmetry_equiv_pos_as_xyz
	x,y,z

loop_
	_atom_site_label
	_atom_site_type_symbol
	_atom_site_fract_x
	_atom_site_fract_y
	_atom_site_fract_z
	H0	H	0.399257	0.826479	0.720232
	H1	H	0.596149	0.153940	0.723909
	H2	H	0.598006	0.827407	0.287352
	H3	H	0.398828	0.153577	0.296897
	H4	H	0.710955	0.388742	0.842982
	H5	H	0.709363	0.592328	0.172602
	H6	H	0.281616	0.589132	0.843102
	H7	H	0.280884	0.394018	0.171851
	H8	H	0.834030	0.706453	0.410482
	H9	H	0.160701	0.707962	0.609173
	H10	H	0.835585	0.272593	0.610046
	H11	H	0.159755	0.271557	0.402047
	H12	H	0.832956	0.394811	0.720761
	H13	H	0.161437	0.589728	0.721729
	H14	H	0.831469	0.589293	0.297203
	H15	H	0.160017	0.391300	0.289368
	H16	H	0.396867	0.702967	0.841918
	H17	H	0.596069	0.709613	0.170108
	H18	H	0.596415	0.273255	0.843843
	H19	H	0.393516	0.279548	0.171633
	H20	H	0.712375	0.825605	0.405195
	H21	H	0.714366	0.152749	0.609632
	H22	H	0.281653	0.827242	0.606368
	H23	H	0.280582	0.151046	0.405817
	H24	H	0.894693	0.327984	0.222695
	H25	H	0.092598	0.655123	0.223866
	H26	H	0.098275	0.329211	0.789721
	H27	H	0.900040	0.655682	0.797939
	H28	H	0.212845	0.887389	0.342228
	H29	H	0.213024	0.090347	0.671110
	H30	H	0.781928	0.089454	0.342639
	H31	H	0.781666	0.891320	0.671528
	H32	H	0.331350	0.204151	0.908732
	H33	H	0.658445	0.210962	0.109839
	H34	H	0.332401	0.774691	0.107136
	H35	H	0.658223	0.771740	0.902212
	H36	H	0.331115	0.894841	0.220661
	H37	H	0.660784	0.090793	0.222218
	H38	H	0.332432	0.088119	0.794394
	H39	H	0.661367	0.892795	0.793411
	H40	H	0.897319	0.204558	0.343034
	H41	H	0.100744	0.208207	0.670133
	H42	H	0.099014	0.772230	0.343431
	H43	H	0.899952	0.781442	0.673584
	H44	H	0.211726	0.328011	0.905704
	H45	H	0.212159	0.654057	0.110248
	H46	H	0.779207	0.327663	0.106707
	H47	H	0.780032	0.653151	0.908355
	H48	H	0.410576	0.102748	0.596609
	H49	H	0.588363	0.874144	0.601404
	H50	H	0.592222	0.105398	0.416453
	H51	H	0.402050	0.871028	0.410270
	H52	H	0.585215	0.401337	0.124085
	H53	H	0.585342	0.585842	0.888527
	H54	H	0.398819	0.584024	0.125766
	H55	H	0.398935	0.396107	0.887752
	H56	H	0.113026	0.578403	0.410909
	H57	H	0.879131	0.589101	0.602068
	H58	H	0.114892	0.391610	0.594531
	H59	H	0.879850	0.391351	0.417021
	H60	H	0.110712	0.404758	0.594549
	H61	H	0.881556	0.583711	0.601261
	H62	H	0.115538	0.589065	0.415289
	H63	H	0.883545	0.398302	0.423408
	H64	H	0.406574	0.579923	0.122324
	H65	H	0.594990	0.580892	0.888526
	H66	H	0.587788	0.398877	0.125823
	H67	H	0.405665	0.400388	0.890612
	H68	H	0.590405	0.105313	0.416614
	H69	H	0.588585	0.874854	0.596333
	H70	H	0.398539	0.106891	0.598043
	H71	H	0.410837	0.874528	0.411631
	H72	H	0.898887	0.607931	0.103293
	H73	H	0.094154	0.377608	0.087322
	H74	H	0.096984	0.607895	0.923743
	H75	H	0.904933	0.377530	0.921981
	H76	H	0.090332	0.912115	0.620801
	H77	H	0.091074	0.087747	0.386447
	H78	H	0.899143	0.073307	0.623378
	H79	H	0.900390	0.892839	0.386856
	H80	H	0.611302	0.088147	0.922242
	H81	H	0.380055	0.087586	0.099602
	H82	H	0.609828	0.895865	0.088401
	H83	H	0.379352	0.892513	0.916805
	H84	H	0.609477	0.908007	0.096523
	H85	H	0.379786	0.083006	0.102596
	H86	H	0.610609	0.077369	0.918406
	H87	H	0.380393	0.900276	0.914425
	H88	H	0.918318	0.077629	0.619213
	H89	H	0.095705	0.073279	0.389633
	H90	H	0.079625	0.891126	0.624182
	H91	H	0.906787	0.901487	0.391356
	H92	H	0.093249	0.611451	0.906729
	H93	H	0.093239	0.371023	0.107169
	H94	H	0.904200	0.606578	0.105405
	H95	H	0.895974	0.372285	0.911563
	H96	H	0.407444	0.108184	0.607179
	H97	H	0.593705	0.874088	0.598750
	H98	H	0.591075	0.105399	0.418520
	H99	H	0.404604	0.874052	0.419532
	H100	H	0.587657	0.402370	0.125128
	H101	H	0.587152	0.575749	0.891327
	H102	H	0.406600	0.589827	0.126220
	H103	H	0.406048	0.392428	0.888893
	H104	H	0.111580	0.580177	0.422281
	H105	H	0.879306	0.586017	0.606372
	H106	H	0.116739	0.399919	0.605705
	H107	H	0.881254	0.401087	0.413442
	H108	H	0.903155	0.606077	0.099672
	H109	H	0.076526	0.379110	0.098135
	H110	H	0.081824	0.604943	0.917932
	H111	H	0.909405	0.374634	0.908473
	H112	H	0.102634	0.893737	0.629241
	H113	H	0.081208	0.077657	0.393399
	H114	H	0.905566	0.092348	0.627064
	H115	H	0.911374	0.891451	0.389940
	H116	H	0.614331	0.085495	0.912591
	H117	H	0.377725	0.087537	0.105100
	H118	H	0.615177	0.895928	0.102913
	H119	H	0.377430	0.894583	0.908579
	C120	C	0.376219	-0.001972	0.628783
	C121	C	0.619926	0.981739	0.629586
	C122	C	0.619952	-0.002070	0.385378
	C123	C	0.376158	0.980735	0.385635
	C124	C	0.616818	0.369795	0.016301
	C125	C	0.617787	0.611975	0.998070
	C126	C	0.375016	0.612386	0.015824
	C127	C	0.374150	0.369531	0.998330
	C128	C	0.005132	0.611182	0.388107
	C129	C	0.988412	0.614540	0.631146
	C130	C	0.006485	0.369122	0.628991
	C131	C	0.988682	0.367531	0.385589
	C132	C	0.872511	0.499511	0.131083
	C133	C	0.117164	0.483078	0.128803
	C134	C	0.119509	0.500291	0.885850
	C135	C	0.875511	0.482936	0.886539
	C136	C	0.120008	0.868271	0.516055
	C137	C	0.119620	0.110756	0.497926
	C138	C	0.877655	0.110508	0.515265
	C139	C	0.876739	0.868344	0.498747
	C140	C	0.503985	0.111835	0.887922
	C141	C	0.487374	0.115245	0.131574
	C142	C	0.504005	0.870263	0.126819
	C143	C	0.487436	0.867463	0.884258
	C144	C	0.378681	0.875601	0.683354
	C145	C	0.617319	0.104813	0.686077
	C146	C	0.618095	0.875674	0.326603
	C147	C	0.378321	0.104166	0.332684
	C148	C	0.672922	0.369646	0.892354
	C149	C	0.672005	0.611722	0.122727
	C150	C	0.319316	0.609452	0.892192
	C151	C	0.318767	0.373695	0.122660
	C152	C	0.882308	0.667708	0.390480
	C153	C	0.111823	0.669638	0.628820
	C154	C	0.883974	0.311828	0.628873
	C155	C	0.111482	0.311139	0.384247
	C156	C	0.882637	0.372718	0.684047
	C157	C	0.112392	0.610708	0.684480
	C158	C	0.880992	0.609189	0.334269
	C159	C	0.111251	0.370293	0.327852
	C160	C	0.376575	0.666126	0.891621
	C161	C	0.615822	0.670165	0.121608
	C162	C	0.615999	0.312003	0.892964
	C163	C	0.374690	0.316394	0.122522
	C164	C	0.674793	0.874898	0.385349
	C165	C	0.676228	0.104189	0.629113
	C166	C	0.320309	0.875718	0.626232
	C167	C	0.319308	0.102840	0.386857
	C168	C	0.874066	0.376719	0.185462
	C169	C	0.114205	0.606163	0.185977
	C170	C	0.117881	0.377830	0.828270
	C171	C	0.878894	0.606147	0.833903
	C172	C	0.175408	0.868079	0.391938
	C173	C	0.175668	0.110359	0.621645
	C174	C	0.820785	0.108913	0.391711
	C175	C	0.820178	0.871471	0.622553
	C176	C	0.380745	0.166692	0.888861
	C177	C	0.609805	0.172105	0.129860
	C178	C	0.381080	0.813757	0.126540
	C179	C	0.610084	0.811061	0.883948
	C180	C	0.380486	0.873252	0.183011
	C181	C	0.611094	0.112246	0.185789
	C182	C	0.381178	0.108989	0.831890
	C183	C	0.611470	0.870896	0.829500
	C184	C	0.877965	0.166402	0.392022
	C185	C	0.119840	0.169067	0.621099
	C186	C	0.118561	0.810863	0.392484
	C187	C	0.879021	0.816762	0.623732
	C188	C	0.174648	0.377414	0.886061
	C189	C	0.173453	0.605669	0.129314
	C190	C	0.816788	0.376545	0.127868
	C191	C	0.819202	0.604971	0.888977
	C192	C	0.398791	0.083827	0.607112
	C193	C	0.597029	0.896386	0.605586
	C194	C	0.597660	0.083138	0.409968
	C195	C	0.399126	0.895213	0.407375
	C196	C	0.593622	0.393853	0.102652
	C197	C	0.595578	0.587989	0.911806
	C198	C	0.397482	0.590996	0.102458
	C199	C	0.396940	0.390289	0.911429
	C200	C	0.090947	0.589032	0.409803
	C201	C	0.902264	0.592839	0.609619
	C202	C	0.091961	0.392173	0.605302
	C203	C	0.903473	0.390253	0.410673
	C204	C	0.895160	0.584789	0.109236
	C205	C	0.094451	0.398069	0.104576
	C206	C	0.097319	0.585860	0.909290
	C207	C	0.897107	0.396965	0.907692
	C208	C	0.097514	0.892162	0.602429
	C209	C	0.096183	0.086487	0.412050
	C210	C	0.900800	0.087874	0.601060
	C211	C	0.899340	0.889175	0.411990
	C212	C	0.589841	0.090152	0.911065
	C213	C	0.401502	0.092600	0.109110
	C214	C	0.589256	0.893146	0.102839
	C215	C	0.401421	0.889265	0.906774
	Zn216	Zn	0.496972	-0.009404	0.758582
	Zn217	Zn	0.496112	-0.009524	0.257903
	Zn218	Zn	0.745654	0.490428	0.007410
	Zn219	Zn	0.247547	0.490957	0.007628
	Zn220	Zn	-0.002196	0.741513	0.508625
	Zn221	Zn	-0.001322	0.239162	0.507071
	Zn222	Zn	-0.002731	0.492054	0.757758
	Zn223	Zn	-0.004504	0.490741	0.258517
	Zn224	Zn	0.496008	0.739627	0.005807
	Zn225	Zn	0.494595	0.242341	0.007694
	Zn226	Zn	0.749026	-0.010721	0.506996
	Zn227	Zn	0.247894	-0.010452	0.506399
	N228	N	0.412647	0.952849	0.684950
	N229	N	0.583091	0.027708	0.686680
	N230	N	0.585056	0.953238	0.326119
	N231	N	0.413068	0.027294	0.331725
	N232	N	0.673622	0.404930	0.970248
	N233	N	0.673660	0.576376	0.044906
	N234	N	0.318374	0.576458	0.970414
	N235	N	0.318096	0.405914	0.044192
	N236	N	0.960394	0.669209	0.423266
	N237	N	0.033798	0.672101	0.596255
	N238	N	0.962022	0.309606	0.595462
	N239	N	0.034231	0.309516	0.419480
	N240	N	0.959792	0.407611	0.684250
	N241	N	0.034705	0.577315	0.686248
	N242	N	0.958134	0.574581	0.332709
	N243	N	0.033944	0.404588	0.328587
	N244	N	0.410676	0.667802	0.969528
	N245	N	0.582928	0.670497	0.043125
	N246	N	0.581805	0.311917	0.971099
	N247	N	0.408344	0.313640	0.044143
	N248	N	0.676361	0.951880	0.421066
	N249	N	0.677888	0.026582	0.594799
	N250	N	0.318873	0.952961	0.592998
	N251	N	0.318044	0.025159	0.419493
	N252	N	0.908024	0.453902	0.187585
	N253	N	0.079995	0.529068	0.185854
	N254	N	0.084371	0.455199	0.827874
	N255	N	0.913237	0.529156	0.832267
	N256	N	0.176544	0.903170	0.469784
	N257	N	0.175692	0.074743	0.543904
	N258	N	0.820205	0.074848	0.469304
	N259	N	0.818393	0.902711	0.543698
	N260	N	0.458293	0.168717	0.923038
	N261	N	0.531677	0.174515	0.097291
	N262	N	0.458803	0.811864	0.092179
	N263	N	0.532076	0.808650	0.917264
	N264	N	0.457822	0.907754	0.183312
	N265	N	0.533915	0.077690	0.187046
	N266	N	0.458729	0.075513	0.831163
	N267	N	0.534210	0.905403	0.829497
	N268	N	0.912666	0.167554	0.469792
	N269	N	0.085771	0.169306	0.543197
	N270	N	0.084741	0.810759	0.470726
	N271	N	0.913323	0.814656	0.545743
	N272	N	0.175972	0.454584	0.921194
	N273	N	0.175541	0.528254	0.094526
	N274	N	0.815652	0.453827	0.094659
	N275	N	0.817187	0.527238	0.921236
	O276	O	1.064056	0.112599	1.085855
	H277	H	1.063654	0.116862	1.082476
	H278	H	1.059793	0.118264	1.102088
	O279	O	0.470902	0.588530	0.538772
	H280	H	0.475438	0.580304	0.529820
	H281	H	0.470097	0.591195	0.540151
	O282	O	0.566542	0.370715	0.348406
	H283	H	0.569584	0.387839	0.352176
	H284	H	0.575847	0.359221	0.345522
	O285	O	0.402757	0.467597	0.455129
	H286	H	0.413631	0.462003	0.450871
	H287	H	0.399983	0.457313	0.468812
	O288	O	0.491102	0.558707	0.578101
	H289	H	0.492731	0.554349	0.588549
	H290	H	0.495902	0.562665	0.577889
	O291	O	0.041081	0.108119	0.895572
	H292	H	0.032255	0.118529	0.910913
	H293	H	0.033785	0.108192	0.893337
	O294	O	1.057231	0.894189	0.027886
	H295	H	1.078230	0.897664	0.028861
	H296	H	1.054312	0.891469	0.017989
	O297	O	1.025305	0.972784	0.013424
	H298	H	1.026428	0.972211	0.013147
	H299	H	1.017674	0.979512	0.024319
	O300	O	0.568845	0.645582	0.407209
	H301	H	0.564351	0.644911	0.403942
	H302	H	0.549524	0.642322	0.409776
	O303	O	0.449920	0.434395	0.613378
	H304	H	0.450544	0.444864	0.611679
	H305	H	0.470612	0.424508	0.621057
	O306	O	0.366770	0.449864	0.394065
	H307	H	0.365863	0.437854	0.385375
	H308	H	0.379550	0.449168	0.397883
	O309	O	0.384315	0.519788	0.616366
	H310	H	0.391236	0.523050	0.613636
	H311	H	0.373980	0.506672	0.611713
	O312	O	0.942995	1.030256	0.850629
	H313	H	0.934713	1.040455	0.857598
	H314	H	0.942906	1.038284	0.835977
	O315	O	0.966777	0.981241	-0.130665
	H316	H	0.969228	0.986532	-0.125309
	H317	H	0.974354	0.956169	-0.123465
	O318	O	0.479317	0.412000	0.579420
	H319	H	0.485638	0.416457	0.572910
	H320	H	0.468422	0.415470	0.587375
	O321	O	1.037501	1.116766	0.010565
	H322	H	1.042007	1.115740	0.019248
	H323	H	1.049474	1.133099	0.019491
	O324	O	-0.486720	1.361262	0.590234
	H325	H	-0.478091	1.372876	0.603429
	H326	H	-0.476256	1.364150	0.580271
	O327	O	-0.518842	1.483625	1.529361
	H328	H	-0.519252	1.484471	1.518156
	H329	H	-0.523683	1.475592	1.529567
	O330	O	-0.089334	-0.056822	0.013262
	H331	H	-0.099903	-0.048294	0.004882
	H332	H	-0.074024	-0.067239	0.001934
	O333	O	0.354543	0.519884	0.514814
	H334	H	0.348861	0.519145	0.519082
	H335	H	0.352026	0.516954	0.522630
	O336	O	0.010171	0.056163	0.078516
	H337	H	0.005561	0.049335	0.082215
	H338	H	-0.007433	0.051757	0.067452
	O339	O	-0.064157	-0.082578	0.092519
	H340	H	-0.078135	-0.082639	0.094137
	H341	H	-0.061106	-0.077070	0.097166
	O342	O	0.653686	0.591233	0.518138
	H343	H	0.651402	0.593415	0.514405
	H344	H	0.667331	0.609539	0.518194
	O345	O	-0.072459	0.932235	0.983853
	H346	H	-0.069522	0.929956	0.984933
	H347	H	-0.073131	0.933448	0.992409
	O348	O	0.570865	0.449610	0.466857
	H349	H	0.567825	0.456514	0.470397
	H350	H	0.570961	0.458803	0.456770
	O351	O	0.585052	0.592470	0.549045
	H352	H	0.579709	0.575599	0.530430
	H353	H	0.580665	0.604513	0.558975
	O354	O	0.023698	0.984322	0.075343
	H355	H	0.015287	0.991507	0.058492
	H356	H	0.016941	0.967963	0.085399
	O357	O	0.628239	0.504340	0.396246
	H358	H	0.620200	0.510774	0.394840
	H359	H	0.632011	0.509979	0.398130
	O360	O	0.616389	0.285633	0.717364
	H361	H	0.618523	0.277697	0.714558
	H362	H	0.624685	0.286778	0.725273
	O363	O	0.541638	0.446847	0.446790
	H364	H	0.531202	0.429397	0.455601
	H365	H	0.548571	0.457549	0.446337
	O366	O	1.082831	0.943428	0.084764
	H367	H	1.078727	0.945348	0.081098
	H368	H	1.086496	0.951173	0.077857
	O369	O	0.989020	-0.123058	-0.029456
	H370	H	0.992118	-0.120175	-0.046764
	H371	H	0.986971	-0.124353	-0.031782
	O372	O	0.594037	0.314723	0.408235
	H373	H	0.596800	0.301894	0.395823
	H374	H	0.614613	0.322863	0.412399
	O375	O	1.014391	0.023081	1.082407
	H376	H	1.007149	0.032576	1.076414
	H377	H	1.024615	0.013179	1.090015
	O378	O	0.136487	0.971760	-0.034741
	H379	H	0.141751	0.979207	-0.021053
	H380	H	0.140725	0.984483	-0.044662
	O381	O	0.523360	0.455232	0.529208
	H382	H	0.535981	0.457377	0.525240
	H383	H	0.515941	0.460693	0.533719
	O384	O	0.871368	1.086269	0.014062
	H385	H	0.873004	1.074234	0.003955
	H386	H	0.869393	1.084325	0.028103
	O387	O	0.906230	-0.078508	1.002789
	H388	H	0.904033	-0.089572	1.002279
	H389	H	0.911155	-0.072731	0.995249
	O390	O	0.943499	1.006978	0.018086
	H391	H	0.954958	0.996696	0.006338
	H392	H	0.948874	1.001320	0.023705
	O393	O	0.500187	0.487707	0.568427
	H394	H	0.488615	0.482243	0.581663
	H395	H	0.496519	0.493337	0.556616
