data_Molecule from HDF5

_cell_length_a		16.280423
_cell_length_b		16.262133
_cell_length_c		16.239902
_cell_angle_alpha	89.963228
_cell_angle_beta	90.187805
_cell_angle_gamma	89.973888
_symmetry_space_group_name_H-M	'P 1'
_symmetry_Int_Tables_number		1

loop_
	_symmetry_equiv_pos_as_xyz
	x,y,z

loop_
	_atom_site_label
	_atom_site_type_symbol
	_atom_site_fract_x
	_atom_site_fract_y
	_atom_site_fract_z
	H0	H	0.405650	0.827726	0.708147
	H1	H	0.599690	0.156536	0.708380
	H2	H	0.599385	0.828233	0.282218
	H3	H	0.403286	0.156329	0.279691
	H4	H	0.716000	0.394525	0.830542
	H5	H	0.716040	0.588762	0.159778
	H6	H	0.288245	0.589559	0.831330
	H7	H	0.290316	0.393603	0.159969
	H8	H	0.838979	0.706645	0.395581
	H9	H	0.166171	0.707234	0.593948
	H10	H	0.839290	0.277257	0.593141
	H11	H	0.166674	0.278526	0.398747
	H12	H	0.838453	0.393899	0.708197
	H13	H	0.166770	0.589424	0.708707
	H14	H	0.838730	0.590134	0.281036
	H15	H	0.167963	0.396157	0.283659
	H16	H	0.404497	0.705510	0.830472
	H17	H	0.602271	0.706401	0.158667
	H18	H	0.599843	0.278309	0.830597
	H19	H	0.406974	0.278121	0.159785
	H20	H	0.716260	0.828135	0.396475
	H21	H	0.716652	0.156244	0.592526
	H22	H	0.289644	0.827934	0.592403
	H23	H	0.287496	0.156182	0.396070
	H24	H	0.907368	0.328110	0.207711
	H25	H	0.101408	0.656873	0.209559
	H26	H	0.101021	0.328382	0.781207
	H27	H	0.904698	0.656278	0.780901
	H28	H	0.215717	0.894716	0.330404
	H29	H	0.217216	0.090277	0.658901
	H30	H	0.789219	0.089867	0.330085
	H31	H	0.789473	0.893890	0.658781
	H32	H	0.339497	0.207477	0.894547
	H33	H	0.667452	0.204084	0.092920
	H34	H	0.339744	0.777149	0.092260
	H35	H	0.666889	0.778047	0.896827
	H36	H	0.338780	0.893666	0.208346
	H37	H	0.666809	0.088189	0.208342
	H38	H	0.338720	0.090064	0.779712
	H39	H	0.667369	0.894734	0.782086
	H40	H	0.904638	0.206207	0.331002
	H41	H	0.102053	0.206367	0.659334
	H42	H	0.100508	0.778474	0.330316
	H43	H	0.904524	0.777460	0.658282
	H44	H	0.216501	0.327941	0.898146
	H45	H	0.218113	0.656102	0.094763
	H46	H	0.791023	0.327868	0.092615
	H47	H	0.788340	0.656093	0.896370
	H48	H	0.411227	0.106987	0.585015
	H49	H	0.593305	0.876702	0.587432
	H50	H	0.602003	0.109847	0.406692
	H51	H	0.405283	0.878347	0.413008
	H52	H	0.613037	0.401406	0.115579
	H53	H	0.589381	0.579619	0.882014
	H54	H	0.404555	0.577795	0.111809
	H55	H	0.407188	0.407777	0.880532
	H56	H	0.121409	0.587517	0.400521
	H57	H	0.887434	0.585884	0.583010
	H58	H	0.121136	0.401574	0.597437
	H59	H	0.883714	0.399534	0.393420
	H60	H	0.121568	0.390078	0.586543
	H61	H	0.886576	0.581522	0.590944
	H62	H	0.118821	0.587058	0.405023
	H63	H	0.884715	0.391755	0.404113
	H64	H	0.419949	0.583835	0.108749
	H65	H	0.594028	0.593669	0.876402
	H66	H	0.587605	0.408179	0.106515
	H67	H	0.417772	0.395673	0.879785
	H68	H	0.598243	0.112481	0.393996
	H69	H	0.599865	0.875182	0.585602
	H70	H	0.404865	0.110112	0.587374
	H71	H	0.400742	0.871287	0.392724
	H72	H	0.912044	0.608438	0.086417
	H73	H	0.086624	0.379586	0.087743
	H74	H	0.093640	0.605028	0.912659
	H75	H	0.916225	0.375085	0.892659
	H76	H	0.091346	0.894703	0.611453
	H77	H	0.096097	0.071950	0.382114
	H78	H	0.911326	0.084077	0.610746
	H79	H	0.914533	0.901140	0.379540
	H80	H	0.619279	0.073633	0.891885
	H81	H	0.387534	0.083451	0.085416
	H82	H	0.618659	0.904301	0.091842
	H83	H	0.387634	0.901671	0.903458
	H84	H	0.622882	0.893656	0.092476
	H85	H	0.384882	0.084593	0.089386
	H86	H	0.624681	0.099307	0.897939
	H87	H	0.385574	0.898673	0.897203
	H88	H	0.909244	0.087077	0.612279
	H89	H	0.083524	0.092584	0.379256
	H90	H	0.102032	0.898111	0.613646
	H91	H	0.907715	0.892268	0.374846
	H92	H	0.106243	0.612611	0.899575
	H93	H	0.105495	0.374759	0.081368
	H94	H	0.905964	0.609740	0.087022
	H95	H	0.913098	0.379406	0.911824
	H96	H	0.410753	0.109639	0.591790
	H97	H	0.597550	0.873636	0.592139
	H98	H	0.588848	0.106510	0.403214
	H99	H	0.420543	0.878232	0.398150
	H100	H	0.593098	0.382567	0.115346
	H101	H	0.603807	0.581768	0.876592
	H102	H	0.407807	0.593873	0.115919
	H103	H	0.402271	0.392957	0.874478
	H104	H	0.118580	0.583634	0.402000
	H105	H	0.883832	0.590638	0.589359
	H106	H	0.115762	0.404340	0.582844
	H107	H	0.888846	0.404727	0.404997
	H108	H	0.909860	0.610301	0.091609
	H109	H	0.100488	0.371478	0.100641
	H110	H	0.088028	0.609072	0.894241
	H111	H	0.898110	0.371475	0.900796
	H112	H	0.094618	0.904837	0.608810
	H113	H	0.106949	0.091574	0.372896
	H114	H	0.907463	0.083355	0.611756
	H115	H	0.902774	0.903267	0.376857
	H116	H	0.614696	0.082900	0.916814
	H117	H	0.385568	0.087839	0.086367
	H118	H	0.617936	0.897636	0.082372
	H119	H	0.385368	0.895596	0.903519
	C120	C	0.381519	0.000318	0.615947
	C121	C	0.624830	0.983675	0.616548
	C122	C	0.624222	0.001176	0.373234
	C123	C	0.380291	0.984127	0.372475
	C124	C	0.625278	0.369802	0.003434
	C125	C	0.624581	0.613549	0.986623
	C126	C	0.381859	0.613482	0.003551
	C127	C	0.381380	0.370321	0.986884
	C128	C	0.011226	0.614026	0.373564
	C129	C	0.994434	0.614011	0.616311
	C130	C	0.011114	0.370244	0.616946
	C131	C	0.994431	0.370408	0.373113
	C132	C	0.881819	0.500993	0.116383
	C133	C	0.125394	0.483965	0.117667
	C134	C	0.124467	0.500762	0.873655
	C135	C	0.880971	0.483562	0.873128
	C136	C	0.124497	0.870633	0.502782
	C137	C	0.124029	0.113636	0.486980
	C138	C	0.880861	0.113539	0.503280
	C139	C	0.880885	0.870830	0.485799
	C140	C	0.511253	0.113411	0.873256
	C141	C	0.494478	0.113064	0.115875
	C142	C	0.511416	0.870318	0.116577
	C143	C	0.494693	0.870583	0.873254
	C144	C	0.384896	0.876616	0.670284
	C145	C	0.621017	0.107514	0.670999
	C146	C	0.620598	0.877139	0.319466
	C147	C	0.382893	0.107464	0.317414
	C148	C	0.678744	0.373503	0.879830
	C149	C	0.679595	0.610556	0.110211
	C150	C	0.326337	0.610413	0.880077
	C151	C	0.327983	0.373354	0.110856
	C152	C	0.887789	0.668820	0.375375
	C153	C	0.117462	0.669266	0.614411
	C154	C	0.887944	0.315522	0.613627
	C155	C	0.117870	0.316171	0.377364
	C156	C	0.887615	0.373587	0.670840
	C157	C	0.117617	0.610952	0.671448
	C158	C	0.887813	0.611037	0.318557
	C159	C	0.118493	0.374701	0.320438
	C160	C	0.383838	0.668285	0.879923
	C161	C	0.622469	0.668194	0.110063
	C162	C	0.620971	0.315950	0.879702
	C163	C	0.385213	0.315277	0.110504
	C164	C	0.678669	0.877287	0.376055
	C165	C	0.679219	0.107391	0.613694
	C166	C	0.326948	0.876884	0.613234
	C167	C	0.325404	0.107505	0.375493
	C168	C	0.886099	0.377101	0.170423
	C169	C	0.122485	0.607602	0.172315
	C170	C	0.121863	0.377394	0.818920
	C171	C	0.883700	0.607241	0.818425
	C172	C	0.178505	0.873508	0.379316
	C173	C	0.179214	0.110854	0.610103
	C174	C	0.826172	0.111221	0.379421
	C175	C	0.826974	0.873593	0.609855
	C176	C	0.387987	0.168897	0.874903
	C177	C	0.618236	0.167165	0.113370
	C178	C	0.388170	0.815667	0.112843
	C179	C	0.618102	0.815940	0.876239
	C180	C	0.387833	0.873519	0.170468
	C181	C	0.618012	0.109325	0.170609
	C182	C	0.387703	0.110483	0.817939
	C183	C	0.618209	0.873756	0.819101
	C184	C	0.883750	0.168553	0.379758
	C185	C	0.121876	0.168461	0.610331
	C186	C	0.120957	0.816027	0.379329
	C187	C	0.883859	0.815728	0.609630
	C188	C	0.179070	0.377203	0.877057
	C189	C	0.180350	0.607389	0.115259
	C190	C	0.828140	0.377186	0.113296
	C191	C	0.825759	0.607021	0.875504
	C192	C	0.402611	0.086682	0.594486
	C193	C	0.603268	0.897430	0.594590
	C194	C	0.602606	0.087223	0.394877
	C195	C	0.402497	0.898032	0.394676
	C196	C	0.604076	0.391057	0.090150
	C197	C	0.602188	0.591438	0.900420
	C198	C	0.404160	0.591681	0.089836
	C199	C	0.402533	0.392398	0.900386
	C200	C	0.097411	0.592378	0.395915
	C201	C	0.908161	0.592330	0.594330
	C202	C	0.097297	0.392157	0.595192
	C203	C	0.908087	0.392267	0.394542
	C204	C	0.903028	0.587190	0.094844
	C205	C	0.104001	0.397621	0.096183
	C206	C	0.102624	0.586750	0.895759
	C207	C	0.902878	0.397604	0.895115
	C208	C	0.102611	0.892771	0.589054
	C209	C	0.101870	0.091875	0.400412
	C210	C	0.902748	0.091390	0.589421
	C211	C	0.901881	0.892367	0.399493
	C212	C	0.597318	0.091650	0.895621
	C213	C	0.408280	0.091648	0.093620
	C214	C	0.597592	0.892119	0.095177
	C215	C	0.408537	0.892226	0.894784
	Zn216	Zn	0.502916	-0.008551	0.744449
	Zn217	Zn	0.502849	-0.007929	0.244877
	Zn218	Zn	0.752924	0.492459	-0.004852
	Zn219	Zn	0.253012	0.492254	-0.004103
	Zn220	Zn	0.002418	0.742612	0.494521
	Zn221	Zn	0.002410	0.241752	0.495178
	Zn222	Zn	0.002621	0.492104	0.745159
	Zn223	Zn	0.003453	0.492975	0.245231
	Zn224	Zn	0.503565	0.741917	-0.005299
	Zn225	Zn	0.502841	0.241701	-0.004883
	Zn226	Zn	0.752742	-0.007885	0.494569
	Zn227	Zn	0.252531	-0.007647	0.494973
	N228	N	0.418094	0.954258	0.671998
	N229	N	0.587965	0.029678	0.672743
	N230	N	0.587516	0.954983	0.317476
	N231	N	0.416470	0.029773	0.315794
	N232	N	0.681281	0.406298	0.957870
	N233	N	0.680673	0.577050	0.032512
	N234	N	0.325204	0.576905	0.957815
	N235	N	0.325296	0.406528	0.032846
	N236	N	0.965580	0.670920	0.408928
	N237	N	0.039855	0.671227	0.580733
	N238	N	0.965704	0.313580	0.580725
	N239	N	0.039701	0.313154	0.409133
	N240	N	0.965336	0.406830	0.672998
	N241	N	0.039976	0.577413	0.672740
	N242	N	0.965411	0.577673	0.317472
	N243	N	0.040687	0.407617	0.317737
	N244	N	0.417517	0.670191	0.957748
	N245	N	0.588855	0.669983	0.032325
	N246	N	0.588377	0.313609	0.957810
	N247	N	0.417798	0.313518	0.032469
	N248	N	0.680992	0.955214	0.409006
	N249	N	0.681587	0.029450	0.580597
	N250	N	0.324769	0.954893	0.580117
	N251	N	0.323645	0.029763	0.408813
	N252	N	0.918744	0.455033	0.172644
	N253	N	0.089072	0.530021	0.173925
	N254	N	0.088542	0.455090	0.816816
	N255	N	0.917131	0.529534	0.816712
	N256	N	0.180719	0.906662	0.457116
	N257	N	0.180484	0.077331	0.532427
	N258	N	0.824512	0.077352	0.457139
	N259	N	0.824958	0.907211	0.532058
	N260	N	0.465479	0.170610	0.908787
	N261	N	0.540486	0.169375	0.079857
	N262	N	0.465958	0.813617	0.080209
	N263	N	0.540360	0.813959	0.909389
	N264	N	0.465534	0.906632	0.173021
	N265	N	0.540189	0.076534	0.172261
	N266	N	0.465334	0.076771	0.816708
	N267	N	0.540596	0.907071	0.817327
	N268	N	0.917199	0.169911	0.457550
	N269	N	0.088219	0.170158	0.532446
	N270	N	0.087937	0.814145	0.457141
	N271	N	0.916792	0.813876	0.531758
	N272	N	0.180869	0.455016	0.910338
	N273	N	0.182112	0.529674	0.081738
	N274	N	0.825326	0.455117	0.080249
	N275	N	0.823773	0.529228	0.908807
	O276	O	1.034377	0.031060	0.977285
	H277	H	1.039227	0.021457	0.975297
	H278	H	1.036997	0.030659	0.981303
	O279	O	0.034712	1.015684	0.989840
	H280	H	0.025460	1.016304	0.988502
	H281	H	0.037011	1.015661	0.988876
	O282	O	0.996888	1.043597	-0.035849
	H283	H	1.008095	1.051140	-0.042429
	H284	H	0.993655	1.053904	-0.031147
	O285	O	0.007227	1.052554	0.984513
	H286	H	0.009482	1.048344	0.989369
	H287	H	0.005824	1.059111	0.980975
