data_Molecule from HDF5

_cell_length_a		16.499328
_cell_length_b		16.355351
_cell_length_c		16.429644
_cell_angle_alpha	90.059493
_cell_angle_beta	90.060295
_cell_angle_gamma	90.009914
_symmetry_space_group_name_H-M	'P 1'
_symmetry_Int_Tables_number		1

loop_
	_symmetry_equiv_pos_as_xyz
	x,y,z

loop_
	_atom_site_label
	_atom_site_type_symbol
	_atom_site_fract_x
	_atom_site_fract_y
	_atom_site_fract_z
	H0	H	0.402975	0.859990	0.732481
	H1	H	0.618621	0.175662	0.729925
	H2	H	0.619440	0.858161	0.281824
	H3	H	0.405889	0.175097	0.288459
	H4	H	0.734639	0.404684	0.851643
	H5	H	0.736205	0.629443	0.163336
	H6	H	0.289902	0.618863	0.847553
	H7	H	0.285495	0.409294	0.164204
	H8	H	0.852354	0.740497	0.398280
	H9	H	0.167606	0.734811	0.610848
	H10	H	0.853147	0.289889	0.615512
	H11	H	0.166690	0.295353	0.403137
	H12	H	0.852041	0.406424	0.731091
	H13	H	0.166428	0.620092	0.728248
	H14	H	0.853414	0.628365	0.279572
	H15	H	0.165684	0.410831	0.285664
	H16	H	0.403984	0.736835	0.848906
	H17	H	0.615893	0.740633	0.165145
	H18	H	0.614173	0.293861	0.849761
	H19	H	0.403464	0.295853	0.165764
	H20	H	0.733540	0.857167	0.398772
	H21	H	0.733874	0.174248	0.613517
	H22	H	0.285301	0.859593	0.618397
	H23	H	0.287909	0.173137	0.401729
	H24	H	0.900658	0.358625	0.230565
	H25	H	0.116565	0.674429	0.230492
	H26	H	0.114025	0.356624	0.785239
	H27	H	0.900919	0.672693	0.783900
	H28	H	0.236193	0.905532	0.351405
	H29	H	0.232978	0.123296	0.664548
	H30	H	0.785307	0.124592	0.350361
	H31	H	0.784666	0.905026	0.662655
	H32	H	0.351796	0.236762	0.902975
	H33	H	0.667412	0.240392	0.113983
	H34	H	0.351584	0.794578	0.115708
	H35	H	0.666588	0.793361	0.904124
	H36	H	0.352754	0.910749	0.231557
	H37	H	0.668239	0.123948	0.230220
	H38	H	0.355098	0.126743	0.782122
	H39	H	0.667578	0.908403	0.786193
	H40	H	0.901365	0.239392	0.350243
	H41	H	0.115960	0.237859	0.665122
	H42	H	0.115627	0.794217	0.348717
	H43	H	0.902947	0.791436	0.664102
	H44	H	0.229653	0.356895	0.901232
	H45	H	0.233152	0.674069	0.115703
	H46	H	0.781993	0.360036	0.118714
	H47	H	0.783897	0.672295	0.899216
	H48	H	0.424687	0.131292	0.601474
	H49	H	0.595738	0.904069	0.596503
	H50	H	0.601764	0.129301	0.419774
	H51	H	0.423915	0.902182	0.418460
	H52	H	0.590481	0.431111	0.118040
	H53	H	0.596384	0.595589	0.899165
	H54	H	0.419461	0.604171	0.120531
	H55	H	0.415882	0.428717	0.892925
	H56	H	0.119538	0.600486	0.419104
	H57	H	0.895174	0.606675	0.596798
	H58	H	0.120829	0.424996	0.592739
	H59	H	0.898571	0.427982	0.427694
	H60	H	0.119879	0.431816	0.597986
	H61	H	0.897387	0.603195	0.592530
	H62	H	0.122132	0.604163	0.416229
	H63	H	0.898312	0.435790	0.415591
	H64	H	0.419495	0.605071	0.120686
	H65	H	0.590171	0.605067	0.898003
	H66	H	0.597941	0.425592	0.121434
	H67	H	0.421629	0.428482	0.895095
	H68	H	0.596222	0.128657	0.418177
	H69	H	0.598052	0.903551	0.592913
	H70	H	0.426740	0.126832	0.590436
	H71	H	0.425450	0.903204	0.421974
	H72	H	0.916081	0.630742	0.095878
	H73	H	0.090492	0.405738	0.094527
	H74	H	0.095389	0.627204	0.920159
	H75	H	0.923424	0.404215	0.923180
	H76	H	0.098518	0.929955	0.619043
	H77	H	0.098404	0.100447	0.395899
	H78	H	0.929081	0.102128	0.617544
	H79	H	0.920134	0.935043	0.395947
	H80	H	0.624144	0.105722	0.917854
	H81	H	0.397093	0.105581	0.099957
	H82	H	0.621910	0.926685	0.094290
	H83	H	0.399740	0.933320	0.921615
	H84	H	0.619499	0.930653	0.092795
	H85	H	0.396890	0.107308	0.097948
	H86	H	0.622609	0.106206	0.922207
	H87	H	0.395863	0.930559	0.913668
	H88	H	0.919612	0.104721	0.620713
	H89	H	0.097113	0.106599	0.392974
	H90	H	0.097423	0.924561	0.620046
	H91	H	0.927875	0.927765	0.397051
	H92	H	0.102110	0.630410	0.920227
	H93	H	0.101013	0.404315	0.089808
	H94	H	0.928648	0.626877	0.095897
	H95	H	0.917724	0.401462	0.921674
	H96	H	0.415550	0.130530	0.593084
	H97	H	0.599479	0.902702	0.596833
	H98	H	0.598009	0.126786	0.423591
	H99	H	0.421489	0.902651	0.421521
	H100	H	0.599915	0.435613	0.118095
	H101	H	0.600460	0.604891	0.893510
	H102	H	0.418808	0.604347	0.121357
	H103	H	0.419745	0.424002	0.892479
	H104	H	0.120877	0.605613	0.421412
	H105	H	0.895964	0.600841	0.597477
	H106	H	0.123619	0.424416	0.600715
	H107	H	0.893230	0.422653	0.415501
	H108	H	0.922088	0.625970	0.084974
	H109	H	0.098807	0.401011	0.100679
	H110	H	0.098241	0.630849	0.913817
	H111	H	0.922149	0.402939	0.917090
	H112	H	0.102094	0.926551	0.621330
	H113	H	0.103344	0.103615	0.392514
	H114	H	0.921648	0.095325	0.616831
	H115	H	0.919458	0.925192	0.392081
	H116	H	0.621460	0.102705	0.920109
	H117	H	0.398458	0.104963	0.098065
	H118	H	0.621110	0.930254	0.097455
	H119	H	0.396521	0.924631	0.921039
	C120	C	0.388732	0.025544	0.629550
	C121	C	0.631726	1.008251	0.628373
	C122	C	0.632333	0.023979	0.386008
	C123	C	0.390533	1.007248	0.388024
	C124	C	0.629819	0.396038	0.015706
	C125	C	0.629547	0.636949	1.000040
	C126	C	0.387011	0.637209	0.016094
	C127	C	0.386934	0.394413	0.998247
	C128	C	0.017540	0.637914	0.384842
	C129	C	1.000218	0.636609	0.628082
	C130	C	0.017821	0.392911	0.630276
	C131	C	1.000513	0.395348	0.386254
	C132	C	0.887354	0.524613	0.127742
	C133	C	0.130420	0.508033	0.128418
	C134	C	0.130132	0.524011	0.885582
	C135	C	0.887071	0.506544	0.886143
	C136	C	0.132399	0.893471	0.516086
	C137	C	0.131660	0.136662	0.498319
	C138	C	0.889066	0.136055	0.515339
	C139	C	0.888491	0.893911	0.498144
	C140	C	0.519170	0.138342	0.886564
	C141	C	0.501491	0.139249	0.130789
	C142	C	0.517447	0.895686	0.129028
	C143	C	0.501096	0.895545	0.886027
	C144	C	0.385051	0.907402	0.692114
	C145	C	0.635716	0.127685	0.689348
	C146	C	0.636442	0.905489	0.323116
	C147	C	0.387653	0.127009	0.327978
	C148	C	0.692582	0.389506	0.898199
	C149	C	0.693301	0.644061	0.116982
	C150	C	0.328509	0.638483	0.895990
	C151	C	0.326087	0.391440	0.117029
	C152	C	0.899732	0.700377	0.380782
	C153	C	0.119547	0.695861	0.630105
	C154	C	0.900183	0.330534	0.633440
	C155	C	0.119016	0.334999	0.384179
	C156	C	0.899570	0.388904	0.690875
	C157	C	0.118969	0.638665	0.688574
	C158	C	0.900201	0.644216	0.321491
	C159	C	0.118583	0.392643	0.325866
	C160	C	0.385603	0.696871	0.896506
	C161	C	0.633510	0.699752	0.118011
	C162	C	0.632997	0.333674	0.897419
	C163	C	0.385053	0.335056	0.117865
	C164	C	0.693353	0.904850	0.381597
	C165	C	0.693611	0.126932	0.631603
	C166	C	0.326440	0.907255	0.635000
	C167	C	0.328593	0.125975	0.384066
	C168	C	0.883072	0.406274	0.190320
	C169	C	0.133959	0.626965	0.189929
	C170	C	0.131746	0.404303	0.825893
	C171	C	0.883074	0.625279	0.824335
	C172	C	0.195067	0.888324	0.398435
	C173	C	0.192521	0.140721	0.617099
	C174	C	0.826222	0.141530	0.397651
	C175	C	0.825960	0.888280	0.615803
	C176	C	0.400114	0.198287	0.883836
	C177	C	0.619909	0.200355	0.132747
	C178	C	0.399070	0.834827	0.133254
	C179	C	0.619367	0.833585	0.884425
	C180	C	0.399833	0.892504	0.191140
	C181	C	0.620525	0.142069	0.190491
	C182	C	0.401709	0.143032	0.823821
	C183	C	0.619970	0.891390	0.826114
	C184	C	0.884399	0.198712	0.397498
	C185	C	0.134070	0.197844	0.617319
	C186	C	0.134879	0.833007	0.396968
	C187	C	0.884741	0.831471	0.616195
	C188	C	0.189647	0.404411	0.883392
	C189	C	0.192263	0.626627	0.132627
	C190	C	0.823799	0.407077	0.134440
	C191	C	0.824648	0.624988	0.881255
	C192	C	0.415013	0.108012	0.602718
	C193	C	0.605360	0.925168	0.602820
	C194	C	0.606194	0.106511	0.412809
	C195	C	0.416405	0.924315	0.413337
	C196	C	0.603523	0.423045	0.097833
	C197	C	0.603110	0.609670	0.918259
	C198	C	0.412049	0.612060	0.099219
	C199	C	0.411965	0.419738	0.915141
	C200	C	0.099296	0.611049	0.411127
	C201	C	0.917661	0.611000	0.602795
	C202	C	0.100115	0.419502	0.604644
	C203	C	0.918155	0.421412	0.412100
	C204	C	0.914418	0.606402	0.100077
	C205	C	0.104303	0.425243	0.102461
	C206	C	0.105350	0.607735	0.910699
	C207	C	0.913416	0.424495	0.913035
	C208	C	0.106682	0.919567	0.598695
	C209	C	0.106768	0.110759	0.415528
	C210	C	0.915836	0.108536	0.597052
	C211	C	0.915003	0.921487	0.416449
	C212	C	0.601336	0.112318	0.912665
	C213	C	0.418978	0.113185	0.105899
	C214	C	0.599406	0.921661	0.102485
	C215	C	0.418899	0.921818	0.911340
	Zn216	Zn	0.511117	0.017676	0.757214
	Zn217	Zn	0.510144	0.015946	0.258355
	Zn218	Zn	0.758880	0.516219	0.007662
	Zn219	Zn	0.258609	0.515652	0.006662
	Zn220	Zn	0.010037	0.765711	0.506744
	Zn221	Zn	0.009605	0.265409	0.507259
	Zn222	Zn	0.008319	0.515575	0.757761
	Zn223	Zn	0.008387	0.516405	0.256620
	Zn224	Zn	0.508200	0.766159	0.007709
	Zn225	Zn	0.509249	0.267140	0.007602
	Zn226	Zn	0.760196	0.015153	0.507153
	Zn227	Zn	0.260394	0.015634	0.507354
	N228	N	0.422823	0.982131	0.689023
	N229	N	0.598073	0.052638	0.687512
	N230	N	0.599266	0.980674	0.325684
	N231	N	0.425712	0.052317	0.330372
	N232	N	0.690748	0.427468	0.972893
	N233	N	0.690893	0.605467	0.042655
	N234	N	0.329147	0.602289	0.971403
	N235	N	0.327000	0.427359	0.041490
	N236	N	0.973691	0.696721	0.419352
	N237	N	0.044523	0.695145	0.593669
	N238	N	0.974689	0.333195	0.596125
	N239	N	0.044283	0.336448	0.420782
	N240	N	0.973837	0.426801	0.688945
	N241	N	0.043487	0.602935	0.687826
	N242	N	0.974405	0.606146	0.323816
	N243	N	0.043656	0.429267	0.327108
	N244	N	0.421024	0.696381	0.972375
	N245	N	0.594263	0.695337	0.044418
	N246	N	0.594837	0.337666	0.971549
	N247	N	0.422130	0.336928	0.043094
	N248	N	0.690942	0.979571	0.419874
	N249	N	0.691156	0.051663	0.594528
	N250	N	0.328584	0.981825	0.596837
	N251	N	0.330279	0.050562	0.420808
	N252	N	0.921881	0.480440	0.186536
	N253	N	0.096143	0.552082	0.187499
	N254	N	0.095060	0.479633	0.827603
	N255	N	0.921038	0.550709	0.827169
	N256	N	0.193818	0.925092	0.473744
	N257	N	0.191018	0.103355	0.542220
	N258	N	0.828931	0.103150	0.471977
	N259	N	0.828191	0.926247	0.541439
	N260	N	0.474056	0.195369	0.922141
	N261	N	0.544827	0.198888	0.096521
	N262	N	0.473261	0.836627	0.095174
	N263	N	0.544373	0.835767	0.920677
	N264	N	0.474516	0.929306	0.188658
	N265	N	0.545797	0.105009	0.189674
	N266	N	0.476789	0.106471	0.825286
	N267	N	0.545301	0.928894	0.826581
	N268	N	0.922730	0.195389	0.471688
	N269	N	0.096585	0.195486	0.542516
	N270	N	0.096598	0.836108	0.471099
	N271	N	0.922663	0.834773	0.541805
	N272	N	0.188613	0.480010	0.919957
	N273	N	0.189943	0.551731	0.094948
	N274	N	0.826385	0.481875	0.096418
	N275	N	0.826811	0.550090	0.918832
	O276	O	0.038707	0.233605	0.226197
	H277	H	0.038103	0.244493	0.250584
	H278	H	0.051773	0.224374	0.236429
	O279	O	1.024082	0.230380	1.005977
	H280	H	1.042946	0.232026	1.004455
	H281	H	1.024691	0.225316	1.006275
	O282	O	0.488714	0.407550	0.679175
	H283	H	0.497037	0.402005	0.675062
	H284	H	0.467638	0.387407	0.675315
	O285	O	0.730494	0.580317	0.452917
	H286	H	0.721191	0.561349	0.462135
	H287	H	0.727383	0.571487	0.433251
	O288	O	0.998014	0.942059	-0.060972
	H289	H	1.018695	0.940123	-0.058106
	H290	H	1.006588	0.955403	-0.062085
	O291	O	0.697839	0.447326	0.558636
	H292	H	0.707669	0.456680	0.575010
	H293	H	0.672886	0.448816	0.556923
	O294	O	0.136005	-0.109835	1.029700
	H295	H	0.148296	-0.113509	1.029109
	H296	H	0.140122	-0.128655	1.031277
	O297	O	0.309110	0.532655	0.313019
	H298	H	0.317690	0.544065	0.309592
	H299	H	0.308147	0.545564	0.305390
	O300	O	0.476942	0.412119	0.703035
	H301	H	0.459030	0.409477	0.693196
	H302	H	0.466911	0.421581	0.708948
	O303	O	0.572472	0.598557	0.294438
	H304	H	0.564543	0.610621	0.294707
	H305	H	0.556427	0.607011	0.297893
	O306	O	0.534382	0.735992	0.722656
	H307	H	0.539517	0.771350	0.758641
	H308	H	0.583103	0.725802	0.709397
	O309	O	0.333017	0.668139	0.357211
	H310	H	0.338050	0.644526	0.368506
	H311	H	0.332957	0.680930	0.380691
	O312	O	0.221084	0.990530	0.796194
	H313	H	0.233020	1.008987	0.798793
	H314	H	0.244276	1.006729	0.798742
	O315	O	0.342780	0.500750	0.675215
	H316	H	0.347997	0.513299	0.669620
	H317	H	0.333299	0.524713	0.682413
	O318	O	0.998682	-0.115837	0.077123
	H319	H	0.987117	-0.121869	0.088407
	H320	H	0.986495	-0.102333	0.086177
	O321	O	-0.171679	0.192806	-0.173071
	H322	H	-0.162083	0.204286	-0.142662
	H323	H	-0.140225	0.202705	-0.160023
	O324	O	0.451766	0.549153	0.691527
	H325	H	0.451580	0.551967	0.690327
	H326	H	0.443103	0.551302	0.682669
	O327	O	0.567633	0.525853	0.523198
	H328	H	0.560300	0.531534	0.512061
	H329	H	0.549193	0.532248	0.545404
	O330	O	-0.170838	0.843129	0.187312
	H331	H	-0.179867	0.867901	0.168980
	H332	H	-0.163085	0.841210	0.167280
	O333	O	0.678348	0.311085	0.488832
	H334	H	0.675278	0.313385	0.499527
	H335	H	0.689773	0.308969	0.499974
	O336	O	0.213265	0.249561	-0.088513
	H337	H	0.232242	0.262020	-0.096008
	H338	H	0.227034	0.245928	-0.065587
	O339	O	0.196445	0.827346	0.822186
	H340	H	0.204499	0.881278	0.812011
	H341	H	0.147434	0.815631	0.809106
	O342	O	-0.033096	1.004231	1.125925
	H343	H	-0.017895	0.977520	1.117537
	H344	H	-0.019154	1.018756	1.112271
	O345	O	0.721169	0.539351	-0.278115
	H346	H	0.733110	0.527611	-0.260565
	H347	H	0.708668	0.524090	-0.260624
	O348	O	0.308576	0.724771	0.493376
	H349	H	0.282873	0.751401	0.491485
	H350	H	0.343463	0.732478	0.516120
	O351	O	0.046395	0.846663	1.031672
	H352	H	0.058936	0.848941	1.033160
	H353	H	0.062808	0.847039	1.037151
	O354	O	-0.193382	1.051423	0.057111
	H355	H	-0.173942	1.068774	0.037718
	H356	H	-0.198084	1.050050	0.038523
	O357	O	0.217809	0.077495	0.965788
	H358	H	0.222362	0.101305	0.989516
	H359	H	0.221069	0.050305	0.998583
	O360	O	0.251581	0.260935	0.256061
	H361	H	0.259433	0.259367	0.252233
	H362	H	0.259923	0.253585	0.267222
	O363	O	-0.198682	0.224551	0.986239
	H364	H	-0.199571	0.217828	1.006663
	H365	H	-0.191341	0.248528	1.000768
	O366	O	0.142301	0.022210	0.904792
	H367	H	0.151647	0.005585	0.902524
	H368	H	0.145633	-0.001064	0.911796
	O369	O	0.694355	0.703703	0.694707
	H370	H	0.705737	0.697655	0.656721
	H371	H	0.711367	0.671467	0.711272
	O372	O	1.038311	0.204909	0.826428
	H373	H	1.054569	0.179989	0.825955
	H374	H	1.045338	0.218300	0.809732
	O375	O	0.725129	0.731118	0.529829
	H376	H	0.753975	0.753323	0.542146
	H377	H	0.737306	0.707218	0.508440
	O378	O	0.375303	0.467912	0.498492
	H379	H	0.383739	0.483753	0.470856
	H380	H	0.381990	0.473159	0.497344
	O381	O	0.695194	0.334928	0.327093
	H382	H	0.706124	0.388523	0.318910
	H383	H	0.704379	0.325272	0.381610
	O384	O	0.537949	0.298340	0.289163
	H385	H	0.542164	0.259402	0.252357
	H386	H	0.590326	0.310161	0.304336
	O387	O	0.473218	-0.278967	0.303327
	H388	H	0.463460	-0.276218	0.315723
	H389	H	0.466105	-0.254071	0.294350
	O390	O	-0.186395	-0.184104	0.010399
	H391	H	-0.184003	-0.208973	0.007004
	H392	H	-0.178469	-0.155257	-0.009539
	O393	O	0.791793	1.037944	0.786709
	H394	H	0.793108	1.072298	0.788227
	H395	H	0.766838	1.057153	0.763148
	O396	O	1.232063	-0.206034	-0.018118
	H397	H	1.260313	-0.235350	-0.032040
	H398	H	1.227822	-0.203371	-0.061256
	O399	O	0.934112	0.033254	0.899732
	H400	H	0.924359	0.043427	0.908672
	H401	H	0.926515	0.031971	0.905739
	O402	O	0.993347	0.917484	0.850070
	H403	H	1.000826	0.914754	0.850617
	H404	H	1.012357	0.919266	0.863343
	O405	O	1.022717	0.808499	-0.201144
	H406	H	1.010882	0.807818	-0.211285
	H407	H	1.009386	0.807265	-0.218893
	O408	O	0.961340	0.099123	0.191708
	H409	H	0.957366	0.110246	0.178430
	H410	H	0.939194	0.085776	0.199546
	O411	O	0.798473	0.999459	0.210059
	H412	H	0.773378	0.985197	0.228270
	H413	H	0.785729	1.015505	0.180013
	O414	O	0.577504	0.319965	0.536234
	H415	H	0.582684	0.311904	0.528266
	H416	H	0.566835	0.340698	0.539505
	O417	O	0.417662	0.730531	0.596727
	H418	H	0.447341	0.732310	0.574587
	H419	H	0.439781	0.731946	0.629699
	O420	O	0.211083	0.218913	0.109294
	H421	H	0.190108	0.239893	0.111913
	H422	H	0.213462	0.226467	0.125671
	O423	O	0.557486	0.718364	0.469531
	H424	H	0.565934	0.710801	0.469340
	H425	H	0.578570	0.720499	0.468154
	O426	O	0.725990	0.498694	0.297426
	H427	H	0.688739	0.523769	0.297955
	H428	H	0.751949	0.499473	0.255741
	O429	O	0.371461	0.376175	0.475633
	H430	H	0.361047	0.378607	0.470707
	H431	H	0.384007	0.371861	0.465150
	O432	O	0.352743	0.433864	0.591429
	H433	H	0.367976	0.451238	0.587418
	H434	H	0.356606	0.433676	0.594689
	O435	O	0.480239	0.508108	0.526326
	H436	H	0.459464	0.512375	0.518618
	H437	H	0.460028	0.496811	0.527141
	O438	O	-0.137577	-0.012510	-0.055604
	H439	H	-0.117364	-0.005405	-0.066744
	H440	H	-0.144539	-0.014059	-0.062374
	O441	O	1.195336	0.032670	0.202936
	H442	H	1.184081	0.034563	0.198538
	H443	H	1.168812	0.023472	0.226796
	O444	O	0.015595	0.872579	1.224047
	H445	H	-0.008530	0.862017	1.223076
	H446	H	-0.009653	0.860064	1.232210
	O447	O	0.485289	0.466345	0.293595
	H448	H	0.503891	0.460994	0.291670
	H449	H	0.476825	0.442145	0.291296
	O450	O	0.314418	0.312769	0.578985
	H451	H	0.309168	0.328918	0.589913
	H452	H	0.307394	0.300861	0.570702
	O453	O	-0.014505	0.076889	0.933260
	H454	H	0.011736	0.071411	0.958141
	H455	H	-0.017646	0.077992	0.928401
