data_Molecule from HDF5

_cell_length_a		16.456519
_cell_length_b		16.378819
_cell_length_c		16.329399
_cell_angle_alpha	89.968250
_cell_angle_beta	90.241873
_cell_angle_gamma	90.130786
_symmetry_space_group_name_H-M	'P 1'
_symmetry_Int_Tables_number		1

loop_
	_symmetry_equiv_pos_as_xyz
	x,y,z

loop_
	_atom_site_label
	_atom_site_type_symbol
	_atom_site_fract_x
	_atom_site_fract_y
	_atom_site_fract_z
	H0	H	0.374958	0.839674	0.722551
	H1	H	0.592987	0.154474	0.714769
	H2	H	0.592030	0.836684	0.272176
	H3	H	0.386816	0.156703	0.276601
	H4	H	0.710180	0.390926	0.836245
	H5	H	0.711632	0.604313	0.153360
	H6	H	0.263777	0.603150	0.837428
	H7	H	0.271766	0.392817	0.155792
	H8	H	0.830160	0.718525	0.385697
	H9	H	0.145697	0.719135	0.604132
	H10	H	0.830009	0.270672	0.601262
	H11	H	0.146033	0.274493	0.392204
	H12	H	0.829763	0.387095	0.717766
	H13	H	0.147119	0.599712	0.717641
	H14	H	0.830025	0.599781	0.271747
	H15	H	0.146746	0.390500	0.276512
	H16	H	0.378690	0.718683	0.836835
	H17	H	0.594889	0.718221	0.153844
	H18	H	0.593542	0.275705	0.834739
	H19	H	0.388318	0.278288	0.154890
	H20	H	0.709740	0.837072	0.385398
	H21	H	0.710197	0.153213	0.599627
	H22	H	0.261700	0.839304	0.604598
	H23	H	0.267124	0.154072	0.388248
	H24	H	0.884718	0.335433	0.214445
	H25	H	0.094252	0.653389	0.218767
	H26	H	0.090445	0.335040	0.778461
	H27	H	0.879872	0.652267	0.769659
	H28	H	0.208169	0.888993	0.335239
	H29	H	0.212943	0.103602	0.651906
	H30	H	0.765977	0.100415	0.335299
	H31	H	0.762856	0.885390	0.652226
	H32	H	0.329680	0.218493	0.887821
	H33	H	0.646950	0.217650	0.099459
	H34	H	0.330764	0.772847	0.102410
	H35	H	0.643746	0.770091	0.884932
	H36	H	0.329732	0.892134	0.214493
	H37	H	0.647041	0.101532	0.215594
	H38	H	0.330134	0.103554	0.771258
	H39	H	0.644265	0.888005	0.770995
	H40	H	0.882094	0.214931	0.335097
	H41	H	0.093901	0.215868	0.654123
	H42	H	0.090374	0.775255	0.335322
	H43	H	0.880517	0.772519	0.653564
	H44	H	0.206778	0.335224	0.893651
	H45	H	0.212268	0.653763	0.105149
	H46	H	0.763271	0.338658	0.104962
	H47	H	0.765275	0.654114	0.886300
	H48	H	0.394773	0.109808	0.579767
	H49	H	0.578158	0.879169	0.587001
	H50	H	0.574432	0.109820	0.400599
	H51	H	0.396410	0.883545	0.410868
	H52	H	0.579335	0.408226	0.108774
	H53	H	0.575423	0.575188	0.883945
	H54	H	0.397853	0.582436	0.109169
	H55	H	0.395408	0.411496	0.880446
	H56	H	0.096213	0.579936	0.412433
	H57	H	0.873121	0.590698	0.583224
	H58	H	0.100944	0.401305	0.582870
	H59	H	0.875689	0.405668	0.407530
	H60	H	0.098238	0.409661	0.583283
	H61	H	0.880119	0.579838	0.573956
	H62	H	0.101676	0.582720	0.402746
	H63	H	0.872220	0.405238	0.400914
	H64	H	0.403160	0.582603	0.107213
	H65	H	0.568791	0.587227	0.882776
	H66	H	0.575109	0.408849	0.107567
	H67	H	0.400509	0.407205	0.880990
	H68	H	0.575359	0.106488	0.411669
	H69	H	0.566680	0.884481	0.583310
	H70	H	0.403839	0.107950	0.586379
	H71	H	0.393104	0.878544	0.400701
	H72	H	0.898153	0.607219	0.077347
	H73	H	0.084805	0.380210	0.082331
	H74	H	0.079125	0.611127	0.905647
	H75	H	0.897843	0.384546	0.913790
	H76	H	0.073688	0.909703	0.607577
	H77	H	0.074152	0.089818	0.379804
	H78	H	0.901141	0.077487	0.605868
	H79	H	0.896184	0.902976	0.378092
	H80	H	0.600223	0.089365	0.909780
	H81	H	0.374901	0.095966	0.076564
	H82	H	0.599637	0.912567	0.082227
	H83	H	0.374466	0.905056	0.908546
	H84	H	0.602627	0.906805	0.086433
	H85	H	0.377982	0.076825	0.083494
	H86	H	0.598671	0.081308	0.907313
	H87	H	0.378118	0.910186	0.912654
	H88	H	0.901792	0.087496	0.608992
	H89	H	0.082301	0.083219	0.379137
	H90	H	0.075454	0.906328	0.608717
	H91	H	0.895771	0.911409	0.381805
	H92	H	0.073308	0.607876	0.906731
	H93	H	0.081685	0.378257	0.091754
	H94	H	0.898108	0.610572	0.087508
	H95	H	0.894425	0.380169	0.905747
	H96	H	0.404125	0.104794	0.575496
	H97	H	0.576712	0.883762	0.574696
	H98	H	0.584546	0.111309	0.406021
	H99	H	0.404770	0.882938	0.402082
	H100	H	0.576633	0.405078	0.109095
	H101	H	0.581670	0.585923	0.878948
	H102	H	0.401478	0.586978	0.109781
	H103	H	0.394620	0.404770	0.878460
	H104	H	0.100906	0.590611	0.411159
	H105	H	0.876510	0.575694	0.588916
	H106	H	0.101837	0.405268	0.590615
	H107	H	0.872343	0.399833	0.404964
	H108	H	0.907040	0.606691	0.083737
	H109	H	0.075363	0.382987	0.084692
	H110	H	0.077881	0.608153	0.911140
	H111	H	0.903484	0.383375	0.906198
	H112	H	0.077696	0.909772	0.607966
	H113	H	0.073180	0.080003	0.383317
	H114	H	0.892989	0.082139	0.610669
	H115	H	0.902723	0.906394	0.383127
	H116	H	0.602404	0.086882	0.901786
	H117	H	0.369535	0.090789	0.096117
	H118	H	0.600333	0.905256	0.079131
	H119	H	0.376557	0.911605	0.905130
	C120	C	0.365938	0.004183	0.615530
	C121	C	0.607911	0.986766	0.615159
	C122	C	0.609960	0.004143	0.372545
	C123	C	0.366861	0.987240	0.372547
	C124	C	0.609469	0.374864	0.003425
	C125	C	0.608866	0.617065	0.986715
	C126	C	0.366402	0.617294	0.004233
	C127	C	0.367246	0.375758	0.986068
	C128	C	-0.004254	0.616452	0.374458
	C129	C	0.980136	0.615757	0.616292
	C130	C	-0.004228	0.372527	0.617524
	C131	C	0.978705	0.372746	0.373834
	C132	C	0.867812	0.503552	0.115853
	C133	C	0.112043	0.485721	0.119117
	C134	C	0.108276	0.503268	0.876202
	C135	C	0.865774	0.486879	0.873655
	C136	C	0.108048	0.875226	0.503113
	C137	C	0.109448	0.116692	0.485728
	C138	C	0.866248	0.115266	0.503217
	C139	C	0.864818	0.872870	0.485543
	C140	C	0.496091	0.118477	0.872785
	C141	C	0.479400	0.119245	0.116746
	C142	C	0.496533	0.875166	0.115736
	C143	C	0.479275	0.874310	0.873234
	C144	C	0.359365	0.886854	0.680203
	C145	C	0.611519	0.106458	0.675471
	C146	C	0.610956	0.884375	0.311960
	C147	C	0.366978	0.108164	0.314755
	C148	C	0.669793	0.372455	0.883696
	C149	C	0.670733	0.621437	0.105882
	C150	C	0.303814	0.620950	0.885125
	C151	C	0.310534	0.374269	0.107422
	C152	C	0.877446	0.677668	0.369135
	C153	C	0.098627	0.677600	0.620684
	C154	C	0.877035	0.311578	0.619432
	C155	C	0.098411	0.313820	0.373356
	C156	C	0.877104	0.369684	0.677480
	C157	C	0.099128	0.618342	0.677548
	C158	C	0.877307	0.618494	0.312374
	C159	C	0.098975	0.371994	0.316116
	C160	C	0.362015	0.677709	0.884357
	C161	C	0.612430	0.678147	0.106186
	C162	C	0.611973	0.314982	0.883094
	C163	C	0.368397	0.317211	0.106918
	C164	C	0.669812	0.884750	0.368268
	C165	C	0.669526	0.105917	0.618053
	C166	C	0.302303	0.886523	0.621535
	C167	C	0.307331	0.106803	0.370240
	C168	C	0.865748	0.383744	0.175456
	C169	C	0.113120	0.605708	0.179243
	C170	C	0.109446	0.383097	0.817309
	C171	C	0.862206	0.605003	0.810503
	C172	C	0.168193	0.871345	0.383293
	C173	C	0.171556	0.120723	0.604677
	C174	C	0.806144	0.118071	0.383124
	C175	C	0.803401	0.868263	0.604661
	C176	C	0.377361	0.178902	0.869340
	C177	C	0.599219	0.178316	0.118307
	C178	C	0.377820	0.813958	0.119151
	C179	C	0.596763	0.811535	0.868236
	C180	C	0.377369	0.873388	0.175340
	C181	C	0.599269	0.120510	0.176166
	C182	C	0.377474	0.121491	0.811464
	C183	C	0.597017	0.870449	0.811232
	C184	C	0.864135	0.175208	0.383224
	C185	C	0.112217	0.176640	0.605839
	C186	C	0.109585	0.814826	0.383105
	C187	C	0.862001	0.811937	0.605315
	C188	C	0.167196	0.383237	0.874975
	C189	C	0.171917	0.605742	0.122686
	C190	C	0.805164	0.385395	0.120692
	C191	C	0.805118	0.605960	0.868716
	C192	C	0.393104	0.086002	0.588339
	C193	C	0.581473	0.904230	0.589090
	C194	C	0.585261	0.087236	0.398651
	C195	C	0.391116	0.903489	0.397376
	C196	C	0.584331	0.400188	0.086747
	C197	C	0.582666	0.590659	0.903820
	C198	C	0.393226	0.591395	0.087082
	C199	C	0.390226	0.400678	0.901676
	C200	C	0.078127	0.591414	0.401062
	C201	C	0.897849	0.589745	0.589588
	C202	C	0.078762	0.398091	0.592659
	C203	C	0.895324	0.396724	0.397406
	C204	C	0.893713	0.586472	0.090141
	C205	C	0.087500	0.402285	0.093628
	C206	C	0.083761	0.587119	0.900807
	C207	C	0.891427	0.404248	0.900805
	C208	C	0.083088	0.901229	0.586396
	C209	C	0.083911	0.091458	0.402448
	C210	C	0.891378	0.089750	0.586726
	C211	C	0.890499	0.899240	0.402561
	C212	C	0.578859	0.093124	0.898761
	C213	C	0.395922	0.094961	0.092510
	C214	C	0.579348	0.900685	0.090065
	C215	C	0.397427	0.901102	0.900665
	Zn216	Zn	0.487142	-0.003626	0.744643
	Zn217	Zn	0.488350	-0.003415	0.244737
	Zn218	Zn	0.737987	0.496256	-0.004511
	Zn219	Zn	0.238440	0.495725	-0.003885
	Zn220	Zn	-0.012223	0.746384	0.495388
	Zn221	Zn	-0.013039	0.243999	0.495134
	Zn222	Zn	-0.011612	0.494534	0.746584
	Zn223	Zn	-0.011442	0.494621	0.245183
	Zn224	Zn	0.487768	0.745435	-0.005109
	Zn225	Zn	0.487762	0.246866	-0.006271
	Zn226	Zn	0.737379	-0.005535	0.494499
	Zn227	Zn	0.237598	-0.004500	0.493511
	N228	N	0.398116	0.961002	0.676601
	N229	N	0.573784	0.031508	0.673795
	N230	N	0.574633	0.959805	0.314168
	N231	N	0.403164	0.032703	0.316050
	N232	N	0.668501	0.408881	0.959480
	N233	N	0.669053	0.584358	0.030499
	N234	N	0.306309	0.584157	0.960938
	N235	N	0.309904	0.410083	0.031322
	N236	N	0.951847	0.676337	0.407330
	N237	N	0.023484	0.676378	0.583306
	N238	N	0.951876	0.313249	0.582846
	N239	N	0.022629	0.314032	0.408405
	N240	N	0.951935	0.407082	0.676151
	N241	N	0.024496	0.580856	0.675186
	N242	N	0.951905	0.580964	0.315601
	N243	N	0.023584	0.407610	0.315969
	N244	N	0.400027	0.675921	0.959314
	N245	N	0.574835	0.675606	0.030928
	N246	N	0.575202	0.316366	0.958446
	N247	N	0.403071	0.318127	0.030529
	N248	N	0.669169	0.960022	0.405272
	N249	N	0.667810	0.030362	0.581558
	N250	N	0.306387	0.960326	0.581740
	N251	N	0.306779	0.030470	0.405226
	N252	N	0.903978	0.458229	0.172469
	N253	N	0.076748	0.530092	0.177431
	N254	N	0.073345	0.458779	0.818108
	N255	N	0.898818	0.529816	0.813250
	N256	N	0.167490	0.908111	0.459013
	N257	N	0.170129	0.084393	0.528942
	N258	N	0.807576	0.081227	0.458715
	N259	N	0.804864	0.905241	0.529209
	N260	N	0.452272	0.177203	0.906648
	N261	N	0.523907	0.177513	0.081895
	N262	N	0.453002	0.814920	0.082773
	N263	N	0.522345	0.813828	0.906053
	N264	N	0.452144	0.910806	0.173163
	N265	N	0.523750	0.084443	0.175493
	N266	N	0.452340	0.084463	0.813649
	N267	N	0.522799	0.908628	0.814340
	N268	N	0.900924	0.173545	0.458947
	N269	N	0.074403	0.174293	0.530711
	N270	N	0.073178	0.816908	0.458647
	N271	N	0.899350	0.814534	0.530121
	N272	N	0.166604	0.459150	0.910839
	N273	N	0.171486	0.530185	0.086198
	N274	N	0.806384	0.460968	0.084119
	N275	N	0.807213	0.531463	0.907526
	O276	O	0.564894	0.693756	0.430603
	H277	H	0.553571	0.703698	0.405645
	H278	H	0.561651	0.673727	0.440353
	O279	O	0.274620	0.534944	0.513554
	H280	H	0.270716	0.535889	0.515235
	H281	H	0.267403	0.548007	0.503509
	O282	O	0.677324	0.440566	0.311022
	H283	H	0.679887	0.428149	0.315101
	H284	H	0.662592	0.449765	0.301928
	O285	O	0.926287	0.856359	0.078886
	H286	H	0.914936	0.851857	0.068799
	H287	H	0.924389	0.870263	0.073021
	O288	O	0.353621	0.353944	0.473424
	H289	H	0.344425	0.345811	0.495737
	H290	H	0.333124	0.344866	0.487234
	O291	O	0.499287	0.306375	0.668844
	H292	H	0.510289	0.302244	0.689060
	H293	H	0.514082	0.323514	0.668597
	O294	O	1.005730	0.921998	0.960079
	H295	H	0.998321	0.915460	0.958747
	H296	H	0.982467	0.925642	0.953379
	O297	O	0.648647	0.324860	0.464899
	H298	H	0.652257	0.327855	0.443422
	H299	H	0.647593	0.309808	0.452627
	O300	O	0.889433	0.191609	0.798774
	H301	H	0.885484	0.178960	0.775697
	H302	H	0.925997	0.172716	0.790246
	O303	O	0.502510	0.684542	0.711249
	H304	H	0.549460	0.677620	0.705357
	H305	H	0.513624	0.712481	0.742972
	O306	O	-0.056894	-0.046115	0.888920
	H307	H	-0.066153	-0.050291	0.880353
	H308	H	-0.079486	-0.044983	0.894265
	O309	O	0.999149	0.144536	0.208998
	H310	H	1.021775	0.167798	0.233615
	H311	H	1.017703	0.135718	0.213998
	O312	O	0.468974	0.477770	0.435061
	H313	H	0.461180	0.461226	0.436112
	H314	H	0.461323	0.488592	0.447939
	O315	O	0.463278	0.461466	0.414821
	H316	H	0.464145	0.455311	0.408505
	H317	H	0.457710	0.448431	0.416353
	O318	O	0.074904	-0.161823	0.082450
	H319	H	0.094561	-0.178057	0.073184
	H320	H	0.059884	-0.159435	0.082909
	O321	O	0.686237	0.516771	0.696933
	H322	H	0.697776	0.488688	0.674645
	H323	H	0.715942	0.515201	0.695835
	O324	O	1.131572	0.008918	1.175803
	H325	H	1.134519	0.011413	1.168207
	H326	H	1.140862	0.005988	1.183742
	O327	O	0.414200	0.453827	0.428540
	H328	H	0.423927	0.453376	0.435259
	H329	H	0.400782	0.454359	0.451004
	O330	O	0.052360	1.038723	0.790077
	H331	H	0.044032	1.028506	0.790066
	H332	H	0.055274	1.020494	0.785371
	O333	O	-0.175038	1.092603	0.023426
	H334	H	-0.167271	1.086005	0.005153
	H335	H	-0.204887	1.114839	0.017395
	O336	O	0.974448	1.162010	-0.050231
	H337	H	0.988165	1.167285	-0.056695
	H338	H	0.986333	1.171069	-0.036940
	O339	O	0.124639	0.942224	0.970832
	H340	H	0.123458	0.937262	0.964378
	H341	H	0.125910	0.930628	0.979913
	O342	O	0.360619	0.502797	0.671706
	H343	H	0.369069	0.504983	0.664675
	H344	H	0.373726	0.517666	0.685197
	O345	O	-0.226859	0.017894	0.780906
	H346	H	-0.260590	0.020342	0.753052
	H347	H	-0.228651	0.013600	0.812249
	O348	O	0.383795	0.440365	0.312526
	H349	H	0.369473	0.449144	0.319377
	H350	H	0.384404	0.431905	0.311288
	O351	O	0.802858	0.835371	0.129872
	H352	H	0.797677	0.866261	0.130952
	H353	H	0.813548	0.831711	0.134388
	O354	O	1.178318	1.024068	0.990071
	H355	H	1.169932	1.022540	0.979066
	H356	H	1.178987	1.004771	0.990330
	O357	O	0.172994	0.024732	-0.065006
	H358	H	0.167241	0.009747	-0.070049
	H359	H	0.169288	0.012295	-0.050022
	O360	O	0.304493	0.682820	0.307573
	H361	H	0.299244	0.691234	0.351322
	H362	H	0.304476	0.648231	0.303474
	O363	O	0.935973	0.145769	0.045616
	H364	H	0.941042	0.149619	0.057102
	H365	H	0.934509	0.162977	0.053412
	O366	O	0.164588	-0.032466	0.839634
	H367	H	0.176226	-0.036468	0.831420
	H368	H	0.164929	-0.027414	0.844001
	O369	O	1.175824	0.155988	1.080970
	H370	H	1.177086	0.132039	1.084042
	H371	H	1.184933	0.149424	1.063135
	O372	O	0.327130	0.303473	0.586322
	H373	H	0.340921	0.308226	0.606306
	H374	H	0.327240	0.315263	0.602654
	O375	O	0.677391	0.475362	1.425999
	H376	H	0.673549	0.505897	1.412154
	H377	H	0.656677	0.472257	1.419540
	O378	O	0.351295	0.498519	0.686991
	H379	H	0.361852	0.514066	0.700899
	H380	H	0.363078	0.517654	0.665438
	O381	O	-0.159205	0.946870	0.125666
	H382	H	-0.166333	0.954867	0.143443
	H383	H	-0.148908	0.970934	0.116728
	O384	O	0.276109	0.709649	0.471270
	H385	H	0.306848	0.715251	0.498693
	H386	H	0.252995	0.741226	0.471998
	O387	O	0.369201	0.373316	0.426040
	H388	H	0.391827	0.372204	0.432982
	H389	H	0.366235	0.366120	0.447192
	O390	O	0.873480	1.180425	-0.109155
	H391	H	0.865547	1.174971	-0.109931
	H392	H	0.893095	1.181735	-0.096036
	O393	O	1.106936	0.177979	1.187003
	H394	H	1.126294	0.185000	1.166261
	H395	H	1.122708	0.172528	1.202043
	O396	O	0.387313	0.306279	0.576096
	H397	H	0.384930	0.306439	0.587250
	H398	H	0.387700	0.307321	0.585393
	O399	O	0.807201	1.113091	0.041454
	H400	H	0.800485	1.151449	0.040488
	H401	H	0.831951	1.117865	0.057832
	O402	O	1.035182	0.807603	0.034407
	H403	H	1.028978	0.809640	0.050049
	H404	H	1.006107	0.803768	0.030240
	O405	O	0.562463	0.418698	0.695485
	H406	H	0.576441	0.420208	0.707246
	H407	H	0.572520	0.429714	0.673933
	O408	O	0.531692	0.564412	0.295273
	H409	H	0.537429	0.568879	0.307266
	H410	H	0.517592	0.567793	0.291291
	O411	O	0.950648	1.051920	1.201888
	H412	H	0.970240	1.058647	1.204566
	H413	H	0.966326	1.051144	1.200034
	O414	O	0.700995	0.706520	0.517079
	H415	H	0.726552	0.722171	0.510210
	H416	H	0.693861	0.709388	0.495110
	O417	O	0.160064	0.822122	0.817999
	H418	H	0.167945	0.821026	0.860188
	H419	H	0.152994	0.837841	0.816552
	O420	O	0.013648	0.783618	0.806060
	H421	H	0.033052	0.773367	0.799376
	H422	H	0.013497	0.777488	0.803938
	O423	O	-0.159889	0.944036	-0.044023
	H424	H	-0.173545	0.943521	-0.028711
	H425	H	-0.160923	0.936144	-0.028762
	O426	O	0.419510	0.694291	0.550143
	H427	H	0.435616	0.688720	0.560332
	H428	H	0.434771	0.694973	0.565551
	O429	O	0.691914	0.453583	0.508084
	H430	H	0.681938	0.461306	0.483791
	H431	H	0.684012	0.447242	0.500072
	O432	O	0.579327	0.303955	0.302206
	H433	H	0.566252	0.296518	0.291426
	H434	H	0.576412	0.301390	0.297638
	O435	O	0.489235	-0.351569	0.285749
	H436	H	0.478459	-0.333254	0.265366
	H437	H	0.458574	-0.362293	0.284962
	O438	O	-0.169572	0.781228	0.993629
	H439	H	-0.184987	0.772447	1.012820
	H440	H	-0.172034	0.776948	0.996322
	O441	O	0.644868	0.674427	0.677408
	H442	H	0.656910	0.626236	0.686595
	H443	H	0.662252	0.682861	0.629244
