data_Molecule from HDF5

_cell_length_a		16.153607
_cell_length_b		16.207747
_cell_length_c		16.357752
_cell_angle_alpha	89.803207
_cell_angle_beta	90.197614
_cell_angle_gamma	89.743201
_symmetry_space_group_name_H-M	'P 1'
_symmetry_Int_Tables_number		1

loop_
	_symmetry_equiv_pos_as_xyz
	x,y,z

loop_
	_atom_site_label
	_atom_site_type_symbol
	_atom_site_fract_x
	_atom_site_fract_y
	_atom_site_fract_z
	H0	H	0.397077	0.829565	0.718879
	H1	H	0.596973	0.156366	0.717040
	H2	H	0.598735	0.829329	0.286323
	H3	H	0.393130	0.155222	0.284471
	H4	H	0.711668	0.394512	0.838002
	H5	H	0.711534	0.589836	0.164174
	H6	H	0.280725	0.591612	0.838285
	H7	H	0.284292	0.395051	0.165055
	H8	H	0.832520	0.706485	0.402866
	H9	H	0.161262	0.703872	0.602088
	H10	H	0.831115	0.278827	0.599370
	H11	H	0.162513	0.279210	0.406936
	H12	H	0.831461	0.392575	0.715668
	H13	H	0.160085	0.588962	0.717054
	H14	H	0.833468	0.593030	0.285924
	H15	H	0.161538	0.391401	0.289152
	H16	H	0.397229	0.708054	0.838281
	H17	H	0.595687	0.705777	0.164347
	H18	H	0.596120	0.277032	0.838076
	H19	H	0.397376	0.276061	0.163650
	H20	H	0.709596	0.827230	0.406461
	H21	H	0.708360	0.157192	0.597194
	H22	H	0.287245	0.826722	0.599283
	H23	H	0.282651	0.156532	0.404164
	H24	H	0.898639	0.327795	0.217766
	H25	H	0.097348	0.655574	0.217750
	H26	H	0.095788	0.327619	0.789192
	H27	H	0.893299	0.655045	0.783982
	H28	H	0.211661	0.893598	0.339136
	H29	H	0.211679	0.087620	0.665551
	H30	H	0.780067	0.092315	0.339105
	H31	H	0.783912	0.894459	0.665620
	H32	H	0.331921	0.206817	0.903084
	H33	H	0.661201	0.204536	0.099474
	H34	H	0.331745	0.780484	0.098245
	H35	H	0.661950	0.779128	0.904122
	H36	H	0.332609	0.892687	0.216065
	H37	H	0.659771	0.093018	0.218177
	H38	H	0.332759	0.094732	0.785413
	H39	H	0.661093	0.893908	0.789313
	H40	H	0.897516	0.207951	0.338607
	H41	H	0.096082	0.205469	0.665682
	H42	H	0.097322	0.776346	0.339627
	H43	H	0.899497	0.777341	0.664924
	H44	H	0.209787	0.327702	0.906158
	H45	H	0.207287	0.658041	0.097669
	H46	H	0.783849	0.327542	0.099778
	H47	H	0.783993	0.657549	0.903795
	H48	H	0.408098	0.109809	0.599371
	H49	H	0.586766	0.873540	0.603533
	H50	H	0.581943	0.106498	0.413144
	H51	H	0.406322	0.874314	0.405632
	H52	H	0.605032	0.400825	0.120145
	H53	H	0.592899	0.585155	0.883720
	H54	H	0.408378	0.583918	0.115383
	H55	H	0.399052	0.400782	0.884098
	H56	H	0.113144	0.579719	0.415291
	H57	H	0.882410	0.580374	0.584158
	H58	H	0.115817	0.393497	0.597331
	H59	H	0.879268	0.403015	0.406927
	H60	H	0.112492	0.399842	0.593251
	H61	H	0.878442	0.577419	0.602265
	H62	H	0.115658	0.580143	0.404422
	H63	H	0.877730	0.397302	0.407911
	H64	H	0.403848	0.593865	0.119912
	H65	H	0.586230	0.584734	0.886359
	H66	H	0.580741	0.409894	0.111290
	H67	H	0.404714	0.403301	0.886589
	H68	H	0.595408	0.111380	0.410696
	H69	H	0.587224	0.876857	0.593255
	H70	H	0.406950	0.106894	0.588722
	H71	H	0.406011	0.875625	0.409314
	H72	H	0.903302	0.609628	0.093098
	H73	H	0.087434	0.376377	0.093636
	H74	H	0.083125	0.604345	0.923127
	H75	H	0.899937	0.373421	0.908071
	H76	H	0.088604	0.903087	0.615598
	H77	H	0.096509	0.079164	0.385803
	H78	H	0.903744	0.078666	0.615802
	H79	H	0.911566	0.900393	0.388189
	H80	H	0.612674	0.076543	0.906466
	H81	H	0.374165	0.088665	0.104264
	H82	H	0.612747	0.899214	0.089262
	H83	H	0.382490	0.907635	0.912523
	H84	H	0.613953	0.905848	0.097573
	H85	H	0.379559	0.092826	0.083424
	H86	H	0.617996	0.090461	0.903076
	H87	H	0.376133	0.901977	0.900713
	H88	H	0.909266	0.089095	0.617544
	H89	H	0.081662	0.082656	0.389495
	H90	H	0.087657	0.891089	0.618611
	H91	H	0.900752	0.890948	0.382421
	H92	H	0.103103	0.615780	0.903983
	H93	H	0.095962	0.373622	0.095742
	H94	H	0.904754	0.608949	0.096914
	H95	H	0.908049	0.374595	0.904826
	H96	H	0.398346	0.111515	0.595310
	H97	H	0.596222	0.872529	0.597930
	H98	H	0.585040	0.111073	0.401176
	H99	H	0.402917	0.873754	0.407813
	H100	H	0.583574	0.384390	0.119390
	H101	H	0.588420	0.590899	0.883782
	H102	H	0.396696	0.583861	0.118220
	H103	H	0.404770	0.396920	0.885092
	H104	H	0.116465	0.588942	0.411266
	H105	H	0.874670	0.594787	0.594640
	H106	H	0.114654	0.400397	0.601012
	H107	H	0.880311	0.400182	0.411693
	H108	H	0.906817	0.607962	0.094474
	H109	H	0.089061	0.373585	0.102066
	H110	H	0.075289	0.609761	0.895749
	H111	H	0.906138	0.376473	0.912791
	H112	H	0.098828	0.897668	0.620922
	H113	H	0.090859	0.093430	0.382966
	H114	H	0.897215	0.088503	0.620336
	H115	H	0.897223	0.906183	0.386031
	H116	H	0.612929	0.086835	0.917133
	H117	H	0.383017	0.072119	0.091723
	H118	H	0.617068	0.895110	0.099413
	H119	H	0.377806	0.894280	0.912161
	C120	C	0.376394	0.000558	0.623156
	C121	C	0.618296	0.983641	0.624766
	C122	C	0.617350	0.001233	0.380234
	C123	C	0.375311	0.983247	0.379580
	C124	C	0.618847	0.370137	0.009400
	C125	C	0.618189	0.614594	0.992533
	C126	C	0.373817	0.615536	0.009840
	C127	C	0.374830	0.371229	0.992935
	C128	C	0.006132	0.612729	0.381008
	C129	C	0.987471	0.612456	0.623058
	C130	C	0.004891	0.369919	0.624292
	C131	C	0.988095	0.370707	0.380943
	C132	C	0.876032	0.500350	0.123776
	C133	C	0.118559	0.483657	0.124253
	C134	C	0.116458	0.500749	0.880832
	C135	C	0.874966	0.483219	0.879527
	C136	C	0.119842	0.868921	0.510706
	C137	C	0.118721	0.113122	0.494031
	C138	C	0.874158	0.114598	0.510010
	C139	C	0.875597	0.870662	0.493485
	C140	C	0.505504	0.113986	0.879648
	C141	C	0.487791	0.113224	0.122223
	C142	C	0.505609	0.871191	0.123384
	C143	C	0.488022	0.872005	0.880782
	C144	C	0.378125	0.877788	0.679528
	C145	C	0.616581	0.107268	0.678897
	C146	C	0.617378	0.877928	0.324843
	C147	C	0.374969	0.106494	0.323494
	C148	C	0.673971	0.373278	0.886649
	C149	C	0.673730	0.610889	0.115315
	C150	C	0.318311	0.612649	0.887055
	C151	C	0.320878	0.373809	0.115862
	C152	C	0.881947	0.668614	0.382688
	C153	C	0.111807	0.666549	0.621955
	C154	C	0.880459	0.315746	0.620287
	C155	C	0.112853	0.316079	0.385306
	C156	C	0.880548	0.372243	0.678196
	C157	C	0.110975	0.609789	0.679424
	C158	C	0.882597	0.612551	0.324107
	C159	C	0.112436	0.371713	0.326844
	C160	C	0.376349	0.670386	0.887011
	C161	C	0.616030	0.668453	0.115463
	C162	C	0.616132	0.315365	0.886522
	C163	C	0.377383	0.314734	0.115255
	C164	C	0.672586	0.876785	0.384436
	C165	C	0.672112	0.107643	0.619584
	C166	C	0.322943	0.876598	0.620425
	C167	C	0.320079	0.107254	0.383035
	C168	C	0.878172	0.376824	0.179411
	C169	C	0.116865	0.606953	0.179490
	C170	C	0.115125	0.376650	0.826846
	C171	C	0.874779	0.606392	0.822964
	C172	C	0.174106	0.872517	0.387811
	C173	C	0.173713	0.109035	0.616916
	C174	C	0.818366	0.112708	0.387641
	C175	C	0.821464	0.873675	0.616606
	C176	C	0.381265	0.169451	0.881936
	C177	C	0.611858	0.167713	0.120377
	C178	C	0.381199	0.816975	0.119731
	C179	C	0.612483	0.816746	0.884030
	C180	C	0.381712	0.872738	0.178227
	C181	C	0.611066	0.111746	0.179079
	C182	C	0.381848	0.113677	0.823587
	C183	C	0.612031	0.873758	0.826760
	C184	C	0.876557	0.170250	0.387458
	C185	C	0.116404	0.167735	0.616759
	C186	C	0.117265	0.814218	0.388093
	C187	C	0.878909	0.815416	0.616315
	C188	C	0.172180	0.376883	0.884702
	C189	C	0.171609	0.608115	0.119701
	C190	C	0.821110	0.376740	0.120840
	C191	C	0.820473	0.607703	0.882515
	C192	C	0.398170	0.087093	0.600909
	C193	C	0.596451	0.896670	0.604357
	C194	C	0.594354	0.087395	0.401980
	C195	C	0.398251	0.896808	0.401282
	C196	C	0.596496	0.392008	0.094851
	C197	C	0.595838	0.593251	0.906776
	C198	C	0.396158	0.593521	0.095570
	C199	C	0.396482	0.393509	0.907428
	C200	C	0.092586	0.589719	0.403705
	C201	C	0.900994	0.590848	0.600222
	C202	C	0.091859	0.391655	0.603501
	C203	C	0.901498	0.393445	0.402411
	C204	C	0.898280	0.586592	0.101396
	C205	C	0.097307	0.396724	0.103256
	C206	C	0.093754	0.587310	0.901616
	C207	C	0.897997	0.397198	0.901889
	C208	C	0.098037	0.890758	0.596069
	C209	C	0.096312	0.091406	0.408153
	C210	C	0.896832	0.092117	0.595775
	C211	C	0.896996	0.892708	0.407726
	C212	C	0.592150	0.091293	0.902250
	C213	C	0.401217	0.091167	0.099692
	C214	C	0.591994	0.893484	0.101830
	C215	C	0.401270	0.894344	0.902291
	Zn216	Zn	0.496488	-0.007066	0.752484
	Zn217	Zn	0.496461	-0.007647	0.251206
	Zn218	Zn	0.747436	0.492715	0.000962
	Zn219	Zn	0.245373	0.493077	0.001980
	Zn220	Zn	-0.002753	0.740924	0.501942
	Zn221	Zn	-0.003420	0.242749	0.502334
	Zn222	Zn	-0.004367	0.491429	0.751615
	Zn223	Zn	-0.002175	0.491614	0.252741
	Zn224	Zn	0.496628	0.743971	0.001518
	Zn225	Zn	0.496528	0.241642	0.000848
	Zn226	Zn	0.745343	-0.007895	0.501936
	Zn227	Zn	0.248417	-0.008446	0.502028
	N228	N	0.410430	0.956053	0.681323
	N229	N	0.584066	0.029002	0.682235
	N230	N	0.583753	0.956157	0.322128
	N231	N	0.408688	0.028404	0.321211
	N232	N	0.675651	0.406679	0.963876
	N233	N	0.674954	0.577878	0.037927
	N234	N	0.316921	0.578967	0.964385
	N235	N	0.319368	0.408352	0.039111
	N236	N	0.959795	0.669005	0.417343
	N237	N	0.034035	0.668354	0.587519
	N238	N	0.958709	0.314508	0.587287
	N239	N	0.034697	0.315323	0.418366
	N240	N	0.958857	0.405156	0.680826
	N241	N	0.032717	0.576895	0.680170
	N242	N	0.960691	0.578466	0.323149
	N243	N	0.033870	0.404908	0.324055
	N244	N	0.409876	0.672560	0.964275
	N245	N	0.582304	0.670922	0.038139
	N246	N	0.583010	0.312916	0.964014
	N247	N	0.410538	0.313273	0.037784
	N248	N	0.672705	0.954385	0.418087
	N249	N	0.673239	0.029634	0.586703
	N250	N	0.321890	0.954079	0.585812
	N251	N	0.320038	0.029584	0.417190
	N252	N	0.911471	0.454737	0.181217
	N253	N	0.084938	0.528425	0.182546
	N254	N	0.081255	0.454689	0.824203
	N255	N	0.907947	0.528143	0.820945
	N256	N	0.176057	0.905987	0.464951
	N257	N	0.175146	0.075878	0.539545
	N258	N	0.816824	0.078928	0.464818
	N259	N	0.819210	0.907478	0.539334
	N260	N	0.459135	0.169794	0.916139
	N261	N	0.534253	0.168739	0.085492
	N262	N	0.459192	0.815797	0.086365
	N263	N	0.534251	0.815773	0.917098
	N264	N	0.459868	0.905679	0.180625
	N265	N	0.532820	0.078622	0.180198
	N266	N	0.460029	0.079868	0.822277
	N267	N	0.533793	0.907442	0.824641
	N268	N	0.910274	0.171721	0.464838
	N269	N	0.083000	0.170390	0.539287
	N270	N	0.084346	0.811784	0.465476
	N271	N	0.911599	0.813452	0.538770
	N272	N	0.173021	0.454832	0.917602
	N273	N	0.172811	0.530402	0.086170
	N274	N	0.819558	0.454643	0.086960
	N275	N	0.820101	0.530123	0.917020
	O276	O	1.075312	1.020743	0.075115
	H277	H	1.080723	1.019251	0.075892
	H278	H	1.059691	1.024596	0.061312
	O279	O	0.025774	-0.036524	-0.009940
	H280	H	0.020670	-0.038639	-0.001417
	H281	H	0.032711	-0.022506	-0.003453
	O282	O	-0.019053	0.037004	1.006917
	H283	H	-0.029552	0.036363	1.007749
	H284	H	-0.011766	0.034426	1.000537
	O285	O	1.282503	1.268818	0.323527
	H286	H	1.279874	1.273190	0.324057
	H287	H	1.293517	1.268868	0.321287
	O288	O	0.481978	0.555611	0.455813
	H289	H	0.482420	0.548679	0.459248
	H290	H	0.486737	0.566073	0.449605
	O291	O	0.487967	0.526768	0.426789
	H292	H	0.479717	0.516643	0.426541
	H293	H	0.484544	0.525937	0.426546
	O294	O	0.018455	-0.080908	-0.022580
	H295	H	0.007710	-0.066503	-0.026873
	H296	H	0.021425	-0.093545	-0.017668
	O297	O	0.494689	0.544441	0.487865
	H298	H	0.495127	0.556974	0.492173
	H299	H	0.501521	0.554459	0.480519
	O300	O	-0.027039	1.051384	1.005331
	H301	H	-0.023365	1.054813	1.012848
	H302	H	-0.040633	1.050924	1.013923
	O303	O	0.513638	0.477381	0.431018
	H304	H	0.513240	0.472180	0.429432
	H305	H	0.506686	0.467776	0.429269
	O306	O	-0.048682	0.011955	0.959929
	H307	H	-0.034892	0.006572	0.963940
	H308	H	-0.043226	0.018500	0.949046
	O309	O	0.979308	0.982041	1.037904
	H310	H	0.986935	0.979207	1.041191
	H311	H	0.974703	0.980437	1.036827
	O312	O	0.532029	0.456942	0.465732
	H313	H	0.534783	0.452743	0.476077
	H314	H	0.536708	0.457856	0.468848
	O315	O	0.465715	0.506891	0.498060
	H316	H	0.464271	0.500053	0.503742
	H317	H	0.460519	0.509956	0.489661
	O318	O	-0.084908	1.001603	-0.004920
	H319	H	-0.092201	0.998286	-0.007008
	H320	H	-0.081849	0.991556	-0.014061
	O321	O	0.985734	1.002949	0.034306
	H322	H	0.986335	1.012127	0.032973
	H323	H	0.984858	1.004817	0.028656
