data_Molecule from HDF5

_cell_length_a		16.312271
_cell_length_b		15.996420
_cell_length_c		16.234059
_cell_angle_alpha	89.533379
_cell_angle_beta	89.030863
_cell_angle_gamma	91.268255
_symmetry_space_group_name_H-M	'P 1'
_symmetry_Int_Tables_number		1

loop_
	_symmetry_equiv_pos_as_xyz
	x,y,z

loop_
	_atom_site_label
	_atom_site_type_symbol
	_atom_site_fract_x
	_atom_site_fract_y
	_atom_site_fract_z
	H0	H	0.385136	0.841803	0.723732
	H1	H	0.590296	0.175195	0.713215
	H2	H	0.588699	0.841746	0.293514
	H3	H	0.401443	0.175300	0.294682
	H4	H	0.708447	0.411498	0.842873
	H5	H	0.710053	0.611639	0.170253
	H6	H	0.283784	0.605490	0.841385
	H7	H	0.269644	0.400483	0.168434
	H8	H	0.826052	0.717705	0.411110
	H9	H	0.156261	0.725535	0.595261
	H10	H	0.829100	0.290966	0.606372
	H11	H	0.158347	0.301750	0.406066
	H12	H	0.830980	0.401673	0.727295
	H13	H	0.157022	0.613167	0.715779
	H14	H	0.828730	0.606633	0.290277
	H15	H	0.155519	0.414825	0.286324
	H16	H	0.404006	0.720116	0.840939
	H17	H	0.589909	0.722423	0.172582
	H18	H	0.587050	0.302716	0.840327
	H19	H	0.389572	0.290782	0.170698
	H20	H	0.702749	0.841898	0.406814
	H21	H	0.708307	0.173062	0.604919
	H22	H	0.269782	0.843574	0.610519
	H23	H	0.286971	0.177092	0.409729
	H24	H	0.886734	0.343058	0.223372
	H25	H	0.092046	0.675138	0.211679
	H26	H	0.090090	0.341335	0.790955
	H27	H	0.902877	0.675271	0.793658
	H28	H	0.210091	0.911316	0.343867
	H29	H	0.207481	0.113375	0.670204
	H30	H	0.781071	0.108489	0.342213
	H31	H	0.767940	0.900690	0.669413
	H32	H	0.326998	0.215557	0.914144
	H33	H	0.656566	0.225230	0.098458
	H34	H	0.330076	0.788712	0.109166
	H35	H	0.658905	0.801914	0.908582
	H36	H	0.329772	0.900824	0.227514
	H37	H	0.655877	0.112699	0.217838
	H38	H	0.328455	0.104992	0.793490
	H39	H	0.654559	0.910192	0.785786
	H40	H	0.903227	0.220306	0.340160
	H41	H	0.087599	0.222409	0.671431
	H42	H	0.086061	0.804740	0.339188
	H43	H	0.887496	0.789692	0.670163
	H44	H	0.203194	0.340349	0.905229
	H45	H	0.209520	0.672256	0.102180
	H46	H	0.770680	0.343440	0.111170
	H47	H	0.785519	0.675498	0.906259
	H48	H	0.397279	0.127474	0.596081
	H49	H	0.578152	0.889055	0.598905
	H50	H	0.588010	0.126238	0.418634
	H51	H	0.390767	0.887042	0.416557
	H52	H	0.579737	0.412028	0.124694
	H53	H	0.602280	0.604640	0.886285
	H54	H	0.400069	0.602423	0.125601
	H55	H	0.396568	0.424939	0.890870
	H56	H	0.107666	0.606666	0.407735
	H57	H	0.873627	0.600301	0.606064
	H58	H	0.110154	0.427493	0.603059
	H59	H	0.877715	0.422508	0.412060
	H60	H	0.114645	0.410818	0.604176
	H61	H	0.876282	0.597750	0.597583
	H62	H	0.109484	0.606733	0.403624
	H63	H	0.872759	0.407547	0.409520
	H64	H	0.391461	0.593879	0.124396
	H65	H	0.587833	0.594001	0.894496
	H66	H	0.586836	0.416177	0.125869
	H67	H	0.407437	0.406064	0.889110
	H68	H	0.595622	0.129735	0.410229
	H69	H	0.578266	0.888177	0.597293
	H70	H	0.396778	0.129930	0.605504
	H71	H	0.402227	0.889646	0.414554
	H72	H	0.903441	0.630303	0.106562
	H73	H	0.077591	0.389025	0.095038
	H74	H	0.088765	0.625955	0.912608
	H75	H	0.895546	0.386812	0.911945
	H76	H	0.087798	0.916077	0.626383
	H77	H	0.088673	0.105899	0.389575
	H78	H	0.890029	0.103061	0.627208
	H79	H	0.890144	0.911165	0.385453
	H80	H	0.610797	0.113033	0.912882
	H81	H	0.369856	0.102266	0.113074
	H82	H	0.604812	0.925799	0.087982
	H83	H	0.375388	0.907446	0.921189
	H84	H	0.611542	0.927580	0.112261
	H85	H	0.375553	0.103335	0.095976
	H86	H	0.605739	0.098123	0.909526
	H87	H	0.378343	0.919044	0.919105
	H88	H	0.895250	0.089405	0.621821
	H89	H	0.092958	0.108904	0.387075
	H90	H	0.077957	0.922570	0.622060
	H91	H	0.894878	0.922740	0.391022
	H92	H	0.097930	0.628131	0.911141
	H93	H	0.084318	0.386024	0.097356
	H94	H	0.910195	0.624073	0.090694
	H95	H	0.902062	0.389747	0.917001
	H96	H	0.404725	0.127373	0.601643
	H97	H	0.579003	0.887854	0.599476
	H98	H	0.584030	0.127670	0.407349
	H99	H	0.396829	0.891722	0.425785
	H100	H	0.579737	0.420552	0.123992
	H101	H	0.584685	0.613289	0.889308
	H102	H	0.402245	0.591876	0.121290
	H103	H	0.386915	0.407305	0.883099
	H104	H	0.109751	0.610743	0.406987
	H105	H	0.875674	0.591891	0.604392
	H106	H	0.107391	0.416976	0.589562
	H107	H	0.877746	0.411842	0.423572
	H108	H	0.893001	0.628542	0.091883
	H109	H	0.077954	0.386155	0.102452
	H110	H	0.090448	0.629387	0.905079
	H111	H	0.893438	0.388695	0.920536
	H112	H	0.076778	0.910396	0.624411
	H113	H	0.095124	0.103084	0.387671
	H114	H	0.904276	0.102245	0.622807
	H115	H	0.902942	0.912649	0.389129
	H116	H	0.612744	0.107587	0.898888
	H117	H	0.377630	0.086990	0.105316
	H118	H	0.613734	0.905133	0.100263
	H119	H	0.373518	0.911463	0.909641
	C120	C	0.367903	0.017695	0.630577
	C121	C	0.609849	0.998692	0.626083
	C122	C	0.614784	0.017437	0.384283
	C123	C	0.372182	0.999880	0.388597
	C124	C	0.611439	0.388844	0.015318
	C125	C	0.618073	0.632626	0.998606
	C126	C	0.372641	0.626651	0.014904
	C127	C	0.367164	0.382807	0.996592
	C128	C	0.000359	0.632836	0.380975
	C129	C	0.983923	0.629122	0.627145
	C130	C	0.002185	0.386324	0.628947
	C131	C	0.984453	0.388064	0.384427
	C132	C	0.869688	0.517992	0.127584
	C133	C	0.111395	0.497587	0.124796
	C134	C	0.116674	0.516655	0.882624
	C135	C	0.872707	0.499330	0.886609
	C136	C	0.110840	0.889452	0.515131
	C137	C	0.117072	0.133383	0.497235
	C138	C	0.871511	0.127959	0.514874
	C139	C	0.865954	0.884335	0.497117
	C140	C	0.500668	0.131154	0.882951
	C141	C	0.483292	0.129392	0.129096
	C142	C	0.501988	0.886438	0.130440
	C143	C	0.484375	0.886730	0.885827
	C144	C	0.366576	0.891999	0.686096
	C145	C	0.610136	0.124664	0.678235
	C146	C	0.609669	0.891746	0.330407
	C147	C	0.379176	0.125635	0.332579
	C148	C	0.668677	0.391908	0.891658
	C149	C	0.672052	0.631061	0.121658
	C150	C	0.320963	0.625572	0.890620
	C151	C	0.309015	0.381867	0.119828
	C152	C	0.875841	0.682944	0.388156
	C153	C	0.107165	0.687406	0.619035
	C154	C	0.878728	0.328423	0.627618
	C155	C	0.108806	0.337583	0.385724
	C156	C	0.879486	0.383743	0.687388
	C157	C	0.107649	0.630961	0.678529
	C158	C	0.877034	0.627465	0.328247
	C159	C	0.107250	0.393392	0.325963
	C160	C	0.380532	0.682685	0.890624
	C161	C	0.612381	0.686213	0.122886
	C162	C	0.608730	0.337505	0.890448
	C163	C	0.369018	0.327769	0.121039
	C164	C	0.666313	0.891703	0.386978
	C165	C	0.668811	0.123532	0.623935
	C166	C	0.308853	0.892996	0.629972
	C167	C	0.322360	0.126481	0.389862
	C168	C	0.867842	0.392854	0.185372
	C169	C	0.111857	0.624434	0.176255
	C170	C	0.110750	0.391035	0.828706
	C171	C	0.880002	0.625257	0.830877
	C172	C	0.169329	0.892325	0.392021
	C173	C	0.169716	0.131894	0.621339
	C174	C	0.818884	0.127476	0.391059
	C175	C	0.807800	0.882748	0.620577
	C176	C	0.376535	0.181242	0.890458
	C177	C	0.607137	0.187011	0.121503
	C178	C	0.379032	0.827104	0.129848
	C179	C	0.608717	0.836192	0.887291
	C180	C	0.378951	0.882968	0.188605
	C181	C	0.606753	0.131002	0.181164
	C182	C	0.377326	0.125938	0.830723
	C183	C	0.606674	0.890363	0.826252
	C184	C	0.879277	0.183352	0.390207
	C185	C	0.110394	0.186586	0.621778
	C186	C	0.107849	0.838937	0.389657
	C187	C	0.866969	0.827188	0.620817
	C188	C	0.167159	0.390481	0.885232
	C189	C	0.170338	0.622843	0.121917
	C190	C	0.810235	0.393016	0.129250
	C191	C	0.821285	0.625021	0.886669
	C192	C	0.392433	0.105615	0.607814
	C193	C	0.585445	0.910807	0.604783
	C194	C	0.595109	0.105235	0.405616
	C195	C	0.391001	0.912272	0.412104
	C196	C	0.588677	0.409948	0.102223
	C197	C	0.597643	0.610512	0.912481
	C198	C	0.391943	0.602915	0.101251
	C199	C	0.390204	0.405898	0.910101
	C200	C	0.086433	0.613692	0.400253
	C201	C	0.897526	0.603951	0.608292
	C202	C	0.088447	0.411093	0.605707
	C203	C	0.898454	0.408079	0.408100
	C204	C	0.894787	0.605131	0.103418
	C205	C	0.087112	0.409816	0.104365
	C206	C	0.098115	0.604928	0.903430
	C207	C	0.891501	0.411317	0.909789
	C208	C	0.087537	0.910205	0.601803
	C209	C	0.098058	0.112174	0.410429
	C210	C	0.890603	0.104947	0.601480
	C211	C	0.889138	0.908411	0.410960
	C212	C	0.587167	0.112131	0.901556
	C213	C	0.396843	0.104914	0.110077
	C214	C	0.587877	0.912029	0.106961
	C215	C	0.398344	0.906629	0.909608
	Zn216	Zn	0.491119	0.008156	0.755162
	Zn217	Zn	0.492439	0.007366	0.258889
	Zn218	Zn	0.743203	0.508745	0.007052
	Zn219	Zn	0.240803	0.505328	0.005652
	Zn220	Zn	-0.009545	0.759748	0.505060
	Zn221	Zn	-0.005987	0.258709	0.506084
	Zn222	Zn	-0.005626	0.507822	0.757755
	Zn223	Zn	-0.008203	0.509254	0.253084
	Zn224	Zn	0.494537	0.758543	0.007953
	Zn225	Zn	0.491315	0.258821	0.006137
	Zn226	Zn	0.739455	0.006870	0.506726
	Zn227	Zn	0.242054	0.010392	0.508105
	N228	N	0.402630	0.970779	0.686668
	N229	N	0.574265	0.045671	0.679938
	N230	N	0.578374	0.970988	0.328409
	N231	N	0.409468	0.045997	0.331753
	N232	N	0.670459	0.423126	0.970509
	N233	N	0.675944	0.598671	0.043386
	N234	N	0.315974	0.591412	0.968886
	N235	N	0.307637	0.415553	0.041470
	N236	N	0.953310	0.686453	0.420202
	N237	N	0.029024	0.686433	0.587958
	N238	N	0.956180	0.329858	0.592117
	N239	N	0.031493	0.334117	0.421561
	N240	N	0.957301	0.419192	0.688304
	N241	N	0.029867	0.595662	0.683870
	N242	N	0.955421	0.597241	0.323323
	N243	N	0.028919	0.423879	0.325038
	N244	N	0.412071	0.683350	0.968881
	N245	N	0.579637	0.687623	0.045363
	N246	N	0.573847	0.335349	0.968440
	N247	N	0.404479	0.328131	0.043459
	N248	N	0.669985	0.970973	0.419489
	N249	N	0.668464	0.044024	0.592266
	N250	N	0.309335	0.972536	0.596445
	N251	N	0.317581	0.047264	0.423995
	N252	N	0.904405	0.471450	0.184260
	N253	N	0.075816	0.545652	0.178255
	N254	N	0.080138	0.470682	0.826769
	N255	N	0.911105	0.545916	0.830498
	N256	N	0.171342	0.922941	0.471066
	N257	N	0.174017	0.099463	0.543053
	N258	N	0.813835	0.093756	0.469616
	N259	N	0.806829	0.917475	0.542669
	N260	N	0.454178	0.184804	0.922148
	N261	N	0.529185	0.186375	0.090020
	N262	N	0.456436	0.829155	0.094160
	N263	N	0.531692	0.833663	0.923673
	N264	N	0.456536	0.919141	0.189067
	N265	N	0.528804	0.095808	0.186074
	N266	N	0.455582	0.095676	0.825657
	N267	N	0.528439	0.921229	0.825223
	N268	N	0.911271	0.183722	0.468056
	N269	N	0.078461	0.187744	0.543773
	N270	N	0.072118	0.837101	0.467295
	N271	N	0.902600	0.828033	0.543142
	N272	N	0.171081	0.469475	0.918140
	N273	N	0.170082	0.542957	0.090641
	N274	N	0.811231	0.471899	0.094227
	N275	N	0.816742	0.545607	0.920797
	O276	O	0.003091	0.000414	0.012652
	H277	H	-0.005960	0.002113	0.014909
	H278	H	-0.006708	-0.008246	0.013381
	O279	O	0.547184	0.497404	0.464731
	H280	H	0.552229	0.495947	0.469362
	H281	H	0.547340	0.487377	0.456038
	O282	O	0.349227	0.470001	0.497378
	H283	H	0.355782	0.472366	0.503088
	H284	H	0.340172	0.463208	0.506737
	O285	O	0.028437	1.017028	0.916635
	H286	H	0.027126	1.005398	0.911458
	H287	H	0.016973	1.012975	0.923271
	O288	O	0.463370	0.547901	0.408560
	H289	H	0.460614	0.545148	0.403729
	H290	H	0.466422	0.543569	0.408892
	O291	O	0.986485	0.937166	1.005165
	H292	H	0.994825	0.941724	0.994951
	H293	H	0.992026	0.928353	0.998795
	O294	O	1.512857	0.483844	0.627803
	H295	H	1.498775	0.477534	0.638250
	H296	H	1.510423	0.497316	0.621811
	O297	O	0.884902	-0.036212	1.008906
	H298	H	0.880761	-0.037971	1.004378
	H299	H	0.888398	-0.024644	1.002450
	O300	O	0.563806	0.586434	0.481125
	H301	H	0.561741	0.579478	0.488693
	H302	H	0.552927	0.582699	0.479541
	O303	O	1.072897	-0.102614	-0.075207
	H304	H	1.082940	-0.111917	-0.076201
	H305	H	1.069700	-0.096042	-0.071410
	O306	O	-0.122330	0.909743	1.110820
	H307	H	-0.128846	0.903533	1.097339
	H308	H	-0.128038	0.895797	1.121171
	O309	O	0.425068	0.464514	0.624300
	H310	H	0.423309	0.479160	0.624035
	H311	H	0.436540	0.458487	0.622634
	O312	O	1.016132	0.127101	1.062782
	H313	H	1.009069	0.124497	1.073812
	H314	H	1.009194	0.119700	1.064410
	O315	O	-0.016332	0.026519	0.039736
	H316	H	-0.016746	0.020385	0.038148
	H317	H	-0.026923	0.034068	0.052381
	O318	O	0.580782	0.620948	0.564665
	H319	H	0.583739	0.631025	0.560862
	H320	H	0.581456	0.623029	0.557819
	O321	O	0.940894	0.969718	1.044679
	H322	H	0.935721	0.987054	1.044481
	H323	H	0.954986	0.969480	1.031741
	O324	O	0.981143	-0.016120	-0.051161
	H325	H	0.979634	-0.012968	-0.055982
	H326	H	0.983879	-0.020773	-0.047121
	O327	O	0.501630	0.520573	0.436698
	H328	H	0.502205	0.514582	0.440478
	H329	H	0.494719	0.516796	0.440220
	O330	O	0.985350	-0.036987	1.023119
	H331	H	0.991967	-0.050714	1.032826
	H332	H	0.983578	-0.036733	1.008713
	O333	O	1.045987	1.098968	-0.966248
	H334	H	1.047785	1.104470	-0.960305
	H335	H	1.059082	1.102127	-0.967042
	O336	O	0.927979	1.035303	1.100704
	H337	H	0.924762	1.025126	1.105500
	H338	H	0.907243	1.038433	1.107409
	O339	O	0.481400	0.533752	0.525771
	H340	H	0.496249	0.544714	0.525916
	H341	H	0.479154	0.516383	0.513037
	O342	O	0.001139	1.010625	0.009982
	H343	H	-0.002639	1.001427	0.028980
	H344	H	0.013723	1.001032	-0.001018
	O345	O	0.118845	-0.027812	0.033875
	H346	H	0.123808	-0.011180	0.035899
	H347	H	0.117654	-0.030630	0.046099
	O348	O	0.447387	0.479294	0.600899
	H349	H	0.438187	0.469406	0.617126
	H350	H	0.446192	0.479516	0.598813
	O351	O	0.483688	0.448257	0.508608
	H352	H	0.479323	0.449354	0.506923
	H353	H	0.482076	0.455899	0.517071
	O354	O	0.481957	0.464819	0.493784
	H355	H	0.470263	0.469325	0.493210
	H356	H	0.486655	0.460363	0.503061
	O357	O	0.479817	0.510793	0.455974
	H358	H	0.479860	0.499282	0.464764
	H359	H	0.487550	0.501867	0.452610
	O360	O	0.026650	0.040322	-0.040620
	H361	H	0.016578	0.051824	-0.034751
	H362	H	0.028087	0.041321	-0.029034
	O363	O	0.537500	0.444147	0.516984
	H364	H	0.534038	0.451556	0.523623
	H365	H	0.551123	0.446627	0.519464
	O366	O	-0.032727	-0.047195	0.953243
	H367	H	-0.025933	-0.058063	0.951014
	H368	H	-0.029203	-0.050233	0.942777
	O369	O	0.464022	0.588456	0.516736
	H370	H	0.466027	0.582527	0.509223
	H371	H	0.454643	0.594593	0.515730
