data_Molecule from HDF5

_cell_length_a		16.568181
_cell_length_b		16.703504
_cell_length_c		16.645809
_cell_angle_alpha	89.984750
_cell_angle_beta	89.974886
_cell_angle_gamma	89.823895
_symmetry_space_group_name_H-M	'P 1'
_symmetry_Int_Tables_number		1

loop_
	_symmetry_equiv_pos_as_xyz
	x,y,z

loop_
	_atom_site_label
	_atom_site_type_symbol
	_atom_site_fract_x
	_atom_site_fract_y
	_atom_site_fract_z
	H0	H	0.401806	0.821606	0.710402
	H1	H	0.610172	0.131101	0.711586
	H2	H	0.615485	0.824562	0.266043
	H3	H	0.402694	0.132814	0.269719
	H4	H	0.729931	0.370155	0.835607
	H5	H	0.727029	0.580319	0.145949
	H6	H	0.285878	0.580552	0.834881
	H7	H	0.288080	0.375338	0.146803
	H8	H	0.851508	0.699776	0.384065
	H9	H	0.165559	0.692685	0.589968
	H10	H	0.849794	0.259353	0.593973
	H11	H	0.162902	0.257856	0.387555
	H12	H	0.849513	0.375205	0.710038
	H13	H	0.165120	0.577270	0.706055
	H14	H	0.851890	0.583967	0.267710
	H15	H	0.163532	0.373658	0.271698
	H16	H	0.397895	0.699989	0.837438
	H17	H	0.609664	0.696237	0.146389
	H18	H	0.616852	0.251412	0.837258
	H19	H	0.400649	0.254640	0.144527
	H20	H	0.731304	0.823652	0.383429
	H21	H	0.727063	0.131743	0.595621
	H22	H	0.288151	0.820650	0.591494
	H23	H	0.287239	0.133569	0.387060
	H24	H	0.899964	0.322879	0.213305
	H25	H	0.113175	0.629664	0.213209
	H26	H	0.110540	0.321037	0.769317
	H27	H	0.903117	0.635102	0.772409
	H28	H	0.221908	0.878726	0.331201
	H29	H	0.226157	0.080074	0.646993
	H30	H	0.785282	0.082643	0.336220
	H31	H	0.783852	0.870346	0.644372
	H32	H	0.351783	0.198502	0.884938
	H33	H	0.661737	0.199981	0.097518
	H34	H	0.349961	0.757331	0.096586
	H35	H	0.660773	0.754007	0.884930
	H36	H	0.350145	0.874248	0.210914
	H37	H	0.661850	0.083371	0.213523
	H38	H	0.350371	0.081569	0.770420
	H39	H	0.662010	0.870998	0.770217
	H40	H	0.900682	0.199778	0.336119
	H41	H	0.111800	0.198000	0.646860
	H42	H	0.108365	0.760169	0.332033
	H43	H	0.900599	0.754581	0.643970
	H44	H	0.224518	0.319551	0.888052
	H45	H	0.227760	0.630574	0.095809
	H46	H	0.783399	0.323601	0.097270
	H47	H	0.785456	0.633754	0.886593
	H48	H	0.418279	0.087647	0.579440
	H49	H	0.592941	0.866846	0.578521
	H50	H	0.595716	0.089293	0.397898
	H51	H	0.414964	0.866819	0.405568
	H52	H	0.600195	0.391973	0.101558
	H53	H	0.596394	0.566647	0.877913
	H54	H	0.410633	0.567508	0.104463
	H55	H	0.423125	0.388690	0.881135
	H56	H	0.117835	0.564160	0.402635
	H57	H	0.893580	0.564967	0.582408
	H58	H	0.118124	0.387509	0.578562
	H59	H	0.894384	0.387811	0.402065
	H60	H	0.119632	0.388536	0.582848
	H61	H	0.891828	0.572346	0.583578
	H62	H	0.119749	0.566700	0.398154
	H63	H	0.894921	0.389704	0.403013
	H64	H	0.418043	0.560948	0.099784
	H65	H	0.593560	0.563418	0.879829
	H66	H	0.587400	0.392936	0.096697
	H67	H	0.418029	0.379429	0.876671
	H68	H	0.589470	0.085178	0.403034
	H69	H	0.597407	0.865970	0.576593
	H70	H	0.412402	0.089567	0.580228
	H71	H	0.413649	0.864054	0.395696
	H72	H	0.918471	0.585738	0.073566
	H73	H	0.096177	0.365682	0.078642
	H74	H	0.095383	0.589038	0.894608
	H75	H	0.911171	0.364261	0.897674
	H76	H	0.095507	0.886624	0.600421
	H77	H	0.096662	0.064951	0.380087
	H78	H	0.918839	0.070838	0.603605
	H79	H	0.918103	0.890150	0.378753
	H80	H	0.617993	0.064316	0.901438
	H81	H	0.395564	0.065383	0.079889
	H82	H	0.619069	0.884886	0.079684
	H83	H	0.396216	0.892109	0.903816
	H84	H	0.617286	0.886207	0.075625
	H85	H	0.396503	0.066960	0.076905
	H86	H	0.618378	0.063784	0.901574
	H87	H	0.392348	0.888230	0.896520
	H88	H	0.915249	0.064594	0.602663
	H89	H	0.093456	0.071223	0.379208
	H90	H	0.098030	0.881411	0.602851
	H91	H	0.920225	0.891162	0.380314
	H92	H	0.094655	0.586988	0.901447
	H93	H	0.096380	0.363492	0.080424
	H94	H	0.914814	0.588907	0.080589
	H95	H	0.923226	0.366831	0.895490
	H96	H	0.416524	0.089798	0.584836
	H97	H	0.596377	0.865104	0.581530
	H98	H	0.597798	0.086802	0.406759
	H99	H	0.423222	0.867425	0.398849
	H100	H	0.592327	0.381298	0.101662
	H101	H	0.592056	0.567781	0.879820
	H102	H	0.420578	0.571136	0.102855
	H103	H	0.412219	0.389613	0.876862
	H104	H	0.118588	0.569607	0.402937
	H105	H	0.894325	0.569930	0.576548
	H106	H	0.120414	0.384365	0.581216
	H107	H	0.894121	0.389785	0.400862
	H108	H	0.923056	0.586134	0.080935
	H109	H	0.094629	0.365615	0.080169
	H110	H	0.101222	0.589792	0.898788
	H111	H	0.918334	0.369018	0.906370
	H112	H	0.101233	0.886312	0.603200
	H113	H	0.100137	0.070303	0.376522
	H114	H	0.922049	0.065469	0.600160
	H115	H	0.920367	0.888532	0.378877
	H116	H	0.618812	0.063977	0.901052
	H117	H	0.396452	0.063315	0.077079
	H118	H	0.617848	0.889163	0.078582
	H119	H	0.393390	0.883789	0.904110
	C120	C	0.384304	-0.014049	0.612209
	C121	C	0.627770	0.968211	0.611669
	C122	C	0.628578	-0.014087	0.368642
	C123	C	0.385763	0.969178	0.368672
	C124	C	0.627650	0.355472	-0.001868
	C125	C	0.626031	0.597383	0.982235
	C126	C	0.384030	0.598261	-0.000316
	C127	C	0.386026	0.355281	0.981607
	C128	C	0.015648	0.598931	0.368573
	C129	C	0.998220	0.598702	0.610860
	C130	C	0.015137	0.356550	0.612151
	C131	C	0.998012	0.357134	0.370406
	C132	C	0.885606	0.485102	0.111153
	C133	C	0.127955	0.467434	0.111655
	C134	C	0.127999	0.484928	0.868079
	C135	C	0.885273	0.469679	0.868735
	C136	C	0.128030	0.855872	0.497893
	C137	C	0.128212	0.099640	0.481992
	C138	C	0.886365	0.098702	0.499099
	C139	C	0.886356	0.856770	0.481271
	C140	C	0.515387	0.097229	0.869283
	C141	C	0.498735	0.098188	0.110931
	C142	C	0.514621	0.856020	0.110896
	C143	C	0.496707	0.854545	0.869044
	C144	C	0.383424	0.868143	0.670296
	C145	C	0.629112	0.084443	0.671804
	C146	C	0.633086	0.870381	0.306928
	C147	C	0.384267	0.086177	0.309725
	C148	C	0.689541	0.352138	0.882307
	C149	C	0.686264	0.598802	0.099425
	C150	C	0.324539	0.599961	0.882457
	C151	C	0.327132	0.355285	0.099539
	C152	C	0.898319	0.659515	0.365700
	C153	C	0.117718	0.654722	0.610025
	C154	C	0.896866	0.298539	0.612965
	C155	C	0.115934	0.297801	0.369078
	C156	C	0.896619	0.356524	0.670202
	C157	C	0.117434	0.597311	0.667754
	C158	C	0.898698	0.602062	0.307933
	C159	C	0.116400	0.355520	0.311688
	C160	C	0.380491	0.659179	0.883581
	C161	C	0.628085	0.656314	0.099643
	C162	C	0.633268	0.293156	0.882899
	C163	C	0.383091	0.295570	0.098498
	C164	C	0.690455	0.870225	0.365349
	C165	C	0.687120	0.084858	0.614104
	C166	C	0.326793	0.867796	0.611458
	C167	C	0.326701	0.086499	0.367898
	C168	C	0.882064	0.369282	0.172355
	C169	C	0.131088	0.583476	0.172490
	C170	C	0.128981	0.367690	0.809357
	C171	C	0.884179	0.587477	0.810903
	C172	C	0.183706	0.858457	0.378659
	C173	C	0.186808	0.099404	0.599970
	C174	C	0.825684	0.100934	0.382607
	C175	C	0.824794	0.852741	0.597824
	C176	C	0.398419	0.158189	0.866731
	C177	C	0.615344	0.159439	0.115105
	C178	C	0.396953	0.797223	0.114111
	C179	C	0.614070	0.793946	0.866497
	C180	C	0.397085	0.855371	0.170987
	C181	C	0.615360	0.101516	0.172511
	C182	C	0.397667	0.099887	0.809880
	C183	C	0.614611	0.852107	0.809557
	C184	C	0.882846	0.159245	0.382523
	C185	C	0.129998	0.158214	0.599783
	C186	C	0.127174	0.799556	0.379303
	C187	C	0.882797	0.795177	0.597615
	C188	C	0.185683	0.366823	0.868299
	C189	C	0.187870	0.583881	0.113806
	C190	C	0.824279	0.369567	0.114538
	C191	C	0.825592	0.587027	0.867943
	C192	C	0.408699	0.067709	0.588344
	C193	C	0.602733	0.887037	0.586064
	C194	C	0.601746	0.066248	0.394964
	C195	C	0.410398	0.887206	0.392996
	C196	C	0.600758	0.381427	0.079035
	C197	C	0.601162	0.572773	0.900638
	C198	C	0.409263	0.573639	0.081244
	C199	C	0.410783	0.379263	0.899731
	C200	C	0.097621	0.574004	0.393959
	C201	C	0.915111	0.575670	0.587625
	C202	C	0.097740	0.380113	0.587875
	C203	C	0.915735	0.382136	0.394942
	C204	C	0.911509	0.565941	0.085535
	C205	C	0.102860	0.386147	0.087023
	C206	C	0.104117	0.567197	0.891674
	C207	C	0.910168	0.388012	0.892973
	C208	C	0.105055	0.878481	0.580568
	C209	C	0.103616	0.075716	0.399953
	C210	C	0.911768	0.073807	0.580878
	C211	C	0.912225	0.882803	0.400375
	C212	C	0.597154	0.071459	0.894346
	C213	C	0.417434	0.072675	0.085096
	C214	C	0.596615	0.879997	0.085266
	C215	C	0.415151	0.880441	0.894307
	Zn216	Zn	0.505949	-0.023949	0.741007
	Zn217	Zn	0.507076	-0.023026	0.239148
	Zn218	Zn	0.756316	0.477165	-0.010096
	Zn219	Zn	0.256533	0.475981	-0.010263
	Zn220	Zn	0.007144	0.727050	0.489655
	Zn221	Zn	0.006637	0.227930	0.491234
	Zn222	Zn	0.006451	0.477910	0.739869
	Zn223	Zn	0.006486	0.476467	0.240728
	Zn224	Zn	0.505250	0.727296	-0.009123
	Zn225	Zn	0.507662	0.226310	-0.010184
	Zn226	Zn	0.757295	-0.022444	0.490609
	Zn227	Zn	0.256718	-0.022705	0.489770
	N228	N	0.418210	0.942558	0.671291
	N229	N	0.592987	0.010664	0.670653
	N230	N	0.595005	0.943428	0.308920
	N231	N	0.420112	0.011951	0.309781
	N232	N	0.686382	0.390287	0.955196
	N233	N	0.685231	0.562860	0.025315
	N234	N	0.326469	0.562866	0.955871
	N235	N	0.328419	0.391216	0.025614
	N236	N	0.972349	0.657941	0.402666
	N237	N	0.042315	0.656261	0.575585
	N238	N	0.971658	0.298480	0.577408
	N239	N	0.041190	0.298402	0.404703
	N240	N	0.971442	0.391590	0.669991
	N241	N	0.041995	0.563368	0.668603
	N242	N	0.972718	0.565196	0.309522
	N243	N	0.041896	0.391710	0.312261
	N244	N	0.416764	0.658482	0.957645
	N245	N	0.591429	0.655882	0.025693
	N246	N	0.595481	0.295182	0.956186
	N247	N	0.418812	0.295122	0.024022
	N248	N	0.687752	0.943076	0.402959
	N249	N	0.686600	0.011277	0.577522
	N250	N	0.326823	0.942226	0.576262
	N251	N	0.327555	0.012584	0.403728
	N252	N	0.919665	0.442320	0.170474
	N253	N	0.094326	0.510037	0.171292
	N254	N	0.094219	0.442433	0.808803
	N255	N	0.920381	0.513416	0.811051
	N256	N	0.184632	0.892804	0.453505
	N257	N	0.186200	0.063606	0.525617
	N258	N	0.827770	0.063868	0.456156
	N259	N	0.826806	0.890213	0.524436
	N260	N	0.472809	0.156794	0.902865
	N261	N	0.541758	0.157410	0.077560
	N262	N	0.471210	0.797272	0.077532
	N263	N	0.539499	0.795080	0.902475
	N264	N	0.471494	0.891013	0.169370
	N265	N	0.541673	0.064311	0.170302
	N266	N	0.471540	0.062592	0.811229
	N267	N	0.540566	0.889123	0.810786
	N268	N	0.919781	0.158114	0.456196
	N269	N	0.094376	0.158574	0.525355
	N270	N	0.093544	0.797554	0.454423
	N271	N	0.920434	0.797356	0.524196
	N272	N	0.185456	0.440958	0.903938
	N273	N	0.186332	0.510598	0.076777
	N274	N	0.826345	0.442672	0.077132
	N275	N	0.825713	0.512542	0.902949
	O276	O	-0.182482	0.983669	-0.086570
	H277	H	-0.193258	0.989450	-0.097331
	H278	H	-0.181570	0.996238	-0.075917
	O279	O	0.446818	0.536607	0.711329
	H280	H	0.437460	0.531667	0.715699
	H281	H	0.436349	0.523155	0.702891
	O282	O	1.540620	0.531789	0.274030
	H283	H	1.533098	0.551085	0.271477
	H284	H	1.549075	0.522961	0.291216
	O285	O	0.318677	0.666867	0.684199
	H286	H	0.343044	0.661148	0.681367
	H287	H	0.314177	0.671080	0.676981
	O288	O	-0.091238	1.035187	1.028728
	H289	H	-0.099101	1.048236	1.038881
	H290	H	-0.077924	1.027725	1.047034
	O291	O	0.475371	0.704719	0.550750
	H292	H	0.479376	0.704262	0.571875
	H293	H	0.478081	0.693494	0.550538
	O294	O	0.904179	-0.000746	0.995484
	H295	H	0.914503	0.007077	0.999195
	H296	H	0.897622	-0.007317	1.010278
	O297	O	0.479147	0.705843	0.272077
	H298	H	0.467361	0.732016	0.242517
	H299	H	0.440758	0.691827	0.272722
	O300	O	-0.036262	-0.009359	0.813621
	H301	H	-0.035069	-0.005906	0.823664
	H302	H	-0.028461	-0.001261	0.808283
	O303	O	0.397448	0.270420	0.647103
	H304	H	0.421658	0.268210	0.653234
	H305	H	0.387395	0.256644	0.670849
	O306	O	0.298027	0.528323	0.539096
	H307	H	0.291937	0.531036	0.516333
	H308	H	0.306062	0.549402	0.545917
	O309	O	0.229054	1.198923	1.030536
	H310	H	0.230897	1.176598	1.038941
	H311	H	0.262924	1.227477	1.029240
	O312	O	0.003568	1.173560	0.948215
	H313	H	0.001799	1.156562	0.958255
	H314	H	0.004839	1.180170	0.949875
	O315	O	0.636050	0.719150	1.731594
	H316	H	0.635796	0.743304	1.746892
	H317	H	0.631922	0.705897	1.746145
	O318	O	0.621419	0.250209	0.519535
	H319	H	0.634859	0.257498	0.520405
	H320	H	0.639875	0.247768	0.513224
	O321	O	-0.202668	1.184790	0.777429
	H322	H	-0.184056	1.165825	0.779736
	H323	H	-0.221022	1.212215	0.758001
	O324	O	0.920890	0.880227	-0.189981
	H325	H	0.898731	0.887322	-0.181848
	H326	H	0.926180	0.877464	-0.170531
	O327	O	-0.182455	0.163469	1.175649
	H328	H	-0.166468	0.144816	1.157044
	H329	H	-0.160020	0.146132	1.162178
	O330	O	0.590229	0.420889	0.696666
	H331	H	0.607821	0.444627	0.711536
	H332	H	0.585030	0.426470	0.685607
	O333	O	0.812975	-0.054259	1.178291
	H334	H	0.821304	-0.076281	1.184312
	H335	H	0.794243	-0.060684	1.199246
	O336	O	0.317844	0.290716	0.302090
	H337	H	0.324342	0.308388	0.315390
	H338	H	0.348763	0.298135	0.314477
	O339	O	0.535230	0.410655	0.540002
	H340	H	0.538549	0.411915	0.547579
	H341	H	0.536076	0.404139	0.549774
	O342	O	-0.276036	0.264913	0.280218
	H343	H	-0.312624	0.261683	0.288365
	H344	H	-0.247852	0.231792	0.246021
	O345	O	0.215990	1.189383	1.202750
	H346	H	0.234773	1.212202	1.197715
	H347	H	0.188444	1.204964	1.215461
	O348	O	0.192726	-0.219089	0.176964
	H349	H	0.170852	-0.210812	0.152078
	H350	H	0.177413	-0.196627	0.160069
	O351	O	0.277600	0.418520	0.444364
	H352	H	0.270480	0.421129	0.449421
	H353	H	0.275451	0.410286	0.439373
	O354	O	-0.025224	-0.242127	1.209268
	H355	H	-0.026715	-0.254494	1.204097
	H356	H	-0.024852	-0.259570	1.219873
	O357	O	0.233287	0.968924	-0.014764
	H358	H	0.235665	0.955003	-0.003948
	H359	H	0.228885	0.945401	-0.021148
	O360	O	0.630931	0.469634	0.505638
	H361	H	0.620732	0.486555	0.500236
	H362	H	0.634023	0.473545	0.518891
	O363	O	0.114946	-0.042521	0.138653
	H364	H	0.128815	-0.042476	0.129729
	H365	H	0.119451	-0.033298	0.140689
	O366	O	0.482260	0.265023	0.708426
	H367	H	0.482519	0.282285	0.703638
	H368	H	0.480797	0.247574	0.728276
	O369	O	1.213976	-0.231585	-0.219643
	H370	H	1.190229	-0.220141	-0.213000
	H371	H	1.223519	-0.234696	-0.233168
	O372	O	1.230291	0.754493	-0.038723
	H373	H	1.255819	0.730613	-0.038682
	H374	H	1.217686	0.752543	-0.070721
	O375	O	0.829775	-0.169216	-0.112152
	H376	H	0.819455	-0.168171	-0.087620
	H377	H	0.811673	-0.171841	-0.110884
	O378	O	0.600117	0.448599	0.329701
	H379	H	0.600263	0.443902	0.330623
	H380	H	0.597085	0.425636	0.320386
	O381	O	-0.027380	1.197481	0.766245
	H382	H	-0.048076	1.198442	0.775861
	H383	H	-0.019918	1.217383	0.753704
	O384	O	0.798223	-0.227897	1.196177
	H385	H	0.774490	-0.253158	1.222286
	H386	H	0.818289	-0.239050	1.186747
	O387	O	1.440173	1.271070	-0.539779
	H388	H	1.420764	1.270446	-0.522579
	H389	H	1.450527	1.266391	-0.532729
	O390	O	0.523226	0.458659	0.289769
	H391	H	0.545158	0.459888	0.280736
	H392	H	0.536829	0.445091	0.294801
	O393	O	0.700619	0.670446	0.297200
	H394	H	0.678124	0.655745	0.316057
	H395	H	0.683650	0.649564	0.314255
	O396	O	0.229283	1.022776	1.206623
	H397	H	0.215303	1.069352	1.195734
	H398	H	0.261868	1.029226	1.243374
	O399	O	-0.494222	-0.673895	1.379169
	H400	H	-0.495132	-0.683838	1.394802
	H401	H	-0.480692	-0.671600	1.396703
	O402	O	0.123273	1.082291	-0.083227
	H403	H	0.113267	1.074233	-0.091020
	H404	H	0.125828	1.059931	-0.091129
	O405	O	1.066750	-0.228581	1.070735
	H406	H	1.057395	-0.216994	1.055019
	H407	H	1.066288	-0.231696	1.062864
	O408	O	0.227336	-0.062498	-0.229947
	H409	H	0.226272	-0.065839	-0.236708
	H410	H	0.235055	-0.059995	-0.251313
	O411	O	1.250116	1.213088	0.754147
	H412	H	1.248203	1.203735	0.761667
	H413	H	1.232097	1.215580	0.780376
	O414	O	0.549588	0.607504	0.622733
	H415	H	0.560228	0.605413	0.612301
	H416	H	0.571481	0.603663	0.622433
	O417	O	0.576497	0.709180	0.427094
	H418	H	0.556209	0.696515	0.415589
	H419	H	0.547844	0.714822	0.425526
	O420	O	0.297551	0.509510	0.279847
	H421	H	0.303692	0.501827	0.268614
	H422	H	0.305361	0.495329	0.274133
	O423	O	-0.209967	0.190981	0.972467
	H424	H	-0.221134	0.200505	0.956030
	H425	H	-0.205217	0.193915	0.950357
	O426	O	0.287735	0.438503	0.718036
	H427	H	0.256515	0.431318	0.743247
	H428	H	0.280954	0.429931	0.696303
	O429	O	0.791911	1.010885	0.768344
	H430	H	0.783537	1.004888	0.747689
	H431	H	0.782904	1.028500	0.772976
	O432	O	1.001116	-0.113915	1.142885
	H433	H	0.998622	-0.109380	1.131546
	H434	H	1.016177	-0.114716	1.139552
	O435	O	0.289849	1.256697	0.521418
	H436	H	0.271171	1.234333	0.530932
	H437	H	0.287014	1.265107	0.550559
	O438	O	0.694740	0.284065	-0.318454
	H439	H	0.692792	0.296130	-0.329159
	H440	H	0.669756	0.298801	-0.330982
	O441	O	-0.189603	-0.205600	-0.013010
	H442	H	-0.182876	-0.208048	0.010873
	H443	H	-0.212153	-0.226869	-0.007945
	O444	O	0.719354	0.693993	0.525690
	H445	H	0.717026	0.705181	0.503092
	H446	H	0.714624	0.704978	0.508659
	O447	O	0.125247	1.061445	0.827525
	H448	H	0.129850	1.047028	0.840303
	H449	H	0.110670	1.071313	0.830780
	O450	O	-0.017867	1.208397	1.027130
	H451	H	-0.025584	1.205187	1.020815
	H452	H	-0.000296	1.206507	1.032708
	O453	O	0.687914	0.664545	0.692502
	H454	H	0.671356	0.683556	0.705397
	H455	H	0.692701	0.665477	0.639280
	O456	O	-0.110478	-0.062647	1.127752
	H457	H	-0.104883	-0.068288	1.130387
	H458	H	-0.122952	-0.069061	1.134046
	O459	O	0.974285	1.029205	0.142514
	H460	H	0.968336	1.019030	0.143552
	H461	H	0.995478	1.031075	0.135165
	O462	O	0.739486	0.495870	0.484393
	H463	H	0.728717	0.501186	0.477716
	H464	H	0.749320	0.504456	0.489982
	O465	O	1.044814	-0.245425	-0.236449
	H466	H	1.049903	-0.255418	-0.255178
	H467	H	1.029195	-0.241130	-0.252788
	O468	O	0.730004	0.506144	0.715801
	H469	H	0.732529	0.541630	0.719520
	H470	H	0.746686	0.520124	0.738426
	O471	O	0.296396	0.690654	0.279272
	H472	H	0.261741	0.717901	0.244506
	H473	H	0.293770	0.643403	0.274954
	O474	O	0.423163	0.453306	0.528256
	H475	H	0.413702	0.457595	0.547183
	H476	H	0.408651	0.451830	0.529187
	O477	O	0.424010	0.583192	1.434593
	H478	H	0.441757	0.581643	1.436345
	H479	H	0.405011	0.598330	1.433111
	O480	O	0.690815	0.508611	0.365085
	H481	H	0.689427	0.472672	0.359180
	H482	H	0.691206	0.502271	0.367722
	O483	O	0.285458	0.706474	0.451274
	H484	H	0.278985	0.712714	0.426343
	H485	H	0.271531	0.727420	0.431093
	O486	O	0.535925	0.259221	0.271660
	H487	H	0.530772	0.243344	0.266840
	H488	H	0.532878	0.253332	0.282720
	O489	O	0.973343	0.791693	-0.052186
	H490	H	0.964064	0.795781	-0.063623
	H491	H	0.963861	0.801709	-0.039041
	O492	O	0.074564	-0.108221	-0.112268
	H493	H	0.053312	-0.116463	-0.114290
	H494	H	0.056599	-0.107908	-0.113598
	O495	O	0.116896	1.002406	1.036111
	H496	H	0.136432	1.019057	1.048943
	H497	H	0.126607	0.977673	1.031234
	O498	O	1.047213	1.193042	1.210644
	H499	H	1.052411	1.195361	1.223408
	H500	H	1.035930	1.198288	1.208243
	O501	O	0.671020	0.321568	0.446853
	H502	H	0.677455	0.316404	0.431315
	H503	H	0.679657	0.328943	0.434998
