data_Molecule from HDF5

_cell_length_a		16.367351
_cell_length_b		16.276110
_cell_length_c		16.252480
_cell_angle_alpha	90.398695
_cell_angle_beta	89.786232
_cell_angle_gamma	89.839769
_symmetry_space_group_name_H-M	'P 1'
_symmetry_Int_Tables_number		1

loop_
	_symmetry_equiv_pos_as_xyz
	x,y,z

loop_
	_atom_site_label
	_atom_site_type_symbol
	_atom_site_fract_x
	_atom_site_fract_y
	_atom_site_fract_z
	H0	H	0.402156	0.827165	0.716108
	H1	H	0.607799	0.149381	0.720550
	H2	H	0.608886	0.828289	0.277317
	H3	H	0.403624	0.151826	0.285271
	H4	H	0.724039	0.383775	0.837021
	H5	H	0.720235	0.591053	0.161894
	H6	H	0.285305	0.591029	0.837659
	H7	H	0.285692	0.387128	0.160257
	H8	H	0.842874	0.707493	0.397250
	H9	H	0.164933	0.709666	0.602930
	H10	H	0.842333	0.273841	0.599449
	H11	H	0.164296	0.270106	0.394814
	H12	H	0.842948	0.388471	0.717180
	H13	H	0.163730	0.594960	0.720132
	H14	H	0.841788	0.590132	0.283764
	H15	H	0.164795	0.386901	0.279862
	H16	H	0.403082	0.704198	0.836254
	H17	H	0.604614	0.707542	0.161708
	H18	H	0.606606	0.269366	0.836846
	H19	H	0.403690	0.274180	0.161598
	H20	H	0.725194	0.828071	0.393017
	H21	H	0.720749	0.151223	0.603370
	H22	H	0.283190	0.829550	0.605929
	H23	H	0.286815	0.150513	0.398670
	H24	H	0.904449	0.326667	0.213586
	H25	H	0.104520	0.651538	0.216526
	H26	H	0.108151	0.328474	0.777389
	H27	H	0.902121	0.650853	0.782834
	H28	H	0.223353	0.886267	0.337144
	H29	H	0.223014	0.095305	0.660734
	H30	H	0.785781	0.092119	0.337508
	H31	H	0.785465	0.887420	0.661227
	H32	H	0.344197	0.208162	0.896112
	H33	H	0.663898	0.208583	0.103397
	H34	H	0.343244	0.770987	0.103394
	H35	H	0.663879	0.767754	0.894211
	H36	H	0.343328	0.888100	0.217919
	H37	H	0.664089	0.092236	0.217464
	H38	H	0.343163	0.090624	0.781451
	H39	H	0.664195	0.883811	0.778861
	H40	H	0.905205	0.203198	0.335351
	H41	H	0.106957	0.210733	0.659837
	H42	H	0.105209	0.772938	0.335659
	H43	H	0.903127	0.773143	0.661000
	H44	H	0.222787	0.327262	0.893842
	H45	H	0.222443	0.649704	0.104474
	H46	H	0.787199	0.327406	0.100941
	H47	H	0.782719	0.648563	0.894176
	H48	H	0.406206	0.106728	0.591385
	H49	H	0.595676	0.873323	0.588228
	H50	H	0.595608	0.102794	0.416536
	H51	H	0.418689	0.874903	0.407183
	H52	H	0.599035	0.396247	0.116542
	H53	H	0.585514	0.582934	0.885266
	H54	H	0.408440	0.573634	0.113607
	H55	H	0.418420	0.397672	0.884308
	H56	H	0.121014	0.586770	0.409120
	H57	H	0.891633	0.575014	0.591798
	H58	H	0.117797	0.400122	0.586087
	H59	H	0.888308	0.401049	0.401473
	H60	H	0.117447	0.400437	0.588344
	H61	H	0.887453	0.584570	0.593897
	H62	H	0.115565	0.575839	0.412134
	H63	H	0.885741	0.391465	0.405700
	H64	H	0.419395	0.580962	0.112711
	H65	H	0.603279	0.581390	0.880365
	H66	H	0.597040	0.403018	0.113405
	H67	H	0.411497	0.392923	0.880670
	H68	H	0.601268	0.107267	0.406508
	H69	H	0.595155	0.874261	0.586962
	H70	H	0.418830	0.104527	0.596518
	H71	H	0.413701	0.875317	0.412985
	H72	H	0.909601	0.606678	0.093219
	H73	H	0.086607	0.375965	0.089076
	H74	H	0.096231	0.603671	0.913872
	H75	H	0.916516	0.372628	0.904680
	H76	H	0.104447	0.900178	0.617588
	H77	H	0.087234	0.089301	0.382362
	H78	H	0.914100	0.086535	0.615643
	H79	H	0.915926	0.896580	0.383774
	H80	H	0.618564	0.073974	0.905884
	H81	H	0.389985	0.078744	0.088797
	H82	H	0.615586	0.902576	0.082198
	H83	H	0.389785	0.900115	0.907758
	H84	H	0.619091	0.901991	0.093869
	H85	H	0.387582	0.080605	0.095772
	H86	H	0.619375	0.082110	0.910938
	H87	H	0.387588	0.895515	0.905477
	H88	H	0.907019	0.082052	0.616204
	H89	H	0.109835	0.078893	0.379308
	H90	H	0.089698	0.909665	0.610226
	H91	H	0.912370	0.898991	0.382585
	H92	H	0.096496	0.605532	0.907659
	H93	H	0.100476	0.373830	0.080929
	H94	H	0.914232	0.604408	0.091288
	H95	H	0.918072	0.376304	0.911907
	H96	H	0.416014	0.100963	0.583810
	H97	H	0.596561	0.874084	0.586765
	H98	H	0.588909	0.102966	0.405135
	H99	H	0.411718	0.871628	0.406833
	H100	H	0.592124	0.396822	0.113340
	H101	H	0.594344	0.566283	0.888465
	H102	H	0.408948	0.585608	0.117650
	H103	H	0.410272	0.400973	0.883267
	H104	H	0.120411	0.577613	0.400640
	H105	H	0.890809	0.582627	0.584681
	H106	H	0.118592	0.398705	0.586747
	H107	H	0.889766	0.399360	0.411368
	H108	H	0.910407	0.605193	0.088521
	H109	H	0.099370	0.369765	0.096102
	H110	H	0.091492	0.603161	0.909841
	H111	H	0.910442	0.373001	0.909986
	H112	H	0.088091	0.891051	0.614761
	H113	H	0.091401	0.066309	0.390032
	H114	H	0.913676	0.078279	0.613525
	H115	H	0.915753	0.899947	0.384519
	H116	H	0.615567	0.074539	0.915267
	H117	H	0.387747	0.086346	0.090127
	H118	H	0.620117	0.892318	0.086849
	H119	H	0.389995	0.895953	0.911098
	C120	C	0.382622	-0.002229	0.621792
	C121	C	0.626153	0.980412	0.620040
	C122	C	0.626807	-0.002205	0.376884
	C123	C	0.383553	0.980560	0.378962
	C124	C	0.626587	0.366689	0.007527
	C125	C	0.624815	0.609143	0.991292
	C126	C	0.382015	0.610048	0.007448
	C127	C	0.382795	0.367219	0.990038
	C128	C	0.012152	0.610391	0.377408
	C129	C	0.995955	0.611674	0.621124
	C130	C	0.012038	0.369021	0.618830
	C131	C	0.994873	0.366916	0.375848
	C132	C	0.882573	0.498072	0.120342
	C133	C	0.125687	0.480288	0.120387
	C134	C	0.126071	0.497769	0.877463
	C135	C	0.883228	0.480444	0.878191
	C136	C	0.126106	0.868116	0.507653
	C137	C	0.126305	0.110820	0.490602
	C138	C	0.882303	0.111293	0.507566
	C139	C	0.883477	0.868427	0.490538
	C140	C	0.512095	0.108446	0.879080
	C141	C	0.494719	0.112342	0.122084
	C142	C	0.512296	0.868271	0.119744
	C143	C	0.494881	0.865636	0.876493
	C144	C	0.382733	0.875865	0.678494
	C145	C	0.626046	0.101560	0.680329
	C146	C	0.627544	0.876556	0.317243
	C147	C	0.384406	0.102980	0.323189
	C148	C	0.684627	0.365294	0.885536
	C149	C	0.682037	0.610519	0.113203
	C150	C	0.324639	0.609737	0.885792
	C151	C	0.324918	0.367929	0.111970
	C152	C	0.891017	0.668373	0.377929
	C153	C	0.116715	0.670195	0.621624
	C154	C	0.890834	0.311906	0.619461
	C155	C	0.116325	0.309258	0.375809
	C156	C	0.891175	0.368898	0.678058
	C157	C	0.116246	0.613318	0.680336
	C158	C	0.890374	0.610033	0.321482
	C159	C	0.116389	0.367410	0.318737
	C160	C	0.382924	0.666450	0.885283
	C161	C	0.624442	0.668463	0.112933
	C162	C	0.626311	0.308325	0.885364
	C163	C	0.383576	0.311514	0.112579
	C164	C	0.685557	0.876470	0.374854
	C165	C	0.682384	0.102539	0.621873
	C166	C	0.323439	0.877131	0.623308
	C167	C	0.325828	0.102296	0.379263
	C168	C	0.884554	0.375514	0.175882
	C169	C	0.124551	0.602381	0.178312
	C170	C	0.126825	0.376434	0.817488
	C171	C	0.882640	0.602208	0.821221
	C172	C	0.184392	0.866981	0.385668
	C173	C	0.183845	0.113220	0.612087
	C174	C	0.825075	0.110797	0.385673
	C175	C	0.824583	0.867907	0.612382
	C176	C	0.391943	0.168401	0.877474
	C177	C	0.615553	0.170179	0.122735
	C178	C	0.391301	0.810411	0.121504
	C179	C	0.615882	0.806814	0.875466
	C180	C	0.391370	0.868539	0.178633
	C181	C	0.615747	0.111881	0.179165
	C182	C	0.391239	0.109721	0.820620
	C183	C	0.616062	0.864469	0.817989
	C184	C	0.884282	0.166321	0.384627
	C185	C	0.126059	0.170835	0.611600
	C186	C	0.126006	0.810247	0.385119
	C187	C	0.883306	0.811333	0.612685
	C188	C	0.184053	0.376077	0.875397
	C189	C	0.183093	0.601654	0.122158
	C190	C	0.826210	0.375798	0.119815
	C191	C	0.823234	0.600940	0.876521
	C192	C	0.406552	0.082187	0.597596
	C193	C	0.602687	0.895892	0.594750
	C194	C	0.602385	0.082431	0.401998
	C195	C	0.407555	0.895926	0.402438
	C196	C	0.602876	0.391457	0.092381
	C197	C	0.601318	0.584123	0.906709
	C198	C	0.405377	0.586877	0.092436
	C199	C	0.406547	0.390423	0.904819
	C200	C	0.096908	0.586858	0.400564
	C201	C	0.911960	0.587618	0.597133
	C202	C	0.096146	0.392845	0.594465
	C203	C	0.909886	0.390376	0.399363
	C204	C	0.904919	0.583369	0.097482
	C205	C	0.102230	0.395312	0.095898
	C206	C	0.101693	0.582161	0.902941
	C207	C	0.907818	0.396080	0.901827
	C208	C	0.101428	0.893248	0.592298
	C209	C	0.102785	0.085453	0.405753
	C210	C	0.905184	0.088773	0.592936
	C211	C	0.907651	0.891776	0.405774
	C212	C	0.596014	0.083831	0.903582
	C213	C	0.410232	0.088933	0.098448
	C214	C	0.596530	0.892063	0.094765
	C215	C	0.410876	0.890044	0.900780
	Zn216	Zn	0.504297	-0.011979	0.748618
	Zn217	Zn	0.503770	-0.010395	0.249273
	Zn218	Zn	0.754503	0.488488	-0.000845
	Zn219	Zn	0.254100	0.488560	-0.000635
	Zn220	Zn	0.004236	0.739775	0.498402
	Zn221	Zn	0.003826	0.238892	0.497966
	Zn222	Zn	0.004040	0.489620	0.749373
	Zn223	Zn	0.003411	0.489654	0.248387
	Zn224	Zn	0.503305	0.738778	-0.000902
	Zn225	Zn	0.504456	0.239104	-0.000732
	Zn226	Zn	0.754787	-0.010031	0.499222
	Zn227	Zn	0.254868	-0.011004	0.499968
	N228	N	0.418836	0.951934	0.677522
	N229	N	0.591705	0.024494	0.679288
	N230	N	0.591943	0.953090	0.318347
	N231	N	0.419587	0.026178	0.322669
	N232	N	0.684785	0.400878	0.962480
	N233	N	0.682463	0.574401	0.036427
	N234	N	0.323793	0.575616	0.962843
	N235	N	0.324322	0.401717	0.034617
	N236	N	0.967714	0.668676	0.412040
	N237	N	0.040901	0.669413	0.585497
	N238	N	0.966969	0.311681	0.583601
	N239	N	0.039659	0.308926	0.410789
	N240	N	0.967602	0.403653	0.677795
	N241	N	0.040249	0.577540	0.680021
	N242	N	0.966802	0.574650	0.320990
	N243	N	0.039905	0.402255	0.318409
	N244	N	0.417844	0.666855	0.962094
	N245	N	0.589610	0.667790	0.036191
	N246	N	0.590930	0.309012	0.962196
	N247	N	0.418712	0.310941	0.035610
	N248	N	0.685295	0.953043	0.411150
	N249	N	0.682703	0.026177	0.585307
	N250	N	0.323335	0.953883	0.588570
	N251	N	0.325345	0.025306	0.413553
	N252	N	0.918808	0.452535	0.176444
	N253	N	0.089536	0.525706	0.177509
	N254	N	0.091440	0.453148	0.818574
	N255	N	0.919296	0.526325	0.822083
	N256	N	0.184864	0.901873	0.462995
	N257	N	0.183898	0.076525	0.535853
	N258	N	0.823740	0.077376	0.463067
	N259	N	0.824625	0.902633	0.535414
	N260	N	0.467983	0.167656	0.913141
	N261	N	0.539205	0.170564	0.087902
	N262	N	0.467578	0.810293	0.085668
	N263	N	0.539557	0.807115	0.910865
	N264	N	0.467763	0.903554	0.177853
	N265	N	0.539585	0.076854	0.179092
	N266	N	0.467034	0.073216	0.821427
	N267	N	0.540014	0.900260	0.818458
	N268	N	0.919230	0.166538	0.461483
	N269	N	0.090964	0.169487	0.534898
	N270	N	0.090638	0.810519	0.462119
	N271	N	0.919056	0.811378	0.536012
	N272	N	0.183845	0.452570	0.911760
	N273	N	0.184083	0.524580	0.086947
	N274	N	0.824745	0.452831	0.085937
	N275	N	0.823559	0.524174	0.911395
	O276	O	0.682463	0.505516	0.577316
	H277	H	0.677578	0.512432	0.585750
	H278	H	0.681224	0.502803	0.563695
	O279	O	0.398006	0.443941	0.444633
	H280	H	0.405818	0.451768	0.441483
	H281	H	0.411780	0.437296	0.449097
	O282	O	1.198256	0.156856	1.029946
	H283	H	1.189576	0.154550	1.060811
	H284	H	1.210946	0.171985	1.031534
	O285	O	0.480573	0.412499	0.352904
	H286	H	0.472733	0.407122	0.355136
	H287	H	0.482107	0.414295	0.350342
	O288	O	1.060371	0.866365	1.090874
	H289	H	1.052594	0.882567	1.086013
	H290	H	1.076686	0.866605	1.086516
	O291	O	-0.142749	0.805734	0.091267
	H292	H	-0.141141	0.796916	0.092842
	H293	H	-0.145767	0.794538	0.097169
	O294	O	0.331484	0.687986	0.426854
	H295	H	0.343898	0.695462	0.413967
	H296	H	0.315536	0.703609	0.434790
	O297	O	0.943555	1.093287	1.024375
	H298	H	0.938227	1.107803	1.028056
	H299	H	0.933816	1.103978	1.020361
	O300	O	0.534659	0.485355	0.424530
	H301	H	0.541003	0.489837	0.426084
	H302	H	0.543980	0.483460	0.420457
	O303	O	0.633998	0.422185	0.418788
	H304	H	0.647349	0.419544	0.435585
	H305	H	0.616280	0.422735	0.423951
	O306	O	0.604934	0.685164	0.425864
	H307	H	0.614900	0.710176	0.418737
	H308	H	0.588210	0.678545	0.443135
	O309	O	0.389938	0.464154	0.558188
	H310	H	0.376047	0.460052	0.557786
	H311	H	0.403496	0.457824	0.567381
	O312	O	-0.079045	0.093479	-0.110035
	H313	H	-0.072390	0.110538	-0.130250
	H314	H	-0.069087	0.076672	-0.109551
	O315	O	0.504170	0.618736	0.690449
	H316	H	0.499932	0.598944	0.687682
	H317	H	0.503598	0.627332	0.704134
	O318	O	-0.160944	1.142128	0.826528
	H319	H	-0.142836	1.162675	0.819355
	H320	H	-0.153638	1.132755	0.823390
	O321	O	0.594248	0.361823	0.385026
	H322	H	0.599571	0.366713	0.375737
	H323	H	0.580053	0.348535	0.390018
	O324	O	-0.615701	1.489970	-0.604843
	H325	H	-0.614530	1.502088	-0.605487
	H326	H	-0.621567	1.498603	-0.612738
	O327	O	0.348458	0.628269	0.372117
	H328	H	0.350073	0.621776	0.373407
	H329	H	0.340184	0.607490	0.374660
	O330	O	-0.097523	0.043369	0.943138
	H331	H	-0.104003	0.045158	0.950661
	H332	H	-0.103000	0.070554	0.940843
	O333	O	0.086582	0.141780	0.864272
	H334	H	0.096373	0.143313	0.898098
	H335	H	0.104899	0.124924	0.856598
	O336	O	0.644615	0.315572	0.414320
	H337	H	0.659179	0.316179	0.405453
	H338	H	0.633143	0.323436	0.405506
	O339	O	1.074456	-0.169984	-0.160082
	H340	H	1.072047	-0.164780	-0.169359
	H341	H	1.059444	-0.174666	-0.145577
	O342	O	-0.041316	-0.032019	0.053263
	H343	H	-0.052791	-0.025697	0.056952
	H344	H	-0.062757	-0.039123	0.049919
	O345	O	0.963045	-0.075235	1.122027
	H346	H	0.971066	-0.066419	1.130626
	H347	H	0.968194	-0.067235	1.110720
	O348	O	1.008076	1.034648	0.107137
	H349	H	1.000399	1.037699	0.112150
	H350	H	0.999459	1.026893	0.108133
	O351	O	0.536986	0.366833	0.468991
	H352	H	0.543989	0.356781	0.477662
	H353	H	0.532717	0.369285	0.454541
	O354	O	1.107507	0.064722	1.001406
	H355	H	1.108903	0.045628	1.000297
	H356	H	1.110758	0.059333	1.017594
	O357	O	-0.113314	-0.118962	0.910440
	H358	H	-0.116173	-0.108737	0.905591
	H359	H	-0.109694	-0.130938	0.906706
	O360	O	0.646175	0.472874	0.470663
	H361	H	0.638354	0.467661	0.478058
	H362	H	0.653127	0.477275	0.481844
	O363	O	0.176983	0.985908	1.010547
	H364	H	0.172909	1.001881	1.028420
	H365	H	0.184135	0.974651	1.002661
	O366	O	0.410012	0.605623	0.540258
	H367	H	0.412424	0.608584	0.537285
	H368	H	0.405503	0.604208	0.550076
	O369	O	-0.465470	0.608663	0.463585
	H370	H	-0.467080	0.606373	0.470596
	H371	H	-0.468877	0.598183	0.448160
	O372	O	0.400072	0.379110	0.589710
	H373	H	0.403924	0.388431	0.601299
	H374	H	0.406595	0.382313	0.596617
	O375	O	0.361342	0.321688	0.587140
	H376	H	0.341616	0.312091	0.583715
	H377	H	0.363755	0.334410	0.610204
	O378	O	0.814612	0.952047	0.139879
	H379	H	0.797762	0.942621	0.139448
	H380	H	0.810535	0.950862	0.133286
	O381	O	0.908932	-0.170201	-0.100491
	H382	H	0.914253	-0.173046	-0.098914
	H383	H	0.912709	-0.178644	-0.097343
	O384	O	1.083443	1.052233	-0.099990
	H385	H	1.085738	1.064358	-0.095624
	H386	H	1.082123	1.047510	-0.096168
	O387	O	-0.092483	0.015695	0.028795
	H388	H	-0.084632	0.017754	0.032306
	H389	H	-0.090081	0.017345	0.026678
	O390	O	0.189523	0.811497	0.016608
	H391	H	0.187527	0.825393	-0.001298
	H392	H	0.209220	0.791559	0.005770
	O393	O	0.812072	1.088278	1.016081
	H394	H	0.830646	1.098136	1.012931
	H395	H	0.801671	1.084908	1.013672
	O396	O	0.539802	0.615469	0.644957
	H397	H	0.536484	0.614256	0.650225
	H398	H	0.532613	0.613085	0.632363
	O399	O	-0.101879	1.119710	1.081249
	H400	H	-0.119443	1.117057	1.063175
	H401	H	-0.112766	1.108978	1.063942
	O402	O	0.566264	0.475666	0.646640
	H403	H	0.570308	0.472779	0.663206
	H404	H	0.561003	0.484389	0.626619
	O405	O	1.183966	1.131066	0.166705
	H406	H	1.181849	1.126334	0.188235
	H407	H	1.172384	1.128333	0.172704
	O408	O	1.165322	0.874761	-0.187902
	H409	H	1.165333	0.893167	-0.200164
	H410	H	1.136230	0.873698	-0.197775
	O411	O	1.134052	-0.114542	1.021819
	H412	H	1.141675	-0.112354	1.019531
	H413	H	1.146385	-0.133458	1.005963
	O414	O	0.350932	0.467150	0.539069
	H415	H	0.344627	0.485001	0.523607
	H416	H	0.334033	0.468214	0.542197
	O417	O	0.575861	0.567549	0.549550
	H418	H	0.571317	0.587427	0.544523
	H419	H	0.583000	0.551468	0.534399
