data_Molecule from HDF5

_cell_length_a		16.248288
_cell_length_b		16.372856
_cell_length_c		16.166178
_cell_angle_alpha	90.088938
_cell_angle_beta	89.929331
_cell_angle_gamma	89.700487
_symmetry_space_group_name_H-M	'P 1'
_symmetry_Int_Tables_number		1

loop_
	_symmetry_equiv_pos_as_xyz
	x,y,z

loop_
	_atom_site_label
	_atom_site_type_symbol
	_atom_site_fract_x
	_atom_site_fract_y
	_atom_site_fract_z
	H0	H	0.400070	0.843356	0.718271
	H1	H	0.593069	0.169759	0.718229
	H2	H	0.594560	0.842763	0.290000
	H3	H	0.398257	0.170159	0.289614
	H4	H	0.710603	0.408164	0.839367
	H5	H	0.708279	0.602013	0.169456
	H6	H	0.282477	0.603875	0.839224
	H7	H	0.286035	0.410124	0.169866
	H8	H	0.832912	0.722226	0.405896
	H9	H	0.160940	0.721206	0.605262
	H10	H	0.833364	0.291235	0.605220
	H11	H	0.159542	0.289108	0.404169
	H12	H	0.831560	0.412242	0.715461
	H13	H	0.161892	0.600694	0.716799
	H14	H	0.831994	0.603359	0.291909
	H15	H	0.161232	0.407709	0.291270
	H16	H	0.397912	0.720464	0.839690
	H17	H	0.595519	0.720387	0.167936
	H18	H	0.596725	0.291192	0.839664
	H19	H	0.398234	0.291865	0.167820
	H20	H	0.712639	0.843346	0.404025
	H21	H	0.710347	0.169678	0.602635
	H22	H	0.284072	0.842617	0.601828
	H23	H	0.280158	0.168930	0.404192
	H24	H	0.900142	0.342731	0.219109
	H25	H	0.092409	0.669375	0.218648
	H26	H	0.095788	0.342485	0.789556
	H27	H	0.898939	0.669460	0.792032
	H28	H	0.211472	0.907513	0.338898
	H29	H	0.209206	0.101991	0.669218
	H30	H	0.783656	0.103491	0.338837
	H31	H	0.783652	0.909841	0.669049
	H32	H	0.333298	0.223093	0.903781
	H33	H	0.660736	0.221550	0.102897
	H34	H	0.333632	0.791389	0.104654
	H35	H	0.659399	0.788881	0.902057
	H36	H	0.332378	0.911557	0.216351
	H37	H	0.662476	0.103174	0.216086
	H38	H	0.332039	0.103354	0.792107
	H39	H	0.661457	0.908817	0.790849
	H40	H	0.896471	0.221740	0.340210
	H41	H	0.095479	0.220204	0.668843
	H42	H	0.096784	0.790790	0.340104
	H43	H	0.898163	0.794108	0.668784
	H44	H	0.212564	0.342753	0.905861
	H45	H	0.210738	0.668825	0.104292
	H46	H	0.782285	0.341821	0.103543
	H47	H	0.781672	0.668856	0.907574
	H48	H	0.410866	0.118383	0.591093
	H49	H	0.591093	0.889258	0.601312
	H50	H	0.584376	0.120484	0.412645
	H51	H	0.407371	0.892232	0.411035
	H52	H	0.589664	0.410708	0.122306
	H53	H	0.593323	0.602242	0.884236
	H54	H	0.416449	0.590150	0.115091
	H55	H	0.416519	0.401909	0.886646
	H56	H	0.113359	0.600224	0.411608
	H57	H	0.883104	0.592303	0.597392
	H58	H	0.114111	0.414870	0.597444
	H59	H	0.879890	0.412720	0.413366
	H60	H	0.114419	0.409037	0.597435
	H61	H	0.876891	0.606046	0.606872
	H62	H	0.112907	0.599676	0.414216
	H63	H	0.879685	0.413972	0.413421
	H64	H	0.406691	0.616679	0.125559
	H65	H	0.590871	0.592023	0.887980
	H66	H	0.590264	0.413717	0.121470
	H67	H	0.389179	0.409200	0.880307
	H68	H	0.595611	0.122545	0.414450
	H69	H	0.586685	0.892108	0.594794
	H70	H	0.390629	0.124093	0.592978
	H71	H	0.401604	0.891039	0.412483
	H72	H	0.901354	0.621719	0.099892
	H73	H	0.085396	0.392951	0.093290
	H74	H	0.082651	0.617852	0.916053
	H75	H	0.909683	0.392168	0.914631
	H76	H	0.093794	0.906758	0.624523
	H77	H	0.092383	0.094751	0.386917
	H78	H	0.908978	0.107973	0.622773
	H79	H	0.897451	0.905849	0.382054
	H80	H	0.614290	0.107908	0.916187
	H81	H	0.380169	0.101939	0.097168
	H82	H	0.614933	0.907890	0.094865
	H83	H	0.382032	0.917320	0.914004
	H84	H	0.612405	0.913411	0.092871
	H85	H	0.381330	0.100892	0.094784
	H86	H	0.610495	0.091742	0.915023
	H87	H	0.378806	0.913722	0.908336
	H88	H	0.894082	0.099681	0.624258
	H89	H	0.083463	0.097561	0.388783
	H90	H	0.093837	0.919996	0.620215
	H91	H	0.901714	0.924313	0.388351
	H92	H	0.097451	0.622113	0.916103
	H93	H	0.100598	0.387451	0.094988
	H94	H	0.902180	0.620919	0.097976
	H95	H	0.895031	0.387840	0.913798
	H96	H	0.403526	0.124947	0.609514
	H97	H	0.594626	0.889760	0.593473
	H98	H	0.590569	0.124914	0.404141
	H99	H	0.403570	0.889234	0.406647
	H100	H	0.587536	0.412971	0.121304
	H101	H	0.582720	0.599610	0.887929
	H102	H	0.387723	0.593377	0.124098
	H103	H	0.407690	0.428784	0.891437
	H104	H	0.113833	0.597132	0.412250
	H105	H	0.880049	0.608309	0.589353
	H106	H	0.112356	0.411563	0.592890
	H107	H	0.880497	0.413176	0.412258
	H108	H	0.899983	0.621768	0.098182
	H109	H	0.090512	0.387387	0.107244
	H110	H	0.089009	0.624030	0.903281
	H111	H	0.903898	0.387260	0.901358
	H112	H	0.082619	0.912638	0.618803
	H113	H	0.090087	0.103191	0.384712
	H114	H	0.907642	0.091444	0.618003
	H115	H	0.916365	0.910039	0.388330
	H116	H	0.616843	0.099820	0.901668
	H117	H	0.380603	0.099256	0.096737
	H118	H	0.613972	0.913484	0.098764
	H119	H	0.380077	0.909017	0.914210
	C120	C	0.374351	0.014666	0.626173
	C121	C	0.618400	0.998410	0.625131
	C122	C	0.619012	0.014600	0.381390
	C123	C	0.374938	0.998263	0.381790
	C124	C	0.618450	0.384218	0.012918
	C125	C	0.617442	0.626474	0.995339
	C126	C	0.374900	0.628122	0.012739
	C127	C	0.375824	0.385113	0.995348
	C128	C	0.005008	0.627544	0.384042
	C129	C	0.988686	0.629025	0.626486
	C130	C	0.005037	0.384426	0.625113
	C131	C	0.988136	0.384374	0.383588
	C132	C	0.874146	0.513445	0.126613
	C133	C	0.119169	0.497502	0.126750
	C134	C	0.118625	0.513677	0.883179
	C135	C	0.874694	0.497345	0.882355
	C136	C	0.119095	0.884421	0.512637
	C137	C	0.117191	0.126452	0.495735
	C138	C	0.874636	0.128328	0.512786
	C139	C	0.876141	0.885398	0.495307
	C140	C	0.505247	0.127881	0.882793
	C141	C	0.488986	0.128479	0.125136
	C142	C	0.505297	0.884569	0.124577
	C143	C	0.488230	0.884611	0.882431
	C144	C	0.378509	0.891999	0.680742
	C145	C	0.613866	0.121067	0.680029
	C146	C	0.616215	0.891860	0.326762
	C147	C	0.377641	0.121401	0.327374
	C148	C	0.673273	0.387164	0.888571
	C149	C	0.671172	0.623146	0.119994
	C150	C	0.320033	0.624867	0.888627
	C151	C	0.322476	0.388873	0.120005
	C152	C	0.881640	0.683606	0.385762
	C153	C	0.112127	0.682943	0.624562
	C154	C	0.881916	0.329993	0.624202
	C155	C	0.111022	0.327679	0.384388
	C156	C	0.881068	0.389842	0.679169
	C157	C	0.112543	0.623666	0.680613
	C158	C	0.881086	0.624589	0.329404
	C159	C	0.112050	0.387083	0.328799
	C160	C	0.377000	0.682844	0.888772
	C161	C	0.615348	0.681977	0.119148
	C162	C	0.616521	0.329504	0.888681
	C163	C	0.378239	0.330029	0.119000
	C164	C	0.674635	0.892106	0.383557
	C165	C	0.672476	0.121004	0.622840
	C166	C	0.320885	0.891670	0.622874
	C167	C	0.318800	0.120643	0.383975
	C168	C	0.878439	0.391174	0.181434
	C169	C	0.114099	0.620679	0.180977
	C170	C	0.116299	0.390997	0.827674
	C171	C	0.877858	0.620390	0.828998
	C172	C	0.173748	0.886916	0.388122
	C173	C	0.171984	0.123383	0.619959
	C174	C	0.820520	0.125081	0.388448
	C175	C	0.821069	0.888829	0.619600
	C176	C	0.381948	0.184118	0.884404
	C177	C	0.612264	0.183070	0.122867
	C178	C	0.382014	0.830111	0.123457
	C179	C	0.611095	0.827848	0.882720
	C180	C	0.381498	0.889575	0.179054
	C181	C	0.613010	0.124537	0.179352
	C182	C	0.381133	0.124545	0.829070
	C183	C	0.612144	0.887670	0.827711
	C184	C	0.877011	0.183441	0.389183
	C185	C	0.115467	0.181830	0.619758
	C186	C	0.116743	0.829139	0.388700
	C187	C	0.878246	0.831508	0.619651
	C188	C	0.174336	0.391116	0.885501
	C189	C	0.173008	0.620231	0.124313
	C190	C	0.820202	0.390657	0.123970
	C191	C	0.819779	0.620066	0.886400
	C192	C	0.395330	0.100348	0.604283
	C193	C	0.597097	0.912504	0.602947
	C194	C	0.596816	0.100488	0.403835
	C195	C	0.397414	0.912944	0.403694
	C196	C	0.595893	0.406229	0.099395
	C197	C	0.595548	0.604450	0.909001
	C198	C	0.397070	0.606606	0.099232
	C199	C	0.397953	0.406808	0.908318
	C200	C	0.090843	0.605516	0.406214
	C201	C	0.902367	0.608394	0.604466
	C202	C	0.091342	0.405527	0.602476
	C203	C	0.902297	0.406765	0.406359
	C204	C	0.894867	0.599255	0.104865
	C205	C	0.098256	0.411536	0.104988
	C206	C	0.096282	0.599183	0.905364
	C207	C	0.896496	0.411248	0.903579
	C208	C	0.096844	0.906616	0.598954
	C209	C	0.095137	0.104818	0.409115
	C210	C	0.896883	0.106217	0.599410
	C211	C	0.898518	0.906902	0.408652
	C212	C	0.591563	0.106132	0.904441
	C213	C	0.402843	0.106988	0.102950
	C214	C	0.591447	0.905311	0.102000
	C215	C	0.402454	0.906917	0.905366
	Zn216	Zn	0.496465	0.006181	0.754321
	Zn217	Zn	0.496981	0.006917	0.253061
	Zn218	Zn	0.745863	0.505009	0.004611
	Zn219	Zn	0.247683	0.506009	0.004668
	Zn220	Zn	-0.002848	0.757129	0.504588
	Zn221	Zn	-0.003499	0.255594	0.504553
	Zn222	Zn	-0.003135	0.506028	0.753555
	Zn223	Zn	-0.003178	0.505672	0.255461
	Zn224	Zn	0.496660	0.755477	0.003665
	Zn225	Zn	0.496863	0.256624	0.003721
	Zn226	Zn	0.747452	0.006322	0.503502
	Zn227	Zn	0.246243	0.005779	0.503704
	N228	N	0.410966	0.969216	0.682780
	N229	N	0.581152	0.043703	0.681536
	N230	N	0.582422	0.969074	0.325323
	N231	N	0.411524	0.044276	0.325414
	N232	N	0.674629	0.420327	0.966750
	N233	N	0.672694	0.589281	0.042188
	N234	N	0.318760	0.591502	0.966683
	N235	N	0.320911	0.422260	0.042051
	N236	N	0.959585	0.685537	0.418961
	N237	N	0.034033	0.686690	0.592074
	N238	N	0.960041	0.326611	0.591385
	N239	N	0.033152	0.325911	0.417761
	N240	N	0.958721	0.423123	0.679837
	N241	N	0.034873	0.590694	0.681742
	N242	N	0.958626	0.590594	0.327867
	N243	N	0.034580	0.421479	0.328135
	N244	N	0.410226	0.685154	0.966943
	N245	N	0.582500	0.684054	0.040874
	N246	N	0.583138	0.327435	0.966893
	N247	N	0.410750	0.327769	0.040359
	N248	N	0.676554	0.969610	0.416793
	N249	N	0.675381	0.043693	0.589358
	N250	N	0.318152	0.969077	0.589670
	N251	N	0.317034	0.043233	0.417067
	N252	N	0.911321	0.468418	0.183261
	N253	N	0.081495	0.543380	0.182688
	N254	N	0.082148	0.468190	0.826161
	N255	N	0.911437	0.543060	0.826572
	N256	N	0.175303	0.920414	0.466043
	N257	N	0.173067	0.089714	0.541963
	N258	N	0.819213	0.091451	0.466181
	N259	N	0.819767	0.921755	0.541410
	N260	N	0.460123	0.186188	0.917060
	N261	N	0.534269	0.185704	0.089940
	N262	N	0.459997	0.826781	0.090305
	N263	N	0.533329	0.825978	0.916334
	N264	N	0.459035	0.922590	0.180123
	N265	N	0.535312	0.091170	0.180623
	N266	N	0.458750	0.090663	0.827531
	N267	N	0.534832	0.922374	0.827495
	N268	N	0.909877	0.185565	0.467696
	N269	N	0.081997	0.183735	0.541542
	N270	N	0.083275	0.827417	0.466959
	N271	N	0.911584	0.829094	0.541455
	N272	N	0.175949	0.468311	0.918989
	N273	N	0.176235	0.542581	0.091516
	N274	N	0.817592	0.467830	0.090571
	N275	N	0.817794	0.542516	0.918917
	O276	O	0.002817	-0.052968	0.999263
	H277	H	0.009174	-0.062591	0.998301
	H278	H	-0.003512	-0.047220	1.002539
	O279	O	0.518060	0.530963	0.488198
	H280	H	0.522884	0.525417	0.492551
	H281	H	0.514587	0.524318	0.471921
	O282	O	1.043369	-0.043385	-0.034640
	H283	H	1.040979	-0.047475	-0.035011
	H284	H	1.044448	-0.042980	-0.039630
	O285	O	0.488731	0.497520	0.373628
	H286	H	0.489377	0.505133	0.384611
	H287	H	0.489175	0.497887	0.366220
	O288	O	0.504397	0.532978	0.445475
	H289	H	0.502789	0.538116	0.449200
	H290	H	0.515735	0.539455	0.467428
	O291	O	0.060795	0.948406	0.990411
	H292	H	0.063926	0.950143	0.989787
	H293	H	0.065924	0.946628	0.983277
	O294	O	0.501973	0.498365	0.413235
	H295	H	0.501170	0.504392	0.396715
	H296	H	0.495367	0.484981	0.400043
	O297	O	1.033931	-0.028969	-0.007704
	H298	H	1.045415	-0.026183	-0.003684
	H299	H	1.023393	-0.031852	-0.005528
