data_Molecule from HDF5

_cell_length_a		16.138093
_cell_length_b		16.248229
_cell_length_c		16.217914
_cell_angle_alpha	90.532452
_cell_angle_beta	89.485616
_cell_angle_gamma	90.279434
_symmetry_space_group_name_H-M	'P 1'
_symmetry_Int_Tables_number		1

loop_
	_symmetry_equiv_pos_as_xyz
	x,y,z

loop_
	_atom_site_label
	_atom_site_type_symbol
	_atom_site_fract_x
	_atom_site_fract_y
	_atom_site_fract_z
	H0	H	0.404614	0.845383	0.708302
	H1	H	0.605161	0.172461	0.708899
	H2	H	0.608079	0.845257	0.275720
	H3	H	0.411169	0.173099	0.283730
	H4	H	0.719208	0.411100	0.829927
	H5	H	0.717134	0.608076	0.159736
	H6	H	0.294213	0.605119	0.829164
	H7	H	0.288862	0.411843	0.158610
	H8	H	0.841094	0.722073	0.398503
	H9	H	0.171373	0.724534	0.592811
	H10	H	0.841371	0.296647	0.591929
	H11	H	0.171920	0.298325	0.392863
	H12	H	0.841382	0.411734	0.707177
	H13	H	0.171605	0.608223	0.706089
	H14	H	0.838790	0.603445	0.285561
	H15	H	0.169735	0.410237	0.276997
	H16	H	0.407457	0.722600	0.830470
	H17	H	0.604551	0.726498	0.158333
	H18	H	0.606337	0.293290	0.830623
	H19	H	0.404409	0.295638	0.159450
	H20	H	0.721298	0.843880	0.394288
	H21	H	0.718368	0.174162	0.591115
	H22	H	0.289944	0.845283	0.592941
	H23	H	0.296661	0.173479	0.399703
	H24	H	0.904411	0.344623	0.207485
	H25	H	0.104661	0.671690	0.210209
	H26	H	0.105939	0.345245	0.776745
	H27	H	0.909004	0.673566	0.782382
	H28	H	0.221786	0.910016	0.329959
	H29	H	0.218075	0.109170	0.659361
	H30	H	0.795870	0.104213	0.329310
	H31	H	0.790639	0.912524	0.658638
	H32	H	0.340906	0.219587	0.899187
	H33	H	0.671061	0.225108	0.092011
	H34	H	0.341907	0.794894	0.096006
	H35	H	0.671115	0.795754	0.892993
	H36	H	0.342291	0.911418	0.209290
	H37	H	0.672606	0.108677	0.204823
	H38	H	0.341219	0.105432	0.783051
	H39	H	0.670609	0.909992	0.777547
	H40	H	0.911100	0.220204	0.328330
	H41	H	0.104597	0.226679	0.657244
	H42	H	0.108760	0.791438	0.331681
	H43	H	0.904254	0.795466	0.658923
	H44	H	0.219680	0.344678	0.893062
	H45	H	0.218104	0.673246	0.092503
	H46	H	0.790740	0.344273	0.091088
	H47	H	0.795318	0.673948	0.900714
	H48	H	0.412306	0.128573	0.594920
	H49	H	0.598635	0.891888	0.584415
	H50	H	0.592326	0.122105	0.404291
	H51	H	0.408590	0.891300	0.404601
	H52	H	0.593047	0.411488	0.112988
	H53	H	0.605564	0.613313	0.872129
	H54	H	0.410297	0.602940	0.111327
	H55	H	0.416730	0.413197	0.878650
	H56	H	0.123176	0.604240	0.404977
	H57	H	0.884941	0.601820	0.599754
	H58	H	0.125537	0.419778	0.588498
	H59	H	0.885420	0.407818	0.401759
	H60	H	0.126743	0.412182	0.586517
	H61	H	0.887536	0.609870	0.584000
	H62	H	0.121792	0.595900	0.402299
	H63	H	0.888419	0.415335	0.404996
	H64	H	0.413412	0.602282	0.111177
	H65	H	0.608611	0.593419	0.877158
	H66	H	0.603476	0.416693	0.114425
	H67	H	0.412797	0.409149	0.875398
	H68	H	0.612744	0.126603	0.407761
	H69	H	0.600197	0.890455	0.586007
	H70	H	0.419068	0.124836	0.589451
	H71	H	0.413355	0.888699	0.392376
	H72	H	0.914512	0.623359	0.082875
	H73	H	0.097953	0.391654	0.081248
	H74	H	0.101908	0.628360	0.895334
	H75	H	0.907935	0.389778	0.898003
	H76	H	0.091146	0.916569	0.610003
	H77	H	0.097241	0.111878	0.374814
	H78	H	0.905687	0.108526	0.614526
	H79	H	0.908970	0.924495	0.377744
	H80	H	0.621802	0.101796	0.910148
	H81	H	0.389665	0.101458	0.084368
	H82	H	0.625972	0.921756	0.093246
	H83	H	0.384697	0.911712	0.892980
	H84	H	0.627432	0.907621	0.081813
	H85	H	0.387981	0.097757	0.095387
	H86	H	0.623682	0.094411	0.895106
	H87	H	0.388139	0.908415	0.909806
	H88	H	0.913039	0.097953	0.609562
	H89	H	0.114281	0.104028	0.371971
	H90	H	0.102458	0.912158	0.615029
	H91	H	0.928480	0.914126	0.380859
	H92	H	0.094349	0.624224	0.902139
	H93	H	0.100384	0.388683	0.087916
	H94	H	0.902891	0.629597	0.092153
	H95	H	0.914867	0.391398	0.894967
	H96	H	0.410114	0.126391	0.585832
	H97	H	0.597495	0.891192	0.586843
	H98	H	0.604547	0.130127	0.387759
	H99	H	0.421655	0.893517	0.402691
	H100	H	0.594836	0.422681	0.110090
	H101	H	0.589881	0.602183	0.880325
	H102	H	0.411882	0.604558	0.111767
	H103	H	0.410987	0.415855	0.877199
	H104	H	0.125469	0.601894	0.395372
	H105	H	0.891586	0.593419	0.585292
	H106	H	0.123504	0.418335	0.581058
	H107	H	0.886397	0.414668	0.396520
	H108	H	0.917579	0.626533	0.099340
	H109	H	0.093128	0.391848	0.087222
	H110	H	0.104586	0.626171	0.905245
	H111	H	0.913900	0.392974	0.902741
	H112	H	0.100661	0.924412	0.611680
	H113	H	0.099505	0.093564	0.379890
	H114	H	0.918864	0.109195	0.612009
	H115	H	0.910434	0.902935	0.372773
	H116	H	0.628407	0.110576	0.896900
	H117	H	0.385366	0.108765	0.093237
	H118	H	0.621255	0.923155	0.077311
	H119	H	0.390469	0.924560	0.902810
	C120	C	0.384098	0.018057	0.617078
	C121	C	0.627437	1.000061	0.614735
	C122	C	0.630727	0.017360	0.370923
	C123	C	0.386899	1.000055	0.373391
	C124	C	0.626878	0.387724	0.003684
	C125	C	0.628553	0.631919	0.985679
	C126	C	0.384211	0.630787	0.002947
	C127	C	0.383786	0.385792	0.985681
	C128	C	0.013955	0.629067	0.373687
	C129	C	0.997320	0.631240	0.616990
	C130	C	0.015782	0.388410	0.614486
	C131	C	0.996589	0.386217	0.371637
	C132	C	0.882610	0.517743	0.117620
	C133	C	0.126097	0.499493	0.114832
	C134	C	0.128403	0.517659	0.871344
	C135	C	0.884953	0.500368	0.872495
	C136	C	0.127810	0.888062	0.503351
	C137	C	0.130076	0.132279	0.484937
	C138	C	0.885644	0.131315	0.502697
	C139	C	0.884993	0.886537	0.485405
	C140	C	0.515214	0.129577	0.873373
	C141	C	0.497491	0.131914	0.117559
	C142	C	0.515697	0.888780	0.114416
	C143	C	0.496918	0.886696	0.871822
	C144	C	0.385160	0.894394	0.670956
	C145	C	0.625292	0.123677	0.670744
	C146	C	0.628644	0.894186	0.313983
	C147	C	0.390586	0.124041	0.320663
	C148	C	0.682343	0.389990	0.879666
	C149	C	0.680965	0.629059	0.110113
	C150	C	0.331221	0.626032	0.878655
	C151	C	0.327457	0.390463	0.109759
	C152	C	0.889937	0.684198	0.377624
	C153	C	0.121750	0.686970	0.613674
	C154	C	0.891058	0.333810	0.612316
	C155	C	0.121868	0.334228	0.372909
	C156	C	0.890975	0.391016	0.669680
	C157	C	0.122075	0.629222	0.669866
	C158	C	0.888942	0.625169	0.321491
	C159	C	0.120670	0.389855	0.315085
	C160	C	0.387429	0.684713	0.879245
	C161	C	0.624943	0.688124	0.109407
	C162	C	0.625609	0.331834	0.879785
	C163	C	0.384821	0.332676	0.110055
	C164	C	0.684804	0.893338	0.372884
	C165	C	0.681875	0.124317	0.612193
	C166	C	0.327898	0.894583	0.613705
	C167	C	0.333517	0.124211	0.378172
	C168	C	0.884397	0.393648	0.170454
	C169	C	0.124630	0.622959	0.171519
	C170	C	0.126064	0.394353	0.814973
	C171	C	0.888612	0.624401	0.819714
	C172	C	0.183885	0.889696	0.379404
	C173	C	0.182212	0.130068	0.609272
	C174	C	0.832816	0.125807	0.378414
	C175	C	0.828527	0.891012	0.609765
	C176	C	0.390438	0.182930	0.877791
	C177	C	0.621877	0.187350	0.113096
	C178	C	0.391198	0.833104	0.114872
	C179	C	0.621607	0.832723	0.873109
	C180	C	0.391338	0.890820	0.171234
	C181	C	0.622554	0.129454	0.169271
	C182	C	0.390531	0.125797	0.820507
	C183	C	0.621324	0.889467	0.815740
	C184	C	0.890283	0.183338	0.377981
	C185	C	0.125751	0.188457	0.608430
	C186	C	0.127792	0.830585	0.380266
	C187	C	0.885150	0.832854	0.609921
	C188	C	0.182478	0.393898	0.872933
	C189	C	0.181118	0.623652	0.113044
	C190	C	0.827958	0.393628	0.112693
	C191	C	0.832093	0.624699	0.878379
	C192	C	0.407004	0.104384	0.596181
	C193	C	0.605290	0.913475	0.592431
	C194	C	0.609426	0.103658	0.393325
	C195	C	0.408113	0.913562	0.393928
	C196	C	0.603869	0.410288	0.090227
	C197	C	0.607688	0.609596	0.899026
	C198	C	0.405544	0.609551	0.089074
	C199	C	0.406600	0.406498	0.899210
	C200	C	0.101083	0.607178	0.394681
	C201	C	0.910495	0.608607	0.595704
	C202	C	0.102806	0.410439	0.592066
	C203	C	0.909304	0.406611	0.394450
	C204	C	0.905011	0.604166	0.097454
	C205	C	0.103593	0.413050	0.091891
	C206	C	0.106766	0.604084	0.894316
	C207	C	0.905971	0.413698	0.892522
	C208	C	0.104762	0.910905	0.589755
	C209	C	0.109669	0.109692	0.397810
	C210	C	0.906274	0.111204	0.589402
	C211	C	0.908816	0.907496	0.399551
	C212	C	0.602321	0.108547	0.894502
	C213	C	0.410196	0.109462	0.097112
	C214	C	0.602222	0.910901	0.090962
	C215	C	0.410260	0.908391	0.894985
	Zn216	Zn	0.506331	0.008413	0.744531
	Zn217	Zn	0.507400	0.009125	0.243616
	Zn218	Zn	0.755925	0.508863	-0.005263
	Zn219	Zn	0.255695	0.508532	-0.006226
	Zn220	Zn	0.006109	0.758261	0.495526
	Zn221	Zn	0.007623	0.259804	0.492724
	Zn222	Zn	0.006498	0.509316	0.743357
	Zn223	Zn	0.004780	0.508016	0.244592
	Zn224	Zn	0.505902	0.759722	-0.006173
	Zn225	Zn	0.505820	0.258067	-0.004880
	Zn226	Zn	0.757435	0.008345	0.493963
	Zn227	Zn	0.257234	0.009320	0.494416
	N228	N	0.419364	0.972282	0.673449
	N229	N	0.592228	0.045435	0.672388
	N230	N	0.595724	0.972089	0.312707
	N231	N	0.423287	0.045751	0.317650
	N232	N	0.682932	0.424273	0.957551
	N233	N	0.683555	0.594868	0.032150
	N234	N	0.328861	0.593309	0.956595
	N235	N	0.326666	0.422880	0.031635
	N236	N	0.968671	0.686542	0.409419
	N237	N	0.043079	0.688200	0.581471
	N238	N	0.969579	0.332061	0.578780
	N239	N	0.043759	0.331889	0.407343
	N240	N	0.969650	0.424314	0.671274
	N241	N	0.043798	0.595279	0.672065
	N242	N	0.967267	0.591851	0.318732
	N243	N	0.041686	0.421510	0.314088
	N244	N	0.419602	0.687922	0.957424
	N245	N	0.593059	0.689988	0.030963
	N246	N	0.591742	0.330253	0.958065
	N247	N	0.419075	0.329603	0.032060
	N248	N	0.686219	0.970894	0.407748
	N249	N	0.683298	0.046322	0.578099
	N250	N	0.327024	0.972494	0.581067
	N251	N	0.330980	0.046207	0.410020
	N252	N	0.917512	0.471836	0.173830
	N253	N	0.091004	0.544896	0.172747
	N254	N	0.093085	0.472359	0.813687
	N255	N	0.920917	0.546128	0.816098
	N256	N	0.183648	0.925058	0.456830
	N257	N	0.185168	0.095911	0.531169
	N258	N	0.829880	0.093712	0.456766
	N259	N	0.828199	0.923590	0.531550
	N260	N	0.468902	0.185242	0.910209
	N261	N	0.542960	0.189040	0.081680
	N262	N	0.469354	0.831775	0.080051
	N263	N	0.543211	0.830659	0.907367
	N264	N	0.469537	0.924931	0.171097
	N265	N	0.544066	0.095820	0.172264
	N266	N	0.469111	0.093370	0.817495
	N267	N	0.542917	0.922178	0.814609
	N268	N	0.922259	0.187006	0.456373
	N269	N	0.094281	0.189829	0.529987
	N270	N	0.093590	0.829467	0.458430
	N271	N	0.919424	0.829748	0.531920
	N272	N	0.184122	0.471608	0.907214
	N273	N	0.182128	0.545867	0.078646
	N274	N	0.826477	0.471696	0.080668
	N275	N	0.829594	0.546591	0.910414
	O276	O	0.029118	-0.056911	0.019942
	H277	H	0.014179	-0.063841	0.006258
	H278	H	0.030799	-0.059838	0.026552
	O279	O	0.554285	0.460803	0.503361
	H280	H	0.549922	0.454303	0.508672
	H281	H	0.547575	0.462121	0.502717
	O282	O	0.557370	0.561587	0.481847
	H283	H	0.561751	0.561491	0.481424
	H284	H	0.561143	0.562991	0.478290
	O285	O	0.952887	-0.004341	0.925685
	H286	H	0.953068	0.004177	0.924945
	H287	H	0.954481	0.000839	0.923807
	O288	O	1.052868	-0.010882	-0.016252
	H289	H	1.054462	-0.008628	-0.012341
	H290	H	1.069120	-0.011341	-0.023647
	O291	O	0.490525	0.474759	0.501885
	H292	H	0.493808	0.457615	0.489526
	H293	H	0.488065	0.473233	0.509852
	O294	O	1.041256	-0.009389	0.961773
	H295	H	1.036416	-0.009295	0.959768
	H296	H	1.047797	-0.006886	0.953681
	O297	O	-0.021344	0.074346	0.004738
	H298	H	-0.017964	0.074757	0.003678
	H299	H	-0.021173	0.073463	0.019488
	O300	O	0.618974	0.528471	0.489632
	H301	H	0.625953	0.524823	0.491704
	H302	H	0.619668	0.529886	0.490160
	O303	O	0.532413	0.502725	0.451519
	H304	H	0.530498	0.503952	0.454243
	H305	H	0.532284	0.505873	0.456789
	O306	O	1.012278	0.018212	-0.020833
	H307	H	1.011903	0.011641	-0.016194
	H308	H	1.007589	0.016356	-0.020583
	O309	O	-0.069014	-0.072128	0.977139
	H310	H	-0.059293	-0.066462	0.968758
	H311	H	-0.061212	-0.067933	0.981550
	O312	O	0.956410	0.969388	1.078318
	H313	H	0.947828	0.966692	1.072742
	H314	H	0.953418	0.965696	1.078867
	O315	O	0.485983	0.493991	0.474887
	H316	H	0.496722	0.497240	0.477290
	H317	H	0.487277	0.493684	0.473258
	O318	O	0.471281	0.518858	0.496007
	H319	H	0.469823	0.520486	0.499886
	H320	H	0.468382	0.521922	0.499761
	O321	O	-0.025103	0.970888	1.093430
	H322	H	-0.040084	0.961171	1.099913
	H323	H	-0.022186	0.959435	1.086958
	O324	O	0.466519	0.467090	0.453368
	H325	H	0.470100	0.465429	0.462135
	H326	H	0.460377	0.472246	0.454879
	O327	O	0.107270	0.157346	0.879011
	H328	H	0.105078	0.158684	0.887736
	H329	H	0.100814	0.160369	0.880722
	O330	O	0.467992	0.513699	0.534622
	H331	H	0.472356	0.522186	0.531921
	H332	H	0.465751	0.509164	0.535860
	O333	O	0.516379	0.517382	0.585000
	H334	H	0.513170	0.513982	0.589804
	H335	H	0.513533	0.531931	0.575464
	O336	O	0.539255	0.497672	0.460362
	H337	H	0.548440	0.494670	0.451118
	H338	H	0.540279	0.503015	0.458659
	O339	O	1.048598	0.941438	-0.043557
	H340	H	1.054229	0.942657	-0.046060
	H341	H	1.040691	0.936481	-0.043639
	O342	O	0.515344	0.472196	0.492757
	H343	H	0.516017	0.473907	0.491270
	H344	H	0.505119	0.470503	0.498990
	O345	O	0.422408	0.502719	0.570910
	H346	H	0.423156	0.496252	0.577545
	H347	H	0.419409	0.514207	0.570833
	O348	O	0.089530	-0.029811	-0.002000
	H349	H	0.085038	-0.032267	-0.006449
	H350	H	0.082471	-0.029166	0.005262
	O351	O	0.007575	1.010261	0.958854
	H352	H	0.002142	1.009007	0.964787
	H353	H	0.002878	1.010782	0.949933
	O354	O	0.537045	0.485594	0.488640
	H355	H	0.534270	0.483755	0.475967
	H356	H	0.550964	0.474391	0.484594
	O357	O	0.035791	1.004738	1.027536
	H358	H	0.053365	1.003948	1.032075
	H359	H	0.029463	1.010695	1.042302
