data_Molecule from HDF5

_cell_length_a		16.172872
_cell_length_b		16.322159
_cell_length_c		16.164140
_cell_angle_alpha	91.133812
_cell_angle_beta	88.903832
_cell_angle_gamma	89.294294
_symmetry_space_group_name_H-M	'P 1'
_symmetry_Int_Tables_number		1

loop_
	_symmetry_equiv_pos_as_xyz
	x,y,z

loop_
	_atom_site_label
	_atom_site_type_symbol
	_atom_site_fract_x
	_atom_site_fract_y
	_atom_site_fract_z
	H0	H	0.393461	0.838152	0.714807
	H1	H	0.589447	0.164433	0.722508
	H2	H	0.598305	0.839616	0.280333
	H3	H	0.392327	0.165960	0.293489
	H4	H	0.714961	0.397246	0.837392
	H5	H	0.702673	0.601556	0.166761
	H6	H	0.287140	0.597009	0.834199
	H7	H	0.276078	0.405930	0.163369
	H8	H	0.831705	0.719150	0.405867
	H9	H	0.157974	0.720510	0.602185
	H10	H	0.829284	0.294022	0.601041
	H11	H	0.157856	0.280936	0.392319
	H12	H	0.830332	0.410588	0.716302
	H13	H	0.160580	0.602079	0.711701
	H14	H	0.830016	0.600423	0.294157
	H15	H	0.158331	0.398445	0.279373
	H16	H	0.393950	0.716312	0.837739
	H17	H	0.592948	0.721454	0.164292
	H18	H	0.601643	0.279220	0.838990
	H19	H	0.393187	0.294978	0.166664
	H20	H	0.714079	0.840315	0.396755
	H21	H	0.705669	0.166505	0.604542
	H22	H	0.277597	0.839552	0.599455
	H23	H	0.278437	0.165296	0.410146
	H24	H	0.895774	0.339266	0.214599
	H25	H	0.092011	0.665958	0.218597
	H26	H	0.099461	0.341037	0.777326
	H27	H	0.896635	0.667886	0.792960
	H28	H	0.213793	0.899191	0.338174
	H29	H	0.198409	0.102742	0.667620
	H30	H	0.780910	0.099998	0.337003
	H31	H	0.777056	0.908226	0.664478
	H32	H	0.330909	0.219583	0.906883
	H33	H	0.658373	0.216914	0.103824
	H34	H	0.329563	0.789976	0.103198
	H35	H	0.657901	0.781615	0.894837
	H36	H	0.329321	0.907135	0.217954
	H37	H	0.659310	0.098162	0.213616
	H38	H	0.327225	0.098178	0.797216
	H39	H	0.657892	0.898009	0.779951
	H40	H	0.892714	0.216576	0.336101
	H41	H	0.089627	0.222782	0.663221
	H42	H	0.100923	0.783017	0.338029
	H43	H	0.891904	0.794252	0.665802
	H44	H	0.215411	0.339662	0.893360
	H45	H	0.207264	0.666510	0.099406
	H46	H	0.781501	0.339493	0.099485
	H47	H	0.777776	0.664491	0.905284
	H48	H	0.398689	0.116164	0.595992
	H49	H	0.595090	0.884399	0.593777
	H50	H	0.583065	0.118926	0.407795
	H51	H	0.410673	0.890027	0.415222
	H52	H	0.591887	0.411834	0.120736
	H53	H	0.590647	0.586749	0.884231
	H54	H	0.397599	0.588431	0.115515
	H55	H	0.398216	0.412936	0.881615
	H56	H	0.112727	0.587604	0.404355
	H57	H	0.878193	0.603280	0.595392
	H58	H	0.111466	0.408284	0.580609
	H59	H	0.873046	0.409267	0.397321
	H60	H	0.110085	0.416538	0.587159
	H61	H	0.878666	0.597000	0.597009
	H62	H	0.114900	0.597076	0.406351
	H63	H	0.876023	0.400093	0.416639
	H64	H	0.409734	0.599982	0.116243
	H65	H	0.584662	0.589645	0.885068
	H66	H	0.583231	0.413521	0.117433
	H67	H	0.420209	0.410387	0.888560
	H68	H	0.587427	0.117771	0.413199
	H69	H	0.576288	0.888719	0.593393
	H70	H	0.389031	0.121226	0.602081
	H71	H	0.395571	0.883597	0.410992
	H72	H	0.895398	0.620555	0.099652
	H73	H	0.086847	0.388354	0.084187
	H74	H	0.094816	0.621238	0.905064
	H75	H	0.907545	0.389088	0.911479
	H76	H	0.094984	0.929720	0.618311
	H77	H	0.087037	0.084850	0.385620
	H78	H	0.898692	0.099264	0.617756
	H79	H	0.905260	0.912093	0.384601
	H80	H	0.609636	0.094999	0.918123
	H81	H	0.377139	0.097703	0.098430
	H82	H	0.613681	0.910692	0.097731
	H83	H	0.376247	0.907399	0.913625
	H84	H	0.612367	0.900832	0.084245
	H85	H	0.375017	0.100086	0.102350
	H86	H	0.608050	0.079319	0.910253
	H87	H	0.377480	0.908460	0.909660
	H88	H	0.900044	0.102018	0.617533
	H89	H	0.084054	0.095084	0.383385
	H90	H	0.063634	0.910801	0.613206
	H91	H	0.910046	0.906961	0.383283
	H92	H	0.087897	0.619611	0.905017
	H93	H	0.091148	0.385965	0.088283
	H94	H	0.901454	0.618936	0.100920
	H95	H	0.903117	0.384484	0.904324
	H96	H	0.399030	0.119885	0.607119
	H97	H	0.587136	0.890620	0.577216
	H98	H	0.590594	0.119838	0.407349
	H99	H	0.408467	0.884601	0.399505
	H100	H	0.585784	0.405238	0.120240
	H101	H	0.590349	0.592877	0.882506
	H102	H	0.394001	0.603275	0.121261
	H103	H	0.408127	0.393218	0.879636
	H104	H	0.111497	0.591356	0.413879
	H105	H	0.875832	0.601648	0.601394
	H106	H	0.113558	0.407051	0.590528
	H107	H	0.881782	0.420403	0.413671
	H108	H	0.899707	0.618269	0.094888
	H109	H	0.085567	0.387212	0.090730
	H110	H	0.091298	0.619160	0.910810
	H111	H	0.912425	0.387294	0.902624
	H112	H	0.093341	0.894412	0.626716
	H113	H	0.093783	0.091869	0.381056
	H114	H	0.899031	0.101009	0.618586
	H115	H	0.903960	0.905599	0.381543
	H116	H	0.614413	0.093180	0.902107
	H117	H	0.376169	0.102941	0.097894
	H118	H	0.607095	0.916043	0.084005
	H119	H	0.374921	0.904614	0.910529
	C120	C	0.368493	0.010792	0.627144
	C121	C	0.613992	0.994963	0.621461
	C122	C	0.617683	0.011293	0.377936
	C123	C	0.373723	0.993580	0.382331
	C124	C	0.618929	0.378162	0.011057
	C125	C	0.615624	0.621615	0.992570
	C126	C	0.373425	0.623612	0.008866
	C127	C	0.375709	0.380150	0.991921
	C128	C	0.004363	0.622440	0.381607
	C129	C	0.986322	0.628032	0.624759
	C130	C	0.003047	0.384134	0.618530
	C131	C	0.985285	0.378457	0.376398
	C132	C	0.871298	0.511086	0.124996
	C133	C	0.115567	0.494976	0.119305
	C134	C	0.120859	0.512258	0.875071
	C135	C	0.876471	0.494584	0.880344
	C136	C	0.116477	0.880598	0.510952
	C137	C	0.114182	0.122716	0.492049
	C138	C	0.871550	0.126748	0.509234
	C139	C	0.874464	0.882311	0.491967
	C140	C	0.502252	0.120020	0.883733
	C141	C	0.485118	0.126431	0.126988
	C142	C	0.502426	0.881807	0.120609
	C143	C	0.484856	0.876948	0.878401
	C144	C	0.372453	0.887384	0.678704
	C145	C	0.610140	0.116520	0.682021
	C146	C	0.617847	0.888858	0.319069
	C147	C	0.373357	0.116724	0.330024
	C148	C	0.676761	0.377472	0.887167
	C149	C	0.667387	0.621628	0.116821
	C150	C	0.321995	0.618578	0.884346
	C151	C	0.315803	0.385705	0.114975
	C152	C	0.880724	0.680290	0.385012
	C153	C	0.109483	0.682350	0.621592
	C154	C	0.879059	0.331003	0.619913
	C155	C	0.108501	0.319754	0.373845
	C156	C	0.879447	0.388868	0.677505
	C157	C	0.110755	0.623366	0.676244
	C158	C	0.879597	0.620939	0.329865
	C159	C	0.109038	0.378478	0.317937
	C160	C	0.375756	0.677773	0.886074
	C161	C	0.612259	0.681199	0.115585
	C162	C	0.620331	0.318744	0.887979
	C163	C	0.374046	0.330218	0.116692
	C164	C	0.675752	0.889149	0.376871
	C165	C	0.668252	0.117447	0.623450
	C166	C	0.314701	0.888108	0.621554
	C167	C	0.316263	0.116380	0.387851
	C168	C	0.875067	0.388318	0.178041
	C169	C	0.112551	0.617259	0.178585
	C170	C	0.119390	0.389533	0.816539
	C171	C	0.876766	0.618438	0.829115
	C172	C	0.175326	0.879740	0.387215
	C173	C	0.164182	0.122940	0.617187
	C174	C	0.817710	0.121749	0.385757
	C175	C	0.816065	0.887468	0.615691
	C176	C	0.379335	0.179315	0.887251
	C177	C	0.609023	0.179520	0.123719
	C178	C	0.378591	0.827832	0.121785
	C179	C	0.608653	0.819938	0.875889
	C180	C	0.378593	0.886069	0.178944
	C181	C	0.609504	0.120633	0.178672
	C182	C	0.377260	0.119076	0.832650
	C183	C	0.608482	0.877870	0.818874
	C184	C	0.873393	0.179688	0.385557
	C185	C	0.109738	0.182693	0.614888
	C186	C	0.119122	0.821801	0.387405
	C187	C	0.873328	0.830419	0.616122
	C188	C	0.177239	0.388935	0.874229
	C189	C	0.169906	0.617474	0.119255
	C190	C	0.817904	0.388333	0.120655
	C191	C	0.817437	0.616616	0.885098
	C192	C	0.389463	0.096691	0.607538
	C193	C	0.592367	0.909798	0.595637
	C194	C	0.593763	0.096782	0.402510
	C195	C	0.397791	0.908349	0.402623
	C196	C	0.594063	0.403000	0.097187
	C197	C	0.594743	0.596997	0.906167
	C198	C	0.394186	0.603248	0.095477
	C199	C	0.401378	0.399672	0.905682
	C200	C	0.090482	0.598866	0.401955
	C201	C	0.899796	0.606858	0.604172
	C202	C	0.089389	0.404714	0.593395
	C203	C	0.899284	0.402795	0.401800
	C204	C	0.892460	0.596977	0.104501
	C205	C	0.094058	0.409453	0.094983
	C206	C	0.097961	0.597878	0.899773
	C207	C	0.900582	0.409362	0.900350
	C208	C	0.091392	0.904795	0.597057
	C209	C	0.094293	0.097856	0.405652
	C210	C	0.892907	0.106708	0.595621
	C211	C	0.899178	0.902365	0.405487
	C212	C	0.588228	0.096193	0.904052
	C213	C	0.398589	0.106237	0.105882
	C214	C	0.588616	0.903048	0.095771
	C215	C	0.398934	0.900132	0.903735
	Zn216	Zn	0.492194	0.000514	0.753047
	Zn217	Zn	0.493993	0.003112	0.251473
	Zn218	Zn	0.745378	0.501523	0.001714
	Zn219	Zn	0.247575	0.502064	-0.001389
	Zn220	Zn	-0.004733	0.753222	0.501764
	Zn221	Zn	-0.006048	0.252627	0.498988
	Zn222	Zn	-0.003839	0.504857	0.749256
	Zn223	Zn	-0.005576	0.502198	0.251594
	Zn224	Zn	0.494221	0.750757	0.000846
	Zn225	Zn	0.495674	0.251661	0.003903
	Zn226	Zn	0.745911	0.004026	0.500469
	Zn227	Zn	0.242894	0.002389	0.503224
	N228	N	0.405087	0.964613	0.682357
	N229	N	0.577272	0.039256	0.680856
	N230	N	0.582547	0.965990	0.319647
	N231	N	0.408582	0.039539	0.326370
	N232	N	0.675825	0.413829	0.964688
	N233	N	0.669476	0.585129	0.039263
	N234	N	0.320455	0.585192	0.961771
	N235	N	0.316654	0.416008	0.036086
	N236	N	0.959177	0.681455	0.416488
	N237	N	0.031101	0.685499	0.590465
	N238	N	0.956902	0.328343	0.583718
	N239	N	0.030393	0.319664	0.409469
	N240	N	0.957581	0.421226	0.676743
	N241	N	0.032857	0.590404	0.678468
	N242	N	0.957389	0.585625	0.327336
	N243	N	0.031567	0.414307	0.319370
	N244	N	0.407047	0.681123	0.964587
	N245	N	0.580824	0.681047	0.037117
	N246	N	0.585248	0.318826	0.966234
	N247	N	0.410740	0.326750	0.039387
	N248	N	0.676099	0.966445	0.412605
	N249	N	0.670682	0.040763	0.586513
	N250	N	0.311906	0.965979	0.590377
	N251	N	0.316229	0.038917	0.419833
	N252	N	0.907605	0.465757	0.180925
	N253	N	0.079526	0.539930	0.178743
	N254	N	0.085271	0.467297	0.816774
	N255	N	0.913074	0.542005	0.826166
	N256	N	0.173826	0.915522	0.464995
	N257	N	0.166800	0.085968	0.539817
	N258	N	0.816293	0.089548	0.463767
	N259	N	0.816556	0.918862	0.537397
	N260	N	0.458029	0.179969	0.918575
	N261	N	0.530622	0.183443	0.092289
	N262	N	0.456679	0.825020	0.086293
	N263	N	0.530868	0.818948	0.911923
	N264	N	0.456396	0.918999	0.178314
	N265	N	0.531327	0.088338	0.180744
	N266	N	0.454435	0.082863	0.830282
	N267	N	0.530490	0.912514	0.820284
	N268	N	0.906135	0.182973	0.463367
	N269	N	0.079383	0.182602	0.536033
	N270	N	0.083073	0.822329	0.465242
	N271	N	0.909065	0.827208	0.538143
	N272	N	0.178365	0.466148	0.909798
	N273	N	0.171811	0.540457	0.082941
	N274	N	0.815490	0.465755	0.088280
	N275	N	0.817207	0.538663	0.916489
	O276	O	1.113780	-0.012775	0.974224
	H277	H	1.119882	-0.015214	0.974260
	H278	H	1.114498	-0.009599	0.980178
	O279	O	0.429940	0.489912	0.567624
	H280	H	0.423926	0.482499	0.574363
	H281	H	0.422891	0.495475	0.556565
	O282	O	0.463523	0.627397	0.424250
	H283	H	0.465058	0.605557	0.422108
	H284	H	0.449396	0.631483	0.431957
	O285	O	0.665190	0.400446	0.526483
	H286	H	0.666009	0.401484	0.532360
	H287	H	0.658800	0.388412	0.521111
	O288	O	0.419191	0.534856	0.561828
	H289	H	0.441538	0.538939	0.555242
	H290	H	0.416628	0.549109	0.566539
	O291	O	-0.037018	-0.047485	0.909685
	H292	H	-0.031784	-0.051385	0.904578
	H293	H	-0.034746	-0.059741	0.924927
	O294	O	1.037906	0.921014	0.102293
	H295	H	1.030704	0.931303	0.105314
	H296	H	1.054163	0.928531	0.105372
	O297	O	0.882098	1.008079	-0.040226
	H298	H	0.886897	1.012456	-0.053478
	H299	H	0.882692	0.998207	-0.039958
	O300	O	0.561148	0.474552	0.406836
	H301	H	0.569678	0.462234	0.393575
	H302	H	0.553846	0.475559	0.395271
	O303	O	0.434730	0.435046	0.549474
	H304	H	0.436546	0.439002	0.563715
	H305	H	0.425234	0.440594	0.550256
	O306	O	0.615717	0.431590	0.490344
	H307	H	0.603010	0.437040	0.491872
	H308	H	0.625784	0.436963	0.506121
	O309	O	0.590637	0.413921	0.336558
	H310	H	0.586804	0.420549	0.329427
	H311	H	0.604023	0.414787	0.350510
	O312	O	0.927673	0.959175	0.903585
	H313	H	0.925848	0.958955	0.920068
	H314	H	0.936976	0.950926	0.901932
	O315	O	1.020265	1.113974	0.047354
	H316	H	1.014039	1.118920	0.060044
	H317	H	1.034126	1.107905	0.053283
	O318	O	0.534342	0.574653	0.505657
	H319	H	0.534303	0.562033	0.505963
	H320	H	0.537012	0.573396	0.504415
	O321	O	0.577302	0.652906	0.561446
	H322	H	0.587752	0.642118	0.555918
	H323	H	0.589214	0.658999	0.551875
	O324	O	0.030823	1.058859	1.105895
	H325	H	0.031456	1.071827	1.106895
	H326	H	0.019382	1.056859	1.104246
	O327	O	-0.014575	0.963640	0.855579
	H328	H	-0.003834	0.955421	0.843887
	H329	H	-0.001554	0.963656	0.848140
	O330	O	-0.088314	0.076996	0.100841
	H331	H	-0.098949	0.062392	0.089398
	H332	H	-0.095834	0.071456	0.104341
	O333	O	0.492696	0.630084	0.433259
	H334	H	0.482753	0.622989	0.431897
	H335	H	0.500668	0.624989	0.426637
	O336	O	-0.005567	-0.079990	0.036644
	H337	H	-0.003470	-0.065461	0.038339
	H338	H	-0.011788	-0.087727	0.046550
	O339	O	0.009318	0.003323	0.142934
	H340	H	0.019620	0.000998	0.130236
	H341	H	0.000966	0.002752	0.154500
	O342	O	0.372234	0.508975	0.539466
	H343	H	0.362460	0.513966	0.553153
	H344	H	0.378121	0.490396	0.541542
	O345	O	0.066097	0.998689	0.974431
	H346	H	0.053603	0.997731	0.961137
	H347	H	0.062273	0.994442	0.985867
	O348	O	0.447418	0.544669	0.624087
	H349	H	0.457636	0.547806	0.617245
	H350	H	0.445235	0.540335	0.620696
	O351	O	0.448451	0.453027	0.521717
	H352	H	0.442332	0.455729	0.539082
	H353	H	0.450304	0.463720	0.521121
	O354	O	-0.148627	0.870122	0.096523
	H355	H	-0.159281	0.863641	0.107394
	H356	H	-0.152533	0.875722	0.103835
	O357	O	0.469857	0.553100	0.340582
	H358	H	0.483586	0.562381	0.332161
	H359	H	0.463075	0.540086	0.338330
	O360	O	0.932662	0.060675	0.909277
	H361	H	0.926516	0.067683	0.896835
	H362	H	0.936977	0.067544	0.894232
	O363	O	0.540310	0.509451	0.556160
	H364	H	0.533074	0.500599	0.556475
	H365	H	0.538662	0.522862	0.559823
	O366	O	0.373896	0.447553	0.557721
	H367	H	0.370359	0.441994	0.552505
	H368	H	0.380316	0.452021	0.545912
	O369	O	0.916078	0.130033	-0.092786
	H370	H	0.921916	0.120419	-0.098155
	H371	H	0.918392	0.126842	-0.080283
	O372	O	0.523090	0.347801	0.433785
	H373	H	0.514622	0.333313	0.425458
	H374	H	0.537121	0.347546	0.431760
	O375	O	1.152147	-0.036063	0.945490
	H376	H	1.164167	-0.038996	0.938096
	H377	H	1.149286	-0.028748	0.946284
	O378	O	0.124983	1.127260	0.062548
	H379	H	0.127967	1.137017	0.082197
	H380	H	0.126100	1.127330	0.045079
	O381	O	0.527982	0.494338	0.543744
	H382	H	0.529951	0.495182	0.542085
	H383	H	0.516196	0.488978	0.549785
	O384	O	0.939639	1.066248	-0.124811
	H385	H	0.929830	1.056558	-0.132575
	H386	H	0.939289	1.064553	-0.129487
	O387	O	1.075921	-0.064842	0.897522
	H388	H	1.088833	-0.072802	0.879644
	H389	H	1.082067	-0.062987	0.902239
	O390	O	1.003834	0.923251	0.111197
	H391	H	1.000240	0.922350	0.107769
	H392	H	0.995416	0.920436	0.103523
	O393	O	0.544201	0.463873	0.464123
	H394	H	0.543330	0.468016	0.465732
	H395	H	0.553062	0.476335	0.461638
