data_Molecule from HDF5

_cell_length_a		16.440287
_cell_length_b		16.157856
_cell_length_c		16.217063
_cell_angle_alpha	89.674965
_cell_angle_beta	89.619019
_cell_angle_gamma	90.371041
_symmetry_space_group_name_H-M	'P 1'
_symmetry_Int_Tables_number		1

loop_
	_symmetry_equiv_pos_as_xyz
	x,y,z

loop_
	_atom_site_label
	_atom_site_type_symbol
	_atom_site_fract_x
	_atom_site_fract_y
	_atom_site_fract_z
	H0	H	0.394902	0.834944	0.714527
	H1	H	0.597846	0.161415	0.711765
	H2	H	0.600059	0.834867	0.281623
	H3	H	0.402167	0.163188	0.281199
	H4	H	0.719751	0.392656	0.836090
	H5	H	0.718037	0.601140	0.158766
	H6	H	0.283874	0.598944	0.834091
	H7	H	0.277696	0.389664	0.158867
	H8	H	0.839428	0.717764	0.394215
	H9	H	0.160643	0.718119	0.596148
	H10	H	0.838636	0.279748	0.598909
	H11	H	0.161538	0.284850	0.396326
	H12	H	0.839024	0.393286	0.717122
	H13	H	0.160125	0.601766	0.714030
	H14	H	0.838699	0.601018	0.278922
	H15	H	0.160671	0.400177	0.278627
	H16	H	0.400462	0.712661	0.833998
	H17	H	0.597750	0.711764	0.160715
	H18	H	0.597450	0.283663	0.833417
	H19	H	0.398378	0.280145	0.161445
	H20	H	0.719833	0.837681	0.390570
	H21	H	0.716030	0.161335	0.597774
	H22	H	0.278053	0.837669	0.603650
	H23	H	0.284610	0.163199	0.394892
	H24	H	0.898556	0.334909	0.213505
	H25	H	0.099172	0.662746	0.207049
	H26	H	0.097008	0.332327	0.782144
	H27	H	0.902999	0.661580	0.782448
	H28	H	0.219678	0.898278	0.335531
	H29	H	0.216780	0.102470	0.660032
	H30	H	0.781230	0.104847	0.334668
	H31	H	0.777632	0.892140	0.658046
	H32	H	0.338207	0.213956	0.896798
	H33	H	0.659897	0.214518	0.096171
	H34	H	0.337227	0.777701	0.100962
	H35	H	0.659611	0.782112	0.896633
	H36	H	0.338462	0.894226	0.218821
	H37	H	0.660711	0.099852	0.211882
	H38	H	0.337204	0.097238	0.782127
	H39	H	0.657943	0.896406	0.778163
	H40	H	0.903109	0.214312	0.332703
	H41	H	0.095482	0.212266	0.661949
	H42	H	0.100458	0.786242	0.333137
	H43	H	0.898124	0.781430	0.659917
	H44	H	0.215772	0.332973	0.894485
	H45	H	0.216903	0.659725	0.096004
	H46	H	0.779779	0.335167	0.101813
	H47	H	0.781285	0.659077	0.890381
	H48	H	0.417474	0.113027	0.588909
	H49	H	0.588488	0.882771	0.581868
	H50	H	0.597337	0.120178	0.395634
	H51	H	0.408930	0.884015	0.408561
	H52	H	0.592151	0.400507	0.116044
	H53	H	0.589739	0.592835	0.880243
	H54	H	0.400003	0.586708	0.115936
	H55	H	0.413718	0.404322	0.882876
	H56	H	0.116528	0.593943	0.396784
	H57	H	0.885429	0.591862	0.586952
	H58	H	0.115987	0.395725	0.581404
	H59	H	0.885763	0.406312	0.408779
	H60	H	0.108710	0.418566	0.583299
	H61	H	0.886945	0.585838	0.586878
	H62	H	0.114535	0.596620	0.405828
	H63	H	0.885833	0.410339	0.405282
	H64	H	0.406852	0.577278	0.111419
	H65	H	0.597224	0.586834	0.879374
	H66	H	0.595493	0.413416	0.112365
	H67	H	0.403216	0.400341	0.878113
	H68	H	0.582079	0.112382	0.404047
	H69	H	0.592042	0.880649	0.588690
	H70	H	0.402118	0.114491	0.580188
	H71	H	0.408428	0.884377	0.412134
	H72	H	0.905886	0.617634	0.093952
	H73	H	0.089640	0.378646	0.091696
	H74	H	0.087233	0.612312	0.903456
	H75	H	0.921328	0.383814	0.903843
	H76	H	0.091998	0.897959	0.617196
	H77	H	0.095281	0.091082	0.380699
	H78	H	0.903559	0.083531	0.612098
	H79	H	0.908451	0.904710	0.379224
	H80	H	0.614097	0.091788	0.904710
	H81	H	0.382894	0.097160	0.084430
	H82	H	0.614267	0.906443	0.094405
	H83	H	0.381737	0.903394	0.902782
	H84	H	0.613934	0.899668	0.087361
	H85	H	0.388638	0.077724	0.084794
	H86	H	0.612931	0.087823	0.904775
	H87	H	0.383411	0.900746	0.910092
	H88	H	0.911208	0.088607	0.611583
	H89	H	0.093818	0.091385	0.381039
	H90	H	0.097580	0.918421	0.612404
	H91	H	0.903669	0.914830	0.381048
	H92	H	0.096319	0.612459	0.912292
	H93	H	0.086601	0.381894	0.085933
	H94	H	0.914679	0.612068	0.084470
	H95	H	0.904500	0.383863	0.922059
	H96	H	0.403782	0.120293	0.597054
	H97	H	0.584225	0.881946	0.589067
	H98	H	0.597846	0.114592	0.413801
	H99	H	0.405465	0.882994	0.409873
	H100	H	0.582744	0.408481	0.109613
	H101	H	0.588755	0.583839	0.884000
	H102	H	0.412190	0.589165	0.112995
	H103	H	0.404228	0.412252	0.882558
	H104	H	0.112715	0.587470	0.402738
	H105	H	0.884751	0.588527	0.592225
	H106	H	0.118657	0.408231	0.602483
	H107	H	0.883357	0.404572	0.403350
	H108	H	0.902139	0.615810	0.079979
	H109	H	0.093132	0.380306	0.085333
	H110	H	0.098330	0.616602	0.899947
	H111	H	0.898875	0.375440	0.899936
	H112	H	0.077988	0.911614	0.608657
	H113	H	0.094353	0.092641	0.381639
	H114	H	0.903611	0.091860	0.615126
	H115	H	0.914067	0.913822	0.383987
	H116	H	0.614829	0.088924	0.901661
	H117	H	0.380607	0.086509	0.100971
	H118	H	0.610676	0.908456	0.086191
	H119	H	0.384130	0.907760	0.908183
	C120	C	0.376657	0.007959	0.619633
	C121	C	0.618485	0.989658	0.616927
	C122	C	0.622033	0.007897	0.374227
	C123	C	0.378800	0.991356	0.378063
	C124	C	0.620787	0.376551	0.005725
	C125	C	0.621481	0.618483	0.988527
	C126	C	0.377773	0.616153	0.005496
	C127	C	0.376714	0.374327	0.988843
	C128	C	0.008311	0.622473	0.372725
	C129	C	0.991712	0.620020	0.618234
	C130	C	0.008174	0.376504	0.619362
	C131	C	0.991244	0.377640	0.374913
	C132	C	0.877207	0.507238	0.117901
	C133	C	0.119799	0.488688	0.116514
	C134	C	0.122069	0.505409	0.875041
	C135	C	0.878718	0.488565	0.876639
	C136	C	0.120526	0.879369	0.505522
	C137	C	0.122246	0.121618	0.488949
	C138	C	0.877777	0.119532	0.505238
	C139	C	0.877595	0.878197	0.488341
	C140	C	0.507527	0.119160	0.874923
	C141	C	0.490646	0.118079	0.118693
	C142	C	0.506985	0.873935	0.120975
	C143	C	0.489425	0.874985	0.876009
	C144	C	0.375992	0.884413	0.676667
	C145	C	0.618017	0.112704	0.673747
	C146	C	0.620399	0.884443	0.318748
	C147	C	0.381572	0.114289	0.319844
	C148	C	0.679467	0.374819	0.883986
	C149	C	0.679027	0.619588	0.110213
	C150	C	0.322186	0.617317	0.882857
	C151	C	0.317872	0.372234	0.110706
	C152	C	0.887463	0.679132	0.374435
	C153	C	0.112418	0.678985	0.616656
	C154	C	0.886702	0.318542	0.618960
	C155	C	0.112991	0.322465	0.376206
	C156	C	0.887006	0.375365	0.677506
	C157	C	0.112237	0.620923	0.675186
	C158	C	0.887142	0.620942	0.316949
	C159	C	0.112553	0.379640	0.317444
	C160	C	0.380293	0.673930	0.882875
	C161	C	0.618826	0.674446	0.111402
	C162	C	0.618719	0.320516	0.882778
	C163	C	0.378068	0.317633	0.112051
	C164	C	0.680111	0.885918	0.372932
	C165	C	0.677002	0.112346	0.617381
	C166	C	0.317877	0.885653	0.621107
	C167	C	0.323032	0.114344	0.376297
	C168	C	0.878286	0.383919	0.175525
	C169	C	0.118508	0.612881	0.170370
	C170	C	0.118376	0.381691	0.819363
	C171	C	0.881389	0.612152	0.819550
	C172	C	0.179728	0.879420	0.383674
	C173	C	0.177582	0.121301	0.611542
	C174	C	0.820813	0.122172	0.383101
	C175	C	0.817852	0.874712	0.609895
	C176	C	0.386117	0.175596	0.876921
	C177	C	0.611890	0.176055	0.116765
	C178	C	0.385794	0.816057	0.121185
	C179	C	0.611118	0.819888	0.876750
	C180	C	0.386321	0.874197	0.179645
	C181	C	0.612309	0.118501	0.173956
	C182	C	0.385789	0.117824	0.819502
	C183	C	0.610220	0.876447	0.817573
	C184	C	0.881233	0.176911	0.382115
	C185	C	0.117760	0.176155	0.612381
	C186	C	0.120334	0.823710	0.382322
	C187	C	0.877842	0.819672	0.610750
	C188	C	0.177405	0.381929	0.875186
	C189	C	0.177638	0.611336	0.115547
	C190	C	0.819526	0.383944	0.119570
	C191	C	0.821068	0.610729	0.873435
	C192	C	0.400865	0.093665	0.595757
	C193	C	0.595175	0.904068	0.593352
	C194	C	0.599194	0.093533	0.397480
	C195	C	0.401139	0.905806	0.402933
	C196	C	0.597025	0.400467	0.090664
	C197	C	0.598745	0.594777	0.903289
	C198	C	0.399894	0.591616	0.091226
	C199	C	0.400169	0.398696	0.903240
	C200	C	0.092748	0.599509	0.395266
	C201	C	0.907527	0.595880	0.595321
	C202	C	0.092451	0.400380	0.595828
	C203	C	0.906944	0.400337	0.398747
	C204	C	0.900703	0.592848	0.093311
	C205	C	0.096663	0.402489	0.094166
	C206	C	0.100538	0.591409	0.898438
	C207	C	0.901653	0.403257	0.901125
	C208	C	0.096425	0.902777	0.590678
	C209	C	0.100768	0.098629	0.403250
	C210	C	0.899634	0.095104	0.590606
	C211	C	0.901782	0.903641	0.403569
	C212	C	0.591841	0.096363	0.897298
	C213	C	0.406214	0.094164	0.096488
	C214	C	0.591344	0.897824	0.096538
	C215	C	0.405014	0.897318	0.900104
	Zn216	Zn	0.497657	-0.002445	0.746664
	Zn217	Zn	0.499594	-0.001671	0.248582
	Zn218	Zn	0.750027	0.497309	-0.003278
	Zn219	Zn	0.249016	0.495685	-0.002909
	Zn220	Zn	-0.000365	0.750351	0.496121
	Zn221	Zn	-0.000125	0.248169	0.497235
	Zn222	Zn	-0.000337	0.497887	0.748453
	Zn223	Zn	-0.000413	0.499246	0.244899
	Zn224	Zn	0.498227	0.745285	-0.002809
	Zn225	Zn	0.498919	0.247116	-0.002373
	Zn226	Zn	0.748256	-0.001369	0.496352
	Zn227	Zn	0.249936	0.000352	0.498530
	N228	N	0.411897	0.961393	0.675932
	N229	N	0.582390	0.035399	0.673703
	N230	N	0.585137	0.961315	0.319303
	N231	N	0.415653	0.036738	0.320794
	N232	N	0.680757	0.408993	0.961329
	N233	N	0.680833	0.585497	0.032761
	N234	N	0.320621	0.581984	0.960270
	N235	N	0.316797	0.406635	0.032937
	N236	N	0.963826	0.680104	0.408469
	N237	N	0.036483	0.678395	0.581897
	N238	N	0.962848	0.319026	0.583488
	N239	N	0.036656	0.321015	0.411207
	N240	N	0.963447	0.410545	0.678051
	N241	N	0.036315	0.585044	0.676310
	N242	N	0.963372	0.586666	0.315569
	N243	N	0.035900	0.413227	0.316402
	N244	N	0.414327	0.673054	0.960120
	N245	N	0.583782	0.674159	0.034586
	N246	N	0.582707	0.321394	0.959420
	N247	N	0.413904	0.318775	0.035234
	N248	N	0.681137	0.963617	0.406937
	N249	N	0.677392	0.034804	0.582796
	N250	N	0.318005	0.963564	0.586431
	N251	N	0.321298	0.036935	0.411917
	N252	N	0.913410	0.461507	0.174704
	N253	N	0.083234	0.535491	0.171069
	N254	N	0.085062	0.459516	0.818838
	N255	N	0.916465	0.535130	0.821273
	N256	N	0.180056	0.913207	0.461366
	N257	N	0.180622	0.088383	0.533712
	N258	N	0.818559	0.087165	0.460631
	N259	N	0.817402	0.910459	0.532659
	N260	N	0.462695	0.176808	0.910562
	N261	N	0.535547	0.175753	0.083041
	N262	N	0.461935	0.815727	0.085334
	N263	N	0.535058	0.818917	0.912333
	N264	N	0.462820	0.909020	0.179940
	N265	N	0.535910	0.083082	0.175282
	N266	N	0.462144	0.083401	0.818112
	N267	N	0.533524	0.909878	0.816942
	N268	N	0.915981	0.175512	0.458969
	N269	N	0.084060	0.176479	0.535068
	N270	N	0.084260	0.823498	0.459000
	N271	N	0.913958	0.821568	0.534065
	N272	N	0.179880	0.459887	0.909014
	N273	N	0.178572	0.533008	0.082824
	N274	N	0.818705	0.461636	0.084638
	N275	N	0.819258	0.532991	0.908143
	O276	O	0.064848	-0.029510	-0.055286
	H277	H	0.064939	-0.041505	-0.057625
	H278	H	0.053362	-0.034510	-0.054588
	O279	O	0.502041	0.477215	0.497252
	H280	H	0.501476	0.471128	0.503643
	H281	H	0.510289	0.480883	0.501849
	O282	O	0.980047	-0.044852	-0.023069
	H283	H	0.985760	-0.037969	-0.023676
	H284	H	0.989486	-0.039901	-0.020713
	O285	O	-0.057724	1.054865	-0.046832
	H286	H	-0.048870	1.059574	-0.048406
	H287	H	-0.057282	1.057496	-0.042849
	O288	O	0.583398	0.529183	0.503145
	H289	H	0.583638	0.533157	0.504946
	H290	H	0.587446	0.528725	0.509464
	O291	O	0.488724	0.595959	0.636183
	H292	H	0.475572	0.599471	0.631886
	H293	H	0.489593	0.596023	0.648478
	O294	O	0.964899	0.872189	0.914263
	H295	H	0.956514	0.868613	0.922648
	H296	H	0.954135	0.887697	0.909735
	O297	O	0.105832	-0.013053	-0.074390
	H298	H	0.107011	-0.015332	-0.080229
	H299	H	0.106799	-0.018814	-0.069181
	O300	O	0.532417	0.606296	0.629096
	H301	H	0.530738	0.598162	0.633831
	H302	H	0.536885	0.603481	0.645092
	O303	O	-0.133781	0.909457	0.942071
	H304	H	-0.126754	0.925967	0.933566
	H305	H	-0.138348	0.919701	0.938661
	O306	O	0.452220	0.582064	0.441958
	H307	H	0.453947	0.578982	0.434850
	H308	H	0.452437	0.587016	0.437856
	O309	O	0.882945	0.016824	0.095047
	H310	H	0.875707	0.011558	0.101925
	H311	H	0.889753	0.018319	0.087266
	O312	O	0.105014	-0.019842	1.062356
	H313	H	0.110445	-0.024281	1.079168
	H314	H	0.101902	-0.018433	1.066073
	O315	O	0.509462	0.360426	0.451772
	H316	H	0.519618	0.361672	0.450262
	H317	H	0.509995	0.352330	0.433318
	O318	O	0.425132	0.370194	0.456800
	H319	H	0.425303	0.376907	0.451283
	H320	H	0.418668	0.361071	0.461505
	O321	O	0.617304	0.586730	0.469731
	H322	H	0.609346	0.573689	0.475202
	H323	H	0.621507	0.577490	0.479486
	O324	O	0.541426	0.639368	0.496845
	H325	H	0.534603	0.640063	0.500804
	H326	H	0.545575	0.654600	0.491175
	O327	O	-0.000313	1.031695	1.125088
	H328	H	0.004458	1.028042	1.130464
	H329	H	0.003080	1.035420	1.126081
	O330	O	0.535210	0.490799	0.641888
	H331	H	0.537492	0.475228	0.650308
	H332	H	0.527644	0.488071	0.638316
	O333	O	-0.065016	1.035418	1.113215
	H334	H	-0.062888	1.040823	1.114783
	H335	H	-0.062895	1.050388	1.112174
	O336	O	1.054063	0.973210	1.103423
	H337	H	1.047463	0.971568	1.083448
	H338	H	1.040824	0.974275	1.122915
	O339	O	0.551373	0.338628	0.450211
	H340	H	0.553516	0.356574	0.447842
	H341	H	0.551916	0.328346	0.456133
	O342	O	0.953583	-0.001069	0.012205
	H343	H	0.951136	-0.012560	0.002806
	H344	H	0.950430	0.003134	-0.006557
	O345	O	0.433887	0.474164	0.469621
	H346	H	0.452524	0.490813	0.466075
	H347	H	0.411235	0.468364	0.476958
	O348	O	0.991385	1.011030	1.099745
	H349	H	0.981768	1.003517	1.111548
	H350	H	0.993397	1.011948	1.112106
	O351	O	1.002037	1.089456	-0.015383
	H352	H	1.008599	1.099137	-0.007452
	H353	H	1.001400	1.090331	-0.006269
	O354	O	0.623152	0.585271	0.466499
	H355	H	0.624897	0.591177	0.485178
	H356	H	0.619655	0.584456	0.464766
	O357	O	0.477566	0.495551	0.383631
	H358	H	0.479761	0.502740	0.382275
	H359	H	0.469930	0.498031	0.387345
	O360	O	-0.001523	-0.054529	0.162466
	H361	H	-0.010448	-0.061314	0.164712
	H362	H	-0.015990	-0.055580	0.169638
	O363	O	0.509942	0.447879	0.522110
	H364	H	0.513685	0.441346	0.521556
	H365	H	0.504449	0.445522	0.520654
	O366	O	0.380620	0.627216	0.396279
	H367	H	0.381840	0.628117	0.403551
	H368	H	0.388059	0.626828	0.386989
	O369	O	0.530114	0.501872	0.376171
	H370	H	0.537025	0.508938	0.363516
	H371	H	0.542230	0.501852	0.382499
	O372	O	0.400754	0.479156	0.535679
	H373	H	0.398253	0.479337	0.532015
	H374	H	0.389500	0.483228	0.529813
	O375	O	0.529109	0.556471	0.584348
	H376	H	0.538255	0.562996	0.583583
	H377	H	0.524676	0.559829	0.593688
	O378	O	0.558426	0.547267	0.500793
	H379	H	0.562072	0.536974	0.509220
	H380	H	0.559763	0.546296	0.491582
	O381	O	0.393321	0.412434	0.520830
	H382	H	0.393911	0.423697	0.510956
	H383	H	0.391727	0.413117	0.522315
	O384	O	0.052819	1.047571	-0.009492
	H385	H	0.047533	1.048842	0.001782
	H386	H	0.046527	1.039817	-0.021225
	O387	O	1.012657	-0.045944	0.841665
	H388	H	1.013672	-0.045149	0.842108
	H389	H	1.004462	-0.053452	0.843263
	O390	O	0.008073	0.925749	-0.035558
	H391	H	0.007881	0.919221	-0.040615
	H392	H	0.004966	0.919614	-0.035073
	O393	O	1.025076	1.076481	-0.000430
	H394	H	1.042977	1.080632	0.002597
	H395	H	1.028634	1.079774	0.006013
	O396	O	0.558415	0.464860	0.454568
	H397	H	0.564796	0.457463	0.458532
	H398	H	0.560565	0.482588	0.450416
	O399	O	-0.133097	0.942581	1.018362
	H400	H	-0.128980	0.943888	1.012355
	H401	H	-0.149058	0.930673	1.026920
	O402	O	1.050089	1.010409	0.855823
	H403	H	1.056022	1.000864	0.853662
	H404	H	1.052489	1.003194	0.851780
	O405	O	0.373972	0.405426	0.573668
	H406	H	0.373398	0.404578	0.563235
	H407	H	0.374284	0.403773	0.582942
