data_Molecule from HDF5

_cell_length_a		16.337647
_cell_length_b		16.277188
_cell_length_c		16.045520
_cell_angle_alpha	89.877845
_cell_angle_beta	90.721856
_cell_angle_gamma	89.665163
_symmetry_space_group_name_H-M	'P 1'
_symmetry_Int_Tables_number		1

loop_
	_symmetry_equiv_pos_as_xyz
	x,y,z

loop_
	_atom_site_label
	_atom_site_type_symbol
	_atom_site_fract_x
	_atom_site_fract_y
	_atom_site_fract_z
	H0	H	0.411276	0.832483	0.707358
	H1	H	0.601521	0.162520	0.708292
	H2	H	0.599176	0.832623	0.285921
	H3	H	0.405113	0.161655	0.281772
	H4	H	0.716543	0.398822	0.829246
	H5	H	0.720523	0.594854	0.161376
	H6	H	0.286542	0.599516	0.830962
	H7	H	0.297485	0.400287	0.162335
	H8	H	0.841675	0.714727	0.392559
	H9	H	0.166912	0.712681	0.598073
	H10	H	0.841498	0.281995	0.594225
	H11	H	0.166197	0.279510	0.395640
	H12	H	0.839645	0.401687	0.707282
	H13	H	0.168108	0.592818	0.711155
	H14	H	0.841801	0.595909	0.279835
	H15	H	0.169771	0.402189	0.287826
	H16	H	0.403646	0.712054	0.829334
	H17	H	0.603797	0.708915	0.162204
	H18	H	0.603213	0.283714	0.830406
	H19	H	0.411343	0.285525	0.161979
	H20	H	0.720937	0.834939	0.396384
	H21	H	0.723452	0.159294	0.600635
	H22	H	0.291092	0.833414	0.594630
	H23	H	0.284375	0.158989	0.391281
	H24	H	0.914140	0.333410	0.207052
	H25	H	0.101278	0.663643	0.208260
	H26	H	0.101699	0.332978	0.784610
	H27	H	0.906473	0.662992	0.782596
	H28	H	0.215916	0.897141	0.329814
	H29	H	0.220727	0.095993	0.659772
	H30	H	0.785561	0.099177	0.331485
	H31	H	0.793496	0.897046	0.660907
	H32	H	0.342515	0.215302	0.893863
	H33	H	0.668157	0.210851	0.098326
	H34	H	0.341735	0.781700	0.094317
	H35	H	0.667337	0.781890	0.897790
	H36	H	0.339441	0.901928	0.206079
	H37	H	0.667561	0.093123	0.212633
	H38	H	0.341223	0.096119	0.779277
	H39	H	0.668614	0.900050	0.785588
	H40	H	0.902092	0.212315	0.329651
	H41	H	0.104484	0.208824	0.660848
	H42	H	0.100827	0.784697	0.329867
	H43	H	0.909307	0.785243	0.660827
	H44	H	0.221771	0.334286	0.897776
	H45	H	0.222918	0.660599	0.098028
	H46	H	0.792444	0.334381	0.097527
	H47	H	0.786324	0.660335	0.892640
	H48	H	0.411688	0.113488	0.586394
	H49	H	0.593712	0.882416	0.588667
	H50	H	0.599230	0.114886	0.406096
	H51	H	0.419076	0.881922	0.398735
	H52	H	0.597172	0.409242	0.112428
	H53	H	0.600450	0.592155	0.874903
	H54	H	0.419909	0.594898	0.113784
	H55	H	0.413487	0.399519	0.875247
	H56	H	0.122574	0.596055	0.404273
	H57	H	0.885839	0.593377	0.594346
	H58	H	0.121093	0.393305	0.582704
	H59	H	0.887245	0.400490	0.402477
	H60	H	0.115502	0.413428	0.586095
	H61	H	0.886110	0.600239	0.582663
	H62	H	0.120572	0.591743	0.406952
	H63	H	0.890032	0.408321	0.402704
	H64	H	0.408288	0.594043	0.116287
	H65	H	0.594515	0.583946	0.879390
	H66	H	0.598928	0.398147	0.115469
	H67	H	0.404249	0.408543	0.875467
	H68	H	0.596193	0.115807	0.401192
	H69	H	0.605647	0.880965	0.583811
	H70	H	0.409473	0.113832	0.583290
	H71	H	0.405566	0.881441	0.412911
	H72	H	0.916898	0.615605	0.092648
	H73	H	0.101153	0.381204	0.093408
	H74	H	0.098489	0.612591	0.911775
	H75	H	0.911125	0.379712	0.898696
	H76	H	0.091749	0.907315	0.611326
	H77	H	0.088626	0.094927	0.376087
	H78	H	0.906950	0.095720	0.617763
	H79	H	0.909087	0.907354	0.375837
	H80	H	0.621775	0.094901	0.904718
	H81	H	0.389998	0.088490	0.085217
	H82	H	0.621777	0.895549	0.087610
	H83	H	0.391050	0.913154	0.904416
	H84	H	0.618396	0.908461	0.087424
	H85	H	0.386103	0.094792	0.091601
	H86	H	0.620358	0.090349	0.906037
	H87	H	0.384410	0.903642	0.890683
	H88	H	0.912414	0.080515	0.611928
	H89	H	0.099953	0.092975	0.373921
	H90	H	0.101236	0.897670	0.616739
	H91	H	0.911682	0.907719	0.376766
	H92	H	0.103050	0.616727	0.901069
	H93	H	0.103048	0.381648	0.089525
	H94	H	0.912472	0.612154	0.078208
	H95	H	0.912988	0.381803	0.905217
	H96	H	0.408512	0.114931	0.587540
	H97	H	0.603650	0.877605	0.596389
	H98	H	0.592901	0.113226	0.406391
	H99	H	0.400526	0.874565	0.393545
	H100	H	0.608360	0.404952	0.116186
	H101	H	0.590827	0.594046	0.876896
	H102	H	0.414259	0.583412	0.112175
	H103	H	0.416225	0.411474	0.880396
	H104	H	0.122291	0.591165	0.401269
	H105	H	0.890344	0.587566	0.583119
	H106	H	0.124446	0.402025	0.601738
	H107	H	0.886415	0.405853	0.396252
	H108	H	0.902247	0.618363	0.088979
	H109	H	0.105546	0.379999	0.092031
	H110	H	0.091282	0.613164	0.901819
	H111	H	0.906289	0.379879	0.904518
	H112	H	0.105719	0.910888	0.614561
	H113	H	0.092873	0.084095	0.378696
	H114	H	0.923472	0.093416	0.611799
	H115	H	0.910858	0.905346	0.376451
	H116	H	0.622785	0.091802	0.901364
	H117	H	0.388070	0.097848	0.082389
	H118	H	0.622878	0.902882	0.098531
	H119	H	0.387093	0.896414	0.907086
	C120	C	0.383105	0.005676	0.615583
	C121	C	0.628575	0.988857	0.618713
	C122	C	0.624626	0.005953	0.375961
	C123	C	0.380110	0.987978	0.372574
	C124	C	0.627968	0.375875	0.004538
	C125	C	0.625336	0.618154	0.986880
	C126	C	0.383698	0.619815	0.004449
	C127	C	0.385383	0.377423	0.987069
	C128	C	0.013565	0.621058	0.374005
	C129	C	0.995619	0.620600	0.617497
	C130	C	0.012510	0.374973	0.618016
	C131	C	0.995941	0.376161	0.373770
	C132	C	0.884574	0.506845	0.116011
	C133	C	0.130119	0.489248	0.120142
	C134	C	0.126204	0.505907	0.876067
	C135	C	0.881517	0.489075	0.873160
	C136	C	0.126086	0.876180	0.504639
	C137	C	0.124503	0.118355	0.485964
	C138	C	0.883185	0.119318	0.504417
	C139	C	0.884074	0.877682	0.486149
	C140	C	0.513714	0.120811	0.873433
	C141	C	0.495934	0.120239	0.117315
	C142	C	0.512551	0.875245	0.117934
	C143	C	0.495899	0.875942	0.874037
	C144	C	0.388946	0.881689	0.670042
	C145	C	0.623817	0.112583	0.672603
	C146	C	0.620494	0.881931	0.322654
	C147	C	0.383664	0.111997	0.318077
	C148	C	0.680482	0.378345	0.879375
	C149	C	0.681917	0.615236	0.111879
	C150	C	0.325682	0.619008	0.880102
	C151	C	0.333435	0.379830	0.112493
	C152	C	0.890597	0.676633	0.373478
	C153	C	0.118472	0.674630	0.617446
	C154	C	0.889866	0.320340	0.614646
	C155	C	0.118261	0.319459	0.376706
	C156	C	0.889120	0.379478	0.671135
	C157	C	0.118851	0.615111	0.673741
	C158	C	0.890560	0.617601	0.317460
	C159	C	0.119921	0.380309	0.322849
	C160	C	0.383671	0.675046	0.879271
	C161	C	0.623861	0.671960	0.112276
	C162	C	0.623990	0.321186	0.879836
	C163	C	0.390100	0.322759	0.112182
	C164	C	0.681282	0.883180	0.377436
	C165	C	0.684270	0.111087	0.618291
	C166	C	0.329226	0.882303	0.614228
	C167	C	0.323724	0.110900	0.372719
	C168	C	0.891236	0.382577	0.170286
	C169	C	0.123875	0.613847	0.172597
	C170	C	0.123202	0.382267	0.821592
	C171	C	0.885084	0.613138	0.818764
	C172	C	0.179036	0.877744	0.379394
	C173	C	0.181806	0.115556	0.610436
	C174	C	0.825000	0.118440	0.380359
	C175	C	0.831129	0.878590	0.611343
	C176	C	0.391016	0.176773	0.873850
	C177	C	0.619277	0.173520	0.117448
	C178	C	0.390056	0.820221	0.114482
	C179	C	0.618652	0.819988	0.877464
	C180	C	0.388807	0.880297	0.169704
	C181	C	0.618958	0.115119	0.174414
	C182	C	0.390503	0.117681	0.816977
	C183	C	0.619461	0.879035	0.821687
	C184	C	0.883169	0.174457	0.379580
	C185	C	0.124288	0.172067	0.611046
	C186	C	0.121753	0.821545	0.379621
	C187	C	0.888325	0.822604	0.611379
	C188	C	0.182799	0.382917	0.878018
	C189	C	0.184451	0.612433	0.118036
	C190	C	0.830903	0.383092	0.115610
	C191	C	0.825125	0.611944	0.873339
	C192	C	0.403685	0.091796	0.592617
	C193	C	0.607378	0.902610	0.596177
	C194	C	0.602700	0.092321	0.398208
	C195	C	0.401915	0.901722	0.395172
	C196	C	0.607517	0.397675	0.092103
	C197	C	0.602090	0.596516	0.899638
	C198	C	0.407152	0.597330	0.091417
	C199	C	0.405316	0.399718	0.899402
	C200	C	0.099587	0.599460	0.397358
	C201	C	0.909647	0.599780	0.593641
	C202	C	0.098239	0.396533	0.596499
	C203	C	0.910014	0.398301	0.394374
	C204	C	0.904536	0.592874	0.093265
	C205	C	0.109477	0.403358	0.098079
	C206	C	0.104191	0.591908	0.898424
	C207	C	0.903616	0.402893	0.896052
	C208	C	0.105476	0.898601	0.591662
	C209	C	0.100748	0.096833	0.398763
	C210	C	0.907256	0.096474	0.591492
	C211	C	0.904428	0.900061	0.399004
	C212	C	0.599246	0.099055	0.896956
	C213	C	0.410295	0.099886	0.093396
	C214	C	0.598762	0.896152	0.097297
	C215	C	0.409865	0.897867	0.894663
	Zn216	Zn	0.505510	-0.002664	0.745092
	Zn217	Zn	0.503306	-0.002481	0.246282
	Zn218	Zn	0.754472	0.497295	-0.004715
	Zn219	Zn	0.257122	0.497917	-0.003020
	Zn220	Zn	0.004209	0.749865	0.495301
	Zn221	Zn	0.004138	0.247032	0.495162
	Zn222	Zn	0.003472	0.497653	0.746307
	Zn223	Zn	0.005732	0.498601	0.245914
	Zn224	Zn	0.504560	0.746861	-0.004582
	Zn225	Zn	0.505769	0.249848	-0.004053
	Zn226	Zn	0.755835	-0.002392	0.496520
	Zn227	Zn	0.252324	-0.003185	0.494402
	N228	N	0.421492	0.959422	0.671366
	N229	N	0.589785	0.035399	0.672903
	N230	N	0.586170	0.959321	0.321608
	N231	N	0.418006	0.034568	0.317847
	N232	N	0.683299	0.411590	0.958192
	N233	N	0.682899	0.582368	0.032920
	N234	N	0.325407	0.585254	0.958885
	N235	N	0.330669	0.413474	0.033719
	N236	N	0.968151	0.678914	0.408025
	N237	N	0.040928	0.678035	0.583235
	N238	N	0.967644	0.317342	0.582450
	N239	N	0.040103	0.316779	0.407697
	N240	N	0.966273	0.412814	0.673234
	N241	N	0.041374	0.582271	0.673871
	N242	N	0.967859	0.583858	0.317545
	N243	N	0.042957	0.415014	0.320966
	N244	N	0.419079	0.675688	0.957559
	N245	N	0.589409	0.673809	0.033600
	N246	N	0.591920	0.319752	0.958661
	N247	N	0.421519	0.321207	0.033100
	N248	N	0.684046	0.961508	0.409897
	N249	N	0.687294	0.033019	0.585621
	N250	N	0.325410	0.960471	0.581056
	N251	N	0.321256	0.032800	0.405796
	N252	N	0.923992	0.460205	0.170555
	N253	N	0.090993	0.536299	0.174314
	N254	N	0.088768	0.459605	0.820196
	N255	N	0.919670	0.535663	0.818740
	N256	N	0.181739	0.911194	0.458020
	N257	N	0.182104	0.082868	0.531398
	N258	N	0.824996	0.084683	0.459051
	N259	N	0.828328	0.912408	0.532688
	N260	N	0.468442	0.178978	0.908171
	N261	N	0.541821	0.176842	0.082687
	N262	N	0.467974	0.817228	0.082681
	N263	N	0.540992	0.818081	0.909382
	N264	N	0.465951	0.913726	0.172017
	N265	N	0.541419	0.082552	0.174478
	N266	N	0.467656	0.083262	0.816819
	N267	N	0.542158	0.913262	0.819412
	N268	N	0.918327	0.175239	0.457975
	N269	N	0.089288	0.173844	0.532598
	N270	N	0.089712	0.820217	0.458578
	N271	N	0.920600	0.821987	0.532552
	N272	N	0.184720	0.460953	0.911181
	N273	N	0.188836	0.534110	0.086458
	N274	N	0.826510	0.461219	0.082398
	N275	N	0.822855	0.533839	0.906538
	O276	O	0.981798	1.050537	-0.082615
	H277	H	0.987127	1.052382	-0.074453
	H278	H	0.982424	1.046954	-0.090170
	O279	O	0.025799	0.033083	1.062664
	H280	H	0.034307	0.036618	1.051570
	H281	H	0.020608	0.035439	1.063377
	O282	O	-0.039841	-0.088618	0.000161
	H283	H	-0.041660	-0.084506	-0.004278
	H284	H	-0.042157	-0.090050	-0.007639
	O285	O	0.416533	0.495484	0.468623
	H286	H	0.409996	0.492359	0.472195
	H287	H	0.414312	0.491173	0.458675
	O288	O	0.010256	0.060675	-0.092697
	H289	H	0.004577	0.043759	-0.105540
	H290	H	0.018219	0.048576	-0.089337
	O291	O	0.055239	0.959802	-0.050846
	H292	H	0.060954	0.963800	-0.054225
	H293	H	0.057708	0.957957	-0.046092
	O294	O	-0.078945	1.073693	-0.036367
	H295	H	-0.080876	1.088059	-0.036880
	H296	H	-0.081948	1.076279	-0.039724
	O297	O	0.445071	0.509528	0.559899
	H298	H	0.455443	0.511539	0.552170
	H299	H	0.439118	0.499601	0.567246
	O300	O	0.516384	0.470753	0.477320
	H301	H	0.508678	0.476198	0.471982
	H302	H	0.520400	0.464800	0.480537
	O303	O	1.020954	-0.006722	0.972456
	H304	H	1.028267	-0.002100	0.977699
	H305	H	1.019717	-0.012091	0.984444
	O306	O	0.017157	1.026696	1.020799
	H307	H	-0.000865	1.033862	1.009650
	H308	H	0.031219	1.018750	1.029525
	O309	O	0.037870	1.043754	0.997273
	H310	H	0.038111	1.041360	1.000206
	H311	H	0.033619	1.035980	1.000002
	O312	O	-0.030101	0.006144	1.008010
	H313	H	-0.032286	0.004524	1.005938
	H314	H	-0.033557	0.001166	1.006398
	O315	O	0.435897	0.452129	0.514052
	H316	H	0.448024	0.444074	0.522460
	H317	H	0.435047	0.457193	0.516057
	O318	O	-0.000690	0.040871	0.891145
	H319	H	-0.004923	0.048288	0.887212
	H320	H	0.000553	0.049327	0.898613
	O321	O	0.518832	0.451094	0.529486
	H322	H	0.521829	0.449643	0.537652
	H323	H	0.513442	0.456525	0.525389
	O324	O	1.034009	0.016983	0.997367
	H325	H	1.031666	0.010339	0.995888
	H326	H	1.038881	0.021133	1.000854
	O327	O	0.963139	1.018708	1.015590
	H328	H	0.958655	1.028669	1.013308
	H329	H	0.972413	1.016884	1.005843
	O330	O	0.467451	0.501483	0.476672
	H331	H	0.460916	0.492353	0.467317
	H332	H	0.467179	0.507324	0.478717
	O333	O	0.475831	0.484674	0.456020
	H334	H	0.477859	0.479832	0.456173
	H335	H	0.474687	0.487928	0.450147
	O336	O	0.508104	0.441929	0.588108
	H337	H	0.515452	0.433594	0.578134
	H338	H	0.500766	0.442994	0.594753
	O339	O	0.519589	0.504180	0.435695
	H340	H	0.501437	0.501779	0.429234
	H341	H	0.514382	0.515730	0.430773
	O342	O	0.534187	0.465170	0.518571
	H343	H	0.539812	0.475357	0.530612
	H344	H	0.534666	0.454450	0.514576
	O345	O	0.468667	0.486161	0.512846
	H346	H	0.474195	0.482085	0.524081
	H347	H	0.469169	0.489225	0.511997
