data_Molecule from HDF5

_cell_length_a		16.280144
_cell_length_b		16.223743
_cell_length_c		16.228487
_cell_angle_alpha	90.081390
_cell_angle_beta	89.726442
_cell_angle_gamma	90.082715
_symmetry_space_group_name_H-M	'P 1'
_symmetry_Int_Tables_number		1

loop_
	_symmetry_equiv_pos_as_xyz
	x,y,z

loop_
	_atom_site_label
	_atom_site_type_symbol
	_atom_site_fract_x
	_atom_site_fract_y
	_atom_site_fract_z
	H0	H	0.397769	0.835019	0.716459
	H1	H	0.595930	0.163962	0.714499
	H2	H	0.596762	0.835206	0.286154
	H3	H	0.400174	0.163246	0.288793
	H4	H	0.713480	0.398972	0.837240
	H5	H	0.712504	0.599054	0.164612
	H6	H	0.285405	0.596981	0.835649
	H7	H	0.281602	0.399233	0.163678
	H8	H	0.832696	0.712384	0.404855
	H9	H	0.161258	0.713122	0.598404
	H10	H	0.833535	0.286454	0.598473
	H11	H	0.161421	0.283134	0.400959
	H12	H	0.833886	0.401692	0.715363
	H13	H	0.162045	0.597006	0.714366
	H14	H	0.833706	0.596232	0.287170
	H15	H	0.161286	0.398465	0.284023
	H16	H	0.401398	0.712226	0.835927
	H17	H	0.596118	0.713792	0.164761
	H18	H	0.597017	0.284925	0.837085
	H19	H	0.398917	0.286010	0.165467
	H20	H	0.712662	0.834907	0.401360
	H21	H	0.711292	0.163243	0.599413
	H22	H	0.282018	0.835476	0.600408
	H23	H	0.285009	0.163596	0.405157
	H24	H	0.898319	0.333602	0.215032
	H25	H	0.096429	0.662897	0.214765
	H26	H	0.095671	0.334734	0.786776
	H27	H	0.901705	0.663148	0.789737
	H28	H	0.213447	0.899883	0.338534
	H29	H	0.210986	0.099355	0.665255
	H30	H	0.783737	0.097999	0.337938
	H31	H	0.782144	0.900800	0.665625
	H32	H	0.334226	0.212624	0.904305
	H33	H	0.662129	0.214070	0.098145
	H34	H	0.334626	0.783766	0.101340
	H35	H	0.661620	0.784897	0.901314
	H36	H	0.333964	0.900364	0.216306
	H37	H	0.662225	0.098043	0.215590
	H38	H	0.333557	0.097869	0.788192
	H39	H	0.661628	0.900924	0.785833
	H40	H	0.900399	0.212464	0.336950
	H41	H	0.094877	0.212744	0.665674
	H42	H	0.097323	0.785404	0.337492
	H43	H	0.897802	0.785364	0.666050
	H44	H	0.212512	0.334961	0.900186
	H45	H	0.212318	0.662558	0.099417
	H46	H	0.781030	0.334633	0.101006
	H47	H	0.785302	0.662353	0.903364
	H48	H	0.406110	0.118054	0.602309
	H49	H	0.588468	0.879789	0.601265
	H50	H	0.590854	0.118384	0.400274
	H51	H	0.394165	0.879193	0.409977
	H52	H	0.582900	0.401467	0.117562
	H53	H	0.593244	0.590012	0.883947
	H54	H	0.397541	0.591870	0.119479
	H55	H	0.402171	0.411814	0.884360
	H56	H	0.112008	0.590517	0.411719
	H57	H	0.877420	0.604432	0.594194
	H58	H	0.113042	0.408138	0.590574
	H59	H	0.883024	0.406478	0.410754
	H60	H	0.115262	0.407955	0.598091
	H61	H	0.885357	0.585915	0.588478
	H62	H	0.115004	0.590406	0.401820
	H63	H	0.882125	0.407512	0.407010
	H64	H	0.406576	0.584623	0.115028
	H65	H	0.589917	0.593539	0.883751
	H66	H	0.597949	0.404257	0.120972
	H67	H	0.412835	0.404438	0.885252
	H68	H	0.585140	0.113292	0.412732
	H69	H	0.583735	0.885625	0.588636
	H70	H	0.408168	0.114173	0.590838
	H71	H	0.409625	0.880556	0.399871
	H72	H	0.900674	0.618181	0.100528
	H73	H	0.080598	0.380981	0.104052
	H74	H	0.102650	0.618292	0.910214
	H75	H	0.908899	0.382365	0.908262
	H76	H	0.087030	0.902507	0.619325
	H77	H	0.090996	0.085278	0.386284
	H78	H	0.903587	0.080899	0.615292
	H79	H	0.901563	0.909111	0.385344
	H80	H	0.614178	0.090767	0.905701
	H81	H	0.381265	0.095481	0.093203
	H82	H	0.610067	0.910223	0.082867
	H83	H	0.380973	0.900793	0.912014
	H84	H	0.615057	0.914389	0.102329
	H85	H	0.383129	0.089018	0.096052
	H86	H	0.615576	0.094338	0.907263
	H87	H	0.384188	0.910974	0.912296
	H88	H	0.914134	0.100401	0.618623
	H89	H	0.085945	0.094065	0.385226
	H90	H	0.095361	0.906596	0.620847
	H91	H	0.910040	0.906969	0.386313
	H92	H	0.088913	0.618696	0.898272
	H93	H	0.085844	0.387769	0.078933
	H94	H	0.913480	0.612288	0.094638
	H95	H	0.902516	0.380717	0.911758
	H96	H	0.397120	0.118044	0.593761
	H97	H	0.597113	0.880470	0.590422
	H98	H	0.598429	0.117173	0.412079
	H99	H	0.409489	0.885814	0.417747
	H100	H	0.588409	0.415372	0.114351
	H101	H	0.594618	0.593770	0.882216
	H102	H	0.408581	0.596997	0.117388
	H103	H	0.401229	0.399435	0.879969
	H104	H	0.115412	0.599179	0.407558
	H105	H	0.878300	0.588679	0.607505
	H106	H	0.116016	0.400960	0.593242
	H107	H	0.880430	0.403426	0.408168
	H108	H	0.901711	0.613833	0.086415
	H109	H	0.104617	0.377535	0.094618
	H110	H	0.085792	0.612837	0.914832
	H111	H	0.902915	0.379022	0.904271
	H112	H	0.087894	0.911278	0.616696
	H113	H	0.095908	0.094070	0.381865
	H114	H	0.892348	0.098305	0.623864
	H115	H	0.904154	0.900958	0.382491
	H116	H	0.613530	0.091363	0.909714
	H117	H	0.379830	0.093816	0.100384
	H118	H	0.617929	0.896005	0.095045
	H119	H	0.379368	0.906528	0.903213
	C120	C	0.375149	0.008021	0.623951
	C121	C	0.618161	0.990658	0.621983
	C122	C	0.620065	0.007828	0.379365
	C123	C	0.376200	0.990473	0.380779
	C124	C	0.618878	0.378166	0.009154
	C125	C	0.620260	0.620957	0.992057
	C126	C	0.376543	0.619885	0.008633
	C127	C	0.376084	0.377161	0.991807
	C128	C	0.005679	0.620944	0.379414
	C129	C	0.988879	0.621357	0.624256
	C130	C	0.006549	0.377378	0.622909
	C131	C	0.989948	0.376855	0.379417
	C132	C	0.875966	0.506434	0.122721
	C133	C	0.119515	0.490170	0.121787
	C134	C	0.120158	0.507651	0.879113
	C135	C	0.876959	0.489405	0.880218
	C136	C	0.119073	0.878134	0.510448
	C137	C	0.118921	0.120240	0.493075
	C138	C	0.876021	0.121233	0.510382
	C139	C	0.876148	0.877692	0.493345
	C140	C	0.506186	0.120803	0.879577
	C141	C	0.489605	0.121764	0.124027
	C142	C	0.506268	0.877620	0.122824
	C143	C	0.489632	0.877395	0.879318
	C144	C	0.377315	0.884204	0.678666
	C145	C	0.616063	0.114487	0.677036
	C146	C	0.617379	0.884226	0.323952
	C147	C	0.379272	0.114302	0.326420
	C148	C	0.674909	0.379585	0.886047
	C149	C	0.674569	0.618974	0.115568
	C150	C	0.322466	0.617534	0.885012
	C151	C	0.319992	0.379000	0.115132
	C152	C	0.881847	0.674853	0.383633
	C153	C	0.112413	0.675762	0.620006
	C154	C	0.882771	0.323603	0.619348
	C155	C	0.112871	0.321497	0.380800
	C156	C	0.883130	0.380563	0.677827
	C157	C	0.112851	0.617874	0.677401
	C158	C	0.882240	0.617565	0.324984
	C159	C	0.112871	0.379307	0.323186
	C160	C	0.379783	0.675191	0.885215
	C161	C	0.617089	0.676023	0.115660
	C162	C	0.617036	0.322718	0.885986
	C163	C	0.378099	0.322621	0.115773
	C164	C	0.674833	0.884225	0.381195
	C165	C	0.673339	0.114378	0.619580
	C166	C	0.319691	0.884393	0.621208
	C167	C	0.322040	0.114390	0.384218
	C168	C	0.877912	0.382855	0.177701
	C169	C	0.117044	0.613797	0.176936
	C170	C	0.116868	0.383921	0.824023
	C171	C	0.880393	0.613733	0.826355
	C172	C	0.175293	0.879650	0.387256
	C173	C	0.173350	0.118874	0.616466
	C174	C	0.821985	0.118139	0.386683
	C175	C	0.820028	0.880296	0.616717
	C176	C	0.383091	0.175386	0.882799
	C177	C	0.613136	0.176567	0.119840
	C178	C	0.383539	0.821501	0.121731
	C179	C	0.612763	0.822610	0.881281
	C180	C	0.383268	0.879639	0.178887
	C181	C	0.613374	0.118844	0.177905
	C182	C	0.382965	0.118288	0.825143
	C183	C	0.612674	0.880010	0.823417
	C184	C	0.879757	0.175274	0.386392
	C185	C	0.115773	0.175327	0.616551
	C186	C	0.117250	0.822931	0.386851
	C187	C	0.877844	0.823437	0.617177
	C188	C	0.174855	0.384027	0.880533
	C189	C	0.174693	0.613626	0.119597
	C190	C	0.819849	0.383280	0.120713
	C191	C	0.822685	0.613468	0.882918
	C192	C	0.397273	0.094383	0.601921
	C193	C	0.596155	0.904353	0.599924
	C194	C	0.597916	0.094129	0.401745
	C195	C	0.398024	0.904061	0.402761
	C196	C	0.596383	0.400550	0.095571
	C197	C	0.598810	0.598926	0.905633
	C198	C	0.397917	0.597700	0.094977
	C199	C	0.398577	0.398929	0.905559
	C200	C	0.091739	0.599489	0.400628
	C201	C	0.902704	0.599404	0.603032
	C202	C	0.092596	0.399249	0.600539
	C203	C	0.904055	0.399344	0.401947
	C204	C	0.898666	0.592543	0.100410
	C205	C	0.097033	0.404273	0.099122
	C206	C	0.098735	0.594302	0.901141
	C207	C	0.898321	0.403118	0.901850
	C208	C	0.096670	0.900371	0.596818
	C209	C	0.097346	0.097639	0.406794
	C210	C	0.897076	0.099541	0.596921
	C211	C	0.898586	0.899327	0.407156
	C212	C	0.592259	0.098739	0.901252
	C213	C	0.403685	0.099399	0.102879
	C214	C	0.592122	0.900434	0.099994
	C215	C	0.403683	0.899673	0.902393
	Zn216	Zn	0.497435	-0.000613	0.750997
	Zn217	Zn	0.497951	-0.001356	0.252303
	Zn218	Zn	0.747783	0.498785	0.000920
	Zn219	Zn	0.247898	0.498651	-0.000066
	Zn220	Zn	-0.002492	0.749491	0.501842
	Zn221	Zn	-0.001690	0.248273	0.501276
	Zn222	Zn	-0.001738	0.499019	0.751882
	Zn223	Zn	-0.002035	0.498717	0.250499
	Zn224	Zn	0.498123	0.748737	0.000921
	Zn225	Zn	0.497875	0.249580	0.000850
	Zn226	Zn	0.747481	-0.000871	0.501367
	Zn227	Zn	0.247336	0.000007	0.502014
	N228	N	0.410870	0.961989	0.680489
	N229	N	0.582326	0.036697	0.678457
	N230	N	0.583872	0.962125	0.322907
	N231	N	0.412209	0.036312	0.324081
	N232	N	0.676269	0.413273	0.963951
	N233	N	0.676818	0.585472	0.037606
	N234	N	0.320111	0.584158	0.962999
	N235	N	0.318715	0.412259	0.037314
	N236	N	0.959538	0.677148	0.416616
	N237	N	0.034457	0.677976	0.587771
	N238	N	0.960568	0.321472	0.585852
	N239	N	0.035481	0.319796	0.414842
	N240	N	0.961055	0.413394	0.680095
	N241	N	0.034996	0.584809	0.680051
	N242	N	0.960131	0.584822	0.322183
	N243	N	0.035186	0.412960	0.322060
	N244	N	0.412882	0.676676	0.962964
	N245	N	0.584050	0.677364	0.037872
	N246	N	0.582792	0.322036	0.963493
	N247	N	0.412328	0.321239	0.038017
	N248	N	0.676552	0.962091	0.414824
	N249	N	0.674964	0.036413	0.586144
	N250	N	0.318329	0.962402	0.587824
	N251	N	0.320106	0.036323	0.417283
	N252	N	0.912197	0.460544	0.179003
	N253	N	0.083494	0.536111	0.178559
	N254	N	0.083471	0.461880	0.823273
	N255	N	0.913610	0.535881	0.824633
	N256	N	0.176309	0.913506	0.464931
	N257	N	0.175325	0.085088	0.538587
	N258	N	0.819568	0.085159	0.464694
	N259	N	0.818973	0.913575	0.538757
	N260	N	0.460615	0.176982	0.916098
	N261	N	0.535316	0.178757	0.087298
	N262	N	0.461026	0.820206	0.087400
	N263	N	0.535072	0.820946	0.915331
	N264	N	0.460679	0.913770	0.179666
	N265	N	0.535636	0.085473	0.180755
	N266	N	0.460669	0.085020	0.823207
	N267	N	0.535074	0.913360	0.822156
	N268	N	0.912627	0.177084	0.464211
	N269	N	0.082717	0.176206	0.538761
	N270	N	0.083115	0.821674	0.464681
	N271	N	0.912045	0.821642	0.539569
	N272	N	0.176865	0.461900	0.914169
	N273	N	0.176433	0.535536	0.086164
	N274	N	0.818234	0.461291	0.087595
	N275	N	0.820291	0.535347	0.915807
	O276	O	0.991949	0.950825	0.134061
	H277	H	0.992171	0.946002	0.131190
	H278	H	0.994438	0.946723	0.136360
	O279	O	0.010974	-0.076591	0.091855
	H280	H	0.009690	-0.071066	0.089038
	H281	H	0.009739	-0.071571	0.099354
	O282	O	0.034707	-0.043183	1.006174
	H283	H	0.045579	-0.048932	1.006043
	H284	H	0.029276	-0.041251	0.997953
	O285	O	0.732455	0.707277	0.237631
	H286	H	0.730638	0.716784	0.236674
	H287	H	0.725703	0.699165	0.238996
	O288	O	0.527983	0.502825	0.453596
	H289	H	0.526909	0.504635	0.455415
	H290	H	0.525098	0.503293	0.460408
	O291	O	0.476861	0.545255	0.451698
	H292	H	0.473164	0.542948	0.450390
	H293	H	0.473062	0.542222	0.446729
	O294	O	0.031926	-0.018011	-0.086524
	H295	H	0.034442	-0.009488	-0.093145
	H296	H	0.029040	-0.027421	-0.091724
	O297	O	0.520220	0.485128	0.460868
	H298	H	0.526088	0.476211	0.447576
	H299	H	0.527653	0.493050	0.464403
	O300	O	0.005262	0.943707	1.075282
	H301	H	-0.000898	0.940996	1.061327
	H302	H	0.008006	0.940268	1.078887
	O303	O	0.531923	0.545490	0.470381
	H304	H	0.538264	0.549482	0.471478
	H305	H	0.523638	0.539557	0.471823
	O306	O	0.003550	-0.053712	1.035801
	H307	H	0.006046	-0.054376	1.042116
	H308	H	0.001961	-0.054570	1.039344
	O309	O	1.024759	0.960092	1.059059
	H310	H	1.024486	0.956905	1.053223
	H311	H	1.031705	0.963084	1.059378
	O312	O	0.517825	0.483493	0.450697
	H313	H	0.519319	0.487478	0.448542
	H314	H	0.520924	0.482351	0.447525
	O315	O	0.550093	0.489955	0.447136
	H316	H	0.554094	0.493937	0.447622
	H317	H	0.548146	0.488312	0.443233
	O318	O	-0.014683	0.943725	-0.007156
	H319	H	-0.017067	0.929289	-0.007097
	H320	H	-0.015520	0.947823	0.002300
	O321	O	1.048317	0.920944	-0.018505
	H322	H	1.053213	0.923820	-0.008903
	H323	H	1.048902	0.923722	-0.011601
