data_Molecule from HDF5

_cell_length_a		16.446342
_cell_length_b		16.416845
_cell_length_c		16.420404
_cell_angle_alpha	89.921517
_cell_angle_beta	90.124481
_cell_angle_gamma	89.849593
_symmetry_space_group_name_H-M	'P 1'
_symmetry_Int_Tables_number		1

loop_
	_symmetry_equiv_pos_as_xyz
	x,y,z

loop_
	_atom_site_label
	_atom_site_type_symbol
	_atom_site_fract_x
	_atom_site_fract_y
	_atom_site_fract_z
	H0	H	0.391337	0.850943	0.733953
	H1	H	0.599432	0.167343	0.729943
	H2	H	0.605060	0.850006	0.289736
	H3	H	0.388733	0.164852	0.286331
	H4	H	0.721877	0.402030	0.855196
	H5	H	0.720880	0.616667	0.169895
	H6	H	0.274304	0.615279	0.854069
	H7	H	0.275009	0.400122	0.168325
	H8	H	0.839433	0.732399	0.404093
	H9	H	0.155963	0.731494	0.618261
	H10	H	0.841098	0.285778	0.618791
	H11	H	0.155290	0.286004	0.403592
	H12	H	0.840208	0.403114	0.734313
	H13	H	0.154757	0.617095	0.736630
	H14	H	0.840916	0.618841	0.286411
	H15	H	0.155643	0.403242	0.289592
	H16	H	0.391488	0.730188	0.853469
	H17	H	0.605047	0.732689	0.169436
	H18	H	0.605885	0.285278	0.854551
	H19	H	0.391876	0.285256	0.168995
	H20	H	0.721261	0.850541	0.405340
	H21	H	0.716823	0.167036	0.617228
	H22	H	0.275613	0.850758	0.617962
	H23	H	0.273109	0.164692	0.401928
	H24	H	0.894846	0.350150	0.231519
	H25	H	0.102551	0.668032	0.231923
	H26	H	0.103614	0.350595	0.790049
	H27	H	0.892376	0.668848	0.790945
	H28	H	0.220525	0.900949	0.354746
	H29	H	0.219828	0.115585	0.669049
	H30	H	0.774787	0.116018	0.353568
	H31	H	0.777705	0.903509	0.670507
	H32	H	0.340100	0.231823	0.903944
	H33	H	0.655324	0.229930	0.116690
	H34	H	0.339300	0.787872	0.115503
	H35	H	0.655196	0.785426	0.905039
	H36	H	0.340821	0.900501	0.234467
	H37	H	0.654461	0.115867	0.235376
	H38	H	0.339617	0.116271	0.787607
	H39	H	0.656836	0.903444	0.790773
	H40	H	0.892025	0.230180	0.352770
	H41	H	0.102380	0.230060	0.669974
	H42	H	0.103671	0.787303	0.354066
	H43	H	0.891673	0.786323	0.669237
	H44	H	0.219622	0.350262	0.905455
	H45	H	0.220366	0.666801	0.117724
	H46	H	0.778075	0.350474	0.116455
	H47	H	0.775758	0.668200	0.906281
	H48	H	0.407027	0.122375	0.600504
	H49	H	0.585929	0.894684	0.599711
	H50	H	0.587741	0.121429	0.423278
	H51	H	0.413541	0.897758	0.425258
	H52	H	0.588032	0.425779	0.122360
	H53	H	0.582083	0.595251	0.900893
	H54	H	0.407517	0.597446	0.125011
	H55	H	0.410776	0.415013	0.896819
	H56	H	0.108862	0.598450	0.427383
	H57	H	0.884295	0.601369	0.600308
	H58	H	0.108973	0.421457	0.595118
	H59	H	0.886856	0.423125	0.427312
	H60	H	0.109966	0.424120	0.604122
	H61	H	0.887758	0.596493	0.595586
	H62	H	0.109365	0.594607	0.421037
	H63	H	0.884326	0.423516	0.417374
	H64	H	0.409711	0.596483	0.124695
	H65	H	0.586200	0.600824	0.898675
	H66	H	0.580421	0.417795	0.124112
	H67	H	0.403087	0.423959	0.897397
	H68	H	0.585138	0.121357	0.421137
	H69	H	0.592233	0.892806	0.599458
	H70	H	0.411115	0.121030	0.600421
	H71	H	0.409371	0.895889	0.426805
	H72	H	0.911890	0.622260	0.101374
	H73	H	0.090705	0.395232	0.101632
	H74	H	0.086199	0.621357	0.925144
	H75	H	0.908695	0.395244	0.919606
	H76	H	0.088834	0.919200	0.626300
	H77	H	0.089818	0.089591	0.398868
	H78	H	0.911333	0.099527	0.624229
	H79	H	0.907109	0.919738	0.397562
	H80	H	0.607608	0.095225	0.927648
	H81	H	0.385585	0.091555	0.101254
	H82	H	0.609591	0.920444	0.097998
	H83	H	0.384355	0.919494	0.921714
	H84	H	0.609902	0.921854	0.099874
	H85	H	0.383495	0.100335	0.101197
	H86	H	0.611593	0.093199	0.915392
	H87	H	0.385128	0.920656	0.922867
	H88	H	0.905853	0.100921	0.626484
	H89	H	0.077167	0.097650	0.401282
	H90	H	0.086287	0.924650	0.623487
	H91	H	0.908721	0.924106	0.399337
	H92	H	0.086081	0.621085	0.923274
	H93	H	0.085312	0.395689	0.103307
	H94	H	0.909218	0.620447	0.096340
	H95	H	0.914067	0.398868	0.924708
	H96	H	0.408743	0.120656	0.597072
	H97	H	0.588761	0.892957	0.605194
	H98	H	0.584526	0.119913	0.424218
	H99	H	0.410297	0.895088	0.422421
	H100	H	0.591520	0.416058	0.126871
	H101	H	0.588976	0.594406	0.899817
	H102	H	0.409844	0.598632	0.124968
	H103	H	0.414276	0.425762	0.901586
	H104	H	0.111926	0.601391	0.420856
	H105	H	0.885593	0.594436	0.602677
	H106	H	0.112717	0.415813	0.601332
	H107	H	0.882606	0.414924	0.422866
	H108	H	0.905897	0.623696	0.099991
	H109	H	0.086638	0.397289	0.097984
	H110	H	0.084833	0.621358	0.924238
	H111	H	0.905823	0.396665	0.927197
	H112	H	0.082420	0.920039	0.623801
	H113	H	0.089495	0.104814	0.394845
	H114	H	0.906902	0.095953	0.625490
	H115	H	0.911620	0.920174	0.399541
	H116	H	0.612897	0.104205	0.921262
	H117	H	0.386801	0.096424	0.093607
	H118	H	0.610722	0.919781	0.099926
	H119	H	0.385122	0.920697	0.921084
	C120	C	0.376221	0.017226	0.632558
	C121	C	0.619690	0.999035	0.633332
	C122	C	0.619662	0.016816	0.389989
	C123	C	0.376579	0.999705	0.390092
	C124	C	0.619886	0.386982	0.020340
	C125	C	0.619491	0.630733	1.003607
	C126	C	0.375899	0.630130	0.020365
	C127	C	0.376560	0.387437	1.002717
	C128	C	0.005904	0.631311	0.389761
	C129	C	0.989575	0.630920	0.633151
	C130	C	0.006399	0.388039	0.632695
	C131	C	0.989050	0.388273	0.389804
	C132	C	0.876885	0.517822	0.132446
	C133	C	0.119962	0.500611	0.133389
	C134	C	0.118939	0.516903	0.890879
	C135	C	0.876374	0.501441	0.890839
	C136	C	0.119062	0.887674	0.520313
	C137	C	0.118663	0.130058	0.502910
	C138	C	0.875765	0.131184	0.520531
	C139	C	0.876940	0.888623	0.503675
	C140	C	0.506357	0.130797	0.888772
	C141	C	0.489236	0.129162	0.132157
	C142	C	0.506149	0.887079	0.132317
	C143	C	0.489524	0.887541	0.889839
	C144	C	0.373435	0.898213	0.693501
	C145	C	0.619186	0.119439	0.691317
	C146	C	0.622825	0.897657	0.329845
	C147	C	0.371743	0.117553	0.327301
	C148	C	0.681377	0.383836	0.902177
	C149	C	0.680434	0.634206	0.122328
	C150	C	0.314568	0.633262	0.901614
	C151	C	0.315199	0.382546	0.121100
	C152	C	0.887413	0.692893	0.385873
	C153	C	0.108369	0.691499	0.636422
	C154	C	0.887903	0.326855	0.636388
	C155	C	0.107824	0.326706	0.386257
	C156	C	0.887452	0.385282	0.693852
	C157	C	0.107866	0.634495	0.695365
	C158	C	0.887764	0.635651	0.327572
	C159	C	0.108059	0.385304	0.329433
	C160	C	0.372999	0.690202	0.901153
	C161	C	0.622680	0.691993	0.122106
	C162	C	0.623368	0.325932	0.901951
	C163	C	0.373537	0.325761	0.121374
	C164	C	0.681004	0.898104	0.387266
	C165	C	0.677544	0.119215	0.634995
	C166	C	0.315748	0.898223	0.635676
	C167	C	0.313962	0.117718	0.385004
	C168	C	0.875663	0.397911	0.192128
	C169	C	0.121704	0.619894	0.192725
	C170	C	0.121604	0.398302	0.829921
	C171	C	0.873723	0.620747	0.830361
	C172	C	0.179671	0.884073	0.401613
	C173	C	0.179660	0.133338	0.621654
	C174	C	0.815376	0.133502	0.401133
	C175	C	0.817122	0.885327	0.622678
	C176	C	0.387603	0.191637	0.885837
	C177	C	0.607917	0.189842	0.135393
	C178	C	0.386991	0.827249	0.134262
	C179	C	0.608080	0.826102	0.887224
	C180	C	0.387870	0.883366	0.193573
	C181	C	0.607413	0.133039	0.194415
	C182	C	0.387351	0.133979	0.827754
	C183	C	0.608915	0.885099	0.830456
	C184	C	0.873452	0.190871	0.400785
	C185	C	0.121005	0.190332	0.622115
	C186	C	0.121459	0.827264	0.401366
	C187	C	0.873898	0.826892	0.622189
	C188	C	0.179483	0.397878	0.887538
	C189	C	0.180043	0.619355	0.135483
	C190	C	0.817672	0.398003	0.134863
	C191	C	0.815674	0.620525	0.887892
	C192	C	0.401706	0.099828	0.606695
	C193	C	0.595713	0.915439	0.608635
	C194	C	0.593481	0.099495	0.415463
	C195	C	0.403289	0.917650	0.417174
	C196	C	0.593952	0.412472	0.102897
	C197	C	0.593483	0.604177	0.921159
	C198	C	0.401584	0.604691	0.103195
	C199	C	0.402098	0.413934	0.920257
	C200	C	0.088561	0.605486	0.415605
	C201	C	0.907432	0.605129	0.606914
	C202	C	0.088821	0.413343	0.607574
	C203	C	0.906273	0.413377	0.415221
	C204	C	0.901694	0.600602	0.106548
	C205	C	0.094787	0.417467	0.108112
	C206	C	0.093211	0.599822	0.917045
	C207	C	0.902208	0.418572	0.916488
	C208	C	0.093263	0.913801	0.603021
	C209	C	0.093010	0.104469	0.419958
	C210	C	0.900811	0.106143	0.603625
	C211	C	0.901905	0.914143	0.420516
	C212	C	0.589124	0.104916	0.914123
	C213	C	0.406782	0.103344	0.106106
	C214	C	0.588508	0.913163	0.106626
	C215	C	0.406444	0.913106	0.914765
	Zn216	Zn	0.497921	0.008181	0.760794
	Zn217	Zn	0.497627	0.007631	0.261300
	Zn218	Zn	0.747725	0.509370	0.012284
	Zn219	Zn	0.248287	0.508296	0.011666
	Zn220	Zn	-0.002258	0.759722	0.511278
	Zn221	Zn	-0.002269	0.259157	0.510943
	Zn222	Zn	-0.002371	0.508994	0.762187
	Zn223	Zn	-0.002530	0.509602	0.261211
	Zn224	Zn	0.497453	0.758356	0.011590
	Zn225	Zn	0.497762	0.258684	0.011238
	Zn226	Zn	0.747586	0.008911	0.512175
	Zn227	Zn	0.247364	0.008354	0.511187
	N228	N	0.410271	0.973224	0.691779
	N229	N	0.583960	0.043847	0.690325
	N230	N	0.585392	0.972646	0.331286
	N231	N	0.409752	0.043182	0.330291
	N232	N	0.678964	0.421423	0.976670
	N233	N	0.678330	0.596664	0.047649
	N234	N	0.316179	0.596666	0.976914
	N235	N	0.316726	0.419906	0.046198
	N236	N	0.961946	0.690482	0.423745
	N237	N	0.033752	0.689513	0.598542
	N238	N	0.962557	0.328262	0.599172
	N239	N	0.032897	0.328489	0.423358
	N240	N	0.962075	0.422720	0.691687
	N241	N	0.033083	0.597551	0.693543
	N242	N	0.962480	0.598177	0.329715
	N243	N	0.033314	0.422812	0.331429
	N244	N	0.410402	0.688287	0.975920
	N245	N	0.585372	0.689874	0.047143
	N246	N	0.585801	0.327870	0.976532
	N247	N	0.411021	0.328618	0.046773
	N248	N	0.679202	0.973302	0.423806
	N249	N	0.678185	0.043301	0.599687
	N250	N	0.317316	0.973209	0.598708
	N251	N	0.316791	0.043394	0.423355
	N252	N	0.911449	0.473358	0.191036
	N253	N	0.085434	0.544703	0.191916
	N254	N	0.084752	0.473466	0.831990
	N255	N	0.910409	0.545531	0.831792
	N256	N	0.178171	0.920995	0.476642
	N257	N	0.178438	0.096768	0.546360
	N258	N	0.816503	0.097133	0.476570
	N259	N	0.819090	0.922927	0.547888
	N260	N	0.462503	0.189858	0.922882
	N261	N	0.533500	0.187541	0.097512
	N262	N	0.461496	0.829570	0.096908
	N263	N	0.532721	0.827408	0.923374
	N264	N	0.463035	0.919838	0.192427
	N265	N	0.532482	0.096069	0.192576
	N266	N	0.462299	0.096591	0.829420
	N267	N	0.534177	0.922455	0.831957
	N268	N	0.910211	0.189617	0.475892
	N269	N	0.083878	0.188405	0.547167
	N270	N	0.084537	0.829573	0.476234
	N271	N	0.910283	0.828621	0.546989
	N272	N	0.178020	0.472873	0.924769
	N273	N	0.179227	0.543808	0.099698
	N274	N	0.818101	0.473595	0.098756
	N275	N	0.817050	0.545240	0.924554
	O276	O	0.186197	-0.178656	-0.172108
	H277	H	0.191350	-0.185700	-0.123731
	H278	H	0.183611	-0.162377	-0.180118
	O279	O	0.790300	-0.067753	1.213355
	H280	H	0.791089	-0.088591	1.204325
	H281	H	0.770398	-0.068109	1.225243
	O282	O	0.351188	0.422934	0.363097
	H283	H	0.360944	0.415184	0.383134
	H284	H	0.359917	0.418134	0.372872
	O285	O	0.281670	0.292003	0.531857
	H286	H	0.267487	0.281786	0.550982
	H287	H	0.277275	0.286273	0.558847
	O288	O	0.947605	0.805531	0.010659
	H289	H	0.946836	0.812668	-0.002382
	H290	H	0.933191	0.811928	0.026464
	O291	O	0.318973	0.324054	0.689135
	H292	H	0.361842	0.317934	0.692913
	H293	H	0.309316	0.360918	0.702646
	O294	O	0.152589	-0.177983	1.010158
	H295	H	0.171053	-0.203380	1.023621
	H296	H	0.137859	-0.182058	1.030450
	O297	O	0.503619	0.422805	0.346250
	H298	H	0.516955	0.423126	0.339255
	H299	H	0.489072	0.426445	0.346850
	O300	O	0.509242	0.521649	0.597975
	H301	H	0.521253	0.529718	0.604721
	H302	H	0.501722	0.512296	0.591529
	O303	O	0.636503	0.331689	0.652053
	H304	H	0.646357	0.331117	0.646726
	H305	H	0.641067	0.339929	0.642374
	O306	O	1.183060	0.971008	0.169904
	H307	H	1.201464	0.971171	0.182707
	H308	H	1.191768	0.998956	0.169001
	O309	O	0.309497	0.700927	0.325070
	H310	H	0.302202	0.671927	0.341246
	H311	H	0.326953	0.686395	0.326086
	O312	O	0.202394	1.073224	0.990773
	H313	H	0.200458	1.086626	0.999669
	H314	H	0.208448	1.083479	1.012895
	O315	O	0.576312	0.597944	0.354585
	H316	H	0.590374	0.591714	0.337743
	H317	H	0.585591	0.612108	0.360222
	O318	O	0.983972	-0.049620	0.122311
	H319	H	0.988610	-0.034548	0.134268
	H320	H	0.980098	-0.053102	0.117461
	O321	O	0.035835	0.027690	-0.148542
	H322	H	0.061034	0.024381	-0.140123
	H323	H	0.031477	0.010225	-0.134984
	O324	O	0.688082	0.378877	0.325529
	H325	H	0.652818	0.371144	0.309754
	H326	H	0.694871	0.365094	0.358618
	O327	O	0.525998	0.726297	0.502241
	H328	H	0.531915	0.717764	0.498030
	H329	H	0.541035	0.725426	0.510958
	O330	O	0.669219	1.700536	-0.300756
	H331	H	0.630876	1.714108	-0.291347
	H332	H	0.682785	1.714489	-0.332765
	O333	O	0.472745	0.522470	0.642964
	H334	H	0.467505	0.525309	0.634621
	H335	H	0.498580	0.528967	0.644739
	O336	O	-0.006667	0.208500	0.160518
	H337	H	-0.024977	0.214442	0.162581
	H338	H	-0.020237	0.208513	0.142595
	O339	O	-0.192898	1.169764	1.045966
	H340	H	-0.209182	1.167692	1.035070
	H341	H	-0.200602	1.165522	1.038149
	O342	O	-0.129101	1.054072	1.117313
	H343	H	-0.143205	1.057832	1.123017
	H344	H	-0.114936	1.058975	1.126588
	O345	O	0.577108	0.438526	-0.491906
	H346	H	0.584208	0.445092	-0.491349
	H347	H	0.579318	0.433202	-0.484688
	O348	O	0.290427	0.488558	0.715601
	H349	H	0.284517	0.501901	0.710737
	H350	H	0.277783	0.493255	0.716904
	O351	O	-0.005221	0.899970	1.134684
	H352	H	-0.014538	0.901219	1.147617
	H353	H	-0.000184	0.902834	1.151395
	O354	O	0.006036	1.015896	0.076800
	H355	H	-0.002951	1.036723	0.076667
	H356	H	0.002700	0.987837	0.096944
	O357	O	-0.187115	-0.147919	1.017748
	H358	H	-0.187622	-0.135813	1.006646
	H359	H	-0.198182	-0.151275	1.021526
	O360	O	0.485448	0.307260	0.717684
	H361	H	0.496437	0.292481	0.722049
	H362	H	0.502703	0.311897	0.724483
	O363	O	-0.150222	0.212809	0.812020
	H364	H	-0.161285	0.181160	0.809297
	H365	H	-0.132744	0.224749	0.806865
	O366	O	0.033952	0.210714	0.875405
	H367	H	0.042027	0.223950	0.860566
	H368	H	0.045717	0.192954	0.862553
	O369	O	0.291328	0.494945	0.499216
	H370	H	0.293478	0.493785	0.493043
	H371	H	0.289930	0.499836	0.480839
	O372	O	0.930662	0.080032	1.043027
	H373	H	0.933886	0.084507	1.011113
	H374	H	0.925580	0.086936	1.046475
	O375	O	0.685901	0.699079	0.550074
	H376	H	0.706462	0.711416	0.548453
	H377	H	0.683683	0.678918	0.539019
	O378	O	0.644149	0.477290	0.466375
	H379	H	0.638561	0.482483	0.472342
	H380	H	0.635793	0.490862	0.476090
	O381	O	0.857107	-0.123210	0.204986
	H382	H	0.855639	-0.134270	0.183561
	H383	H	0.889721	-0.133802	0.211191
	O384	O	0.511177	0.503743	0.535855
	H385	H	0.497842	0.494594	0.542025
	H386	H	0.512608	0.506743	0.528777
	O387	O	0.281152	-0.461163	0.294274
	H388	H	0.252530	-0.463933	0.259261
	H389	H	0.300659	-0.484572	0.304104
	O390	O	0.026828	-0.188014	-0.189200
	H391	H	0.051628	-0.184127	-0.167521
	H392	H	0.031902	-0.206451	-0.212732
	O393	O	1.010780	1.111892	1.001391
	H394	H	1.008121	1.091397	1.002327
	H395	H	0.993375	1.109483	0.998590
	O396	O	1.461783	0.661979	0.624473
	H397	H	1.444497	0.653990	0.613558
	H398	H	1.456469	0.663934	0.625191
	O399	O	1.101598	0.171799	0.999557
	H400	H	1.090502	0.165946	0.993536
	H401	H	1.082025	0.171956	0.988873
	O402	O	1.594121	0.632343	0.716622
	H403	H	1.581918	0.652097	0.711650
	H404	H	1.595814	0.626390	0.724489
	O405	O	0.785120	1.039774	-0.198345
	H406	H	0.777263	1.029519	-0.219147
	H407	H	0.791949	1.023900	-0.200286
	O408	O	0.960297	-0.011001	-0.077652
	H409	H	0.981839	-0.008977	-0.068485
	H410	H	0.973451	-0.025754	-0.076280
	O411	O	1.175288	1.178361	0.190289
	H412	H	1.152833	1.181279	0.184483
	H413	H	1.159068	1.193393	0.166849
	O414	O	0.318835	0.625402	0.605441
	H415	H	0.332050	0.613875	0.589993
	H416	H	0.319135	0.632343	0.617225
	O417	O	0.476294	0.717981	0.299245
	H418	H	0.467122	0.710414	0.314641
	H419	H	0.474160	0.744815	0.279065
	O420	O	0.717621	0.514819	0.643259
	H421	H	0.725407	0.529645	0.655045
	H422	H	0.725735	0.528695	0.644723
	O423	O	0.573000	0.304234	0.304021
	H424	H	0.535453	0.309328	0.318944
	H425	H	0.572832	0.281698	0.299919
	O426	O	0.704055	0.295899	0.488690
	H427	H	0.718516	0.296257	0.498665
	H428	H	0.705042	0.289475	0.491397
	O429	O	0.494174	0.322791	0.513071
	H430	H	0.488694	0.333596	0.526228
	H431	H	0.492212	0.319250	0.520274
	O432	O	0.349362	0.661836	0.583155
	H433	H	0.338100	0.654740	0.590316
	H434	H	0.343733	0.669620	0.555311
	O435	O	-0.067731	1.019463	-0.041600
	H436	H	-0.049818	1.011549	-0.037717
	H437	H	-0.071620	1.023332	-0.027702
	O438	O	-0.190949	-0.104443	-0.089364
	H439	H	-0.182375	-0.090744	-0.084828
	H440	H	-0.173311	-0.107008	-0.093649
	O441	O	1.115553	0.062447	0.026743
	H442	H	1.106534	0.070904	0.014005
	H443	H	1.094205	0.074766	0.018610
	O444	O	0.124722	0.972229	1.206768
	H445	H	0.110567	0.987869	1.205533
	H446	H	0.156386	0.986029	1.222020
	O447	O	0.535430	0.634907	0.460123
	H448	H	0.534872	0.625758	0.450988
	H449	H	0.534440	0.621624	0.476322
	O450	O	0.635855	0.446473	0.329483
	H451	H	0.622148	0.408495	0.340252
	H452	H	0.662197	0.444662	0.308042
	O453	O	0.211156	-0.017195	0.799078
	H454	H	0.227902	-0.020439	0.802085
	H455	H	0.229150	-0.029943	0.792406
