data_Molecule from HDF5

_cell_length_a		16.137977
_cell_length_b		16.360632
_cell_length_c		16.250249
_cell_angle_alpha	90.058094
_cell_angle_beta	89.871281
_cell_angle_gamma	89.872559
_symmetry_space_group_name_H-M	'P 1'
_symmetry_Int_Tables_number		1

loop_
	_symmetry_equiv_pos_as_xyz
	x,y,z

loop_
	_atom_site_label
	_atom_site_type_symbol
	_atom_site_fract_x
	_atom_site_fract_y
	_atom_site_fract_z
	H0	H	0.398036	0.819694	0.720945
	H1	H	0.594016	0.145585	0.720783
	H2	H	0.597112	0.820113	0.289009
	H3	H	0.395591	0.144860	0.289415
	H4	H	0.710308	0.386015	0.839819
	H5	H	0.709952	0.578563	0.169008
	H6	H	0.285260	0.578533	0.839446
	H7	H	0.283848	0.385745	0.169020
	H8	H	0.832861	0.696926	0.404293
	H9	H	0.161409	0.696555	0.603175
	H10	H	0.832106	0.269332	0.604188
	H11	H	0.162710	0.267410	0.405334
	H12	H	0.832238	0.385579	0.717928
	H13	H	0.162433	0.579873	0.716487
	H14	H	0.831938	0.578526	0.292689
	H15	H	0.163436	0.385277	0.292159
	H16	H	0.397719	0.697647	0.841175
	H17	H	0.597582	0.697841	0.167999
	H18	H	0.598658	0.265783	0.841562
	H19	H	0.396291	0.266378	0.167536
	H20	H	0.711526	0.819058	0.407404
	H21	H	0.709359	0.146595	0.602647
	H22	H	0.282753	0.818967	0.604147
	H23	H	0.282765	0.146437	0.409389
	H24	H	0.898749	0.318753	0.219594
	H25	H	0.095371	0.645066	0.219553
	H26	H	0.097184	0.319220	0.788438
	H27	H	0.895581	0.644037	0.788270
	H28	H	0.211545	0.885398	0.340810
	H29	H	0.206387	0.077225	0.670955
	H30	H	0.784225	0.078671	0.340329
	H31	H	0.785373	0.887268	0.669796
	H32	H	0.333185	0.197897	0.906121
	H33	H	0.661496	0.196575	0.104821
	H34	H	0.332067	0.766658	0.105837
	H35	H	0.661465	0.766948	0.905510
	H36	H	0.331257	0.884764	0.219321
	H37	H	0.661926	0.079579	0.218267
	H38	H	0.330726	0.079352	0.794887
	H39	H	0.662234	0.883383	0.792194
	H40	H	0.896912	0.197512	0.341630
	H41	H	0.097021	0.198490	0.668311
	H42	H	0.098109	0.766687	0.341147
	H43	H	0.894806	0.765958	0.667454
	H44	H	0.210967	0.318511	0.907576
	H45	H	0.210633	0.645550	0.102004
	H46	H	0.783240	0.318551	0.102897
	H47	H	0.782553	0.644941	0.907728
	H48	H	0.402946	0.097810	0.597334
	H49	H	0.587426	0.867576	0.600639
	H50	H	0.592229	0.098399	0.417023
	H51	H	0.399167	0.863890	0.407822
	H52	H	0.593132	0.389770	0.121973
	H53	H	0.586054	0.577497	0.888599
	H54	H	0.407194	0.578248	0.120729
	H55	H	0.400902	0.396308	0.888376
	H56	H	0.116287	0.576468	0.408931
	H57	H	0.879720	0.576856	0.592760
	H58	H	0.112041	0.395341	0.590971
	H59	H	0.877279	0.387307	0.403234
	H60	H	0.116602	0.390305	0.603973
	H61	H	0.880161	0.570423	0.597219
	H62	H	0.114327	0.577407	0.415343
	H63	H	0.879313	0.382256	0.416618
	H64	H	0.400685	0.577503	0.122779
	H65	H	0.593661	0.577977	0.885855
	H66	H	0.587347	0.389891	0.120519
	H67	H	0.414332	0.389796	0.890451
	H68	H	0.593306	0.100711	0.406752
	H69	H	0.591310	0.867307	0.596034
	H70	H	0.397894	0.100354	0.601527
	H71	H	0.410628	0.868266	0.409023
	H72	H	0.897872	0.601930	0.105653
	H73	H	0.079427	0.370288	0.093728
	H74	H	0.088276	0.597704	0.909978
	H75	H	0.905316	0.364314	0.905648
	H76	H	0.081665	0.886960	0.619577
	H77	H	0.096515	0.071804	0.387640
	H78	H	0.895303	0.082412	0.626594
	H79	H	0.903797	0.892993	0.388769
	H80	H	0.617397	0.072111	0.902516
	H81	H	0.375137	0.083076	0.101870
	H82	H	0.611858	0.894019	0.095994
	H83	H	0.379351	0.883916	0.918726
	H84	H	0.615289	0.888009	0.101526
	H85	H	0.382347	0.076463	0.087913
	H86	H	0.616610	0.085122	0.917882
	H87	H	0.381292	0.895048	0.915332
	H88	H	0.902625	0.066661	0.619433
	H89	H	0.082545	0.071468	0.390479
	H90	H	0.092707	0.882091	0.624575
	H91	H	0.909413	0.887784	0.389163
	H92	H	0.092355	0.597780	0.911559
	H93	H	0.101318	0.365420	0.090443
	H94	H	0.913122	0.595925	0.100725
	H95	H	0.910964	0.367982	0.912559
	H96	H	0.404213	0.099742	0.604458
	H97	H	0.592841	0.864858	0.601541
	H98	H	0.584082	0.097008	0.410856
	H99	H	0.402734	0.868020	0.418841
	H100	H	0.589839	0.385269	0.122364
	H101	H	0.589939	0.570689	0.889364
	H102	H	0.404287	0.572579	0.120108
	H103	H	0.403207	0.381148	0.885019
	H104	H	0.113415	0.571184	0.412772
	H105	H	0.878107	0.577750	0.599799
	H106	H	0.115881	0.381584	0.592026
	H107	H	0.881998	0.395592	0.413594
	H108	H	0.900730	0.596409	0.089450
	H109	H	0.092039	0.362097	0.110245
	H110	H	0.090617	0.599457	0.907313
	H111	H	0.901898	0.365451	0.914517
	H112	H	0.092678	0.894682	0.620888
	H113	H	0.088864	0.083425	0.386744
	H114	H	0.913288	0.081859	0.620137
	H115	H	0.902074	0.885787	0.386839
	H116	H	0.609564	0.065831	0.920531
	H117	H	0.380632	0.067453	0.102363
	H118	H	0.613647	0.885569	0.092995
	H119	H	0.376729	0.887525	0.907579
	C120	C	0.374077	-0.008952	0.628692
	C121	C	0.618377	0.974384	0.627786
	C122	C	0.618683	-0.009248	0.383250
	C123	C	0.374925	0.974742	0.384180
	C124	C	0.619410	0.359885	0.013351
	C125	C	0.618706	0.603748	0.996145
	C126	C	0.375152	0.604450	0.012991
	C127	C	0.376179	0.360562	0.996023
	C128	C	0.005878	0.603176	0.383443
	C129	C	0.988159	0.603735	0.625503
	C130	C	0.005784	0.361116	0.625230
	C131	C	0.988974	0.360387	0.382832
	C132	C	0.875175	0.490446	0.127241
	C133	C	0.119153	0.473554	0.126330
	C134	C	0.119324	0.490657	0.881319
	C135	C	0.876348	0.473624	0.882816
	C136	C	0.118495	0.859849	0.513274
	C137	C	0.117640	0.103552	0.496933
	C138	C	0.875113	0.104667	0.513669
	C139	C	0.875720	0.860669	0.496500
	C140	C	0.505703	0.103108	0.884786
	C141	C	0.488230	0.103998	0.126383
	C142	C	0.504936	0.860572	0.126456
	C143	C	0.488105	0.860367	0.884458
	C144	C	0.377111	0.868124	0.682944
	C145	C	0.615118	0.096970	0.682845
	C146	C	0.616947	0.868413	0.327628
	C147	C	0.375701	0.096648	0.328137
	C148	C	0.674041	0.363574	0.889343
	C149	C	0.672613	0.599921	0.120056
	C150	C	0.321911	0.600266	0.888954
	C151	C	0.320696	0.364204	0.119519
	C152	C	0.881736	0.658627	0.384738
	C153	C	0.112361	0.658771	0.623459
	C154	C	0.881451	0.306590	0.624020
	C155	C	0.113469	0.305472	0.385402
	C156	C	0.881309	0.364760	0.680147
	C157	C	0.112791	0.600658	0.679730
	C158	C	0.881471	0.600238	0.328907
	C159	C	0.113788	0.363824	0.328762
	C160	C	0.377563	0.659546	0.889748
	C161	C	0.616902	0.659397	0.119327
	C162	C	0.618479	0.303920	0.890250
	C163	C	0.377206	0.305481	0.119203
	C164	C	0.673743	0.867978	0.386536
	C165	C	0.672361	0.097437	0.624214
	C166	C	0.320125	0.867881	0.624884
	C167	C	0.319940	0.097482	0.387911
	C168	C	0.878309	0.367628	0.181966
	C169	C	0.116314	0.596321	0.181632
	C170	C	0.117796	0.367936	0.826408
	C171	C	0.876673	0.595638	0.827166
	C172	C	0.173821	0.863711	0.389777
	C173	C	0.170615	0.099334	0.621140
	C174	C	0.820993	0.100323	0.389770
	C175	C	0.821404	0.865150	0.620400
	C176	C	0.381917	0.159524	0.886352
	C177	C	0.612311	0.158723	0.124724
	C178	C	0.381160	0.805092	0.125313
	C179	C	0.612489	0.805242	0.885778
	C180	C	0.380765	0.863728	0.181928
	C181	C	0.612536	0.100917	0.181279
	C182	C	0.380690	0.100425	0.831079
	C183	C	0.612674	0.863050	0.829580
	C184	C	0.876962	0.159366	0.390296
	C185	C	0.116104	0.159526	0.619745
	C186	C	0.117452	0.804867	0.390092
	C187	C	0.876188	0.804816	0.619087
	C188	C	0.173929	0.367567	0.885702
	C189	C	0.173084	0.596726	0.122834
	C190	C	0.821152	0.367250	0.123772
	C191	C	0.820167	0.596038	0.886397
	C192	C	0.395286	0.077165	0.607202
	C193	C	0.596675	0.888729	0.606092
	C194	C	0.596356	0.076646	0.405023
	C195	C	0.397520	0.888757	0.405575
	C196	C	0.596811	0.381826	0.099486
	C197	C	0.596514	0.581898	0.910010
	C198	C	0.397434	0.582652	0.099088
	C199	C	0.399458	0.382651	0.909991
	C200	C	0.092374	0.581410	0.405759
	C201	C	0.901825	0.581667	0.603259
	C202	C	0.092499	0.382748	0.602445
	C203	C	0.902022	0.381863	0.404761
	C204	C	0.897209	0.576043	0.105166
	C205	C	0.097383	0.388055	0.104718
	C206	C	0.096990	0.576154	0.903102
	C207	C	0.899175	0.388016	0.904655
	C208	C	0.095771	0.881618	0.599446
	C209	C	0.095852	0.081865	0.410513
	C210	C	0.897294	0.083232	0.599993
	C211	C	0.898510	0.882312	0.410456
	C212	C	0.592200	0.080887	0.906937
	C213	C	0.401774	0.082144	0.103968
	C214	C	0.591296	0.882719	0.103745
	C215	C	0.401569	0.882287	0.907107
	Zn216	Zn	0.496160	-0.017811	0.757417
	Zn217	Zn	0.496431	-0.017166	0.254633
	Zn218	Zn	0.747120	0.481677	0.005049
	Zn219	Zn	0.247664	0.482254	0.003903
	Zn220	Zn	-0.003223	0.731336	0.504340
	Zn221	Zn	-0.002956	0.232753	0.504913
	Zn222	Zn	-0.002466	0.482094	0.752505
	Zn223	Zn	-0.002817	0.482079	0.255475
	Zn224	Zn	0.496893	0.732168	0.004724
	Zn225	Zn	0.497501	0.231645	0.004954
	Zn226	Zn	0.747687	-0.017407	0.504869
	Zn227	Zn	0.246223	-0.017397	0.505807
	N228	N	0.409987	0.945596	0.685432
	N229	N	0.582403	0.019485	0.685088
	N230	N	0.583616	0.945886	0.325329
	N231	N	0.409306	0.019268	0.325862
	N232	N	0.674829	0.397518	0.966935
	N233	N	0.673950	0.566244	0.042451
	N234	N	0.320234	0.567036	0.966575
	N235	N	0.320219	0.397841	0.041915
	N236	N	0.960208	0.660781	0.417812
	N237	N	0.033997	0.660834	0.590613
	N238	N	0.959711	0.304630	0.590080
	N239	N	0.034652	0.302983	0.418043
	N240	N	0.959667	0.397580	0.681030
	N241	N	0.034554	0.567205	0.681088
	N242	N	0.959537	0.566476	0.327929
	N243	N	0.035472	0.397311	0.327263
	N244	N	0.410028	0.662272	0.968015
	N245	N	0.583752	0.661490	0.041494
	N246	N	0.585310	0.301575	0.968264
	N247	N	0.410833	0.302920	0.041427
	N248	N	0.674790	0.945142	0.420237
	N249	N	0.674740	0.020227	0.590626
	N250	N	0.318056	0.945442	0.591897
	N251	N	0.319600	0.020578	0.421960
	N252	N	0.911153	0.445251	0.184075
	N253	N	0.083528	0.518844	0.183935
	N254	N	0.084413	0.445487	0.823696
	N255	N	0.910921	0.518679	0.824986
	N256	N	0.174738	0.897107	0.467439
	N257	N	0.171415	0.064975	0.543775
	N258	N	0.819546	0.067242	0.467553
	N259	N	0.820849	0.899165	0.543022
	N260	N	0.460544	0.161248	0.919051
	N261	N	0.534115	0.160785	0.091453
	N262	N	0.459434	0.802988	0.091573
	N263	N	0.534223	0.803618	0.919464
	N264	N	0.458641	0.897671	0.182699
	N265	N	0.534406	0.067350	0.182440
	N266	N	0.458511	0.065978	0.830209
	N267	N	0.534468	0.896777	0.828777
	N268	N	0.909975	0.162106	0.468259
	N269	N	0.083847	0.162204	0.541513
	N270	N	0.083795	0.802499	0.467935
	N271	N	0.909421	0.802172	0.541114
	N272	N	0.175118	0.444770	0.919013
	N273	N	0.175169	0.519515	0.089342
	N274	N	0.819020	0.444552	0.090532
	N275	N	0.819948	0.519090	0.920450
	O276	O	1.047104	0.970785	0.024927
	H277	H	1.036748	0.969614	0.030844
	H278	H	1.042492	0.962871	0.025671
	O279	O	-0.113377	-0.044072	0.025979
	H280	H	-0.121038	-0.039592	0.021544
	H281	H	-0.107592	-0.042518	0.020264
	O282	O	0.049502	-0.019405	1.078194
	H283	H	0.035105	-0.012714	1.085123
	H284	H	0.045024	-0.014292	1.073869
	O285	O	1.510122	1.509321	0.450995
	H286	H	1.515655	1.505926	0.447205
	H287	H	1.504454	1.507547	0.443072
	O288	O	0.036345	0.988259	-0.052445
	H289	H	0.039257	0.988833	-0.049374
	H290	H	0.045652	0.980479	-0.066054
	O291	O	0.502635	0.505215	0.461144
	H292	H	0.505027	0.507079	0.461454
	H293	H	0.501527	0.519445	0.456166
	O294	O	0.037577	-0.035068	-0.046377
	H295	H	0.046077	-0.045000	-0.047495
	H296	H	0.028184	-0.033816	-0.038811
	O297	O	-0.001588	0.938972	0.999724
	H298	H	0.004890	0.947300	0.991139
	H299	H	-0.003823	0.933723	1.000618
	O300	O	0.035448	0.958497	1.013638
	H301	H	0.033499	0.968893	1.013001
	H302	H	0.033872	0.954868	1.022159
	O303	O	0.520381	0.539197	0.422460
	H304	H	0.521429	0.539312	0.429517
	H305	H	0.522450	0.540933	0.421532
	O306	O	0.001360	-0.004972	0.975015
	H307	H	0.003701	-0.010340	0.978815
	H308	H	0.020071	-0.010210	0.967779
	O309	O	0.995828	1.017341	1.008015
	H310	H	1.001688	1.020924	1.015986
	H311	H	0.994953	1.022418	1.000479
	O312	O	0.492271	0.523372	0.431145
	H313	H	0.494347	0.527534	0.427173
	H314	H	0.483554	0.522898	0.428786
	O315	O	0.493475	0.522507	0.447096
	H316	H	0.504649	0.518708	0.447898
	H317	H	0.489080	0.525066	0.438171
	O318	O	0.522681	1.482472	-0.582576
	H319	H	0.537005	1.482049	-0.577250
	H320	H	0.507710	1.485376	-0.584896
	O321	O	0.984848	0.989743	0.044950
	H322	H	0.983875	0.982809	0.043586
	H323	H	0.984295	0.992126	0.047128
