data_Molecule from HDF5

_cell_length_a		16.136129
_cell_length_b		16.374660
_cell_length_c		16.141343
_cell_angle_alpha	90.173383
_cell_angle_beta	89.439567
_cell_angle_gamma	89.921449
_symmetry_space_group_name_H-M	'P 1'
_symmetry_Int_Tables_number		1

loop_
	_symmetry_equiv_pos_as_xyz
	x,y,z

loop_
	_atom_site_label
	_atom_site_type_symbol
	_atom_site_fract_x
	_atom_site_fract_y
	_atom_site_fract_z
	H0	H	0.402286	0.833416	0.711035
	H1	H	0.599990	0.158479	0.709047
	H2	H	0.600944	0.834090	0.279225
	H3	H	0.403535	0.159587	0.280868
	H4	H	0.719733	0.398145	0.831032
	H5	H	0.712173	0.592793	0.161265
	H6	H	0.293174	0.593475	0.829342
	H7	H	0.288397	0.399885	0.160321
	H8	H	0.838637	0.710326	0.397230
	H9	H	0.166584	0.713769	0.595245
	H10	H	0.839698	0.280207	0.598860
	H11	H	0.167191	0.280213	0.392796
	H12	H	0.838867	0.399957	0.710413
	H13	H	0.169652	0.593212	0.705171
	H14	H	0.836460	0.591451	0.287358
	H15	H	0.167798	0.398899	0.281088
	H16	H	0.405142	0.711377	0.830994
	H17	H	0.603849	0.713233	0.158504
	H18	H	0.607155	0.280213	0.831202
	H19	H	0.401461	0.281446	0.160113
	H20	H	0.718502	0.833665	0.393379
	H21	H	0.716237	0.159271	0.593806
	H22	H	0.285511	0.834249	0.596500
	H23	H	0.289760	0.159995	0.399268
	H24	H	0.904169	0.333157	0.209869
	H25	H	0.099069	0.659554	0.210499
	H26	H	0.105897	0.334179	0.778021
	H27	H	0.907671	0.659585	0.783021
	H28	H	0.217840	0.898021	0.330056
	H29	H	0.213011	0.093873	0.660267
	H30	H	0.792720	0.092436	0.329147
	H31	H	0.787503	0.899967	0.659924
	H32	H	0.339701	0.214021	0.894475
	H33	H	0.667330	0.211826	0.095360
	H34	H	0.339322	0.781331	0.096716
	H35	H	0.667742	0.780495	0.891584
	H36	H	0.337712	0.900066	0.208967
	H37	H	0.668461	0.093704	0.205846
	H38	H	0.337796	0.093128	0.784741
	H39	H	0.668469	0.899099	0.779619
	H40	H	0.902891	0.211738	0.331471
	H41	H	0.103249	0.212660	0.658001
	H42	H	0.105253	0.780146	0.331211
	H43	H	0.899688	0.781786	0.659224
	H44	H	0.219684	0.334240	0.894554
	H45	H	0.216225	0.660216	0.093733
	H46	H	0.788486	0.333716	0.094932
	H47	H	0.790521	0.659740	0.898878
	H48	H	0.397846	0.114167	0.588105
	H49	H	0.592872	0.878946	0.590405
	H50	H	0.599812	0.114086	0.401210
	H51	H	0.414230	0.880282	0.395164
	H52	H	0.589810	0.408306	0.110414
	H53	H	0.602477	0.591065	0.874852
	H54	H	0.401406	0.582941	0.112797
	H55	H	0.416824	0.400713	0.878463
	H56	H	0.123672	0.596191	0.399284
	H57	H	0.883526	0.593072	0.588698
	H58	H	0.122798	0.400283	0.585605
	H59	H	0.883702	0.395313	0.404697
	H60	H	0.120042	0.402914	0.581328
	H61	H	0.886616	0.588494	0.588408
	H62	H	0.118144	0.589595	0.411471
	H63	H	0.885177	0.403005	0.408058
	H64	H	0.419224	0.587781	0.109758
	H65	H	0.597008	0.582472	0.878771
	H66	H	0.592144	0.395791	0.114792
	H67	H	0.411135	0.401120	0.876278
	H68	H	0.598356	0.114436	0.397929
	H69	H	0.592366	0.882700	0.582668
	H70	H	0.411933	0.114365	0.598728
	H71	H	0.413497	0.882832	0.407882
	H72	H	0.910931	0.610338	0.084049
	H73	H	0.099568	0.378377	0.093366
	H74	H	0.095271	0.611929	0.901309
	H75	H	0.913206	0.381936	0.907310
	H76	H	0.091310	0.906216	0.610779
	H77	H	0.093644	0.086666	0.378170
	H78	H	0.912542	0.090240	0.612592
	H79	H	0.901448	0.907260	0.375384
	H80	H	0.622736	0.091451	0.898456
	H81	H	0.385136	0.090571	0.087197
	H82	H	0.620959	0.907114	0.089239
	H83	H	0.384124	0.904172	0.896938
	H84	H	0.623643	0.897185	0.086419
	H85	H	0.385050	0.089347	0.087568
	H86	H	0.620968	0.091793	0.906863
	H87	H	0.384878	0.895144	0.907140
	H88	H	0.906716	0.091070	0.614151
	H89	H	0.094430	0.091833	0.375888
	H90	H	0.090649	0.900430	0.612842
	H91	H	0.920972	0.906188	0.380825
	H92	H	0.100749	0.612720	0.903266
	H93	H	0.090222	0.381972	0.087814
	H94	H	0.898413	0.615608	0.093318
	H95	H	0.907317	0.378745	0.902022
	H96	H	0.413528	0.108374	0.582252
	H97	H	0.598966	0.879164	0.585285
	H98	H	0.596152	0.112674	0.400736
	H99	H	0.403535	0.879037	0.402083
	H100	H	0.601564	0.404380	0.115412
	H101	H	0.591989	0.592172	0.877363
	H102	H	0.407576	0.600660	0.117283
	H103	H	0.413915	0.406043	0.879087
	H104	H	0.120428	0.581750	0.398409
	H105	H	0.884452	0.589306	0.593063
	H106	H	0.120451	0.404894	0.585504
	H107	H	0.883123	0.403117	0.399652
	H108	H	0.913123	0.614211	0.099714
	H109	H	0.100080	0.380361	0.082334
	H110	H	0.099254	0.614729	0.897923
	H111	H	0.915087	0.380061	0.899587
	H112	H	0.095751	0.903116	0.614634
	H113	H	0.099521	0.088310	0.376363
	H114	H	0.909337	0.085690	0.611942
	H115	H	0.912500	0.889949	0.373045
	H116	H	0.619347	0.084129	0.901796
	H117	H	0.384624	0.090171	0.088625
	H118	H	0.619286	0.903400	0.078446
	H119	H	0.388583	0.907962	0.909203
	C120	C	0.379385	0.004638	0.618443
	C121	C	0.623481	0.987694	0.615388
	C122	C	0.625993	0.005791	0.371306
	C123	C	0.381592	0.988280	0.373735
	C124	C	0.625349	0.374007	0.004518
	C125	C	0.624731	0.617442	0.986135
	C126	C	0.382225	0.618281	0.003988
	C127	C	0.382878	0.374752	0.987027
	C128	C	0.011495	0.616846	0.375219
	C129	C	0.994382	0.618459	0.617109
	C130	C	0.012315	0.374476	0.615843
	C131	C	0.993609	0.373249	0.374156
	C132	C	0.879753	0.505333	0.119442
	C133	C	0.124505	0.488191	0.116948
	C134	C	0.127482	0.505589	0.871679
	C135	C	0.883458	0.488046	0.874648
	C136	C	0.124087	0.874139	0.504025
	C137	C	0.124033	0.117241	0.485833
	C138	C	0.881840	0.117190	0.503645
	C139	C	0.881184	0.874263	0.485893
	C140	C	0.512193	0.118062	0.874025
	C141	C	0.494442	0.118097	0.116378
	C142	C	0.512412	0.874676	0.115778
	C143	C	0.494632	0.874197	0.873383
	C144	C	0.381742	0.882351	0.673760
	C145	C	0.620818	0.110102	0.671050
	C146	C	0.622503	0.882805	0.316302
	C147	C	0.383358	0.110967	0.318880
	C148	C	0.681891	0.376870	0.880334
	C149	C	0.676759	0.614309	0.111336
	C150	C	0.329245	0.614746	0.879182
	C151	C	0.326135	0.378358	0.110936
	C152	C	0.887300	0.671645	0.377874
	C153	C	0.117985	0.674750	0.614905
	C154	C	0.888598	0.319106	0.616983
	C155	C	0.117921	0.318388	0.373905
	C156	C	0.888207	0.378414	0.672791
	C157	C	0.119569	0.614735	0.669413
	C158	C	0.886308	0.612593	0.323213
	C159	C	0.118141	0.377297	0.318285
	C160	C	0.385007	0.673230	0.880071
	C161	C	0.623010	0.674211	0.109733
	C162	C	0.625753	0.318429	0.880532
	C163	C	0.382587	0.319774	0.110787
	C164	C	0.680755	0.882695	0.373245
	C165	C	0.678263	0.110468	0.613458
	C166	C	0.323436	0.882672	0.616759
	C167	C	0.326464	0.111029	0.377410
	C168	C	0.883283	0.382104	0.173190
	C169	C	0.120536	0.610985	0.172402
	C170	C	0.125943	0.383105	0.815697
	C171	C	0.886914	0.611057	0.820838
	C172	C	0.180280	0.877134	0.379632
	C173	C	0.177124	0.114460	0.610500
	C174	C	0.829015	0.113467	0.378952
	C175	C	0.824899	0.878214	0.610191
	C176	C	0.388591	0.174810	0.875654
	C177	C	0.618295	0.173330	0.114665
	C178	C	0.388371	0.819279	0.116021
	C179	C	0.618568	0.818610	0.872629
	C180	C	0.387512	0.878103	0.171935
	C181	C	0.619036	0.114628	0.169407
	C182	C	0.387605	0.115055	0.820635
	C183	C	0.619030	0.877652	0.816928
	C184	C	0.883687	0.172889	0.380155
	C185	C	0.122571	0.173455	0.609489
	C186	C	0.124140	0.818513	0.380081
	C187	C	0.881049	0.819742	0.609952
	C188	C	0.182462	0.382967	0.873767
	C189	C	0.178350	0.611351	0.113933
	C190	C	0.825854	0.382285	0.115681
	C191	C	0.828701	0.611063	0.878383
	C192	C	0.401380	0.090238	0.596264
	C193	C	0.601139	0.902317	0.592825
	C194	C	0.604332	0.091557	0.393413
	C195	C	0.403901	0.902885	0.395288
	C196	C	0.601676	0.396360	0.091088
	C197	C	0.603483	0.595118	0.899599
	C198	C	0.403268	0.596682	0.090840
	C199	C	0.406887	0.396421	0.900175
	C200	C	0.098383	0.595369	0.396550
	C201	C	0.907417	0.596924	0.596282
	C202	C	0.098816	0.396346	0.591328
	C203	C	0.906352	0.394340	0.397495
	C204	C	0.900992	0.591163	0.098532
	C205	C	0.102959	0.402614	0.094477
	C206	C	0.105030	0.591024	0.894203
	C207	C	0.905354	0.402369	0.896347
	C208	C	0.099628	0.896533	0.590357
	C209	C	0.102388	0.095283	0.399285
	C210	C	0.903320	0.095596	0.590409
	C211	C	0.904817	0.895100	0.398819
	C212	C	0.598648	0.095650	0.895768
	C213	C	0.407482	0.096417	0.094525
	C214	C	0.598857	0.896323	0.092010
	C215	C	0.408126	0.896108	0.897243
	Zn216	Zn	0.502697	-0.003976	0.745880
	Zn217	Zn	0.503248	-0.002519	0.243265
	Zn218	Zn	0.752496	0.496388	-0.003896
	Zn219	Zn	0.254835	0.496810	-0.005762
	Zn220	Zn	0.002580	0.746013	0.495028
	Zn221	Zn	0.003335	0.245174	0.494999
	Zn222	Zn	0.004735	0.496122	0.744633
	Zn223	Zn	0.001902	0.496223	0.247385
	Zn224	Zn	0.503795	0.745812	-0.005251
	Zn225	Zn	0.504017	0.245896	-0.004084
	Zn226	Zn	0.753419	-0.003403	0.494521
	Zn227	Zn	0.251392	-0.003316	0.495383
	N228	N	0.415880	0.959512	0.674987
	N229	N	0.587281	0.032962	0.672318
	N230	N	0.589359	0.960200	0.314726
	N231	N	0.416836	0.033708	0.316224
	N232	N	0.681614	0.410951	0.958285
	N233	N	0.678393	0.579685	0.033529
	N234	N	0.327492	0.581140	0.957301
	N235	N	0.326331	0.411884	0.032799
	N236	N	0.966051	0.674428	0.409591
	N237	N	0.039171	0.677232	0.583131
	N238	N	0.966833	0.316582	0.582447
	N239	N	0.039338	0.315714	0.407833
	N240	N	0.966258	0.412211	0.672123
	N241	N	0.041690	0.580501	0.671001
	N242	N	0.964611	0.579097	0.321507
	N243	N	0.039904	0.410713	0.318392
	N244	N	0.417088	0.675568	0.958593
	N245	N	0.591156	0.676042	0.030947
	N246	N	0.591466	0.316379	0.958993
	N247	N	0.417151	0.317574	0.032631
	N248	N	0.683063	0.960193	0.406715
	N249	N	0.680033	0.033185	0.579510
	N250	N	0.322286	0.959474	0.582630
	N251	N	0.325144	0.033816	0.410775
	N252	N	0.916239	0.459387	0.175447
	N253	N	0.087661	0.533505	0.174284
	N254	N	0.092141	0.460296	0.814447
	N255	N	0.920197	0.533741	0.818553
	N256	N	0.180490	0.911056	0.457711
	N257	N	0.178033	0.080210	0.532507
	N258	N	0.827789	0.079600	0.456809
	N259	N	0.824887	0.911299	0.532075
	N260	N	0.467143	0.176788	0.908047
	N261	N	0.539749	0.175484	0.082332
	N262	N	0.466753	0.817221	0.081625
	N263	N	0.540278	0.816319	0.906992
	N264	N	0.465604	0.911903	0.172052
	N265	N	0.540926	0.080873	0.170484
	N266	N	0.465383	0.080436	0.819563
	N267	N	0.540994	0.911649	0.817437
	N268	N	0.916109	0.175256	0.458720
	N269	N	0.090320	0.175472	0.531070
	N270	N	0.089879	0.816636	0.458490
	N271	N	0.915270	0.817036	0.531408
	N272	N	0.183460	0.459911	0.907796
	N273	N	0.180847	0.534134	0.079990
	N274	N	0.823307	0.459963	0.083170
	N275	N	0.826424	0.533562	0.911368
	O276	O	0.970598	0.954866	-0.065122
	H277	H	0.970995	0.957124	-0.071616
	H278	H	0.973376	0.961859	-0.069098
	O279	O	0.057563	0.028943	1.030321
	H280	H	0.057819	0.020577	1.033887
	H281	H	0.054487	0.022134	1.031828
	O282	O	0.016960	0.018859	0.033846
	H283	H	0.020138	0.013949	0.041497
	H284	H	0.011343	0.014729	0.039656
	O285	O	0.470311	0.515836	0.510034
	H286	H	0.462731	0.513576	0.504765
	H287	H	0.463896	0.523501	0.510875
	O288	O	-0.015888	0.010344	-0.029615
	H289	H	-0.011919	0.006175	-0.026240
	H290	H	-0.010779	0.011769	-0.027001
	O291	O	0.026288	0.955047	-0.012707
	H292	H	0.018827	0.950448	-0.015276
	H293	H	0.033165	0.951062	-0.015590
	O294	O	0.003057	0.971484	-0.050937
	H295	H	0.006575	0.965213	-0.051785
	H296	H	0.005099	0.983821	-0.055398
	O297	O	0.461297	0.514988	0.531330
	H298	H	0.469179	0.523764	0.532132
	H299	H	0.454165	0.511926	0.534234
	O300	O	0.502552	0.507728	0.498160
	H301	H	0.500602	0.511009	0.498610
	H302	H	0.501883	0.511150	0.499327
	O303	O	1.047428	0.025605	0.899400
	H304	H	1.043438	0.032548	0.895210
	H305	H	1.050429	0.029210	0.896752
	O306	O	-0.033665	1.007926	0.900966
	H307	H	-0.036119	1.008042	0.902816
	H308	H	-0.041532	1.012524	0.901135
	O309	O	0.059044	1.054240	1.015395
	H310	H	0.067996	1.057195	1.012036
	H311	H	0.053668	1.059361	1.020273
	O312	O	-0.047458	0.029622	0.992094
	H313	H	-0.045523	0.036200	0.998493
	H314	H	-0.044238	0.027130	0.987961
	O315	O	0.510936	0.512054	0.560768
	H316	H	0.504941	0.502890	0.559991
	H317	H	0.502027	0.511860	0.565686
	O318	O	0.042252	0.049248	1.031688
	H319	H	0.041737	0.049536	1.029706
	H320	H	0.045892	0.034191	1.024601
	O321	O	0.475574	0.507439	0.530352
	H322	H	0.478383	0.508305	0.528044
	H323	H	0.478868	0.507707	0.525019
	O324	O	0.987915	-0.024181	1.014879
	H325	H	0.985767	-0.022422	1.007246
	H326	H	0.991802	-0.020786	1.016758
	O327	O	0.982973	1.025360	0.987146
	H328	H	0.980340	1.020947	0.996287
	H329	H	0.986022	1.033550	0.992908
	O330	O	0.509863	0.530098	0.465807
	H331	H	0.506684	0.521619	0.466408
	H332	H	0.517300	0.532477	0.464975
	O333	O	0.454253	0.490122	0.446716
	H334	H	0.455406	0.487153	0.442157
	H335	H	0.456935	0.491152	0.445508
	O336	O	0.524493	0.513217	0.493014
	H337	H	0.526181	0.510027	0.494747
	H338	H	0.532279	0.513041	0.496645
	O339	O	0.474034	0.485414	0.502392
	H340	H	0.470129	0.487358	0.507381
	H341	H	0.470216	0.495424	0.498528
	O342	O	0.535105	0.489162	0.512806
	H343	H	0.538168	0.486220	0.512271
	H344	H	0.532868	0.489189	0.514666
	O345	O	0.525611	0.554747	0.524502
	H346	H	0.526346	0.557484	0.529557
	H347	H	0.529735	0.558100	0.528090
