data_Molecule from HDF5

_cell_length_a		16.257978
_cell_length_b		16.228599
_cell_length_c		16.253676
_cell_angle_alpha	90.439105
_cell_angle_beta	90.249072
_cell_angle_gamma	89.852681
_symmetry_space_group_name_H-M	'P 1'
_symmetry_Int_Tables_number		1

loop_
	_symmetry_equiv_pos_as_xyz
	x,y,z

loop_
	_atom_site_label
	_atom_site_type_symbol
	_atom_site_fract_x
	_atom_site_fract_y
	_atom_site_fract_z
	H0	H	0.394686	0.819440	0.720813
	H1	H	0.597464	0.143710	0.726967
	H2	H	0.593857	0.819801	0.288923
	H3	H	0.392502	0.146616	0.294912
	H4	H	0.709227	0.379650	0.845021
	H5	H	0.709583	0.583739	0.171961
	H6	H	0.274172	0.583104	0.845145
	H7	H	0.279663	0.383592	0.171833
	H8	H	0.831684	0.698351	0.406568
	H9	H	0.157801	0.697378	0.610717
	H10	H	0.831041	0.266393	0.607717
	H11	H	0.158350	0.264745	0.408768
	H12	H	0.830372	0.382072	0.722652
	H13	H	0.156901	0.582891	0.726659
	H14	H	0.830488	0.580665	0.293719
	H15	H	0.157194	0.378731	0.291296
	H16	H	0.391071	0.698469	0.844965
	H17	H	0.593257	0.700129	0.171187
	H18	H	0.592894	0.264855	0.844435
	H19	H	0.394622	0.268274	0.171691
	H20	H	0.712320	0.819659	0.402890
	H21	H	0.711076	0.144463	0.610975
	H22	H	0.279350	0.819488	0.608349
	H23	H	0.276733	0.145042	0.407337
	H24	H	0.894642	0.318412	0.221929
	H25	H	0.095937	0.644216	0.227835
	H26	H	0.092789	0.318796	0.792591
	H27	H	0.892693	0.645920	0.794723
	H28	H	0.208501	0.881063	0.343803
	H29	H	0.210548	0.082586	0.671115
	H30	H	0.778341	0.081209	0.344893
	H31	H	0.777608	0.879861	0.669584
	H32	H	0.330071	0.196682	0.907524
	H33	H	0.657482	0.196847	0.107447
	H34	H	0.329762	0.768352	0.106520
	H35	H	0.656215	0.764575	0.907014
	H36	H	0.329643	0.884358	0.221680
	H37	H	0.656461	0.083767	0.225422
	H38	H	0.331612	0.082236	0.789384
	H39	H	0.656786	0.879215	0.791396
	H40	H	0.894485	0.195551	0.344839
	H41	H	0.095694	0.198256	0.671300
	H42	H	0.093722	0.763882	0.345114
	H43	H	0.895049	0.768017	0.671594
	H44	H	0.208632	0.318320	0.908364
	H45	H	0.208752	0.645557	0.111310
	H46	H	0.778771	0.318294	0.108276
	H47	H	0.777148	0.644862	0.909303
	H48	H	0.403847	0.099617	0.601162
	H49	H	0.581907	0.866134	0.598618
	H50	H	0.581603	0.096140	0.420338
	H51	H	0.401143	0.864215	0.410326
	H52	H	0.582165	0.381878	0.125496
	H53	H	0.587663	0.570711	0.892260
	H54	H	0.410812	0.571779	0.119068
	H55	H	0.396439	0.388754	0.890204
	H56	H	0.109555	0.568580	0.416911
	H57	H	0.879610	0.574834	0.594547
	H58	H	0.107651	0.396214	0.599712
	H59	H	0.877628	0.394023	0.408487
	H60	H	0.112563	0.388841	0.607204
	H61	H	0.877804	0.570632	0.604592
	H62	H	0.111401	0.574427	0.415695
	H63	H	0.876107	0.381113	0.414143
	H64	H	0.400723	0.586584	0.127969
	H65	H	0.582109	0.569915	0.894368
	H66	H	0.596158	0.390612	0.127731
	H67	H	0.402138	0.393119	0.892762
	H68	H	0.590170	0.098509	0.421149
	H69	H	0.587913	0.866463	0.593185
	H70	H	0.405758	0.097937	0.597942
	H71	H	0.407002	0.867310	0.415436
	H72	H	0.909189	0.598916	0.109074
	H73	H	0.080050	0.365931	0.104802
	H74	H	0.084833	0.597187	0.927038
	H75	H	0.897039	0.362393	0.911645
	H76	H	0.083702	0.884679	0.624424
	H77	H	0.089421	0.067732	0.392608
	H78	H	0.898489	0.078340	0.627385
	H79	H	0.901555	0.887842	0.391362
	H80	H	0.611217	0.075765	0.915668
	H81	H	0.374272	0.080120	0.106173
	H82	H	0.607390	0.891660	0.094545
	H83	H	0.377269	0.894801	0.910825
	H84	H	0.609124	0.895845	0.101378
	H85	H	0.377556	0.078996	0.095794
	H86	H	0.609589	0.073160	0.919178
	H87	H	0.375404	0.886884	0.911096
	H88	H	0.901614	0.068182	0.623155
	H89	H	0.080312	0.073447	0.392647
	H90	H	0.095367	0.889108	0.627494
	H91	H	0.902828	0.891194	0.392196
	H92	H	0.092312	0.601675	0.914337
	H93	H	0.084160	0.368951	0.090824
	H94	H	0.904595	0.594615	0.091847
	H95	H	0.905165	0.365460	0.911967
	H96	H	0.401161	0.098189	0.597399
	H97	H	0.590348	0.864204	0.601046
	H98	H	0.585486	0.099963	0.412805
	H99	H	0.399569	0.865631	0.417285
	H100	H	0.583099	0.398352	0.120500
	H101	H	0.583614	0.574986	0.891134
	H102	H	0.392764	0.568658	0.124713
	H103	H	0.403308	0.385802	0.891758
	H104	H	0.109076	0.572470	0.422463
	H105	H	0.875210	0.581365	0.603144
	H106	H	0.110465	0.385297	0.595986
	H107	H	0.880835	0.391927	0.421658
	H108	H	0.892116	0.601923	0.103005
	H109	H	0.094178	0.361371	0.100612
	H110	H	0.076678	0.597177	0.913748
	H111	H	0.901754	0.366710	0.920173
	H112	H	0.087648	0.897023	0.621921
	H113	H	0.089532	0.077234	0.388991
	H114	H	0.909124	0.077499	0.623468
	H115	H	0.905354	0.888181	0.391855
	H116	H	0.610184	0.071729	0.915303
	H117	H	0.377743	0.070663	0.102261
	H118	H	0.611310	0.888401	0.100791
	H119	H	0.378761	0.890632	0.918063
	C120	C	0.373860	-0.009073	0.628140
	C121	C	0.616908	0.972975	0.629372
	C122	C	0.615961	-0.009163	0.386418
	C123	C	0.372462	0.973810	0.385804
	C124	C	0.615915	0.359984	0.016583
	C125	C	0.614677	0.602846	0.999944
	C126	C	0.370903	0.604652	0.016384
	C127	C	0.372002	0.360972	1.000061
	C128	C	0.002613	0.602207	0.387731
	C129	C	0.985502	0.604563	0.631087
	C130	C	0.002241	0.360684	0.629615
	C131	C	0.985673	0.358601	0.385357
	C132	C	0.872860	0.490270	0.129595
	C133	C	0.115975	0.472975	0.130472
	C134	C	0.114290	0.490712	0.887913
	C135	C	0.871538	0.472944	0.886150
	C136	C	0.117313	0.859766	0.516704
	C137	C	0.116434	0.103186	0.499245
	C138	C	0.873351	0.103070	0.516862
	C139	C	0.873652	0.860237	0.499362
	C140	C	0.502644	0.102894	0.886302
	C141	C	0.484677	0.105535	0.130818
	C142	C	0.501323	0.862594	0.128113
	C143	C	0.485068	0.860234	0.884895
	C144	C	0.375029	0.868250	0.683407
	C145	C	0.616441	0.095155	0.687808
	C146	C	0.614604	0.868556	0.327723
	C147	C	0.373003	0.097293	0.331589
	C148	C	0.671386	0.360221	0.893740
	C149	C	0.671449	0.603282	0.122763
	C150	C	0.313162	0.603135	0.893852
	C151	C	0.317243	0.363568	0.122878
	C152	C	0.879985	0.659223	0.387870
	C153	C	0.108491	0.660026	0.630579
	C154	C	0.879759	0.304607	0.627592
	C155	C	0.108998	0.302297	0.387812
	C156	C	0.879301	0.362334	0.684802
	C157	C	0.108041	0.603195	0.688579
	C158	C	0.879670	0.600773	0.331320
	C159	C	0.108534	0.359137	0.329562
	C160	C	0.371364	0.660253	0.893556
	C161	C	0.613587	0.661240	0.122542
	C162	C	0.613492	0.303090	0.893527
	C163	C	0.374525	0.305989	0.122721
	C164	C	0.673315	0.868394	0.384611
	C165	C	0.672872	0.095744	0.629776
	C166	C	0.317682	0.868270	0.627124
	C167	C	0.315126	0.096491	0.387388
	C168	C	0.874565	0.367313	0.184354
	C169	C	0.115151	0.595559	0.188680
	C170	C	0.112921	0.367430	0.831197
	C171	C	0.872508	0.596535	0.831657
	C172	C	0.171291	0.861187	0.393200
	C173	C	0.172593	0.102416	0.622218
	C174	C	0.816420	0.101405	0.394060
	C175	C	0.816937	0.861182	0.621355
	C176	C	0.379160	0.158893	0.887257
	C177	C	0.608275	0.159699	0.128447
	C178	C	0.378604	0.806549	0.126359
	C179	C	0.607450	0.802796	0.886814
	C180	C	0.378596	0.864306	0.183785
	C181	C	0.607621	0.103593	0.187063
	C182	C	0.379993	0.101849	0.828707
	C183	C	0.608017	0.860344	0.829685
	C184	C	0.874322	0.158163	0.393725
	C185	C	0.115173	0.159792	0.622370
	C186	C	0.114274	0.802726	0.393718
	C187	C	0.875314	0.805156	0.622280
	C188	C	0.170765	0.367411	0.888242
	C189	C	0.171217	0.596282	0.130439
	C190	C	0.816884	0.367466	0.127553
	C191	C	0.815135	0.596004	0.888756
	C192	C	0.396838	0.076411	0.605345
	C193	C	0.593542	0.887680	0.604874
	C194	C	0.592574	0.076138	0.411166
	C195	C	0.395670	0.887932	0.407912
	C196	C	0.593829	0.383465	0.102202
	C197	C	0.591100	0.578874	0.914947
	C198	C	0.394487	0.582381	0.101684
	C199	C	0.394283	0.382764	0.913925
	C200	C	0.088025	0.578836	0.411549
	C201	C	0.899844	0.582174	0.607610
	C202	C	0.087951	0.383441	0.607432
	C203	C	0.900405	0.382073	0.408161
	C204	C	0.895582	0.576374	0.107786
	C205	C	0.093027	0.387676	0.105974
	C206	C	0.091206	0.576332	0.911413
	C207	C	0.894573	0.387109	0.907915
	C208	C	0.095315	0.883177	0.602504
	C209	C	0.093155	0.079604	0.413607
	C210	C	0.896347	0.081174	0.602455
	C211	C	0.896563	0.882639	0.413879
	C212	C	0.587959	0.080145	0.909682
	C213	C	0.398830	0.083238	0.107997
	C214	C	0.587113	0.885114	0.105405
	C215	C	0.399436	0.883880	0.906817
	Zn216	Zn	0.494467	-0.018669	0.756564
	Zn217	Zn	0.492855	-0.016863	0.258024
	Zn218	Zn	0.744650	0.481407	0.008156
	Zn219	Zn	0.243140	0.482376	0.008440
	Zn220	Zn	-0.005591	0.731619	0.509007
	Zn221	Zn	-0.005731	0.231267	0.508284
	Zn222	Zn	-0.006863	0.482180	0.758608
	Zn223	Zn	-0.005647	0.481425	0.258037
	Zn224	Zn	0.493007	0.733065	0.007147
	Zn225	Zn	0.493650	0.232183	0.007962
	Zn226	Zn	0.745026	-0.018526	0.508152
	Zn227	Zn	0.245303	-0.017675	0.507493
	N228	N	0.409424	0.945549	0.684172
	N229	N	0.582097	0.017755	0.687555
	N230	N	0.579666	0.945712	0.328730
	N231	N	0.407909	0.019996	0.330401
	N232	N	0.673000	0.394869	0.971150
	N233	N	0.672410	0.567797	0.045569
	N234	N	0.312797	0.569201	0.971076
	N235	N	0.315707	0.397168	0.045521
	N236	N	0.957489	0.660358	0.422149
	N237	N	0.031249	0.660994	0.595575
	N238	N	0.957042	0.303733	0.593777
	N239	N	0.031504	0.301585	0.421703
	N240	N	0.956617	0.396550	0.686315
	N241	N	0.030472	0.569294	0.689083
	N242	N	0.956966	0.566000	0.331013
	N243	N	0.031005	0.393269	0.327634
	N244	N	0.406750	0.661237	0.970567
	N245	N	0.579016	0.661341	0.045215
	N246	N	0.579725	0.302647	0.971073
	N247	N	0.407882	0.304180	0.045099
	N248	N	0.674340	0.945472	0.420266
	N249	N	0.673243	0.018700	0.594190
	N250	N	0.316898	0.945683	0.593266
	N251	N	0.314671	0.018808	0.420642
	N252	N	0.908768	0.444830	0.185631
	N253	N	0.081420	0.517954	0.188890
	N254	N	0.078666	0.445035	0.830800
	N255	N	0.906866	0.518974	0.829845
	N256	N	0.173335	0.895879	0.470700
	N257	N	0.173258	0.067804	0.544808
	N258	N	0.815771	0.067814	0.471559
	N259	N	0.815618	0.894655	0.543848
	N260	N	0.456225	0.159746	0.922311
	N261	N	0.530763	0.161272	0.094452
	N262	N	0.456091	0.805555	0.092253
	N263	N	0.530045	0.802617	0.920349
	N264	N	0.455911	0.898423	0.184878
	N265	N	0.529642	0.070848	0.188750
	N266	N	0.457644	0.068016	0.827662
	N267	N	0.530766	0.895263	0.828201
	N268	N	0.908882	0.159478	0.470952
	N269	N	0.081051	0.160554	0.544710
	N270	N	0.081655	0.801588	0.471561
	N271	N	0.909974	0.804488	0.545269
	N272	N	0.171719	0.444975	0.922755
	N273	N	0.171855	0.519043	0.094866
	N274	N	0.815546	0.445205	0.094517
	N275	N	0.814443	0.518347	0.921837
	O276	O	0.978659	0.034112	0.969059
	H277	H	0.964685	0.031926	0.971646
	H278	H	0.979753	0.034372	0.976515
	O279	O	0.430572	0.409897	0.684582
	H280	H	0.439842	0.409540	0.701978
	H281	H	0.448589	0.428872	0.683098
	O282	O	0.500043	0.338855	0.571744
	H283	H	0.502999	0.341910	0.567195
	H284	H	0.502164	0.340099	0.574200
	O285	O	0.473540	0.365501	0.362983
	H286	H	0.489044	0.373092	0.362729
	H287	H	0.459247	0.351609	0.358719
	O288	O	0.481850	0.506669	0.425397
	H289	H	0.472443	0.510571	0.426209
	H290	H	0.483712	0.495519	0.438511
	O291	O	0.029630	-0.064727	1.019149
	H292	H	0.031187	-0.055068	1.031678
	H293	H	0.026508	-0.063554	1.018457
	O294	O	1.044819	1.059023	0.132562
	H295	H	1.062818	1.042822	0.136548
	H296	H	1.056549	1.077520	0.132025
	O297	O	1.436150	0.489661	0.455190
	H298	H	1.426430	0.500032	0.448423
	H299	H	1.425624	0.475191	0.466743
	O300	O	0.383994	0.558352	0.431056
	H301	H	0.396126	0.547247	0.416705
	H302	H	0.366253	0.583720	0.417361
	O303	O	0.579874	0.626811	0.445642
	H304	H	0.583370	0.619723	0.445118
	H305	H	0.572635	0.622372	0.433072
	O306	O	0.495980	0.360282	0.498731
	H307	H	0.494599	0.364769	0.514880
	H308	H	0.497279	0.357359	0.497639
	O309	O	0.495336	0.409607	0.557504
	H310	H	0.488709	0.412415	0.558318
	H311	H	0.492079	0.417694	0.556058
	O312	O	0.907950	0.940886	0.948822
	H313	H	0.918320	0.945547	0.947950
	H314	H	0.900188	0.935886	0.956390
	O315	O	1.019075	1.078858	0.009605
	H316	H	1.010073	1.086822	0.011874
	H317	H	1.023683	1.083654	0.010347
	O318	O	0.611545	0.407657	0.447178
	H319	H	0.621578	0.412166	0.431917
	H320	H	0.602569	0.405723	0.445650
	O321	O	1.053168	1.041175	-0.017791
	H322	H	1.043546	1.023165	-0.023118
	H323	H	1.051883	1.054144	-0.037768
	O324	O	-0.330150	1.517392	0.461787
	H325	H	-0.321745	1.518653	0.450476
	H326	H	-0.333173	1.519713	0.452221
	O327	O	-0.393513	1.640177	1.694184
	H328	H	-0.380805	1.632689	1.702682
	H329	H	-0.378145	1.643226	1.681710
	O330	O	-0.060189	0.070485	0.123458
	H331	H	-0.052322	0.080953	0.120884
	H332	H	-0.050535	0.076715	0.123048
	O333	O	0.958445	0.983367	-0.006222
	H334	H	0.968560	0.995557	-0.008034
	H335	H	0.968560	0.976709	-0.010097
	O336	O	-0.051078	-0.144954	0.042826
	H337	H	-0.053676	-0.140415	0.049073
	H338	H	-0.052305	-0.152153	0.044284
	O339	O	-0.018860	-0.041904	-0.049746
	H340	H	-0.018105	-0.057206	-0.050654
	H341	H	-0.015769	-0.047727	-0.051338
	O342	O	0.483751	0.581162	0.379732
	H343	H	0.475243	0.572255	0.371644
	H344	H	0.479835	0.580306	0.398765
	O345	O	-0.624405	1.567543	1.498740
	H346	H	-0.627347	1.569098	1.491119
	H347	H	-0.619217	1.568966	1.480887
	O348	O	0.592920	0.604996	0.452737
	H349	H	0.585381	0.587162	0.448410
	H350	H	0.590373	0.603916	0.441546
	O351	O	0.537967	0.507010	0.498102
	H352	H	0.537424	0.499802	0.491304
	H353	H	0.537618	0.498241	0.506699
	O354	O	0.433448	0.500145	-0.394312
	H355	H	0.437830	0.480816	-0.389312
	H356	H	0.444437	0.509297	-0.380822
	O357	O	0.963456	1.024734	1.073911
	H358	H	0.955953	1.033004	1.075881
	H359	H	0.965581	1.029833	1.068471
	O360	O	0.219453	0.712074	0.307613
	H361	H	0.224123	0.719430	0.314688
	H362	H	0.200715	0.722527	0.309254
	O363	O	0.673725	0.523335	0.641989
	H364	H	0.667063	0.508504	0.632474
	H365	H	0.690760	0.520690	0.637919
	O366	O	0.993211	0.966791	-0.021819
	H367	H	0.995964	0.964275	-0.023265
	H368	H	0.993108	0.966452	-0.022846
	O369	O	1.125714	-0.024902	-0.022677
	H370	H	1.127748	-0.025336	-0.016737
	H371	H	1.127065	-0.029915	-0.027060
	O372	O	0.520057	0.402902	0.457463
	H373	H	0.518681	0.399164	0.452376
	H374	H	0.517717	0.403768	0.459180
	O375	O	1.081491	-0.010834	0.951176
	H376	H	1.079416	-0.019689	0.950665
	H377	H	1.077934	-0.025805	0.946259
	O378	O	-0.009323	0.895054	0.071531
	H379	H	-0.015376	0.889196	0.072213
	H380	H	-0.005286	0.905788	0.070596
	O381	O	0.414478	0.374170	0.586931
	H382	H	0.399734	0.380242	0.596088
	H383	H	0.415937	0.382300	0.594784
	O384	O	0.989436	1.009699	0.069539
	H385	H	0.987740	1.012753	0.063639
	H386	H	0.994581	1.009966	0.053378
	O387	O	0.898010	-0.060076	1.045928
	H388	H	0.893214	-0.075659	1.045977
	H389	H	0.890157	-0.055822	1.061288
	O390	O	0.355092	1.492577	-0.532894
	H391	H	0.348520	1.482917	-0.522160
	H392	H	0.354553	1.497532	-0.524260
	O393	O	0.391972	0.471792	0.560840
	H394	H	0.383925	0.482819	0.577054
	H395	H	0.405011	0.466906	0.560992
