data_Molecule from HDF5

_cell_length_a		16.479294
_cell_length_b		16.543851
_cell_length_c		16.416974
_cell_angle_alpha	89.960875
_cell_angle_beta	89.866945
_cell_angle_gamma	89.942780
_symmetry_space_group_name_H-M	'P 1'
_symmetry_Int_Tables_number		1

loop_
	_symmetry_equiv_pos_as_xyz
	x,y,z

loop_
	_atom_site_label
	_atom_site_type_symbol
	_atom_site_fract_x
	_atom_site_fract_y
	_atom_site_fract_z
	H0	H	0.394841	0.844743	0.738774
	H1	H	0.603131	0.159545	0.738926
	H2	H	0.603765	0.845828	0.295651
	H3	H	0.391385	0.159922	0.296418
	H4	H	0.720417	0.397397	0.861331
	H5	H	0.718006	0.606506	0.178594
	H6	H	0.278589	0.607116	0.861220
	H7	H	0.274218	0.393103	0.175115
	H8	H	0.841827	0.724868	0.410964
	H9	H	0.155469	0.722279	0.622955
	H10	H	0.842167	0.278002	0.626989
	H11	H	0.154562	0.277506	0.410676
	H12	H	0.841041	0.396842	0.740857
	H13	H	0.156769	0.604745	0.737635
	H14	H	0.841211	0.606578	0.297790
	H15	H	0.156589	0.396552	0.298064
	H16	H	0.395566	0.722117	0.860174
	H17	H	0.605690	0.725578	0.176642
	H18	H	0.606545	0.280364	0.861479
	H19	H	0.389851	0.277241	0.174937
	H20	H	0.722163	0.846202	0.409219
	H21	H	0.722267	0.158371	0.624488
	H22	H	0.277610	0.844958	0.623597
	H23	H	0.275003	0.159023	0.412465
	H24	H	0.897329	0.343182	0.238259
	H25	H	0.101884	0.659564	0.239221
	H26	H	0.101542	0.343918	0.799265
	H27	H	0.898262	0.660225	0.801023
	H28	H	0.220851	0.897060	0.359922
	H29	H	0.217116	0.103809	0.677524
	H30	H	0.779997	0.106804	0.358635
	H31	H	0.778656	0.899473	0.675922
	H32	H	0.342045	0.222979	0.914996
	H33	H	0.656125	0.224166	0.124832
	H34	H	0.341284	0.782076	0.122786
	H35	H	0.659055	0.784882	0.916443
	H36	H	0.338917	0.900908	0.236672
	H37	H	0.656751	0.106672	0.239372
	H38	H	0.339560	0.103129	0.802591
	H39	H	0.657772	0.900798	0.799015
	H40	H	0.893218	0.225003	0.360687
	H41	H	0.103743	0.222588	0.676101
	H42	H	0.105681	0.780155	0.360124
	H43	H	0.896221	0.784824	0.677358
	H44	H	0.220958	0.344790	0.913200
	H45	H	0.218254	0.660337	0.122527
	H46	H	0.778989	0.343693	0.123857
	H47	H	0.780657	0.660434	0.917031
	H48	H	0.406161	0.116727	0.612243
	H49	H	0.591003	0.890119	0.604730
	H50	H	0.588478	0.113878	0.431921
	H51	H	0.404251	0.889574	0.430168
	H52	H	0.587254	0.413783	0.132538
	H53	H	0.591720	0.598649	0.904145
	H54	H	0.413252	0.589647	0.130470
	H55	H	0.413066	0.408460	0.905130
	H56	H	0.110431	0.590906	0.430882
	H57	H	0.883439	0.593506	0.612041
	H58	H	0.109761	0.411724	0.602193
	H59	H	0.887313	0.417114	0.431142
	H60	H	0.110139	0.416378	0.608958
	H61	H	0.884173	0.595089	0.607218
	H62	H	0.111063	0.590455	0.430519
	H63	H	0.885615	0.411781	0.429048
	H64	H	0.410982	0.594777	0.133472
	H65	H	0.593980	0.588586	0.905548
	H66	H	0.586513	0.412279	0.132143
	H67	H	0.407267	0.416565	0.905240
	H68	H	0.588667	0.115008	0.428316
	H69	H	0.587302	0.889601	0.610699
	H70	H	0.409507	0.114622	0.608388
	H71	H	0.412897	0.890005	0.425340
	H72	H	0.903008	0.614293	0.103744
	H73	H	0.085621	0.389309	0.109133
	H74	H	0.086686	0.614871	0.926964
	H75	H	0.906912	0.389660	0.934629
	H76	H	0.091559	0.910262	0.632542
	H77	H	0.088577	0.089642	0.404434
	H78	H	0.904829	0.088641	0.632598
	H79	H	0.908659	0.913710	0.403626
	H80	H	0.616959	0.096123	0.918515
	H81	H	0.387385	0.092462	0.102771
	H82	H	0.610660	0.911364	0.103583
	H83	H	0.382479	0.909014	0.922373
	H84	H	0.610376	0.917395	0.107744
	H85	H	0.387756	0.088037	0.105882
	H86	H	0.612488	0.098426	0.938331
	H87	H	0.385281	0.905542	0.935031
	H88	H	0.913077	0.085061	0.627616
	H89	H	0.085032	0.087590	0.406987
	H90	H	0.087029	0.915774	0.629989
	H91	H	0.912118	0.912805	0.404829
	H92	H	0.089067	0.613089	0.932372
	H93	H	0.086940	0.391119	0.104619
	H94	H	0.908166	0.616956	0.116233
	H95	H	0.905360	0.386273	0.926751
	H96	H	0.404310	0.115324	0.607783
	H97	H	0.584456	0.892246	0.604740
	H98	H	0.585274	0.113994	0.429864
	H99	H	0.412120	0.893427	0.435370
	H100	H	0.587846	0.412520	0.132374
	H101	H	0.584735	0.592058	0.907715
	H102	H	0.407371	0.590067	0.132377
	H103	H	0.415846	0.416635	0.909431
	H104	H	0.111734	0.591537	0.430117
	H105	H	0.885580	0.590639	0.608862
	H106	H	0.112459	0.408671	0.609363
	H107	H	0.886870	0.412396	0.434536
	H108	H	0.916085	0.611351	0.106357
	H109	H	0.090537	0.389143	0.107815
	H110	H	0.092211	0.615682	0.928233
	H111	H	0.913387	0.389590	0.928191
	H112	H	0.084416	0.909131	0.631468
	H113	H	0.084523	0.091929	0.405457
	H114	H	0.913198	0.094560	0.631002
	H115	H	0.910172	0.910795	0.402988
	H116	H	0.609219	0.080719	0.928859
	H117	H	0.384860	0.092234	0.107669
	H118	H	0.613522	0.911438	0.110498
	H119	H	0.388823	0.917942	0.930262
	C120	C	0.375610	0.011289	0.641012
	C121	C	0.619621	0.994371	0.638808
	C122	C	0.620356	0.010909	0.396444
	C123	C	0.376495	0.994568	0.397559
	C124	C	0.620336	0.380831	0.027867
	C125	C	0.621294	0.624377	1.010789
	C126	C	0.378787	0.623249	0.027463
	C127	C	0.378041	0.380521	1.010348
	C128	C	0.007238	0.623694	0.397146
	C129	C	0.989166	0.623435	0.640198
	C130	C	0.007082	0.379916	0.640261
	C131	C	0.990011	0.380628	0.398202
	C132	C	0.877481	0.509742	0.140934
	C133	C	0.120273	0.493580	0.140017
	C134	C	0.120781	0.510354	0.897182
	C135	C	0.877643	0.493181	0.898352
	C136	C	0.120574	0.879757	0.526879
	C137	C	0.118620	0.121979	0.510173
	C138	C	0.877653	0.123044	0.526290
	C139	C	0.877989	0.880901	0.508819
	C140	C	0.507984	0.123122	0.897480
	C141	C	0.490586	0.123521	0.139055
	C142	C	0.507132	0.881614	0.139729
	C143	C	0.490826	0.880493	0.897311
	C144	C	0.375261	0.892269	0.699758
	C145	C	0.621908	0.112381	0.699143
	C146	C	0.622556	0.893004	0.335565
	C147	C	0.373624	0.112558	0.337007
	C148	C	0.680711	0.378911	0.908937
	C149	C	0.679406	0.625454	0.130614
	C150	C	0.318869	0.625057	0.908345
	C151	C	0.315174	0.375881	0.128166
	C152	C	0.889124	0.684177	0.393795
	C153	C	0.108382	0.682222	0.641465
	C154	C	0.888904	0.319108	0.644229
	C155	C	0.107947	0.318675	0.393688
	C156	C	0.888463	0.378155	0.701068
	C157	C	0.108911	0.623851	0.698543
	C158	C	0.888706	0.625548	0.337200
	C159	C	0.108812	0.377899	0.337652
	C160	C	0.377000	0.682361	0.907973
	C161	C	0.623490	0.684827	0.129594
	C162	C	0.623757	0.320907	0.908771
	C163	C	0.372868	0.318096	0.127953
	C164	C	0.681713	0.893327	0.392059
	C165	C	0.680990	0.111767	0.642000
	C166	C	0.316992	0.892396	0.642357
	C167	C	0.315338	0.112155	0.394528
	C168	C	0.877339	0.390753	0.199484
	C169	C	0.121139	0.612366	0.199483
	C170	C	0.121366	0.391308	0.838275
	C171	C	0.878208	0.612885	0.840407
	C172	C	0.180698	0.877987	0.407447
	C173	C	0.177666	0.122989	0.629832
	C174	C	0.818479	0.125624	0.406947
	C175	C	0.818481	0.880249	0.628546
	C176	C	0.389093	0.182565	0.896385
	C177	C	0.609281	0.183668	0.142489
	C178	C	0.388232	0.821831	0.141598
	C179	C	0.611125	0.823818	0.897058
	C180	C	0.387184	0.880997	0.198115
	C181	C	0.609448	0.124990	0.199213
	C182	C	0.387775	0.122884	0.840621
	C183	C	0.610299	0.881090	0.838515
	C184	C	0.874989	0.184340	0.407636
	C185	C	0.121579	0.182134	0.629097
	C186	C	0.123524	0.819877	0.407659
	C187	C	0.877039	0.823461	0.629249
	C188	C	0.180459	0.391782	0.895122
	C189	C	0.178828	0.612684	0.141335
	C190	C	0.818515	0.391079	0.142476
	C191	C	0.819832	0.612764	0.898003
	C192	C	0.399648	0.093955	0.616454
	C193	C	0.594671	0.912199	0.613670
	C194	C	0.594722	0.092798	0.422630
	C195	C	0.402378	0.912464	0.423089
	C196	C	0.594354	0.405557	0.110706
	C197	C	0.597059	0.600020	0.927626
	C198	C	0.403513	0.598483	0.110403
	C199	C	0.404553	0.406590	0.928035
	C200	C	0.089561	0.598218	0.423033
	C201	C	0.906116	0.599710	0.616119
	C202	C	0.089234	0.405006	0.614259
	C203	C	0.907985	0.406270	0.424238
	C204	C	0.901966	0.592628	0.115816
	C205	C	0.095068	0.411238	0.114533
	C206	C	0.096210	0.592974	0.921944
	C207	C	0.901757	0.410076	0.922652
	C208	C	0.095067	0.904480	0.609806
	C209	C	0.093275	0.097043	0.427162
	C210	C	0.903043	0.096973	0.608853
	C211	C	0.902946	0.905445	0.425577
	C212	C	0.591208	0.098865	0.921671
	C213	C	0.408124	0.098252	0.112960
	C214	C	0.590031	0.906293	0.114519
	C215	C	0.407307	0.903945	0.921972
	Zn216	Zn	0.498664	0.002379	0.768646
	Zn217	Zn	0.498014	0.003064	0.268178
	Zn218	Zn	0.748563	0.501832	0.020043
	Zn219	Zn	0.249794	0.502031	0.019013
	Zn220	Zn	-0.001296	0.751981	0.517922
	Zn221	Zn	-0.001180	0.251127	0.518834
	Zn222	Zn	-0.001369	0.501779	0.768644
	Zn223	Zn	-0.000812	0.501434	0.269273
	Zn224	Zn	0.499608	0.752268	0.018749
	Zn225	Zn	0.499771	0.252212	0.018592
	Zn226	Zn	0.749285	0.001746	0.517063
	Zn227	Zn	0.247746	0.001922	0.518592
	N228	N	0.411017	0.967119	0.699147
	N229	N	0.584422	0.038361	0.697383
	N230	N	0.585070	0.967165	0.338043
	N231	N	0.411032	0.038350	0.338615
	N232	N	0.678626	0.415461	0.983900
	N233	N	0.678430	0.588651	0.055583
	N234	N	0.319890	0.588873	0.983602
	N235	N	0.318460	0.414056	0.054058
	N236	N	0.963969	0.683079	0.430360
	N237	N	0.033034	0.682274	0.605841
	N238	N	0.963631	0.320094	0.607057
	N239	N	0.033042	0.320223	0.430841
	N240	N	0.962858	0.415251	0.698696
	N241	N	0.033827	0.588031	0.698012
	N242	N	0.963238	0.588330	0.339257
	N243	N	0.034777	0.415865	0.340374
	N244	N	0.413631	0.681513	0.983042
	N245	N	0.588083	0.684242	0.054099
	N246	N	0.586780	0.321917	0.983863
	N247	N	0.411594	0.320969	0.053758
	N248	N	0.680389	0.967631	0.429071
	N249	N	0.679587	0.037417	0.605142
	N250	N	0.316895	0.967631	0.606809
	N251	N	0.317267	0.037752	0.431583
	N252	N	0.912991	0.465747	0.198828
	N253	N	0.085828	0.537194	0.198907
	N254	N	0.085267	0.466185	0.839177
	N255	N	0.913020	0.537430	0.840245
	N256	N	0.179272	0.914276	0.482659
	N257	N	0.175905	0.086261	0.554894
	N258	N	0.819902	0.088348	0.481730
	N259	N	0.818845	0.914998	0.552581
	N260	N	0.465010	0.183036	0.930657
	N261	N	0.534257	0.183073	0.106107
	N262	N	0.463983	0.821864	0.106187
	N263	N	0.535558	0.823005	0.932437
	N264	N	0.462216	0.917119	0.197267
	N265	N	0.534626	0.088436	0.197192
	N266	N	0.462822	0.086669	0.841104
	N267	N	0.534301	0.915292	0.838400
	N268	N	0.910739	0.183136	0.483053
	N269	N	0.085571	0.181348	0.553691
	N270	N	0.086814	0.820893	0.482933
	N271	N	0.913093	0.823503	0.553690
	N272	N	0.180587	0.466905	0.930607
	N273	N	0.178798	0.537609	0.105352
	N274	N	0.818379	0.466286	0.107087
	N275	N	0.819238	0.537226	0.933154
	O276	O	-0.045459	0.189052	0.220569
	H277	H	-0.040888	0.189851	0.221552
	H278	H	-0.058319	0.181246	0.218614
	O279	O	1.085659	1.022116	0.170828
	H280	H	1.096307	1.002342	0.183319
	H281	H	1.080699	1.018593	0.157340
	O282	O	0.301122	0.463522	0.457058
	H283	H	0.299271	0.466943	0.444698
	H284	H	0.305651	0.469314	0.451431
	O285	O	0.551969	0.520050	0.668527
	H286	H	0.565891	0.524531	0.660063
	H287	H	0.558518	0.518585	0.678030
	O288	O	-0.280761	0.277351	0.292738
	H289	H	-0.270174	0.269449	0.311556
	H290	H	-0.309465	0.268657	0.291018
	O291	O	0.786006	1.115628	0.085517
	H292	H	0.785216	1.101199	0.066003
	H293	H	0.774493	1.114354	0.100429
	O294	O	-0.132967	0.793909	0.026190
	H295	H	-0.147075	0.784286	0.035557
	H296	H	-0.126753	0.797867	0.025685
	O297	O	0.292358	0.436903	0.606167
	H298	H	0.283697	0.437374	0.603118
	H299	H	0.290405	0.432377	0.601311
	O300	O	0.426270	0.425887	0.459761
	H301	H	0.438871	0.421547	0.459635
	H302	H	0.424194	0.423069	0.461881
	O303	O	0.368723	0.526851	0.403306
	H304	H	0.384036	0.526786	0.410519
	H305	H	0.361097	0.523418	0.400322
	O306	O	-0.424108	1.429609	1.701481
	H307	H	-0.418986	1.424301	1.709646
	H308	H	-0.420777	1.447393	1.693350
	O309	O	0.422490	0.436253	0.321428
	H310	H	0.406712	0.428740	0.305680
	H311	H	0.411921	0.450121	0.350247
	O312	O	0.014901	0.839978	0.036709
	H313	H	0.012548	0.833931	0.037502
	H314	H	0.010022	0.834070	0.048589
	O315	O	-0.170158	0.109985	0.897742
	H316	H	-0.169352	0.095090	0.900524
	H317	H	-0.177499	0.113330	0.883993
	O318	O	0.516661	0.514793	0.604690
	H319	H	0.512839	0.509753	0.601793
	H320	H	0.509238	0.500471	0.606853
	O321	O	0.606691	0.570851	0.328047
	H322	H	0.613679	0.555925	0.325417
	H323	H	0.612193	0.567804	0.332413
	O324	O	0.800238	0.852969	0.217426
	H325	H	0.799613	0.850504	0.200758
	H326	H	0.813004	0.874276	0.207199
	O327	O	1.097065	-0.115691	1.121762
	H328	H	1.106203	-0.109158	1.127430
	H329	H	1.099201	-0.128013	1.140198
	O330	O	0.643439	0.505569	-0.431329
	H331	H	0.646806	0.507835	-0.438779
	H332	H	0.638235	0.507014	-0.431276
	O333	O	0.822763	0.975494	1.091497
	H334	H	0.825560	0.974362	1.073564
	H335	H	0.820596	0.987809	1.096128
	O336	O	0.286454	-0.683357	0.728489
	H337	H	0.313822	-0.695429	0.723525
	H338	H	0.289880	-0.674212	0.731862
	O339	O	0.315704	0.669183	0.669247
	H340	H	0.315134	0.657830	0.638511
	H341	H	0.341908	0.643902	0.670458
	O342	O	1.108257	0.123180	-0.080954
	H343	H	1.092440	0.119024	-0.084071
	H344	H	1.105592	0.118722	-0.086631
	O345	O	0.716915	0.723183	0.546999
	H346	H	0.745746	0.750778	0.546822
	H347	H	0.710597	0.713647	0.574949
	O348	O	1.478853	-0.311379	1.548265
	H349	H	1.484287	-0.321807	1.538373
	H350	H	1.485667	-0.317212	1.536846
	O351	O	0.891993	1.167501	0.086856
	H352	H	0.888104	1.180136	0.072411
	H353	H	0.902635	1.152891	0.097888
	O354	O	0.470353	0.284967	0.583506
	H355	H	0.471485	0.275899	0.598564
	H356	H	0.467948	0.286185	0.568929
	O357	O	1.150801	0.793391	0.987073
	H358	H	1.164063	0.787352	0.978265
	H359	H	1.149897	0.791304	0.960434
	O360	O	0.328164	0.576139	0.302617
	H361	H	0.351552	0.588905	0.303714
	H362	H	0.297276	0.577500	0.277137
	O363	O	0.969448	0.090644	-0.078196
	H364	H	0.976451	0.087459	-0.079493
	H365	H	0.990659	0.100871	-0.079606
	O366	O	1.191294	0.199657	1.189739
	H367	H	1.162452	0.208616	1.176002
	H368	H	1.184861	0.176904	1.189618
	O369	O	0.592524	0.556160	-0.448627
	H370	H	0.593836	0.562882	-0.460317
	H371	H	0.599636	0.539034	-0.449968
	O372	O	0.436188	0.288512	0.732803
	H373	H	0.444695	0.276713	0.739633
	H374	H	0.453678	0.286942	0.734758
	O375	O	-0.496983	0.676655	1.301163
	H376	H	-0.488216	0.677574	1.295876
	H377	H	-0.481738	0.681428	1.300049
	O378	O	0.489696	0.295544	0.359206
	H379	H	0.485612	0.292319	0.346326
	H380	H	0.470682	0.298768	0.342685
	O381	O	1.194816	-0.196500	-0.131752
	H382	H	1.204059	-0.168584	-0.148163
	H383	H	1.214492	-0.205100	-0.149327
	O384	O	-0.008666	0.003209	1.140798
	H385	H	-0.003836	-0.011280	1.127143
	H386	H	-0.022538	-0.005911	1.142463
	O387	O	0.116495	0.887747	1.181448
	H388	H	0.135640	0.874854	1.183883
	H389	H	0.111995	0.884997	1.167880
	O390	O	-0.188127	-0.148303	1.034544
	H391	H	-0.190438	-0.155001	1.032148
	H392	H	-0.200566	-0.152446	1.026013
	O393	O	0.282894	0.380931	-0.353696
	H394	H	0.261980	0.374181	-0.326836
	H395	H	0.285942	0.378644	-0.349500
	O396	O	0.636840	0.285916	0.520004
	H397	H	0.640216	0.286441	0.520122
	H398	H	0.646093	0.272119	0.514305
	O399	O	1.097843	0.099789	0.918453
	H400	H	1.103683	0.097764	0.939094
	H401	H	1.100033	0.118533	0.922663
	O402	O	0.068721	-0.157599	0.824193
	H403	H	0.084610	-0.155113	0.829602
	H404	H	0.086104	-0.166180	0.813944
	O405	O	-0.061762	0.042966	0.028057
	H406	H	-0.041214	0.022858	0.015389
	H407	H	-0.063944	0.049207	0.023543
	O408	O	1.152587	1.093940	-0.070236
	H409	H	1.151721	1.094168	-0.086612
	H410	H	1.153521	1.106339	-0.065801
	O411	O	-0.160643	0.818943	-0.135695
	H412	H	-0.151753	0.836879	-0.135407
	H413	H	-0.155840	0.809680	-0.137483
	O414	O	0.297240	0.704589	0.494121
	H415	H	0.281413	0.724016	0.494685
	H416	H	0.308033	0.682954	0.503872
	O417	O	-0.100244	0.131091	0.883295
	H418	H	-0.106546	0.125536	0.890663
	H419	H	-0.104775	0.135619	0.867752
	O420	O	0.536788	0.720810	0.734698
	H421	H	0.522039	0.722200	0.718560
	H422	H	0.530595	0.747724	0.744957
	O423	O	0.054829	1.000425	-0.168470
	H424	H	0.072177	1.012075	-0.170886
	H425	H	0.053419	1.012914	-0.155661
	O426	O	0.542242	1.469033	0.580867
	H427	H	0.530603	1.476693	0.575166
	H428	H	0.529315	1.466687	0.569387
	O429	O	0.391010	0.502389	0.405735
	H430	H	0.400630	0.521586	0.400889
	H431	H	0.372280	0.510567	0.399448
	O432	O	0.650083	0.352478	0.404988
	H433	H	0.663813	0.347847	0.409594
	H434	H	0.640334	0.354645	0.388599
	O435	O	-0.162225	0.215566	-0.194182
	H436	H	-0.180934	0.209492	-0.188489
	H437	H	-0.155911	0.223413	-0.185456
	O438	O	1.028848	-0.005104	-0.119226
	H439	H	1.041278	0.000824	-0.118402
	H440	H	1.035218	-0.013801	-0.119864
	O441	O	1.007621	0.870376	0.226694
	H442	H	1.000595	0.866072	0.234766
	H443	H	1.007909	0.865714	0.223833
	O444	O	0.649494	0.506390	0.659231
	H445	H	0.667499	0.503853	0.675275
	H446	H	0.643346	0.508565	0.641074
	O447	O	0.703211	0.704679	0.723141
	H448	H	0.699843	0.713771	0.731027
	H449	H	0.674581	0.687681	0.723231
	O450	O	0.714227	0.470532	0.304346
	H451	H	0.740614	0.469420	0.283290
	H452	H	0.702653	0.452832	0.307140
	O453	O	1.203111	1.123456	0.150382
	H454	H	1.207462	1.116634	0.176656
	H455	H	1.205103	1.146770	0.153195
	O456	O	1.094985	0.115576	-0.101650
	H457	H	1.079531	0.121094	-0.099730
	H458	H	1.110756	0.102454	-0.116246
	O459	O	0.617735	0.647881	0.486778
	H460	H	0.631808	0.639098	0.497974
	H461	H	0.633389	0.644831	0.481589
	O462	O	0.616552	0.469065	0.583914
	H463	H	0.611693	0.470765	0.573133
	H464	H	0.626783	0.475311	0.601287
	O465	O	1.285803	-0.270585	0.290511
	H466	H	1.296711	-0.267370	0.315071
	H467	H	1.312881	-0.278370	0.284615
