data_Molecule from HDF5

_cell_length_a		16.294422
_cell_length_b		16.387506
_cell_length_c		16.136034
_cell_angle_alpha	90.561486
_cell_angle_beta	90.254633
_cell_angle_gamma	90.153109
_symmetry_space_group_name_H-M	'P 1'
_symmetry_Int_Tables_number		1

loop_
	_symmetry_equiv_pos_as_xyz
	x,y,z

loop_
	_atom_site_label
	_atom_site_type_symbol
	_atom_site_fract_x
	_atom_site_fract_y
	_atom_site_fract_z
	H0	H	0.393269	0.831831	0.709726
	H1	H	0.595455	0.155281	0.713634
	H2	H	0.595322	0.832173	0.276353
	H3	H	0.395230	0.156002	0.279996
	H4	H	0.709475	0.390519	0.831077
	H5	H	0.710313	0.595759	0.160140
	H6	H	0.276368	0.593489	0.832312
	H7	H	0.279331	0.395083	0.159296
	H8	H	0.833937	0.712767	0.394113
	H9	H	0.157253	0.715997	0.602318
	H10	H	0.835324	0.275798	0.600355
	H11	H	0.157000	0.275295	0.391346
	H12	H	0.831260	0.398552	0.707813
	H13	H	0.158008	0.597980	0.714680
	H14	H	0.831945	0.593127	0.281246
	H15	H	0.157064	0.392758	0.278519
	H16	H	0.390288	0.708746	0.832078
	H17	H	0.597380	0.713610	0.158410
	H18	H	0.594196	0.276719	0.830847
	H19	H	0.391686	0.276658	0.157723
	H20	H	0.714405	0.833707	0.389746
	H21	H	0.714381	0.155129	0.600838
	H22	H	0.274547	0.833573	0.594710
	H23	H	0.275467	0.154356	0.391505
	H24	H	0.893117	0.331842	0.211823
	H25	H	0.095060	0.656233	0.214880
	H26	H	0.092947	0.333444	0.777332
	H27	H	0.893786	0.657500	0.780964
	H28	H	0.207207	0.892501	0.330911
	H29	H	0.215323	0.098799	0.657427
	H30	H	0.777428	0.096164	0.332276
	H31	H	0.778927	0.895653	0.659153
	H32	H	0.332404	0.210283	0.889429
	H33	H	0.656064	0.213769	0.098810
	H34	H	0.333109	0.775909	0.098037
	H35	H	0.655469	0.772937	0.891074
	H36	H	0.332138	0.895163	0.208392
	H37	H	0.657424	0.094759	0.211419
	H38	H	0.331792	0.089375	0.779103
	H39	H	0.657538	0.890825	0.777191
	H40	H	0.891532	0.212511	0.333253
	H41	H	0.101140	0.214404	0.659095
	H42	H	0.097383	0.775406	0.334225
	H43	H	0.892286	0.780020	0.659869
	H44	H	0.210455	0.333634	0.891155
	H45	H	0.213829	0.655067	0.102172
	H46	H	0.776769	0.331431	0.094909
	H47	H	0.774185	0.654870	0.893695
	H48	H	0.407223	0.106023	0.581758
	H49	H	0.581148	0.882262	0.580906
	H50	H	0.595176	0.110943	0.405647
	H51	H	0.402444	0.876814	0.394979
	H52	H	0.584443	0.394478	0.113904
	H53	H	0.575895	0.588386	0.879831
	H54	H	0.397161	0.587413	0.114790
	H55	H	0.396154	0.408975	0.878470
	H56	H	0.109058	0.581227	0.407684
	H57	H	0.878588	0.587702	0.590517
	H58	H	0.112447	0.403954	0.588387
	H59	H	0.879164	0.396616	0.406434
	H60	H	0.111051	0.403510	0.585130
	H61	H	0.878711	0.592997	0.588132
	H62	H	0.113083	0.589388	0.401936
	H63	H	0.883330	0.405084	0.411535
	H64	H	0.406358	0.578853	0.109603
	H65	H	0.591422	0.585832	0.876046
	H66	H	0.593340	0.408108	0.112959
	H67	H	0.411028	0.402423	0.880803
	H68	H	0.582425	0.110232	0.396921
	H69	H	0.594870	0.877826	0.579134
	H70	H	0.401469	0.108580	0.584857
	H71	H	0.405703	0.881835	0.404862
	H72	H	0.893056	0.612246	0.092424
	H73	H	0.084535	0.379737	0.087725
	H74	H	0.082166	0.609716	0.903203
	H75	H	0.899470	0.379487	0.904162
	H76	H	0.086859	0.908486	0.612260
	H77	H	0.074316	0.080764	0.384270
	H78	H	0.897814	0.087791	0.615082
	H79	H	0.908959	0.901907	0.380024
	H80	H	0.608234	0.086268	0.910752
	H81	H	0.376536	0.096942	0.081733
	H82	H	0.609710	0.901248	0.081692
	H83	H	0.381656	0.904268	0.905907
	H84	H	0.609563	0.905792	0.084408
	H85	H	0.383248	0.079048	0.078154
	H86	H	0.609447	0.081257	0.902641
	H87	H	0.378009	0.901848	0.897805
	H88	H	0.908931	0.079372	0.608152
	H89	H	0.083241	0.097481	0.375719
	H90	H	0.084669	0.905222	0.612818
	H91	H	0.903304	0.899041	0.378197
	H92	H	0.084450	0.607023	0.913102
	H93	H	0.086800	0.379828	0.083909
	H94	H	0.909135	0.608175	0.095830
	H95	H	0.901775	0.378673	0.899566
	H96	H	0.407582	0.108746	0.588585
	H97	H	0.588857	0.875852	0.591318
	H98	H	0.582536	0.105207	0.412509
	H99	H	0.395520	0.877985	0.403390
	H100	H	0.578338	0.408145	0.108370
	H101	H	0.582663	0.574506	0.883152
	H102	H	0.409638	0.591806	0.112377
	H103	H	0.399412	0.392806	0.874399
	H104	H	0.110626	0.590142	0.413071
	H105	H	0.880396	0.588702	0.584645
	H106	H	0.111219	0.407095	0.586935
	H107	H	0.878758	0.406386	0.400257
	H108	H	0.902877	0.605956	0.080325
	H109	H	0.089110	0.377962	0.088240
	H110	H	0.092130	0.611688	0.907455
	H111	H	0.904304	0.381297	0.903448
	H112	H	0.088249	0.906053	0.613114
	H113	H	0.094041	0.079663	0.377396
	H114	H	0.911740	0.094206	0.612683
	H115	H	0.903050	0.905891	0.379736
	H116	H	0.612299	0.090635	0.903122
	H117	H	0.375913	0.084117	0.095949
	H118	H	0.611051	0.901807	0.086384
	H119	H	0.377787	0.895608	0.904874
	C120	C	0.373631	0.001834	0.615380
	C121	C	0.617951	0.984980	0.616366
	C122	C	0.617095	0.002204	0.373065
	C123	C	0.372031	0.985195	0.371418
	C124	C	0.614831	0.372887	0.003532
	C125	C	0.614497	0.614635	0.987389
	C126	C	0.373091	0.615304	0.004093
	C127	C	0.372448	0.372031	0.986164
	C128	C	0.003698	0.616396	0.376617
	C129	C	0.986677	0.619597	0.619217
	C130	C	0.004327	0.375090	0.616600
	C131	C	0.986752	0.371979	0.374402
	C132	C	0.872072	0.501956	0.118080
	C133	C	0.116702	0.485974	0.118212
	C134	C	0.115452	0.502897	0.875068
	C135	C	0.872069	0.486393	0.873335
	C136	C	0.115891	0.874896	0.504566
	C137	C	0.116297	0.116766	0.486780
	C138	C	0.874507	0.116949	0.504272
	C139	C	0.874750	0.873841	0.487615
	C140	C	0.502968	0.114709	0.873895
	C141	C	0.485773	0.116811	0.116650
	C142	C	0.503201	0.873194	0.114717
	C143	C	0.485773	0.870155	0.871792
	C144	C	0.373420	0.880360	0.671681
	C145	C	0.616205	0.106746	0.675178
	C146	C	0.615855	0.881026	0.314589
	C147	C	0.374468	0.107209	0.316738
	C148	C	0.671272	0.371993	0.880167
	C149	C	0.671967	0.615226	0.110799
	C150	C	0.315330	0.613474	0.881139
	C151	C	0.316669	0.373997	0.109819
	C152	C	0.882011	0.673689	0.375412
	C153	C	0.108910	0.676788	0.620512
	C154	C	0.882964	0.316367	0.617722
	C155	C	0.108467	0.314565	0.373358
	C156	C	0.880920	0.377383	0.671211
	C157	C	0.109187	0.617791	0.676280
	C158	C	0.880913	0.613857	0.319575
	C159	C	0.108641	0.372935	0.316970
	C160	C	0.371834	0.671205	0.881200
	C161	C	0.615551	0.673744	0.109918
	C162	C	0.613800	0.315293	0.880031
	C163	C	0.372642	0.315402	0.108932
	C164	C	0.675350	0.881781	0.371044
	C165	C	0.675075	0.106788	0.618651
	C166	C	0.314387	0.881234	0.614359
	C167	C	0.315040	0.106540	0.372454
	C168	C	0.873324	0.380187	0.173707
	C169	C	0.115470	0.607559	0.176509
	C170	C	0.113362	0.381774	0.816246
	C171	C	0.873436	0.608476	0.818348
	C172	C	0.170534	0.873759	0.380656
	C173	C	0.175741	0.117701	0.608959
	C174	C	0.816379	0.115477	0.381324
	C175	C	0.817614	0.875959	0.610522
	C176	C	0.381011	0.171392	0.871707
	C177	C	0.607595	0.174526	0.117330
	C178	C	0.381295	0.815381	0.116145
	C179	C	0.607420	0.812297	0.871896
	C180	C	0.380738	0.874660	0.171117
	C181	C	0.608170	0.115603	0.173749
	C182	C	0.380545	0.110898	0.816860
	C183	C	0.608516	0.870929	0.815328
	C184	C	0.873048	0.173649	0.381819
	C185	C	0.118641	0.174991	0.609863
	C186	C	0.115468	0.815559	0.382294
	C187	C	0.874083	0.818187	0.610750
	C188	C	0.172063	0.381792	0.872871
	C189	C	0.174533	0.607002	0.120100
	C190	C	0.815396	0.379949	0.115568
	C191	C	0.813984	0.607398	0.874606
	C192	C	0.398152	0.085923	0.591937
	C193	C	0.595015	0.900623	0.591221
	C194	C	0.593544	0.086732	0.397844
	C195	C	0.394677	0.900812	0.394318
	C196	C	0.591957	0.396810	0.089456
	C197	C	0.590218	0.589976	0.901925
	C198	C	0.397265	0.592716	0.089943
	C199	C	0.395354	0.394792	0.900310
	C200	C	0.088693	0.593679	0.400525
	C201	C	0.901498	0.596561	0.594722
	C202	C	0.089339	0.398005	0.593479
	C203	C	0.902312	0.395664	0.398970
	C204	C	0.894890	0.586774	0.095985
	C205	C	0.093483	0.401128	0.093724
	C206	C	0.092805	0.587562	0.900602
	C207	C	0.894994	0.401766	0.895742
	C208	C	0.093176	0.899594	0.590601
	C209	C	0.091076	0.092821	0.401165
	C210	C	0.899043	0.093996	0.589766
	C211	C	0.898213	0.895908	0.401665
	C212	C	0.588103	0.092327	0.898383
	C213	C	0.400696	0.093454	0.092544
	C214	C	0.588021	0.896201	0.091131
	C215	C	0.401317	0.893725	0.895670
	Zn216	Zn	0.495528	-0.006985	0.744709
	Zn217	Zn	0.494608	-0.006416	0.243733
	Zn218	Zn	0.742849	0.493316	-0.004606
	Zn219	Zn	0.245231	0.494251	-0.003979
	Zn220	Zn	-0.004004	0.746916	0.497162
	Zn221	Zn	-0.003539	0.244888	0.496247
	Zn222	Zn	-0.005325	0.495933	0.745150
	Zn223	Zn	-0.005179	0.493890	0.247248
	Zn224	Zn	0.493753	0.743612	-0.004831
	Zn225	Zn	0.494021	0.244849	-0.005402
	Zn226	Zn	0.747070	-0.005665	0.495099
	Zn227	Zn	0.243410	-0.005134	0.493433
	N228	N	0.409793	0.956155	0.672087
	N229	N	0.581322	0.030193	0.673908
	N230	N	0.580452	0.957065	0.315679
	N231	N	0.409397	0.030930	0.316052
	N232	N	0.672105	0.407144	0.958051
	N233	N	0.671602	0.579096	0.033612
	N234	N	0.316021	0.579471	0.958691
	N235	N	0.316423	0.408638	0.032449
	N236	N	0.959225	0.675266	0.410282
	N237	N	0.031587	0.678335	0.586040
	N238	N	0.960613	0.314456	0.584571
	N239	N	0.031605	0.313977	0.408329
	N240	N	0.957262	0.413328	0.670671
	N241	N	0.032076	0.583191	0.676035
	N242	N	0.957522	0.578736	0.320160
	N243	N	0.031869	0.407799	0.317247
	N244	N	0.407137	0.672447	0.958760
	N245	N	0.580705	0.673568	0.032131
	N246	N	0.579466	0.315991	0.957585
	N247	N	0.406300	0.313893	0.030914
	N248	N	0.675873	0.958208	0.407090
	N249	N	0.676261	0.030328	0.582746
	N250	N	0.314419	0.957873	0.580237
	N251	N	0.313245	0.029676	0.405650
	N252	N	0.907922	0.456882	0.175551
	N253	N	0.079986	0.531217	0.175215
	N254	N	0.079171	0.458383	0.817375
	N255	N	0.908849	0.532365	0.817486
	N256	N	0.170657	0.910163	0.457743
	N257	N	0.174442	0.082153	0.531406
	N258	N	0.817186	0.080760	0.458614
	N259	N	0.818040	0.909892	0.532900
	N260	N	0.458038	0.173523	0.906854
	N261	N	0.530356	0.175380	0.082590
	N262	N	0.458365	0.814392	0.081761
	N263	N	0.530258	0.811355	0.906034
	N264	N	0.457392	0.909997	0.170398
	N265	N	0.531402	0.080494	0.173585
	N266	N	0.457278	0.076194	0.818309
	N267	N	0.532059	0.906290	0.815091
	N268	N	0.908644	0.174475	0.459226
	N269	N	0.082460	0.174581	0.532701
	N270	N	0.082307	0.816112	0.460626
	N271	N	0.909146	0.816936	0.533349
	N272	N	0.173284	0.458072	0.909124
	N273	N	0.175696	0.530318	0.084802
	N274	N	0.814275	0.456685	0.081966
	N275	N	0.812746	0.530449	0.907925
	O276	O	-0.000446	0.070563	-0.117715
	H277	H	-0.010834	0.065424	-0.132555
	H278	H	-0.008089	0.079027	-0.117224
	O279	O	1.029642	0.073852	1.068175
	H280	H	1.022230	0.079329	1.059949
	H281	H	1.015945	0.072211	1.069599
	O282	O	0.947919	0.064013	-0.051972
	H283	H	0.946071	0.068549	-0.062385
	H284	H	0.951709	0.068400	-0.057074
	O285	O	-0.114394	1.106697	-0.141381
	H286	H	-0.125012	1.105588	-0.141472
	H287	H	-0.115641	1.107165	-0.144554
	O288	O	0.360995	0.521466	0.418876
	H289	H	0.359615	0.507631	0.421713
	H290	H	0.360110	0.519791	0.410807
	O291	O	0.614207	0.448840	0.599281
	H292	H	0.612955	0.447957	0.582956
	H293	H	0.615748	0.438762	0.599543
	O294	O	1.079644	1.110821	1.111923
	H295	H	1.066518	1.120124	1.126167
	H296	H	1.100074	1.093889	1.112879
	O297	O	-0.015935	-0.078972	0.053517
	H298	H	-0.009730	-0.079857	0.047390
	H299	H	-0.020793	-0.072281	0.064333
	O300	O	0.459145	0.559754	0.670415
	H301	H	0.465819	0.566686	0.689681
	H302	H	0.470220	0.576766	0.667696
	O303	O	0.032998	0.845745	0.931146
	H304	H	0.040712	0.845548	0.923155
	H305	H	0.036795	0.843760	0.938364
	O306	O	0.385389	0.430561	0.514459
	H307	H	0.372702	0.420106	0.518044
	H308	H	0.388372	0.439155	0.518244
	O309	O	0.978037	-0.006040	-0.113982
	H310	H	0.994174	-0.022129	-0.117196
	H311	H	0.966396	-0.012810	-0.118743
	O312	O	-0.005234	0.141296	1.138793
	H313	H	-0.015391	0.139968	1.134754
	H314	H	-0.010079	0.132168	1.120860
	O315	O	0.527823	0.336715	0.422332
	H316	H	0.531200	0.341645	0.416722
	H317	H	0.516170	0.338225	0.431715
	O318	O	0.550539	0.499299	0.395292
	H319	H	0.543917	0.503266	0.391871
	H320	H	0.564111	0.484008	0.402257
	O321	O	0.409249	0.436586	0.424400
	H322	H	0.413577	0.444091	0.437018
	H323	H	0.395132	0.438468	0.428245
	O324	O	0.446635	0.517063	0.517030
	H325	H	0.438798	0.521571	0.519822
	H326	H	0.449925	0.525662	0.512030
	O327	O	-0.103699	1.032163	1.075789
	H328	H	-0.110464	1.026057	1.075477
	H329	H	-0.104269	1.025567	1.074382
	O330	O	0.612455	0.500670	0.407264
	H331	H	0.603497	0.501612	0.389091
	H332	H	0.611957	0.482228	0.405729
	O333	O	0.027450	1.060488	0.906243
	H334	H	0.017214	1.056194	0.910177
	H335	H	0.029860	1.062047	0.921641
	O336	O	1.078233	0.893569	0.984398
	H337	H	1.073521	0.893162	0.982763
	H338	H	1.085760	0.900696	0.985775
	O339	O	0.513165	0.646376	0.488259
	H340	H	0.511544	0.631508	0.485429
	H341	H	0.505910	0.650796	0.495238
	O342	O	1.124905	0.132661	0.088619
	H343	H	1.141088	0.145002	0.094401
	H344	H	1.126523	0.122719	0.108465
	O345	O	0.528888	0.585639	0.579723
	H346	H	0.533915	0.582250	0.571344
	H347	H	0.525921	0.599806	0.585949
	O348	O	1.011121	1.011279	1.097176
	H349	H	1.007802	1.012689	1.096608
	H350	H	1.013355	1.010096	1.098089
	O351	O	1.084303	1.040260	-0.035812
	H352	H	1.078950	1.045901	-0.036926
	H353	H	1.092958	1.053885	-0.037506
	O354	O	0.412738	0.623420	0.566856
	H355	H	0.399436	0.630037	0.560167
	H356	H	0.420834	0.638174	0.583764
	O357	O	0.662523	0.430548	0.453385
	H358	H	0.666720	0.435575	0.451988
	H359	H	0.671890	0.425359	0.450306
	O360	O	-0.039287	0.011326	0.084887
	H361	H	-0.027590	0.020640	0.087565
	H362	H	-0.046286	0.001603	0.083372
	O363	O	0.423554	0.463731	0.483293
	H364	H	0.429100	0.467466	0.484951
	H365	H	0.417699	0.458883	0.473824
	O366	O	0.621349	0.435742	0.450842
	H367	H	0.614855	0.424816	0.454050
	H368	H	0.617451	0.423188	0.440502
	O369	O	0.365483	0.405781	0.491631
	H370	H	0.362946	0.406780	0.495672
	H371	H	0.371050	0.403261	0.502631
	O372	O	0.392343	0.555976	0.482257
	H373	H	0.396455	0.546790	0.471031
	H374	H	0.405502	0.565705	0.472574
	O375	O	0.679682	0.583496	0.629105
	H376	H	0.683172	0.589844	0.616373
	H377	H	0.686896	0.570188	0.641935
	O378	O	0.518274	0.320603	0.358810
	H379	H	0.515777	0.313742	0.353280
	H380	H	0.518107	0.326219	0.364891
	O381	O	0.530680	0.566635	0.594958
	H382	H	0.530912	0.573479	0.599509
	H383	H	0.533497	0.570835	0.582466
	O384	O	-0.008917	0.958947	-0.045545
	H385	H	-0.017146	0.962507	-0.050007
	H386	H	-0.000668	0.964422	-0.056954
	O387	O	0.967545	-0.094344	1.009004
	H388	H	0.966235	-0.097507	1.006839
	H389	H	0.967054	-0.086961	0.997441
	O390	O	-0.079669	0.901561	-0.062878
	H391	H	-0.076625	0.907229	-0.054922
	H392	H	-0.068267	0.895500	-0.066192
	O393	O	0.924368	0.965723	-0.125563
	H394	H	0.930605	0.965386	-0.120113
	H395	H	0.935023	0.957548	-0.135358
	O396	O	0.518791	0.540508	0.408577
	H397	H	0.525232	0.542719	0.414587
	H398	H	0.522769	0.521082	0.389475
	O399	O	0.045571	0.930684	1.043809
	H400	H	0.036427	0.930037	1.040235
	H401	H	0.048901	0.933646	1.037276
	O402	O	0.991378	0.820874	1.077870
	H403	H	0.993359	0.808565	1.073360
	H404	H	0.983799	0.824001	1.084492
	O405	O	0.566285	1.510771	0.467142
	H406	H	0.561176	1.512368	0.478540
	H407	H	0.578336	1.498752	0.465764
