data_Molecule from HDF5

_cell_length_a		16.394118
_cell_length_b		16.253349
_cell_length_c		16.291703
_cell_angle_alpha	89.599282
_cell_angle_beta	90.021681
_cell_angle_gamma	89.969647
_symmetry_space_group_name_H-M	'P 1'
_symmetry_Int_Tables_number		1

loop_
	_symmetry_equiv_pos_as_xyz
	x,y,z

loop_
	_atom_site_label
	_atom_site_type_symbol
	_atom_site_fract_x
	_atom_site_fract_y
	_atom_site_fract_z
	H0	H	0.389514	0.824616	0.707809
	H1	H	0.591538	0.149001	0.710700
	H2	H	0.589654	0.824039	0.279766
	H3	H	0.386118	0.149280	0.270381
	H4	H	0.708975	0.383972	0.830129
	H5	H	0.711722	0.591778	0.151735
	H6	H	0.274429	0.590298	0.828114
	H7	H	0.270703	0.384051	0.151227
	H8	H	0.829160	0.707978	0.387040
	H9	H	0.151504	0.706956	0.591166
	H10	H	0.830023	0.270472	0.594038
	H11	H	0.151685	0.272865	0.389757
	H12	H	0.831087	0.383400	0.711596
	H13	H	0.151681	0.591022	0.707875
	H14	H	0.831249	0.595205	0.268409
	H15	H	0.152349	0.389528	0.274327
	H16	H	0.388910	0.706527	0.829817
	H17	H	0.590579	0.700972	0.154819
	H18	H	0.589316	0.271576	0.829482
	H19	H	0.386945	0.269679	0.152517
	H20	H	0.710588	0.828153	0.388534
	H21	H	0.708837	0.149780	0.595679
	H22	H	0.269954	0.827893	0.597286
	H23	H	0.274861	0.151637	0.390094
	H24	H	0.889513	0.328357	0.210778
	H25	H	0.095250	0.650843	0.205107
	H26	H	0.094652	0.327181	0.771714
	H27	H	0.887325	0.649977	0.769743
	H28	H	0.210494	0.887313	0.330199
	H29	H	0.209784	0.093950	0.652504
	H30	H	0.769317	0.096220	0.330544
	H31	H	0.770795	0.882765	0.651911
	H32	H	0.329951	0.207925	0.886761
	H33	H	0.648740	0.206860	0.097054
	H34	H	0.330382	0.766860	0.095668
	H35	H	0.651222	0.768254	0.890296
	H36	H	0.330204	0.882089	0.212222
	H37	H	0.649996	0.089325	0.211077
	H38	H	0.329669	0.090300	0.772097
	H39	H	0.649814	0.881796	0.772078
	H40	H	0.889882	0.207593	0.328514
	H41	H	0.091934	0.207255	0.653419
	H42	H	0.092749	0.774280	0.328152
	H43	H	0.886054	0.766942	0.651023
	H44	H	0.211067	0.327634	0.884181
	H45	H	0.210461	0.649244	0.090630
	H46	H	0.771297	0.327749	0.098602
	H47	H	0.767972	0.648477	0.882829
	H48	H	0.393564	0.106639	0.586403
	H49	H	0.588450	0.872131	0.576209
	H50	H	0.583270	0.103086	0.406795
	H51	H	0.397018	0.873365	0.405965
	H52	H	0.582681	0.395548	0.107855
	H53	H	0.574423	0.573269	0.880173
	H54	H	0.398322	0.567316	0.103852
	H55	H	0.389012	0.395382	0.870945
	H56	H	0.106199	0.583148	0.395696
	H57	H	0.875831	0.581551	0.580274
	H58	H	0.102483	0.394245	0.568762
	H59	H	0.878484	0.404178	0.403456
	H60	H	0.101898	0.411100	0.583000
	H61	H	0.878517	0.577459	0.575193
	H62	H	0.105606	0.584104	0.399025
	H63	H	0.875923	0.403009	0.394722
	H64	H	0.406485	0.580483	0.105078
	H65	H	0.578718	0.584221	0.874872
	H66	H	0.582809	0.398653	0.105843
	H67	H	0.403347	0.409154	0.880430
	H68	H	0.580464	0.105994	0.394726
	H69	H	0.581892	0.869570	0.590155
	H70	H	0.406758	0.103091	0.585986
	H71	H	0.397015	0.872108	0.401365
	H72	H	0.903251	0.602982	0.077405
	H73	H	0.084341	0.371642	0.082154
	H74	H	0.079820	0.602394	0.899321
	H75	H	0.899272	0.371328	0.895734
	H76	H	0.085864	0.904932	0.605634
	H77	H	0.078951	0.083065	0.377559
	H78	H	0.894942	0.077250	0.606161
	H79	H	0.892083	0.894064	0.371479
	H80	H	0.601919	0.075959	0.905145
	H81	H	0.373035	0.073353	0.091113
	H82	H	0.603934	0.901280	0.086631
	H83	H	0.376258	0.895983	0.902718
	H84	H	0.608305	0.890161	0.091654
	H85	H	0.372907	0.085605	0.080183
	H86	H	0.603655	0.074436	0.900469
	H87	H	0.376221	0.896848	0.901212
	H88	H	0.902735	0.076077	0.603418
	H89	H	0.084621	0.083968	0.374130
	H90	H	0.071748	0.900855	0.602271
	H91	H	0.895913	0.913568	0.378668
	H92	H	0.083966	0.603765	0.901364
	H93	H	0.078571	0.372531	0.084324
	H94	H	0.899446	0.603057	0.074148
	H95	H	0.906276	0.376037	0.902493
	H96	H	0.398398	0.102071	0.574658
	H97	H	0.573686	0.876167	0.578654
	H98	H	0.571741	0.100636	0.402704
	H99	H	0.400415	0.873990	0.403524
	H100	H	0.579436	0.396806	0.106106
	H101	H	0.586665	0.573778	0.876342
	H102	H	0.392689	0.579802	0.109685
	H103	H	0.408985	0.388961	0.875539
	H104	H	0.105205	0.580595	0.397961
	H105	H	0.877012	0.574777	0.581237
	H106	H	0.109569	0.391554	0.589493
	H107	H	0.875050	0.395904	0.401063
	H108	H	0.898424	0.605113	0.078589
	H109	H	0.080460	0.373514	0.078054
	H110	H	0.082771	0.604818	0.896885
	H111	H	0.896323	0.373632	0.906068
	H112	H	0.081221	0.890868	0.608480
	H113	H	0.082818	0.077749	0.377311
	H114	H	0.901029	0.083666	0.607440
	H115	H	0.910956	0.898769	0.379249
	H116	H	0.604239	0.079820	0.902051
	H117	H	0.379289	0.070491	0.075985
	H118	H	0.604089	0.891326	0.079301
	H119	H	0.375442	0.895341	0.901289
	C120	C	0.368809	-0.003203	0.613589
	C121	C	0.611920	0.979255	0.613295
	C122	C	0.610426	-0.003401	0.371109
	C123	C	0.368143	0.979941	0.371226
	C124	C	0.611947	0.365938	0.000209
	C125	C	0.611687	0.608270	0.983346
	C126	C	0.369390	0.607970	-0.000693
	C127	C	0.368378	0.366302	0.981887
	C128	C	-0.000496	0.613353	0.366115
	C129	C	0.982678	0.609832	0.610656
	C130	C	-0.000877	0.367111	0.612649
	C131	C	0.982712	0.370061	0.369719
	C132	C	0.869674	0.497349	0.110680
	C133	C	0.112246	0.479762	0.110549
	C134	C	0.112639	0.496833	0.868137
	C135	C	0.869231	0.480202	0.868780
	C136	C	0.110868	0.868706	0.498962
	C137	C	0.112145	0.111824	0.483237
	C138	C	0.868366	0.111424	0.499239
	C139	C	0.868570	0.868559	0.482367
	C140	C	0.497728	0.108226	0.870549
	C141	C	0.480802	0.107901	0.114116
	C142	C	0.499259	0.863700	0.115748
	C143	C	0.482131	0.865154	0.870967
	C144	C	0.369534	0.874118	0.670256
	C145	C	0.611679	0.100737	0.671843
	C146	C	0.609976	0.873471	0.316273
	C147	C	0.368022	0.101147	0.311021
	C148	C	0.669512	0.365594	0.878449
	C149	C	0.671476	0.609560	0.103938
	C150	C	0.312612	0.609214	0.877071
	C151	C	0.309495	0.364977	0.103112
	C152	C	0.878054	0.670206	0.366988
	C153	C	0.103518	0.667867	0.610663
	C154	C	0.878388	0.308854	0.613480
	C155	C	0.103608	0.311964	0.370572
	C156	C	0.879054	0.365414	0.671883
	C157	C	0.103490	0.609950	0.668690
	C158	C	0.879041	0.614041	0.307797
	C159	C	0.103765	0.369863	0.312738
	C160	C	0.369885	0.667011	0.877828
	C161	C	0.611081	0.663984	0.105443
	C162	C	0.609941	0.309538	0.878102
	C163	C	0.367636	0.308231	0.103903
	C164	C	0.670364	0.875551	0.370481
	C165	C	0.669728	0.101252	0.614417
	C166	C	0.309884	0.875749	0.615174
	C167	C	0.312152	0.102705	0.370144
	C168	C	0.869846	0.376515	0.171314
	C169	C	0.113714	0.601858	0.166939
	C170	C	0.113201	0.375513	0.810188
	C171	C	0.868038	0.601381	0.808975
	C172	C	0.170398	0.868800	0.378049
	C173	C	0.170079	0.112157	0.604493
	C174	C	0.809203	0.113921	0.378429
	C175	C	0.810139	0.865156	0.603471
	C176	C	0.377796	0.167916	0.868393
	C177	C	0.600962	0.167257	0.115758
	C178	C	0.378427	0.805653	0.115269
	C179	C	0.603057	0.807429	0.870987
	C180	C	0.378488	0.862702	0.173565
	C181	C	0.601586	0.108370	0.172241
	C182	C	0.377489	0.109404	0.811378
	C183	C	0.602287	0.863707	0.811837
	C184	C	0.869283	0.169444	0.377306
	C185	C	0.111553	0.168807	0.604898
	C186	C	0.111863	0.812290	0.376969
	C187	C	0.867629	0.807233	0.602984
	C188	C	0.171417	0.375613	0.866257
	C189	C	0.171346	0.601102	0.110101
	C190	C	0.811171	0.376133	0.115064
	C191	C	0.808786	0.600532	0.865639
	C192	C	0.392649	0.081824	0.589454
	C193	C	0.588425	0.894808	0.588840
	C194	C	0.585734	0.081027	0.394619
	C195	C	0.391268	0.895053	0.396429
	C196	C	0.588638	0.389931	0.084550
	C197	C	0.587245	0.584176	0.898970
	C198	C	0.392428	0.583180	0.084072
	C199	C	0.393019	0.390764	0.897675
	C200	C	0.083741	0.589455	0.390192
	C201	C	0.898750	0.585174	0.586029
	C202	C	0.082936	0.391851	0.587754
	C203	C	0.898503	0.394121	0.392903
	C204	C	0.893577	0.581723	0.084524
	C205	C	0.088164	0.394799	0.087854
	C206	C	0.088977	0.581579	0.892317
	C207	C	0.893713	0.395569	0.894245
	C208	C	0.086654	0.892163	0.583434
	C209	C	0.088843	0.088386	0.398430
	C210	C	0.892468	0.086430	0.583736
	C211	C	0.892713	0.894516	0.398352
	C212	C	0.581346	0.083816	0.895300
	C213	C	0.396934	0.083642	0.089471
	C214	C	0.583652	0.887251	0.092564
	C215	C	0.397951	0.889133	0.894859
	Zn216	Zn	0.490225	-0.013125	0.741393
	Zn217	Zn	0.490054	-0.013520	0.242812
	Zn218	Zn	0.740557	0.487443	-0.009191
	Zn219	Zn	0.240272	0.487334	-0.010549
	Zn220	Zn	-0.010033	0.739751	0.489587
	Zn221	Zn	-0.009701	0.239351	0.491014
	Zn222	Zn	-0.008617	0.488193	0.740755
	Zn223	Zn	-0.008621	0.490542	0.238805
	Zn224	Zn	0.490720	0.736611	-0.007401
	Zn225	Zn	0.489679	0.237358	-0.007996
	Zn226	Zn	0.739615	-0.010372	0.490921
	Zn227	Zn	0.240003	-0.010372	0.492188
	N228	N	0.405406	0.950463	0.669397
	N229	N	0.576753	0.023986	0.671425
	N230	N	0.573610	0.949682	0.316400
	N231	N	0.402248	0.023748	0.311510
	N232	N	0.671061	0.399578	0.955439
	N233	N	0.672016	0.575605	0.026821
	N234	N	0.312043	0.573145	0.953571
	N235	N	0.309932	0.400197	0.026366
	N236	N	0.954118	0.669966	0.402389
	N237	N	0.027360	0.667733	0.575282
	N238	N	0.954083	0.309815	0.577393
	N239	N	0.027127	0.311855	0.405312
	N240	N	0.955196	0.400733	0.671424
	N241	N	0.027241	0.574636	0.668809
	N242	N	0.955660	0.579740	0.306929
	N243	N	0.027826	0.405519	0.312270
	N244	N	0.404317	0.666467	0.954815
	N245	N	0.574673	0.663269	0.029477
	N246	N	0.575093	0.309398	0.954917
	N247	N	0.403598	0.308680	0.027662
	N248	N	0.670891	0.953146	0.403658
	N249	N	0.670261	0.024660	0.578993
	N250	N	0.309306	0.953152	0.580583
	N251	N	0.312114	0.026294	0.406903
	N252	N	0.905318	0.453174	0.168825
	N253	N	0.077683	0.525556	0.167517
	N254	N	0.077445	0.451933	0.811270
	N255	N	0.905152	0.525572	0.811250
	N256	N	0.170101	0.903092	0.455015
	N257	N	0.170867	0.077612	0.527694
	N258	N	0.808612	0.078501	0.455296
	N259	N	0.810417	0.902435	0.527543
	N260	N	0.453553	0.167146	0.904899
	N261	N	0.524923	0.167202	0.080223
	N262	N	0.454533	0.806121	0.079980
	N263	N	0.527355	0.808120	0.907026
	N264	N	0.454454	0.898280	0.173814
	N265	N	0.525776	0.072342	0.171360
	N266	N	0.453092	0.073090	0.812528
	N267	N	0.526195	0.899214	0.811879
	N268	N	0.905080	0.168081	0.453532
	N269	N	0.076235	0.168580	0.528451
	N270	N	0.075432	0.812015	0.452975
	N271	N	0.903503	0.809631	0.526697
	N272	N	0.171246	0.452061	0.901706
	N273	N	0.170589	0.524188	0.075757
	N274	N	0.811088	0.452259	0.077928
	N275	N	0.809121	0.523859	0.901871
	O276	O	0.469064	0.347705	0.356211
	H277	H	0.468101	0.335390	0.349494
	H278	H	0.485632	0.359889	0.367544
	O279	O	1.039271	0.933173	1.150216
	H280	H	1.030263	0.932098	1.146155
	H281	H	1.048469	0.925052	1.148866
	O282	O	0.858960	0.101183	0.933348
	H283	H	0.849415	0.111007	0.942312
	H284	H	0.871886	0.085119	0.924142
	O285	O	0.694625	0.389894	0.484212
	H286	H	0.699947	0.398797	0.482626
	H287	H	0.684560	0.393487	0.488802
	O288	O	1.047440	1.134711	0.942359
	H289	H	1.045706	1.129315	0.950059
	H290	H	1.053500	1.138030	0.951099
	O291	O	-0.171936	0.797256	0.093922
	H292	H	-0.167479	0.809729	0.083235
	H293	H	-0.187954	0.772899	0.091230
	O294	O	0.516400	0.547061	0.505203
	H295	H	0.510639	0.544644	0.498230
	H296	H	0.514247	0.543088	0.501793
	O297	O	0.887556	0.892695	0.942298
	H298	H	0.894375	0.898431	0.924875
	H299	H	0.891700	0.891082	0.924775
	O300	O	0.585371	0.539229	0.561713
	H301	H	0.576705	0.540179	0.563655
	H302	H	0.584017	0.534782	0.575180
	O303	O	0.488263	0.530209	0.336472
	H304	H	0.485753	0.531734	0.325359
	H305	H	0.492582	0.535959	0.332393
	O306	O	0.600222	0.512231	0.554131
	H307	H	0.594070	0.514244	0.563391
	H308	H	0.604121	0.523779	0.562730
	O309	O	0.441319	0.575120	0.452067
	H310	H	0.435507	0.584003	0.434621
	H311	H	0.446939	0.567407	0.446648
	O312	O	-0.136088	0.078838	0.076210
	H313	H	-0.136389	0.073067	0.075444
	H314	H	-0.140521	0.067952	0.092363
	O315	O	0.530262	0.436616	0.564470
	H316	H	0.527126	0.443196	0.580051
	H317	H	0.531602	0.436899	0.564022
	O318	O	-0.136370	0.900831	1.098463
	H319	H	-0.134933	0.885589	1.093768
	H320	H	-0.138577	0.902376	1.099809
	O321	O	0.391970	0.468319	0.545013
	H322	H	0.386043	0.449080	0.543905
	H323	H	0.404365	0.470103	0.546128
	O324	O	-0.337401	1.332751	-0.555503
	H325	H	-0.319336	1.318736	-0.545929
	H326	H	-0.335673	1.347030	-0.572840
	O327	O	0.434136	0.417386	0.638631
	H328	H	0.428888	0.424283	0.650585
	H329	H	0.438913	0.427808	0.629527
	O330	O	-0.073517	-0.035746	0.841354
	H331	H	-0.076988	-0.026070	0.850682
	H332	H	-0.078131	-0.030426	0.845536
	O333	O	-0.451780	0.426796	1.443297
	H334	H	-0.445440	0.417062	1.432237
	H335	H	-0.454230	0.432901	1.437871
	O336	O	0.391015	0.571312	0.305667
	H337	H	0.396766	0.554329	0.302569
	H338	H	0.382643	0.582273	0.281957
	O339	O	1.086452	0.017688	-0.104102
	H340	H	1.094833	0.031239	-0.098878
	H341	H	1.077294	0.014860	-0.102160
	O342	O	0.154068	-0.162679	0.024740
	H343	H	0.155885	-0.158830	0.019995
	H344	H	0.146445	-0.149633	0.018619
	O345	O	1.181401	-0.101296	0.854995
	H346	H	1.186624	-0.100885	0.848589
	H347	H	1.167882	-0.093604	0.854600
	O348	O	0.887612	1.105392	-0.202793
	H349	H	0.891523	1.113611	-0.224297
	H350	H	0.887711	1.088951	-0.189606
	O351	O	0.463771	0.458236	0.483291
	H352	H	0.462194	0.460880	0.491309
	H353	H	0.477639	0.459386	0.484970
	O354	O	1.035926	0.095241	0.994806
	H355	H	1.034675	0.090309	1.013245
	H356	H	1.024839	0.098670	0.992937
	O357	O	-0.217721	-0.014136	0.958358
	H358	H	-0.209992	-0.017296	0.953303
	H359	H	-0.223734	-0.017023	0.955982
	O360	O	0.483003	0.475384	0.654575
	H361	H	0.479890	0.468105	0.656716
	H362	H	0.471902	0.471147	0.655614
	O363	O	0.075583	0.885652	0.938806
	H364	H	0.085231	0.897108	0.929000
	H365	H	0.067699	0.886821	0.948895
	O366	O	0.907993	1.186151	0.076300
	H367	H	0.892546	1.198592	0.068505
	H368	H	0.905344	1.179732	0.068470
	O369	O	-0.098960	-0.201876	1.140682
	H370	H	-0.109784	-0.208122	1.108424
	H371	H	-0.089489	-0.200181	1.146406
	O372	O	0.558416	0.543202	0.580850
	H373	H	0.551371	0.547200	0.578008
	H374	H	0.570443	0.540962	0.573024
	O375	O	0.448628	0.477086	0.397758
	H376	H	0.445900	0.484149	0.399433
	H377	H	0.444876	0.474929	0.402279
	O378	O	0.957554	0.918294	-0.202121
	H379	H	0.964582	0.935382	-0.197255
	H380	H	0.945105	0.915031	-0.211305
	O381	O	1.151662	0.080122	0.026784
	H382	H	1.150961	0.071291	0.031584
	H383	H	1.141366	0.076234	0.017104
	O384	O	1.367424	0.504298	0.550886
	H385	H	1.374752	0.503083	0.539035
	H386	H	1.364447	0.503219	0.562556
	O387	O	0.062495	0.003890	0.042437
	H388	H	0.068044	0.015439	0.057017
	H389	H	0.062011	0.011117	0.049628
	O390	O	0.470113	1.456666	0.523444
	H391	H	0.479079	1.458800	0.526534
	H392	H	0.472019	1.452817	0.526165
	O393	O	0.937397	0.899106	1.091588
	H394	H	0.937400	0.897350	1.093005
	H395	H	0.945060	0.897489	1.082659
	O396	O	0.420575	0.518762	0.508294
	H397	H	0.403487	0.516423	0.522301
	H398	H	0.424234	0.520448	0.502485
	O399	O	0.095921	0.899029	0.937889
	H400	H	0.093267	0.897286	0.914529
	H401	H	0.108132	0.910563	0.953479
	O402	O	0.508156	0.527938	0.444585
	H403	H	0.501413	0.518507	0.440257
	H404	H	0.509836	0.507028	0.432205
	O405	O	1.064901	1.015632	0.129070
	H406	H	1.052102	1.008516	0.140210
	H407	H	1.072937	1.015759	0.133043
	O408	O	0.930379	1.190020	-0.186263
	H409	H	0.952245	1.194651	-0.176181
	H410	H	0.923964	1.203874	-0.200772
	O411	O	1.036854	0.120813	1.148302
	H412	H	1.032940	0.109020	1.160130
	H413	H	1.028360	0.125540	1.133397
	O414	O	1.140768	-0.069394	-0.014557
	H415	H	1.150271	-0.055967	-0.010860
	H416	H	1.140053	-0.072395	-0.017373
	O417	O	0.443659	0.589339	0.420944
	H418	H	0.450270	0.589826	0.422424
	H419	H	0.438288	0.603086	0.405507
