data_Molecule from HDF5

_cell_length_a		16.376075
_cell_length_b		16.248876
_cell_length_c		16.217432
_cell_angle_alpha	89.828971
_cell_angle_beta	89.854328
_cell_angle_gamma	90.140158
_symmetry_space_group_name_H-M	'P 1'
_symmetry_Int_Tables_number		1

loop_
	_symmetry_equiv_pos_as_xyz
	x,y,z

loop_
	_atom_site_label
	_atom_site_type_symbol
	_atom_site_fract_x
	_atom_site_fract_y
	_atom_site_fract_z
	H0	H	0.405284	0.834406	0.710070
	H1	H	0.603123	0.162843	0.709189
	H2	H	0.609203	0.837669	0.275239
	H3	H	0.405749	0.161063	0.276381
	H4	H	0.721001	0.391856	0.832438
	H5	H	0.720211	0.600928	0.154062
	H6	H	0.285555	0.598626	0.830215
	H7	H	0.282503	0.393319	0.155548
	H8	H	0.843770	0.719149	0.390416
	H9	H	0.165870	0.717461	0.593911
	H10	H	0.844471	0.278973	0.594675
	H11	H	0.165980	0.282347	0.387806
	H12	H	0.842402	0.395369	0.709867
	H13	H	0.164234	0.601997	0.711789
	H14	H	0.841932	0.601956	0.275848
	H15	H	0.165617	0.400019	0.272971
	H16	H	0.400938	0.714493	0.829808
	H17	H	0.604457	0.715136	0.154090
	H18	H	0.600012	0.283475	0.830764
	H19	H	0.398456	0.279676	0.156662
	H20	H	0.724778	0.838723	0.391033
	H21	H	0.721766	0.162668	0.595463
	H22	H	0.284603	0.837353	0.599256
	H23	H	0.289097	0.161342	0.391018
	H24	H	0.901277	0.336303	0.211399
	H25	H	0.100442	0.662621	0.203878
	H26	H	0.100399	0.334529	0.777447
	H27	H	0.901520	0.661837	0.775654
	H28	H	0.224252	0.898956	0.331073
	H29	H	0.222209	0.102499	0.656841
	H30	H	0.787857	0.102834	0.331029
	H31	H	0.787776	0.897475	0.655779
	H32	H	0.340289	0.212289	0.895059
	H33	H	0.663248	0.217615	0.095378
	H34	H	0.342085	0.779538	0.097721
	H35	H	0.663983	0.779662	0.890917
	H36	H	0.344607	0.894549	0.216248
	H37	H	0.666066	0.099400	0.207338
	H38	H	0.342070	0.097622	0.777879
	H39	H	0.667120	0.898819	0.779328
	H40	H	0.908939	0.212361	0.328424
	H41	H	0.105570	0.217033	0.655812
	H42	H	0.106078	0.786953	0.328161
	H43	H	0.904687	0.783171	0.655922
	H44	H	0.219396	0.334720	0.890318
	H45	H	0.223116	0.658133	0.097685
	H46	H	0.786046	0.334599	0.094240
	H47	H	0.782007	0.659515	0.888917
	H48	H	0.414967	0.114453	0.586271
	H49	H	0.602845	0.879439	0.593558
	H50	H	0.594818	0.114016	0.403142
	H51	H	0.411359	0.884639	0.414249
	H52	H	0.589997	0.410131	0.108832
	H53	H	0.586193	0.593131	0.877381
	H54	H	0.406747	0.582551	0.108486
	H55	H	0.407817	0.404452	0.875450
	H56	H	0.120604	0.592196	0.395295
	H57	H	0.885426	0.590762	0.593817
	H58	H	0.117535	0.409118	0.577816
	H59	H	0.889717	0.408200	0.402412
	H60	H	0.117499	0.414401	0.585629
	H61	H	0.888456	0.601701	0.576767
	H62	H	0.120532	0.595611	0.398993
	H63	H	0.889587	0.407298	0.401633
	H64	H	0.416784	0.587027	0.107187
	H65	H	0.599749	0.587973	0.874316
	H66	H	0.591449	0.402783	0.111297
	H67	H	0.410493	0.408643	0.878103
	H68	H	0.599434	0.115859	0.404005
	H69	H	0.588417	0.885416	0.587192
	H70	H	0.414628	0.113965	0.584428
	H71	H	0.410943	0.880026	0.399687
	H72	H	0.902773	0.617371	0.084118
	H73	H	0.097211	0.379757	0.084938
	H74	H	0.092719	0.612783	0.902579
	H75	H	0.912717	0.382368	0.897530
	H76	H	0.095019	0.906763	0.610227
	H77	H	0.103366	0.090776	0.375942
	H78	H	0.906831	0.086141	0.610755
	H79	H	0.912073	0.906545	0.374329
	H80	H	0.622612	0.094826	0.892263
	H81	H	0.384982	0.091473	0.092422
	H82	H	0.617648	0.906496	0.082593
	H83	H	0.388186	0.911549	0.896671
	H84	H	0.617979	0.906044	0.083543
	H85	H	0.389548	0.091404	0.079059
	H86	H	0.619081	0.099282	0.909350
	H87	H	0.385900	0.900066	0.899911
	H88	H	0.920747	0.086369	0.605808
	H89	H	0.098567	0.088286	0.378096
	H90	H	0.098531	0.910736	0.608922
	H91	H	0.911230	0.915799	0.379374
	H92	H	0.094218	0.612362	0.904984
	H93	H	0.087108	0.382013	0.086931
	H94	H	0.913407	0.613361	0.087213
	H95	H	0.911912	0.384683	0.906232
	H96	H	0.413293	0.114405	0.585297
	H97	H	0.601649	0.884375	0.577409
	H98	H	0.597510	0.116718	0.398918
	H99	H	0.424027	0.886576	0.404751
	H100	H	0.597247	0.408268	0.111433
	H101	H	0.589854	0.579436	0.879773
	H102	H	0.408415	0.592786	0.111399
	H103	H	0.412185	0.404051	0.878210
	H104	H	0.119133	0.590905	0.399581
	H105	H	0.893824	0.582604	0.576881
	H106	H	0.120791	0.405957	0.586481
	H107	H	0.890474	0.406467	0.402497
	H108	H	0.909636	0.611746	0.075670
	H109	H	0.091564	0.384723	0.077603
	H110	H	0.094980	0.613295	0.902128
	H111	H	0.904949	0.380173	0.902541
	H112	H	0.092844	0.910796	0.607179
	H113	H	0.097589	0.093937	0.376624
	H114	H	0.914295	0.099564	0.611671
	H115	H	0.920744	0.910465	0.378706
	H116	H	0.615675	0.082569	0.903814
	H117	H	0.390241	0.080008	0.086305
	H118	H	0.618199	0.905907	0.082014
	H119	H	0.391027	0.907892	0.908675
	C120	C	0.383488	0.007068	0.616086
	C121	C	0.626933	0.990792	0.615594
	C122	C	0.627753	0.008607	0.371829
	C123	C	0.385514	0.990636	0.374346
	C124	C	0.622575	0.376578	0.002722
	C125	C	0.622608	0.618090	0.984122
	C126	C	0.380563	0.618596	0.001683
	C127	C	0.379948	0.375510	0.985038
	C128	C	0.012741	0.622771	0.369117
	C129	C	0.995589	0.621936	0.613894
	C130	C	0.012427	0.377956	0.613337
	C131	C	0.996358	0.378197	0.370569
	C132	C	0.879216	0.506749	0.114350
	C133	C	0.122634	0.489660	0.112996
	C134	C	0.123847	0.505803	0.871844
	C135	C	0.879622	0.489751	0.870914
	C136	C	0.126504	0.879209	0.501057
	C137	C	0.128669	0.121899	0.484567
	C138	C	0.884991	0.120347	0.501257
	C139	C	0.883834	0.879133	0.484600
	C140	C	0.512043	0.120740	0.872484
	C141	C	0.494883	0.119021	0.115432
	C142	C	0.512300	0.875205	0.115801
	C143	C	0.495173	0.876624	0.872319
	C144	C	0.384644	0.883986	0.672695
	C145	C	0.624253	0.113806	0.671594
	C146	C	0.628420	0.886393	0.313942
	C147	C	0.385938	0.112464	0.315269
	C148	C	0.680847	0.374591	0.880577
	C149	C	0.680990	0.619316	0.105736
	C150	C	0.323945	0.618390	0.878870
	C151	C	0.321808	0.374856	0.107183
	C152	C	0.891887	0.680393	0.370723
	C153	C	0.117145	0.678957	0.613889
	C154	C	0.891994	0.318560	0.613664
	C155	C	0.117730	0.321233	0.369316
	C156	C	0.890886	0.376639	0.670824
	C157	C	0.115963	0.621772	0.672966
	C158	C	0.890933	0.621792	0.313824
	C159	C	0.117365	0.379842	0.312115
	C160	C	0.381083	0.676213	0.878970
	C161	C	0.623223	0.676235	0.105755
	C162	C	0.620822	0.320261	0.879894
	C163	C	0.379592	0.318252	0.107762
	C164	C	0.685670	0.886834	0.371738
	C165	C	0.682837	0.113910	0.614829
	C166	C	0.324496	0.885411	0.617561
	C167	C	0.328124	0.112800	0.372457
	C168	C	0.880939	0.384873	0.172778
	C169	C	0.121457	0.612889	0.167655
	C170	C	0.121448	0.383444	0.815123
	C171	C	0.881042	0.612428	0.813888
	C172	C	0.184971	0.879763	0.379181
	C173	C	0.184476	0.122103	0.607611
	C174	C	0.827377	0.121110	0.379133
	C175	C	0.826415	0.878345	0.607080
	C176	C	0.389258	0.175340	0.874290
	C177	C	0.615663	0.177858	0.114395
	C178	C	0.390864	0.817945	0.116991
	C179	C	0.616387	0.819216	0.872437
	C180	C	0.392026	0.875408	0.175751
	C181	C	0.617022	0.118984	0.170177
	C182	C	0.390301	0.118266	0.815985
	C183	C	0.618043	0.878655	0.817064
	C184	C	0.887463	0.175597	0.377801
	C185	C	0.126551	0.179255	0.606925
	C186	C	0.126004	0.823970	0.377930
	C187	C	0.884806	0.821575	0.607159
	C188	C	0.180431	0.383415	0.871612
	C189	C	0.182286	0.610620	0.114558
	C190	C	0.823694	0.383775	0.114420
	C191	C	0.821568	0.611341	0.870040
	C192	C	0.407420	0.092260	0.592206
	C193	C	0.604408	0.905376	0.592611
	C194	C	0.604080	0.093319	0.395263
	C195	C	0.408683	0.905946	0.399116
	C196	C	0.599520	0.400181	0.088309
	C197	C	0.598824	0.593833	0.899055
	C198	C	0.403788	0.594561	0.086671
	C199	C	0.403308	0.398887	0.899464
	C200	C	0.097860	0.599543	0.391505
	C201	C	0.911181	0.598289	0.589669
	C202	C	0.096597	0.402757	0.590150
	C203	C	0.911892	0.400707	0.395173
	C204	C	0.901964	0.592043	0.089629
	C205	C	0.098715	0.404266	0.089917
	C206	C	0.100779	0.590874	0.896049
	C207	C	0.902973	0.404718	0.894884
	C208	C	0.102612	0.902577	0.586702
	C209	C	0.106368	0.098014	0.399005
	C210	C	0.907370	0.097547	0.586963
	C211	C	0.907569	0.903715	0.399421
	C212	C	0.597029	0.098815	0.895216
	C213	C	0.410188	0.094640	0.092514
	C214	C	0.596248	0.899212	0.090204
	C215	C	0.410478	0.899750	0.895276
	Zn216	Zn	0.505132	-0.001623	0.744395
	Zn217	Zn	0.505801	-0.001572	0.244397
	Zn218	Zn	0.750592	0.496723	-0.007147
	Zn219	Zn	0.252481	0.496630	-0.006670
	Zn220	Zn	0.005399	0.751052	0.491635
	Zn221	Zn	0.005659	0.248622	0.492294
	Zn222	Zn	0.002708	0.498475	0.742674
	Zn223	Zn	0.003067	0.499638	0.241143
	Zn224	Zn	0.502091	0.746936	-0.007763
	Zn225	Zn	0.501657	0.248560	-0.005124
	Zn226	Zn	0.755356	0.000592	0.493848
	Zn227	Zn	0.255848	-0.000766	0.494212
	N228	N	0.420445	0.960738	0.672091
	N229	N	0.590248	0.036336	0.672474
	N230	N	0.593048	0.962939	0.313957
	N231	N	0.420836	0.035616	0.316201
	N232	N	0.682061	0.408810	0.958025
	N233	N	0.680748	0.583769	0.028887
	N234	N	0.323143	0.583424	0.956132
	N235	N	0.322063	0.409906	0.029861
	N236	N	0.968970	0.681138	0.404319
	N237	N	0.041263	0.679325	0.578168
	N238	N	0.968583	0.319087	0.578539
	N239	N	0.041370	0.319967	0.404955
	N240	N	0.966641	0.412807	0.670735
	N241	N	0.039190	0.587154	0.673282
	N242	N	0.967238	0.586914	0.312511
	N243	N	0.040930	0.414346	0.312625
	N244	N	0.415492	0.676479	0.956270
	N245	N	0.587405	0.675242	0.029296
	N246	N	0.585210	0.321328	0.956706
	N247	N	0.415011	0.318608	0.030908
	N248	N	0.685372	0.963725	0.406911
	N249	N	0.684713	0.036496	0.581011
	N250	N	0.323442	0.963142	0.583526
	N251	N	0.327716	0.036159	0.408753
	N252	N	0.914496	0.462549	0.172919
	N253	N	0.085062	0.536627	0.166726
	N254	N	0.086825	0.460459	0.815297
	N255	N	0.916082	0.535631	0.813953
	N256	N	0.185308	0.913358	0.456989
	N257	N	0.186364	0.087472	0.530234
	N258	N	0.825721	0.087467	0.457051
	N259	N	0.825553	0.913218	0.529792
	N260	N	0.465939	0.177239	0.908533
	N261	N	0.538504	0.178079	0.081125
	N262	N	0.466776	0.817500	0.080436
	N263	N	0.539104	0.817852	0.905890
	N264	N	0.468568	0.909975	0.175233
	N265	N	0.540990	0.083035	0.170678
	N266	N	0.467393	0.084985	0.814658
	N267	N	0.541661	0.913617	0.816578
	N268	N	0.922685	0.175161	0.454650
	N269	N	0.092879	0.179304	0.529458
	N270	N	0.090592	0.823549	0.454905
	N271	N	0.919674	0.821913	0.529929
	N272	N	0.182150	0.460737	0.905990
	N273	N	0.183059	0.532996	0.081010
	N274	N	0.822375	0.460790	0.079055
	N275	N	0.820550	0.534067	0.904696
	O276	O	0.025500	-0.037536	-0.050336
	H277	H	0.030523	-0.036246	-0.038641
	H278	H	0.034331	-0.049907	-0.052960
	O279	O	0.983511	0.038653	1.040696
	H280	H	0.996973	0.046181	1.035546
	H281	H	0.987745	0.038275	1.042034
	O282	O	1.118538	-0.069473	-0.074994
	H283	H	1.113260	-0.069093	-0.062325
	H284	H	1.135007	-0.086284	-0.086735
	O285	O	0.074139	0.963736	0.011879
	H286	H	0.070197	0.959497	0.018968
	H287	H	0.085922	0.957133	0.019642
	O288	O	0.419174	0.654052	0.482231
	H289	H	0.399732	0.663834	0.472932
	H290	H	0.424724	0.627100	0.486604
	O291	O	0.350073	0.515156	0.328653
	H292	H	0.361023	0.500554	0.330785
	H293	H	0.354588	0.501658	0.317501
	O294	O	0.944237	0.992671	0.993861
	H295	H	0.955931	0.987078	0.993877
	H296	H	0.941167	0.999179	0.980893
	O297	O	0.075611	-0.114975	-0.001751
	H298	H	0.086347	-0.129776	0.000496
	H299	H	0.083032	-0.117524	-0.010694
	O300	O	0.684006	0.503806	0.340809
	H301	H	0.682398	0.506717	0.345046
	H302	H	0.698877	0.501212	0.337953
	O303	O	0.030330	0.862747	0.877216
	H304	H	0.032818	0.853716	0.882919
	H305	H	0.014042	0.883065	0.878301
	O306	O	0.497512	0.643182	0.575132
	H307	H	0.487464	0.631278	0.574068
	H308	H	0.479374	0.640052	0.565697
	O309	O	0.865802	-0.007997	0.083039
	H310	H	0.852298	-0.003602	0.096024
	H311	H	0.872565	0.002708	0.065434
	O312	O	0.013117	-0.082447	0.986703
	H313	H	0.007694	-0.083159	0.985419
	H314	H	-0.008112	-0.079878	0.988223
	O315	O	0.582286	0.376631	0.394865
	H316	H	0.591733	0.375308	0.395280
	H317	H	0.597466	0.380812	0.404364
	O318	O	0.609290	0.481607	0.588941
	H319	H	0.598275	0.494631	0.584632
	H320	H	0.630869	0.483482	0.599577
	O321	O	0.597406	0.335303	0.549329
	H322	H	0.595592	0.346372	0.561253
	H323	H	0.605765	0.332540	0.557321
	O324	O	0.653018	0.478542	0.450790
	H325	H	0.655815	0.501761	0.447035
	H326	H	0.654096	0.479684	0.459807
	O327	O	-0.061896	1.142593	0.948880
	H328	H	-0.066973	1.139013	0.943817
	H329	H	-0.056592	1.122510	0.956467
	O330	O	0.454672	0.499206	0.527897
	H331	H	0.446319	0.510484	0.519226
	H332	H	0.454519	0.511383	0.545053
	O333	O	-0.177571	0.772591	1.194762
	H334	H	-0.183000	0.766689	1.189836
	H335	H	-0.172992	0.781726	1.193405
	O336	O	1.068744	1.033290	0.869722
	H337	H	1.067054	1.028669	0.867477
	H338	H	1.065074	1.026645	0.866743
	O339	O	0.580065	0.536698	0.620789
	H340	H	0.583686	0.540699	0.632777
	H341	H	0.587827	0.542252	0.601609
	O342	O	0.902243	-0.125443	0.060011
	H343	H	0.896711	-0.113383	0.071226
	H344	H	0.900829	-0.117736	0.049801
	O345	O	0.655927	0.618345	0.632707
	H346	H	0.653770	0.638586	0.635193
	H347	H	0.652782	0.633695	0.637791
	O348	O	1.059609	0.988560	0.998430
	H349	H	1.056476	0.981418	1.004781
	H350	H	1.055102	0.985847	0.996514
	O351	O	1.030619	1.027541	-0.000515
	H352	H	1.042194	1.036449	0.005245
	H353	H	1.044143	1.007067	-0.008817
	O354	O	0.567196	0.421426	0.549598
	H355	H	0.564396	0.421481	0.543821
	H356	H	0.570178	0.432723	0.570765
	O357	O	0.477857	0.461956	0.457111
	H358	H	0.486504	0.462519	0.445843
	H359	H	0.475480	0.449432	0.460149
	O360	O	-0.528059	0.438463	-0.584244
	H361	H	-0.531865	0.432148	-0.588342
	H362	H	-0.510614	0.416090	-0.588824
	O363	O	0.329574	0.439714	0.553193
	H364	H	0.329842	0.436692	0.559568
	H365	H	0.338630	0.431824	0.553523
	O366	O	0.304045	0.656384	0.475212
	H367	H	0.296043	0.655618	0.444436
	H368	H	0.290519	0.651677	0.468534
	O369	O	0.650257	0.669204	0.600181
	H370	H	0.643414	0.674048	0.579277
	H371	H	0.625015	0.673923	0.596420
	O372	O	0.499836	0.610889	0.307409
	H373	H	0.520526	0.607045	0.299394
	H374	H	0.497959	0.605562	0.300393
	O375	O	-0.251768	0.843982	1.190125
	H376	H	-0.272106	0.845025	1.184537
	H377	H	-0.230542	0.860670	1.186419
	O378	O	0.506790	0.329652	0.548792
	H379	H	0.511048	0.321309	0.544580
	H380	H	0.509603	0.338263	0.547910
	O381	O	0.294740	0.295278	0.542861
	H382	H	0.278240	0.271262	0.553427
	H383	H	0.297640	0.294804	0.572692
	O384	O	0.361513	0.512406	-0.268392
	H385	H	0.378068	0.514508	-0.263805
	H386	H	0.368552	0.522033	-0.279467
	O387	O	0.988699	0.106607	1.054862
	H388	H	0.986291	0.103772	1.052026
	H389	H	1.001759	0.112427	1.060860
	O390	O	-0.664798	0.673429	0.327348
	H391	H	-0.652438	0.667102	0.316372
	H392	H	-0.653787	0.655542	0.326147
	O393	O	0.998964	1.072771	0.048993
	H394	H	1.007110	1.062902	0.044203
	H395	H	1.008240	1.068478	0.041295
	O396	O	0.340330	0.465242	0.612856
	H397	H	0.340983	0.452919	0.612957
	H398	H	0.343987	0.455541	0.615483
	O399	O	0.048274	0.870860	0.882369
	H400	H	0.037948	0.871882	0.891048
	H401	H	0.051798	0.861064	0.867098
	O402	O	1.078885	1.010813	1.059506
	H403	H	1.088484	1.009653	1.049652
	H404	H	1.074260	1.000231	1.064433
	O405	O	0.635370	1.361883	0.348392
	H406	H	0.644345	1.363319	0.333610
	H407	H	0.641886	1.348544	0.375237
