data_Molecule from HDF5

_cell_length_a		16.586849
_cell_length_b		16.417469
_cell_length_c		16.574680
_cell_angle_alpha	89.954707
_cell_angle_beta	90.064082
_cell_angle_gamma	89.930954
_symmetry_space_group_name_H-M	'P 1'
_symmetry_Int_Tables_number		1

loop_
	_symmetry_equiv_pos_as_xyz
	x,y,z

loop_
	_atom_site_label
	_atom_site_type_symbol
	_atom_site_fract_x
	_atom_site_fract_y
	_atom_site_fract_z
	H0	H	0.382882	0.874025	0.754471
	H1	H	0.596564	0.187790	0.750302
	H2	H	0.593375	0.870696	0.311965
	H3	H	0.385754	0.187118	0.307605
	H4	H	0.716518	0.420769	0.874225
	H5	H	0.714960	0.636550	0.183707
	H6	H	0.268621	0.638276	0.872150
	H7	H	0.268014	0.422063	0.184580
	H8	H	0.836123	0.750034	0.426594
	H9	H	0.149447	0.753080	0.635554
	H10	H	0.835826	0.309224	0.633421
	H11	H	0.148795	0.306585	0.423384
	H12	H	0.836887	0.423238	0.751883
	H13	H	0.148757	0.637700	0.752559
	H14	H	0.836969	0.634853	0.307625
	H15	H	0.148230	0.421321	0.304887
	H16	H	0.386704	0.751857	0.871729
	H17	H	0.596293	0.751057	0.184482
	H18	H	0.597820	0.306795	0.873145
	H19	H	0.387204	0.308792	0.186696
	H20	H	0.711009	0.871926	0.426244
	H21	H	0.713270	0.187323	0.635602
	H22	H	0.270111	0.872165	0.636601
	H23	H	0.269752	0.187188	0.422978
	H24	H	0.886321	0.373238	0.251224
	H25	H	0.098042	0.688018	0.250259
	H26	H	0.099770	0.372973	0.806231
	H27	H	0.887414	0.686855	0.807263
	H28	H	0.216559	0.922141	0.374341
	H29	H	0.217117	0.138883	0.684091
	H30	H	0.769655	0.137040	0.373163
	H31	H	0.768927	0.923667	0.684686
	H32	H	0.336342	0.255401	0.921138
	H33	H	0.648101	0.250267	0.133269
	H34	H	0.336135	0.805872	0.136168
	H35	H	0.647560	0.808798	0.923516
	H36	H	0.337348	0.920151	0.254270
	H37	H	0.646878	0.135311	0.251122
	H38	H	0.337376	0.142724	0.802376
	H39	H	0.646524	0.923773	0.806019
	H40	H	0.888034	0.251499	0.372771
	H41	H	0.098626	0.253484	0.684884
	H42	H	0.097071	0.809073	0.372121
	H43	H	0.887059	0.808312	0.685185
	H44	H	0.215345	0.373573	0.921832
	H45	H	0.213709	0.688549	0.134982
	H46	H	0.770229	0.373274	0.135027
	H47	H	0.770600	0.686897	0.923007
	H48	H	0.404673	0.141738	0.614664
	H49	H	0.571214	0.918931	0.620437
	H50	H	0.578916	0.143769	0.439093
	H51	H	0.404411	0.916125	0.436381
	H52	H	0.579127	0.432828	0.143058
	H53	H	0.586044	0.610983	0.917149
	H54	H	0.401060	0.619263	0.141409
	H55	H	0.405318	0.444122	0.918921
	H56	H	0.103957	0.615936	0.441906
	H57	H	0.882190	0.617972	0.618518
	H58	H	0.104665	0.443635	0.618906
	H59	H	0.883292	0.439865	0.447233
	H60	H	0.105006	0.440492	0.618442
	H61	H	0.881266	0.619073	0.619359
	H62	H	0.106272	0.617976	0.435391
	H63	H	0.883473	0.449801	0.437385
	H64	H	0.402365	0.614083	0.138604
	H65	H	0.573745	0.619699	0.917940
	H66	H	0.589561	0.445810	0.142249
	H67	H	0.404345	0.440557	0.917664
	H68	H	0.582109	0.144252	0.441097
	H69	H	0.582424	0.919114	0.608599
	H70	H	0.403220	0.142188	0.616156
	H71	H	0.408577	0.919115	0.444519
	H72	H	0.900490	0.644819	0.119498
	H73	H	0.079383	0.419409	0.112318
	H74	H	0.078413	0.642671	0.940981
	H75	H	0.904411	0.416466	0.940337
	H76	H	0.081817	0.947179	0.639879
	H77	H	0.076919	0.117767	0.419544
	H78	H	0.903377	0.118046	0.640910
	H79	H	0.902876	0.941484	0.417313
	H80	H	0.602828	0.122298	0.943537
	H81	H	0.379962	0.116191	0.116791
	H82	H	0.600814	0.946791	0.118331
	H83	H	0.381956	0.942050	0.948164
	H84	H	0.606074	0.939549	0.124099
	H85	H	0.378745	0.117555	0.121119
	H86	H	0.600592	0.111914	0.941356
	H87	H	0.381001	0.949530	0.937985
	H88	H	0.901258	0.120251	0.641914
	H89	H	0.083142	0.120568	0.415528
	H90	H	0.077159	0.941125	0.639380
	H91	H	0.900598	0.939371	0.415672
	H92	H	0.080386	0.642272	0.941884
	H93	H	0.085098	0.416327	0.117558
	H94	H	0.906116	0.642917	0.118328
	H95	H	0.904351	0.416487	0.940662
	H96	H	0.405448	0.141378	0.617099
	H97	H	0.585933	0.913404	0.623027
	H98	H	0.581875	0.145243	0.437464
	H99	H	0.399495	0.916347	0.444793
	H100	H	0.574488	0.447361	0.136303
	H101	H	0.586374	0.624870	0.911856
	H102	H	0.406375	0.618738	0.139440
	H103	H	0.402300	0.443580	0.917734
	H104	H	0.106836	0.622426	0.441254
	H105	H	0.881335	0.618993	0.617954
	H106	H	0.103434	0.442351	0.616482
	H107	H	0.877654	0.437244	0.434454
	H108	H	0.902455	0.642325	0.113950
	H109	H	0.077400	0.417447	0.119766
	H110	H	0.080351	0.643383	0.939808
	H111	H	0.903825	0.416256	0.940771
	H112	H	0.083888	0.940471	0.642232
	H113	H	0.083568	0.112965	0.418429
	H114	H	0.900716	0.117478	0.641479
	H115	H	0.900330	0.942977	0.416453
	H116	H	0.604525	0.118077	0.933829
	H117	H	0.379026	0.120651	0.117098
	H118	H	0.602733	0.937046	0.114554
	H119	H	0.377074	0.937400	0.937611
	C120	C	0.370435	0.038405	0.650521
	C121	C	0.612130	1.021400	0.649860
	C122	C	0.612601	0.039360	0.408110
	C123	C	0.370804	1.021327	0.408746
	C124	C	0.614168	0.407972	0.037846
	C125	C	0.613926	0.651214	1.019102
	C126	C	0.370169	0.651356	0.036774
	C127	C	0.370469	0.408825	1.020884
	C128	C	0.001788	0.650886	0.407748
	C129	C	0.984578	0.652141	0.651345
	C130	C	0.001154	0.409267	0.650156
	C131	C	0.984205	0.408415	0.406744
	C132	C	0.871117	0.539058	0.149925
	C133	C	0.113494	0.521918	0.149692
	C134	C	0.113318	0.539113	0.907578
	C135	C	0.871677	0.520829	0.907819
	C136	C	0.113625	0.909116	0.537670
	C137	C	0.114055	0.151124	0.520741
	C138	C	0.870022	0.151688	0.538094
	C139	C	0.869524	0.908450	0.520052
	C140	C	0.499910	0.151992	0.906847
	C141	C	0.482757	0.150398	0.150366
	C142	C	0.500429	0.907618	0.151379
	C143	C	0.482840	0.909613	0.907866
	C144	C	0.365995	0.920913	0.713280
	C145	C	0.614612	0.140117	0.710297
	C146	C	0.613208	0.919100	0.350348
	C147	C	0.367822	0.139699	0.347709
	C148	C	0.675401	0.403579	0.920627
	C149	C	0.674457	0.654346	0.136793
	C150	C	0.309297	0.655377	0.919214
	C151	C	0.309048	0.404971	0.137899
	C152	C	0.883291	0.710247	0.406896
	C153	C	0.102094	0.713272	0.653838
	C154	C	0.883122	0.348846	0.652319
	C155	C	0.101753	0.347128	0.404797
	C156	C	0.883735	0.405542	0.711251
	C157	C	0.101944	0.655490	0.712118
	C158	C	0.883723	0.653202	0.347907
	C159	C	0.101525	0.404063	0.345718
	C160	C	0.367843	0.712227	0.918926
	C161	C	0.615362	0.711298	0.137027
	C162	C	0.616688	0.346578	0.920379
	C163	C	0.368347	0.348364	0.139032
	C164	C	0.671314	0.919507	0.407559
	C165	C	0.672699	0.140216	0.653177
	C166	C	0.309718	0.919959	0.654549
	C167	C	0.310247	0.139965	0.405337
	C168	C	0.868339	0.420449	0.210726
	C169	C	0.116010	0.640674	0.210292
	C170	C	0.117376	0.420665	0.846425
	C171	C	0.869292	0.639791	0.847657
	C172	C	0.175579	0.904478	0.420607
	C173	C	0.175856	0.155733	0.637620
	C174	C	0.809830	0.154945	0.420325
	C175	C	0.809658	0.905879	0.637894
	C176	C	0.383136	0.214376	0.903661
	C177	C	0.600852	0.210365	0.151949
	C178	C	0.382991	0.846488	0.154033
	C179	C	0.600303	0.848523	0.905082
	C180	C	0.383616	0.903245	0.213023
	C181	C	0.600244	0.153114	0.210634
	C182	C	0.383613	0.158026	0.844320
	C183	C	0.599989	0.906152	0.846953
	C184	C	0.868873	0.211738	0.419876
	C185	C	0.116956	0.212854	0.638043
	C186	C	0.115939	0.848517	0.419654
	C187	C	0.868312	0.848358	0.638139
	C188	C	0.174837	0.420796	0.904184
	C189	C	0.173635	0.640893	0.152790
	C190	C	0.810417	0.420540	0.153170
	C191	C	0.811546	0.639829	0.905198
	C192	C	0.396804	0.120456	0.623583
	C193	C	0.587295	0.938627	0.624427
	C194	C	0.588174	0.122598	0.432290
	C195	C	0.396482	0.938525	0.434582
	C196	C	0.588558	0.434476	0.119178
	C197	C	0.589076	0.625636	0.937146
	C198	C	0.396033	0.624951	0.118511
	C199	C	0.396574	0.435200	0.939303
	C200	C	0.084161	0.626010	0.432433
	C201	C	0.902758	0.626082	0.625781
	C202	C	0.083041	0.434750	0.625074
	C203	C	0.902585	0.434846	0.432251
	C204	C	0.896028	0.621964	0.124546
	C205	C	0.088125	0.439200	0.123916
	C206	C	0.087156	0.621410	0.933634
	C207	C	0.896881	0.438018	0.933176
	C208	C	0.088250	0.935518	0.619237
	C209	C	0.088471	0.124613	0.439002
	C210	C	0.894714	0.125922	0.620096
	C211	C	0.894339	0.934088	0.437884
	C212	C	0.581496	0.125156	0.932476
	C213	C	0.400606	0.125368	0.125392
	C214	C	0.581981	0.933653	0.125933
	C215	C	0.401182	0.935495	0.933823
	Zn216	Zn	0.491143	0.030309	0.777935
	Zn217	Zn	0.491325	0.029455	0.279900
	Zn218	Zn	0.743104	0.529417	0.028083
	Zn219	Zn	0.241620	0.530886	0.028592
	Zn220	Zn	-0.007329	0.780327	0.528906
	Zn221	Zn	-0.007655	0.280184	0.529012
	Zn222	Zn	-0.007286	0.529620	0.779554
	Zn223	Zn	-0.006944	0.530060	0.278068
	Zn224	Zn	0.491315	0.780141	0.028368
	Zn225	Zn	0.491793	0.279936	0.029289
	Zn226	Zn	0.740765	0.030515	0.529509
	Zn227	Zn	0.243017	0.029714	0.529538
	N228	N	0.402746	0.995754	0.710849
	N229	N	0.577848	0.065282	0.708376
	N230	N	0.577649	0.994688	0.350377
	N231	N	0.404641	0.064701	0.349701
	N232	N	0.674170	0.440858	0.994709
	N233	N	0.673795	0.617742	0.062335
	N234	N	0.310755	0.618186	0.993566
	N235	N	0.310265	0.441884	0.063436
	N236	N	0.957672	0.708935	0.443197
	N237	N	0.027878	0.711423	0.616788
	N238	N	0.957244	0.350453	0.615534
	N239	N	0.027697	0.349430	0.441791
	N240	N	0.958235	0.442081	0.710280
	N241	N	0.027677	0.618627	0.710921
	N242	N	0.958471	0.617224	0.348186
	N243	N	0.027370	0.441230	0.346848
	N244	N	0.404864	0.710064	0.993088
	N245	N	0.578444	0.709568	0.062905
	N246	N	0.579182	0.349268	0.994192
	N247	N	0.405708	0.350410	0.065070
	N248	N	0.671461	0.995524	0.442417
	N249	N	0.671383	0.065316	0.616208
	N250	N	0.312271	0.994205	0.616170
	N251	N	0.311626	0.064999	0.442176
	N252	N	0.905246	0.495298	0.209002
	N253	N	0.079621	0.565464	0.208702
	N254	N	0.079859	0.495319	0.848310
	N255	N	0.905844	0.564696	0.849108
	N256	N	0.174284	0.941544	0.494895
	N257	N	0.174198	0.118271	0.563689
	N258	N	0.810437	0.118460	0.494827
	N259	N	0.810295	0.942579	0.563467
	N260	N	0.456412	0.210651	0.942103
	N261	N	0.526635	0.208879	0.115031
	N262	N	0.456583	0.849091	0.116316
	N263	N	0.526405	0.850663	0.942331
	N264	N	0.457593	0.940577	0.211597
	N265	N	0.525803	0.116700	0.209780
	N266	N	0.457147	0.119575	0.846399
	N267	N	0.525752	0.943263	0.848434
	N268	N	0.905685	0.209945	0.494170
	N269	N	0.079317	0.210272	0.564235
	N270	N	0.078379	0.851192	0.493502
	N271	N	0.904925	0.849937	0.563906
	N272	N	0.172522	0.495471	0.941460
	N273	N	0.172392	0.565923	0.116000
	N274	N	0.812055	0.495288	0.116124
	N275	N	0.812825	0.564754	0.941791
	O276	O	1.209414	0.941357	0.112782
	H277	H	1.206645	0.946072	0.120270
	H278	H	1.195783	0.956418	0.094294
	O279	O	-0.299523	-0.266257	0.733631
	H280	H	-0.284677	-0.238906	0.762872
	H281	H	-0.322474	-0.274877	0.743596
	O282	O	-0.232880	0.998286	0.250959
	H283	H	-0.245452	0.967791	0.264282
	H284	H	-0.249158	0.989327	0.258460
	O285	O	0.279072	0.740824	0.504804
	H286	H	0.260761	0.749669	0.508859
	H287	H	0.289195	0.748652	0.495470
	O288	O	0.510800	0.354718	0.331454
	H289	H	0.488429	0.362526	0.324493
	H290	H	0.507125	0.355430	0.342058
	O291	O	0.509091	0.741960	0.425709
	H292	H	0.525125	0.753745	0.425926
	H293	H	0.519118	0.732374	0.439894
	O294	O	-0.318327	0.715317	0.338440
	H295	H	-0.326569	0.694980	0.365386
	H296	H	-0.347581	0.697304	0.347576
	O297	O	1.016275	-0.187827	-0.190159
	H298	H	1.018169	-0.221205	-0.219204
	H299	H	1.044419	-0.171737	-0.182667
	O300	O	0.147493	0.202033	0.057275
	H301	H	0.178042	0.224572	0.064670
	H302	H	0.141561	0.195630	0.092941
	O303	O	-0.127061	0.139385	0.114296
	H304	H	-0.125142	0.139263	0.103930
	H305	H	-0.136133	0.145486	0.121784
	O306	O	0.857746	0.138136	0.028180
	H307	H	0.844654	0.135346	0.018803
	H308	H	0.850431	0.130554	0.045710
	O309	O	1.065981	-0.035670	-0.023846
	H310	H	1.086812	-0.022939	-0.024751
	H311	H	1.070191	-0.028189	-0.012776
	O312	O	0.280328	0.503093	0.739695
	H313	H	0.290469	0.485816	0.725833
	H314	H	0.252313	0.511307	0.759516
	O315	O	0.479580	0.515484	0.382394
	H316	H	0.471255	0.508965	0.389175
	H317	H	0.473769	0.526992	0.400024
	O318	O	1.187112	1.068163	0.214936
	H319	H	1.186034	1.059906	0.223034
	H320	H	1.187518	1.062261	0.225984
	O321	O	0.431819	0.553016	0.384213
	H322	H	0.427567	0.558019	0.378659
	H323	H	0.429596	0.543591	0.392382
	O324	O	0.337075	0.407475	1.701858
	H325	H	0.339463	0.395976	1.678111
	H326	H	0.354106	0.411025	1.697227
	O327	O	0.696504	0.325996	0.319590
	H328	H	0.698365	0.346990	0.318991
	H329	H	0.663971	0.325902	0.322996
	O330	O	0.203392	0.819484	0.007158
	H331	H	0.213300	0.811951	-0.010666
	H332	H	0.219345	0.831421	0.017955
	O333	O	0.537199	0.706205	-0.304938
	H334	H	0.527039	0.707296	-0.295915
	H335	H	0.534103	0.705965	-0.293642
	O336	O	1.023982	-0.130611	0.155937
	H337	H	1.025787	-0.125555	0.153879
	H338	H	1.013011	-0.125656	0.138979
	O339	O	0.337668	0.310264	0.525932
	H340	H	0.310812	0.297969	0.528353
	H341	H	0.328585	0.323102	0.517135
	O342	O	0.223983	1.077872	-0.027428
	H343	H	0.213383	1.086325	-0.025579
	H344	H	0.227767	1.105142	-0.008886
	O345	O	0.397944	0.377654	0.360140
	H346	H	0.386249	0.370411	0.354097
	H347	H	0.375496	0.394388	0.356178
	O348	O	0.775380	-0.177595	0.058904
	H349	H	0.782945	-0.176009	0.061277
	H350	H	0.765292	-0.194822	0.062629
	O351	O	0.279115	-0.256564	1.313937
	H352	H	0.284668	-0.243819	1.336327
	H353	H	0.282130	-0.233494	1.300186
	O354	O	1.700124	-0.504151	1.324510
	H355	H	1.696760	-0.500514	1.340603
	H356	H	1.718606	-0.505500	1.312252
	O357	O	0.434101	0.614851	0.725305
	H358	H	0.425748	0.593557	0.733236
	H359	H	0.427866	0.605815	0.718152
	O360	O	0.674912	0.706537	0.552975
	H361	H	0.685979	0.710051	0.574340
	H362	H	0.683690	0.713785	0.572954
	O363	O	0.709057	0.400257	-0.450298
	H364	H	0.710464	0.396054	-0.454833
	H365	H	0.712809	0.380246	-0.442502
	O366	O	0.944835	0.078100	1.257974
	H367	H	0.938902	0.076353	1.260782
	H368	H	0.922041	0.079012	1.257740
	O369	O	-0.024982	-0.109618	0.956177
	H370	H	-0.011736	-0.094927	0.966095
	H371	H	-0.010382	-0.118986	0.951067
	O372	O	-0.036769	1.244542	0.812515
	H373	H	-0.023324	1.236087	0.807778
	H374	H	-0.032274	1.266699	0.801686
	O375	O	1.173724	-0.150750	-0.154480
	H376	H	1.164252	-0.148553	-0.136741
	H377	H	1.185415	-0.112332	-0.155967
	O378	O	0.961902	0.815699	1.248307
	H379	H	0.948906	0.802063	1.242933
	H380	H	0.949682	0.795995	1.255090
	O381	O	0.557387	0.601022	0.584608
	H382	H	0.560961	0.607346	0.580141
	H383	H	0.575285	0.597377	0.582675
	O384	O	0.496712	0.679312	0.570181
	H385	H	0.511523	0.673654	0.564528
	H386	H	0.492410	0.673547	0.567505
	O387	O	0.209942	1.011817	0.852669
	H388	H	0.218658	1.031217	0.865370
	H389	H	0.232976	1.023014	0.846151
	O390	O	-0.206761	0.867607	0.863671
	H391	H	-0.192165	0.880883	0.883631
	H392	H	-0.191038	0.881276	0.869601
	O393	O	0.951812	0.123431	0.009566
	H394	H	0.940455	0.128562	0.000543
	H395	H	0.952505	0.116120	0.016986
	O396	O	0.709558	0.465912	0.490041
	H397	H	0.704549	0.467468	0.484402
	H398	H	0.721798	0.441815	0.487004
	O399	O	1.464956	0.328893	-0.264488
	H400	H	1.477255	0.310840	-0.263664
	H401	H	1.483211	0.347854	-0.260986
	O402	O	0.617268	-0.472484	1.746865
	H403	H	0.628731	-0.469592	1.756059
	H404	H	0.623633	-0.451350	1.743691
	O405	O	0.378587	0.498007	0.535780
	H406	H	0.371836	0.477753	0.526904
	H407	H	0.388801	0.504261	0.523858
	O408	O	0.835387	1.162794	0.923307
	H409	H	0.836248	1.161973	0.949667
	H410	H	0.851038	1.171888	0.918908
	O411	O	1.229282	1.264149	-0.141979
	H412	H	1.228302	1.268770	-0.143840
	H413	H	1.244428	1.303035	-0.142977
	O414	O	-0.086700	-0.047533	-0.188543
	H415	H	-0.077827	-0.046935	-0.190021
	H416	H	-0.086968	-0.043343	-0.185917
	O417	O	0.412798	0.456642	0.568638
	H418	H	0.402186	0.450929	0.565392
	H419	H	0.412685	0.460699	0.567218
	O420	O	0.624913	-0.358363	0.479091
	H421	H	0.621406	-0.356097	0.495644
	H422	H	0.628507	-0.358400	0.489761
	O423	O	0.956424	0.940331	0.001549
	H424	H	0.952325	0.937134	0.005716
	H425	H	0.973897	0.942177	-0.013583
	O426	O	0.019822	1.243102	0.243536
	H427	H	0.018920	1.264428	0.258709
	H428	H	-0.004168	1.237079	0.240124
	O429	O	0.534142	0.400781	0.578966
	H430	H	0.531819	0.403048	0.571185
	H431	H	0.557590	0.395601	0.572609
	O432	O	0.783784	0.824972	0.237624
	H433	H	0.762422	0.795434	0.254109
	H434	H	0.786695	0.821611	0.225995
	O435	O	1.180723	0.219281	0.218928
	H436	H	1.138448	0.225725	0.223590
	H437	H	1.184627	0.172282	0.218788
	O438	O	0.270444	0.550046	0.315499
	H439	H	0.268472	0.589005	0.311021
	H440	H	0.251227	0.566811	0.298935
	O441	O	0.326517	0.645607	0.591506
	H442	H	0.323758	0.636521	0.580300
	H443	H	0.319300	0.644760	0.582113
	O444	O	1.116611	-0.035991	0.242682
	H445	H	1.097307	-0.052168	0.237480
	H446	H	1.111396	-0.031987	0.234868
	O447	O	0.739652	0.318846	0.736173
	H448	H	0.761677	0.320409	0.751341
	H449	H	0.735227	0.297291	0.748292
	O450	O	0.780347	0.053350	-0.176900
	H451	H	0.778278	0.069683	-0.183617
	H452	H	0.774420	0.046778	-0.176289
	O453	O	0.909818	0.244542	0.110679
	H454	H	0.902209	0.235996	0.105248
	H455	H	0.901246	0.229071	0.099467
	O456	O	-0.233343	1.031790	1.039282
	H457	H	-0.233926	1.017992	1.029657
	H458	H	-0.232873	1.011464	1.060515
	O459	O	0.319998	-0.502352	0.500831
	H460	H	0.322625	-0.494334	0.509508
	H461	H	0.327834	-0.492451	0.493911
	O462	O	0.515950	0.658386	0.317664
	H463	H	0.520602	0.655637	0.327976
	H464	H	0.521879	0.646037	0.317463
	O465	O	1.031754	0.243026	-0.000241
	H466	H	1.020518	0.239612	0.008329
	H467	H	1.027938	0.242449	0.008729
	O468	O	0.055874	1.150907	-0.150559
	H469	H	0.073847	1.151037	-0.143934
	H470	H	0.050566	1.145285	-0.137697
	O471	O	0.636873	0.400757	0.720285
	H472	H	0.652014	0.390161	0.731237
	H473	H	0.647735	0.410997	0.716350
	O474	O	-0.097890	-0.009288	1.050583
	H475	H	-0.089054	-0.002647	1.050234
	H476	H	-0.095282	-0.002672	1.039586
	O477	O	0.478839	-0.682701	0.523994
	H478	H	0.465497	-0.686161	0.524001
	H479	H	0.470861	-0.691746	0.536535
