data_Molecule from HDF5

_cell_length_a		16.254527
_cell_length_b		16.276486
_cell_length_c		16.144456
_cell_angle_alpha	89.666034
_cell_angle_beta	89.935370
_cell_angle_gamma	89.846394
_symmetry_space_group_name_H-M	'P 1'
_symmetry_Int_Tables_number		1

loop_
	_symmetry_equiv_pos_as_xyz
	x,y,z

loop_
	_atom_site_label
	_atom_site_type_symbol
	_atom_site_fract_x
	_atom_site_fract_y
	_atom_site_fract_z
	H0	H	0.403978	0.836478	0.715619
	H1	H	0.600614	0.163710	0.713018
	H2	H	0.601320	0.836894	0.287211
	H3	H	0.403334	0.165178	0.284778
	H4	H	0.717766	0.401686	0.837336
	H5	H	0.716437	0.601260	0.164192
	H6	H	0.286173	0.601555	0.836047
	H7	H	0.286570	0.400680	0.165008
	H8	H	0.840182	0.719665	0.398947
	H9	H	0.165258	0.718336	0.603826
	H10	H	0.838945	0.285658	0.602878
	H11	H	0.165994	0.286444	0.402397
	H12	H	0.839171	0.402781	0.715934
	H13	H	0.166705	0.598332	0.715278
	H14	H	0.838501	0.601035	0.287205
	H15	H	0.166534	0.403486	0.287881
	H16	H	0.400564	0.716685	0.834771
	H17	H	0.600136	0.715888	0.163698
	H18	H	0.602329	0.287205	0.836614
	H19	H	0.400891	0.284229	0.164288
	H20	H	0.720398	0.839365	0.398200
	H21	H	0.715582	0.164333	0.596929
	H22	H	0.285990	0.838162	0.601639
	H23	H	0.286515	0.164835	0.398329
	H24	H	0.904180	0.337460	0.217352
	H25	H	0.101908	0.664491	0.216123
	H26	H	0.102272	0.337185	0.788645
	H27	H	0.901565	0.662632	0.784040
	H28	H	0.217349	0.903429	0.335477
	H29	H	0.217916	0.100931	0.665256
	H30	H	0.789690	0.102266	0.335148
	H31	H	0.787615	0.901703	0.664048
	H32	H	0.339327	0.218705	0.898193
	H33	H	0.664911	0.215206	0.100510
	H34	H	0.336906	0.786355	0.098995
	H35	H	0.663924	0.784479	0.898571
	H36	H	0.337494	0.901749	0.216328
	H37	H	0.665769	0.097976	0.213170
	H38	H	0.338724	0.100131	0.784012
	H39	H	0.665831	0.901867	0.787447
	H40	H	0.903967	0.218098	0.336751
	H41	H	0.100103	0.212754	0.666686
	H42	H	0.106431	0.784647	0.337435
	H43	H	0.902412	0.786097	0.664876
	H44	H	0.218743	0.339220	0.902144
	H45	H	0.218072	0.664375	0.102088
	H46	H	0.784958	0.338291	0.105225
	H47	H	0.785798	0.663186	0.900210
	H48	H	0.407825	0.117694	0.592442
	H49	H	0.591626	0.887363	0.584884
	H50	H	0.581005	0.112087	0.409790
	H51	H	0.415256	0.885783	0.406658
	H52	H	0.586730	0.409174	0.116038
	H53	H	0.597814	0.597461	0.879742
	H54	H	0.413973	0.603024	0.118489
	H55	H	0.412360	0.403469	0.882545
	H56	H	0.117645	0.591161	0.411167
	H57	H	0.887931	0.589682	0.589703
	H58	H	0.119254	0.405338	0.591721
	H59	H	0.884704	0.405828	0.410270
	H60	H	0.119495	0.409315	0.596442
	H61	H	0.884858	0.593562	0.598027
	H62	H	0.119615	0.593001	0.406960
	H63	H	0.887546	0.410551	0.412732
	H64	H	0.399994	0.591657	0.120180
	H65	H	0.596125	0.586773	0.883637
	H66	H	0.594098	0.402390	0.120218
	H67	H	0.403343	0.411608	0.881676
	H68	H	0.607034	0.118430	0.417176
	H69	H	0.605264	0.880924	0.591433
	H70	H	0.412073	0.117298	0.593006
	H71	H	0.407837	0.886067	0.414985
	H72	H	0.908638	0.615492	0.089205
	H73	H	0.093710	0.387517	0.087552
	H74	H	0.094941	0.618852	0.904867
	H75	H	0.911107	0.385863	0.915461
	H76	H	0.095780	0.910247	0.618760
	H77	H	0.096389	0.092973	0.383002
	H78	H	0.911401	0.088957	0.616301
	H79	H	0.911383	0.918062	0.385083
	H80	H	0.621589	0.091999	0.898548
	H81	H	0.384779	0.094141	0.092022
	H82	H	0.615122	0.911741	0.089271
	H83	H	0.384952	0.912426	0.905205
	H84	H	0.618711	0.906950	0.098011
	H85	H	0.385226	0.093458	0.090227
	H86	H	0.620299	0.102564	0.910571
	H87	H	0.382123	0.904799	0.904433
	H88	H	0.911175	0.098956	0.619596
	H89	H	0.090906	0.094662	0.384852
	H90	H	0.092999	0.910960	0.617297
	H91	H	0.918258	0.908114	0.384527
	H92	H	0.092230	0.617413	0.908244
	H93	H	0.102112	0.382441	0.096975
	H94	H	0.904392	0.619037	0.093735
	H95	H	0.904777	0.381162	0.908600
	H96	H	0.409785	0.116258	0.589833
	H97	H	0.591984	0.881678	0.600533
	H98	H	0.598919	0.123772	0.390282
	H99	H	0.405466	0.883116	0.405658
	H100	H	0.596821	0.411772	0.119032
	H101	H	0.587406	0.594467	0.884405
	H102	H	0.415865	0.585828	0.113232
	H103	H	0.413862	0.415252	0.886452
	H104	H	0.119613	0.595790	0.411737
	H105	H	0.885238	0.599076	0.590275
	H106	H	0.121766	0.403878	0.596264
	H107	H	0.885429	0.410271	0.407676
	H108	H	0.911189	0.617447	0.095643
	H109	H	0.089264	0.384759	0.099987
	H110	H	0.096007	0.617032	0.909296
	H111	H	0.914168	0.383824	0.905934
	H112	H	0.093978	0.907509	0.617906
	H113	H	0.095142	0.098415	0.382413
	H114	H	0.902103	0.093364	0.619986
	H115	H	0.906541	0.907178	0.380678
	H116	H	0.615729	0.088551	0.912932
	H117	H	0.384997	0.092185	0.092474
	H118	H	0.619046	0.902417	0.089752
	H119	H	0.385210	0.907221	0.912068
	C120	C	0.380618	0.009438	0.622406
	C121	C	0.624579	0.991608	0.620821
	C122	C	0.625043	0.010200	0.376963
	C123	C	0.380641	0.993080	0.378764
	C124	C	0.622735	0.379492	0.009934
	C125	C	0.622787	0.622298	0.991172
	C126	C	0.380042	0.623076	0.008634
	C127	C	0.380156	0.380107	0.991757
	C128	C	0.011073	0.623091	0.380080
	C129	C	0.993965	0.622415	0.622631
	C130	C	0.011747	0.378269	0.623872
	C131	C	0.994173	0.379997	0.380938
	C132	C	0.879392	0.509564	0.123485
	C133	C	0.124045	0.493011	0.123482
	C134	C	0.123999	0.509923	0.879155
	C135	C	0.880548	0.491583	0.880179
	C136	C	0.124240	0.880518	0.509308
	C137	C	0.123452	0.123252	0.492386
	C138	C	0.880089	0.123504	0.509634
	C139	C	0.881868	0.880890	0.491674
	C140	C	0.510980	0.123369	0.877840
	C141	C	0.492954	0.121741	0.121181
	C142	C	0.509623	0.878255	0.122084
	C143	C	0.492603	0.879202	0.878493
	C144	C	0.383022	0.885904	0.678111
	C145	C	0.621601	0.114706	0.675611
	C146	C	0.622192	0.886449	0.323413
	C147	C	0.383090	0.116156	0.322585
	C148	C	0.679425	0.381464	0.886341
	C149	C	0.678547	0.620947	0.114894
	C150	C	0.323762	0.621893	0.884918
	C151	C	0.324617	0.381034	0.115790
	C152	C	0.888615	0.680362	0.380327
	C153	C	0.116764	0.678780	0.622276
	C154	C	0.888101	0.323557	0.622365
	C155	C	0.117168	0.324458	0.382348
	C156	C	0.888150	0.381519	0.678794
	C157	C	0.117642	0.618965	0.677748
	C158	C	0.887864	0.621539	0.324537
	C159	C	0.117307	0.382566	0.325311
	C160	C	0.381294	0.678667	0.884203
	C161	C	0.620754	0.677964	0.114702
	C162	C	0.622020	0.324646	0.885851
	C163	C	0.381125	0.322742	0.115360
	C164	C	0.681664	0.887655	0.378468
	C165	C	0.678411	0.115336	0.617602
	C166	C	0.324083	0.886855	0.621571
	C167	C	0.325123	0.116145	0.379485
	C168	C	0.882689	0.386606	0.179896
	C169	C	0.121771	0.615780	0.178488
	C170	C	0.122311	0.386521	0.825346
	C171	C	0.881654	0.614243	0.823028
	C172	C	0.180273	0.882619	0.385394
	C173	C	0.179371	0.120502	0.616408
	C174	C	0.826431	0.122137	0.385012
	C175	C	0.825575	0.881952	0.615102
	C176	C	0.388087	0.179960	0.878482
	C177	C	0.616235	0.176962	0.119694
	C178	C	0.386070	0.823804	0.119880
	C179	C	0.615645	0.823463	0.879775
	C180	C	0.386246	0.881485	0.177815
	C181	C	0.616694	0.118934	0.175908
	C182	C	0.387993	0.121128	0.821653
	C183	C	0.616354	0.881668	0.824204
	C184	C	0.883369	0.179964	0.385803
	C185	C	0.120806	0.176179	0.617164
	C186	C	0.124797	0.823693	0.386061
	C187	C	0.883015	0.824717	0.615685
	C188	C	0.180273	0.387478	0.881693
	C189	C	0.179732	0.615665	0.121614
	C190	C	0.823534	0.386899	0.124008
	C191	C	0.824136	0.614367	0.880849
	C192	C	0.403348	0.094837	0.598922
	C193	C	0.602723	0.905566	0.598877
	C194	C	0.602333	0.095979	0.399145
	C195	C	0.402922	0.907307	0.402219
	C196	C	0.599428	0.401445	0.096196
	C197	C	0.600365	0.599668	0.904932
	C198	C	0.403136	0.600211	0.094741
	C199	C	0.403108	0.403373	0.905800
	C200	C	0.096878	0.600143	0.403235
	C201	C	0.908272	0.600496	0.599667
	C202	C	0.097810	0.399746	0.601485
	C203	C	0.907911	0.402318	0.403664
	C204	C	0.901473	0.595231	0.099774
	C205	C	0.101662	0.407058	0.101335
	C206	C	0.101019	0.595580	0.901042
	C207	C	0.903303	0.405998	0.903459
	C208	C	0.101126	0.902916	0.595491
	C209	C	0.100831	0.101717	0.405859
	C210	C	0.901802	0.100484	0.596298
	C211	C	0.905210	0.904305	0.405590
	C212	C	0.596852	0.100969	0.900595
	C213	C	0.407213	0.099763	0.098252
	C214	C	0.595376	0.900350	0.099177
	C215	C	0.406372	0.901493	0.900748
	Zn216	Zn	0.502903	-0.000200	0.750609
	Zn217	Zn	0.502222	0.000791	0.249948
	Zn218	Zn	0.751110	0.499996	0.001374
	Zn219	Zn	0.251923	0.501963	0.000981
	Zn220	Zn	0.003025	0.752441	0.501014
	Zn221	Zn	0.002430	0.250936	0.502262
	Zn222	Zn	0.002779	0.500378	0.751163
	Zn223	Zn	0.002077	0.501912	0.251784
	Zn224	Zn	0.501117	0.750564	-0.000936
	Zn225	Zn	0.501768	0.251458	0.000574
	Zn226	Zn	0.752401	0.001408	0.498877
	Zn227	Zn	0.251903	0.002199	0.500179
	N228	N	0.417263	0.963180	0.678947
	N229	N	0.588782	0.036905	0.677803
	N230	N	0.588039	0.963781	0.322110
	N231	N	0.417103	0.038755	0.322291
	N232	N	0.679974	0.414723	0.964428
	N233	N	0.679907	0.587019	0.037064
	N234	N	0.322881	0.587792	0.963005
	N235	N	0.323955	0.416036	0.038038
	N236	N	0.966327	0.681509	0.414092
	N237	N	0.039202	0.681028	0.588516
	N238	N	0.966052	0.321320	0.589090
	N239	N	0.039385	0.322838	0.416232
	N240	N	0.965823	0.414711	0.679930
	N241	N	0.040189	0.584846	0.678334
	N242	N	0.965033	0.586660	0.324268
	N243	N	0.039697	0.416433	0.324402
	N244	N	0.415469	0.679666	0.962191
	N245	N	0.586910	0.678967	0.036668
	N246	N	0.587585	0.323131	0.963793
	N247	N	0.414952	0.321750	0.037235
	N248	N	0.683509	0.965601	0.411117
	N249	N	0.680444	0.037691	0.584354
	N250	N	0.322684	0.964378	0.587307
	N251	N	0.323533	0.038634	0.413869
	N252	N	0.916717	0.463878	0.179825
	N253	N	0.087534	0.538600	0.179339
	N254	N	0.087788	0.463740	0.823642
	N255	N	0.916224	0.537147	0.822556
	N256	N	0.179982	0.917307	0.462950
	N257	N	0.181334	0.088286	0.537760
	N258	N	0.824121	0.087796	0.463090
	N259	N	0.824733	0.916199	0.536898
	N260	N	0.465627	0.181532	0.912570
	N261	N	0.538247	0.178942	0.086299
	N262	N	0.463710	0.821729	0.085806
	N263	N	0.537717	0.821610	0.912733
	N264	N	0.464163	0.914360	0.179454
	N265	N	0.539256	0.085143	0.176920
	N266	N	0.465403	0.086755	0.821039
	N267	N	0.538840	0.915699	0.823551
	N268	N	0.915888	0.181089	0.464331
	N269	N	0.086794	0.177908	0.539129
	N270	N	0.090612	0.822045	0.464165
	N271	N	0.917435	0.824095	0.537881
	N272	N	0.181286	0.465229	0.914317
	N273	N	0.181452	0.538080	0.088349
	N274	N	0.821230	0.464287	0.089554
	N275	N	0.823645	0.536985	0.915899
	O276	O	0.577853	0.482282	0.468770
	H277	H	0.584512	0.478803	0.467971
	H278	H	0.563767	0.480751	0.474663
	O279	O	0.537103	0.508884	0.601421
	H280	H	0.536560	0.513054	0.590800
	H281	H	0.531781	0.510573	0.597715
	O282	O	0.916294	0.906577	-0.038050
	H283	H	0.922347	0.903617	-0.032599
	H284	H	0.920547	0.915141	-0.035855
	O285	O	0.957204	0.071703	1.027621
	H286	H	0.958136	0.068844	1.022030
	H287	H	0.953345	0.062665	1.019502
	O288	O	0.500557	0.441300	0.528656
	H289	H	0.500301	0.446293	0.521461
	H290	H	0.496441	0.444089	0.519522
	O291	O	0.588020	0.475024	0.509074
	H292	H	0.586320	0.477687	0.508805
	H293	H	0.589962	0.469766	0.512174
	O294	O	0.419906	0.486166	0.524093
	H295	H	0.421023	0.485094	0.509065
	H296	H	0.419395	0.483536	0.532022
	O297	O	0.145056	-0.015580	0.997958
	H298	H	0.133711	-0.011364	0.997558
	H299	H	0.163183	-0.012766	1.004369
	O300	O	0.503912	0.533482	0.450144
	H301	H	0.508582	0.527797	0.457463
	H302	H	0.509774	0.524814	0.452599
	O303	O	1.040793	1.023830	0.077553
	H304	H	1.045127	1.021975	0.087652
	H305	H	1.039479	1.034538	0.083455
	O306	O	0.047744	1.083914	0.904443
	H307	H	0.039496	1.082917	0.907821
	H308	H	0.044972	1.072345	0.901229
	O309	O	0.573530	0.603638	0.503480
	H310	H	0.578708	0.596639	0.493340
	H311	H	0.574125	0.597219	0.499243
	O312	O	-0.051100	-0.088666	-0.044776
	H313	H	-0.047676	-0.091542	-0.044784
	H314	H	-0.055652	-0.094023	-0.054004
	O315	O	0.977095	0.065230	0.025305
	H316	H	0.965125	0.076393	0.029460
	H317	H	0.968271	0.064392	0.011790
	O318	O	1.031381	1.066687	1.031126
	H319	H	1.040864	1.071757	1.037703
	H320	H	1.031606	1.057578	1.029490
	O321	O	-0.057523	-0.011495	1.015242
	H322	H	-0.058030	0.000741	1.015060
	H323	H	-0.064436	0.007294	1.007185
	O324	O	0.393127	0.448280	0.408328
	H325	H	0.388959	0.460989	0.410530
	H326	H	0.389751	0.454829	0.393812
	O327	O	-0.088341	-0.085558	0.011176
	H328	H	-0.093339	-0.094228	0.015370
	H329	H	-0.076289	-0.091995	0.004661
	O330	O	0.550241	0.611317	0.443574
	H331	H	0.548476	0.599933	0.453709
	H332	H	0.560936	0.609141	0.445554
	O333	O	0.079917	0.944170	0.911251
	H334	H	0.079422	0.952890	0.917629
	H335	H	0.083446	0.938610	0.911537
	O336	O	-0.049162	-0.086040	0.010527
	H337	H	-0.061827	-0.080712	0.009323
	H338	H	-0.055365	-0.090439	0.023173
	O339	O	0.464511	0.447230	0.456425
	H340	H	0.461776	0.447269	0.437727
	H341	H	0.465458	0.445165	0.448762
	O342	O	0.861066	1.022248	1.003714
	H343	H	0.856490	1.004823	0.990115
	H344	H	0.853436	1.032115	0.978264
	O345	O	0.987633	0.917711	0.026468
	H346	H	0.984404	0.904817	0.030371
	H347	H	0.975364	0.920091	0.022874
	O348	O	0.476560	0.418275	0.517694
	H349	H	0.470265	0.429145	0.516886
	H350	H	0.472843	0.419300	0.536138
	O351	O	0.525239	0.432134	0.517413
	H352	H	0.523264	0.431745	0.525595
	H353	H	0.515968	0.413419	0.519152
	O354	O	0.459381	0.511513	0.454589
	H355	H	0.458876	0.510774	0.454803
	H356	H	0.451955	0.522948	0.459731
	O357	O	1.044294	0.149979	1.054213
	H358	H	1.045694	0.147996	1.055241
	H359	H	1.038037	0.151275	1.045344
	O360	O	0.459468	0.529236	0.569836
	H361	H	0.454930	0.532523	0.563665
	H362	H	0.467973	0.516385	0.573197
	O363	O	0.570974	0.408337	0.489163
	H364	H	0.565061	0.413618	0.474987
	H365	H	0.562872	0.392088	0.505648
	O366	O	1.118297	0.919933	1.024406
	H367	H	1.110882	0.915406	1.027076
	H368	H	1.116767	0.932840	1.029759
	O369	O	0.891443	-0.012995	0.963594
	H370	H	0.893226	-0.007327	0.970207
	H371	H	0.894837	-0.019635	0.958706
	O372	O	-0.077550	0.115835	0.034611
	H373	H	-0.081205	0.113564	0.024226
	H374	H	-0.071311	0.102574	0.025467
	O375	O	1.066110	-0.054365	-0.086947
	H376	H	1.067433	-0.062772	-0.092753
	H377	H	1.066421	-0.059671	-0.085768
	O378	O	0.408751	0.547871	0.481577
	H379	H	0.408903	0.548970	0.461002
	H380	H	0.398481	0.555391	0.485648
	O381	O	0.431859	0.632882	0.446712
	H382	H	0.432178	0.633787	0.438695
	H383	H	0.439341	0.633219	0.450259
