data_Molecule from HDF5

_cell_length_a		16.136572
_cell_length_b		16.371817
_cell_length_c		16.112265
_cell_angle_alpha	89.581918
_cell_angle_beta	90.390844
_cell_angle_gamma	89.854242
_symmetry_space_group_name_H-M	'P 1'
_symmetry_Int_Tables_number		1

loop_
	_symmetry_equiv_pos_as_xyz
	x,y,z

loop_
	_atom_site_label
	_atom_site_type_symbol
	_atom_site_fract_x
	_atom_site_fract_y
	_atom_site_fract_z
	H0	H	0.402241	0.836990	0.714451
	H1	H	0.602168	0.162315	0.709765
	H2	H	0.597574	0.833295	0.284898
	H3	H	0.401825	0.161403	0.279681
	H4	H	0.714518	0.402357	0.832809
	H5	H	0.718047	0.594475	0.163088
	H6	H	0.286770	0.599508	0.832571
	H7	H	0.295284	0.402569	0.163607
	H8	H	0.838091	0.715328	0.392738
	H9	H	0.166224	0.715658	0.599135
	H10	H	0.837884	0.282015	0.597081
	H11	H	0.166170	0.281389	0.396653
	H12	H	0.836574	0.399600	0.709208
	H13	H	0.169384	0.593815	0.710026
	H14	H	0.838185	0.596286	0.281254
	H15	H	0.170496	0.404523	0.290126
	H16	H	0.400462	0.716788	0.833041
	H17	H	0.604963	0.712279	0.163623
	H18	H	0.606974	0.284885	0.834462
	H19	H	0.402402	0.282197	0.160764
	H20	H	0.716207	0.833746	0.400410
	H21	H	0.719927	0.159546	0.597108
	H22	H	0.290140	0.835222	0.593907
	H23	H	0.285138	0.160680	0.393873
	H24	H	0.907482	0.334901	0.211118
	H25	H	0.102516	0.662325	0.210964
	H26	H	0.103536	0.334941	0.783569
	H27	H	0.902785	0.660953	0.778254
	H28	H	0.213160	0.901287	0.330817
	H29	H	0.217967	0.094994	0.659847
	H30	H	0.786673	0.096646	0.330902
	H31	H	0.792145	0.899161	0.662784
	H32	H	0.340016	0.219385	0.893549
	H33	H	0.668601	0.212620	0.098795
	H34	H	0.339243	0.781775	0.099406
	H35	H	0.666950	0.783036	0.897360
	H36	H	0.335841	0.902382	0.205774
	H37	H	0.668004	0.092081	0.210798
	H38	H	0.337682	0.099575	0.780878
	H39	H	0.669145	0.903572	0.786550
	H40	H	0.899030	0.215447	0.331854
	H41	H	0.105840	0.211685	0.660480
	H42	H	0.100789	0.784689	0.331737
	H43	H	0.899593	0.779450	0.659601
	H44	H	0.218938	0.335147	0.901490
	H45	H	0.218953	0.661450	0.096283
	H46	H	0.790384	0.335545	0.096259
	H47	H	0.787034	0.661852	0.895368
	H48	H	0.410651	0.114038	0.585567
	H49	H	0.603940	0.881857	0.584950
	H50	H	0.598642	0.116797	0.397763
	H51	H	0.396519	0.878846	0.401929
	H52	H	0.610142	0.409424	0.119694
	H53	H	0.588430	0.608635	0.877402
	H54	H	0.407004	0.596988	0.118536
	H55	H	0.417465	0.414547	0.882763
	H56	H	0.117426	0.587925	0.411165
	H57	H	0.885633	0.591095	0.585765
	H58	H	0.119355	0.411476	0.594589
	H59	H	0.885660	0.402154	0.411135
	H60	H	0.122718	0.395629	0.593340
	H61	H	0.886618	0.589468	0.584760
	H62	H	0.123154	0.592325	0.395642
	H63	H	0.886905	0.413797	0.403016
	H64	H	0.410402	0.585656	0.114178
	H65	H	0.608009	0.589283	0.876231
	H66	H	0.587727	0.413561	0.111072
	H67	H	0.414070	0.401734	0.877311
	H68	H	0.587054	0.111889	0.400492
	H69	H	0.599099	0.878741	0.602972
	H70	H	0.406882	0.115798	0.585941
	H71	H	0.412014	0.880030	0.392560
	H72	H	0.925513	0.609163	0.083803
	H73	H	0.091146	0.381237	0.102996
	H74	H	0.094479	0.614111	0.903497
	H75	H	0.913279	0.384594	0.907030
	H76	H	0.102579	0.901395	0.618083
	H77	H	0.078507	0.096717	0.380920
	H78	H	0.914882	0.095528	0.614549
	H79	H	0.899134	0.902586	0.373947
	H80	H	0.622086	0.096546	0.904367
	H81	H	0.383060	0.094098	0.092235
	H82	H	0.619811	0.907667	0.089896
	H83	H	0.383080	0.903493	0.903611
	H84	H	0.621556	0.903897	0.093358
	H85	H	0.383677	0.099757	0.084030
	H86	H	0.619390	0.092373	0.909538
	H87	H	0.387744	0.907307	0.911410
	H88	H	0.904730	0.090161	0.616459
	H89	H	0.101584	0.102811	0.371691
	H90	H	0.094554	0.913996	0.611196
	H91	H	0.909189	0.917417	0.381907
	H92	H	0.094721	0.613556	0.903807
	H93	H	0.097353	0.386264	0.082645
	H94	H	0.897018	0.615116	0.076962
	H95	H	0.903434	0.381907	0.906677
	H96	H	0.409029	0.115588	0.589711
	H97	H	0.586789	0.885032	0.589870
	H98	H	0.596043	0.111383	0.409397
	H99	H	0.411031	0.885595	0.410153
	H100	H	0.593615	0.391386	0.120053
	H101	H	0.582242	0.583369	0.887385
	H102	H	0.418743	0.594663	0.114305
	H103	H	0.403780	0.411516	0.877645
	H104	H	0.123040	0.603726	0.408728
	H105	H	0.885587	0.589414	0.586916
	H106	H	0.117876	0.403869	0.579295
	H107	H	0.881212	0.401700	0.397609
	H108	H	0.907283	0.620474	0.105043
	H109	H	0.110792	0.378164	0.096557
	H110	H	0.094545	0.613159	0.903595
	H111	H	0.909764	0.381620	0.897374
	H112	H	0.087456	0.899177	0.614273
	H113	H	0.096543	0.078819	0.379616
	H114	H	0.913733	0.085663	0.611635
	H115	H	0.917726	0.899714	0.378540
	H116	H	0.619911	0.089441	0.902830
	H117	H	0.386829	0.090636	0.083451
	H118	H	0.620610	0.903016	0.088516
	H119	H	0.387087	0.912856	0.902890
	C120	C	0.380237	0.007525	0.617405
	C121	C	0.625447	0.989515	0.620223
	C122	C	0.622566	0.005484	0.375257
	C123	C	0.378114	0.989423	0.372374
	C124	C	0.625530	0.377539	0.007533
	C125	C	0.623846	0.621271	0.989390
	C126	C	0.381589	0.621680	0.006354
	C127	C	0.383510	0.379517	0.988773
	C128	C	0.011976	0.622263	0.374389
	C129	C	0.994739	0.619250	0.616881
	C130	C	0.011274	0.375105	0.618672
	C131	C	0.993973	0.377466	0.375794
	C132	C	0.881870	0.507176	0.118545
	C133	C	0.127267	0.489900	0.120895
	C134	C	0.124651	0.506170	0.876114
	C135	C	0.879813	0.490259	0.873763
	C136	C	0.122964	0.877145	0.505260
	C137	C	0.123128	0.119942	0.486449
	C138	C	0.880213	0.119690	0.505145
	C139	C	0.880574	0.876960	0.487604
	C140	C	0.512014	0.122922	0.874737
	C141	C	0.493991	0.121174	0.117268
	C142	C	0.511526	0.876816	0.118908
	C143	C	0.494596	0.878890	0.876980
	C144	C	0.382610	0.885404	0.675170
	C145	C	0.623096	0.112774	0.673614
	C146	C	0.618788	0.882150	0.322082
	C147	C	0.381106	0.112573	0.317385
	C148	C	0.679054	0.381075	0.882730
	C149	C	0.680154	0.616256	0.113831
	C150	C	0.324791	0.619916	0.881998
	C151	C	0.330841	0.381822	0.113415
	C152	C	0.887613	0.677060	0.374020
	C153	C	0.117654	0.676491	0.618008
	C154	C	0.887237	0.319599	0.617189
	C155	C	0.117873	0.321198	0.377834
	C156	C	0.886787	0.378377	0.672807
	C157	C	0.119238	0.615810	0.673054
	C158	C	0.887694	0.618007	0.318521
	C159	C	0.119814	0.382167	0.324430
	C160	C	0.381407	0.678181	0.882261
	C161	C	0.624105	0.674907	0.113941
	C162	C	0.625309	0.322609	0.883586
	C163	C	0.384753	0.322214	0.112104
	C164	C	0.677542	0.882324	0.379845
	C165	C	0.681402	0.111617	0.617294
	C166	C	0.326548	0.884382	0.615357
	C167	C	0.322697	0.112099	0.373821
	C168	C	0.885871	0.384213	0.173874
	C169	C	0.123459	0.613388	0.173913
	C170	C	0.122956	0.383382	0.821771
	C171	C	0.882129	0.612517	0.816899
	C172	C	0.176378	0.880623	0.380488
	C173	C	0.179870	0.115909	0.610757
	C174	C	0.824271	0.117475	0.380569
	C175	C	0.827782	0.878481	0.612615
	C176	C	0.388756	0.180416	0.874296
	C177	C	0.618901	0.174918	0.118092
	C178	C	0.387789	0.820825	0.117863
	C179	C	0.618405	0.822634	0.878787
	C180	C	0.386090	0.880904	0.170858
	C181	C	0.618581	0.114774	0.173364
	C182	C	0.387593	0.120847	0.818167
	C183	C	0.619385	0.882259	0.823301
	C184	C	0.880047	0.176624	0.381081
	C185	C	0.124086	0.174046	0.610996
	C186	C	0.120344	0.822956	0.380811
	C187	C	0.881500	0.819246	0.611250
	C188	C	0.181005	0.383779	0.879705
	C189	C	0.181732	0.612792	0.117245
	C190	C	0.827814	0.384329	0.116465
	C191	C	0.824408	0.612766	0.875027
	C192	C	0.402323	0.092958	0.593924
	C193	C	0.603193	0.904139	0.598983
	C194	C	0.600621	0.091133	0.396462
	C195	C	0.399946	0.903640	0.394886
	C196	C	0.603627	0.398678	0.094377
	C197	C	0.599935	0.600179	0.902859
	C198	C	0.405208	0.598968	0.093174
	C199	C	0.405490	0.402467	0.901588
	C200	C	0.098839	0.600940	0.398066
	C201	C	0.908336	0.596791	0.592736
	C202	C	0.097669	0.397053	0.595862
	C203	C	0.907100	0.399318	0.397523
	C204	C	0.903496	0.592794	0.095475
	C205	C	0.106142	0.404125	0.100091
	C206	C	0.101593	0.591623	0.897455
	C207	C	0.902426	0.404839	0.897011
	C208	C	0.101322	0.898610	0.592057
	C209	C	0.099118	0.098954	0.399766
	C210	C	0.903993	0.097063	0.591889
	C211	C	0.902326	0.899934	0.400626
	C212	C	0.598125	0.099729	0.898669
	C213	C	0.406936	0.100721	0.093591
	C214	C	0.598324	0.898468	0.096999
	C215	C	0.408305	0.901257	0.899271
	Zn216	Zn	0.502927	-0.000291	0.747151
	Zn217	Zn	0.500405	-0.002097	0.244975
	Zn218	Zn	0.751550	0.498525	-0.002748
	Zn219	Zn	0.254775	0.498619	-0.002029
	Zn220	Zn	0.001831	0.749955	0.496123
	Zn221	Zn	0.002049	0.247833	0.496378
	Zn222	Zn	0.002720	0.497377	0.745720
	Zn223	Zn	0.004632	0.498899	0.247978
	Zn224	Zn	0.502622	0.749895	-0.001135
	Zn225	Zn	0.504806	0.251597	-0.002861
	Zn226	Zn	0.753227	-0.002945	0.497623
	Zn227	Zn	0.250753	-0.001690	0.495258
	N228	N	0.414829	0.963167	0.676803
	N229	N	0.588853	0.035851	0.675418
	N230	N	0.585580	0.959609	0.319032
	N231	N	0.414563	0.035314	0.316124
	N232	N	0.679540	0.414546	0.960750
	N233	N	0.680455	0.583700	0.035357
	N234	N	0.324720	0.585871	0.960282
	N235	N	0.330353	0.417015	0.035576
	N236	N	0.965913	0.679706	0.408336
	N237	N	0.039199	0.678641	0.583713
	N238	N	0.965658	0.317401	0.584078
	N239	N	0.038670	0.318291	0.409110
	N240	N	0.965042	0.412121	0.673991
	N241	N	0.041592	0.581131	0.672442
	N242	N	0.965974	0.584570	0.318673
	N243	N	0.041762	0.416674	0.323137
	N244	N	0.415862	0.679523	0.960676
	N245	N	0.589686	0.677984	0.035608
	N246	N	0.592508	0.320317	0.962146
	N247	N	0.416767	0.320589	0.033254
	N248	N	0.680112	0.960044	0.412176
	N249	N	0.683188	0.034136	0.584841
	N250	N	0.324942	0.961303	0.580224
	N251	N	0.320968	0.034543	0.407556
	N252	N	0.918824	0.461671	0.175320
	N253	N	0.090607	0.536051	0.176458
	N254	N	0.088713	0.460522	0.819293
	N255	N	0.915530	0.535157	0.815763
	N256	N	0.178206	0.913621	0.458850
	N257	N	0.179579	0.083084	0.532367
	N258	N	0.824274	0.082782	0.458727
	N259	N	0.827093	0.913731	0.534856
	N260	N	0.467196	0.181745	0.908756
	N261	N	0.540401	0.179014	0.083980
	N262	N	0.466710	0.818051	0.086299
	N263	N	0.539780	0.820304	0.911376
	N264	N	0.463996	0.915129	0.171648
	N265	N	0.539825	0.082362	0.173048
	N266	N	0.465124	0.085719	0.818511
	N267	N	0.541528	0.916596	0.821984
	N268	N	0.914224	0.178036	0.459574
	N269	N	0.089281	0.176459	0.532857
	N270	N	0.087720	0.820769	0.459481
	N271	N	0.913453	0.818095	0.532306
	N272	N	0.182115	0.461118	0.912648
	N273	N	0.184053	0.535200	0.084862
	N274	N	0.824932	0.461910	0.083054
	N275	N	0.822871	0.535756	0.909707
	O276	O	0.530162	0.501720	0.631044
	H277	H	0.525583	0.502535	0.631428
	H278	H	0.527222	0.502966	0.639267
	O279	O	0.396151	0.498501	0.551524
	H280	H	0.403970	0.501052	0.544923
	H281	H	0.378270	0.492305	0.543654
	O282	O	0.947628	0.947949	-0.076591
	H283	H	0.949079	0.937049	-0.076296
	H284	H	0.950930	0.953310	-0.073279
	O285	O	1.024984	0.072133	1.013062
	H286	H	1.033490	0.086431	1.013777
	H287	H	1.026490	0.070830	0.999738
	O288	O	0.577552	0.478691	0.410921
	H289	H	0.579242	0.461111	0.410072
	H290	H	0.585232	0.476866	0.406852
	O291	O	0.593647	0.643207	0.591686
	H292	H	0.586687	0.650411	0.608595
	H293	H	0.596925	0.648560	0.583149
	O294	O	0.450158	0.529212	0.498540
	H295	H	0.445377	0.531550	0.499362
	H296	H	0.465386	0.533505	0.495132
	O297	O	0.055397	-0.100576	1.086048
	H298	H	0.052319	-0.108876	1.080311
	H299	H	0.059130	-0.105541	1.099388
	O300	O	0.480492	0.499584	0.464150
	H301	H	0.484281	0.494743	0.459818
	H302	H	0.484315	0.499570	0.471120
	O303	O	0.623035	0.573427	-0.500693
	H304	H	0.626611	0.578934	-0.500948
	H305	H	0.623647	0.569724	-0.492268
	O306	O	0.043428	0.903234	0.978552
	H307	H	0.043268	0.901901	0.976394
	H308	H	0.051810	0.898244	0.983465
	O309	O	0.525851	0.407053	0.521387
	H310	H	0.535186	0.416597	0.525627
	H311	H	0.518814	0.402615	0.521847
	O312	O	0.025298	0.114632	-0.104640
	H313	H	0.032323	0.118561	-0.102438
	H314	H	0.020937	0.116442	-0.117804
	O315	O	1.081238	0.058571	0.084552
	H316	H	1.083119	0.059125	0.087634
	H317	H	1.088745	0.065256	0.076551
	O318	O	1.062850	0.856647	0.992733
	H319	H	1.071325	0.848449	1.005273
	H320	H	1.066170	0.871711	1.000663
	O321	O	-0.076031	-0.013621	0.954514
	H322	H	-0.084500	-0.012123	0.956510
	H323	H	-0.068036	-0.007820	0.966423
	O324	O	0.412761	0.556391	0.490810
	H325	H	0.422188	0.561799	0.486743
	H326	H	0.414773	0.566599	0.484984
	O327	O	-0.113497	-0.054971	-0.025883
	H328	H	-0.123350	-0.050150	-0.025442
	H329	H	-0.115391	-0.070238	-0.038197
	O330	O	0.553515	0.387505	0.492447
	H331	H	0.542084	0.379928	0.502281
	H332	H	0.552246	0.389787	0.501107
	O333	O	-0.042952	1.056215	0.943342
	H334	H	-0.044020	1.065792	0.938377
	H335	H	-0.064435	1.058419	0.951215
	O336	O	-0.055425	-0.004983	0.078679
	H337	H	-0.055699	-0.014395	0.078805
	H338	H	-0.055685	-0.004236	0.070462
	O339	O	0.491946	0.404545	0.571679
	H340	H	0.481415	0.414340	0.579370
	H341	H	0.489073	0.406183	0.579563
	O342	O	0.920923	0.938355	1.012512
	H343	H	0.926263	0.947097	1.017105
	H344	H	0.911806	0.928684	1.017888
	O345	O	1.130919	1.011413	0.019393
	H346	H	1.127289	1.006895	0.028851
	H347	H	1.147359	1.009460	0.001744
	O348	O	0.548558	0.441673	0.432733
	H349	H	0.556203	0.443996	0.431030
	H350	H	0.547367	0.435290	0.434713
	O351	O	0.526097	0.503774	0.456559
	H352	H	0.528344	0.494799	0.452861
	H353	H	0.520660	0.498944	0.441476
	O354	O	0.520291	0.514428	0.591926
	H355	H	0.530970	0.524351	0.592335
	H356	H	0.515908	0.514290	0.569976
	O357	O	0.415376	0.429631	1.479932
	H358	H	0.414627	0.425623	1.485773
	H359	H	0.419092	0.427613	1.484808
	O360	O	0.609644	0.475795	0.457051
	H361	H	0.597373	0.472673	0.454436
	H362	H	0.614764	0.479065	0.460514
	O363	O	0.967789	0.942711	0.989696
	H364	H	0.965267	0.946523	0.987919
	H365	H	0.964424	0.936991	0.991062
	O366	O	1.018288	1.005775	0.917039
	H367	H	1.009934	1.007399	0.921167
	H368	H	1.021139	1.014229	0.924972
	O369	O	0.935653	0.051062	0.919056
	H370	H	0.933053	0.030389	0.906380
	H371	H	0.911655	0.043774	0.933267
	O372	O	0.124438	0.073655	-0.027885
	H373	H	0.139624	0.072368	-0.031132
	H374	H	0.126355	0.064152	-0.032640
	O375	O	0.982474	0.096813	0.025827
	H376	H	0.976334	0.107143	0.017932
	H377	H	0.983141	0.095802	0.019679
	O378	O	0.481038	0.469298	0.562254
	H379	H	0.488569	0.474054	0.562526
	H380	H	0.472802	0.460515	0.575413
	O381	O	0.417002	0.534688	0.405400
	H382	H	0.411071	0.526947	0.397684
	H383	H	0.416740	0.527181	0.406657
