data_Molecule from HDF5

_cell_length_a		16.576885
_cell_length_b		16.454024
_cell_length_c		16.262390
_cell_angle_alpha	89.991708
_cell_angle_beta	90.115434
_cell_angle_gamma	89.971759
_symmetry_space_group_name_H-M	'P 1'
_symmetry_Int_Tables_number		1

loop_
	_symmetry_equiv_pos_as_xyz
	x,y,z

loop_
	_atom_site_label
	_atom_site_type_symbol
	_atom_site_fract_x
	_atom_site_fract_y
	_atom_site_fract_z
	H0	H	0.384301	0.852828	0.741048
	H1	H	0.595645	0.167393	0.741439
	H2	H	0.592819	0.849670	0.299662
	H3	H	0.387572	0.167481	0.298055
	H4	H	0.714690	0.400147	0.859989
	H5	H	0.718019	0.621361	0.173946
	H6	H	0.266631	0.617043	0.860912
	H7	H	0.266255	0.399419	0.175566
	H8	H	0.836063	0.736254	0.405479
	H9	H	0.145368	0.733138	0.624910
	H10	H	0.833285	0.287308	0.624946
	H11	H	0.148086	0.287409	0.414313
	H12	H	0.832041	0.406239	0.738129
	H13	H	0.147495	0.612527	0.737849
	H14	H	0.835202	0.616301	0.293241
	H15	H	0.150327	0.406494	0.298877
	H16	H	0.385476	0.729395	0.858977
	H17	H	0.599121	0.732929	0.176023
	H18	H	0.598897	0.283613	0.861328
	H19	H	0.386161	0.290004	0.178001
	H20	H	0.714633	0.852980	0.409812
	H21	H	0.713160	0.167225	0.627268
	H22	H	0.263181	0.856269	0.630380
	H23	H	0.268349	0.167437	0.411318
	H24	H	0.891065	0.351742	0.233834
	H25	H	0.098575	0.668568	0.239691
	H26	H	0.094827	0.351380	0.795478
	H27	H	0.883621	0.666985	0.794062
	H28	H	0.216303	0.900475	0.361600
	H29	H	0.214622	0.119872	0.677303
	H30	H	0.768743	0.115153	0.359632
	H31	H	0.767363	0.901611	0.677094
	H32	H	0.335019	0.236988	0.905899
	H33	H	0.641686	0.235218	0.129502
	H34	H	0.333522	0.785540	0.123613
	H35	H	0.646383	0.784880	0.909556
	H36	H	0.332019	0.902112	0.239738
	H37	H	0.646685	0.109127	0.237126
	H38	H	0.332903	0.115829	0.794816
	H39	H	0.646977	0.903732	0.795345
	H40	H	0.887119	0.228737	0.358903
	H41	H	0.096820	0.232420	0.678214
	H42	H	0.098577	0.786632	0.359281
	H43	H	0.883213	0.786284	0.676364
	H44	H	0.215557	0.353079	0.906176
	H45	H	0.218561	0.665679	0.128673
	H46	H	0.766208	0.357424	0.127167
	H47	H	0.762764	0.664562	0.903233
	H48	H	0.406046	0.122286	0.607745
	H49	H	0.577994	0.896356	0.609227
	H50	H	0.577371	0.121392	0.430506
	H51	H	0.405149	0.897588	0.429842
	H52	H	0.579805	0.423164	0.131756
	H53	H	0.581832	0.595100	0.902539
	H54	H	0.401400	0.592394	0.132591
	H55	H	0.406635	0.424674	0.905657
	H56	H	0.102731	0.599265	0.429530
	H57	H	0.877512	0.594081	0.609815
	H58	H	0.102510	0.421769	0.608315
	H59	H	0.876787	0.417388	0.423806
	H60	H	0.103336	0.417754	0.606176
	H61	H	0.875573	0.605034	0.604291
	H62	H	0.102579	0.600089	0.432410
	H63	H	0.878613	0.417119	0.429920
	H64	H	0.407286	0.594836	0.130615
	H65	H	0.576536	0.592521	0.906894
	H66	H	0.578970	0.426522	0.130471
	H67	H	0.402956	0.418308	0.902966
	H68	H	0.582805	0.122607	0.431988
	H69	H	0.576825	0.899295	0.601385
	H70	H	0.403516	0.120909	0.599542
	H71	H	0.399461	0.898007	0.436825
	H72	H	0.904926	0.626884	0.111490
	H73	H	0.079487	0.399347	0.102712
	H74	H	0.079657	0.620982	0.933788
	H75	H	0.902500	0.399812	0.936575
	H76	H	0.069374	0.925921	0.627929
	H77	H	0.077875	0.093398	0.407772
	H78	H	0.902853	0.092996	0.631571
	H79	H	0.901046	0.928062	0.405680
	H80	H	0.597243	0.091826	0.932763
	H81	H	0.374988	0.102577	0.106869
	H82	H	0.602924	0.918930	0.109671
	H83	H	0.378599	0.921832	0.926398
	H84	H	0.601905	0.916948	0.107415
	H85	H	0.377416	0.097415	0.102129
	H86	H	0.602371	0.098824	0.927677
	H87	H	0.377096	0.914759	0.930222
	H88	H	0.905103	0.103522	0.634519
	H89	H	0.075767	0.100923	0.405199
	H90	H	0.079059	0.916044	0.633261
	H91	H	0.904922	0.923184	0.405983
	H92	H	0.082688	0.622742	0.928874
	H93	H	0.084414	0.396482	0.105695
	H94	H	0.910168	0.620904	0.099057
	H95	H	0.897278	0.396335	0.929033
	H96	H	0.398595	0.124298	0.605405
	H97	H	0.583986	0.896360	0.603843
	H98	H	0.581000	0.123870	0.426432
	H99	H	0.396804	0.894123	0.428849
	H100	H	0.576439	0.423779	0.129246
	H101	H	0.576116	0.599366	0.903877
	H102	H	0.403071	0.598567	0.133801
	H103	H	0.399031	0.424549	0.904476
	H104	H	0.102158	0.597507	0.431344
	H105	H	0.880671	0.596384	0.598294
	H106	H	0.101062	0.421206	0.604618
	H107	H	0.879835	0.422312	0.426130
	H108	H	0.895750	0.625604	0.099857
	H109	H	0.079102	0.396610	0.108430
	H110	H	0.077214	0.621393	0.928439
	H111	H	0.906677	0.397617	0.928024
	H112	H	0.082785	0.930247	0.631424
	H113	H	0.082696	0.097389	0.403508
	H114	H	0.894825	0.099270	0.635886
	H115	H	0.899422	0.922400	0.403396
	H116	H	0.599890	0.100478	0.937733
	H117	H	0.375974	0.095606	0.109229
	H118	H	0.601988	0.920062	0.107212
	H119	H	0.380415	0.920783	0.934652
	C120	C	0.368853	0.019183	0.639444
	C121	C	0.612085	1.001342	0.639558
	C122	C	0.611891	0.017918	0.397393
	C123	C	0.368115	1.000669	0.397901
	C124	C	0.611925	0.389189	0.026419
	C125	C	0.612661	0.630943	1.008611
	C126	C	0.370445	0.628904	0.027195
	C127	C	0.369391	0.388553	1.009118
	C128	C	-0.000350	0.632330	0.396042
	C129	C	0.980814	0.631626	0.638595
	C130	C	-0.001337	0.387934	0.639686
	C131	C	0.982664	0.387356	0.395391
	C132	C	0.870926	0.520686	0.137610
	C133	C	0.114358	0.501456	0.139410
	C134	C	0.112170	0.517637	0.896488
	C135	C	0.868578	0.501247	0.896247
	C136	C	0.111189	0.889862	0.526377
	C137	C	0.111382	0.130596	0.510738
	C138	C	0.869150	0.130843	0.528052
	C139	C	0.868944	0.889661	0.509559
	C140	C	0.497556	0.130959	0.897351
	C141	C	0.479601	0.130405	0.139430
	C142	C	0.498504	0.885839	0.140534
	C143	C	0.481918	0.886870	0.896642
	C144	C	0.365619	0.900589	0.701192
	C145	C	0.614232	0.119962	0.701238
	C146	C	0.612674	0.898100	0.338116
	C147	C	0.367712	0.120032	0.337552
	C148	C	0.674199	0.383161	0.907941
	C149	C	0.676105	0.637324	0.127025
	C150	C	0.308109	0.634017	0.907993
	C151	C	0.307467	0.383375	0.128106
	C152	C	0.882692	0.694716	0.389470
	C153	C	0.098730	0.692325	0.642535
	C154	C	0.880408	0.327478	0.642907
	C155	C	0.101287	0.327642	0.394958
	C156	C	0.879762	0.386576	0.699332
	C157	C	0.099599	0.632601	0.698895
	C158	C	0.882181	0.634875	0.333388
	C159	C	0.102314	0.386954	0.337652
	C160	C	0.367419	0.689655	0.906958
	C161	C	0.616959	0.692929	0.127985
	C162	C	0.616369	0.325226	0.908531
	C163	C	0.367119	0.328643	0.129577
	C164	C	0.673232	0.899830	0.393407
	C165	C	0.673081	0.119681	0.644703
	C166	C	0.305313	0.902128	0.646141
	C167	C	0.308077	0.119622	0.393408
	C168	C	0.870611	0.400527	0.196316
	C169	C	0.117598	0.620368	0.200453
	C170	C	0.113781	0.399219	0.834998
	C171	C	0.865519	0.619471	0.833913
	C172	C	0.174544	0.884008	0.408451
	C173	C	0.173190	0.135700	0.630053
	C174	C	0.809066	0.133189	0.407704
	C175	C	0.808057	0.884608	0.629213
	C176	C	0.381412	0.194688	0.890473
	C177	C	0.596351	0.192633	0.145079
	C178	C	0.380382	0.825572	0.142341
	C179	C	0.599502	0.825619	0.892288
	C180	C	0.379862	0.883731	0.200169
	C181	C	0.598654	0.130522	0.198886
	C182	C	0.380149	0.134485	0.834771
	C183	C	0.599885	0.884914	0.835406
	C184	C	0.867744	0.189780	0.407101
	C185	C	0.114501	0.192035	0.630453
	C186	C	0.115418	0.827548	0.407332
	C187	C	0.865597	0.827124	0.628776
	C188	C	0.173850	0.399933	0.890778
	C189	C	0.177333	0.618906	0.144871
	C190	C	0.808659	0.403258	0.143198
	C191	C	0.805122	0.618216	0.888546
	C192	C	0.395109	0.101135	0.612145
	C193	C	0.586820	0.919024	0.612737
	C194	C	0.587397	0.100963	0.422360
	C195	C	0.393048	0.918266	0.424336
	C196	C	0.585857	0.416760	0.109032
	C197	C	0.585880	0.603700	0.926102
	C198	C	0.396416	0.602771	0.110476
	C199	C	0.395315	0.415057	0.925844
	C200	C	0.081117	0.606522	0.423319
	C201	C	0.899245	0.605919	0.611844
	C202	C	0.080634	0.412819	0.613878
	C203	C	0.900047	0.411752	0.419535
	C204	C	0.896288	0.602959	0.111090
	C205	C	0.088606	0.419260	0.113153
	C206	C	0.087122	0.600306	0.923117
	C207	C	0.894574	0.419306	0.923664
	C208	C	0.084660	0.916618	0.609256
	C209	C	0.085920	0.104770	0.427298
	C210	C	0.893932	0.105950	0.612144
	C211	C	0.894642	0.916654	0.426675
	C212	C	0.578734	0.104382	0.924664
	C213	C	0.397514	0.105494	0.113571
	C214	C	0.580937	0.911050	0.115258
	C215	C	0.400031	0.912075	0.922692
	Zn216	Zn	0.490030	0.009413	0.767620
	Zn217	Zn	0.489151	0.008390	0.268913
	Zn218	Zn	0.740729	0.510663	0.016990
	Zn219	Zn	0.242131	0.508940	0.017303
	Zn220	Zn	-0.010165	0.761375	0.517507
	Zn221	Zn	-0.009484	0.258880	0.519033
	Zn222	Zn	-0.010443	0.509381	0.768029
	Zn223	Zn	-0.007629	0.510863	0.266896
	Zn224	Zn	0.490265	0.757336	0.018354
	Zn225	Zn	0.489609	0.260797	0.018547
	Zn226	Zn	0.740819	0.010055	0.519237
	Zn227	Zn	0.239994	0.010811	0.519107
	N228	N	0.404416	0.974364	0.697038
	N229	N	0.577362	0.045214	0.698696
	N230	N	0.575276	0.972676	0.340269
	N231	N	0.404036	0.044998	0.339894
	N232	N	0.671359	0.422425	0.982349
	N233	N	0.673818	0.599650	0.051543
	N234	N	0.309924	0.597145	0.983592
	N235	N	0.308416	0.419488	0.051839
	N236	N	0.956720	0.693340	0.427346
	N237	N	0.023777	0.692203	0.606344
	N238	N	0.955301	0.327994	0.606731
	N239	N	0.025706	0.327224	0.429630
	N240	N	0.954167	0.423375	0.697493
	N241	N	0.025277	0.595703	0.696841
	N242	N	0.956017	0.596944	0.337146
	N243	N	0.027538	0.423175	0.337637
	N244	N	0.405452	0.686576	0.982158
	N245	N	0.578239	0.688998	0.053360
	N246	N	0.578440	0.328739	0.983291
	N247	N	0.404825	0.331871	0.054388
	N248	N	0.672813	0.975275	0.429697
	N249	N	0.672034	0.044798	0.607353
	N250	N	0.307284	0.976934	0.608722
	N251	N	0.307995	0.044234	0.429876
	N252	N	0.908347	0.474741	0.193413
	N253	N	0.079212	0.546458	0.197338
	N254	N	0.076126	0.473543	0.838444
	N255	N	0.904590	0.545856	0.838669
	N256	N	0.171887	0.922118	0.483578
	N257	N	0.171101	0.097989	0.554741
	N258	N	0.809887	0.097478	0.483976
	N259	N	0.809947	0.922667	0.554103
	N260	N	0.455392	0.192610	0.928794
	N261	N	0.521491	0.192578	0.108837
	N262	N	0.455279	0.826657	0.106105
	N263	N	0.525199	0.826669	0.929529
	N264	N	0.454258	0.920392	0.199129
	N265	N	0.525044	0.092503	0.195619
	N266	N	0.453253	0.095253	0.839033
	N267	N	0.525760	0.922179	0.837906
	N268	N	0.904378	0.188510	0.483066
	N269	N	0.076490	0.188934	0.555348
	N270	N	0.076636	0.831165	0.481826
	N271	N	0.902570	0.829897	0.553267
	N272	N	0.172820	0.474644	0.928624
	N273	N	0.175570	0.543818	0.107662
	N274	N	0.808445	0.479013	0.107545
	N275	N	0.806908	0.543669	0.926537
	O276	O	0.058524	-0.055342	0.221888
	H277	H	0.041133	-0.093174	0.236949
	H278	H	0.079724	-0.053028	0.196884
	O279	O	0.815343	-0.168067	1.196902
	H280	H	0.804798	-0.160515	1.157312
	H281	H	0.800420	-0.135346	1.192239
	O282	O	0.513499	0.725803	0.731092
	H283	H	0.531114	0.712026	0.734375
	H284	H	0.513049	0.744479	0.761196
	O285	O	0.672238	0.691552	0.695467
	H286	H	0.680585	0.657101	0.687728
	H287	H	0.655154	0.682111	0.689876
	O288	O	0.779403	1.034393	-0.191724
	H289	H	0.762276	1.024813	-0.200231
	H290	H	0.769458	1.015640	-0.182942
	O291	O	0.283227	0.531114	0.308939
	H292	H	0.269367	0.522978	0.281345
	H293	H	0.311008	0.507008	0.297494
	O294	O	0.177289	-0.176412	0.831304
	H295	H	0.192585	-0.163132	0.840654
	H296	H	0.186389	-0.149491	0.849538
	O297	O	0.645201	0.475174	0.691457
	H298	H	0.649283	0.468877	0.699162
	H299	H	0.635659	0.462163	0.680840
	O300	O	0.319577	0.345348	0.579854
	H301	H	0.322904	0.346016	0.575613
	H302	H	0.339571	0.355893	0.576864
	O303	O	0.388043	0.563962	0.534055
	H304	H	0.366312	0.558651	0.518861
	H305	H	0.385949	0.597056	0.530498
	O306	O	1.181401	1.190018	0.208100
	H307	H	1.189795	1.138745	0.218601
	H308	H	1.199133	1.200304	0.169487
	O309	O	0.360138	0.703454	0.322696
	H310	H	0.335715	0.671659	0.317633
	H311	H	0.345027	0.717206	0.346297
	O312	O	0.200340	1.027532	1.005104
	H313	H	0.194109	1.025090	1.021192
	H314	H	0.206339	1.060912	1.006393
	O315	O	0.396447	0.614001	0.718342
	H316	H	0.395672	0.623696	0.739349
	H317	H	0.396913	0.605809	0.717248
	O318	O	0.925028	-0.056610	-0.175829
	H319	H	0.932974	-0.075660	-0.178880
	H320	H	0.911319	-0.073442	-0.173547
	O321	O	0.108918	-0.058683	0.064399
	H322	H	0.091380	-0.067008	0.039226
	H323	H	0.133808	-0.047746	0.049724
	O324	O	0.798264	-0.008975	0.204439
	H325	H	0.790088	0.002603	0.201384
	H326	H	0.823259	0.007969	0.216290
	O327	O	0.552028	0.410382	0.723107
	H328	H	0.550529	0.388525	0.723403
	H329	H	0.550146	0.408353	0.717220
	O330	O	0.706982	1.628489	-0.537559
	H331	H	0.709573	1.624844	-0.531479
	H332	H	0.705127	1.616160	-0.537076
	O333	O	0.487428	0.710963	0.358203
	H334	H	0.474840	0.735929	0.338662
	H335	H	0.461689	0.702785	0.366944
	O336	O	-0.112008	0.009069	0.026732
	H337	H	-0.102324	0.009434	0.042021
	H338	H	-0.101414	-0.001999	0.016763
	O339	O	-0.150959	1.187596	0.888525
	H340	H	-0.160543	1.152937	0.858525
	H341	H	-0.112561	1.188102	0.901593
	O342	O	-0.111163	0.999941	0.979897
	H343	H	-0.119407	0.999591	0.976078
	H344	H	-0.113006	0.971744	0.994793
	O345	O	0.688894	0.306029	-0.682984
	H346	H	0.696698	0.361198	-0.692864
	H347	H	0.721707	0.277361	-0.718703
	O348	O	0.287438	0.321848	0.520780
	H349	H	0.280960	0.300641	0.532648
	H350	H	0.302829	0.330682	0.532192
	O351	O	0.516006	1.445751	0.521768
	H352	H	0.513036	1.444670	0.533107
	H353	H	0.513831	1.464965	0.507013
	O354	O	0.017992	0.788995	-0.197920
	H355	H	0.030585	0.758647	-0.228914
	H356	H	0.062007	0.794297	-0.194835
	O357	O	-0.026974	-0.204429	1.231548
	H358	H	-0.049376	-0.219199	1.243597
	H359	H	-0.062455	-0.212623	1.240222
	O360	O	0.481976	0.338151	0.417911
	H361	H	0.488062	0.341710	0.406063
	H362	H	0.500123	0.346390	0.432010
	O363	O	-0.046818	0.210310	0.810820
	H364	H	-0.036378	0.184311	0.807392
	H365	H	-0.063807	0.225294	0.779865
	O366	O	0.206396	0.036217	1.215536
	H367	H	0.195438	0.008406	1.202002
	H368	H	0.232981	0.034697	1.245833
	O369	O	0.266587	0.504388	0.497009
	H370	H	0.263994	0.522595	0.478163
	H371	H	0.265176	0.492574	0.486046
	O372	O	0.795582	0.203654	1.202855
	H373	H	0.804494	0.194607	1.170030
	H374	H	0.810977	0.175206	1.190226
	O375	O	0.287425	0.538362	0.723052
	H376	H	0.277131	0.539003	0.730388
	H377	H	0.286303	0.518314	0.699686
	O378	O	0.385191	0.725558	0.559102
	H379	H	0.410688	0.718971	0.561312
	H380	H	0.405991	0.734440	0.579145
	O381	O	1.035396	-0.199851	0.059432
	H382	H	1.021488	-0.207354	0.085332
	H383	H	1.020454	-0.173412	0.057080
	O384	O	0.551035	0.601361	0.364526
	H385	H	0.531644	0.607279	0.368156
	H386	H	0.530422	0.621627	0.352561
	O387	O	0.283383	-0.280768	0.448774
	H388	H	0.312701	-0.272264	0.484920
	H389	H	0.258915	-0.267608	0.443057
	O390	O	-0.094600	-0.195149	-0.046570
	H391	H	-0.070693	-0.180935	-0.033193
	H392	H	-0.071972	-0.191966	-0.080311
	O393	O	0.779812	0.795584	1.035377
	H394	H	0.791973	0.780509	1.015801
	H395	H	0.776815	0.768573	1.025882
	O396	O	1.706613	0.475610	0.300739
	H397	H	1.691339	0.502599	0.306268
	H398	H	1.723630	0.488365	0.272275
	O399	O	1.055156	0.217415	0.995251
	H400	H	1.031979	0.223911	1.002041
	H401	H	1.037991	0.202358	0.994802
	O402	O	1.504197	0.682388	0.534343
	H403	H	1.523743	0.684032	0.516117
	H404	H	1.520500	0.675053	0.518190
	O405	O	1.022854	1.227357	0.237530
	H406	H	1.021933	1.260053	0.276155
	H407	H	1.072577	1.217422	0.229661
	O408	O	0.956514	0.069226	0.221300
	H409	H	0.981567	0.087159	0.231503
	H410	H	0.979242	0.052060	0.218381
	O411	O	1.211249	1.223597	0.038040
	H412	H	1.238048	1.263882	0.040134
	H413	H	1.170214	1.232042	0.027978
	O414	O	0.703983	0.290055	0.488781
	H415	H	0.699237	0.300663	0.446494
	H416	H	0.735107	0.260282	0.480544
	O417	O	0.694356	0.506126	0.520425
	H418	H	0.662738	0.506917	0.517587
	H419	H	0.705274	0.516976	0.531466
	O420	O	0.691603	0.659148	0.589382
	H421	H	0.705715	0.663071	0.599225
	H422	H	0.699643	0.637531	0.571744
	O423	O	0.500413	0.337490	0.715540
	H424	H	0.495040	0.329012	0.713551
	H425	H	0.513812	0.326778	0.702307
	O426	O	0.439465	0.454791	0.315381
	H427	H	0.458056	0.432214	0.320986
	H428	H	0.444998	0.456848	0.335907
	O429	O	0.563831	0.378852	0.379032
	H430	H	0.581679	0.371227	0.374687
	H431	H	0.580523	0.365795	0.373002
	O432	O	0.456403	0.316350	0.633387
	H433	H	0.474542	0.324066	0.613998
	H434	H	0.472669	0.322228	0.629896
	O435	O	0.174438	1.010368	-0.135094
	H436	H	0.196827	1.028776	-0.150983
	H437	H	0.182186	1.022445	-0.119125
	O438	O	0.049401	0.069976	-0.193183
	H439	H	0.028200	0.062182	-0.192210
	H440	H	0.061990	0.056953	-0.192381
	O441	O	0.942215	0.011318	-0.054065
	H442	H	0.935448	0.021797	-0.052844
	H443	H	0.948836	0.032185	-0.060492
	O444	O	-0.051142	1.165948	1.077293
	H445	H	-0.049149	1.171436	1.091168
	H446	H	-0.068046	1.173533	1.092455
	O447	O	0.438636	0.438366	0.478163
	H448	H	0.461055	0.458700	0.480763
	H449	H	0.418632	0.439169	0.489700
	O450	O	0.773272	0.216481	0.016244
	H451	H	0.748188	0.240923	-0.007006
	H452	H	0.790782	0.198828	-0.008128
	O453	O	0.198460	-0.201658	0.994622
	H454	H	0.171735	-0.198631	1.000582
	H455	H	0.212654	-0.231692	1.001686
