data_Molecule from HDF5

_cell_length_a		16.215088
_cell_length_b		16.278880
_cell_length_c		16.299338
_cell_angle_alpha	89.869253
_cell_angle_beta	89.948940
_cell_angle_gamma	90.035070
_symmetry_space_group_name_H-M	'P 1'
_symmetry_Int_Tables_number		1

loop_
	_symmetry_equiv_pos_as_xyz
	x,y,z

loop_
	_atom_site_label
	_atom_site_type_symbol
	_atom_site_fract_x
	_atom_site_fract_y
	_atom_site_fract_z
	H0	H	0.408191	0.831073	0.707442
	H1	H	0.605006	0.158055	0.706856
	H2	H	0.603167	0.830147	0.279811
	H3	H	0.408687	0.157827	0.278361
	H4	H	0.719651	0.397559	0.829602
	H5	H	0.717733	0.590843	0.157972
	H6	H	0.291000	0.592860	0.829612
	H7	H	0.292199	0.397114	0.157677
	H8	H	0.840903	0.706899	0.397423
	H9	H	0.170989	0.707163	0.591151
	H10	H	0.842064	0.278943	0.593032
	H11	H	0.171209	0.282924	0.397236
	H12	H	0.841618	0.395673	0.709070
	H13	H	0.170012	0.593171	0.708987
	H14	H	0.841253	0.592667	0.279730
	H15	H	0.170345	0.396194	0.279134
	H16	H	0.407605	0.708997	0.829666
	H17	H	0.604303	0.709780	0.156508
	H18	H	0.603609	0.280719	0.828905
	H19	H	0.406728	0.278561	0.156827
	H20	H	0.719384	0.829596	0.396909
	H21	H	0.720463	0.158305	0.589568
	H22	H	0.292847	0.830210	0.591030
	H23	H	0.294209	0.158883	0.395546
	H24	H	0.906018	0.331022	0.209631
	H25	H	0.104379	0.658029	0.207514
	H26	H	0.104932	0.330507	0.780118
	H27	H	0.907296	0.658206	0.779802
	H28	H	0.219175	0.898414	0.329201
	H29	H	0.220797	0.091902	0.656829
	H30	H	0.793424	0.092692	0.329172
	H31	H	0.792097	0.895909	0.657258
	H32	H	0.340393	0.207540	0.894514
	H33	H	0.669983	0.207418	0.089472
	H34	H	0.340102	0.781529	0.090726
	H35	H	0.669372	0.779674	0.894144
	H36	H	0.341179	0.896067	0.208071
	H37	H	0.670672	0.091483	0.205060
	H38	H	0.342027	0.092853	0.777653
	H39	H	0.670814	0.897197	0.779660
	H40	H	0.907905	0.210314	0.330011
	H41	H	0.105218	0.208012	0.657101
	H42	H	0.105034	0.779622	0.330172
	H43	H	0.908045	0.779820	0.658043
	H44	H	0.220532	0.330585	0.895732
	H45	H	0.220362	0.657702	0.091232
	H46	H	0.791410	0.329910	0.092010
	H47	H	0.791686	0.657739	0.896328
	H48	H	0.413618	0.112633	0.588453
	H49	H	0.608674	0.877026	0.580562
	H50	H	0.593692	0.109550	0.397023
	H51	H	0.412007	0.876687	0.397895
	H52	H	0.597543	0.405800	0.107781
	H53	H	0.607123	0.584920	0.875797
	H54	H	0.410925	0.589611	0.110778
	H55	H	0.419463	0.405084	0.880054
	H56	H	0.120211	0.578475	0.400361
	H57	H	0.891124	0.582875	0.584028
	H58	H	0.125174	0.403327	0.596602
	H59	H	0.886562	0.393110	0.401345
	H60	H	0.124963	0.392826	0.584719
	H61	H	0.887744	0.585606	0.593089
	H62	H	0.126439	0.590489	0.391681
	H63	H	0.892664	0.405602	0.409181
	H64	H	0.411922	0.585969	0.108978
	H65	H	0.592377	0.582620	0.880333
	H66	H	0.593260	0.396149	0.109511
	H67	H	0.412194	0.392510	0.874207
	H68	H	0.603783	0.110357	0.404346
	H69	H	0.599106	0.874560	0.597492
	H70	H	0.415717	0.110323	0.584980
	H71	H	0.415340	0.878496	0.399717
	H72	H	0.907370	0.610907	0.081190
	H73	H	0.095713	0.378360	0.087746
	H74	H	0.093224	0.611598	0.893917
	H75	H	0.911682	0.376958	0.901729
	H76	H	0.104790	0.909038	0.608791
	H77	H	0.087418	0.095399	0.378593
	H78	H	0.914402	0.089363	0.610198
	H79	H	0.911690	0.901289	0.377564
	H80	H	0.623760	0.085665	0.892660
	H81	H	0.385337	0.087607	0.094321
	H82	H	0.620139	0.905003	0.083937
	H83	H	0.383884	0.906006	0.879232
	H84	H	0.622834	0.901507	0.090071
	H85	H	0.387449	0.093785	0.081723
	H86	H	0.624878	0.094928	0.901340
	H87	H	0.384940	0.882246	0.907755
	H88	H	0.910927	0.084371	0.609991
	H89	H	0.110594	0.094363	0.371839
	H90	H	0.090830	0.898713	0.608079
	H91	H	0.915033	0.901604	0.378298
	H92	H	0.095255	0.607151	0.908453
	H93	H	0.099348	0.378391	0.084315
	H94	H	0.909220	0.613577	0.094546
	H95	H	0.912864	0.377114	0.899550
	H96	H	0.411093	0.111108	0.584231
	H97	H	0.590506	0.881658	0.581710
	H98	H	0.604532	0.114252	0.392032
	H99	H	0.411814	0.877686	0.401422
	H100	H	0.603475	0.397762	0.111885
	H101	H	0.596894	0.596842	0.874546
	H102	H	0.414669	0.588398	0.109957
	H103	H	0.404835	0.405811	0.875474
	H104	H	0.122331	0.592164	0.407203
	H105	H	0.887519	0.591995	0.585310
	H106	H	0.119837	0.408026	0.582486
	H107	H	0.888391	0.407277	0.393836
	H108	H	0.919423	0.608110	0.086886
	H109	H	0.100966	0.376094	0.089105
	H110	H	0.107256	0.613500	0.900584
	H111	H	0.913721	0.378031	0.901603
	H112	H	0.105646	0.892472	0.613984
	H113	H	0.099941	0.075068	0.380757
	H114	H	0.916113	0.084319	0.607974
	H115	H	0.913910	0.898936	0.377435
	H116	H	0.619807	0.083055	0.904740
	H117	H	0.391082	0.080352	0.083177
	H118	H	0.622737	0.897613	0.083848
	H119	H	0.397172	0.917276	0.912067
	C120	C	0.385049	0.002782	0.614385
	C121	C	0.627746	0.986091	0.614390
	C122	C	0.628303	0.002792	0.370744
	C123	C	0.385074	0.985870	0.371351
	C124	C	0.626605	0.372155	0.001428
	C125	C	0.627074	0.616396	0.985095
	C126	C	0.383923	0.616121	0.001568
	C127	C	0.383810	0.372456	0.985111
	C128	C	0.014214	0.615655	0.371973
	C129	C	0.997680	0.615140	0.615437
	C130	C	0.014728	0.372526	0.616480
	C131	C	0.997854	0.373532	0.372964
	C132	C	0.883664	0.502606	0.115627
	C133	C	0.127184	0.485825	0.115197
	C134	C	0.127249	0.502559	0.872672
	C135	C	0.884104	0.485766	0.872463
	C136	C	0.128226	0.872596	0.501966
	C137	C	0.128275	0.116173	0.484958
	C138	C	0.885429	0.115444	0.501369
	C139	C	0.884716	0.871994	0.485665
	C140	C	0.513917	0.116068	0.871283
	C141	C	0.497137	0.115372	0.114079
	C142	C	0.513396	0.873246	0.114442
	C143	C	0.497277	0.873054	0.871208
	C144	C	0.387627	0.879684	0.669628
	C145	C	0.625160	0.109490	0.668693
	C146	C	0.624656	0.878940	0.317079
	C147	C	0.387919	0.109220	0.316259
	C148	C	0.681675	0.376372	0.878178
	C149	C	0.680832	0.612320	0.108714
	C150	C	0.328914	0.613532	0.878276
	C151	C	0.329497	0.375853	0.108665
	C152	C	0.890394	0.670229	0.375436
	C153	C	0.121775	0.669809	0.612101
	C154	C	0.891019	0.316969	0.613621
	C155	C	0.121904	0.319629	0.376038
	C156	C	0.890609	0.375022	0.671189
	C157	C	0.121318	0.613194	0.670620
	C158	C	0.890463	0.613151	0.317350
	C159	C	0.121387	0.375792	0.317333
	C160	C	0.386754	0.671068	0.878357
	C161	C	0.624394	0.671392	0.108056
	C162	C	0.623952	0.318451	0.877819
	C163	C	0.386740	0.317448	0.108345
	C164	C	0.682139	0.878651	0.375339
	C165	C	0.682576	0.109458	0.610791
	C166	C	0.330672	0.879210	0.611444
	C167	C	0.331223	0.109765	0.374474
	C168	C	0.885889	0.379343	0.170916
	C169	C	0.124669	0.609084	0.169780
	C170	C	0.125212	0.379388	0.817891
	C171	C	0.887133	0.609240	0.817722
	C172	C	0.182153	0.876467	0.378322
	C173	C	0.183066	0.112670	0.607959
	C174	C	0.830829	0.113339	0.378177
	C175	C	0.829973	0.875171	0.608838
	C176	C	0.390079	0.170302	0.874253
	C177	C	0.620905	0.169910	0.110593
	C178	C	0.389434	0.818798	0.111682
	C179	C	0.620687	0.817954	0.873990
	C180	C	0.390003	0.875204	0.170136
	C181	C	0.621095	0.112459	0.168128
	C182	C	0.390735	0.113427	0.816122
	C183	C	0.621309	0.876132	0.816896
	C184	C	0.887677	0.172036	0.378694
	C185	C	0.125874	0.170495	0.608181
	C186	C	0.125562	0.817355	0.379019
	C187	C	0.887424	0.817395	0.609077
	C188	C	0.182311	0.379193	0.875433
	C189	C	0.182093	0.609133	0.111728
	C190	C	0.828859	0.378985	0.112777
	C191	C	0.829484	0.609033	0.875395
	C192	C	0.406946	0.089173	0.592382
	C193	C	0.605855	0.899956	0.592902
	C194	C	0.607308	0.089078	0.391716
	C195	C	0.406742	0.899865	0.393160
	C196	C	0.604561	0.393554	0.087479
	C197	C	0.605307	0.594650	0.899164
	C198	C	0.405972	0.594262	0.087670
	C199	C	0.405681	0.394532	0.898957
	C200	C	0.100762	0.593529	0.393430
	C201	C	0.911217	0.593308	0.593770
	C202	C	0.101065	0.394827	0.594577
	C203	C	0.911458	0.395554	0.395035
	C204	C	0.905396	0.588617	0.093940
	C205	C	0.105140	0.399719	0.093519
	C206	C	0.105049	0.588607	0.894481
	C207	C	0.906126	0.399590	0.894471
	C208	C	0.106481	0.893793	0.588092
	C209	C	0.105878	0.094653	0.399233
	C210	C	0.907367	0.092775	0.587234
	C211	C	0.907034	0.894203	0.399923
	C212	C	0.600604	0.094161	0.893202
	C213	C	0.410318	0.093570	0.092775
	C214	C	0.599789	0.894905	0.092489
	C215	C	0.410791	0.895336	0.893209
	Zn216	Zn	0.506296	-0.005255	0.742802
	Zn217	Zn	0.505823	-0.005667	0.242188
	Zn218	Zn	0.755273	0.494179	-0.006023
	Zn219	Zn	0.255594	0.494526	-0.006936
	Zn220	Zn	0.006116	0.743615	0.494321
	Zn221	Zn	0.006512	0.244689	0.494040
	Zn222	Zn	0.006215	0.494297	0.744373
	Zn223	Zn	0.005774	0.493687	0.243898
	Zn224	Zn	0.505017	0.745044	-0.006859
	Zn225	Zn	0.505056	0.243662	-0.006959
	Zn226	Zn	0.756816	-0.006126	0.492939
	Zn227	Zn	0.256844	-0.005334	0.492984
	N228	N	0.420716	0.957556	0.671365
	N229	N	0.592194	0.031632	0.671175
	N230	N	0.592083	0.956850	0.314024
	N231	N	0.421018	0.031403	0.314524
	N232	N	0.683404	0.408996	0.955976
	N233	N	0.682603	0.578951	0.031359
	N234	N	0.327004	0.580286	0.955978
	N235	N	0.327648	0.409521	0.030987
	N236	N	0.968055	0.671404	0.409176
	N237	N	0.043989	0.670889	0.578381
	N238	N	0.969109	0.315315	0.580414
	N239	N	0.044131	0.318066	0.409895
	N240	N	0.968552	0.408792	0.672984
	N241	N	0.043269	0.580126	0.672932
	N242	N	0.968576	0.580130	0.314934
	N243	N	0.043288	0.408798	0.315693
	N244	N	0.420003	0.672800	0.956078
	N245	N	0.591700	0.674080	0.030183
	N246	N	0.590535	0.315818	0.955385
	N247	N	0.419329	0.315118	0.030491
	N248	N	0.684617	0.956643	0.407858
	N249	N	0.684185	0.031791	0.577610
	N250	N	0.328998	0.956858	0.577931
	N251	N	0.329186	0.032176	0.407995
	N252	N	0.919386	0.456951	0.172817
	N253	N	0.091295	0.531305	0.172067
	N254	N	0.091653	0.457034	0.816232
	N255	N	0.920292	0.531418	0.815847
	N256	N	0.184037	0.909998	0.455606
	N257	N	0.184674	0.079575	0.530346
	N258	N	0.829349	0.078936	0.455350
	N259	N	0.828001	0.908237	0.531023
	N260	N	0.467934	0.171958	0.907809
	N261	N	0.542844	0.171822	0.077802
	N262	N	0.467211	0.817254	0.077769
	N263	N	0.542585	0.816119	0.906986
	N264	N	0.468089	0.908250	0.171777
	N265	N	0.542981	0.079145	0.170108
	N266	N	0.468778	0.080405	0.814164
	N267	N	0.543419	0.909620	0.815208
	N268	N	0.920908	0.173334	0.456477
	N269	N	0.092380	0.172720	0.530730
	N270	N	0.092658	0.814884	0.456916
	N271	N	0.920768	0.815451	0.531543
	N272	N	0.183557	0.456739	0.908863
	N273	N	0.183769	0.531582	0.078655
	N274	N	0.827425	0.456651	0.079100
	N275	N	0.827625	0.531449	0.908845
	O276	O	0.877830	-0.054739	1.058235
	H277	H	0.866496	-0.061131	1.069265
	H278	H	0.882276	-0.067121	1.062710
	O279	O	-0.096795	0.922038	1.055909
	H280	H	-0.090679	0.918536	1.061584
	H281	H	-0.092224	0.930864	1.037639
	O282	O	0.915921	1.001914	0.001288
	H283	H	0.908523	0.999900	0.003402
	H284	H	0.905582	1.003056	0.003310
	O285	O	-0.087064	0.948061	1.026721
	H286	H	-0.085177	0.955099	1.025231
	H287	H	-0.093552	0.950075	1.026496
