data_Molecule from HDF5

_cell_length_a		16.436507
_cell_length_b		16.277586
_cell_length_c		16.231308
_cell_angle_alpha	89.869887
_cell_angle_beta	89.783347
_cell_angle_gamma	90.123370
_symmetry_space_group_name_H-M	'P 1'
_symmetry_Int_Tables_number		1

loop_
	_symmetry_equiv_pos_as_xyz
	x,y,z

loop_
	_atom_site_label
	_atom_site_type_symbol
	_atom_site_fract_x
	_atom_site_fract_y
	_atom_site_fract_z
	H0	H	0.395760	0.832440	0.706840
	H1	H	0.596654	0.157614	0.704208
	H2	H	0.596506	0.831984	0.272581
	H3	H	0.395096	0.156538	0.271816
	H4	H	0.716465	0.389085	0.831482
	H5	H	0.711885	0.597984	0.153134
	H6	H	0.275644	0.597095	0.830106
	H7	H	0.277124	0.391118	0.154209
	H8	H	0.836263	0.713268	0.386220
	H9	H	0.155509	0.712626	0.593731
	H10	H	0.835306	0.273743	0.593036
	H11	H	0.156998	0.277471	0.388862
	H12	H	0.834706	0.388616	0.709961
	H13	H	0.155247	0.595654	0.709302
	H14	H	0.834185	0.594221	0.274695
	H15	H	0.156172	0.393401	0.272255
	H16	H	0.393552	0.710786	0.827708
	H17	H	0.594504	0.711857	0.152693
	H18	H	0.595894	0.279659	0.827500
	H19	H	0.393789	0.275692	0.153018
	H20	H	0.715393	0.833487	0.384636
	H21	H	0.715637	0.154893	0.592349
	H22	H	0.276084	0.833425	0.594924
	H23	H	0.274213	0.154740	0.382783
	H24	H	0.894886	0.330574	0.207861
	H25	H	0.094432	0.656219	0.206805
	H26	H	0.095975	0.330850	0.774368
	H27	H	0.891437	0.653673	0.771245
	H28	H	0.216912	0.888524	0.329040
	H29	H	0.214758	0.098007	0.650875
	H30	H	0.778413	0.097756	0.327566
	H31	H	0.773905	0.887086	0.650354
	H32	H	0.335331	0.213748	0.887040
	H33	H	0.655742	0.213887	0.092839
	H34	H	0.335855	0.774548	0.094854
	H35	H	0.654546	0.774636	0.885198
	H36	H	0.336551	0.889690	0.211830
	H37	H	0.656347	0.097839	0.207631
	H38	H	0.335534	0.097982	0.770350
	H39	H	0.656426	0.893525	0.771907
	H40	H	0.897292	0.209609	0.327008
	H41	H	0.095993	0.209541	0.652987
	H42	H	0.097951	0.775894	0.327333
	H43	H	0.892205	0.773816	0.651345
	H44	H	0.214891	0.332657	0.888178
	H45	H	0.215262	0.654670	0.097825
	H46	H	0.773081	0.333391	0.099266
	H47	H	0.774951	0.654281	0.887242
	H48	H	0.407685	0.109566	0.579384
	H49	H	0.586372	0.880536	0.574121
	H50	H	0.585309	0.108244	0.401074
	H51	H	0.406147	0.880739	0.401103
	H52	H	0.577447	0.398129	0.106559
	H53	H	0.588384	0.580497	0.875664
	H54	H	0.401843	0.576963	0.103990
	H55	H	0.404159	0.400312	0.873858
	H56	H	0.109911	0.586169	0.398780
	H57	H	0.884138	0.580590	0.575747
	H58	H	0.107184	0.403580	0.575714
	H59	H	0.878623	0.393633	0.400533
	H60	H	0.110644	0.406142	0.588730
	H61	H	0.880626	0.580390	0.585136
	H62	H	0.109295	0.583789	0.400858
	H63	H	0.883767	0.403717	0.405118
	H64	H	0.411624	0.586803	0.105672
	H65	H	0.582553	0.583773	0.876847
	H66	H	0.592615	0.401965	0.110051
	H67	H	0.400021	0.407289	0.875814
	H68	H	0.591336	0.110378	0.400627
	H69	H	0.590617	0.876714	0.582369
	H70	H	0.402833	0.108291	0.574934
	H71	H	0.404427	0.880018	0.402362
	H72	H	0.909491	0.610171	0.090112
	H73	H	0.089145	0.377672	0.082194
	H74	H	0.084308	0.607366	0.901889
	H75	H	0.901378	0.378191	0.900627
	H76	H	0.088681	0.903251	0.605651
	H77	H	0.082911	0.082888	0.375734
	H78	H	0.904248	0.077895	0.604717
	H79	H	0.905260	0.904447	0.374928
	H80	H	0.610282	0.086591	0.895901
	H81	H	0.383048	0.079671	0.083146
	H82	H	0.606756	0.901739	0.070431
	H83	H	0.380274	0.901789	0.898287
	H84	H	0.608153	0.912864	0.082401
	H85	H	0.379318	0.087941	0.083114
	H86	H	0.609749	0.087722	0.899068
	H87	H	0.381642	0.903988	0.900165
	H88	H	0.907705	0.084822	0.604630
	H89	H	0.087904	0.088202	0.372171
	H90	H	0.084354	0.907462	0.603453
	H91	H	0.905421	0.904508	0.374218
	H92	H	0.086140	0.607788	0.903221
	H93	H	0.084816	0.378084	0.084154
	H94	H	0.905416	0.605059	0.072807
	H95	H	0.907830	0.379428	0.902337
	H96	H	0.401533	0.111183	0.580201
	H97	H	0.580658	0.879833	0.582752
	H98	H	0.587938	0.110913	0.394764
	H99	H	0.404741	0.879192	0.400425
	H100	H	0.582813	0.412889	0.103435
	H101	H	0.588393	0.586837	0.873732
	H102	H	0.398495	0.589529	0.110237
	H103	H	0.407669	0.407079	0.877791
	H104	H	0.110078	0.582685	0.397514
	H105	H	0.880862	0.587678	0.579862
	H106	H	0.112520	0.393964	0.583159
	H107	H	0.879370	0.403871	0.393475
	H108	H	0.892959	0.612471	0.083734
	H109	H	0.085213	0.379555	0.079209
	H110	H	0.085977	0.608326	0.900857
	H111	H	0.903537	0.379644	0.907343
	H112	H	0.082211	0.901365	0.604537
	H113	H	0.090425	0.080983	0.374873
	H114	H	0.900315	0.084235	0.607141
	H115	H	0.904771	0.904564	0.374284
	H116	H	0.609124	0.084446	0.897296
	H117	H	0.383866	0.085219	0.075559
	H118	H	0.613394	0.896972	0.085452
	H119	H	0.380998	0.903705	0.897562
	C120	C	0.373991	0.003246	0.610518
	C121	C	0.616972	0.985934	0.610151
	C122	C	0.617803	0.002901	0.368089
	C123	C	0.374335	0.986258	0.368937
	C124	C	0.616231	0.372926	-0.000129
	C125	C	0.616336	0.615447	0.982425
	C126	C	0.373150	0.615427	-0.000347
	C127	C	0.373352	0.373276	0.982812
	C128	C	0.003798	0.614497	0.368800
	C129	C	0.987150	0.614446	0.611835
	C130	C	0.004021	0.370541	0.613003
	C131	C	0.987179	0.371246	0.368908
	C132	C	0.872703	0.502033	0.113588
	C133	C	0.116565	0.485515	0.112587
	C134	C	0.116322	0.501410	0.870534
	C135	C	0.873237	0.485098	0.871041
	C136	C	0.116907	0.872127	0.498176
	C137	C	0.117284	0.115020	0.481412
	C138	C	0.874600	0.113925	0.498194
	C139	C	0.873728	0.872144	0.481003
	C140	C	0.503801	0.117040	0.867216
	C141	C	0.487574	0.115851	0.111272
	C142	C	0.503977	0.872571	0.111606
	C143	C	0.486865	0.872993	0.867699
	C144	C	0.374988	0.881193	0.668707
	C145	C	0.616438	0.108339	0.666651
	C146	C	0.616328	0.880689	0.311046
	C147	C	0.374984	0.107984	0.310333
	C148	C	0.675830	0.371361	0.879079
	C149	C	0.672849	0.616364	0.104494
	C150	C	0.315019	0.615896	0.877932
	C151	C	0.316093	0.372185	0.105320
	C152	C	0.883761	0.673391	0.367991
	C153	C	0.107508	0.672839	0.612268
	C154	C	0.883323	0.312492	0.612894
	C155	C	0.108549	0.315510	0.369163
	C156	C	0.882975	0.369988	0.671015
	C157	C	0.107708	0.614520	0.669635
	C158	C	0.882864	0.614211	0.312229
	C159	C	0.108184	0.373531	0.311318
	C160	C	0.373815	0.672252	0.876879
	C161	C	0.614627	0.673149	0.104400
	C162	C	0.616054	0.316464	0.877187
	C163	C	0.373579	0.314374	0.104650
	C164	C	0.675662	0.881377	0.366523
	C165	C	0.675467	0.107136	0.610738
	C166	C	0.315531	0.881579	0.612893
	C167	C	0.314988	0.106897	0.365900
	C168	C	0.874547	0.379575	0.170234
	C169	C	0.115223	0.607489	0.169402
	C170	C	0.116000	0.379706	0.812816
	C171	C	0.872244	0.605746	0.810983
	C172	C	0.176629	0.870444	0.376917
	C173	C	0.175232	0.116300	0.602960
	C174	C	0.817451	0.115886	0.376189
	C175	C	0.813906	0.869248	0.602086
	C176	C	0.383157	0.174419	0.867861
	C177	C	0.607832	0.174527	0.111588
	C178	C	0.383873	0.813626	0.113595
	C179	C	0.607057	0.814365	0.866632
	C180	C	0.384181	0.871159	0.171880
	C181	C	0.608188	0.116528	0.168802
	C182	C	0.383336	0.117050	0.809559
	C183	C	0.608140	0.873563	0.810195
	C184	C	0.876557	0.171586	0.375799
	C185	C	0.116185	0.171887	0.603860
	C186	C	0.117581	0.814307	0.376072
	C187	C	0.873041	0.812995	0.602662
	C188	C	0.175091	0.380449	0.869501
	C189	C	0.175356	0.606608	0.115113
	C190	C	0.813861	0.381066	0.116154
	C191	C	0.814472	0.605998	0.868827
	C192	C	0.397239	0.087694	0.585459
	C193	C	0.592983	0.901027	0.586565
	C194	C	0.594957	0.087672	0.391911
	C195	C	0.398141	0.901886	0.393964
	C196	C	0.591533	0.397272	0.084728
	C197	C	0.593360	0.590867	0.897469
	C198	C	0.397140	0.591392	0.084428
	C199	C	0.396845	0.397700	0.897937
	C200	C	0.088086	0.591258	0.392355
	C201	C	0.903656	0.590000	0.587553
	C202	C	0.088166	0.394334	0.589530
	C203	C	0.902578	0.393673	0.392841
	C204	C	0.895935	0.586960	0.089254
	C205	C	0.093201	0.400597	0.088697
	C206	C	0.092345	0.585780	0.894919
	C207	C	0.897318	0.400991	0.896312
	C208	C	0.092288	0.896824	0.582696
	C209	C	0.093849	0.091105	0.396376
	C210	C	0.897398	0.089383	0.583186
	C211	C	0.898127	0.897246	0.396384
	C212	C	0.587809	0.093205	0.890776
	C213	C	0.403837	0.091302	0.087456
	C214	C	0.587567	0.897001	0.086698
	C215	C	0.402870	0.896458	0.891680
	Zn216	Zn	0.495869	-0.005140	0.738838
	Zn217	Zn	0.496359	-0.005462	0.240476
	Zn218	Zn	0.744497	0.493553	-0.007600
	Zn219	Zn	0.244860	0.494111	-0.007672
	Zn220	Zn	-0.004220	0.743925	0.489501
	Zn221	Zn	-0.004223	0.242072	0.490500
	Zn222	Zn	-0.005515	0.492791	0.741580
	Zn223	Zn	-0.004923	0.493671	0.240327
	Zn224	Zn	0.494895	0.743681	-0.010223
	Zn225	Zn	0.495231	0.245230	-0.009901
	Zn226	Zn	0.745448	-0.006336	0.489262
	Zn227	Zn	0.244812	-0.006051	0.489954
	N228	N	0.410540	0.957688	0.667496
	N229	N	0.580457	0.031993	0.666141
	N230	N	0.581078	0.957245	0.311832
	N231	N	0.411407	0.032097	0.312267
	N232	N	0.676226	0.405468	0.956516
	N233	N	0.673941	0.581279	0.027599
	N234	N	0.314430	0.581500	0.955391
	N235	N	0.315866	0.408035	0.028566
	N236	N	0.960138	0.673873	0.402464
	N237	N	0.031575	0.673092	0.576939
	N238	N	0.959378	0.312630	0.577729
	N239	N	0.032272	0.314055	0.404352
	N240	N	0.959085	0.405348	0.671341
	N241	N	0.031662	0.579128	0.669799
	N242	N	0.958495	0.578550	0.312571
	N243	N	0.031535	0.407177	0.310847
	N244	N	0.409142	0.672249	0.953537
	N245	N	0.580089	0.672673	0.027390
	N246	N	0.579565	0.317627	0.953458
	N247	N	0.408611	0.315009	0.027681
	N248	N	0.676679	0.958311	0.401238
	N249	N	0.675982	0.030030	0.576353
	N250	N	0.314740	0.958513	0.577562
	N251	N	0.314149	0.030105	0.401264
	N252	N	0.910529	0.455758	0.168594
	N253	N	0.079257	0.531113	0.168056
	N254	N	0.080197	0.455925	0.813284
	N255	N	0.908312	0.529678	0.812303
	N256	N	0.176235	0.905751	0.453777
	N257	N	0.176014	0.081677	0.525802
	N258	N	0.816266	0.080499	0.453217
	N259	N	0.814405	0.905508	0.525468
	N260	N	0.459069	0.174676	0.902789
	N261	N	0.531766	0.174144	0.076400
	N262	N	0.459246	0.814478	0.076751
	N263	N	0.530870	0.813924	0.901926
	N264	N	0.459874	0.907141	0.170891
	N265	N	0.532574	0.080421	0.168592
	N266	N	0.459443	0.082046	0.808994
	N267	N	0.532335	0.909123	0.810626
	N268	N	0.911273	0.170591	0.452731
	N269	N	0.081090	0.171266	0.527096
	N270	N	0.081172	0.815408	0.452423
	N271	N	0.909341	0.814462	0.526229
	N272	N	0.175310	0.457163	0.904854
	N273	N	0.176089	0.529795	0.080364
	N274	N	0.812480	0.458373	0.081699
	N275	N	0.815078	0.529915	0.905486
	O276	O	0.620743	0.576768	0.621895
	H277	H	0.604558	0.577840	0.623464
	H278	H	0.615707	0.558635	0.629978
	O279	O	0.979177	0.964334	1.104175
	H280	H	0.982644	0.977232	1.114885
	H281	H	0.978754	0.969698	1.104279
	O282	O	0.876233	0.155701	0.808788
	H283	H	0.892488	0.169160	0.797837
	H284	H	0.881200	0.157172	0.836436
	O285	O	0.533065	0.612544	0.476889
	H286	H	0.541818	0.617675	0.479591
	H287	H	0.532338	0.621708	0.485634
	O288	O	1.041995	1.018615	1.007160
	H289	H	1.046203	1.030997	1.002553
	H290	H	1.030783	1.011993	1.006663
	O291	O	-0.015742	1.026822	0.100188
	H292	H	-0.009217	1.030946	0.093449
	H293	H	-0.015387	1.032628	0.100160
	O294	O	0.385703	0.442515	0.608263
	H295	H	0.390468	0.437367	0.602542
	H296	H	0.389629	0.464024	0.605408
	O297	O	1.007135	0.927020	0.834425
	H298	H	1.000851	0.923605	0.827189
	H299	H	0.995899	0.924043	0.834924
	O300	O	0.556578	0.382369	0.506704
	H301	H	0.553345	0.389394	0.510603
	H302	H	0.549880	0.376736	0.491576
	O303	O	0.537472	0.456296	0.487197
	H304	H	0.521000	0.457577	0.482601
	H305	H	0.545064	0.441411	0.492502
	O306	O	0.616379	0.504211	0.558223
	H307	H	0.600763	0.493173	0.564865
	H308	H	0.622793	0.506643	0.580065
	O309	O	0.662785	0.457824	0.441588
	H310	H	0.656860	0.464300	0.441720
	H311	H	0.661823	0.456591	0.455866
	O312	O	0.145179	-0.161685	-0.083648
	H313	H	0.149732	-0.170918	-0.071238
	H314	H	0.139518	-0.149183	-0.057680
	O315	O	0.482578	0.467045	0.582818
	H316	H	0.474051	0.478672	0.595090
	H317	H	0.492586	0.467190	0.583386
	O318	O	0.136142	1.057497	1.089549
	H319	H	0.124946	1.070116	1.100604
	H320	H	0.137031	1.070815	1.091251
	O321	O	0.463673	0.437303	0.581190
	H322	H	0.468443	0.440701	0.571827
	H323	H	0.451301	0.428382	0.567395
	O324	O	-0.505944	1.559058	-0.490338
	H325	H	-0.496156	1.551705	-0.495975
	H326	H	-0.494298	1.569755	-0.493763
	O327	O	0.613589	0.505453	0.408719
	H328	H	0.623358	0.512674	0.408772
	H329	H	0.618062	0.498869	0.414828
	O330	O	-0.078458	-0.033147	1.145144
	H331	H	-0.067159	-0.025938	1.143656
	H332	H	-0.093116	-0.042817	1.145070
	O333	O	-0.619431	0.501017	1.462353
	H334	H	-0.613089	0.488234	1.466994
	H335	H	-0.612921	0.510623	1.458277
	O336	O	0.547280	0.498380	0.612316
	H337	H	0.552659	0.496833	0.605547
	H338	H	0.543233	0.490709	0.611231
	O339	O	0.989326	0.051195	0.042875
	H340	H	0.992962	0.051526	0.050239
	H341	H	0.997545	0.067053	0.041836
	O342	O	-0.063857	-0.117126	0.046534
	H343	H	-0.056602	-0.116963	0.024449
	H344	H	-0.081520	-0.129485	0.044233
	O345	O	1.002110	0.132051	0.892617
	H346	H	0.994764	0.116794	0.885183
	H347	H	0.994654	0.132663	0.898974
	O348	O	1.091992	1.147560	0.010936
	H349	H	1.086767	1.133126	0.018816
	H350	H	1.100251	1.142768	0.001028
	O351	O	0.505846	0.552356	0.474802
	H352	H	0.524269	0.561247	0.468632
	H353	H	0.507875	0.545472	0.477409
	O354	O	1.152245	-0.118297	0.832984
	H355	H	1.159994	-0.119073	0.861689
	H356	H	1.150095	-0.099699	0.827900
	O357	O	-0.002335	-0.015344	1.061727
	H358	H	-0.017035	-0.015788	1.039906
	H359	H	0.015892	-0.016818	1.049325
	O360	O	0.471440	0.633878	0.525621
	H361	H	0.470843	0.642099	0.527248
	H362	H	0.485643	0.629665	0.529623
	O363	O	-0.048647	0.896830	1.042784
	H364	H	-0.050134	0.882923	1.038919
	H365	H	-0.038844	0.909921	1.042993
	O366	O	0.539961	0.482957	0.346512
	H367	H	0.539250	0.474802	0.345003
	H368	H	0.545154	0.500740	0.361287
	O369	O	-0.161725	0.061274	0.798331
	H370	H	-0.169976	0.060520	0.793517
	H371	H	-0.155545	0.066781	0.801130
	O372	O	0.386348	0.339463	0.394767
	H373	H	0.388251	0.352693	0.409851
	H374	H	0.374029	0.332112	0.388797
	O375	O	0.390649	0.407474	0.577690
	H376	H	0.397468	0.413410	0.551083
	H377	H	0.392317	0.407054	0.587896
	O378	O	0.860376	0.802623	0.109019
	H379	H	0.852389	0.783072	0.117267
	H380	H	0.871188	0.825313	0.108352
	O381	O	1.002223	-0.148793	-0.056340
	H382	H	0.996032	-0.142429	-0.053421
	H383	H	0.987045	-0.139740	-0.052305
	O384	O	1.473372	0.530147	0.445472
	H385	H	1.475474	0.520373	0.441190
	H386	H	1.471544	0.533761	0.440499
	O387	O	-0.173282	-0.045704	0.065050
	H388	H	-0.167667	-0.051684	0.062554
	H389	H	-0.183811	-0.064870	0.077835
	O390	O	0.013482	1.095797	0.006582
	H391	H	0.002024	1.098475	-0.001071
	H392	H	0.016806	1.086668	0.014749
	O393	O	1.177060	1.148813	1.126093
	H394	H	1.182750	1.152386	1.119141
	H395	H	1.182156	1.130543	1.124639
	O396	O	0.411519	0.429208	0.358897
	H397	H	0.411641	0.440369	0.354258
	H398	H	0.402929	0.440198	0.362439
	O399	O	-0.041731	0.900369	0.846850
	H400	H	-0.026744	0.898042	0.846210
	H401	H	-0.030465	0.890944	0.841155
	O402	O	0.429440	0.562261	0.483960
	H403	H	0.423100	0.560094	0.487238
	H404	H	0.436974	0.563335	0.466006
	O405	O	0.894005	0.843358	-0.132825
	H406	H	0.898361	0.853856	-0.137625
	H407	H	0.902767	0.853496	-0.136517
	O408	O	0.996893	1.100808	0.100536
	H409	H	1.003386	1.105215	0.109680
	H410	H	0.996210	1.092083	0.106621
	O411	O	1.189170	-0.071340	0.845954
	H412	H	1.191205	-0.077133	0.849883
	H413	H	1.198499	-0.071003	0.824858
	O414	O	0.926910	0.106657	-0.003436
	H415	H	0.924013	0.110172	-0.006433
	H416	H	0.931614	0.079296	-0.000666
	O417	O	0.472318	0.422737	0.475843
	H418	H	0.460986	0.421721	0.481559
	H419	H	0.475638	0.409498	0.475255
