data_Molecule from HDF5

_cell_length_a		16.232493
_cell_length_b		16.280979
_cell_length_c		16.091515
_cell_angle_alpha	88.213893
_cell_angle_beta	91.166757
_cell_angle_gamma	88.563825
_symmetry_space_group_name_H-M	'P 1'
_symmetry_Int_Tables_number		1

loop_
	_symmetry_equiv_pos_as_xyz
	x,y,z

loop_
	_atom_site_label
	_atom_site_type_symbol
	_atom_site_fract_x
	_atom_site_fract_y
	_atom_site_fract_z
	H0	H	0.420033	0.833524	0.705856
	H1	H	0.605308	0.162347	0.695690
	H2	H	0.609925	0.829891	0.283668
	H3	H	0.399466	0.156961	0.260071
	H4	H	0.723074	0.400725	0.820931
	H5	H	0.724979	0.587741	0.150973
	H6	H	0.287017	0.606850	0.822479
	H7	H	0.306607	0.398075	0.153247
	H8	H	0.847743	0.723124	0.376223
	H9	H	0.173982	0.704295	0.586728
	H10	H	0.845021	0.282232	0.587669
	H11	H	0.170550	0.277270	0.390919
	H12	H	0.845084	0.398150	0.701039
	H13	H	0.173203	0.586411	0.702269
	H14	H	0.847307	0.606246	0.263247
	H15	H	0.176108	0.401272	0.285181
	H16	H	0.401906	0.721174	0.822366
	H17	H	0.608683	0.701248	0.153195
	H18	H	0.608900	0.286610	0.819902
	H19	H	0.415210	0.277471	0.149244
	H20	H	0.729578	0.833971	0.396725
	H21	H	0.722191	0.160714	0.584801
	H22	H	0.303006	0.831718	0.590377
	H23	H	0.283409	0.157275	0.374879
	H24	H	0.920185	0.334580	0.206472
	H25	H	0.105858	0.663092	0.195539
	H26	H	0.108763	0.330520	0.784650
	H27	H	0.901543	0.658640	0.760493
	H28	H	0.224800	0.895239	0.322921
	H29	H	0.225416	0.086032	0.650789
	H30	H	0.785522	0.106402	0.322951
	H31	H	0.805757	0.897052	0.654418
	H32	H	0.347935	0.223177	0.876226
	H33	H	0.674841	0.203248	0.087619
	H34	H	0.343728	0.783410	0.085944
	H35	H	0.671027	0.778509	0.891281
	H36	H	0.344781	0.897006	0.200892
	H37	H	0.674069	0.084337	0.201856
	H38	H	0.346615	0.105913	0.763307
	H39	H	0.676151	0.902220	0.785672
	H40	H	0.900441	0.221155	0.322782
	H41	H	0.109294	0.200828	0.653381
	H42	H	0.107620	0.786953	0.320890
	H43	H	0.913827	0.776559	0.649400
	H44	H	0.230179	0.335080	0.894405
	H45	H	0.222996	0.661890	0.083261
	H46	H	0.802475	0.333055	0.091009
	H47	H	0.785439	0.659219	0.876389
	H48	H	0.408058	0.114097	0.567366
	H49	H	0.604463	0.881828	0.586723
	H50	H	0.594603	0.112816	0.388183
	H51	H	0.418155	0.875810	0.387612
	H52	H	0.612052	0.387639	0.108569
	H53	H	0.596831	0.598286	0.864857
	H54	H	0.421040	0.594734	0.106664
	H55	H	0.422693	0.415760	0.870501
	H56	H	0.130084	0.606557	0.400737
	H57	H	0.894326	0.592447	0.565357
	H58	H	0.128258	0.397977	0.594994
	H59	H	0.894810	0.418522	0.398356
	H60	H	0.129563	0.386553	0.582055
	H61	H	0.894835	0.584875	0.570092
	H62	H	0.123088	0.579791	0.400767
	H63	H	0.889792	0.412907	0.385110
	H64	H	0.410265	0.589963	0.107259
	H65	H	0.598882	0.586480	0.867918
	H66	H	0.613630	0.406206	0.103530
	H67	H	0.416060	0.407367	0.866499
	H68	H	0.590062	0.110474	0.393836
	H69	H	0.615026	0.879228	0.584072
	H70	H	0.411177	0.115868	0.577447
	H71	H	0.426325	0.882243	0.401814
	H72	H	0.913092	0.613387	0.066919
	H73	H	0.111542	0.383894	0.077203
	H74	H	0.089918	0.610865	0.892435
	H75	H	0.924216	0.379316	0.889341
	H76	H	0.110954	0.901957	0.604769
	H77	H	0.100777	0.082107	0.369110
	H78	H	0.926027	0.096084	0.605211
	H79	H	0.915418	0.914307	0.368640
	H80	H	0.622140	0.074591	0.895324
	H81	H	0.394996	0.086663	0.068051
	H82	H	0.626785	0.893017	0.085868
	H83	H	0.389994	0.909026	0.890696
	H84	H	0.624968	0.895874	0.082858
	H85	H	0.392062	0.090212	0.075501
	H86	H	0.635020	0.097974	0.876296
	H87	H	0.392003	0.909500	0.897259
	H88	H	0.905169	0.093772	0.610761
	H89	H	0.082412	0.088529	0.372287
	H90	H	0.100702	0.898439	0.603527
	H91	H	0.915137	0.912918	0.368156
	H92	H	0.102191	0.614829	0.895584
	H93	H	0.119536	0.377086	0.093769
	H94	H	0.910557	0.616831	0.075311
	H95	H	0.920112	0.383006	0.905918
	H96	H	0.418631	0.111856	0.570080
	H97	H	0.610959	0.878114	0.594044
	H98	H	0.597209	0.112474	0.395525
	H99	H	0.408923	0.878517	0.403164
	H100	H	0.596402	0.397336	0.101963
	H101	H	0.587220	0.591591	0.871929
	H102	H	0.418886	0.582923	0.102840
	H103	H	0.410910	0.416813	0.866125
	H104	H	0.132736	0.592791	0.377485
	H105	H	0.890442	0.592883	0.574523
	H106	H	0.122181	0.403437	0.577856
	H107	H	0.891325	0.403938	0.398167
	H108	H	0.918119	0.613195	0.073535
	H109	H	0.101496	0.381528	0.093041
	H110	H	0.097650	0.616324	0.883994
	H111	H	0.908737	0.376679	0.895308
	H112	H	0.108561	0.891721	0.607733
	H113	H	0.095208	0.100895	0.365440
	H114	H	0.917480	0.076892	0.601772
	H115	H	0.914646	0.913351	0.368466
	H116	H	0.627060	0.102930	0.906694
	H117	H	0.392365	0.095385	0.067418
	H118	H	0.626319	0.898820	0.086694
	H119	H	0.392081	0.914401	0.893589
	C120	C	0.388993	0.005420	0.605805
	C121	C	0.634609	0.988691	0.611738
	C122	C	0.627848	0.004336	0.367277
	C123	C	0.384342	0.986108	0.362523
	C124	C	0.633848	0.372758	-0.005081
	C125	C	0.626574	0.616351	0.977627
	C126	C	0.384540	0.622135	-0.003967
	C127	C	0.390887	0.379883	0.976752
	C128	C	0.020108	0.624481	0.360830
	C129	C	1.001270	0.615615	0.603107
	C130	C	0.017949	0.370636	0.611719
	C131	C	1.000292	0.380171	0.368311
	C132	C	0.889749	0.506069	0.105774
	C133	C	0.135311	0.489576	0.111679
	C134	C	0.129145	0.505679	0.866502
	C135	C	0.885124	0.487538	0.862294
	C136	C	0.133165	0.872318	0.495817
	C137	C	0.126088	0.115328	0.478180
	C138	C	0.883882	0.122179	0.496719
	C139	C	0.889929	0.879744	0.477625
	C140	C	0.519636	0.123678	0.860531
	C141	C	0.501605	0.115149	0.103652
	C142	C	0.517180	0.870602	0.111142
	C143	C	0.500072	0.879576	0.868103
	C144	C	0.397228	0.882334	0.666230
	C145	C	0.627358	0.112774	0.660868
	C146	C	0.629377	0.879879	0.318267
	C147	C	0.381083	0.108310	0.300337
	C148	C	0.686925	0.378718	0.870384
	C149	C	0.685718	0.609465	0.101849
	C150	C	0.325716	0.625242	0.872083
	C151	C	0.340943	0.378234	0.102729
	C152	C	0.896855	0.683901	0.357944
	C153	C	0.124728	0.667520	0.605316
	C154	C	0.894304	0.318691	0.608365
	C155	C	0.122692	0.318815	0.371494
	C156	C	0.894517	0.376039	0.665018
	C157	C	0.124414	0.608728	0.662593
	C158	C	0.896479	0.625662	0.301816
	C159	C	0.125527	0.380412	0.318888
	C160	C	0.382976	0.681948	0.871920
	C161	C	0.627511	0.665816	0.102957
	C162	C	0.629825	0.322213	0.869758
	C163	C	0.395151	0.318662	0.100622
	C164	C	0.689083	0.882009	0.374424
	C165	C	0.685828	0.111992	0.605865
	C166	C	0.339043	0.881394	0.608487
	C167	C	0.323452	0.108419	0.357709
	C168	C	0.897545	0.383225	0.166520
	C169	C	0.128396	0.613650	0.160971
	C170	C	0.129236	0.381020	0.818108
	C171	C	0.882855	0.610021	0.800648
	C172	C	0.187166	0.875904	0.371883
	C173	C	0.185652	0.108080	0.601974
	C174	C	0.824406	0.124904	0.372724
	C175	C	0.840359	0.877721	0.603679
	C176	C	0.396705	0.183684	0.857938
	C177	C	0.625596	0.166077	0.105517
	C178	C	0.393294	0.818972	0.106948
	C179	C	0.623065	0.819625	0.872200
	C180	C	0.393683	0.875469	0.164267
	C181	C	0.625050	0.106890	0.162682
	C182	C	0.396217	0.125265	0.801666
	C183	C	0.625595	0.880967	0.819241
	C184	C	0.881499	0.182074	0.372544
	C185	C	0.127546	0.165022	0.603418
	C186	C	0.128741	0.821991	0.370809
	C187	C	0.893991	0.817753	0.601118
	C188	C	0.189774	0.383306	0.872851
	C189	C	0.186537	0.613056	0.104737
	C190	C	0.838876	0.382446	0.108831
	C191	C	0.825375	0.610324	0.858587
	C192	C	0.407345	0.091601	0.579450
	C193	C	0.615800	0.902321	0.593545
	C194	C	0.601663	0.089631	0.386603
	C195	C	0.410533	0.900868	0.389736
	C196	C	0.613473	0.391337	0.081977
	C197	C	0.601799	0.597431	0.890733
	C198	C	0.409385	0.596645	0.083252
	C199	C	0.410701	0.405766	0.890191
	C200	C	0.106230	0.600048	0.385812
	C201	C	0.915337	0.595883	0.577428
	C202	C	0.104208	0.390065	0.591034
	C203	C	0.914252	0.404784	0.388016
	C204	C	0.908301	0.592160	0.079576
	C205	C	0.116563	0.403264	0.093510
	C206	C	0.103814	0.591674	0.884920
	C207	C	0.910326	0.401935	0.889092
	C208	C	0.112728	0.891497	0.582822
	C209	C	0.100369	0.096520	0.391396
	C210	C	0.908818	0.096378	0.583572
	C211	C	0.909400	0.905876	0.390765
	C212	C	0.605821	0.098945	0.885414
	C213	C	0.415244	0.096225	0.077963
	C214	C	0.603626	0.889980	0.091139
	C215	C	0.413662	0.903938	0.887901
	Zn216	Zn	0.511035	-0.001106	0.736790
	Zn217	Zn	0.507856	-0.006352	0.236143
	Zn218	Zn	0.758065	0.496587	-0.015008
	Zn219	Zn	0.260660	0.498811	-0.012157
	Zn220	Zn	0.010022	0.749372	0.484438
	Zn221	Zn	0.007380	0.246850	0.487536
	Zn222	Zn	0.008701	0.495096	0.735806
	Zn223	Zn	0.011963	0.499775	0.237513
	Zn224	Zn	0.507233	0.746996	-0.012629
	Zn225	Zn	0.510847	0.248384	-0.016046
	Zn226	Zn	0.759944	-0.001629	0.488909
	Zn227	Zn	0.257152	-0.005518	0.485032
	N228	N	0.427493	0.960575	0.664795
	N229	N	0.596372	0.034995	0.664978
	N230	N	0.591789	0.956875	0.313934
	N231	N	0.418326	0.031275	0.303174
	N232	N	0.689710	0.409183	0.949135
	N233	N	0.685174	0.579307	0.022804
	N234	N	0.326916	0.588526	0.950390
	N235	N	0.338044	0.415808	0.024807
	N236	N	0.974673	0.683669	0.393511
	N237	N	0.047071	0.671861	0.569010
	N238	N	0.972180	0.315000	0.576215
	N239	N	0.044064	0.318538	0.401530
	N240	N	0.972323	0.407647	0.667375
	N241	N	0.046578	0.577086	0.661175
	N242	N	0.974040	0.589461	0.303188
	N243	N	0.048495	0.418214	0.316674
	N244	N	0.419007	0.679956	0.950267
	N245	N	0.591342	0.670143	0.024723
	N246	N	0.597670	0.318127	0.948266
	N247	N	0.425649	0.319451	0.021434
	N248	N	0.688313	0.960312	0.404281
	N249	N	0.690767	0.033668	0.576233
	N250	N	0.333674	0.959034	0.571732
	N251	N	0.325020	0.031308	0.395431
	N252	N	0.928477	0.461126	0.164696
	N253	N	0.097351	0.535967	0.165523
	N254	N	0.092033	0.458098	0.814068
	N255	N	0.919264	0.532700	0.802919
	N256	N	0.190232	0.906459	0.450625
	N257	N	0.184668	0.077957	0.522985
	N258	N	0.825616	0.088473	0.451305
	N259	N	0.837617	0.915736	0.526032
	N260	N	0.474609	0.182647	0.893865
	N261	N	0.547920	0.171026	0.069291
	N262	N	0.471187	0.815588	0.074723
	N263	N	0.544052	0.818549	0.901573
	N264	N	0.471701	0.906638	0.167352
	N265	N	0.546700	0.075828	0.161524
	N266	N	0.473669	0.088616	0.803109
	N267	N	0.548068	0.917838	0.816634
	N268	N	0.917661	0.180645	0.450658
	N269	N	0.091157	0.169696	0.525231
	N270	N	0.095992	0.819277	0.448911
	N271	N	0.924045	0.819005	0.521715
	N272	N	0.190013	0.461920	0.902037
	N273	N	0.191147	0.534896	0.074875
	N274	N	0.833965	0.459908	0.071701
	N275	N	0.826550	0.533036	0.896147
	O276	O	0.467659	0.517733	0.604561
	H277	H	0.457994	0.516714	0.611763
	H278	H	0.487727	0.514200	0.602095
	O279	O	0.458393	0.470238	0.531242
	H280	H	0.463897	0.472010	0.545126
	H281	H	0.456895	0.476024	0.524522
	O282	O	1.096630	0.841503	-0.060732
	H283	H	1.101659	0.837331	-0.053690
	H284	H	1.100827	0.838541	-0.045067
	O285	O	0.871033	0.021196	0.924891
	H286	H	0.868531	0.018736	0.920782
	H287	H	0.884768	0.012129	0.921857
	O288	O	0.051815	1.062714	1.099468
	H289	H	0.061389	1.060079	1.098721
	H290	H	0.048136	1.081803	1.092045
	O291	O	0.616699	0.450586	0.598828
	H292	H	0.619601	0.452840	0.595890
	H293	H	0.606429	0.452678	0.592884
	O294	O	-0.082030	0.078413	0.996001
	H295	H	-0.090273	0.096289	0.985455
	H296	H	-0.084601	0.071359	0.977520
	O297	O	-0.110026	-0.020110	0.987381
	H298	H	-0.105798	-0.010830	0.992586
	H299	H	-0.118611	-0.018588	0.975144
	O300	O	0.402481	0.554519	0.335986
	H301	H	0.397338	0.556552	0.326683
	H302	H	0.392838	0.559678	0.342511
	O303	O	0.407978	0.549330	-0.602681
	H304	H	0.411998	0.565928	-0.606634
	H305	H	0.398430	0.561320	-0.611847
	O306	O	0.006641	0.936632	0.922855
	H307	H	0.005786	0.932595	0.932183
	H308	H	0.010117	0.936215	0.932568
	O309	O	0.560867	0.492390	0.582750
	H310	H	0.579957	0.497803	0.581519
	H311	H	0.567903	0.486426	0.585540
	O312	O	-0.063912	-0.009132	0.077072
	H313	H	-0.073839	-0.008092	0.075971
	H314	H	-0.060580	-0.007402	0.077766
	O315	O	1.023005	-0.069145	0.056376
	H316	H	1.014494	-0.062618	0.053793
	H317	H	1.028632	-0.060233	0.061410
	O318	O	0.946022	0.912242	1.112674
	H319	H	0.939735	0.902985	1.119797
	H320	H	0.946120	0.920092	1.108692
	O321	O	0.558164	0.463935	1.409503
	H322	H	0.554807	0.463580	1.405960
	H323	H	0.551988	0.451450	1.418280
	O324	O	0.640675	0.462397	0.493280
	H325	H	0.649368	0.468679	0.499318
	H326	H	0.646998	0.460854	0.485361
	O327	O	0.035748	0.105707	0.053264
	H328	H	0.041601	0.116929	0.034866
	H329	H	0.033681	0.117023	0.044144
	O330	O	0.495741	0.434915	0.420863
	H331	H	0.495921	0.437700	0.419693
	H332	H	0.493968	0.428428	0.417667
	O333	O	0.041640	1.041670	0.920204
	H334	H	0.038554	1.038577	0.919650
	H335	H	0.040268	1.043489	0.910318
	O336	O	0.068917	-0.004798	-0.024882
	H337	H	0.074389	0.003647	-0.014289
	H338	H	0.051482	-0.000297	-0.019600
	O339	O	0.487116	0.508450	0.559864
	H340	H	0.496789	0.512842	0.558322
	H341	H	0.477811	0.509887	0.554657
	O342	O	0.998388	1.077806	0.866679
	H343	H	0.995283	1.085715	0.851932
	H344	H	0.995996	1.060669	0.863515
	O345	O	1.110343	0.976233	-0.037752
	H346	H	1.110613	0.975396	-0.047304
	H347	H	1.122009	0.986567	-0.040514
	O348	O	0.483735	0.517450	0.475269
	H349	H	0.488357	0.522856	0.476101
	H350	H	0.476106	0.514439	0.462400
	O351	O	0.505579	0.503098	0.542912
	H352	H	0.494155	0.511378	0.551015
	H353	H	0.497271	0.500887	0.530655
	O354	O	0.408342	0.615292	0.384214
	H355	H	0.402312	0.609697	0.386031
	H356	H	0.414720	0.608321	0.401211
	O357	O	0.544621	0.455929	1.540619
	H358	H	0.540644	0.465518	1.533701
	H359	H	0.522642	0.457200	1.547118
	O360	O	0.540890	0.363176	0.529466
	H361	H	0.543959	0.356945	0.520937
	H362	H	0.534396	0.373649	0.517923
	O363	O	1.095946	1.080823	0.951847
	H364	H	1.090908	1.091178	0.930547
	H365	H	1.078188	1.079031	0.943359
	O366	O	0.946509	1.067655	0.905543
	H367	H	0.962244	1.056026	0.908564
	H368	H	0.938515	1.054871	0.905837
	O369	O	1.030796	-0.043491	1.034973
	H370	H	1.038626	-0.047434	1.038588
	H371	H	1.029393	-0.042866	1.046006
	O372	O	0.020462	0.057173	-0.012694
	H373	H	0.015649	0.069338	-0.009512
	H374	H	0.015695	0.040581	-0.019160
	O375	O	0.451402	-0.521175	0.451027
	H376	H	0.453394	-0.524092	0.442430
	H377	H	0.460312	-0.527817	0.448610
	O378	O	0.509526	0.567691	0.393724
	H379	H	0.508557	0.570125	0.398278
	H380	H	0.501683	0.570250	0.386912
	O381	O	0.568255	0.530329	0.449597
	H382	H	0.571275	0.526660	0.436030
	H383	H	0.566020	0.527735	0.454604
