data_Molecule from HDF5

_cell_length_a		16.471492
_cell_length_b		16.153433
_cell_length_c		16.388805
_cell_angle_alpha	90.332836
_cell_angle_beta	89.927382
_cell_angle_gamma	90.042117
_symmetry_space_group_name_H-M	'P 1'
_symmetry_Int_Tables_number		1

loop_
	_symmetry_equiv_pos_as_xyz
	x,y,z

loop_
	_atom_site_label
	_atom_site_type_symbol
	_atom_site_fract_x
	_atom_site_fract_y
	_atom_site_fract_z
	H0	H	0.383679	0.846053	0.705601
	H1	H	0.590465	0.169514	0.708502
	H2	H	0.591438	0.845237	0.267383
	H3	H	0.384800	0.168580	0.272281
	H4	H	0.707260	0.399629	0.828904
	H5	H	0.705733	0.611591	0.148898
	H6	H	0.263824	0.613201	0.831779
	H7	H	0.263169	0.397569	0.146239
	H8	H	0.826037	0.723203	0.388388
	H9	H	0.146388	0.722534	0.590180
	H10	H	0.826458	0.286182	0.590404
	H11	H	0.146001	0.285425	0.384477
	H12	H	0.827550	0.398542	0.710100
	H13	H	0.143672	0.611595	0.710388
	H14	H	0.826427	0.608429	0.270041
	H15	H	0.142880	0.396937	0.264412
	H16	H	0.386352	0.721056	0.828104
	H17	H	0.587211	0.725045	0.149814
	H18	H	0.588123	0.288133	0.827658
	H19	H	0.386866	0.290554	0.150405
	H20	H	0.706980	0.845428	0.382679
	H21	H	0.706922	0.169343	0.594034
	H22	H	0.267336	0.846228	0.592345
	H23	H	0.267842	0.167190	0.384599
	H24	H	0.883599	0.342389	0.204655
	H25	H	0.088197	0.666787	0.208292
	H26	H	0.090817	0.344853	0.767965
	H27	H	0.883137	0.667489	0.772923
	H28	H	0.209616	0.897560	0.329680
	H29	H	0.208534	0.113812	0.646993
	H30	H	0.763044	0.115755	0.331084
	H31	H	0.764845	0.901616	0.647260
	H32	H	0.326817	0.226650	0.887144
	H33	H	0.648042	0.225592	0.088874
	H34	H	0.326384	0.788660	0.091054
	H35	H	0.647423	0.789481	0.888043
	H36	H	0.329146	0.899707	0.211710
	H37	H	0.645770	0.113859	0.210172
	H38	H	0.327387	0.112144	0.768719
	H39	H	0.645443	0.902465	0.767339
	H40	H	0.885837	0.222663	0.328004
	H41	H	0.090266	0.225928	0.648143
	H42	H	0.088924	0.786190	0.327657
	H43	H	0.886820	0.791885	0.650672
	H44	H	0.207562	0.345126	0.881541
	H45	H	0.206472	0.666664	0.096743
	H46	H	0.767714	0.343855	0.091782
	H47	H	0.769908	0.667807	0.888028
	H48	H	0.393606	0.125083	0.579063
	H49	H	0.571489	0.895326	0.573819
	H50	H	0.572892	0.119952	0.403755
	H51	H	0.397684	0.890672	0.402378
	H52	H	0.589753	0.427622	0.103575
	H53	H	0.586111	0.591111	0.873714
	H54	H	0.393682	0.597407	0.104960
	H55	H	0.395709	0.412440	0.872967
	H56	H	0.097931	0.592417	0.401768
	H57	H	0.873153	0.597126	0.574884
	H58	H	0.095349	0.425627	0.575926
	H59	H	0.873349	0.419334	0.394855
	H60	H	0.101463	0.416261	0.587991
	H61	H	0.872359	0.590925	0.584813
	H62	H	0.100795	0.591039	0.393704
	H63	H	0.870929	0.410479	0.394412
	H64	H	0.395595	0.593631	0.104201
	H65	H	0.573024	0.592885	0.877621
	H66	H	0.565356	0.421699	0.097587
	H67	H	0.391756	0.421836	0.874436
	H68	H	0.582181	0.123815	0.403108
	H69	H	0.581126	0.891915	0.573295
	H70	H	0.400090	0.123780	0.581100
	H71	H	0.396605	0.889238	0.397004
	H72	H	0.888540	0.623998	0.080943
	H73	H	0.071427	0.389891	0.079711
	H74	H	0.082976	0.620194	0.908963
	H75	H	0.904857	0.390325	0.894076
	H76	H	0.078343	0.910285	0.605024
	H77	H	0.076348	0.093696	0.374446
	H78	H	0.893551	0.094502	0.603459
	H79	H	0.893214	0.911584	0.371499
	H80	H	0.598321	0.092155	0.898772
	H81	H	0.373104	0.096754	0.082688
	H82	H	0.598552	0.918226	0.075012
	H83	H	0.370892	0.912521	0.894353
	H84	H	0.600357	0.920628	0.080492
	H85	H	0.373162	0.099177	0.078819
	H86	H	0.601207	0.096594	0.893535
	H87	H	0.373030	0.914816	0.897952
	H88	H	0.897967	0.090691	0.601035
	H89	H	0.079576	0.094320	0.373822
	H90	H	0.084343	0.920592	0.603630
	H91	H	0.893544	0.920031	0.374753
	H92	H	0.075158	0.624238	0.892167
	H93	H	0.072917	0.392251	0.070824
	H94	H	0.898927	0.622924	0.086104
	H95	H	0.895853	0.391523	0.908221
	H96	H	0.398288	0.122687	0.574924
	H97	H	0.575661	0.890730	0.582272
	H98	H	0.575468	0.123639	0.394833
	H99	H	0.401620	0.892355	0.398347
	H100	H	0.580519	0.404107	0.107633
	H101	H	0.579867	0.603662	0.871860
	H102	H	0.396853	0.596918	0.104192
	H103	H	0.401624	0.419446	0.877329
	H104	H	0.100806	0.598990	0.397645
	H105	H	0.868147	0.602497	0.584296
	H106	H	0.100187	0.410106	0.572616
	H107	H	0.873944	0.414407	0.402503
	H108	H	0.897855	0.619235	0.075107
	H109	H	0.079717	0.387815	0.076134
	H110	H	0.064981	0.615708	0.906223
	H111	H	0.888980	0.384057	0.894351
	H112	H	0.073092	0.920522	0.599350
	H113	H	0.078668	0.090977	0.374764
	H114	H	0.899563	0.096854	0.603012
	H115	H	0.900301	0.914551	0.375587
	H116	H	0.600149	0.099361	0.900569
	H117	H	0.375379	0.094397	0.078741
	H118	H	0.600809	0.913874	0.078961
	H119	H	0.372663	0.917313	0.893908
	C120	C	0.365959	0.016736	0.609430
	C121	C	0.607698	0.999287	0.609023
	C122	C	0.608791	0.015591	0.367596
	C123	C	0.366991	0.997689	0.367890
	C124	C	0.609369	0.385180	-0.002826
	C125	C	0.609461	0.627693	0.980348
	C126	C	0.364928	0.627142	-0.001347
	C127	C	0.364972	0.385479	0.980292
	C128	C	-0.005724	0.625557	0.367710
	C129	C	0.976780	0.628179	0.611921
	C130	C	-0.005665	0.384291	0.610208
	C131	C	0.977258	0.382116	0.365310
	C132	C	0.864336	0.514639	0.110677
	C133	C	0.106384	0.496456	0.109343
	C134	C	0.106968	0.514192	0.868534
	C135	C	0.865692	0.496408	0.868595
	C136	C	0.109546	0.884261	0.497002
	C137	C	0.109306	0.126727	0.479691
	C138	C	0.865480	0.126966	0.497241
	C139	C	0.864978	0.884566	0.479901
	C140	C	0.494734	0.128393	0.867056
	C141	C	0.479177	0.128812	0.110385
	C142	C	0.495057	0.885580	0.110016
	C143	C	0.478018	0.883914	0.865214
	C144	C	0.364912	0.894584	0.666979
	C145	C	0.609274	0.121049	0.668867
	C146	C	0.610243	0.893844	0.307189
	C147	C	0.365801	0.119695	0.310253
	C148	C	0.667616	0.382191	0.876796
	C149	C	0.666910	0.629671	0.100940
	C150	C	0.304817	0.629977	0.878960
	C151	C	0.304475	0.381542	0.099499
	C152	C	0.874003	0.684054	0.368567
	C153	C	0.097639	0.684822	0.610377
	C154	C	0.874429	0.325002	0.610168
	C155	C	0.097436	0.323619	0.364847
	C156	C	0.875023	0.381361	0.669728
	C157	C	0.096440	0.629338	0.670208
	C158	C	0.874075	0.626902	0.309749
	C159	C	0.096106	0.379518	0.305120
	C160	C	0.365683	0.684183	0.877274
	C161	C	0.607777	0.686112	0.101466
	C162	C	0.608151	0.326673	0.875996
	C163	C	0.365907	0.327999	0.101377
	C164	C	0.667727	0.893882	0.364690
	C165	C	0.667352	0.120873	0.612022
	C166	C	0.307049	0.894795	0.610835
	C167	C	0.307563	0.118992	0.366287
	C168	C	0.864486	0.391407	0.166746
	C169	C	0.107703	0.618280	0.169350
	C170	C	0.109513	0.393321	0.807511
	C171	C	0.864485	0.618657	0.811291
	C172	C	0.168902	0.880961	0.377034
	C173	C	0.168714	0.130873	0.599300
	C174	C	0.804697	0.131549	0.378117
	C175	C	0.805501	0.883506	0.599973
	C176	C	0.374691	0.187378	0.867416
	C177	C	0.599697	0.187211	0.109445
	C178	C	0.374684	0.827124	0.110562
	C179	C	0.599006	0.827329	0.867305
	C180	C	0.376239	0.882484	0.170784
	C181	C	0.598467	0.131787	0.169904
	C182	C	0.375091	0.130296	0.808296
	C183	C	0.598035	0.883686	0.807388
	C184	C	0.865710	0.185079	0.376624
	C185	C	0.109732	0.186718	0.599954
	C186	C	0.108988	0.824963	0.376174
	C187	C	0.866126	0.828638	0.601538
	C188	C	0.167541	0.393484	0.864302
	C189	C	0.166428	0.618086	0.113723
	C190	C	0.806486	0.392390	0.110877
	C191	C	0.807974	0.618685	0.868644
	C192	C	0.390195	0.101667	0.585421
	C193	C	0.583175	0.914633	0.583662
	C194	C	0.584017	0.100254	0.393067
	C195	C	0.391522	0.912778	0.392226
	C196	C	0.585535	0.410542	0.081207
	C197	C	0.586344	0.603007	0.896252
	C198	C	0.388603	0.602954	0.082591
	C199	C	0.389246	0.410675	0.896741
	C200	C	0.077918	0.601113	0.390932
	C201	C	0.892979	0.603858	0.588395
	C202	C	0.077333	0.409907	0.585866
	C203	C	0.894276	0.407299	0.390108
	C204	C	0.888128	0.599876	0.087530
	C205	C	0.081760	0.411968	0.083249
	C206	C	0.081490	0.598342	0.894967
	C207	C	0.889622	0.410864	0.892064
	C208	C	0.085470	0.909840	0.580773
	C209	C	0.084989	0.100557	0.396210
	C210	C	0.889849	0.101282	0.580735
	C211	C	0.888673	0.908397	0.395724
	C212	C	0.578241	0.103196	0.890912
	C213	C	0.395692	0.104006	0.086833
	C214	C	0.578157	0.910365	0.085312
	C215	C	0.394052	0.907818	0.888651
	Zn216	Zn	0.486464	0.007621	0.737085
	Zn217	Zn	0.487069	0.006872	0.239974
	Zn218	Zn	0.738023	0.505267	-0.011073
	Zn219	Zn	0.235351	0.506004	-0.010395
	Zn220	Zn	-0.013555	0.755653	0.489165
	Zn221	Zn	-0.012799	0.254717	0.488707
	Zn222	Zn	-0.014298	0.505936	0.740487
	Zn223	Zn	-0.014418	0.504973	0.237204
	Zn224	Zn	0.486579	0.755745	-0.010889
	Zn225	Zn	0.487142	0.257942	-0.011477
	Zn226	Zn	0.736925	0.007134	0.488921
	Zn227	Zn	0.239030	0.006644	0.488410
	N228	N	0.400821	0.971454	0.666319
	N229	N	0.572993	0.044496	0.667275
	N230	N	0.574698	0.970730	0.308582
	N231	N	0.401856	0.042979	0.311075
	N232	N	0.668422	0.417733	0.953128
	N233	N	0.668035	0.594155	0.024480
	N234	N	0.304019	0.595395	0.955372
	N235	N	0.303606	0.416412	0.023130
	N236	N	0.949482	0.683256	0.403987
	N237	N	0.022177	0.684192	0.575019
	N238	N	0.949727	0.326590	0.574013
	N239	N	0.022559	0.325052	0.401575
	N240	N	0.950573	0.417431	0.670064
	N241	N	0.020023	0.594869	0.671520
	N242	N	0.949806	0.591154	0.309097
	N243	N	0.020290	0.414866	0.304963
	N244	N	0.402469	0.682607	0.952537
	N245	N	0.572671	0.685039	0.025473
	N246	N	0.572532	0.328505	0.951849
	N247	N	0.402788	0.330275	0.026150
	N248	N	0.667152	0.970785	0.401121
	N249	N	0.666352	0.044177	0.575222
	N250	N	0.307537	0.971600	0.575764
	N251	N	0.308079	0.041999	0.401113
	N252	N	0.900007	0.468461	0.166735
	N253	N	0.071205	0.541728	0.166911
	N254	N	0.072519	0.469597	0.809900
	N255	N	0.899664	0.541555	0.811165
	N256	N	0.169766	0.916957	0.453310
	N257	N	0.168839	0.094480	0.523300
	N258	N	0.804418	0.096328	0.454177
	N259	N	0.804482	0.917438	0.523170
	N260	N	0.449972	0.186103	0.903212
	N261	N	0.524504	0.185605	0.073291
	N262	N	0.449615	0.828810	0.073443
	N263	N	0.523197	0.826995	0.902213
	N264	N	0.452024	0.918365	0.170414
	N265	N	0.522761	0.095899	0.170655
	N266	N	0.450898	0.094508	0.807911
	N267	N	0.521734	0.917969	0.805889
	N268	N	0.902634	0.182543	0.451727
	N269	N	0.073546	0.184369	0.524482
	N270	N	0.072790	0.826874	0.451781
	N271	N	0.902225	0.829182	0.525908
	N272	N	0.166032	0.469707	0.901634
	N273	N	0.165536	0.541438	0.076794
	N274	N	0.806241	0.469782	0.076839
	N275	N	0.808357	0.541268	0.903159
	O276	O	0.978738	0.036944	0.140236
	H277	H	1.001009	0.029320	0.146175
	H278	H	0.960600	0.017548	0.147361
	O279	O	0.295648	0.559519	0.292024
	H280	H	0.285905	0.585826	0.286475
	H281	H	0.304304	0.575030	0.282785
	O282	O	0.639714	0.639148	0.579740
	H283	H	0.636265	0.657627	0.565198
	H284	H	0.634140	0.634130	0.576207
	O285	O	1.100336	0.172097	0.153395
	H286	H	1.081768	0.179927	0.145911
	H287	H	1.101344	0.181895	0.141808
	O288	O	0.070697	-0.009690	0.803421
	H289	H	0.090543	-0.017366	0.811305
	H290	H	0.073730	-0.016749	0.812506
	O291	O	0.580007	0.381688	0.435542
	H292	H	0.571062	0.386563	0.443572
	H293	H	0.573431	0.384076	0.448094
	O294	O	0.546020	0.482055	0.507802
	H295	H	0.533952	0.487429	0.525060
	H296	H	0.554562	0.491430	0.492991
	O297	O	0.970629	1.109850	0.901035
	H298	H	0.966518	1.102407	0.904374
	H299	H	0.971640	1.128014	0.898363
	O300	O	-0.010439	-0.081129	0.110748
	H301	H	0.002514	-0.082683	0.116008
	H302	H	0.010867	-0.085555	0.095635
	O303	O	0.525465	0.633656	0.516686
	H304	H	0.532128	0.640665	0.539101
	H305	H	0.529789	0.620508	0.523221
	O306	O	1.051584	-0.177343	-0.013498
	H307	H	1.051632	-0.177608	-0.013559
	H308	H	1.060745	-0.190975	-0.028673
	O309	O	0.309279	0.488483	0.656977
	H310	H	0.306426	0.454560	0.646543
	H311	H	0.318567	0.486563	0.645181
	O312	O	0.816898	0.832088	0.167132
	H313	H	0.834385	0.825661	0.147233
	H314	H	0.816504	0.842657	0.147022
	O315	O	0.973129	0.048999	-0.024552
	H316	H	0.965845	0.055132	-0.027066
	H317	H	0.972770	0.037119	-0.018649
	O318	O	0.576596	0.621233	0.432657
	H319	H	0.578738	0.595022	0.432645
	H320	H	0.579711	0.635080	0.442084
	O321	O	1.142303	0.005791	1.090643
	H322	H	1.153426	0.014044	1.095247
	H323	H	1.155846	0.015516	1.096811
	O324	O	-0.048080	0.167301	1.111023
	H325	H	-0.040102	0.163107	1.116405
	H326	H	-0.036833	0.164012	1.121446
	O327	O	0.545488	0.353362	0.584231
	H328	H	0.562137	0.349333	0.600509
	H329	H	0.558733	0.370692	0.583874
	O330	O	0.307544	0.486047	0.616142
	H331	H	0.302016	0.472192	0.613903
	H332	H	0.305121	0.478425	0.603105
	O333	O	1.151811	1.169452	0.972984
	H334	H	1.139873	1.151411	0.950715
	H335	H	1.160581	1.194683	0.963246
	O336	O	0.569618	0.700907	0.444591
	H337	H	0.553547	0.700403	0.457050
	H338	H	0.574383	0.712106	0.440192
	O339	O	0.902080	0.115693	0.815484
	H340	H	0.891207	0.119858	0.822427
	H341	H	0.896582	0.135936	0.817041
	O342	O	0.002217	1.135301	0.980158
	H343	H	-0.004429	1.123479	0.988733
	H344	H	0.008029	1.132175	0.972211
	O345	O	0.627072	0.499857	1.456113
	H346	H	0.640635	0.510427	1.448002
	H347	H	0.621343	0.496470	1.446926
	O348	O	0.397433	0.356310	0.444564
	H349	H	0.386911	0.340730	0.434673
	H350	H	0.427839	0.364276	0.434942
	O351	O	-0.218680	-0.103731	-0.015785
	H352	H	-0.224031	-0.101668	-0.018199
	H353	H	-0.215626	-0.103799	-0.024687
	O354	O	0.775443	0.979983	0.202912
	H355	H	0.794426	0.964982	0.202974
	H356	H	0.749355	0.971508	0.233438
	O357	O	-0.065824	0.849053	-0.202190
	H358	H	-0.046027	0.863343	-0.196678
	H359	H	-0.065284	0.842706	-0.197381
	O360	O	0.294434	0.429836	0.376423
	H361	H	0.294557	0.446267	0.354469
	H362	H	0.304687	0.435113	0.365807
	O363	O	0.311493	0.385463	0.560372
	H364	H	0.342564	0.375794	0.565295
	H365	H	0.298601	0.373835	0.538457
	O366	O	0.468476	0.551990	0.474768
	H367	H	0.470231	0.561291	0.485976
	H368	H	0.469038	0.558896	0.464528
	O369	O	0.401695	0.708327	0.570291
	H370	H	0.403016	0.705168	0.569299
	H371	H	0.410195	0.710904	0.577011
	O372	O	0.674376	0.338018	0.368491
	H373	H	0.664887	0.336886	0.376437
	H374	H	0.684993	0.347091	0.370974
	O375	O	0.690731	0.584548	0.691338
	H376	H	0.706977	0.601655	0.706532
	H377	H	0.695745	0.570820	0.695611
	O378	O	0.576434	0.567537	0.307322
	H379	H	0.592040	0.566248	0.298925
	H380	H	0.583753	0.568466	0.323947
	O381	O	0.633733	0.453103	0.585517
	H382	H	0.628154	0.473056	0.578713
	H383	H	0.636577	0.456186	0.574509
	O384	O	-0.115449	0.988544	0.786858
	H385	H	-0.107233	0.992004	0.796204
	H386	H	-0.113898	0.991362	0.765792
	O387	O	1.161860	1.040084	-0.053900
	H388	H	1.148291	1.036178	-0.062558
	H389	H	1.167718	1.035652	-0.075626
	O390	O	0.387560	0.582525	0.354872
	H391	H	0.408995	0.581472	0.369242
	H392	H	0.389349	0.586760	0.358321
	O393	O	1.058957	-0.127844	0.840826
	H394	H	1.049729	-0.115338	0.824707
	H395	H	1.064722	-0.114732	0.829548
	O396	O	0.170961	0.809031	0.904288
	H397	H	0.181982	0.795284	0.893038
	H398	H	0.179089	0.822206	0.902901
	O399	O	0.478672	0.553101	1.596122
	H400	H	0.472458	0.534939	1.588720
	H401	H	0.477118	0.537928	1.600759
	O402	O	0.807639	0.182833	0.848289
	H403	H	0.802633	0.177479	0.864374
	H404	H	0.799665	0.176559	0.870112
	O405	O	0.175522	0.092896	0.148923
	H406	H	0.165616	0.129898	0.144705
	H407	H	0.196591	0.096205	0.159282
	O408	O	0.832063	0.925125	1.020434
	H409	H	0.840542	0.913638	1.021982
	H410	H	0.840688	0.949829	1.031974
	O411	O	0.883270	1.102652	0.021787
	H412	H	0.887323	1.079531	0.026207
	H413	H	0.884755	1.101804	0.031154
	O414	O	0.596652	-0.592998	1.422315
	H415	H	0.597731	-0.601905	1.418687
	H416	H	0.594922	-0.584275	1.429406
	O417	O	0.372440	0.488998	0.405082
	H418	H	0.383988	0.487077	0.417205
	H419	H	0.383478	0.479661	0.391134
	O420	O	0.012157	0.852699	0.167791
	H421	H	0.024195	0.858729	0.169940
	H422	H	0.004002	0.848657	0.158252
	O423	O	1.137123	-0.021562	-0.173235
	H424	H	1.138019	-0.016116	-0.173478
	H425	H	1.133716	-0.020517	-0.150312
	O426	O	0.426650	0.569216	1.660905
	H427	H	0.425467	0.547008	1.665176
	H428	H	0.436209	0.573279	1.657886
	O429	O	0.405813	0.548075	0.410491
	H430	H	0.399751	0.547109	0.403988
	H431	H	0.414411	0.550142	0.421197
