data_Molecule from HDF5

_cell_length_a		16.428319
_cell_length_b		16.433707
_cell_length_c		16.296223
_cell_angle_alpha	90.152357
_cell_angle_beta	89.875112
_cell_angle_gamma	90.209764
_symmetry_space_group_name_H-M	'P 1'
_symmetry_Int_Tables_number		1

loop_
	_symmetry_equiv_pos_as_xyz
	x,y,z

loop_
	_atom_site_label
	_atom_site_type_symbol
	_atom_site_fract_x
	_atom_site_fract_y
	_atom_site_fract_z
	H0	H	0.386445	0.840868	0.715610
	H1	H	0.596133	0.157583	0.718566
	H2	H	0.588426	0.839595	0.277734
	H3	H	0.382738	0.158064	0.275791
	H4	H	0.703672	0.402691	0.835330
	H5	H	0.709881	0.607238	0.157484
	H6	H	0.271110	0.605066	0.836639
	H7	H	0.266750	0.392661	0.154755
	H8	H	0.829480	0.715781	0.395430
	H9	H	0.147755	0.723096	0.604921
	H10	H	0.829770	0.280047	0.599703
	H11	H	0.146417	0.273259	0.385446
	H12	H	0.830399	0.397048	0.715775
	H13	H	0.149577	0.603604	0.717313
	H14	H	0.830331	0.601294	0.277748
	H15	H	0.147468	0.392328	0.272497
	H16	H	0.385954	0.719759	0.837678
	H17	H	0.593604	0.722558	0.157183
	H18	H	0.596393	0.280007	0.838736
	H19	H	0.381776	0.276687	0.155542
	H20	H	0.707952	0.839736	0.391237
	H21	H	0.713674	0.156703	0.603664
	H22	H	0.267097	0.841429	0.603188
	H23	H	0.263284	0.155884	0.387358
	H24	H	0.883487	0.340140	0.216840
	H25	H	0.095654	0.657831	0.218933
	H26	H	0.096294	0.340797	0.775022
	H27	H	0.889540	0.659364	0.778662
	H28	H	0.212845	0.889722	0.339049
	H29	H	0.209731	0.107041	0.655903
	H30	H	0.770204	0.101150	0.334960
	H31	H	0.769879	0.897283	0.656679
	H32	H	0.333314	0.224762	0.889829
	H33	H	0.648298	0.222670	0.105036
	H34	H	0.332638	0.774638	0.107147
	H35	H	0.647264	0.781209	0.891075
	H36	H	0.329900	0.895339	0.217717
	H37	H	0.647599	0.105679	0.220017
	H38	H	0.331556	0.107085	0.774856
	H39	H	0.647461	0.898014	0.777315
	H40	H	0.881514	0.218597	0.336109
	H41	H	0.095347	0.222636	0.654505
	H42	H	0.095739	0.776438	0.338139
	H43	H	0.887035	0.782051	0.658177
	H44	H	0.216468	0.342949	0.886801
	H45	H	0.214900	0.656886	0.105463
	H46	H	0.764333	0.342265	0.103834
	H47	H	0.771980	0.659737	0.893866
	H48	H	0.393578	0.114364	0.580031
	H49	H	0.575985	0.888815	0.580360
	H50	H	0.583059	0.112420	0.410997
	H51	H	0.393603	0.887643	0.418894
	H52	H	0.578661	0.411213	0.114238
	H53	H	0.589714	0.582595	0.882988
	H54	H	0.403454	0.586840	0.110909
	H55	H	0.406938	0.416369	0.886273
	H56	H	0.103487	0.587161	0.405418
	H57	H	0.878883	0.592340	0.578267
	H58	H	0.104653	0.410022	0.586729
	H59	H	0.879630	0.414382	0.413530
	H60	H	0.103380	0.407522	0.582782
	H61	H	0.878417	0.579595	0.590146
	H62	H	0.104306	0.590610	0.408202
	H63	H	0.874908	0.411600	0.399809
	H64	H	0.403070	0.588970	0.110991
	H65	H	0.568099	0.590778	0.886402
	H66	H	0.579172	0.413455	0.112261
	H67	H	0.406864	0.409367	0.883603
	H68	H	0.580641	0.113361	0.405994
	H69	H	0.586063	0.883951	0.585759
	H70	H	0.398839	0.116088	0.592052
	H71	H	0.395460	0.882722	0.399262
	H72	H	0.893330	0.615081	0.086137
	H73	H	0.078394	0.388064	0.079327
	H74	H	0.072366	0.609544	0.908594
	H75	H	0.891536	0.383145	0.907514
	H76	H	0.080473	0.907108	0.613917
	H77	H	0.072972	0.088925	0.383137
	H78	H	0.903896	0.084446	0.607061
	H79	H	0.895471	0.908704	0.380425
	H80	H	0.604202	0.092913	0.907834
	H81	H	0.377158	0.085490	0.088290
	H82	H	0.601152	0.918303	0.089243
	H83	H	0.373794	0.909011	0.906841
	H84	H	0.604719	0.906246	0.088624
	H85	H	0.375361	0.093809	0.086745
	H86	H	0.600884	0.088859	0.911825
	H87	H	0.374640	0.908397	0.909565
	H88	H	0.902258	0.093634	0.611216
	H89	H	0.080479	0.083259	0.381999
	H90	H	0.078590	0.916677	0.609587
	H91	H	0.903187	0.908696	0.383251
	H92	H	0.086248	0.611731	0.915488
	H93	H	0.080347	0.386494	0.083576
	H94	H	0.905495	0.613307	0.092859
	H95	H	0.898747	0.385359	0.901396
	H96	H	0.405748	0.110507	0.581945
	H97	H	0.575825	0.884274	0.592732
	H98	H	0.576945	0.111201	0.409903
	H99	H	0.410548	0.890960	0.409362
	H100	H	0.576500	0.411942	0.112613
	H101	H	0.584475	0.604665	0.876718
	H102	H	0.401308	0.588291	0.111245
	H103	H	0.400871	0.413491	0.882517
	H104	H	0.102433	0.586811	0.409487
	H105	H	0.872010	0.595311	0.594692
	H106	H	0.101949	0.411408	0.583333
	H107	H	0.874172	0.401198	0.410249
	H108	H	0.903777	0.609151	0.079726
	H109	H	0.075872	0.388743	0.083102
	H110	H	0.083763	0.616435	0.900764
	H111	H	0.899982	0.387168	0.910365
	H112	H	0.071180	0.908542	0.609471
	H113	H	0.072311	0.079775	0.386669
	H114	H	0.895179	0.086702	0.611115
	H115	H	0.899972	0.902004	0.380129
	H116	H	0.603059	0.086870	0.906191
	H117	H	0.378636	0.089299	0.080165
	H118	H	0.599957	0.911926	0.078296
	H119	H	0.375249	0.910553	0.907883
	C120	C	0.367633	0.008704	0.617876
	C121	C	0.611513	0.990721	0.618074
	C122	C	0.610487	0.007344	0.375824
	C123	C	0.366574	0.991011	0.375581
	C124	C	0.610260	0.380691	0.006840
	C125	C	0.612048	0.624388	0.988092
	C126	C	0.369983	0.620657	0.005611
	C127	C	0.370091	0.379155	0.988420
	C128	C	-0.001890	0.619774	0.376065
	C129	C	0.981766	0.620980	0.619558
	C130	C	-0.001614	0.377879	0.616840
	C131	C	0.980965	0.376462	0.374217
	C132	C	0.867472	0.508177	0.118562
	C133	C	0.111621	0.491624	0.116920
	C134	C	0.113308	0.507958	0.874930
	C135	C	0.867886	0.490944	0.875504
	C136	C	0.110196	0.877359	0.506140
	C137	C	0.109161	0.119276	0.488204
	C138	C	0.867844	0.119637	0.504219
	C139	C	0.868193	0.876707	0.487655
	C140	C	0.498370	0.122211	0.875603
	C141	C	0.481026	0.122500	0.119195
	C142	C	0.497235	0.879251	0.118279
	C143	C	0.479855	0.878661	0.876212
	C144	C	0.366859	0.888746	0.676910
	C145	C	0.613922	0.110020	0.678316
	C146	C	0.609122	0.887428	0.316639
	C147	C	0.364281	0.110190	0.315186
	C148	C	0.666853	0.381723	0.884617
	C149	C	0.670639	0.625978	0.109252
	C150	C	0.310364	0.623130	0.885151
	C151	C	0.307411	0.375147	0.107407
	C152	C	0.877772	0.677416	0.375758
	C153	C	0.100650	0.681868	0.622156
	C154	C	0.877909	0.319438	0.618376
	C155	C	0.099278	0.314639	0.368961
	C156	C	0.878277	0.377526	0.676247
	C157	C	0.101661	0.622478	0.678278
	C158	C	0.878175	0.620486	0.317115
	C159	C	0.100101	0.373926	0.312556
	C160	C	0.367764	0.680251	0.885447
	C161	C	0.612797	0.683320	0.109044
	C162	C	0.613150	0.321053	0.886157
	C163	C	0.364583	0.317221	0.107635
	C164	C	0.668381	0.887316	0.373083
	C165	C	0.672648	0.109510	0.621124
	C166	C	0.307491	0.889145	0.620847
	C167	C	0.304581	0.109039	0.370892
	C168	C	0.865217	0.388026	0.177476
	C169	C	0.114221	0.610127	0.178959
	C170	C	0.115364	0.388571	0.814483
	C171	C	0.869480	0.611390	0.817331
	C172	C	0.171939	0.873077	0.386736
	C173	C	0.169916	0.124144	0.607709
	C174	C	0.808615	0.120624	0.383734
	C175	C	0.809546	0.877466	0.608759
	C176	C	0.380279	0.183974	0.872275
	C177	C	0.600440	0.182760	0.122860
	C178	C	0.379052	0.816829	0.123027
	C179	C	0.599360	0.820399	0.873346
	C180	C	0.377821	0.876640	0.178545
	C181	C	0.600033	0.124505	0.180271
	C182	C	0.379304	0.125139	0.815047
	C183	C	0.599633	0.878480	0.816470
	C184	C	0.864319	0.179296	0.384151
	C185	C	0.113152	0.182235	0.606879
	C186	C	0.113743	0.816302	0.386137
	C187	C	0.867602	0.820235	0.609496
	C188	C	0.174898	0.389824	0.870608
	C189	C	0.173783	0.609684	0.122430
	C190	C	0.805688	0.389308	0.121393
	C191	C	0.810868	0.611500	0.874744
	C192	C	0.392361	0.091893	0.592242
	C193	C	0.586605	0.907309	0.593211
	C194	C	0.587025	0.090529	0.401550
	C195	C	0.392235	0.908566	0.401754
	C196	C	0.585447	0.405100	0.090958
	C197	C	0.587903	0.599886	0.904101
	C198	C	0.395225	0.595273	0.089177
	C199	C	0.397016	0.405556	0.905646
	C200	C	0.081744	0.595278	0.400654
	C201	C	0.898107	0.596339	0.594718
	C202	C	0.081621	0.402403	0.591652
	C203	C	0.898112	0.401733	0.400342
	C204	C	0.893455	0.590836	0.093412
	C205	C	0.085751	0.409354	0.089664
	C206	C	0.087879	0.590799	0.900692
	C207	C	0.890417	0.407077	0.899498
	C208	C	0.084268	0.903457	0.589329
	C209	C	0.082795	0.091818	0.405355
	C210	C	0.893155	0.095194	0.588035
	C211	C	0.892514	0.899758	0.403349
	C212	C	0.581215	0.096670	0.901178
	C213	C	0.398454	0.096909	0.092785
	C214	C	0.580211	0.904737	0.092663
	C215	C	0.396315	0.902460	0.901065
	Zn216	Zn	0.489102	0.000264	0.746623
	Zn217	Zn	0.488565	-0.000061	0.246996
	Zn218	Zn	0.738108	0.500902	-0.002641
	Zn219	Zn	0.241752	0.500078	-0.003906
	Zn220	Zn	-0.010407	0.748725	0.497634
	Zn221	Zn	-0.011590	0.247742	0.495281
	Zn222	Zn	-0.009171	0.498722	0.747197
	Zn223	Zn	-0.010463	0.498960	0.246351
	Zn224	Zn	0.489097	0.750506	-0.002645
	Zn225	Zn	0.491344	0.251411	-0.002280
	Zn226	Zn	0.740216	-0.001436	0.495746
	Zn227	Zn	0.238334	-0.000766	0.497239
	N228	N	0.403279	0.964168	0.675437
	N229	N	0.576415	0.035247	0.676335
	N230	N	0.573890	0.962980	0.318270
	N231	N	0.402237	0.035819	0.318020
	N232	N	0.665113	0.418088	0.960680
	N233	N	0.670552	0.590181	0.033020
	N234	N	0.311478	0.586982	0.960978
	N235	N	0.310884	0.413090	0.032327
	N236	N	0.953542	0.677278	0.411423
	N237	N	0.024878	0.681020	0.586484
	N238	N	0.953727	0.319270	0.582228
	N239	N	0.024168	0.315878	0.406127
	N240	N	0.954086	0.412986	0.675533
	N241	N	0.026673	0.585218	0.676689
	N242	N	0.954139	0.585566	0.316933
	N243	N	0.025449	0.411453	0.315556
	N244	N	0.403736	0.679154	0.961623
	N245	N	0.577333	0.682461	0.032832
	N246	N	0.578951	0.320159	0.963265
	N247	N	0.402816	0.319515	0.032632
	N248	N	0.669396	0.963033	0.409015
	N249	N	0.671133	0.034283	0.584114
	N250	N	0.307663	0.964908	0.585211
	N251	N	0.305750	0.033798	0.407542
	N252	N	0.902686	0.462810	0.176173
	N253	N	0.076152	0.535556	0.175648
	N254	N	0.077719	0.463038	0.817199
	N255	N	0.904285	0.535425	0.817752
	N256	N	0.169744	0.910557	0.462097
	N257	N	0.167692	0.085925	0.532673
	N258	N	0.810532	0.084268	0.459583
	N259	N	0.809605	0.911697	0.532038
	N260	N	0.455340	0.182051	0.909306
	N261	N	0.525294	0.181918	0.086016
	N262	N	0.454321	0.818530	0.086125
	N263	N	0.523957	0.820544	0.909788
	N264	N	0.452093	0.915072	0.175395
	N265	N	0.524603	0.088123	0.178425
	N266	N	0.453776	0.087424	0.817047
	N267	N	0.524093	0.914048	0.817726
	N268	N	0.900518	0.178776	0.460153
	N269	N	0.076352	0.179623	0.531208
	N270	N	0.076037	0.818780	0.461441
	N271	N	0.903299	0.819585	0.533232
	N272	N	0.173913	0.465170	0.907298
	N273	N	0.172355	0.534929	0.084781
	N274	N	0.806807	0.465003	0.085527
	N275	N	0.809803	0.535936	0.910401
	O276	O	0.511915	0.293637	0.500157
	H277	H	0.491108	0.290586	0.509050
	H278	H	0.489862	0.291659	0.516469
	O279	O	0.313770	0.407829	0.678591
	H280	H	0.293333	0.418366	0.673086
	H281	H	0.316226	0.435262	0.671040
	O282	O	0.571641	0.465330	0.298474
	H283	H	0.574019	0.448393	0.313943
	H284	H	0.588727	0.445241	0.288413
	O285	O	0.932351	0.889247	0.188296
	H286	H	0.910435	0.899629	0.184213
	H287	H	0.932735	0.880544	0.211536
	O288	O	0.593604	0.468309	0.490018
	H289	H	0.597915	0.456892	0.503247
	H290	H	0.590133	0.480881	0.500335
	O291	O	0.385529	0.580247	0.584255
	H292	H	0.381449	0.592618	0.591217
	H293	H	0.404372	0.587853	0.577453
	O294	O	1.005241	1.177126	0.976532
	H295	H	1.005880	1.175850	0.991727
	H296	H	1.013953	1.175167	0.989025
	O297	O	0.283147	0.636834	0.388473
	H298	H	0.279276	0.657027	0.381508
	H299	H	0.282177	0.640173	0.356565
	O300	O	0.791464	0.192872	0.804660
	H301	H	0.826770	0.186926	0.802371
	H302	H	0.797703	0.180355	0.804424
	O303	O	0.288179	0.296152	0.583524
	H304	H	0.257008	0.277062	0.571756
	H305	H	0.280834	0.337879	0.566352
	O306	O	0.189097	-0.206744	0.983462
	H307	H	0.197497	-0.213823	0.991521
	H308	H	0.198418	-0.197655	0.990628
	O309	O	0.951349	0.090856	0.053623
	H310	H	0.962802	0.101425	0.056087
	H311	H	0.942724	0.095345	0.046867
	O312	O	0.576259	0.550137	0.604721
	H313	H	0.574969	0.569581	0.591626
	H314	H	0.588993	0.536444	0.599273
	O315	O	0.286147	0.374165	0.473310
	H316	H	0.290891	0.414496	0.482234
	H317	H	0.273994	0.378509	0.451813
	O318	O	-0.132125	0.036223	-0.063559
	H319	H	-0.144298	0.042070	-0.053300
	H320	H	-0.129173	0.044330	-0.059148
	O321	O	0.565498	0.420958	0.608863
	H322	H	0.571353	0.424942	0.633496
	H323	H	0.562006	0.409764	0.611795
	O324	O	1.171856	-0.183846	0.815469
	H325	H	1.148588	-0.184881	0.834292
	H326	H	1.153988	-0.197630	0.831748
	O327	O	0.390968	0.399744	0.373920
	H328	H	0.376400	0.400499	0.357945
	H329	H	0.401761	0.386663	0.374048
	O330	O	-0.086383	1.008179	0.853858
	H331	H	-0.068668	0.991772	0.866074
	H332	H	-0.080573	1.020337	0.866654
	O333	O	0.195873	1.206947	0.012860
	H334	H	0.205278	1.179091	-0.010384
	H335	H	0.213935	1.223459	0.009815
	O336	O	0.957792	1.206027	-0.212882
	H337	H	0.968236	1.227335	-0.221385
	H338	H	0.981032	1.202407	-0.204328
	O339	O	0.135472	0.872298	1.073427
	H340	H	0.113057	0.867402	1.091595
	H341	H	0.146241	0.885320	1.071241
	O342	O	0.410225	0.631759	0.387481
	H343	H	0.420364	0.603930	0.389167
	H344	H	0.434230	0.639034	0.389099
	O345	O	-0.178802	-0.066944	1.056000
	H346	H	-0.190295	-0.070218	1.070113
	H347	H	-0.183865	-0.068391	1.058997
	O348	O	0.539818	0.695973	0.583725
	H349	H	0.533275	0.703667	0.605347
	H350	H	0.557456	0.685749	0.589340
	O351	O	0.807367	1.000996	0.178215
	H352	H	0.818692	0.995264	0.171900
	H353	H	0.797938	1.006101	0.192175
	O354	O	0.917788	1.059214	0.999864
	H355	H	0.931857	1.090459	1.003355
	H356	H	0.899052	1.067575	0.979507
	O357	O	-0.198892	0.212101	-0.015838
	H358	H	-0.184936	0.210572	-0.036355
	H359	H	-0.218510	0.237335	-0.021313
	O360	O	0.562261	0.335266	0.309737
	H361	H	0.525406	0.333635	0.323161
	H362	H	0.572882	0.311485	0.311522
	O363	O	0.803672	-0.129808	-0.120479
	H364	H	0.804671	-0.113058	-0.126087
	H365	H	0.805977	-0.117153	-0.106425
	O366	O	-0.114453	-0.178343	1.029674
	H367	H	-0.133443	-0.190073	1.028131
	H368	H	-0.128270	-0.157083	1.024378
	O369	O	1.167842	0.174684	1.175830
	H370	H	1.179340	0.181522	1.128688
	H371	H	1.178214	0.123081	1.181992
	O372	O	0.687746	0.336210	0.430606
	H373	H	0.666647	0.323694	0.447075
	H374	H	0.677548	0.312859	0.434094
	O375	O	0.014654	0.213699	1.212665
	H376	H	0.028084	0.242112	1.241743
	H377	H	0.057479	0.208881	1.210456
	O378	O	0.476313	0.290844	0.704963
	H379	H	0.449126	0.279473	0.719842
	H380	H	0.446535	0.289699	0.713835
	O381	O	0.093388	1.060602	-0.065622
	H382	H	0.091625	1.062656	-0.068887
	H383	H	0.091705	1.050984	-0.063980
	O384	O	0.610486	0.602065	0.330565
	H385	H	0.621104	0.581617	0.330298
	H386	H	0.610778	0.587627	0.351685
	O387	O	0.609645	0.408640	0.311133
	H388	H	0.600320	0.377943	0.306794
	H389	H	0.610914	0.401478	0.296893
	O390	O	0.970725	1.041010	-0.158060
	H391	H	0.973590	1.034351	-0.152087
	H392	H	0.983249	1.038808	-0.155891
	O393	O	1.015765	-0.050511	1.199852
	H394	H	0.999228	-0.055288	1.199434
	H395	H	1.001055	-0.040727	1.193953
	O396	O	0.368076	0.566612	0.498750
	H397	H	0.367098	0.581294	0.495501
	H398	H	0.369293	0.580981	0.476419
	O399	O	0.803184	0.835363	0.178660
	H400	H	0.809829	0.821692	0.162269
	H401	H	0.786331	0.840351	0.192632
	O402	O	0.969027	0.882225	-0.195208
	H403	H	0.957771	0.878848	-0.191269
	H404	H	0.964528	0.891946	-0.191381
	O405	O	0.693702	0.626295	0.570506
	H406	H	0.709748	0.615226	0.570043
	H407	H	0.700706	0.620619	0.581496
	O408	O	0.375034	0.532283	0.551822
	H409	H	0.374847	0.535182	0.551785
	H410	H	0.377483	0.550524	0.542029
	O411	O	1.210750	0.974502	0.780928
	H412	H	1.211854	0.938054	0.775611
	H413	H	1.227374	0.964988	0.755412
	O414	O	0.666788	0.609288	0.670252
	H415	H	0.654591	0.607072	0.646865
	H416	H	0.676345	0.587232	0.684668
	O417	O	0.193365	1.019021	0.977398
	H418	H	0.181907	1.009999	0.992608
	H419	H	0.196508	1.007847	0.965293
	O420	O	0.194433	1.013889	1.198808
	H421	H	0.171004	0.994022	1.201383
	H422	H	0.207115	1.010570	1.224942
	O423	O	-0.087520	0.793666	0.056856
	H424	H	-0.082308	0.788644	0.081520
	H425	H	-0.084499	0.799025	0.053279
	O426	O	0.620219	0.669229	0.504425
	H427	H	0.634005	0.657527	0.518277
	H428	H	0.632508	0.678069	0.524084
	O429	O	0.515882	0.478883	0.511135
	H430	H	0.513554	0.483561	0.513938
	H431	H	0.519279	0.486692	0.508153
	O432	O	0.328926	0.559884	0.567009
	H433	H	0.323170	0.576898	0.571118
	H434	H	0.341450	0.572105	0.577093
	O435	O	0.465573	-0.309260	0.359935
	H436	H	0.480503	-0.326617	0.355498
	H437	H	0.479079	-0.297974	0.356369
	O438	O	0.013488	0.811956	0.898218
	H439	H	-0.004320	0.813689	0.903697
	H440	H	0.014048	0.801199	0.886503
	O441	O	0.555455	0.434858	0.598670
	H442	H	0.542643	0.435938	0.591347
	H443	H	0.555301	0.421601	0.611828
