data_Molecule from HDF5

_cell_length_a		16.241120
_cell_length_b		16.189874
_cell_length_c		16.352879
_cell_angle_alpha	90.163700
_cell_angle_beta	89.890686
_cell_angle_gamma	89.976796
_symmetry_space_group_name_H-M	'P 1'
_symmetry_Int_Tables_number		1

loop_
	_symmetry_equiv_pos_as_xyz
	x,y,z

loop_
	_atom_site_label
	_atom_site_type_symbol
	_atom_site_fract_x
	_atom_site_fract_y
	_atom_site_fract_z
	H0	H	0.399483	0.838235	0.712460
	H1	H	0.598375	0.166075	0.714373
	H2	H	0.599711	0.838265	0.282492
	H3	H	0.399190	0.166737	0.283280
	H4	H	0.715699	0.402340	0.836228
	H5	H	0.712726	0.600961	0.162696
	H6	H	0.283846	0.599978	0.835838
	H7	H	0.284146	0.403858	0.162780
	H8	H	0.834008	0.716057	0.402961
	H9	H	0.164005	0.715811	0.595446
	H10	H	0.834054	0.290560	0.596141
	H11	H	0.163315	0.290344	0.401832
	H12	H	0.835242	0.404564	0.714107
	H13	H	0.161997	0.604143	0.715225
	H14	H	0.835197	0.603060	0.283788
	H15	H	0.162195	0.402088	0.283198
	H16	H	0.400817	0.715680	0.834525
	H17	H	0.596650	0.717372	0.162510
	H18	H	0.598368	0.286707	0.835385
	H19	H	0.400296	0.286962	0.161577
	H20	H	0.714601	0.838754	0.398353
	H21	H	0.710852	0.167485	0.596621
	H22	H	0.285904	0.837710	0.594860
	H23	H	0.285925	0.168197	0.402299
	H24	H	0.898742	0.338465	0.215209
	H25	H	0.097575	0.666486	0.213928
	H26	H	0.098515	0.338962	0.782601
	H27	H	0.899604	0.667398	0.786607
	H28	H	0.214824	0.902507	0.335245
	H29	H	0.213143	0.102290	0.661332
	H30	H	0.783868	0.102822	0.335778
	H31	H	0.782351	0.904738	0.661503
	H32	H	0.334984	0.215339	0.901792
	H33	H	0.663432	0.216403	0.095554
	H34	H	0.334777	0.790080	0.095350
	H35	H	0.664082	0.788584	0.900324
	H36	H	0.335738	0.902585	0.214110
	H37	H	0.662926	0.103237	0.214435
	H38	H	0.335533	0.101705	0.784642
	H39	H	0.662121	0.900874	0.780819
	H40	H	0.902219	0.217674	0.335476
	H41	H	0.096731	0.217753	0.661844
	H42	H	0.096485	0.788089	0.335303
	H43	H	0.900026	0.789825	0.662041
	H44	H	0.211580	0.336928	0.901286
	H45	H	0.211374	0.667146	0.096364
	H46	H	0.785671	0.337259	0.097057
	H47	H	0.785778	0.667204	0.903382
	H48	H	0.399379	0.122229	0.591160
	H49	H	0.580224	0.888305	0.592300
	H50	H	0.591629	0.119214	0.406689
	H51	H	0.402261	0.884427	0.404645
	H52	H	0.592163	0.414336	0.113463
	H53	H	0.597581	0.590217	0.883129
	H54	H	0.406500	0.592088	0.113092
	H55	H	0.397599	0.410292	0.881314
	H56	H	0.117786	0.593313	0.395286
	H57	H	0.883418	0.598186	0.588259
	H58	H	0.116193	0.408201	0.588999
	H59	H	0.881699	0.403595	0.413907
	H60	H	0.114704	0.414979	0.591064
	H61	H	0.882536	0.591313	0.595481
	H62	H	0.117931	0.605637	0.408915
	H63	H	0.885737	0.420695	0.408396
	H64	H	0.407933	0.600025	0.115012
	H65	H	0.587506	0.593660	0.885505
	H66	H	0.586999	0.407337	0.113417
	H67	H	0.409649	0.413556	0.885722
	H68	H	0.590476	0.119930	0.404753
	H69	H	0.593089	0.887288	0.579682
	H70	H	0.407925	0.121472	0.599340
	H71	H	0.409738	0.885768	0.401621
	H72	H	0.907634	0.619501	0.093424
	H73	H	0.093988	0.382771	0.096278
	H74	H	0.100495	0.621910	0.908940
	H75	H	0.897309	0.383843	0.911143
	H76	H	0.086393	0.917879	0.610824
	H77	H	0.093231	0.095270	0.382528
	H78	H	0.913322	0.108852	0.615980
	H79	H	0.906479	0.895655	0.378683
	H80	H	0.618029	0.096801	0.899967
	H81	H	0.384650	0.093243	0.086381
	H82	H	0.616599	0.905721	0.086865
	H83	H	0.385032	0.913528	0.910071
	H84	H	0.613838	0.915704	0.089648
	H85	H	0.383249	0.089553	0.095757
	H86	H	0.615994	0.096567	0.910300
	H87	H	0.381143	0.912015	0.898947
	H88	H	0.890340	0.098441	0.619046
	H89	H	0.091170	0.096415	0.382676
	H90	H	0.089050	0.901279	0.616367
	H91	H	0.893093	0.916892	0.381091
	H92	H	0.089273	0.621294	0.897174
	H93	H	0.085757	0.386296	0.092638
	H94	H	0.905796	0.619323	0.091522
	H95	H	0.908055	0.382358	0.894589
	H96	H	0.410654	0.116974	0.588684
	H97	H	0.596417	0.881523	0.597271
	H98	H	0.588996	0.119373	0.406177
	H99	H	0.408160	0.887282	0.409540
	H100	H	0.595422	0.407224	0.116096
	H101	H	0.594560	0.600725	0.881451
	H102	H	0.400155	0.596416	0.115845
	H103	H	0.406581	0.401675	0.881650
	H104	H	0.111486	0.588328	0.411502
	H105	H	0.879153	0.601081	0.597134
	H106	H	0.116726	0.410540	0.595866
	H107	H	0.878508	0.408657	0.396159
	H108	H	0.905550	0.619782	0.094064
	H109	H	0.094049	0.385430	0.087240
	H110	H	0.085837	0.616495	0.912619
	H111	H	0.916168	0.389308	0.910962
	H112	H	0.102494	0.913269	0.616011
	H113	H	0.093061	0.097446	0.381507
	H114	H	0.909117	0.084450	0.609674
	H115	H	0.917618	0.917436	0.388013
	H116	H	0.614600	0.087788	0.904265
	H117	H	0.380396	0.099385	0.093873
	H118	H	0.618369	0.909698	0.096557
	H119	H	0.381645	0.902999	0.906011
	C120	C	0.377443	0.011158	0.620457
	C121	C	0.619121	0.994166	0.619135
	C122	C	0.620154	0.010958	0.376733
	C123	C	0.377715	0.994357	0.376974
	C124	C	0.620841	0.380521	0.006924
	C125	C	0.621228	0.624150	0.990984
	C126	C	0.377056	0.624416	0.006772
	C127	C	0.376550	0.380258	0.990777
	C128	C	0.007043	0.624339	0.377605
	C129	C	0.990258	0.625843	0.622037
	C130	C	0.007260	0.382671	0.620129
	C131	C	0.990570	0.382280	0.377804
	C132	C	0.877812	0.510703	0.121176
	C133	C	0.119401	0.493835	0.120182
	C134	C	0.120302	0.510940	0.877518
	C135	C	0.877975	0.493973	0.877898
	C136	C	0.121021	0.881237	0.506851
	C137	C	0.120839	0.125145	0.490012
	C138	C	0.876371	0.125886	0.507066
	C139	C	0.876601	0.881649	0.490264
	C140	C	0.507566	0.122915	0.877138
	C141	C	0.490965	0.123793	0.120707
	C142	C	0.508037	0.881489	0.119799
	C143	C	0.490846	0.880698	0.876128
	C144	C	0.379347	0.887293	0.674650
	C145	C	0.617715	0.117330	0.675771
	C146	C	0.619312	0.887368	0.320815
	C147	C	0.379281	0.117979	0.321652
	C148	C	0.677216	0.382040	0.884552
	C149	C	0.675403	0.621837	0.113930
	C150	C	0.322441	0.620592	0.884067
	C151	C	0.321802	0.383213	0.113758
	C152	C	0.883251	0.678584	0.381537
	C153	C	0.114175	0.679824	0.617602
	C154	C	0.883337	0.327854	0.617048
	C155	C	0.114190	0.327084	0.380332
	C156	C	0.883703	0.384690	0.675432
	C157	C	0.113506	0.623570	0.676653
	C158	C	0.883865	0.622520	0.322504
	C159	C	0.113597	0.383002	0.321830
	C160	C	0.380207	0.678559	0.883687
	C161	C	0.617721	0.679850	0.113649
	C162	C	0.619082	0.324614	0.884345
	C163	C	0.379794	0.325366	0.113397
	C164	C	0.676408	0.887563	0.378315
	C165	C	0.673709	0.118193	0.617359
	C166	C	0.322975	0.887170	0.616315
	C167	C	0.323409	0.118815	0.380952
	C168	C	0.879577	0.387056	0.176165
	C169	C	0.117864	0.617611	0.175872
	C170	C	0.118384	0.387457	0.821445
	C171	C	0.879586	0.618055	0.823736
	C172	C	0.176468	0.882483	0.383969
	C173	C	0.175450	0.122661	0.612642
	C174	C	0.821846	0.123106	0.384401
	C175	C	0.821027	0.884661	0.613102
	C176	C	0.384072	0.177784	0.880889
	C177	C	0.614369	0.179028	0.117264
	C178	C	0.383989	0.826954	0.116745
	C179	C	0.614606	0.825718	0.879110
	C180	C	0.384309	0.883297	0.175082
	C181	C	0.613873	0.122821	0.176276
	C182	C	0.384315	0.121347	0.822653
	C183	C	0.613818	0.881731	0.819842
	C184	C	0.880595	0.180187	0.384267
	C185	C	0.117450	0.179986	0.612903
	C186	C	0.117703	0.825705	0.384000
	C187	C	0.879229	0.827530	0.613393
	C188	C	0.174516	0.386425	0.880336
	C189	C	0.174194	0.618065	0.117469
	C190	C	0.823092	0.386532	0.117795
	C191	C	0.823550	0.618193	0.882210
	C192	C	0.399420	0.097747	0.599377
	C193	C	0.596466	0.907827	0.596435
	C194	C	0.597212	0.097175	0.399295
	C195	C	0.399918	0.908112	0.398723
	C196	C	0.598210	0.403046	0.092190
	C197	C	0.599734	0.601479	0.905391
	C198	C	0.398575	0.602474	0.092575
	C199	C	0.398325	0.402059	0.905171
	C200	C	0.093362	0.602265	0.398876
	C201	C	0.903895	0.603315	0.600126
	C202	C	0.093510	0.404824	0.598305
	C203	C	0.904440	0.404449	0.399726
	C204	C	0.899815	0.597137	0.099353
	C205	C	0.097657	0.407297	0.098555
	C206	C	0.098383	0.597420	0.899549
	C207	C	0.900631	0.407488	0.899145
	C208	C	0.098926	0.904048	0.592100
	C209	C	0.098985	0.102826	0.404303
	C210	C	0.897847	0.103734	0.592965
	C211	C	0.899144	0.903469	0.404870
	C212	C	0.593963	0.100382	0.898598
	C213	C	0.404983	0.100906	0.098451
	C214	C	0.594031	0.903769	0.097793
	C215	C	0.404828	0.902964	0.898421
	Zn216	Zn	0.498903	0.002144	0.748140
	Zn217	Zn	0.499019	0.002274	0.248594
	Zn218	Zn	0.750383	0.502238	-0.000810
	Zn219	Zn	0.247799	0.502509	-0.000717
	Zn220	Zn	-0.001163	0.752956	0.499042
	Zn221	Zn	-0.001028	0.254076	0.498809
	Zn222	Zn	-0.001262	0.503103	0.749530
	Zn223	Zn	-0.001157	0.502157	0.249019
	Zn224	Zn	0.499384	0.753045	-0.001399
	Zn225	Zn	0.499274	0.251338	-0.001199
	Zn226	Zn	0.747469	0.003530	0.498523
	Zn227	Zn	0.249489	0.003184	0.498378
	N228	N	0.412650	0.965372	0.677247
	N229	N	0.584415	0.038992	0.676913
	N230	N	0.585077	0.965183	0.319646
	N231	N	0.412313	0.039681	0.319179
	N232	N	0.678506	0.416148	0.961703
	N233	N	0.677685	0.587909	0.036614
	N234	N	0.320019	0.587946	0.961562
	N235	N	0.319707	0.416777	0.036551
	N236	N	0.960666	0.679533	0.415392
	N237	N	0.036561	0.681078	0.584259
	N238	N	0.961201	0.326493	0.583390
	N239	N	0.036837	0.326445	0.414430
	N240	N	0.961593	0.418010	0.677355
	N241	N	0.035244	0.590904	0.679710
	N242	N	0.961870	0.589380	0.319837
	N243	N	0.035716	0.416540	0.320080
	N244	N	0.413558	0.680878	0.961044
	N245	N	0.584667	0.681299	0.036262
	N246	N	0.584642	0.323544	0.961272
	N247	N	0.413045	0.323416	0.035998
	N248	N	0.676927	0.965434	0.412480
	N249	N	0.674497	0.040770	0.582812
	N250	N	0.321642	0.965278	0.583324
	N251	N	0.322186	0.041019	0.414502
	N252	N	0.912543	0.465198	0.178553
	N253	N	0.084663	0.539504	0.177733
	N254	N	0.085352	0.465703	0.819641
	N255	N	0.912826	0.539743	0.820947
	N256	N	0.178720	0.916438	0.461184
	N257	N	0.177553	0.089152	0.535111
	N258	N	0.819250	0.089923	0.461987
	N259	N	0.819177	0.917660	0.535650
	N260	N	0.461729	0.178816	0.914011
	N261	N	0.537094	0.179460	0.083332
	N262	N	0.461597	0.825830	0.082774
	N263	N	0.537141	0.825110	0.913323
	N264	N	0.462268	0.916445	0.177120
	N265	N	0.536069	0.089081	0.178425
	N266	N	0.462254	0.087919	0.820157
	N267	N	0.535860	0.915105	0.817886
	N268	N	0.913505	0.181950	0.461558
	N269	N	0.084104	0.181600	0.535770
	N270	N	0.084043	0.824733	0.461253
	N271	N	0.913117	0.825515	0.536157
	N272	N	0.175787	0.464261	0.914506
	N273	N	0.175107	0.540303	0.083461
	N274	N	0.822158	0.464331	0.084041
	N275	N	0.822670	0.540247	0.915278
	O276	O	-0.501010	0.495127	1.547534
	H277	H	-0.500846	0.492484	1.545071
	H278	H	-0.503382	0.483584	1.547115
	O279	O	0.476406	0.501601	0.525914
	H280	H	0.474796	0.501423	0.527411
	H281	H	0.480667	0.513507	0.530450
	O282	O	1.095220	-0.010260	-0.062171
	H283	H	1.097043	-0.010418	-0.064122
	H284	H	1.097993	-0.013727	-0.063732
	O285	O	0.518398	0.484527	0.524911
	H286	H	0.522071	0.478551	0.532773
	H287	H	0.516933	0.486244	0.518527
	O288	O	0.553373	0.485036	0.513093
	H289	H	0.544474	0.487107	0.508041
	H290	H	0.555210	0.488518	0.514650
	O291	O	0.110592	0.984644	0.949160
	H292	H	0.117024	0.987830	0.949042
	H293	H	0.112603	0.980105	0.946954
	O294	O	0.493434	0.487032	0.542952
	H295	H	0.496854	0.483111	0.552133
	H296	H	0.492760	0.490040	0.540037
	O297	O	1.083815	-0.029936	-0.062287
	H298	H	1.086048	-0.032834	-0.065228
	H299	H	1.082194	-0.028452	-0.062808
