data_Molecule from HDF5

_cell_length_a		16.234385
_cell_length_b		16.413801
_cell_length_c		16.371965
_cell_angle_alpha	89.988167
_cell_angle_beta	89.828320
_cell_angle_gamma	89.982787
_symmetry_space_group_name_H-M	'P 1'
_symmetry_Int_Tables_number		1

loop_
	_symmetry_equiv_pos_as_xyz
	x,y,z

loop_
	_atom_site_label
	_atom_site_type_symbol
	_atom_site_fract_x
	_atom_site_fract_y
	_atom_site_fract_z
	H0	H	0.380745	0.838252	0.717485
	H1	H	0.586652	0.159228	0.716011
	H2	H	0.591278	0.839827	0.275793
	H3	H	0.377854	0.156994	0.276103
	H4	H	0.704317	0.395451	0.836434
	H5	H	0.704505	0.603822	0.156824
	H6	H	0.268227	0.599065	0.834382
	H7	H	0.266437	0.399093	0.157188
	H8	H	0.823443	0.719415	0.391127
	H9	H	0.146111	0.715582	0.598821
	H10	H	0.822009	0.277877	0.602067
	H11	H	0.144840	0.280337	0.393491
	H12	H	0.822334	0.393344	0.717522
	H13	H	0.145634	0.599751	0.714334
	H14	H	0.822590	0.602724	0.276839
	H15	H	0.145896	0.398322	0.280409
	H16	H	0.379811	0.719682	0.836382
	H17	H	0.589462	0.719874	0.156304
	H18	H	0.589104	0.279779	0.835049
	H19	H	0.377744	0.278042	0.155230
	H20	H	0.703783	0.838372	0.394227
	H21	H	0.702651	0.158765	0.599999
	H22	H	0.266397	0.837381	0.599998
	H23	H	0.266417	0.158760	0.398114
	H24	H	0.878318	0.338098	0.217285
	H25	H	0.086432	0.657998	0.214819
	H26	H	0.086556	0.336472	0.778577
	H27	H	0.879201	0.656390	0.775248
	H28	H	0.205169	0.895290	0.337975
	H29	H	0.198164	0.096656	0.660390
	H30	H	0.765372	0.101002	0.336663
	H31	H	0.765608	0.897259	0.657747
	H32	H	0.322958	0.217402	0.892597
	H33	H	0.646022	0.218586	0.099698
	H34	H	0.321902	0.780775	0.100369
	H35	H	0.646203	0.781406	0.895156
	H36	H	0.322861	0.895886	0.216451
	H37	H	0.645909	0.102773	0.215738
	H38	H	0.322401	0.099917	0.779720
	H39	H	0.646352	0.897872	0.779835
	H40	H	0.878301	0.217868	0.336751
	H41	H	0.086885	0.217883	0.657225
	H42	H	0.090172	0.778891	0.336770
	H43	H	0.877793	0.776394	0.655686
	H44	H	0.201482	0.336401	0.895813
	H45	H	0.199008	0.660323	0.094958
	H46	H	0.763196	0.338733	0.100647
	H47	H	0.767699	0.658555	0.894828
	H48	H	0.393614	0.111671	0.588162
	H49	H	0.579435	0.881297	0.592073
	H50	H	0.574860	0.114199	0.403975
	H51	H	0.396644	0.883991	0.404369
	H52	H	0.570939	0.409326	0.109364
	H53	H	0.583111	0.585345	0.881502
	H54	H	0.392690	0.588174	0.109993
	H55	H	0.391736	0.411269	0.881270
	H56	H	0.098747	0.585286	0.404131
	H57	H	0.866787	0.593321	0.587485
	H58	H	0.100180	0.405261	0.589511
	H59	H	0.867277	0.406073	0.410619
	H60	H	0.098018	0.404420	0.583513
	H61	H	0.871645	0.585882	0.578014
	H62	H	0.100480	0.590554	0.403286
	H63	H	0.868580	0.411477	0.406286
	H64	H	0.394804	0.590796	0.110038
	H65	H	0.567112	0.585115	0.886649
	H66	H	0.571520	0.406744	0.109714
	H67	H	0.399197	0.407497	0.882501
	H68	H	0.568963	0.110323	0.406591
	H69	H	0.567977	0.885265	0.592455
	H70	H	0.390362	0.113759	0.589558
	H71	H	0.395763	0.885531	0.408944
	H72	H	0.894769	0.611548	0.084961
	H73	H	0.071470	0.383013	0.092428
	H74	H	0.071508	0.611118	0.904611
	H75	H	0.895091	0.382953	0.906323
	H76	H	0.071197	0.904924	0.611039
	H77	H	0.077453	0.085479	0.383474
	H78	H	0.900970	0.089034	0.609160
	H79	H	0.899321	0.908525	0.384271
	H80	H	0.599163	0.090990	0.910873
	H81	H	0.371991	0.085715	0.082856
	H82	H	0.600927	0.905591	0.087548
	H83	H	0.370645	0.914759	0.907939
	H84	H	0.599064	0.906902	0.083880
	H85	H	0.369212	0.086131	0.090151
	H86	H	0.598939	0.085873	0.906082
	H87	H	0.365210	0.905448	0.901515
	H88	H	0.891812	0.093249	0.613288
	H89	H	0.070236	0.089276	0.383936
	H90	H	0.075032	0.904722	0.612828
	H91	H	0.895405	0.905029	0.382110
	H92	H	0.077831	0.612451	0.906061
	H93	H	0.074051	0.385005	0.083396
	H94	H	0.894258	0.612521	0.089189
	H95	H	0.896409	0.384022	0.907507
	H96	H	0.394016	0.112917	0.591088
	H97	H	0.574538	0.886663	0.582132
	H98	H	0.575456	0.111945	0.410132
	H99	H	0.392505	0.883252	0.406902
	H100	H	0.574023	0.408787	0.109968
	H101	H	0.572912	0.599181	0.879632
	H102	H	0.391213	0.591004	0.111588
	H103	H	0.392644	0.403067	0.879690
	H104	H	0.098677	0.589399	0.408292
	H105	H	0.870391	0.580530	0.589878
	H106	H	0.097588	0.410215	0.585883
	H107	H	0.866280	0.405283	0.403437
	H108	H	0.897347	0.610442	0.087509
	H109	H	0.080675	0.381332	0.089519
	H110	H	0.076236	0.613707	0.899770
	H111	H	0.894415	0.383837	0.907980
	H112	H	0.073484	0.908323	0.611581
	H113	H	0.076910	0.093181	0.381169
	H114	H	0.891851	0.082785	0.610300
	H115	H	0.893461	0.910853	0.382996
	H116	H	0.601569	0.091729	0.903714
	H117	H	0.368491	0.092388	0.085514
	H118	H	0.598930	0.909981	0.087207
	H119	H	0.368915	0.903859	0.913157
	C120	C	0.362161	0.006602	0.620265
	C121	C	0.605263	0.990259	0.619219
	C122	C	0.605560	0.006740	0.375722
	C123	C	0.363023	0.989796	0.376282
	C124	C	0.604676	0.377125	0.004264
	C125	C	0.605932	0.620962	0.988258
	C126	C	0.362199	0.620974	0.004461
	C127	C	0.362680	0.376614	0.987308
	C128	C	-0.007236	0.619856	0.374322
	C129	C	0.975983	0.617726	0.616705
	C130	C	-0.008196	0.375628	0.617945
	C131	C	0.974530	0.377302	0.375933
	C132	C	0.862463	0.506373	0.119028
	C133	C	0.105645	0.489701	0.117750
	C134	C	0.105846	0.505789	0.873905
	C135	C	0.863651	0.489163	0.875805
	C136	C	0.105672	0.875626	0.505763
	C137	C	0.105137	0.119511	0.489114
	C138	C	0.862786	0.119958	0.505478
	C139	C	0.863219	0.876611	0.488544
	C140	C	0.493136	0.119883	0.875678
	C141	C	0.476037	0.119962	0.117778
	C142	C	0.492852	0.876765	0.118307
	C143	C	0.475455	0.877278	0.876284
	C144	C	0.361514	0.886177	0.678434
	C145	C	0.605827	0.111031	0.677129
	C146	C	0.608609	0.887231	0.315900
	C147	C	0.360442	0.109531	0.316803
	C148	C	0.664461	0.376522	0.883865
	C149	C	0.665137	0.622285	0.108671
	C150	C	0.305936	0.619830	0.883113
	C151	C	0.304637	0.378176	0.108699
	C152	C	0.871600	0.679567	0.372855
	C153	C	0.097580	0.676415	0.618094
	C154	C	0.870288	0.317416	0.619879
	C155	C	0.096426	0.319444	0.374630
	C156	C	0.870503	0.374838	0.677562
	C157	C	0.097457	0.618505	0.675175
	C158	C	0.871157	0.621594	0.315814
	C159	C	0.096921	0.377868	0.318353
	C160	C	0.361626	0.679640	0.884174
	C161	C	0.607815	0.680198	0.108473
	C162	C	0.607148	0.318601	0.883678
	C163	C	0.360127	0.318274	0.107744
	C164	C	0.664873	0.886565	0.374922
	C165	C	0.663396	0.110993	0.618905
	C166	C	0.304470	0.885720	0.620179
	C167	C	0.304797	0.110613	0.377356
	C168	C	0.859969	0.385969	0.177918
	C169	C	0.105251	0.610499	0.175115
	C170	C	0.105643	0.384629	0.817433
	C171	C	0.860996	0.608843	0.815564
	C172	C	0.165216	0.876089	0.385597
	C173	C	0.160968	0.117607	0.611394
	C174	C	0.804196	0.120377	0.384727
	C175	C	0.804499	0.877076	0.609437
	C176	C	0.371147	0.177952	0.874692
	C177	C	0.597397	0.179329	0.118828
	C178	C	0.370594	0.819603	0.119349
	C179	C	0.597678	0.820396	0.876128
	C180	C	0.371246	0.876846	0.177152
	C181	C	0.597598	0.121652	0.176525
	C182	C	0.370906	0.119842	0.818134
	C183	C	0.597876	0.878344	0.818985
	C184	C	0.860175	0.178964	0.385187
	C185	C	0.105410	0.177647	0.609773
	C186	C	0.108289	0.817725	0.385090
	C187	C	0.860719	0.817478	0.608429
	C188	C	0.163079	0.384643	0.875485
	C189	C	0.161604	0.611321	0.115615
	C190	C	0.802678	0.386471	0.119887
	C191	C	0.805503	0.609901	0.875232
	C192	C	0.385693	0.090768	0.596510
	C193	C	0.580925	0.906178	0.595651
	C194	C	0.580390	0.090383	0.400097
	C195	C	0.387528	0.906149	0.399955
	C196	C	0.579411	0.401411	0.087924
	C197	C	0.581503	0.596767	0.904391
	C198	C	0.386109	0.597088	0.088799
	C199	C	0.387265	0.400424	0.902982
	C200	C	0.077252	0.595353	0.398176
	C201	C	0.891662	0.593598	0.592197
	C202	C	0.076662	0.399683	0.593477
	C203	C	0.889480	0.400761	0.399826
	C204	C	0.888088	0.589801	0.094419
	C205	C	0.082249	0.405138	0.095055
	C206	C	0.082197	0.590379	0.896769
	C207	C	0.888352	0.405341	0.900220
	C208	C	0.080458	0.899208	0.589861
	C209	C	0.081805	0.096174	0.404945
	C210	C	0.887699	0.095521	0.589199
	C211	C	0.888601	0.901055	0.404859
	C212	C	0.577612	0.096237	0.899663
	C213	C	0.391907	0.095257	0.093386
	C214	C	0.577581	0.900622	0.093448
	C215	C	0.390307	0.901032	0.900389
	Zn216	Zn	0.484370	-0.001305	0.748023
	Zn217	Zn	0.484817	-0.001348	0.246215
	Zn218	Zn	0.734215	0.498514	-0.003177
	Zn219	Zn	0.234107	0.498386	-0.004399
	Zn220	Zn	-0.015312	0.746876	0.496616
	Zn221	Zn	-0.016625	0.248503	0.496180
	Zn222	Zn	-0.016087	0.497085	0.745747
	Zn223	Zn	-0.016376	0.497430	0.247110
	Zn224	Zn	0.483989	0.748833	-0.002788
	Zn225	Zn	0.484142	0.248392	-0.003927
	Zn226	Zn	0.734460	-0.001081	0.496972
	Zn227	Zn	0.233909	-0.002034	0.498848
	N228	N	0.396578	0.962304	0.678617
	N229	N	0.570661	0.034918	0.677473
	N230	N	0.572588	0.963048	0.316182
	N231	N	0.395711	0.033447	0.315830
	N232	N	0.663275	0.412349	0.959779
	N233	N	0.663967	0.585779	0.033031
	N234	N	0.306105	0.583948	0.958812
	N235	N	0.306168	0.413719	0.032639
	N236	N	0.948193	0.678668	0.408437
	N237	N	0.021151	0.675994	0.582416
	N238	N	0.946719	0.317755	0.583661
	N239	N	0.019385	0.319031	0.409781
	N240	N	0.947173	0.410414	0.676371
	N241	N	0.020792	0.582778	0.674600
	N242	N	0.947358	0.585149	0.316447
	N243	N	0.020083	0.413120	0.319074
	N244	N	0.395731	0.680440	0.960983
	N245	N	0.571471	0.679075	0.032868
	N246	N	0.570773	0.318834	0.959643
	N247	N	0.395301	0.317241	0.031259
	N248	N	0.663187	0.962087	0.411372
	N249	N	0.663357	0.034940	0.583615
	N250	N	0.304622	0.961691	0.584837
	N251	N	0.306082	0.035107	0.413584
	N252	N	0.896200	0.461675	0.177640
	N253	N	0.071195	0.533868	0.176611
	N254	N	0.071170	0.461199	0.816015
	N255	N	0.896333	0.532664	0.815798
	N256	N	0.163969	0.911239	0.461735
	N257	N	0.160794	0.081871	0.535429
	N258	N	0.805506	0.084379	0.460528
	N259	N	0.805962	0.913176	0.533734
	N260	N	0.447883	0.178183	0.909764
	N261	N	0.520823	0.178586	0.083136
	N262	N	0.447160	0.819217	0.083777
	N263	N	0.520479	0.819588	0.910769
	N264	N	0.448409	0.911558	0.176720
	N265	N	0.521156	0.085573	0.176089
	N266	N	0.447535	0.084321	0.818750
	N267	N	0.520700	0.913014	0.818967
	N268	N	0.896012	0.178744	0.461202
	N269	N	0.071460	0.178944	0.532937
	N270	N	0.071575	0.817763	0.460801
	N271	N	0.896443	0.817020	0.532241
	N272	N	0.163306	0.461088	0.909810
	N273	N	0.162152	0.535019	0.080935
	N274	N	0.803676	0.462457	0.084450
	N275	N	0.807001	0.534461	0.911909
	O276	O	1.058445	-0.027827	0.051590
	H277	H	1.050364	-0.026315	0.060805
	H278	H	1.048220	-0.038964	0.054157
	O279	O	0.456839	0.514666	0.572596
	H280	H	0.457500	0.516894	0.566957
	H281	H	0.449324	0.517778	0.572070
	O282	O	0.687373	0.473127	0.285000
	H283	H	0.694759	0.486590	0.269465
	H284	H	0.684328	0.485437	0.273983
	O285	O	0.909657	0.065632	-0.123095
	H286	H	0.935538	0.069873	-0.119578
	H287	H	0.917645	0.063860	-0.120132
	O288	O	-0.102116	0.031388	1.085710
	H289	H	-0.101158	0.030487	1.076349
	H290	H	-0.111779	0.020783	1.076385
	O291	O	0.654838	0.316614	0.331232
	H292	H	0.669145	0.317969	0.366974
	H293	H	0.669071	0.354173	0.330889
	O294	O	0.496258	0.291867	0.296412
	H295	H	0.526490	0.284721	0.294929
	H296	H	0.522722	0.285341	0.282917
	O297	O	1.007838	0.897143	0.893029
	H298	H	1.013231	0.897911	0.884293
	H299	H	1.003426	0.892436	0.882964
	O300	O	-0.158319	-0.179820	0.104380
	H301	H	-0.160835	-0.173639	0.110562
	H302	H	-0.150617	-0.184857	0.089628
	O303	O	0.521976	0.383115	0.669932
	H304	H	0.511274	0.396859	0.649773
	H305	H	0.532471	0.385114	0.693418
	O306	O	0.881788	0.044506	-0.085229
	H307	H	0.879154	0.058769	-0.083880
	H308	H	0.876507	0.041323	-0.087831
	O309	O	0.718987	0.724339	0.713572
	H310	H	0.740603	0.737728	0.700589
	H311	H	0.706405	0.721530	0.696764
	O312	O	0.911626	1.148263	-0.164368
	H313	H	0.917348	1.148737	-0.156587
	H314	H	0.919579	1.139700	-0.175084
	O315	O	1.028745	-0.019008	0.000286
	H316	H	1.008498	-0.020067	0.002074
	H317	H	1.042896	-0.024253	-0.004109
	O318	O	0.367273	0.626340	0.486740
	H319	H	0.353101	0.636076	0.463698
	H320	H	0.380656	0.629719	0.489966
	O321	O	1.078500	0.074184	1.066336
	H322	H	1.076089	0.077099	1.082243
	H323	H	1.079788	0.062198	1.065696
	O324	O	-0.031882	-0.001840	0.937887
	H325	H	-0.035523	-0.000005	0.934315
	H326	H	-0.037118	0.001989	0.944386
	O327	O	0.323250	0.406723	0.452850
	H328	H	0.318123	0.420146	0.466642
	H329	H	0.339774	0.391290	0.468137
	O330	O	0.679310	0.336282	0.507068
	H331	H	0.678434	0.358035	0.537014
	H332	H	0.691409	0.329947	0.511954
	O333	O	1.679207	1.485635	0.646368
	H334	H	1.669139	1.500546	0.645520
	H335	H	1.678624	1.499969	0.665689
	O336	O	0.302515	0.672260	0.309679
	H337	H	0.297425	0.647207	0.304132
	H338	H	0.289090	0.654527	0.321561
	O339	O	1.146864	0.003914	1.166785
	H340	H	1.134573	0.023374	1.179752
	H341	H	1.149466	0.009371	1.172552
	O342	O	-0.127553	0.947172	0.875904
	H343	H	-0.109513	0.951532	0.888410
	H344	H	-0.118533	0.944598	0.872585
	O345	O	0.417328	0.422443	1.554455
	H346	H	0.410349	0.430231	1.540570
	H347	H	0.409204	0.411141	1.557859
	O348	O	0.353765	0.418776	0.313660
	H349	H	0.379012	0.403292	0.316496
	H350	H	0.348072	0.405690	0.331467
	O351	O	0.114436	0.073311	0.055797
	H352	H	0.114611	0.081711	0.044414
	H353	H	0.119722	0.058825	0.059780
	O354	O	1.091706	1.154316	-0.071682
	H355	H	1.094807	1.164114	-0.066717
	H356	H	1.089090	1.139683	-0.067344
	O357	O	0.022838	0.936614	-0.013807
	H358	H	0.039461	0.947813	-0.008977
	H359	H	0.026859	0.943871	-0.010930
	O360	O	0.528802	0.677541	0.455103
	H361	H	0.529277	0.676300	0.458744
	H362	H	0.519940	0.672517	0.444958
	O363	O	0.289456	0.459396	0.484549
	H364	H	0.300038	0.452367	0.488283
	H365	H	0.287528	0.461511	0.501811
	O366	O	-0.116198	0.941193	0.156832
	H367	H	-0.128634	0.910858	0.170565
	H368	H	-0.131676	0.939253	0.158419
	O369	O	0.457476	0.439642	0.349992
	H370	H	0.463431	0.440799	0.350977
	H371	H	0.468981	0.439653	0.334886
	O372	O	0.498467	0.286789	0.502230
	H373	H	0.520771	0.292154	0.503065
	H374	H	0.500708	0.284454	0.503483
	O375	O	0.465642	0.707357	0.289925
	H376	H	0.439663	0.717793	0.283476
	H377	H	0.441208	0.710848	0.279118
	O378	O	0.369043	0.495292	0.478306
	H379	H	0.362465	0.493772	0.474098
	H380	H	0.379748	0.481690	0.489476
	O381	O	0.511681	0.668862	0.703478
	H382	H	0.502061	0.688501	0.720831
	H383	H	0.534479	0.659949	0.695464
	O384	O	-0.025954	0.821005	1.104963
	H385	H	-0.011079	0.822781	1.103775
	H386	H	-0.008772	0.826101	1.124455
	O387	O	1.057779	1.052189	0.000995
	H388	H	1.073817	1.055009	0.006916
	H389	H	1.069006	1.054916	0.002399
	O390	O	0.591767	0.597894	0.494105
	H391	H	0.599261	0.587931	0.495105
	H392	H	0.574967	0.599797	0.486842
	O393	O	1.104650	-0.023216	1.059087
	H394	H	1.099092	-0.029630	1.056394
	H395	H	1.116412	-0.016547	1.056158
	O396	O	-0.076830	1.017719	0.915517
	H397	H	-0.083004	1.015137	0.916114
	H398	H	-0.085279	1.031940	0.918119
	O399	O	0.623306	0.599804	1.380969
	H400	H	0.603409	0.599936	1.389104
	H401	H	0.612305	0.606627	1.372053
	O402	O	1.030225	-0.113118	0.891408
	H403	H	1.040663	-0.104684	0.887096
	H404	H	1.043207	-0.123387	0.885433
	O405	O	-0.179018	0.221200	-0.193032
	H406	H	-0.182559	0.224842	-0.187319
	H407	H	-0.163302	0.216116	-0.203842
	O408	O	0.783935	0.949962	1.133418
	H409	H	0.768176	0.938422	1.138144
	H410	H	0.786375	0.956822	1.137604
	O411	O	1.302773	1.322285	-0.391468
	H412	H	1.288642	1.303299	-0.379198
	H413	H	1.325680	1.325209	-0.409212
	O414	O	0.518476	-0.554086	1.642509
	H415	H	0.517156	-0.548353	1.652989
	H416	H	0.512177	-0.549147	1.644471
	O417	O	0.336566	0.566482	0.609936
	H418	H	0.336887	0.555691	0.628229
	H419	H	0.339762	0.560897	0.611317
	O420	O	0.143585	1.135814	0.142332
	H421	H	0.140211	1.141873	0.138153
	H422	H	0.120647	1.142514	0.145581
	O423	O	1.035064	-0.084891	-0.090508
	H424	H	1.043278	-0.076305	-0.088206
	H425	H	1.030317	-0.076493	-0.087497
	O426	O	0.681666	0.697525	1.542684
	H427	H	0.681231	0.694743	1.528551
	H428	H	0.685391	0.703772	1.525445
	O429	O	0.341761	0.554563	0.642014
	H430	H	0.340430	0.542495	0.636763
	H431	H	0.347275	0.550324	0.631386
