data_Molecule from HDF5

_cell_length_a		16.291301
_cell_length_b		16.282506
_cell_length_c		16.236950
_cell_angle_alpha	90.143764
_cell_angle_beta	89.850205
_cell_angle_gamma	90.095601
_symmetry_space_group_name_H-M	'P 1'
_symmetry_Int_Tables_number		1

loop_
	_symmetry_equiv_pos_as_xyz
	x,y,z

loop_
	_atom_site_label
	_atom_site_type_symbol
	_atom_site_fract_x
	_atom_site_fract_y
	_atom_site_fract_z
	H0	H	0.399719	0.840997	0.714425
	H1	H	0.595692	0.169472	0.715119
	H2	H	0.595800	0.841385	0.286366
	H3	H	0.399329	0.168306	0.285580
	H4	H	0.711887	0.406677	0.836027
	H5	H	0.711249	0.604336	0.164228
	H6	H	0.285517	0.601773	0.835339
	H7	H	0.282404	0.407918	0.164880
	H8	H	0.834227	0.719517	0.402540
	H9	H	0.161925	0.720972	0.597879
	H10	H	0.834282	0.291265	0.599136
	H11	H	0.161856	0.290766	0.399904
	H12	H	0.833953	0.408199	0.714094
	H13	H	0.161888	0.605105	0.714041
	H14	H	0.834477	0.604048	0.286117
	H15	H	0.161817	0.409220	0.285537
	H16	H	0.400493	0.718535	0.835913
	H17	H	0.593814	0.718920	0.164942
	H18	H	0.595490	0.290842	0.836559
	H19	H	0.398724	0.292927	0.165677
	H20	H	0.712194	0.841495	0.401162
	H21	H	0.712718	0.168741	0.600283
	H22	H	0.281961	0.841770	0.599818
	H23	H	0.284905	0.168904	0.402313
	H24	H	0.899046	0.342170	0.213614
	H25	H	0.095647	0.669911	0.213425
	H26	H	0.096295	0.341678	0.785247
	H27	H	0.901513	0.669459	0.787889
	H28	H	0.212290	0.907712	0.336048
	H29	H	0.212028	0.104507	0.664265
	H30	H	0.783993	0.102862	0.336234
	H31	H	0.783544	0.907380	0.664628
	H32	H	0.334189	0.219714	0.902937
	H33	H	0.661034	0.221434	0.099924
	H34	H	0.333757	0.791210	0.098911
	H35	H	0.661341	0.791064	0.901119
	H36	H	0.334325	0.907448	0.214708
	H37	H	0.662408	0.102865	0.213927
	H38	H	0.334092	0.103308	0.787044
	H39	H	0.661040	0.907856	0.786361
	H40	H	0.901039	0.218767	0.335377
	H41	H	0.096115	0.221101	0.663820
	H42	H	0.095666	0.791885	0.335474
	H43	H	0.899239	0.792545	0.664476
	H44	H	0.212213	0.342049	0.900739
	H45	H	0.212262	0.669183	0.098034
	H46	H	0.783807	0.341482	0.097215
	H47	H	0.784026	0.668953	0.902008
	H48	H	0.410397	0.119822	0.594944
	H49	H	0.598488	0.888301	0.588189
	H50	H	0.602411	0.123414	0.413423
	H51	H	0.399032	0.885520	0.404647
	H52	H	0.594168	0.422090	0.115963
	H53	H	0.588490	0.597157	0.884083
	H54	H	0.401022	0.600744	0.118695
	H55	H	0.396291	0.410747	0.881402
	H56	H	0.114551	0.595234	0.402715
	H57	H	0.879033	0.611394	0.590128
	H58	H	0.114274	0.418922	0.598014
	H59	H	0.883876	0.413772	0.412129
	H60	H	0.117013	0.405839	0.593494
	H61	H	0.885918	0.591603	0.587225
	H62	H	0.116690	0.604525	0.404809
	H63	H	0.881703	0.415220	0.402480
	H64	H	0.402951	0.594117	0.116226
	H65	H	0.591031	0.602461	0.882302
	H66	H	0.581686	0.412388	0.115023
	H67	H	0.407315	0.418745	0.886668
	H68	H	0.589931	0.124455	0.396579
	H69	H	0.593004	0.885655	0.602221
	H70	H	0.402339	0.120731	0.589184
	H71	H	0.409907	0.888760	0.403627
	H72	H	0.903869	0.621799	0.092413
	H73	H	0.089421	0.390704	0.085568
	H74	H	0.092024	0.622350	0.907442
	H75	H	0.907238	0.390951	0.911289
	H76	H	0.079217	0.912710	0.613362
	H77	H	0.095500	0.097643	0.381678
	H78	H	0.910811	0.100503	0.616267
	H79	H	0.910063	0.912616	0.385223
	H80	H	0.613114	0.098357	0.909794
	H81	H	0.380621	0.099921	0.095476
	H82	H	0.613464	0.909863	0.089233
	H83	H	0.383154	0.916490	0.909713
	H84	H	0.613892	0.915599	0.093956
	H85	H	0.382052	0.098660	0.091970
	H86	H	0.614462	0.097330	0.906260
	H87	H	0.379200	0.911281	0.902242
	H88	H	0.900998	0.104014	0.618794
	H89	H	0.089212	0.095661	0.384944
	H90	H	0.096024	0.904621	0.621618
	H91	H	0.902442	0.908260	0.381612
	H92	H	0.093855	0.622864	0.905695
	H93	H	0.096400	0.387110	0.094658
	H94	H	0.902810	0.623213	0.093167
	H95	H	0.898006	0.387020	0.906903
	H96	H	0.402161	0.123862	0.599197
	H97	H	0.583433	0.891701	0.591418
	H98	H	0.582510	0.117208	0.414863
	H99	H	0.404161	0.890695	0.413067
	H100	H	0.595642	0.406366	0.120489
	H101	H	0.594685	0.596961	0.882728
	H102	H	0.408055	0.600127	0.116538
	H103	H	0.409948	0.404685	0.883790
	H104	H	0.112584	0.598835	0.411209
	H105	H	0.878765	0.597291	0.606480
	H106	H	0.112142	0.415318	0.584603
	H107	H	0.879545	0.406409	0.406424
	H108	H	0.904089	0.622544	0.094451
	H109	H	0.084790	0.390543	0.095853
	H110	H	0.091105	0.622739	0.904416
	H111	H	0.907194	0.387489	0.900717
	H112	H	0.095762	0.924028	0.615161
	H113	H	0.090873	0.102231	0.382779
	H114	H	0.902514	0.093973	0.616219
	H115	H	0.902712	0.917253	0.383589
	H116	H	0.615028	0.100852	0.907550
	H117	H	0.381539	0.095997	0.095486
	H118	H	0.616023	0.908977	0.096502
	H119	H	0.380620	0.906762	0.910909
	C120	C	0.375819	0.013415	0.622785
	C121	C	0.619526	0.996863	0.622468
	C122	C	0.619564	0.013422	0.379274
	C123	C	0.376631	0.996504	0.378991
	C124	C	0.618999	0.384420	0.008662
	C125	C	0.619413	0.627376	0.991878
	C126	C	0.376272	0.626559	0.008558
	C127	C	0.375589	0.383911	0.992394
	C128	C	0.006317	0.627602	0.378376
	C129	C	0.989877	0.628169	0.622186
	C130	C	0.005812	0.385016	0.620835
	C131	C	0.989799	0.383655	0.377882
	C132	C	0.875613	0.514334	0.121557
	C133	C	0.118771	0.497515	0.120799
	C134	C	0.120098	0.514331	0.877502
	C135	C	0.876494	0.496989	0.878641
	C136	C	0.119159	0.884821	0.508507
	C137	C	0.119945	0.127238	0.491581
	C138	C	0.876697	0.127297	0.508428
	C139	C	0.876573	0.884364	0.492000
	C140	C	0.505902	0.126714	0.879491
	C141	C	0.489590	0.127040	0.123219
	C142	C	0.506408	0.883009	0.122060
	C143	C	0.489289	0.883534	0.879101
	C144	C	0.378400	0.890043	0.677395
	C145	C	0.616585	0.120285	0.677500
	C146	C	0.616731	0.890423	0.323734
	C147	C	0.379442	0.119722	0.323837
	C148	C	0.673916	0.386388	0.885127
	C149	C	0.673553	0.624716	0.115275
	C150	C	0.322547	0.622901	0.884554
	C151	C	0.320312	0.387339	0.115995
	C152	C	0.883039	0.681813	0.381653
	C153	C	0.112916	0.683157	0.618692
	C154	C	0.883151	0.329167	0.619310
	C155	C	0.113057	0.328922	0.380110
	C156	C	0.883055	0.387353	0.676628
	C157	C	0.112903	0.625767	0.676651
	C158	C	0.883262	0.624770	0.323502
	C159	C	0.113182	0.387492	0.323128
	C160	C	0.379645	0.680892	0.884859
	C161	C	0.615318	0.681680	0.115639
	C162	C	0.616155	0.328642	0.885408
	C163	C	0.378245	0.330195	0.116378
	C164	C	0.674708	0.890470	0.380839
	C165	C	0.674537	0.120113	0.620301
	C166	C	0.320265	0.890459	0.620009
	C167	C	0.322272	0.119942	0.381804
	C168	C	0.878595	0.390945	0.175809
	C169	C	0.116405	0.620854	0.175806
	C170	C	0.116761	0.390706	0.823018
	C171	C	0.880339	0.620468	0.824892
	C172	C	0.174610	0.886711	0.384875
	C173	C	0.174284	0.124896	0.615255
	C174	C	0.821898	0.123899	0.385162
	C175	C	0.821768	0.887330	0.615661
	C176	C	0.382909	0.181753	0.882351
	C177	C	0.612367	0.183164	0.120654
	C178	C	0.382895	0.828526	0.119774
	C179	C	0.612445	0.829083	0.881518
	C180	C	0.383208	0.886261	0.177302
	C181	C	0.613081	0.124332	0.177153
	C182	C	0.382921	0.123694	0.824684
	C183	C	0.612475	0.886871	0.824263
	C184	C	0.879781	0.181344	0.384626
	C185	C	0.116804	0.182686	0.615081
	C186	C	0.116662	0.829622	0.384652
	C187	C	0.879067	0.830053	0.615540
	C188	C	0.174462	0.390777	0.880379
	C189	C	0.174281	0.620554	0.118651
	C190	C	0.821241	0.390686	0.118167
	C191	C	0.822294	0.620345	0.881804
	C192	C	0.398275	0.099294	0.600878
	C193	C	0.598000	0.910765	0.600382
	C194	C	0.597820	0.099457	0.401601
	C195	C	0.398102	0.910615	0.400792
	C196	C	0.596919	0.407048	0.094947
	C197	C	0.597887	0.605315	0.905329
	C198	C	0.397760	0.604648	0.094875
	C199	C	0.397796	0.405191	0.906247
	C200	C	0.092339	0.605915	0.399838
	C201	C	0.903532	0.606540	0.600797
	C202	C	0.092125	0.406904	0.598545
	C203	C	0.904072	0.405541	0.400278
	C204	C	0.897199	0.600299	0.099968
	C205	C	0.096613	0.411552	0.098612
	C206	C	0.098790	0.600355	0.899425
	C207	C	0.897801	0.410729	0.899962
	C208	C	0.096849	0.907245	0.594498
	C209	C	0.098417	0.105007	0.405399
	C210	C	0.898339	0.105865	0.594889
	C211	C	0.898502	0.906184	0.405815
	C212	C	0.592071	0.105118	0.901315
	C213	C	0.403694	0.104882	0.100948
	C214	C	0.592389	0.904967	0.099860
	C215	C	0.403121	0.905127	0.901058
	Zn216	Zn	0.497644	0.004863	0.750965
	Zn217	Zn	0.498250	0.005094	0.250475
	Zn218	Zn	0.748074	0.505752	0.000081
	Zn219	Zn	0.247707	0.505702	0.000114
	Zn220	Zn	-0.002135	0.756344	0.499845
	Zn221	Zn	-0.002149	0.255662	0.499561
	Zn222	Zn	-0.001787	0.505691	0.750019
	Zn223	Zn	-0.002150	0.505871	0.249669
	Zn224	Zn	0.497427	0.755072	0.000125
	Zn225	Zn	0.497322	0.255642	0.001670
	Zn226	Zn	0.748109	0.005250	0.500804
	Zn227	Zn	0.247882	0.005369	0.500258
	N228	N	0.412236	0.967552	0.679261
	N229	N	0.583050	0.042685	0.678887
	N230	N	0.583106	0.967793	0.322963
	N231	N	0.412522	0.042157	0.321839
	N232	N	0.675714	0.420308	0.962667
	N233	N	0.676031	0.591501	0.037195
	N234	N	0.320440	0.589926	0.962466
	N235	N	0.318550	0.420080	0.037929
	N236	N	0.960525	0.683640	0.415025
	N237	N	0.035222	0.684808	0.585566
	N238	N	0.960681	0.327680	0.585170
	N239	N	0.035350	0.326453	0.413382
	N240	N	0.960260	0.421412	0.677243
	N241	N	0.035277	0.592446	0.679090
	N242	N	0.960790	0.591475	0.321490
	N243	N	0.035686	0.420752	0.321606
	N244	N	0.412226	0.683365	0.962922
	N245	N	0.582374	0.683362	0.037801
	N246	N	0.582766	0.327307	0.963432
	N247	N	0.411901	0.327830	0.038707
	N248	N	0.676692	0.968101	0.414822
	N249	N	0.676728	0.042470	0.586829
	N250	N	0.318595	0.968197	0.587018
	N251	N	0.320393	0.042428	0.415345
	N252	N	0.911802	0.468672	0.177962
	N253	N	0.082390	0.543592	0.176955
	N254	N	0.083887	0.468500	0.820997
	N255	N	0.913786	0.542773	0.823195
	N256	N	0.176275	0.920184	0.462671
	N257	N	0.176486	0.091262	0.537427
	N258	N	0.819613	0.091227	0.463322
	N259	N	0.820136	0.920545	0.537842
	N260	N	0.460260	0.183558	0.915780
	N261	N	0.534528	0.184804	0.087790
	N262	N	0.460440	0.826299	0.086219
	N263	N	0.534616	0.826888	0.914767
	N264	N	0.460876	0.919676	0.178526
	N265	N	0.535861	0.090108	0.178683
	N266	N	0.460533	0.090249	0.822973
	N267	N	0.535062	0.920049	0.822789
	N268	N	0.913226	0.183325	0.462268
	N269	N	0.083748	0.184350	0.537193
	N270	N	0.082662	0.828429	0.462363
	N271	N	0.912429	0.828046	0.537690
	N272	N	0.176886	0.468579	0.913478
	N273	N	0.175650	0.542932	0.084909
	N274	N	0.819261	0.468332	0.085239
	N275	N	0.819830	0.542653	0.914436
	O276	O	0.042133	-0.006316	0.977356
	H277	H	0.037822	-0.013534	0.973802
	H278	H	0.046486	-0.002609	0.970540
	O279	O	0.522803	0.436282	0.554960
	H280	H	0.530445	0.437844	0.561889
	H281	H	0.523996	0.434050	0.549097
	O282	O	0.744822	0.244470	0.293828
	H283	H	0.750942	0.247254	0.295781
	H284	H	0.749715	0.238749	0.295389
	O285	O	0.536402	0.417251	0.498769
	H286	H	0.534856	0.418220	0.504191
	H287	H	0.544872	0.417549	0.505936
	O288	O	0.518465	0.426495	0.473766
	H289	H	0.511582	0.419064	0.466292
	H290	H	0.512831	0.423130	0.469199
	O291	O	0.043232	0.990606	1.005914
	H292	H	0.038533	0.987415	1.010146
	H293	H	0.046248	0.985090	1.005967
	O294	O	0.535111	0.440363	0.484942
	H295	H	0.529145	0.443371	0.484321
	H296	H	0.536301	0.440981	0.480894
	O297	O	1.044817	0.018783	-0.038186
	H298	H	1.047530	0.019311	-0.046072
	H299	H	1.046677	0.013252	-0.028166
