data_Molecule from HDF5

_cell_length_a		16.348949
_cell_length_b		16.212293
_cell_length_c		16.034513
_cell_angle_alpha	90.113503
_cell_angle_beta	89.777019
_cell_angle_gamma	89.376913
_symmetry_space_group_name_H-M	'P 1'
_symmetry_Int_Tables_number		1

loop_
	_symmetry_equiv_pos_as_xyz
	x,y,z

loop_
	_atom_site_label
	_atom_site_type_symbol
	_atom_site_fract_x
	_atom_site_fract_y
	_atom_site_fract_z
	H0	H	0.394779	0.839644	0.718035
	H1	H	0.582036	0.170628	0.716230
	H2	H	0.588048	0.840084	0.292928
	H3	H	0.393943	0.172553	0.296018
	H4	H	0.708557	0.404522	0.840446
	H5	H	0.705276	0.605924	0.170311
	H6	H	0.277360	0.610097	0.840358
	H7	H	0.278306	0.407394	0.168965
	H8	H	0.827228	0.723576	0.405931
	H9	H	0.152381	0.720598	0.605572
	H10	H	0.826600	0.294064	0.605326
	H11	H	0.152074	0.285224	0.401607
	H12	H	0.827637	0.411274	0.721067
	H13	H	0.154719	0.603285	0.717926
	H14	H	0.826468	0.603718	0.292226
	H15	H	0.154845	0.406097	0.290349
	H16	H	0.393357	0.720225	0.839922
	H17	H	0.588605	0.718247	0.170706
	H18	H	0.594557	0.290674	0.840329
	H19	H	0.395256	0.296959	0.171028
	H20	H	0.709940	0.842110	0.402816
	H21	H	0.704059	0.169546	0.605735
	H22	H	0.276069	0.841292	0.605813
	H23	H	0.270440	0.168137	0.403561
	H24	H	0.897781	0.340552	0.217001
	H25	H	0.085657	0.671878	0.217974
	H26	H	0.092335	0.341935	0.791321
	H27	H	0.896924	0.672783	0.796786
	H28	H	0.206684	0.903306	0.340275
	H29	H	0.201853	0.104178	0.671175
	H30	H	0.775011	0.107635	0.339765
	H31	H	0.777289	0.907944	0.670181
	H32	H	0.329058	0.225042	0.906194
	H33	H	0.655552	0.219586	0.104605
	H34	H	0.329071	0.791551	0.107506
	H35	H	0.653707	0.788484	0.903662
	H36	H	0.326764	0.912480	0.217520
	H37	H	0.655390	0.101465	0.218912
	H38	H	0.326377	0.104555	0.793828
	H39	H	0.653756	0.905941	0.789234
	H40	H	0.890528	0.220296	0.339323
	H41	H	0.085577	0.218268	0.671613
	H42	H	0.090241	0.791488	0.339984
	H43	H	0.893710	0.797521	0.672098
	H44	H	0.214784	0.345268	0.900372
	H45	H	0.207018	0.670420	0.107827
	H46	H	0.777396	0.342478	0.106724
	H47	H	0.772898	0.668372	0.902419
	H48	H	0.387126	0.125746	0.602522
	H49	H	0.586216	0.884536	0.607043
	H50	H	0.580504	0.123082	0.410373
	H51	H	0.407486	0.893875	0.419810
	H52	H	0.592060	0.425750	0.122847
	H53	H	0.587267	0.615549	0.880090
	H54	H	0.396972	0.600920	0.125284
	H55	H	0.401497	0.419985	0.886330
	H56	H	0.109444	0.598488	0.402984
	H57	H	0.874412	0.597486	0.602508
	H58	H	0.108294	0.409544	0.600811
	H59	H	0.877896	0.410700	0.424492
	H60	H	0.106992	0.406343	0.593424
	H61	H	0.871095	0.607904	0.604685
	H62	H	0.107003	0.607557	0.417238
	H63	H	0.876529	0.425996	0.408497
	H64	H	0.398228	0.597367	0.124275
	H65	H	0.599641	0.584537	0.885224
	H66	H	0.574222	0.410594	0.121685
	H67	H	0.406259	0.415942	0.886148
	H68	H	0.583839	0.121045	0.418819
	H69	H	0.577815	0.891195	0.591768
	H70	H	0.400741	0.121732	0.601366
	H71	H	0.387273	0.886482	0.418583
	H72	H	0.897703	0.622876	0.096956
	H73	H	0.082840	0.390107	0.096724
	H74	H	0.094202	0.628318	0.907459
	H75	H	0.903260	0.388889	0.910369
	H76	H	0.087174	0.911743	0.625784
	H77	H	0.088612	0.095420	0.384115
	H78	H	0.905421	0.097096	0.620449
	H79	H	0.897790	0.920107	0.386635
	H80	H	0.609255	0.096178	0.902835
	H81	H	0.373890	0.107203	0.101135
	H82	H	0.606772	0.915489	0.098280
	H83	H	0.371383	0.900747	0.912287
	H84	H	0.608951	0.908440	0.100701
	H85	H	0.375327	0.103771	0.097831
	H86	H	0.609423	0.105502	0.913861
	H87	H	0.379263	0.918086	0.925032
	H88	H	0.893722	0.110344	0.627121
	H89	H	0.078815	0.088891	0.389832
	H90	H	0.083925	0.917280	0.623310
	H91	H	0.904749	0.913873	0.387663
	H92	H	0.076753	0.623283	0.908211
	H93	H	0.089643	0.391706	0.089590
	H94	H	0.898233	0.622978	0.094817
	H95	H	0.900822	0.389872	0.917123
	H96	H	0.393177	0.121100	0.590424
	H97	H	0.595344	0.886786	0.590875
	H98	H	0.587772	0.124581	0.412622
	H99	H	0.399796	0.885349	0.399901
	H100	H	0.594703	0.403034	0.130069
	H101	H	0.566745	0.591514	0.892523
	H102	H	0.400798	0.599950	0.123535
	H103	H	0.401172	0.413476	0.884940
	H104	H	0.103507	0.591113	0.416470
	H105	H	0.874767	0.604413	0.594189
	H106	H	0.105235	0.414625	0.594921
	H107	H	0.869630	0.404795	0.403816
	H108	H	0.895763	0.623574	0.096003
	H109	H	0.091902	0.387385	0.098426
	H110	H	0.086431	0.621125	0.923218
	H111	H	0.897301	0.387254	0.912137
	H112	H	0.080081	0.910876	0.624358
	H113	H	0.077176	0.100086	0.386844
	H114	H	0.887950	0.092213	0.624123
	H115	H	0.895744	0.911219	0.383488
	H116	H	0.603839	0.092490	0.916202
	H117	H	0.374176	0.102675	0.102261
	H118	H	0.606783	0.910330	0.093058
	H119	H	0.373752	0.921246	0.903539
	C120	C	0.367436	0.013818	0.626892
	C121	C	0.612233	0.996709	0.625754
	C122	C	0.613258	0.014653	0.383595
	C123	C	0.368806	0.997192	0.384068
	C124	C	0.615641	0.383739	0.014891
	C125	C	0.612732	0.626625	0.995675
	C126	C	0.370233	0.628883	0.014692
	C127	C	0.373388	0.387821	0.995575
	C128	C	-0.001424	0.628464	0.383456
	C129	C	0.981697	0.629515	0.628213
	C130	C	-0.001177	0.383962	0.626222
	C131	C	0.982214	0.383386	0.382357
	C132	C	0.870064	0.514494	0.125954
	C133	C	0.115027	0.498076	0.125720
	C134	C	0.115681	0.515930	0.882714
	C135	C	0.871199	0.497421	0.884474
	C136	C	0.113028	0.883357	0.514764
	C137	C	0.110253	0.125248	0.496625
	C138	C	0.867633	0.128146	0.513860
	C139	C	0.870647	0.886218	0.495572
	C140	C	0.499731	0.128268	0.883175
	C141	C	0.482836	0.130359	0.128332
	C142	C	0.499536	0.884109	0.126858
	C143	C	0.482403	0.883491	0.883457
	C144	C	0.372698	0.889290	0.681387
	C145	C	0.605195	0.121163	0.679635
	C146	C	0.609915	0.889933	0.329145
	C147	C	0.372216	0.122266	0.331502
	C148	C	0.670941	0.384726	0.889862
	C149	C	0.667563	0.625417	0.120671
	C150	C	0.315071	0.628758	0.889969
	C151	C	0.316753	0.388626	0.119697
	C152	C	0.875954	0.685090	0.385601
	C153	C	0.104067	0.683196	0.625515
	C154	C	0.875650	0.331233	0.625047
	C155	C	0.104010	0.324751	0.382442
	C156	C	0.876320	0.389542	0.682702
	C157	C	0.105168	0.624724	0.681629
	C158	C	0.875514	0.625485	0.328943
	C159	C	0.105604	0.385172	0.327487
	C160	C	0.372997	0.683397	0.889602
	C161	C	0.609327	0.681184	0.120930
	C162	C	0.614413	0.327881	0.890119
	C163	C	0.375135	0.333670	0.120951
	C164	C	0.670282	0.890767	0.384053
	C165	C	0.665786	0.120592	0.624745
	C166	C	0.313634	0.890261	0.625681
	C167	C	0.310888	0.120020	0.385207
	C168	C	0.875745	0.390177	0.180158
	C169	C	0.108648	0.622164	0.181187
	C170	C	0.113555	0.391739	0.827812
	C171	C	0.874379	0.622260	0.831425
	C172	C	0.168629	0.884195	0.389882
	C173	C	0.164876	0.124457	0.621238
	C174	C	0.812709	0.126713	0.389228
	C175	C	0.815415	0.888440	0.621096
	C176	C	0.377447	0.185939	0.885950
	C177	C	0.606164	0.182838	0.125449
	C178	C	0.377318	0.829835	0.126034
	C179	C	0.604974	0.827066	0.884377
	C180	C	0.376239	0.889852	0.181189
	C181	C	0.606226	0.124107	0.182444
	C182	C	0.375991	0.126074	0.829779
	C183	C	0.605222	0.885818	0.827659
	C184	C	0.869990	0.182863	0.388904
	C185	C	0.106581	0.180618	0.621770
	C186	C	0.110919	0.828229	0.389842
	C187	C	0.873319	0.833443	0.621947
	C188	C	0.174100	0.393341	0.882504
	C189	C	0.168756	0.621611	0.126037
	C190	C	0.815813	0.391025	0.125227
	C191	C	0.812995	0.620251	0.884172
	C192	C	0.387759	0.100455	0.604770
	C193	C	0.592301	0.909977	0.603333
	C194	C	0.590702	0.100548	0.406971
	C195	C	0.391496	0.910696	0.406070
	C196	C	0.593652	0.406559	0.102229
	C197	C	0.591020	0.603929	0.908730
	C198	C	0.392292	0.606158	0.101850
	C199	C	0.396282	0.410059	0.908373
	C200	C	0.084447	0.605754	0.405587
	C201	C	0.895589	0.609160	0.606884
	C202	C	0.084765	0.404036	0.603150
	C203	C	0.896790	0.407034	0.405568
	C204	C	0.890913	0.600755	0.102799
	C205	C	0.094502	0.411817	0.101977
	C206	C	0.092528	0.602009	0.905985
	C207	C	0.893808	0.411228	0.906742
	C208	C	0.090410	0.906519	0.601884
	C209	C	0.087982	0.101821	0.409526
	C210	C	0.889296	0.106182	0.601175
	C211	C	0.893022	0.908329	0.408506
	C212	C	0.585228	0.105120	0.904636
	C213	C	0.396829	0.110473	0.106696
	C214	C	0.585307	0.905046	0.104040
	C215	C	0.396751	0.906515	0.906742
	Zn216	Zn	0.489784	0.004865	0.754483
	Zn217	Zn	0.490625	0.006605	0.255829
	Zn218	Zn	0.741266	0.505518	0.004850
	Zn219	Zn	0.244767	0.508176	0.004516
	Zn220	Zn	-0.010097	0.757951	0.505755
	Zn221	Zn	-0.010448	0.254061	0.504418
	Zn222	Zn	-0.008017	0.506715	0.756071
	Zn223	Zn	-0.008282	0.506144	0.254061
	Zn224	Zn	0.491167	0.754425	0.005161
	Zn225	Zn	0.493019	0.258942	0.005202
	Zn226	Zn	0.742312	0.005601	0.505085
	Zn227	Zn	0.239199	0.004789	0.505450
	N228	N	0.405615	0.967104	0.682231
	N229	N	0.572647	0.043231	0.680315
	N230	N	0.575059	0.967747	0.328609
	N231	N	0.407542	0.044791	0.330687
	N232	N	0.671904	0.418471	0.968581
	N233	N	0.669752	0.591931	0.041745
	N234	N	0.313184	0.595442	0.968745
	N235	N	0.315515	0.421591	0.040659
	N236	N	0.953422	0.686902	0.418711
	N237	N	0.026419	0.686073	0.592619
	N238	N	0.952962	0.327628	0.590695
	N239	N	0.026338	0.323638	0.416084
	N240	N	0.953864	0.421621	0.683453
	N241	N	0.027948	0.592077	0.683523
	N242	N	0.952883	0.591078	0.327493
	N243	N	0.028960	0.420859	0.327296
	N244	N	0.406494	0.683515	0.968158
	N245	N	0.576261	0.682332	0.042205
	N246	N	0.580808	0.327057	0.968942
	N247	N	0.409653	0.332852	0.042582
	N248	N	0.672797	0.969224	0.416942
	N249	N	0.670162	0.042079	0.591931
	N250	N	0.310141	0.968574	0.592725
	N251	N	0.308723	0.041306	0.417156
	N252	N	0.908833	0.467905	0.180624
	N253	N	0.075777	0.544448	0.181018
	N254	N	0.077922	0.468913	0.827761
	N255	N	0.909901	0.544886	0.831285
	N256	N	0.170007	0.917713	0.468845
	N257	N	0.167009	0.090775	0.542399
	N258	N	0.810890	0.093663	0.468188
	N259	N	0.813734	0.920613	0.541984
	N260	N	0.455292	0.187386	0.918486
	N261	N	0.528552	0.186912	0.092530
	N262	N	0.455147	0.826102	0.093052
	N263	N	0.527553	0.825705	0.918354
	N264	N	0.453313	0.923098	0.181721
	N265	N	0.528543	0.092389	0.184451
	N266	N	0.452975	0.090919	0.827785
	N267	N	0.528035	0.920224	0.827107
	N268	N	0.903667	0.183826	0.467392
	N269	N	0.073352	0.181351	0.542958
	N270	N	0.077015	0.827583	0.468457
	N271	N	0.906904	0.831699	0.542896
	N272	N	0.175741	0.471631	0.915724
	N273	N	0.172791	0.543324	0.092339
	N274	N	0.812423	0.469315	0.091964
	N275	N	0.810798	0.541705	0.916425
	O276	O	-0.021797	-0.048776	-0.049655
	H277	H	-0.029617	-0.043412	-0.046941
	H278	H	-0.024402	-0.043474	-0.040266
	O279	O	0.445796	0.448585	0.599459
	H280	H	0.444612	0.446800	0.596513
	H281	H	0.432920	0.449636	0.590548
	O282	O	0.484517	0.445850	0.554389
	H283	H	0.484119	0.436748	0.545927
	H284	H	0.491971	0.441869	0.553627
	O285	O	-0.072254	1.079635	1.038901
	H286	H	-0.071772	1.078025	1.045282
	H287	H	-0.081239	1.079882	1.036064
	O288	O	0.517983	0.493959	0.497943
	H289	H	0.519817	0.492297	0.484196
	H290	H	0.522295	0.497782	0.498867
	O291	O	0.994962	1.037806	1.082124
	H292	H	0.989806	1.046949	1.086926
	H293	H	1.000942	1.029311	1.081860
	O294	O	1.507830	0.377449	0.545625
	H295	H	1.498697	0.376305	0.552371
	H296	H	1.507047	0.375852	0.548503
	O297	O	1.036402	0.021154	1.016837
	H298	H	1.029112	0.027125	1.011944
	H299	H	1.029804	0.014075	1.016725
	O300	O	0.496895	0.495795	0.439551
	H301	H	0.503254	0.501867	0.439328
	H302	H	0.497169	0.491886	0.441749
	O303	O	1.035536	0.003496	0.072388
	H304	H	1.040823	0.006227	0.069698
	H305	H	1.036805	0.010607	0.076886
	O306	O	-0.027634	1.019718	0.980554
	H307	H	-0.019667	1.012426	0.983500
	H308	H	-0.027320	1.028458	0.984147
	O309	O	0.485347	0.402127	0.475119
	H310	H	0.477760	0.405770	0.478429
	H311	H	0.490716	0.398292	0.461321
	O312	O	1.002668	0.077451	1.018291
	H313	H	1.005154	0.091363	1.021160
	H314	H	0.989722	0.083686	1.009110
	O315	O	-0.011835	0.008836	-0.022499
	H316	H	-0.011347	0.006059	-0.026183
	H317	H	-0.018528	0.014331	-0.026491
	O318	O	0.515264	0.567074	0.553177
	H319	H	0.510926	0.563841	0.562055
	H320	H	0.518018	0.563697	0.546430
	O321	O	0.928077	1.043262	0.982325
	H322	H	0.927776	1.047454	0.977492
	H323	H	0.935218	1.041858	0.988809
	O324	O	0.877818	0.067087	-0.089732
	H325	H	0.854184	0.077998	-0.096418
	H326	H	0.880880	0.056758	-0.095261
	O327	O	0.468362	0.567323	0.489192
	H328	H	0.468814	0.562353	0.489168
	H329	H	0.457335	0.576173	0.505188
	O330	O	1.006261	0.062506	1.075199
	H331	H	1.007950	0.056337	1.078390
	H332	H	0.998420	0.068392	1.080439
	O333	O	1.322275	1.393467	-0.680812
	H334	H	1.324420	1.403636	-0.694070
	H335	H	1.335290	1.410201	-0.673089
	O336	O	0.956152	1.019819	0.980903
	H337	H	0.958274	1.019899	0.985461
	H338	H	0.954678	1.014699	0.984621
	O339	O	0.495431	0.478896	0.482870
	H340	H	0.494536	0.478824	0.482240
	H341	H	0.485770	0.490695	0.482426
	O342	O	0.075999	0.896807	0.010862
	H343	H	0.082767	0.889068	0.005980
	H344	H	0.076252	0.897771	-0.001709
	O345	O	-0.025250	0.008217	-0.051123
	H346	H	-0.011236	0.002677	-0.049706
	H347	H	-0.026688	0.004821	-0.053812
	O348	O	0.504104	0.415582	0.361070
	H349	H	0.508779	0.419853	0.346307
	H350	H	0.506316	0.423968	0.363009
	O351	O	0.457813	0.490119	0.461031
	H352	H	0.455990	0.490401	0.454205
	H353	H	0.458695	0.493176	0.459888
	O354	O	0.471137	0.531874	0.555552
	H355	H	0.469403	0.529831	0.546096
	H356	H	0.467625	0.515485	0.558416
	O357	O	0.360629	0.508173	0.536199
	H358	H	0.356072	0.511137	0.537779
	H359	H	0.362587	0.507879	0.529612
	O360	O	0.064929	-0.019011	0.003055
	H361	H	0.061478	-0.021624	-0.004186
	H362	H	0.068929	-0.021850	-0.000418
	O363	O	0.488912	0.516855	0.600229
	H364	H	0.490043	0.510999	0.598772
	H365	H	0.479029	0.507829	0.603961
	O366	O	-0.076185	-0.107449	1.052219
	H367	H	-0.078167	-0.107061	1.057252
	H368	H	-0.083410	-0.111040	1.056847
	O369	O	0.528932	0.585070	0.527066
	H370	H	0.533972	0.587197	0.530931
	H371	H	0.528464	0.586154	0.531575
