data_Molecule from HDF5

_cell_length_a		16.494838
_cell_length_b		16.334116
_cell_length_c		16.452295
_cell_angle_alpha	90.066599
_cell_angle_beta	90.130408
_cell_angle_gamma	89.893452
_symmetry_space_group_name_H-M	'P 1'
_symmetry_Int_Tables_number		1

loop_
	_symmetry_equiv_pos_as_xyz
	x,y,z

loop_
	_atom_site_label
	_atom_site_type_symbol
	_atom_site_fract_x
	_atom_site_fract_y
	_atom_site_fract_z
	H0	H	0.385222	0.852065	0.742452
	H1	H	0.601216	0.166842	0.742365
	H2	H	0.600996	0.852039	0.293213
	H3	H	0.386595	0.169361	0.297633
	H4	H	0.715114	0.402048	0.859649
	H5	H	0.716303	0.617288	0.174632
	H6	H	0.264710	0.621913	0.862851
	H7	H	0.270356	0.402821	0.174447
	H8	H	0.833849	0.731477	0.412969
	H9	H	0.148877	0.735543	0.625020
	H10	H	0.835395	0.287703	0.624906
	H11	H	0.147728	0.284839	0.411367
	H12	H	0.836171	0.404196	0.740607
	H13	H	0.147762	0.622439	0.744182
	H14	H	0.834329	0.615903	0.296161
	H15	H	0.148461	0.400197	0.294385
	H16	H	0.384402	0.734330	0.861874
	H17	H	0.599385	0.731426	0.175631
	H18	H	0.595221	0.290712	0.858033
	H19	H	0.389264	0.290940	0.175499
	H20	H	0.715198	0.851065	0.409787
	H21	H	0.714847	0.167391	0.625048
	H22	H	0.266256	0.853544	0.630249
	H23	H	0.268357	0.166973	0.410286
	H24	H	0.890016	0.350353	0.236955
	H25	H	0.101103	0.667780	0.242967
	H26	H	0.101590	0.353495	0.792720
	H27	H	0.885544	0.669197	0.796249
	H28	H	0.218658	0.899363	0.362142
	H29	H	0.218890	0.121319	0.674822
	H30	H	0.770490	0.115371	0.360728
	H31	H	0.768149	0.902057	0.673866
	H32	H	0.332900	0.229132	0.913691
	H33	H	0.650342	0.229206	0.120452
	H34	H	0.334539	0.787818	0.123901
	H35	H	0.649301	0.785918	0.912792
	H36	H	0.334664	0.903551	0.240556
	H37	H	0.649507	0.114509	0.238084
	H38	H	0.334568	0.116287	0.795370
	H39	H	0.648895	0.901909	0.796040
	H40	H	0.888380	0.229614	0.360154
	H41	H	0.098555	0.232805	0.676375
	H42	H	0.097186	0.789590	0.359034
	H43	H	0.888125	0.790574	0.676272
	H44	H	0.213220	0.351855	0.911564
	H45	H	0.215155	0.667858	0.126530
	H46	H	0.773278	0.350623	0.122566
	H47	H	0.769086	0.668042	0.911620
	H48	H	0.403324	0.122306	0.604256
	H49	H	0.582831	0.895276	0.608428
	H50	H	0.579155	0.120671	0.432980
	H51	H	0.410766	0.899892	0.432683
	H52	H	0.586160	0.411137	0.133937
	H53	H	0.574618	0.594896	0.907648
	H54	H	0.405889	0.591843	0.127846
	H55	H	0.399953	0.418835	0.901599
	H56	H	0.103650	0.595860	0.431356
	H57	H	0.880002	0.599424	0.607360
	H58	H	0.101311	0.424384	0.598698
	H59	H	0.880810	0.420726	0.435030
	H60	H	0.103180	0.429165	0.607322
	H61	H	0.879958	0.600055	0.607208
	H62	H	0.106105	0.598588	0.425518
	H63	H	0.879458	0.428478	0.422655
	H64	H	0.406599	0.600709	0.130821
	H65	H	0.581271	0.599852	0.904496
	H66	H	0.590835	0.424595	0.132432
	H67	H	0.399215	0.425501	0.904067
	H68	H	0.585910	0.125088	0.430117
	H69	H	0.576495	0.897259	0.606904
	H70	H	0.406697	0.121961	0.608308
	H71	H	0.402505	0.896824	0.434612
	H72	H	0.905557	0.623185	0.104581
	H73	H	0.082847	0.395688	0.105067
	H74	H	0.076238	0.621338	0.932928
	H75	H	0.909467	0.400065	0.935225
	H76	H	0.073148	0.923056	0.627718
	H77	H	0.083651	0.100544	0.404522
	H78	H	0.897589	0.095784	0.633254
	H79	H	0.905919	0.926282	0.406669
	H80	H	0.606003	0.106182	0.932336
	H81	H	0.376421	0.101921	0.111716
	H82	H	0.607144	0.916128	0.108506
	H83	H	0.381804	0.924184	0.933531
	H84	H	0.602573	0.921402	0.100426
	H85	H	0.377906	0.102819	0.104410
	H86	H	0.602482	0.093280	0.931961
	H87	H	0.379993	0.925478	0.928113
	H88	H	0.906291	0.094905	0.629515
	H89	H	0.083267	0.090329	0.408425
	H90	H	0.084773	0.918307	0.633057
	H91	H	0.904680	0.915861	0.403253
	H92	H	0.080914	0.623657	0.932756
	H93	H	0.079812	0.395924	0.108883
	H94	H	0.898570	0.625785	0.106837
	H95	H	0.896831	0.394660	0.930840
	H96	H	0.408047	0.121215	0.603387
	H97	H	0.580827	0.896566	0.601573
	H98	H	0.579225	0.124100	0.424939
	H99	H	0.406214	0.895182	0.426268
	H100	H	0.577194	0.421562	0.128680
	H101	H	0.582522	0.591315	0.906558
	H102	H	0.399096	0.596074	0.131904
	H103	H	0.404955	0.422015	0.904916
	H104	H	0.105249	0.602917	0.431230
	H105	H	0.880393	0.599716	0.606610
	H106	H	0.106010	0.419878	0.606034
	H107	H	0.875266	0.414648	0.423400
	H108	H	0.904530	0.625215	0.111418
	H109	H	0.078445	0.398206	0.104715
	H110	H	0.078098	0.623906	0.928663
	H111	H	0.907907	0.395353	0.921244
	H112	H	0.084012	0.930926	0.628391
	H113	H	0.074309	0.096689	0.408490
	H114	H	0.903432	0.103288	0.633213
	H115	H	0.895885	0.923221	0.402973
	H116	H	0.607821	0.098766	0.921231
	H117	H	0.379813	0.095951	0.107893
	H118	H	0.604059	0.926653	0.110073
	H119	H	0.379113	0.919549	0.930227
	C120	C	0.371778	0.018424	0.639688
	C121	C	0.613460	1.000705	0.639212
	C122	C	0.614085	0.018178	0.396103
	C123	C	0.372221	1.001415	0.397692
	C124	C	0.615380	0.387226	0.026274
	C125	C	0.612883	0.629710	1.010047
	C126	C	0.369823	0.631145	0.026667
	C127	C	0.370444	0.389768	1.008136
	C128	C	0.000936	0.631899	0.396435
	C129	C	0.983410	0.633767	0.640214
	C130	C	0.000700	0.390248	0.638507
	C131	C	0.982715	0.387893	0.395370
	C132	C	0.871706	0.518968	0.138915
	C133	C	0.113822	0.501141	0.140145
	C134	C	0.112918	0.519024	0.896705
	C135	C	0.871340	0.501661	0.896422
	C136	C	0.114467	0.889023	0.526341
	C137	C	0.114127	0.130865	0.510546
	C138	C	0.870163	0.130561	0.527174
	C139	C	0.870228	0.888633	0.508714
	C140	C	0.501006	0.131949	0.895986
	C141	C	0.482825	0.131810	0.138981
	C142	C	0.500739	0.888026	0.139790
	C143	C	0.483632	0.888253	0.897255
	C144	C	0.367711	0.899563	0.701854
	C145	C	0.617992	0.119321	0.701592
	C146	C	0.617922	0.899553	0.334158
	C147	C	0.368475	0.121009	0.337140
	C148	C	0.674861	0.384315	0.907337
	C149	C	0.675151	0.634464	0.127559
	C150	C	0.306723	0.637455	0.909598
	C151	C	0.310668	0.385946	0.127167
	C152	C	0.881421	0.691729	0.394692
	C153	C	0.101538	0.695445	0.643351
	C154	C	0.882470	0.328510	0.642572
	C155	C	0.100934	0.325948	0.393251
	C156	C	0.882963	0.386400	0.700362
	C157	C	0.100984	0.638728	0.702524
	C158	C	0.881764	0.634318	0.336317
	C159	C	0.101155	0.383462	0.334956
	C160	C	0.366453	0.693501	0.908858
	C161	C	0.616576	0.691187	0.128271
	C162	C	0.615045	0.328733	0.906282
	C163	C	0.370071	0.330151	0.127687
	C164	C	0.675195	0.899161	0.392145
	C165	C	0.674701	0.119670	0.643188
	C166	C	0.308380	0.900294	0.645909
	C167	C	0.309772	0.120142	0.393528
	C168	C	0.871143	0.398529	0.197600
	C169	C	0.118193	0.619980	0.202436
	C170	C	0.118176	0.400940	0.833779
	C171	C	0.868041	0.621416	0.836567
	C172	C	0.176941	0.883226	0.408859
	C173	C	0.177340	0.137173	0.627762
	C174	C	0.810216	0.133725	0.408041
	C175	C	0.809256	0.884687	0.627306
	C176	C	0.381051	0.190600	0.894492
	C177	C	0.602528	0.190132	0.139514
	C178	C	0.381852	0.827614	0.142509
	C179	C	0.601843	0.826111	0.894310
	C180	C	0.382156	0.885382	0.200405
	C181	C	0.602112	0.133326	0.198361
	C182	C	0.381852	0.134253	0.835599
	C183	C	0.601878	0.884027	0.836462
	C184	C	0.869011	0.190262	0.407753
	C185	C	0.117400	0.193096	0.628592
	C186	C	0.116683	0.828089	0.407445
	C187	C	0.868846	0.829415	0.628304
	C188	C	0.173689	0.399646	0.893319
	C189	C	0.174749	0.620350	0.143960
	C190	C	0.812928	0.398575	0.140514
	C191	C	0.809905	0.620859	0.893578
	C192	C	0.398220	0.100307	0.612813
	C193	C	0.587475	0.917780	0.613075
	C194	C	0.588715	0.101595	0.422111
	C195	C	0.398793	0.918850	0.423964
	C196	C	0.591602	0.411896	0.109925
	C197	C	0.586743	0.603180	0.927553
	C198	C	0.396380	0.603992	0.108822
	C199	C	0.394398	0.414931	0.925200
	C200	C	0.083390	0.606512	0.422055
	C201	C	0.901401	0.607419	0.614288
	C202	C	0.082165	0.416678	0.611703
	C203	C	0.900287	0.413858	0.420043
	C204	C	0.895880	0.602929	0.114431
	C205	C	0.087839	0.418385	0.113932
	C206	C	0.086221	0.601535	0.923735
	C207	C	0.897432	0.418304	0.921690
	C208	C	0.088156	0.916118	0.608477
	C209	C	0.087871	0.103590	0.428573
	C210	C	0.895197	0.105161	0.610256
	C211	C	0.894900	0.914423	0.425958
	C212	C	0.583653	0.106650	0.921209
	C213	C	0.399623	0.107375	0.114917
	C214	C	0.583060	0.913670	0.113672
	C215	C	0.401768	0.915335	0.923018
	Zn216	Zn	0.492754	0.009973	0.768445
	Zn217	Zn	0.492086	0.010168	0.267913
	Zn218	Zn	0.742972	0.509746	0.017243
	Zn219	Zn	0.241088	0.509971	0.017863
	Zn220	Zn	-0.008277	0.761698	0.517387
	Zn221	Zn	-0.008736	0.259259	0.518531
	Zn222	Zn	-0.007723	0.510940	0.768158
	Zn223	Zn	-0.007818	0.510420	0.267456
	Zn224	Zn	0.492164	0.759222	0.018580
	Zn225	Zn	0.491614	0.260803	0.017064
	Zn226	Zn	0.741981	0.009562	0.518059
	Zn227	Zn	0.243484	0.009816	0.518509
	N228	N	0.406452	0.973764	0.698096
	N229	N	0.580447	0.044319	0.699083
	N230	N	0.580592	0.974541	0.336548
	N231	N	0.406517	0.046070	0.339443
	N232	N	0.675380	0.419686	0.983089
	N233	N	0.672972	0.596875	0.052976
	N234	N	0.308844	0.599632	0.984120
	N235	N	0.310787	0.422291	0.051941
	N236	N	0.956523	0.690519	0.431177
	N237	N	0.027571	0.692414	0.605305
	N238	N	0.956588	0.330685	0.604752
	N239	N	0.026515	0.328548	0.430429
	N240	N	0.957423	0.423835	0.698079
	N241	N	0.026557	0.601086	0.700783
	N242	N	0.956959	0.597877	0.337116
	N243	N	0.026810	0.421362	0.336375
	N244	N	0.404921	0.689820	0.982850
	N245	N	0.578310	0.688236	0.053977
	N246	N	0.578849	0.330176	0.981488
	N247	N	0.406551	0.332213	0.052793
	N248	N	0.672952	0.974101	0.430122
	N249	N	0.672031	0.044894	0.604941
	N250	N	0.310526	0.975058	0.607848
	N251	N	0.311708	0.044685	0.430340
	N252	N	0.906829	0.474468	0.196645
	N253	N	0.081136	0.544813	0.200335
	N254	N	0.081346	0.476379	0.835538
	N255	N	0.905499	0.546193	0.838221
	N256	N	0.175975	0.920002	0.484065
	N257	N	0.175428	0.099325	0.553161
	N258	N	0.811059	0.097297	0.483327
	N259	N	0.809978	0.920743	0.551866
	N260	N	0.455965	0.189240	0.931200
	N261	N	0.527316	0.189696	0.103711
	N262	N	0.456716	0.828819	0.105851
	N263	N	0.527200	0.828286	0.931101
	N264	N	0.457355	0.921594	0.199308
	N265	N	0.526793	0.097578	0.198184
	N266	N	0.457629	0.098706	0.835967
	N267	N	0.527320	0.921551	0.837939
	N268	N	0.905568	0.188390	0.482800
	N269	N	0.078907	0.189571	0.554530
	N270	N	0.078704	0.831534	0.481701
	N271	N	0.906042	0.831830	0.553733
	N272	N	0.170849	0.474470	0.931371
	N273	N	0.172282	0.545451	0.105853
	N274	N	0.813081	0.474528	0.104655
	N275	N	0.811986	0.545312	0.930154
	O276	O	0.176396	0.076613	-0.057521
	H277	H	0.168916	0.095663	-0.057619
	H278	H	0.194134	0.083196	-0.054349
	O279	O	0.786476	-0.024761	1.219340
	H280	H	0.775696	-0.014931	1.221045
	H281	H	0.777100	-0.011222	1.211614
	O282	O	0.512523	0.722078	0.727422
	H283	H	0.488562	0.686413	0.727897
	H284	H	0.511821	0.741124	0.766296
	O285	O	0.678194	0.693788	0.703878
	H286	H	0.661868	0.702584	0.686900
	H287	H	0.652851	0.700651	0.688928
	O288	O	0.804046	1.089392	-0.180491
	H289	H	0.816427	1.107842	-0.196331
	H290	H	0.801009	1.098217	-0.156368
	O291	O	0.285482	0.523045	0.309663
	H292	H	0.255395	0.522798	0.290033
	H293	H	0.283983	0.500006	0.347169
	O294	O	0.181074	-0.175723	0.828543
	H295	H	0.189461	-0.147308	0.844164
	H296	H	0.189037	-0.159858	0.859176
	O297	O	0.469179	0.477609	0.545677
	H298	H	0.473788	0.464722	0.543440
	H299	H	0.489838	0.483063	0.546974
	O300	O	0.274404	0.430825	0.436314
	H301	H	0.285619	0.414375	0.453479
	H302	H	0.276072	0.435335	0.470204
	O303	O	0.594143	0.357402	0.550905
	H304	H	0.579184	0.357643	0.542006
	H305	H	0.605965	0.383886	0.536559
	O306	O	1.184332	1.059507	0.228577
	H307	H	1.182872	1.053192	0.234401
	H308	H	1.188232	1.064158	0.241749
	O309	O	0.472001	0.730851	0.301023
	H310	H	0.436812	0.738128	0.295123
	H311	H	0.448885	0.745973	0.282797
	O312	O	0.054194	0.912255	1.155856
	H313	H	0.040666	0.909146	1.170050
	H314	H	0.037152	0.907183	1.142496
	O315	O	0.480042	0.504265	0.686348
	H316	H	0.495967	0.498690	0.666945
	H317	H	0.485705	0.483104	0.698229
	O318	O	0.958725	-0.106051	0.027341
	H319	H	0.955706	-0.100871	0.019305
	H320	H	0.958933	-0.127265	0.039250
	O321	O	-0.065929	0.058336	0.216372
	H322	H	-0.073775	0.042066	0.213974
	H323	H	-0.083473	0.063519	0.225579
	O324	O	0.785023	0.017614	0.043595
	H325	H	0.792100	0.011948	0.030017
	H326	H	0.791183	0.009216	0.026468
	O327	O	0.697635	0.521802	0.391594
	H328	H	0.697454	0.543199	0.394592
	H329	H	0.698396	0.533738	0.385702
	O330	O	0.551259	1.427944	-0.481868
	H331	H	0.546009	1.436115	-0.485946
	H332	H	0.555056	1.416826	-0.489174
	O333	O	0.549528	0.720910	0.457195
	H334	H	0.528358	0.706541	0.461584
	H335	H	0.533729	0.726492	0.427035
	O336	O	-0.117313	-0.089305	-0.148475
	H337	H	-0.128077	-0.091668	-0.163438
	H338	H	-0.113143	-0.091458	-0.157734
	O339	O	-0.212575	1.215748	0.954205
	H340	H	-0.215262	1.223617	0.962633
	H341	H	-0.224506	1.212435	0.971334
	O342	O	-0.003409	1.196679	1.026627
	H343	H	0.008490	1.180018	1.014710
	H344	H	-0.004749	1.195299	1.034041
	O345	O	0.546992	0.297253	-0.692706
	H346	H	0.550270	0.309473	-0.706887
	H347	H	0.540564	0.290050	-0.713609
	O348	O	0.283783	0.326412	0.525610
	H349	H	0.291059	0.342858	0.574343
	H350	H	0.265493	0.294930	0.532794
	O351	O	0.310632	1.329818	0.662147
	H352	H	0.305644	1.378401	0.670637
	H353	H	0.351037	1.315026	0.678152
	O354	O	0.016002	0.798829	-0.194910
	H355	H	0.021885	0.773975	-0.225759
	H356	H	0.061891	0.804010	-0.190414
	O357	O	-0.174608	-0.185239	1.148368
	H358	H	-0.181879	-0.170068	1.140386
	H359	H	-0.184934	-0.186369	1.119653
	O360	O	0.427812	0.311035	0.425548
	H361	H	0.420122	0.318892	0.413332
	H362	H	0.409570	0.307660	0.417345
	O363	O	-0.088325	0.202122	0.819576
	H364	H	-0.103506	0.224239	0.823109
	H365	H	-0.073054	0.207638	0.825134
	O366	O	0.180019	-0.070851	1.149282
	H367	H	0.186656	-0.063212	1.146085
	H368	H	0.158812	-0.079474	1.161351
	O369	O	0.406023	0.472010	0.350899
	H370	H	0.387609	0.482317	0.361631
	H371	H	0.407146	0.491059	0.354681
	O372	O	0.935281	-0.050164	1.061128
	H373	H	0.946631	-0.056472	1.063803
	H374	H	0.938999	-0.050432	1.049845
	O375	O	0.275938	0.490911	0.734659
	H376	H	0.238559	0.488884	0.755476
	H377	H	0.267199	0.499033	0.702531
	O378	O	0.268124	0.600015	0.563250
	H379	H	0.299259	0.593281	0.562470
	H380	H	0.250664	0.640843	0.545207
	O381	O	0.923949	-0.188051	0.206777
	H382	H	0.913726	-0.205572	0.200697
	H383	H	0.890208	-0.175760	0.211052
	O384	O	0.556189	0.578173	0.321294
	H385	H	0.553751	0.580300	0.326395
	H386	H	0.546183	0.608522	0.325829
	O387	O	0.319767	-0.316984	0.341293
	H388	H	0.308971	-0.310695	0.391140
	H389	H	0.306813	-0.369352	0.328707
	O390	O	-0.137891	-0.156393	-0.028249
	H391	H	-0.130802	-0.148018	-0.053514
	H392	H	-0.132273	-0.158118	-0.045428
	O393	O	0.809379	0.909360	0.909724
	H394	H	0.822400	0.933398	0.897870
	H395	H	0.793917	0.901557	0.891215
	O396	O	1.623685	0.518787	0.478948
	H397	H	1.622945	0.507627	0.473876
	H398	H	1.632832	0.521138	0.470800
	O399	O	0.996868	0.213161	0.945086
	H400	H	0.992725	0.224678	0.945676
	H401	H	1.004113	0.217850	0.959747
	O402	O	1.435668	0.571407	0.735392
	H403	H	1.400860	0.547875	0.741650
	H404	H	1.454619	0.536596	0.730191
	O405	O	0.992493	1.189419	0.176299
	H406	H	0.994911	1.180054	0.185725
	H407	H	1.002764	1.188848	0.182197
	O408	O	1.106490	0.124934	0.059107
	H409	H	1.111975	0.127392	0.074868
	H410	H	1.100958	0.121437	0.048739
	O411	O	1.152892	1.199576	0.182302
	H412	H	1.145128	1.201845	0.190582
	H413	H	1.153125	1.187505	0.195321
	O414	O	0.706358	0.416486	0.467482
	H415	H	0.724989	0.420135	0.471547
	H416	H	0.709484	0.417663	0.478135
	O417	O	0.465288	0.701533	0.561859
	H418	H	0.480215	0.708158	0.575244
	H419	H	0.478542	0.694235	0.574397
	O420	O	0.685164	0.517003	0.728165
	H421	H	0.700357	0.530845	0.744157
	H422	H	0.679591	0.546132	0.726666
	O423	O	0.470770	0.295487	0.728515
	H424	H	0.485813	0.272631	0.726290
	H425	H	0.488750	0.278157	0.725125
	O426	O	0.657479	0.350518	0.370848
	H427	H	0.668716	0.350853	0.368018
	H428	H	0.653129	0.367482	0.359163
	O429	O	0.684939	0.429370	0.608470
	H430	H	0.692394	0.438339	0.602831
	H431	H	0.689152	0.429704	0.620704
	O432	O	0.284714	0.655931	0.540773
	H433	H	0.266528	0.691358	0.535325
	H434	H	0.320283	0.660844	0.547849
	O435	O	-0.009908	1.042949	-0.094039
	H436	H	-0.018460	1.051603	-0.105972
	H437	H	-0.005380	1.039986	-0.078312
	O438	O	0.063167	0.065944	-0.034430
	H439	H	0.059860	0.069214	-0.021838
	H440	H	0.086105	0.064523	-0.021583
	O441	O	1.128207	0.038686	-0.185498
	H442	H	1.101292	0.035948	-0.189391
	H443	H	1.119674	0.062322	-0.188997
	O444	O	0.198032	1.036099	0.992408
	H445	H	0.204505	1.033177	0.987050
	H446	H	0.188141	1.036030	0.999960
	O447	O	0.652242	0.665967	0.542108
	H448	H	0.630363	0.666391	0.531198
	H449	H	0.664634	0.689359	0.534279
	O450	O	0.758295	0.209906	0.166280
	H451	H	0.740891	0.212997	0.147382
	H452	H	0.759399	0.229743	0.167715
	O453	O	0.199232	-0.195530	0.990680
	H454	H	0.207286	-0.200886	1.008853
	H455	H	0.198002	-0.202883	1.012690
