data_Molecule from HDF5

_cell_length_a		16.175682
_cell_length_b		16.334270
_cell_length_c		16.231312
_cell_angle_alpha	90.597864
_cell_angle_beta	89.924856
_cell_angle_gamma	89.718528
_symmetry_space_group_name_H-M	'P 1'
_symmetry_Int_Tables_number		1

loop_
	_symmetry_equiv_pos_as_xyz
	x,y,z

loop_
	_atom_site_label
	_atom_site_type_symbol
	_atom_site_fract_x
	_atom_site_fract_y
	_atom_site_fract_z
	H0	H	0.391988	0.822098	0.728247
	H1	H	0.594142	0.146420	0.733426
	H2	H	0.594147	0.824464	0.294269
	H3	H	0.391127	0.148844	0.299598
	H4	H	0.710280	0.385115	0.847657
	H5	H	0.710631	0.585306	0.176492
	H6	H	0.282113	0.584168	0.847505
	H7	H	0.280743	0.390731	0.176173
	H8	H	0.833213	0.703543	0.407959
	H9	H	0.158928	0.703254	0.612517
	H10	H	0.832919	0.273442	0.612672
	H11	H	0.158908	0.267314	0.407904
	H12	H	0.833466	0.386472	0.725137
	H13	H	0.159733	0.587316	0.727135
	H14	H	0.831290	0.584290	0.298608
	H15	H	0.160654	0.386146	0.296543
	H16	H	0.395768	0.701958	0.849015
	H17	H	0.597109	0.704005	0.176420
	H18	H	0.598729	0.264714	0.850544
	H19	H	0.394708	0.273234	0.175712
	H20	H	0.712422	0.824348	0.407459
	H21	H	0.709415	0.147741	0.615924
	H22	H	0.278819	0.822474	0.609262
	H23	H	0.278518	0.149007	0.416706
	H24	H	0.898195	0.322815	0.225135
	H25	H	0.094097	0.649393	0.228545
	H26	H	0.098637	0.323686	0.791309
	H27	H	0.896309	0.649156	0.797943
	H28	H	0.208884	0.886851	0.347972
	H29	H	0.205516	0.085765	0.676398
	H30	H	0.777778	0.085072	0.348587
	H31	H	0.779186	0.887907	0.675598
	H32	H	0.331757	0.202446	0.913295
	H33	H	0.659096	0.199694	0.114636
	H34	H	0.331374	0.770628	0.113689
	H35	H	0.658781	0.769061	0.911627
	H36	H	0.328839	0.890442	0.224076
	H37	H	0.656892	0.086106	0.230626
	H38	H	0.329336	0.083566	0.800954
	H39	H	0.657472	0.881929	0.795111
	H40	H	0.896277	0.199520	0.347564
	H41	H	0.096780	0.205285	0.673633
	H42	H	0.096123	0.769696	0.347904
	H43	H	0.893305	0.770317	0.673834
	H44	H	0.213206	0.323053	0.909633
	H45	H	0.208154	0.650079	0.110241
	H46	H	0.782948	0.322359	0.107761
	H47	H	0.779919	0.649118	0.914785
	H48	H	0.399916	0.100768	0.604356
	H49	H	0.584700	0.870969	0.600008
	H50	H	0.577230	0.099901	0.420925
	H51	H	0.402699	0.873375	0.427257
	H52	H	0.582604	0.397606	0.126005
	H53	H	0.584949	0.569914	0.899338
	H54	H	0.400380	0.572840	0.127111
	H55	H	0.397725	0.390368	0.893095
	H56	H	0.116459	0.578259	0.410204
	H57	H	0.875774	0.580393	0.613602
	H58	H	0.114024	0.388699	0.595936
	H59	H	0.880296	0.395876	0.420077
	H60	H	0.110923	0.400747	0.597282
	H61	H	0.878865	0.587874	0.596157
	H62	H	0.114121	0.585435	0.425951
	H63	H	0.878248	0.393850	0.415441
	H64	H	0.410590	0.582311	0.126797
	H65	H	0.580503	0.583908	0.896240
	H66	H	0.587726	0.386379	0.131433
	H67	H	0.408007	0.400480	0.898592
	H68	H	0.585884	0.099636	0.430384
	H69	H	0.588421	0.869258	0.603588
	H70	H	0.395528	0.103479	0.611545
	H71	H	0.390899	0.865837	0.413965
	H72	H	0.903726	0.601094	0.103685
	H73	H	0.089561	0.369606	0.105272
	H74	H	0.087613	0.601110	0.920385
	H75	H	0.907716	0.370851	0.918109
	H76	H	0.084417	0.884430	0.631627
	H77	H	0.094613	0.077878	0.391701
	H78	H	0.900330	0.080137	0.628245
	H79	H	0.897559	0.892832	0.392946
	H80	H	0.608918	0.061814	0.920495
	H81	H	0.378500	0.076400	0.104736
	H82	H	0.609591	0.897072	0.102795
	H83	H	0.371998	0.874305	0.923519
	H84	H	0.612211	0.894669	0.108825
	H85	H	0.375448	0.082329	0.111034
	H86	H	0.615506	0.081819	0.914962
	H87	H	0.386259	0.901537	0.937665
	H88	H	0.905058	0.080733	0.627308
	H89	H	0.083170	0.069793	0.397576
	H90	H	0.095133	0.898886	0.629861
	H91	H	0.904964	0.898855	0.397079
	H92	H	0.089036	0.601785	0.918840
	H93	H	0.087545	0.371664	0.102970
	H94	H	0.900569	0.602930	0.105726
	H95	H	0.902511	0.370471	0.918611
	H96	H	0.403822	0.100712	0.611788
	H97	H	0.583464	0.869931	0.605006
	H98	H	0.589815	0.104390	0.419068
	H99	H	0.408866	0.869771	0.409996
	H100	H	0.595660	0.397237	0.130254
	H101	H	0.595085	0.579093	0.892883
	H102	H	0.398635	0.585596	0.131794
	H103	H	0.412345	0.386078	0.895767
	H104	H	0.109088	0.568881	0.423947
	H105	H	0.882447	0.569457	0.599895
	H106	H	0.115822	0.394862	0.606236
	H107	H	0.878129	0.390536	0.419491
	H108	H	0.904252	0.601691	0.107780
	H109	H	0.090940	0.368732	0.101913
	H110	H	0.086859	0.602034	0.918104
	H111	H	0.904971	0.369640	0.913717
	H112	H	0.077382	0.899640	0.624522
	H113	H	0.081385	0.085181	0.394726
	H114	H	0.902190	0.083798	0.628516
	H115	H	0.907128	0.888657	0.394662
	H116	H	0.608046	0.078608	0.935940
	H117	H	0.376448	0.085759	0.102058
	H118	H	0.613023	0.890160	0.102398
	H119	H	0.374913	0.902358	0.905040
	C120	C	0.371193	-0.006323	0.635859
	C121	C	0.615435	0.976705	0.634697
	C122	C	0.614782	-0.005287	0.391299
	C123	C	0.371461	0.977468	0.390580
	C124	C	0.618254	0.363180	0.021174
	C125	C	0.616953	0.607132	1.004370
	C126	C	0.374088	0.608778	0.020471
	C127	C	0.375292	0.364943	1.003752
	C128	C	0.004621	0.606815	0.390329
	C129	C	0.987135	0.608856	0.633006
	C130	C	0.005482	0.365928	0.630237
	C131	C	0.987183	0.363663	0.388643
	C132	C	0.874453	0.494364	0.133745
	C133	C	0.117674	0.477841	0.133316
	C134	C	0.118095	0.494167	0.888622
	C135	C	0.874803	0.477546	0.889170
	C136	C	0.115673	0.864767	0.520317
	C137	C	0.115417	0.107737	0.502801
	C138	C	0.872844	0.109408	0.520276
	C139	C	0.873318	0.864644	0.502702
	C140	C	0.502849	0.104691	0.893670
	C141	C	0.484961	0.109677	0.136287
	C142	C	0.503123	0.865424	0.133833
	C143	C	0.485762	0.863015	0.891555
	C144	C	0.372991	0.870756	0.689634
	C145	C	0.614215	0.098221	0.693813
	C146	C	0.614444	0.872819	0.332771
	C147	C	0.371838	0.100140	0.337060
	C148	C	0.673658	0.364068	0.897553
	C149	C	0.673084	0.605768	0.127517
	C150	C	0.319149	0.605618	0.896956
	C151	C	0.318745	0.369428	0.127026
	C152	C	0.881640	0.663545	0.390357
	C153	C	0.110211	0.664814	0.631721
	C154	C	0.882197	0.310775	0.630971
	C155	C	0.110214	0.306203	0.388731
	C156	C	0.882507	0.367343	0.687094
	C157	C	0.110388	0.607327	0.689044
	C158	C	0.880762	0.604450	0.335537
	C159	C	0.111116	0.365017	0.333207
	C160	C	0.375666	0.664190	0.897702
	C161	C	0.616545	0.664822	0.127334
	C162	C	0.618191	0.304369	0.898983
	C163	C	0.375764	0.311234	0.127114
	C164	C	0.673235	0.872961	0.389445
	C165	C	0.671602	0.098855	0.635535
	C166	C	0.315878	0.871202	0.631142
	C167	C	0.315836	0.100342	0.395295
	C168	C	0.877766	0.371277	0.187324
	C169	C	0.114886	0.600629	0.190134
	C170	C	0.118047	0.372219	0.830593
	C171	C	0.876103	0.600433	0.835295
	C172	C	0.171550	0.866359	0.397009
	C173	C	0.169593	0.106359	0.626501
	C174	C	0.816732	0.105542	0.397369
	C175	C	0.817107	0.867117	0.626202
	C176	C	0.380037	0.162630	0.894577
	C177	C	0.609366	0.163205	0.134811
	C178	C	0.379867	0.809672	0.132811
	C179	C	0.609530	0.807028	0.891822
	C180	C	0.378747	0.869178	0.187596
	C181	C	0.608268	0.106778	0.192702
	C182	C	0.378929	0.103771	0.838475
	C183	C	0.608775	0.863188	0.833974
	C184	C	0.875178	0.162788	0.396937
	C185	C	0.115261	0.165802	0.625081
	C186	C	0.115401	0.808185	0.397099
	C187	C	0.873975	0.808791	0.625383
	C188	C	0.174938	0.371814	0.889555
	C189	C	0.171362	0.601063	0.131014
	C190	C	0.820557	0.371107	0.129105
	C191	C	0.818236	0.600369	0.893444
	C192	C	0.393170	0.079519	0.615456
	C193	C	0.592350	0.892085	0.609913
	C194	C	0.591020	0.079313	0.416243
	C195	C	0.394122	0.891754	0.411003
	C196	C	0.595358	0.386770	0.106918
	C197	C	0.593650	0.584156	0.918442
	C198	C	0.396599	0.586809	0.106333
	C199	C	0.398980	0.385947	0.918033
	C200	C	0.091008	0.584115	0.413345
	C201	C	0.901177	0.585941	0.610018
	C202	C	0.091360	0.388290	0.606590
	C203	C	0.901133	0.386711	0.411507
	C204	C	0.896327	0.579652	0.112255
	C205	C	0.095850	0.392257	0.110256
	C206	C	0.094773	0.579621	0.912156
	C207	C	0.898065	0.392515	0.910517
	C208	C	0.092517	0.887761	0.606338
	C209	C	0.092947	0.084290	0.416740
	C210	C	0.895904	0.088059	0.605998
	C211	C	0.896425	0.886833	0.417042
	C212	C	0.588590	0.081042	0.916969
	C213	C	0.398954	0.088070	0.113027
	C214	C	0.589345	0.887631	0.111380
	C215	C	0.400000	0.885989	0.915263
	Zn216	Zn	0.493464	-0.016152	0.764115
	Zn217	Zn	0.492693	-0.013045	0.262309
	Zn218	Zn	0.745661	0.485724	0.011742
	Zn219	Zn	0.246701	0.486626	0.011159
	Zn220	Zn	-0.004830	0.735857	0.510867
	Zn221	Zn	-0.004435	0.237201	0.511366
	Zn222	Zn	-0.003552	0.485763	0.758862
	Zn223	Zn	-0.003758	0.485944	0.262691
	Zn224	Zn	0.495722	0.736472	0.013238
	Zn225	Zn	0.496264	0.235325	0.013239
	Zn226	Zn	0.744413	-0.013690	0.512495
	Zn227	Zn	0.243233	-0.013729	0.512332
	N228	N	0.406371	0.947994	0.692992
	N229	N	0.579953	0.021258	0.693517
	N230	N	0.578381	0.949251	0.333870
	N231	N	0.405682	0.022742	0.333856
	N232	N	0.673916	0.399853	0.974529
	N233	N	0.673343	0.570748	0.050076
	N234	N	0.317833	0.572127	0.974314
	N235	N	0.318587	0.402351	0.049376
	N236	N	0.959813	0.665146	0.423820
	N237	N	0.032292	0.666048	0.597644
	N238	N	0.959871	0.309542	0.596357
	N239	N	0.032092	0.305036	0.422364
	N240	N	0.960152	0.401134	0.686941
	N241	N	0.032881	0.573314	0.690030
	N242	N	0.958488	0.569945	0.335354
	N243	N	0.033636	0.400154	0.333060
	N244	N	0.408956	0.666236	0.975710
	N245	N	0.582269	0.665764	0.049805
	N246	N	0.584661	0.303351	0.977000
	N247	N	0.410306	0.308180	0.049567
	N248	N	0.673589	0.949758	0.425131
	N249	N	0.672639	0.022309	0.599605
	N250	N	0.314723	0.948569	0.598217
	N251	N	0.315355	0.023023	0.427758
	N252	N	0.910588	0.448793	0.190259
	N253	N	0.082239	0.523074	0.191576
	N254	N	0.083566	0.449356	0.829876
	N255	N	0.910471	0.523236	0.832269
	N256	N	0.171980	0.900816	0.474751
	N257	N	0.169859	0.070730	0.549328
	N258	N	0.815033	0.073088	0.475123
	N259	N	0.816549	0.901081	0.548996
	N260	N	0.458071	0.163241	0.928163
	N261	N	0.531626	0.165356	0.100628
	N262	N	0.458238	0.807341	0.100061
	N263	N	0.532250	0.806874	0.927132
	N264	N	0.456511	0.903118	0.188445
	N265	N	0.529978	0.074227	0.193558
	N266	N	0.456196	0.068174	0.837860
	N267	N	0.530799	0.897417	0.833704
	N268	N	0.909296	0.165353	0.474425
	N269	N	0.082271	0.166719	0.547189
	N270	N	0.081363	0.806992	0.474844
	N271	N	0.907928	0.806796	0.547434
	N272	N	0.175169	0.448808	0.924869
	N273	N	0.173488	0.523650	0.096646
	N274	N	0.818424	0.448442	0.096469
	N275	N	0.817051	0.522972	0.925902
	O276	O	0.866030	-0.020963	1.017437
	H277	H	0.871517	-0.022924	1.012124
	H278	H	0.869179	-0.017590	1.006206
	O279	O	0.596928	0.393355	0.429185
	H280	H	0.601229	0.402303	0.413280
	H281	H	0.600142	0.401466	0.424584
	O282	O	0.474700	0.626121	0.488677
	H283	H	0.476497	0.620265	0.491803
	H284	H	0.475170	0.618779	0.474479
	O285	O	0.350960	0.593472	0.411681
	H286	H	0.344664	0.603934	0.413294
	H287	H	0.351023	0.585938	0.424405
	O288	O	0.520708	0.540220	0.390700
	H289	H	0.518616	0.533206	0.398183
	H290	H	0.516699	0.546750	0.394849
	O291	O	0.062071	-0.047459	1.068167
	H292	H	0.070136	-0.040861	1.067108
	H293	H	0.066920	-0.054992	1.079939
	O294	O	0.934875	0.998697	-0.123366
	H295	H	0.939535	0.995344	-0.130128
	H296	H	0.925639	0.997239	-0.116207
	O297	O	1.359927	0.549938	0.505635
	H298	H	1.365733	0.551915	0.498907
	H299	H	1.355503	0.537802	0.519371
	O300	O	0.523048	0.637933	0.544899
	H301	H	0.511692	0.652840	0.549530
	H302	H	0.519057	0.636385	0.543148
	O303	O	0.486455	0.400083	0.599377
	H304	H	0.484906	0.399533	0.587707
	H305	H	0.492509	0.395088	0.602094
	O306	O	0.584149	0.392086	0.570565
	H307	H	0.597269	0.390984	0.566502
	H308	H	0.591669	0.396347	0.555474
	O309	O	0.596769	0.414999	0.494723
	H310	H	0.605100	0.410653	0.490318
	H311	H	0.602096	0.416721	0.488787
	O312	O	0.965762	1.023686	0.974882
	H313	H	0.962807	1.021466	0.971115
	H314	H	0.964560	1.012207	0.979018
	O315	O	0.937480	1.087317	0.114094
	H316	H	0.938146	1.074335	0.111868
	H317	H	0.934865	1.090458	0.106168
	O318	O	0.501196	0.557667	0.606938
	H319	H	0.494735	0.568219	0.610585
	H320	H	0.504849	0.551516	0.599959
	O321	O	1.073968	0.935943	0.001467
	H322	H	1.069739	0.922675	0.002289
	H323	H	1.083889	0.936529	-0.000105
	O324	O	-0.622035	1.456886	0.486819
	H325	H	-0.621679	1.459244	0.481414
	H326	H	-0.620656	1.473352	0.495837
	O327	O	-0.497180	1.544851	1.549761
	H328	H	-0.492594	1.532327	1.554687
	H329	H	-0.487128	1.550799	1.549842
	O330	O	-0.018230	0.031305	0.030825
	H331	H	-0.006378	0.033917	0.026204
	H332	H	-0.006425	0.026060	0.026546
	O333	O	1.034638	0.987314	0.044580
	H334	H	1.040152	0.990622	0.048186
	H335	H	1.021349	0.991729	0.038701
	O336	O	-0.009613	0.005991	-0.040168
	H337	H	-0.004691	0.012849	-0.051461
	H338	H	-0.008767	-0.000019	-0.053936
	O339	O	0.061501	0.052578	0.011356
	H340	H	0.058368	0.056614	0.006883
	H341	H	0.068939	0.043695	0.007635
	O342	O	0.457128	0.436206	0.560821
	H343	H	0.459936	0.439275	0.564776
	H344	H	0.455268	0.432308	0.547224
	O345	O	0.065662	0.922549	0.962250
	H346	H	0.063828	0.934164	0.961002
	H347	H	0.064695	0.920841	0.960113
	O348	O	0.534072	0.319256	0.341748
	H349	H	0.552370	0.307158	0.333112
	H350	H	0.548123	0.306377	0.332491
	O351	O	0.610316	0.434694	0.671333
	H352	H	0.618490	0.436114	0.669696
	H353	H	0.608446	0.446349	0.664088
	O354	O	-0.027598	0.896249	-0.010287
	H355	H	-0.020605	0.903227	-0.011135
	H356	H	-0.027908	0.896568	-0.013593
	O357	O	0.628467	0.462284	0.528226
	H358	H	0.632973	0.469995	0.532387
	H359	H	0.630800	0.461739	0.524933
	O360	O	0.479395	0.570771	0.624767
	H361	H	0.470311	0.562922	0.635685
	H362	H	0.483188	0.575627	0.622588
	O363	O	0.475073	0.642851	0.391126
	H364	H	0.450733	0.639584	0.392468
	H365	H	0.472649	0.645658	0.386047
	O366	O	0.868650	0.984802	-0.017830
	H367	H	0.865773	0.992342	-0.018854
	H368	H	0.875916	0.980432	-0.023352
	O369	O	1.050594	-0.094187	-0.018314
	H370	H	1.052288	-0.085373	-0.018213
	H371	H	1.050620	-0.089409	-0.012277
	O372	O	0.478237	0.432485	0.482057
	H373	H	0.492898	0.428349	0.489336
	H374	H	0.481670	0.436054	0.478949
	O375	O	1.114053	-0.039619	0.927518
	H376	H	1.122339	-0.037783	0.921175
	H377	H	1.115948	-0.050162	0.930359
	O378	O	0.010484	0.961406	0.116388
	H379	H	0.018965	0.955462	0.124913
	H380	H	0.004608	0.966395	0.112029
	O381	O	0.574617	0.472066	0.443536
	H382	H	0.565382	0.491711	0.443819
	H383	H	0.594308	0.466499	0.435740
	O384	O	0.969655	1.060280	-0.039493
	H385	H	0.968020	1.065554	-0.029016
	H386	H	0.954884	1.067520	-0.043456
	O387	O	0.903411	0.045335	0.945282
	H388	H	0.911698	0.052225	0.945380
	H389	H	0.898806	0.038667	0.944692
	O390	O	0.430809	1.428190	-0.421068
	H391	H	0.419417	1.423273	-0.415865
	H392	H	0.426615	1.419096	-0.431243
	O393	O	0.489416	0.412835	0.556998
	H394	H	0.486000	0.419754	0.551096
	H395	H	0.496431	0.409566	0.555253
