data_Molecule from HDF5

_cell_length_a		16.336421
_cell_length_b		16.001034
_cell_length_c		16.225410
_cell_angle_alpha	90.259240
_cell_angle_beta	91.630760
_cell_angle_gamma	89.858984
_symmetry_space_group_name_H-M	'P 1'
_symmetry_Int_Tables_number		1

loop_
	_symmetry_equiv_pos_as_xyz
	x,y,z

loop_
	_atom_site_label
	_atom_site_type_symbol
	_atom_site_fract_x
	_atom_site_fract_y
	_atom_site_fract_z
	H0	H	0.395437	0.835265	0.706654
	H1	H	0.591620	0.167657	0.719316
	H2	H	0.582580	0.835909	0.290220
	H3	H	0.384100	0.169181	0.285516
	H4	H	0.694342	0.400702	0.835631
	H5	H	0.709405	0.606824	0.161903
	H6	H	0.262464	0.601950	0.838225
	H7	H	0.276336	0.400559	0.166854
	H8	H	0.822366	0.714933	0.400829
	H9	H	0.151811	0.712014	0.604519
	H10	H	0.823593	0.287381	0.594929
	H11	H	0.152683	0.289012	0.412444
	H12	H	0.821554	0.403538	0.709741
	H13	H	0.146532	0.604930	0.727868
	H14	H	0.823850	0.600579	0.281479
	H15	H	0.150321	0.398015	0.290609
	H16	H	0.383097	0.712804	0.834870
	H17	H	0.586632	0.714153	0.165311
	H18	H	0.577040	0.288235	0.836134
	H19	H	0.397681	0.290496	0.167498
	H20	H	0.698743	0.835845	0.402962
	H21	H	0.706739	0.166772	0.607171
	H22	H	0.278770	0.835814	0.595506
	H23	H	0.268507	0.167282	0.397142
	H24	H	0.891447	0.333702	0.209387
	H25	H	0.085689	0.668010	0.218402
	H26	H	0.078924	0.335573	0.792783
	H27	H	0.881674	0.668091	0.785768
	H28	H	0.197424	0.901086	0.335740
	H29	H	0.210887	0.104422	0.663860
	H30	H	0.764149	0.103817	0.340347
	H31	H	0.777039	0.900153	0.665807
	H32	H	0.322638	0.213236	0.900276
	H33	H	0.651039	0.214289	0.103640
	H34	H	0.322682	0.788357	0.093121
	H35	H	0.650845	0.786597	0.909388
	H36	H	0.323235	0.903871	0.211403
	H37	H	0.647943	0.107612	0.226411
	H38	H	0.325850	0.102348	0.779661
	H39	H	0.651475	0.900619	0.790887
	H40	H	0.886519	0.213418	0.337226
	H41	H	0.087828	0.211582	0.668115
	H42	H	0.078817	0.787738	0.336616
	H43	H	0.898559	0.792859	0.668711
	H44	H	0.195314	0.335998	0.903881
	H45	H	0.202927	0.667332	0.106370
	H46	H	0.774563	0.335058	0.095998
	H47	H	0.767376	0.667012	0.897722
	H48	H	0.397415	0.121049	0.586524
	H49	H	0.593388	0.877056	0.603953
	H50	H	0.577995	0.119562	0.419494
	H51	H	0.399063	0.884154	0.403439
	H52	H	0.585696	0.408569	0.120119
	H53	H	0.576580	0.591490	0.881909
	H54	H	0.391999	0.594268	0.119221
	H55	H	0.387750	0.397609	0.880796
	H56	H	0.105638	0.593258	0.403201
	H57	H	0.870278	0.595773	0.592671
	H58	H	0.105662	0.396050	0.598808
	H59	H	0.871776	0.415058	0.401125
	H60	H	0.098299	0.418954	0.592707
	H61	H	0.868068	0.597108	0.594276
	H62	H	0.104775	0.601262	0.415371
	H63	H	0.866994	0.403097	0.396938
	H64	H	0.398313	0.592580	0.117232
	H65	H	0.573621	0.594082	0.882683
	H66	H	0.587758	0.412455	0.118454
	H67	H	0.377311	0.414366	0.882732
	H68	H	0.581750	0.123353	0.410915
	H69	H	0.572330	0.884253	0.599471
	H70	H	0.395110	0.123354	0.593244
	H71	H	0.391162	0.884962	0.411353
	H72	H	0.890817	0.623400	0.099323
	H73	H	0.093809	0.379540	0.091009
	H74	H	0.080087	0.623288	0.914179
	H75	H	0.907105	0.384280	0.896664
	H76	H	0.095013	0.899955	0.623711
	H77	H	0.086061	0.086895	0.383506
	H78	H	0.894879	0.099817	0.623371
	H79	H	0.884511	0.907867	0.382820
	H80	H	0.607057	0.095381	0.904066
	H81	H	0.370606	0.092613	0.093097
	H82	H	0.606111	0.904805	0.105718
	H83	H	0.368980	0.907393	0.897199
	H84	H	0.602205	0.906090	0.090496
	H85	H	0.368559	0.097596	0.094115
	H86	H	0.605804	0.101677	0.913609
	H87	H	0.370013	0.908193	0.901862
	H88	H	0.894935	0.088154	0.619009
	H89	H	0.067359	0.090282	0.387529
	H90	H	0.094659	0.918634	0.618071
	H91	H	0.890534	0.915253	0.386957
	H92	H	0.071602	0.621851	0.909130
	H93	H	0.079307	0.379143	0.107478
	H94	H	0.904291	0.618129	0.092478
	H95	H	0.886838	0.386847	0.923668
	H96	H	0.401486	0.122392	0.592304
	H97	H	0.587533	0.884412	0.583804
	H98	H	0.571358	0.119789	0.411293
	H99	H	0.388329	0.880695	0.400747
	H100	H	0.583001	0.410281	0.117684
	H101	H	0.577577	0.595676	0.880832
	H102	H	0.397248	0.599172	0.118522
	H103	H	0.394419	0.414594	0.888369
	H104	H	0.100648	0.587799	0.415079
	H105	H	0.869248	0.598416	0.591082
	H106	H	0.105929	0.413693	0.614801
	H107	H	0.871574	0.404708	0.409054
	H108	H	0.891500	0.618945	0.083693
	H109	H	0.072770	0.387215	0.087616
	H110	H	0.073100	0.620081	0.918835
	H111	H	0.873037	0.373477	0.893445
	H112	H	0.078234	0.908667	0.617031
	H113	H	0.079214	0.104695	0.380460
	H114	H	0.904788	0.094921	0.618128
	H115	H	0.895450	0.906819	0.384524
	H116	H	0.603287	0.089987	0.913406
	H117	H	0.370545	0.096738	0.088853
	H118	H	0.599664	0.918838	0.099673
	H119	H	0.371086	0.911640	0.898559
	C120	C	0.370568	0.011886	0.618193
	C121	C	0.612997	0.992085	0.625451
	C122	C	0.606025	0.011163	0.383453
	C123	C	0.363693	0.993561	0.376882
	C124	C	0.608858	0.380891	0.009529
	C125	C	0.607413	0.623297	0.990649
	C126	C	0.363401	0.623741	0.010021
	C127	C	0.363115	0.379601	0.993242
	C128	C	-0.004610	0.623303	0.379990
	C129	C	0.977443	0.625042	0.625047
	C130	C	-0.005183	0.380637	0.625543
	C131	C	0.978888	0.378096	0.378812
	C132	C	0.867382	0.509686	0.119532
	C133	C	0.110280	0.492315	0.125606
	C134	C	0.103088	0.511467	0.884348
	C135	C	0.861015	0.492373	0.877000
	C136	C	0.112064	0.879731	0.510364
	C137	C	0.109557	0.123219	0.492587
	C138	C	0.866060	0.123281	0.511681
	C139	C	0.865967	0.880801	0.493813
	C140	C	0.496841	0.124343	0.878484
	C141	C	0.477614	0.124828	0.124366
	C142	C	0.494660	0.881284	0.123055
	C143	C	0.478587	0.879482	0.876466
	C144	C	0.374422	0.885435	0.670620
	C145	C	0.611503	0.117616	0.681717
	C146	C	0.603414	0.885952	0.327193
	C147	C	0.364884	0.118889	0.322694
	C148	C	0.658527	0.381461	0.885135
	C149	C	0.668143	0.624388	0.113623
	C150	C	0.303146	0.621557	0.886546
	C151	C	0.312661	0.381251	0.117286
	C152	C	0.871855	0.678002	0.380394
	C153	C	0.101474	0.677262	0.625030
	C154	C	0.872216	0.325227	0.617279
	C155	C	0.102843	0.324296	0.388049
	C156	C	0.871096	0.383123	0.674560
	C157	C	0.098882	0.623592	0.686472
	C158	C	0.872452	0.621160	0.321018
	C159	C	0.101646	0.379108	0.327504
	C160	C	0.363000	0.676759	0.884836
	C161	C	0.607285	0.677842	0.115385
	C162	C	0.600169	0.325584	0.885331
	C163	C	0.372857	0.326080	0.117751
	C164	C	0.661250	0.885803	0.383612
	C165	C	0.668756	0.117205	0.625968
	C166	C	0.316436	0.885659	0.615203
	C167	C	0.307246	0.118027	0.378103
	C168	C	0.870797	0.383930	0.172551
	C169	C	0.106940	0.617954	0.181059
	C170	C	0.099783	0.385727	0.829374
	C171	C	0.862365	0.617972	0.823008
	C172	C	0.161489	0.881165	0.385477
	C173	C	0.170336	0.122981	0.615492
	C174	C	0.805350	0.122612	0.388624
	C175	C	0.814566	0.881884	0.617323
	C176	C	0.372512	0.177219	0.879699
	C177	C	0.601489	0.178515	0.124038
	C178	C	0.371558	0.826411	0.115680
	C179	C	0.602034	0.824026	0.885790
	C180	C	0.371891	0.883806	0.174497
	C181	C	0.599771	0.125314	0.185262
	C182	C	0.374291	0.121978	0.819524
	C183	C	0.602396	0.880946	0.827218
	C184	C	0.865976	0.177138	0.387111
	C185	C	0.109151	0.176437	0.617791
	C186	C	0.102922	0.824526	0.385825
	C187	C	0.875184	0.828272	0.618769
	C188	C	0.157756	0.385785	0.884658
	C189	C	0.165492	0.617476	0.125824
	C190	C	0.812951	0.384504	0.115647
	C191	C	0.805171	0.617519	0.878162
	C192	C	0.391640	0.099639	0.597150
	C193	C	0.591128	0.904825	0.602471
	C194	C	0.583658	0.098286	0.407063
	C195	C	0.386214	0.905965	0.398715
	C196	C	0.590842	0.403694	0.096442
	C197	C	0.582979	0.600426	0.904235
	C198	C	0.388364	0.601838	0.096114
	C199	C	0.381205	0.402210	0.906500
	C200	C	0.081321	0.600775	0.404213
	C201	C	0.891490	0.603441	0.599905
	C202	C	0.080921	0.402964	0.607429
	C203	C	0.892557	0.400832	0.397037
	C204	C	0.889145	0.597691	0.098185
	C205	C	0.088361	0.404638	0.102248
	C206	C	0.081350	0.599031	0.907405
	C207	C	0.882659	0.404448	0.898247
	C208	C	0.094655	0.902246	0.597050
	C209	C	0.084837	0.100593	0.406189
	C210	C	0.890849	0.100774	0.597888
	C211	C	0.884599	0.903225	0.407224
	C212	C	0.583119	0.102316	0.903249
	C213	C	0.392001	0.102351	0.099348
	C214	C	0.580600	0.903485	0.104243
	C215	C	0.392476	0.902244	0.894012
	Zn216	Zn	0.489524	0.002261	0.748275
	Zn217	Zn	0.486329	0.003683	0.253144
	Zn218	Zn	0.736651	0.501858	-0.001084
	Zn219	Zn	0.234271	0.501993	0.002484
	Zn220	Zn	-0.012426	0.752823	0.502810
	Zn221	Zn	-0.011772	0.251284	0.502812
	Zn222	Zn	-0.015933	0.502980	0.754153
	Zn223	Zn	-0.012541	0.500631	0.250401
	Zn224	Zn	0.486111	0.751275	-0.000162
	Zn225	Zn	0.487228	0.252076	0.001725
	Zn226	Zn	0.736796	0.001412	0.503267
	Zn227	Zn	0.239738	0.002397	0.499517
	N228	N	0.407448	0.964677	0.672684
	N229	N	0.577380	0.038957	0.681533
	N230	N	0.569839	0.964884	0.326970
	N231	N	0.399386	0.040263	0.321875
	N232	N	0.663939	0.415320	0.963307
	N233	N	0.668701	0.591552	0.034884
	N234	N	0.303193	0.589404	0.965241
	N235	N	0.306313	0.413587	0.038677
	N236	N	0.949260	0.679525	0.416259
	N237	N	0.024844	0.678197	0.587369
	N238	N	0.950159	0.323559	0.587548
	N239	N	0.025374	0.323390	0.418934
	N240	N	0.948413	0.417040	0.679934
	N241	N	0.020593	0.592125	0.686630
	N242	N	0.950394	0.587901	0.320628
	N243	N	0.023513	0.411986	0.321629
	N244	N	0.399943	0.678339	0.962424
	N245	N	0.569974	0.677164	0.038140
	N246	N	0.570053	0.324964	0.963819
	N247	N	0.403380	0.324607	0.039534
	N248	N	0.662722	0.964690	0.418109
	N249	N	0.669916	0.038308	0.591601
	N250	N	0.313865	0.965201	0.583225
	N251	N	0.306272	0.038952	0.410944
	N252	N	0.904072	0.462943	0.174821
	N253	N	0.073641	0.538930	0.181334
	N254	N	0.066527	0.464923	0.828895
	N255	N	0.896291	0.539037	0.821926
	N256	N	0.167734	0.914472	0.463904
	N257	N	0.170565	0.090680	0.536565
	N258	N	0.804987	0.090034	0.467234
	N259	N	0.808550	0.913790	0.538520
	N260	N	0.449786	0.178721	0.915878
	N261	N	0.524702	0.178324	0.086652
	N262	N	0.448944	0.824693	0.084576
	N263	N	0.524061	0.822958	0.915749
	N264	N	0.449611	0.917023	0.179374
	N265	N	0.521767	0.092617	0.185399
	N266	N	0.452766	0.089866	0.818687
	N267	N	0.524775	0.914491	0.821105
	N268	N	0.902907	0.177904	0.464565
	N269	N	0.072018	0.176720	0.540473
	N270	N	0.073180	0.823040	0.464392
	N271	N	0.906595	0.827475	0.540886
	N272	N	0.159833	0.464921	0.918440
	N273	N	0.167737	0.538244	0.092076
	N274	N	0.810742	0.464027	0.083436
	N275	N	0.803965	0.538503	0.911105
	O276	O	0.006162	-0.004010	0.012418
	H277	H	0.006524	-0.005153	0.015543
	H278	H	0.003624	-0.007648	0.016190
	O279	O	0.481697	0.475240	0.528981
	H280	H	0.486686	0.477767	0.525525
	H281	H	0.476446	0.469924	0.523926
	O282	O	0.572438	0.565468	0.582701
	H283	H	0.568723	0.563390	0.575475
	H284	H	0.579916	0.562381	0.572309
	O285	O	0.048744	0.994696	1.050926
	H286	H	0.040127	1.000983	1.048282
	H287	H	0.034178	1.000286	1.051815
	O288	O	0.388777	0.587175	0.548169
	H289	H	0.389353	0.587525	0.553885
	H290	H	0.396488	0.587347	0.548654
	O291	O	0.900067	0.984755	1.037232
	H292	H	0.897069	0.992185	1.044360
	H293	H	0.908930	0.981279	1.044628
	O294	O	1.550635	0.436435	0.466285
	H295	H	1.551779	0.436173	0.467340
	H296	H	1.548317	0.430438	0.469736
	O297	O	0.925017	-0.033611	0.936409
	H298	H	0.940808	-0.038971	0.939173
	H299	H	0.942947	-0.028270	0.920376
	O300	O	0.474575	0.565270	0.552496
	H301	H	0.464043	0.561107	0.557284
	H302	H	0.472161	0.568667	0.540778
	O303	O	0.950729	-0.053550	-0.063708
	H304	H	0.955771	-0.058016	-0.065467
	H305	H	0.942591	-0.054853	-0.067657
	O306	O	-0.068979	1.009214	1.030357
	H307	H	-0.077977	1.008007	1.019441
	H308	H	-0.061215	1.004557	1.030934
	O309	O	0.348429	0.553934	0.425510
	H310	H	0.338868	0.559638	0.409805
	H311	H	0.356396	0.553172	0.435803
	O312	O	0.995675	-0.012058	1.011629
	H313	H	0.986388	-0.013968	1.012357
	H314	H	0.992268	-0.007313	1.002497
	O315	O	0.412713	0.579681	0.448080
	H316	H	0.413464	0.571328	0.463336
	H317	H	0.402365	0.590779	0.446029
	O318	O	0.405353	0.501791	0.484473
	H319	H	0.398227	0.518469	0.478867
	H320	H	0.387453	0.508630	0.480017
	O321	O	1.017927	0.910795	1.040914
	H322	H	1.013771	0.921968	1.037908
	H323	H	1.005835	0.915688	1.044389
	O324	O	1.021882	0.061340	0.165944
	H325	H	1.024050	0.062435	0.166830
	H326	H	1.016585	0.068225	0.161539
	O327	O	0.482309	0.497801	0.495890
	H328	H	0.489693	0.500312	0.489622
	H329	H	0.483269	0.500418	0.496255
	O330	O	0.952897	-0.016309	1.054662
	H331	H	0.952258	-0.008601	1.048049
	H332	H	0.947027	-0.018202	1.056136
	O333	O	1.500794	1.538912	-0.578060
	H334	H	1.506246	1.539202	-0.572056
	H335	H	1.497975	1.537486	-0.578153
	O336	O	1.073535	1.045941	1.120953
	H337	H	1.078878	1.048208	1.125328
	H338	H	1.066865	1.056196	1.123880
	O339	O	0.549612	0.449278	0.524483
	H340	H	0.565631	0.455596	0.521023
	H341	H	0.557661	0.452912	0.520094
	O342	O	-0.052850	1.041623	0.015353
	H343	H	-0.057899	1.037278	0.007400
	H344	H	-0.056675	1.044178	0.011277
	O345	O	0.045042	-0.035634	-0.025896
	H346	H	0.060135	-0.040206	-0.017826
	H347	H	0.043372	-0.028755	-0.027234
	O348	O	0.417118	0.542674	0.397822
	H349	H	0.406709	0.558731	0.401684
	H350	H	0.420189	0.547269	0.397489
	O351	O	0.481014	0.472757	0.478902
	H352	H	0.483608	0.478914	0.482449
	H353	H	0.486456	0.479093	0.476477
	O354	O	0.544796	0.469880	0.508575
	H355	H	0.548431	0.466709	0.505931
	H356	H	0.530722	0.465055	0.505936
	O357	O	0.450469	0.479828	0.450934
	H358	H	0.438707	0.468678	0.444641
	H359	H	0.449286	0.480855	0.442278
	O360	O	0.047383	0.078160	-0.047543
	H361	H	0.057105	0.083106	-0.048366
	H362	H	0.046669	0.070452	-0.036961
	O363	O	0.493087	0.465011	0.524212
	H364	H	0.488653	0.450577	0.536561
	H365	H	0.486205	0.464619	0.522394
	O366	O	0.062741	-0.077658	0.976345
	H367	H	0.061439	-0.077609	0.990616
	H368	H	0.067655	-0.088059	0.983216
	O369	O	0.482251	0.462803	0.501599
	H370	H	0.476355	0.468772	0.503253
	H371	H	0.490215	0.473318	0.521954
