data_Molecule from HDF5

_cell_length_a		16.152438
_cell_length_b		16.202601
_cell_length_c		16.381230
_cell_angle_alpha	89.908409
_cell_angle_beta	89.940320
_cell_angle_gamma	90.121008
_symmetry_space_group_name_H-M	'P 1'
_symmetry_Int_Tables_number		1

loop_
	_symmetry_equiv_pos_as_xyz
	x,y,z

loop_
	_atom_site_label
	_atom_site_type_symbol
	_atom_site_fract_x
	_atom_site_fract_y
	_atom_site_fract_z
	H0	H	0.387700	0.837805	0.708105
	H1	H	0.594918	0.163222	0.707877
	H2	H	0.593441	0.837816	0.274182
	H3	H	0.390974	0.164696	0.274421
	H4	H	0.708831	0.402535	0.827335
	H5	H	0.707914	0.599118	0.154138
	H6	H	0.278239	0.599322	0.827842
	H7	H	0.277885	0.400664	0.153654
	H8	H	0.828358	0.713931	0.391233
	H9	H	0.157300	0.715011	0.588973
	H10	H	0.827079	0.286365	0.588837
	H11	H	0.158449	0.287972	0.394088
	H12	H	0.829048	0.397714	0.707957
	H13	H	0.156533	0.601133	0.705874
	H14	H	0.829393	0.600041	0.275042
	H15	H	0.157364	0.400820	0.276407
	H16	H	0.392932	0.716644	0.828672
	H17	H	0.592050	0.716161	0.153784
	H18	H	0.593074	0.285441	0.827663
	H19	H	0.395438	0.286091	0.153865
	H20	H	0.704693	0.835915	0.391927
	H21	H	0.705748	0.164975	0.587144
	H22	H	0.279971	0.835321	0.586121
	H23	H	0.280478	0.166720	0.394767
	H24	H	0.891974	0.336993	0.207334
	H25	H	0.095202	0.663623	0.207073
	H26	H	0.094254	0.336632	0.775270
	H27	H	0.892803	0.664034	0.773997
	H28	H	0.205725	0.904409	0.327185
	H29	H	0.206619	0.099695	0.653768
	H30	H	0.776938	0.098950	0.327042
	H31	H	0.773826	0.897958	0.652572
	H32	H	0.328133	0.215084	0.892820
	H33	H	0.657238	0.212889	0.088241
	H34	H	0.327337	0.786675	0.088898
	H35	H	0.657176	0.788500	0.892821
	H36	H	0.327877	0.900291	0.205524
	H37	H	0.655648	0.101914	0.206358
	H38	H	0.328608	0.100921	0.775804
	H39	H	0.654650	0.898787	0.773774
	H40	H	0.891689	0.217339	0.328305
	H41	H	0.090457	0.215138	0.653551
	H42	H	0.091308	0.786209	0.327922
	H43	H	0.892358	0.783574	0.652727
	H44	H	0.205433	0.336127	0.894982
	H45	H	0.205081	0.665685	0.086665
	H46	H	0.780780	0.335886	0.087783
	H47	H	0.781882	0.666095	0.893395
	H48	H	0.406273	0.115164	0.581324
	H49	H	0.580658	0.884120	0.584322
	H50	H	0.592836	0.122134	0.389800
	H51	H	0.407211	0.889796	0.407033
	H52	H	0.586946	0.407900	0.106532
	H53	H	0.581118	0.600144	0.875636
	H54	H	0.393286	0.591015	0.108081
	H55	H	0.400443	0.403727	0.874385
	H56	H	0.109855	0.588610	0.397920
	H57	H	0.879449	0.582182	0.581677
	H58	H	0.109691	0.413219	0.586590
	H59	H	0.872822	0.407692	0.392409
	H60	H	0.110993	0.403341	0.585476
	H61	H	0.871790	0.592988	0.591450
	H62	H	0.112738	0.594198	0.394472
	H63	H	0.875101	0.404311	0.401591
	H64	H	0.405235	0.588350	0.103936
	H65	H	0.594165	0.596621	0.872858
	H66	H	0.585935	0.406205	0.106620
	H67	H	0.395975	0.407396	0.874137
	H68	H	0.572392	0.116341	0.392913
	H69	H	0.580416	0.884247	0.581743
	H70	H	0.394928	0.118288	0.580392
	H71	H	0.385744	0.880675	0.399546
	H72	H	0.912476	0.616681	0.091237
	H73	H	0.084031	0.381921	0.089192
	H74	H	0.091389	0.619255	0.899905
	H75	H	0.900428	0.386872	0.908480
	H76	H	0.080699	0.904133	0.606903
	H77	H	0.089123	0.089567	0.375003
	H78	H	0.896892	0.091560	0.606509
	H79	H	0.902197	0.902959	0.375134
	H80	H	0.606906	0.081110	0.897556
	H81	H	0.374623	0.091116	0.085738
	H82	H	0.607500	0.914696	0.084423
	H83	H	0.379887	0.913886	0.909854
	H84	H	0.612134	0.906400	0.088368
	H85	H	0.373094	0.094889	0.084268
	H86	H	0.614613	0.097398	0.888329
	H87	H	0.373346	0.916597	0.889036
	H88	H	0.900005	0.090688	0.604447
	H89	H	0.079977	0.094710	0.376139
	H90	H	0.090538	0.903182	0.609107
	H91	H	0.893490	0.905648	0.372858
	H92	H	0.082451	0.619372	0.889568
	H93	H	0.081658	0.385491	0.082264
	H94	H	0.901588	0.615042	0.073471
	H95	H	0.893521	0.379511	0.892944
	H96	H	0.400226	0.120006	0.590901
	H97	H	0.582950	0.883838	0.582988
	H98	H	0.586315	0.115046	0.408210
	H99	H	0.405062	0.881730	0.384586
	H100	H	0.588121	0.406006	0.106325
	H101	H	0.585922	0.587700	0.877186
	H102	H	0.402381	0.600323	0.108103
	H103	H	0.400985	0.409470	0.875078
	H104	H	0.109920	0.594773	0.401220
	H105	H	0.875455	0.597054	0.575657
	H106	H	0.107215	0.408585	0.578503
	H107	H	0.878279	0.414088	0.399342
	H108	H	0.892097	0.623427	0.090703
	H109	H	0.089368	0.382151	0.083178
	H110	H	0.078691	0.614702	0.901932
	H111	H	0.911770	0.385100	0.893669
	H112	H	0.086892	0.911998	0.605301
	H113	H	0.088093	0.099221	0.372511
	H114	H	0.899599	0.094602	0.606340
	H115	H	0.899467	0.912160	0.377236
	H116	H	0.609518	0.098410	0.907064
	H117	H	0.375197	0.092489	0.080843
	H118	H	0.610009	0.906487	0.078805
	H119	H	0.370223	0.896596	0.898660
	C120	C	0.370515	0.009337	0.612530
	C121	C	0.611967	0.991831	0.611552
	C122	C	0.612749	0.009158	0.368802
	C123	C	0.370264	0.992730	0.368731
	C124	C	0.615946	0.378516	-0.001077
	C125	C	0.615507	0.623337	0.982462
	C126	C	0.371225	0.622516	-0.000891
	C127	C	0.371065	0.378332	0.982359
	C128	C	0.002081	0.621751	0.369084
	C129	C	0.984036	0.620877	0.611852
	C130	C	0.000928	0.378694	0.612281
	C131	C	0.984364	0.379461	0.369693
	C132	C	0.872671	0.509280	0.112796
	C133	C	0.114377	0.491911	0.112878
	C134	C	0.113952	0.509391	0.869125
	C135	C	0.872554	0.492153	0.869235
	C136	C	0.114157	0.878551	0.499115
	C137	C	0.114111	0.123033	0.482508
	C138	C	0.869999	0.121811	0.498350
	C139	C	0.869258	0.877287	0.482008
	C140	C	0.501370	0.121746	0.869199
	C141	C	0.483335	0.121596	0.112030
	C142	C	0.501099	0.879486	0.112513
	C143	C	0.482967	0.879453	0.869616
	C144	C	0.369898	0.886390	0.669062
	C145	C	0.613115	0.114687	0.668535
	C146	C	0.612052	0.886388	0.312702
	C147	C	0.372070	0.115964	0.313301
	C148	C	0.670928	0.381900	0.876040
	C149	C	0.670120	0.619902	0.105472
	C150	C	0.315909	0.620078	0.876765
	C151	C	0.316210	0.380932	0.105042
	C152	C	0.877774	0.676320	0.371479
	C153	C	0.107998	0.677051	0.609384
	C154	C	0.876732	0.323385	0.609753
	C155	C	0.108774	0.324484	0.372852
	C156	C	0.877637	0.378756	0.668914
	C157	C	0.107707	0.620572	0.667423
	C158	C	0.878294	0.620016	0.313378
	C159	C	0.108365	0.380725	0.314372
	C160	C	0.373393	0.678058	0.877034
	C161	C	0.612878	0.678373	0.105213
	C162	C	0.613764	0.323121	0.876465
	C163	C	0.374526	0.323488	0.105099
	C164	C	0.667408	0.885334	0.371385
	C165	C	0.668251	0.115642	0.608642
	C166	C	0.316011	0.885092	0.608495
	C167	C	0.316457	0.116752	0.372632
	C168	C	0.873011	0.385912	0.168775
	C169	C	0.113958	0.615055	0.168360
	C170	C	0.113273	0.385744	0.813772
	C171	C	0.873478	0.615473	0.812776
	C172	C	0.168449	0.882651	0.375986
	C173	C	0.168794	0.119903	0.605221
	C174	C	0.814924	0.119251	0.375915
	C175	C	0.812498	0.878276	0.604006
	C176	C	0.377444	0.177357	0.872100
	C177	C	0.607767	0.176095	0.108957
	C178	C	0.376920	0.823697	0.110058
	C179	C	0.607474	0.825286	0.872210
	C180	C	0.377127	0.880302	0.167890
	C181	C	0.607059	0.120717	0.167514
	C182	C	0.377630	0.120761	0.814039
	C183	C	0.606248	0.880520	0.813181
	C184	C	0.871923	0.178134	0.376543
	C185	C	0.111177	0.177446	0.605086
	C186	C	0.111362	0.824144	0.376388
	C187	C	0.871542	0.821386	0.604180
	C188	C	0.168463	0.385347	0.873087
	C189	C	0.169052	0.615945	0.108952
	C190	C	0.817631	0.385379	0.109428
	C191	C	0.818353	0.616408	0.872259
	C192	C	0.393574	0.095437	0.590628
	C193	C	0.588381	0.906248	0.589366
	C194	C	0.590472	0.095497	0.390568
	C195	C	0.392658	0.906205	0.390738
	C196	C	0.593705	0.400250	0.084223
	C197	C	0.593588	0.601417	0.897365
	C198	C	0.393764	0.599786	0.084587
	C199	C	0.392717	0.400320	0.896528
	C200	C	0.088642	0.599354	0.391250
	C201	C	0.897959	0.597570	0.589594
	C202	C	0.087133	0.401622	0.590093
	C203	C	0.897805	0.401997	0.391489
	C204	C	0.895492	0.596038	0.091212
	C205	C	0.091817	0.405442	0.091287
	C206	C	0.091018	0.595398	0.890701
	C207	C	0.895357	0.406074	0.891622
	C208	C	0.092451	0.900051	0.584975
	C209	C	0.092236	0.100994	0.396886
	C210	C	0.892059	0.098957	0.583676
	C211	C	0.891620	0.900217	0.396936
	C212	C	0.587885	0.099035	0.891085
	C213	C	0.396767	0.099370	0.090165
	C214	C	0.587469	0.902534	0.090435
	C215	C	0.396741	0.902266	0.892462
	Zn216	Zn	0.491475	0.000388	0.741108
	Zn217	Zn	0.492013	0.000870	0.240244
	Zn218	Zn	0.744781	0.501396	-0.009378
	Zn219	Zn	0.241768	0.500904	-0.009065
	Zn220	Zn	-0.007455	0.749008	0.490765
	Zn221	Zn	-0.007714	0.251071	0.490727
	Zn222	Zn	-0.007086	0.500046	0.740293
	Zn223	Zn	-0.006581	0.500541	0.241698
	Zn224	Zn	0.492705	0.752123	-0.008725
	Zn225	Zn	0.493021	0.249313	-0.009275
	Zn226	Zn	0.740371	-0.000334	0.490111
	Zn227	Zn	0.242686	0.000923	0.491131
	N228	N	0.403271	0.964644	0.671633
	N229	N	0.578733	0.036869	0.670516
	N230	N	0.578621	0.964460	0.311121
	N231	N	0.404581	0.037543	0.310542
	N232	N	0.672283	0.415823	0.953013
	N233	N	0.671940	0.586226	0.028287
	N234	N	0.314594	0.586091	0.953847
	N235	N	0.313876	0.414534	0.027829
	N236	N	0.955660	0.677364	0.405537
	N237	N	0.030144	0.677267	0.575362
	N238	N	0.954399	0.323229	0.575411
	N239	N	0.030710	0.323766	0.406619
	N240	N	0.955859	0.412457	0.670696
	N241	N	0.029832	0.586149	0.668865
	N242	N	0.956541	0.586722	0.311959
	N243	N	0.029998	0.413839	0.312078
	N244	N	0.406976	0.679549	0.954085
	N245	N	0.579800	0.680961	0.027984
	N246	N	0.580002	0.321046	0.953607
	N247	N	0.407895	0.321975	0.027825
	N248	N	0.668114	0.962696	0.405480
	N249	N	0.667844	0.038355	0.573994
	N250	N	0.316266	0.962477	0.574036
	N251	N	0.315301	0.039009	0.406455
	N252	N	0.906480	0.464165	0.171095
	N253	N	0.080728	0.536752	0.171001
	N254	N	0.080088	0.463859	0.810967
	N255	N	0.906265	0.537200	0.810758
	N256	N	0.170139	0.915902	0.453280
	N257	N	0.170952	0.086989	0.527866
	N258	N	0.813692	0.084834	0.452754
	N259	N	0.811183	0.912461	0.527087
	N260	N	0.455428	0.177968	0.905847
	N261	N	0.529851	0.176815	0.074968
	N262	N	0.454953	0.823347	0.076161
	N263	N	0.529740	0.824313	0.906574
	N264	N	0.455244	0.914270	0.169677
	N265	N	0.528762	0.087236	0.169404
	N266	N	0.455713	0.087220	0.811990
	N267	N	0.527851	0.913422	0.811422
	N268	N	0.905382	0.179804	0.453681
	N269	N	0.077874	0.179350	0.527908
	N270	N	0.078469	0.821456	0.453910
	N271	N	0.906095	0.820566	0.527468
	N272	N	0.169029	0.463023	0.906893
	N273	N	0.169194	0.538383	0.075024
	N274	N	0.817594	0.462905	0.075151
	N275	N	0.817674	0.538866	0.906579
	O276	O	0.448864	0.459882	0.557317
	H277	H	0.452665	0.459964	0.553546
	H278	H	0.457668	0.463476	0.556520
	O279	O	0.445668	0.533922	0.545494
	H280	H	0.452881	0.536604	0.541785
	H281	H	0.452014	0.540119	0.541765
	O282	O	0.527024	0.452878	0.438052
	H283	H	0.524208	0.458112	0.424417
	H284	H	0.525647	0.445406	0.442000
	O285	O	0.586236	0.552678	1.480369
	H286	H	0.580017	0.552100	1.481181
	H287	H	0.582149	0.544766	1.489125
	O288	O	0.534819	0.472606	0.543693
	H289	H	0.541230	0.470004	0.544011
	H290	H	0.539417	0.464522	0.530078
	O291	O	-0.041843	0.069754	0.989642
	H292	H	-0.049723	0.075315	0.987998
	H293	H	-0.043511	0.069530	0.994615
	O294	O	0.895904	1.004972	1.039813
	H295	H	0.884720	0.998674	1.040763
	H296	H	0.897984	1.002603	1.036416
	O297	O	0.544319	0.510197	0.570114
	H298	H	0.548642	0.509998	0.574523
	H299	H	0.540597	0.520025	0.579897
	O300	O	0.480449	0.516456	0.473742
	H301	H	0.477692	0.516406	0.472031
	H302	H	0.485094	0.522396	0.475595
	O303	O	0.452723	0.490736	0.525763
	H304	H	0.446856	0.492297	0.527561
	H305	H	0.462022	0.488110	0.524924
	O306	O	1.622606	0.562490	0.447179
	H307	H	1.618273	0.555094	0.444872
	H308	H	1.623614	0.567872	0.438262
	O309	O	0.445089	0.549513	0.488712
	H310	H	0.449253	0.548688	0.484794
	H311	H	0.438685	0.548497	0.491646
	O312	O	0.505509	0.553711	0.569002
	H313	H	0.509202	0.544526	0.579679
	H314	H	0.499248	0.556205	0.569681
	O315	O	0.944953	0.061980	1.048261
	H316	H	0.943017	0.059050	1.051579
	H317	H	0.941588	0.057741	1.052457
	O318	O	-0.517506	-0.544193	0.466826
	H319	H	-0.520957	-0.536559	0.464010
	H320	H	-0.520465	-0.541218	0.471732
	O321	O	0.490807	0.462505	0.509985
	H322	H	0.482325	0.476981	0.516278
	H323	H	0.480797	0.453929	0.512951
	O324	O	0.946154	0.030577	0.006787
	H325	H	0.951910	0.035427	0.002318
	H326	H	0.945154	0.041035	0.005027
	O327	O	0.914018	1.015927	0.019476
	H328	H	0.912130	1.028100	0.021215
	H329	H	0.924976	1.015803	0.020185
	O330	O	0.564558	0.482819	0.410599
	H331	H	0.558949	0.480706	0.419779
	H332	H	0.569268	0.485013	0.412973
	O333	O	0.404826	0.555315	0.524066
	H334	H	0.395667	0.552389	0.531634
	H335	H	0.413339	0.546566	0.518337
