data_Molecule from HDF5

_cell_length_a		16.439403
_cell_length_b		16.414833
_cell_length_c		16.434565
_cell_angle_alpha	89.973847
_cell_angle_beta	90.028698
_cell_angle_gamma	89.856307
_symmetry_space_group_name_H-M	'P 1'
_symmetry_Int_Tables_number		1

loop_
	_symmetry_equiv_pos_as_xyz
	x,y,z

loop_
	_atom_site_label
	_atom_site_type_symbol
	_atom_site_fract_x
	_atom_site_fract_y
	_atom_site_fract_z
	H0	H	0.386468	0.851054	0.737007
	H1	H	0.599058	0.165689	0.741620
	H2	H	0.593988	0.851158	0.296178
	H3	H	0.379602	0.166985	0.292727
	H4	H	0.714843	0.399959	0.860164
	H5	H	0.713078	0.617214	0.174190
	H6	H	0.267786	0.615283	0.857478
	H7	H	0.265385	0.402426	0.172541
	H8	H	0.830471	0.729642	0.409743
	H9	H	0.147430	0.727704	0.619926
	H10	H	0.831735	0.285645	0.623025
	H11	H	0.145489	0.282756	0.407653
	H12	H	0.831335	0.400191	0.738923
	H13	H	0.146654	0.613379	0.737008
	H14	H	0.830772	0.614458	0.293598
	H15	H	0.147472	0.401827	0.294687
	H16	H	0.383922	0.732164	0.858394
	H17	H	0.593855	0.729607	0.175681
	H18	H	0.598182	0.285034	0.859997
	H19	H	0.378524	0.284475	0.172416
	H20	H	0.709671	0.851380	0.410799
	H21	H	0.713785	0.165497	0.626197
	H22	H	0.270383	0.850586	0.621348
	H23	H	0.263240	0.165789	0.408044
	H24	H	0.881502	0.351326	0.239576
	H25	H	0.093764	0.665853	0.236228
	H26	H	0.097593	0.351209	0.791548
	H27	H	0.880018	0.665803	0.792044
	H28	H	0.210794	0.903405	0.358572
	H29	H	0.213359	0.117574	0.674218
	H30	H	0.762816	0.119087	0.360771
	H31	H	0.764273	0.899435	0.673242
	H32	H	0.333064	0.234710	0.905090
	H33	H	0.645124	0.234287	0.125057
	H34	H	0.330293	0.792369	0.117923
	H35	H	0.647415	0.786674	0.910956
	H36	H	0.331160	0.907183	0.235920
	H37	H	0.644973	0.119277	0.241796
	H38	H	0.332645	0.117327	0.791040
	H39	H	0.647651	0.901188	0.793603
	H40	H	0.877452	0.234957	0.360703
	H41	H	0.098233	0.234081	0.672490
	H42	H	0.093209	0.788438	0.358138
	H43	H	0.881803	0.785283	0.673246
	H44	H	0.215088	0.352844	0.904533
	H45	H	0.205461	0.667796	0.117371
	H46	H	0.763697	0.353039	0.127073
	H47	H	0.766991	0.666771	0.910453
	H48	H	0.399096	0.123304	0.604839
	H49	H	0.571726	0.898781	0.603874
	H50	H	0.579553	0.123068	0.430669
	H51	H	0.400751	0.894819	0.423371
	H52	H	0.574590	0.427899	0.126106
	H53	H	0.576477	0.604020	0.901725
	H54	H	0.385354	0.600407	0.133648
	H55	H	0.400100	0.430541	0.905841
	H56	H	0.104280	0.600882	0.424818
	H57	H	0.871948	0.605277	0.607212
	H58	H	0.100727	0.422991	0.605771
	H59	H	0.879670	0.424045	0.432409
	H60	H	0.101343	0.418740	0.602387
	H61	H	0.878245	0.596375	0.595578
	H62	H	0.100519	0.598346	0.430021
	H63	H	0.876218	0.424651	0.423431
	H64	H	0.402169	0.589998	0.124967
	H65	H	0.583898	0.594547	0.903272
	H66	H	0.571658	0.419920	0.127819
	H67	H	0.410055	0.420745	0.905512
	H68	H	0.573869	0.122707	0.426453
	H69	H	0.581157	0.897035	0.600132
	H70	H	0.402951	0.122356	0.605322
	H71	H	0.403271	0.897915	0.428963
	H72	H	0.904573	0.619166	0.102142
	H73	H	0.078674	0.393488	0.103825
	H74	H	0.068653	0.619234	0.924033
	H75	H	0.905934	0.397534	0.928620
	H76	H	0.077901	0.914839	0.631703
	H77	H	0.073807	0.092752	0.406753
	H78	H	0.899793	0.096837	0.629495
	H79	H	0.896084	0.923754	0.402874
	H80	H	0.598886	0.094131	0.933793
	H81	H	0.377725	0.093495	0.102493
	H82	H	0.602137	0.919184	0.099946
	H83	H	0.377512	0.919600	0.932357
	H84	H	0.603628	0.926045	0.110855
	H85	H	0.375530	0.096842	0.106628
	H86	H	0.601744	0.093919	0.925862
	H87	H	0.377825	0.926263	0.924913
	H88	H	0.901811	0.091310	0.626870
	H89	H	0.075507	0.096671	0.404564
	H90	H	0.083041	0.919484	0.631122
	H91	H	0.903011	0.923657	0.405506
	H92	H	0.079209	0.619965	0.934044
	H93	H	0.077652	0.393717	0.105521
	H94	H	0.896310	0.622657	0.101909
	H95	H	0.900075	0.396650	0.932202
	H96	H	0.401726	0.122094	0.601678
	H97	H	0.578777	0.894256	0.609636
	H98	H	0.574216	0.121134	0.433057
	H99	H	0.396423	0.894953	0.428920
	H100	H	0.579894	0.422017	0.129829
	H101	H	0.572479	0.593941	0.907002
	H102	H	0.403641	0.610590	0.131559
	H103	H	0.397887	0.417868	0.900103
	H104	H	0.101612	0.594494	0.424745
	H105	H	0.875529	0.590365	0.609717
	H106	H	0.099481	0.423641	0.599927
	H107	H	0.874942	0.416108	0.428261
	H108	H	0.901204	0.623351	0.109361
	H109	H	0.077263	0.394506	0.103943
	H110	H	0.081788	0.625240	0.921315
	H111	H	0.900993	0.395236	0.925681
	H112	H	0.076569	0.921024	0.629194
	H113	H	0.078095	0.092858	0.405592
	H114	H	0.905632	0.096473	0.627226
	H115	H	0.900196	0.917047	0.403137
	H116	H	0.602252	0.100208	0.930848
	H117	H	0.376924	0.099032	0.102113
	H118	H	0.607101	0.913543	0.109894
	H119	H	0.374330	0.917231	0.922658
	C120	C	0.369235	0.017927	0.637217
	C121	C	0.611350	1.000170	0.638766
	C122	C	0.609432	0.018133	0.395950
	C123	C	0.366564	1.000312	0.394610
	C124	C	0.610112	0.388572	0.024753
	C125	C	0.610331	0.630050	1.008472
	C126	C	0.365938	0.632365	0.025001
	C127	C	0.367561	0.388551	1.006956
	C128	C	-0.002476	0.630411	0.393727
	C129	C	0.979680	0.629805	0.636972
	C130	C	-0.002933	0.387611	0.636707
	C131	C	0.980419	0.386679	0.394314
	C132	C	0.867413	0.517669	0.137926
	C133	C	0.109497	0.498881	0.136279
	C134	C	0.110318	0.517206	0.893071
	C135	C	0.867644	0.500365	0.895033
	C136	C	0.111089	0.886685	0.525671
	C137	C	0.110078	0.129035	0.508724
	C138	C	0.867433	0.129621	0.524919
	C139	C	0.866792	0.887798	0.507886
	C140	C	0.497780	0.130148	0.895060
	C141	C	0.479955	0.131333	0.138216
	C142	C	0.498483	0.888961	0.137788
	C143	C	0.481233	0.887637	0.894360
	C144	C	0.367318	0.898874	0.697618
	C145	C	0.616151	0.118407	0.700929
	C146	C	0.612309	0.899150	0.335437
	C147	C	0.362335	0.119382	0.333386
	C148	C	0.673368	0.383348	0.907333
	C149	C	0.671937	0.634044	0.127057
	C150	C	0.306992	0.634094	0.905374
	C151	C	0.305438	0.384452	0.125214
	C152	C	0.878137	0.690107	0.391499
	C153	C	0.099351	0.688821	0.638906
	C154	C	0.878959	0.325773	0.640756
	C155	C	0.098489	0.323901	0.390355
	C156	C	0.878901	0.383125	0.698478
	C157	C	0.098914	0.631994	0.697319
	C158	C	0.878362	0.632357	0.333729
	C159	C	0.099402	0.383292	0.334052
	C160	C	0.364873	0.692292	0.905879
	C161	C	0.612518	0.690322	0.127763
	C162	C	0.614951	0.326023	0.906925
	C163	C	0.362497	0.325948	0.125142
	C164	C	0.669756	0.898858	0.392922
	C165	C	0.673067	0.118358	0.643140
	C166	C	0.310000	0.898467	0.639528
	C167	C	0.304137	0.118994	0.390593
	C168	C	0.863643	0.398957	0.199383
	C169	C	0.111398	0.618411	0.195993
	C170	C	0.114630	0.398779	0.831774
	C171	C	0.862996	0.618558	0.832974
	C172	C	0.171119	0.884839	0.406434
	C173	C	0.172522	0.134348	0.626728
	C174	C	0.804112	0.135428	0.407572
	C175	C	0.805290	0.882880	0.626087
	C176	C	0.379828	0.193087	0.888989
	C177	C	0.597849	0.193765	0.142598
	C178	C	0.378173	0.831229	0.137630
	C179	C	0.600017	0.826695	0.892289
	C180	C	0.378618	0.888100	0.196374
	C181	C	0.597703	0.136421	0.200775
	C182	C	0.380181	0.134814	0.831777
	C183	C	0.600136	0.884052	0.834110
	C184	C	0.861853	0.192996	0.407415
	C185	C	0.115054	0.192529	0.626140
	C186	C	0.112339	0.827609	0.405980
	C187	C	0.863942	0.825806	0.626058
	C188	C	0.173606	0.399745	0.887965
	C189	C	0.167393	0.619228	0.137124
	C190	C	0.805117	0.399646	0.142985
	C191	C	0.806279	0.618917	0.891658
	C192	C	0.394143	0.100947	0.611201
	C193	C	0.584832	0.918031	0.612134
	C194	C	0.583468	0.100736	0.422398
	C195	C	0.392695	0.917734	0.419850
	C196	C	0.582907	0.415388	0.106468
	C197	C	0.584932	0.604718	0.925653
	C198	C	0.390030	0.607560	0.108330
	C199	C	0.394816	0.415304	0.925386
	C200	C	0.080307	0.605148	0.419167
	C201	C	0.896856	0.604733	0.611577
	C202	C	0.079188	0.413942	0.610222
	C203	C	0.898383	0.413656	0.420557
	C204	C	0.893337	0.600133	0.111659
	C205	C	0.085072	0.415531	0.111540
	C206	C	0.084018	0.599920	0.919239
	C207	C	0.894535	0.417921	0.921306
	C208	C	0.086294	0.911329	0.608963
	C209	C	0.083372	0.101993	0.426973
	C210	C	0.894641	0.102701	0.606563
	C211	C	0.892388	0.914172	0.425410
	C212	C	0.579686	0.103672	0.922361
	C213	C	0.397981	0.104383	0.111324
	C214	C	0.582232	0.912731	0.113973
	C215	C	0.398252	0.913536	0.919411
	Zn216	Zn	0.490471	0.009138	0.765896
	Zn217	Zn	0.488939	0.009910	0.267255
	Zn218	Zn	0.739298	0.509255	0.016840
	Zn219	Zn	0.238275	0.509024	0.014981
	Zn220	Zn	-0.011717	0.758558	0.515646
	Zn221	Zn	-0.011137	0.258523	0.516640
	Zn222	Zn	-0.011801	0.507967	0.765277
	Zn223	Zn	-0.010895	0.507868	0.265426
	Zn224	Zn	0.489742	0.759588	0.016620
	Zn225	Zn	0.488330	0.259565	0.015946
	Zn226	Zn	0.738263	0.009227	0.516678
	Zn227	Zn	0.239632	0.008857	0.517080
	N228	N	0.403422	0.974292	0.696225
	N229	N	0.578668	0.043862	0.698280
	N230	N	0.575712	0.974510	0.337169
	N231	N	0.400453	0.044765	0.335888
	N232	N	0.670704	0.421187	0.981759
	N233	N	0.670416	0.597167	0.051954
	N234	N	0.307562	0.597426	0.980463
	N235	N	0.308069	0.422376	0.050686
	N236	N	0.953412	0.689225	0.427922
	N237	N	0.024070	0.687781	0.602303
	N238	N	0.953533	0.328370	0.603248
	N239	N	0.023258	0.325548	0.426723
	N240	N	0.953407	0.420932	0.696037
	N241	N	0.023463	0.596201	0.696514
	N242	N	0.953637	0.596019	0.334922
	N243	N	0.024983	0.421515	0.336386
	N244	N	0.400738	0.691329	0.981241
	N245	N	0.574873	0.688055	0.053057
	N246	N	0.576289	0.329101	0.980942
	N247	N	0.400150	0.328210	0.050482
	N248	N	0.668141	0.974048	0.429851
	N249	N	0.670410	0.043726	0.605361
	N250	N	0.310884	0.973853	0.603044
	N251	N	0.306656	0.044160	0.428013
	N252	N	0.901656	0.473321	0.196441
	N253	N	0.076398	0.542452	0.195785
	N254	N	0.076078	0.472979	0.834784
	N255	N	0.900504	0.543628	0.834840
	N256	N	0.170667	0.920768	0.482046
	N257	N	0.169744	0.095753	0.552561
	N258	N	0.807617	0.096714	0.481594
	N259	N	0.807094	0.920805	0.551646
	N260	N	0.453883	0.190399	0.927736
	N261	N	0.523505	0.190742	0.104375
	N262	N	0.453812	0.831548	0.102213
	N263	N	0.524944	0.828767	0.929026
	N264	N	0.454408	0.923251	0.196611
	N265	N	0.523326	0.098435	0.198351
	N266	N	0.454504	0.096398	0.835442
	N267	N	0.525303	0.921561	0.835647
	N268	N	0.900956	0.189448	0.481332
	N269	N	0.076809	0.189352	0.551904
	N270	N	0.075846	0.828664	0.481120
	N271	N	0.901671	0.828915	0.551463
	N272	N	0.170865	0.474586	0.925605
	N273	N	0.166633	0.543825	0.100707
	N274	N	0.807380	0.474504	0.105509
	N275	N	0.809179	0.544380	0.929499
	O276	O	0.154233	-0.188044	0.181051
	H277	H	0.127256	-0.175298	0.163123
	H278	H	0.153156	-0.172124	0.157131
	O279	O	0.804901	-0.177832	1.203569
	H280	H	0.795871	-0.184755	1.149654
	H281	H	0.808847	-0.136556	1.214649
	O282	O	0.874844	0.888040	0.793469
	H283	H	0.869779	0.869523	0.788118
	H284	H	0.856728	0.875076	0.797585
	O285	O	0.677301	0.666830	0.700642
	H286	H	0.667680	0.643066	0.694690
	H287	H	0.673671	0.643408	0.712889
	O288	O	0.774037	1.027547	-0.197372
	H289	H	0.746993	1.032850	-0.227949
	H290	H	0.787935	1.056187	-0.196187
	O291	O	0.274206	0.546687	0.301799
	H292	H	0.281970	0.526620	0.294373
	H293	H	0.264319	0.531930	0.285756
	O294	O	0.200684	-0.050806	0.804170
	H295	H	0.233059	-0.048160	0.785277
	H296	H	0.197159	-0.021725	0.816733
	O297	O	0.688795	0.499443	0.708633
	H298	H	0.705141	0.490374	0.712996
	H299	H	0.670122	0.478578	0.704605
	O300	O	0.325153	0.324331	0.683618
	H301	H	0.318274	0.370504	0.685938
	H302	H	0.308612	0.314626	0.633708
	O303	O	0.535075	0.469219	0.659081
	H304	H	0.528792	0.453588	0.651166
	H305	H	0.536424	0.466494	0.654513
	O306	O	1.192568	1.031153	0.220702
	H307	H	1.173695	1.011715	0.228505
	H308	H	1.199092	1.019645	0.230431
	O309	O	0.288668	0.713483	0.329820
	H310	H	0.256390	0.738255	0.308502
	H311	H	0.279110	0.661624	0.323400
	O312	O	-0.030018	1.218325	0.817059
	H313	H	-0.024380	1.228452	0.800023
	H314	H	-0.009583	1.219615	0.826764
	O315	O	0.515866	0.704186	0.712548
	H316	H	0.512980	0.712905	0.728033
	H317	H	0.516803	0.702610	0.696940
	O318	O	0.955623	-0.012275	-0.067196
	H319	H	0.965213	-0.015345	-0.066745
	H320	H	0.952067	-0.009780	-0.083565
	O321	O	0.189509	-0.173103	0.016113
	H322	H	0.198472	-0.180772	0.014095
	H323	H	0.185817	-0.166921	0.003383
	O324	O	0.933699	-0.143495	0.102015
	H325	H	0.919656	-0.137229	0.088725
	H326	H	0.917878	-0.136424	0.106097
	O327	O	0.476254	0.520838	0.735297
	H328	H	0.481784	0.519654	0.736490
	H329	H	0.494820	0.511613	0.719698
	O330	O	0.419573	1.631879	-0.450294
	H331	H	0.427321	1.626475	-0.453063
	H332	H	0.414629	1.646452	-0.454549
	O333	O	0.453011	0.722993	0.302498
	H334	H	0.421317	0.733496	0.297519
	H335	H	0.434321	0.737971	0.290172
	O336	O	-0.067587	0.122977	0.161037
	H337	H	-0.067019	0.110699	0.139812
	H338	H	-0.063819	0.110371	0.169977
	O339	O	-0.006683	1.223827	0.997734
	H340	H	0.027159	1.222218	0.994421
	H341	H	-0.003107	1.221705	1.021421
	O342	O	-0.153534	0.859175	1.033246
	H343	H	-0.143726	0.837602	1.013302
	H344	H	-0.160786	0.856183	1.023013
	O345	O	0.640918	0.356512	-0.656829
	H346	H	0.644884	0.396223	-0.668668
	H347	H	0.650069	0.357169	-0.636659
	O348	O	0.290941	0.295510	0.527768
	H349	H	0.295731	0.298769	0.503838
	H350	H	0.276675	0.285042	0.514989
	O351	O	0.333369	1.497105	0.479844
	H352	H	0.338582	1.485890	0.480093
	H353	H	0.338040	1.512374	0.493114
	O354	O	0.012114	0.787843	-0.203565
	H355	H	0.037583	0.780477	-0.212647
	H356	H	0.040359	0.773009	-0.222334
	O357	O	-0.035368	-0.203868	1.234588
	H358	H	-0.063267	-0.202147	1.232529
	H359	H	-0.044097	-0.227270	1.244879
	O360	O	0.662440	0.447484	0.547281
	H361	H	0.661877	0.449930	0.563630
	H362	H	0.653497	0.425978	0.545707
	O363	O	-0.192619	0.186020	0.835505
	H364	H	-0.201995	0.184689	0.871830
	H365	H	-0.147951	0.201222	0.821196
	O366	O	0.194068	-0.022080	1.041101
	H367	H	0.193429	-0.010948	1.032210
	H368	H	0.191721	-0.009312	1.041979
	O369	O	0.430097	0.500111	0.495932
	H370	H	0.426337	0.485422	0.490829
	H371	H	0.423028	0.515240	0.493792
	O372	O	0.783417	0.042001	1.213939
	H373	H	0.771147	0.038038	1.233198
	H374	H	0.788450	0.049084	1.184651
	O375	O	0.510309	0.566822	0.481154
	H376	H	0.526791	0.568799	0.472207
	H377	H	0.525389	0.572077	0.469280
	O378	O	0.287544	0.705203	0.501032
	H379	H	0.276806	0.701255	0.474733
	H380	H	0.290922	0.712443	0.483819
	O381	O	0.924676	-0.172311	-0.033995
	H382	H	0.940411	-0.180207	-0.065100
	H383	H	0.950716	-0.158242	-0.031038
	O384	O	0.620750	0.613350	0.372001
	H385	H	0.631679	0.625918	0.369722
	H386	H	0.619262	0.631174	0.384096
	O387	O	0.288079	-0.497788	0.699091
	H388	H	0.320442	-0.472401	0.705522
	H389	H	0.277133	-0.494495	0.715099
	O390	O	-0.215258	-0.084589	-0.050110
	H391	H	-0.228719	-0.074558	-0.084843
	H392	H	-0.208387	-0.091956	-0.049887
	O393	O	0.984055	1.106602	1.012755
	H394	H	0.984128	1.117732	1.003131
	H395	H	0.993447	1.094825	1.007795
	O396	O	1.694255	0.479601	0.415283
	H397	H	1.698130	0.480448	0.423112
	H398	H	1.699753	0.503818	0.400750
	O399	O	1.168658	0.190750	1.186924
	H400	H	1.117674	0.202776	1.203778
	H401	H	1.178716	0.137535	1.201424
	O402	O	1.407014	0.690903	0.618695
	H403	H	1.421612	0.689182	0.595804
	H404	H	1.403114	0.686916	0.602305
	O405	O	1.010307	1.223971	0.235073
	H406	H	1.010159	1.250101	0.273406
	H407	H	0.987443	1.184322	0.248418
	O408	O	1.034784	-0.050014	0.218623
	H409	H	1.018544	-0.067454	0.211499
	H410	H	1.012789	-0.058469	0.202647
	O411	O	1.208840	1.226433	0.031168
	H412	H	1.205428	1.222501	0.077190
	H413	H	1.233524	1.256284	0.043744
	O414	O	0.696185	0.319045	0.488476
	H415	H	0.692284	0.320803	0.476491
	H416	H	0.689902	0.297732	0.487558
	O417	O	0.481555	0.533995	0.378979
	H418	H	0.487969	0.552717	0.369803
	H419	H	0.497732	0.526618	0.383023
	O420	O	0.660286	0.713804	0.518986
	H421	H	0.677061	0.728144	0.527132
	H422	H	0.657865	0.715398	0.541357
	O423	O	0.471727	0.294200	0.732892
	H424	H	0.454225	0.269439	0.751108
	H425	H	0.433685	0.295291	0.731508
	O426	O	0.420795	0.476699	0.377751
	H427	H	0.426958	0.499194	0.392711
	H428	H	0.433276	0.475754	0.355970
	O429	O	0.504708	0.316326	0.312274
	H430	H	0.516192	0.287091	0.286937
	H431	H	0.535453	0.320866	0.323494
	O432	O	0.516188	0.307812	0.523808
	H433	H	0.513906	0.302655	0.551618
	H434	H	0.499980	0.317272	0.501595
	O435	O	0.210134	1.052407	-0.077807
	H436	H	0.210199	1.048838	-0.071556
	H437	H	0.200966	1.092469	-0.068299
	O438	O	0.049502	0.067926	-0.200865
	H439	H	0.030767	0.049233	-0.205655
	H440	H	0.049528	0.065170	-0.199312
	O441	O	0.774496	0.065036	0.069564
	H442	H	0.773648	0.083240	0.063620
	H443	H	0.782061	0.052859	0.039971
	O444	O	-0.014290	1.021805	1.127841
	H445	H	-0.013909	1.016694	1.112277
	H446	H	-0.029991	1.006355	1.115584
	O447	O	0.476498	0.376070	0.457559
	H448	H	0.469174	0.382163	0.447329
	H449	H	0.483396	0.367467	0.437367
	O450	O	0.772623	0.224455	-0.004827
	H451	H	0.777133	0.246689	0.003529
	H452	H	0.766122	0.236683	-0.007882
	O453	O	0.172590	-0.180506	0.859798
	H454	H	0.191380	-0.175377	0.871949
	H455	H	0.188674	-0.161386	0.844296
