data_Molecule from HDF5

_cell_length_a		16.525263
_cell_length_b		16.744325
_cell_length_c		16.593078
_cell_angle_alpha	89.996691
_cell_angle_beta	89.842143
_cell_angle_gamma	90.007908
_symmetry_space_group_name_H-M	'P 1'
_symmetry_Int_Tables_number		1

loop_
	_symmetry_equiv_pos_as_xyz
	x,y,z

loop_
	_atom_site_label
	_atom_site_type_symbol
	_atom_site_fract_x
	_atom_site_fract_y
	_atom_site_fract_z
	H0	H	0.394247	0.830471	0.719236
	H1	H	0.606435	0.138369	0.713559
	H2	H	0.608056	0.827088	0.274072
	H3	H	0.398873	0.137377	0.272185
	H4	H	0.724157	0.379587	0.837876
	H5	H	0.724021	0.586880	0.150430
	H6	H	0.281914	0.589892	0.838660
	H7	H	0.282246	0.378511	0.149745
	H8	H	0.846252	0.702605	0.391053
	H9	H	0.161228	0.701242	0.595622
	H10	H	0.845009	0.266910	0.595200
	H11	H	0.159189	0.261349	0.387196
	H12	H	0.844757	0.382957	0.710707
	H13	H	0.161805	0.583343	0.710856
	H14	H	0.846008	0.585063	0.276620
	H15	H	0.161131	0.380128	0.274184
	H16	H	0.395021	0.708329	0.841234
	H17	H	0.612095	0.706540	0.148396
	H18	H	0.611024	0.260457	0.839008
	H19	H	0.397394	0.261442	0.149516
	H20	H	0.722724	0.825618	0.392174
	H21	H	0.723273	0.137624	0.597168
	H22	H	0.280045	0.828940	0.600822
	H23	H	0.280251	0.136436	0.387251
	H24	H	0.898926	0.329093	0.216984
	H25	H	0.107943	0.639372	0.214093
	H26	H	0.108337	0.328012	0.772818
	H27	H	0.901521	0.638460	0.775658
	H28	H	0.224845	0.879013	0.338703
	H29	H	0.224530	0.088769	0.649653
	H30	H	0.786557	0.083528	0.336466
	H31	H	0.786612	0.882022	0.652995
	H32	H	0.348782	0.206321	0.886948
	H33	H	0.660545	0.202464	0.097478
	H34	H	0.349098	0.759905	0.102126
	H35	H	0.659441	0.762356	0.888876
	H36	H	0.347400	0.879239	0.214370
	H37	H	0.661828	0.084053	0.210996
	H38	H	0.347952	0.088567	0.773725
	H39	H	0.659561	0.879546	0.774289
	H40	H	0.897173	0.204605	0.339119
	H41	H	0.109810	0.206209	0.649473
	H42	H	0.110207	0.762203	0.339010
	H43	H	0.900452	0.763755	0.651474
	H44	H	0.225372	0.328457	0.888526
	H45	H	0.224921	0.638884	0.096967
	H46	H	0.784630	0.327417	0.097825
	H47	H	0.786400	0.639271	0.895242
	H48	H	0.414184	0.093856	0.583183
	H49	H	0.588309	0.872484	0.588414
	H50	H	0.599716	0.096880	0.398122
	H51	H	0.421034	0.872701	0.397398
	H52	H	0.590192	0.390573	0.105815
	H53	H	0.594871	0.572124	0.882422
	H54	H	0.416511	0.578372	0.106997
	H55	H	0.424072	0.391779	0.884148
	H56	H	0.119726	0.578057	0.399954
	H57	H	0.889687	0.582194	0.580317
	H58	H	0.116328	0.395203	0.585812
	H59	H	0.890606	0.393226	0.403643
	H60	H	0.117467	0.389797	0.583607
	H61	H	0.893534	0.567716	0.581983
	H62	H	0.114655	0.575348	0.411632
	H63	H	0.891693	0.393443	0.408085
	H64	H	0.410500	0.564698	0.105048
	H65	H	0.591712	0.570159	0.884525
	H66	H	0.595384	0.389864	0.108103
	H67	H	0.411443	0.387106	0.878651
	H68	H	0.588494	0.092640	0.400305
	H69	H	0.593953	0.872749	0.579764
	H70	H	0.416504	0.092323	0.583911
	H71	H	0.418811	0.876436	0.413715
	H72	H	0.908603	0.596849	0.088186
	H73	H	0.091669	0.375645	0.077512
	H74	H	0.093492	0.593858	0.903477
	H75	H	0.915668	0.370114	0.900437
	H76	H	0.098966	0.886595	0.611358
	H77	H	0.088141	0.077920	0.382766
	H78	H	0.909113	0.078235	0.609546
	H79	H	0.924042	0.890352	0.384069
	H80	H	0.615075	0.069336	0.905150
	H81	H	0.392955	0.068830	0.079922
	H82	H	0.617022	0.888780	0.078397
	H83	H	0.392170	0.894917	0.907731
	H84	H	0.613807	0.897783	0.080837
	H85	H	0.390245	0.071015	0.088034
	H86	H	0.617204	0.073761	0.902384
	H87	H	0.391879	0.894772	0.908072
	H88	H	0.912212	0.067719	0.605362
	H89	H	0.096874	0.071542	0.380965
	H90	H	0.093071	0.905525	0.604018
	H91	H	0.908431	0.883225	0.376761
	H92	H	0.093220	0.594307	0.902668
	H93	H	0.097439	0.371133	0.084933
	H94	H	0.918561	0.593781	0.087621
	H95	H	0.914150	0.372522	0.906295
	H96	H	0.415646	0.092699	0.581013
	H97	H	0.598414	0.868897	0.588148
	H98	H	0.597062	0.092721	0.409442
	H99	H	0.406313	0.870043	0.404893
	H100	H	0.593919	0.394867	0.105732
	H101	H	0.591054	0.574246	0.882674
	H102	H	0.424601	0.567184	0.100418
	H103	H	0.412186	0.400691	0.883617
	H104	H	0.114908	0.566514	0.402542
	H105	H	0.886596	0.575444	0.593616
	H106	H	0.115349	0.393646	0.579913
	H107	H	0.892287	0.397518	0.405606
	H108	H	0.912447	0.593353	0.079731
	H109	H	0.087332	0.373521	0.086719
	H110	H	0.092576	0.594136	0.903000
	H111	H	0.909660	0.369233	0.902649
	H112	H	0.079213	0.888890	0.603188
	H113	H	0.088238	0.067132	0.385925
	H114	H	0.920055	0.076868	0.604819
	H115	H	0.908819	0.900392	0.383664
	H116	H	0.615686	0.073983	0.907755
	H117	H	0.390505	0.077309	0.080854
	H118	H	0.618614	0.892502	0.087520
	H119	H	0.391497	0.895471	0.907941
	C120	C	0.382073	-0.008758	0.615739
	C121	C	0.624641	0.974088	0.616064
	C122	C	0.626074	-0.009391	0.372522
	C123	C	0.382480	0.974666	0.372452
	C124	C	0.625204	0.360709	0.003114
	C125	C	0.624954	0.604112	0.986062
	C126	C	0.383458	0.603786	0.002336
	C127	C	0.383053	0.361437	0.985501
	C128	C	0.012319	0.604537	0.373579
	C129	C	0.994956	0.604379	0.615101
	C130	C	0.012029	0.362482	0.614438
	C131	C	0.995386	0.362908	0.373411
	C132	C	0.881585	0.491900	0.116863
	C133	C	0.124608	0.475835	0.114909
	C134	C	0.125251	0.491586	0.871594
	C135	C	0.882210	0.473836	0.872928
	C136	C	0.123980	0.861959	0.503134
	C137	C	0.124359	0.105134	0.485788
	C138	C	0.881965	0.104547	0.502993
	C139	C	0.882111	0.860556	0.485716
	C140	C	0.512762	0.104749	0.872789
	C141	C	0.495074	0.103557	0.114436
	C142	C	0.512988	0.861281	0.115294
	C143	C	0.494627	0.862661	0.874592
	C144	C	0.377477	0.876149	0.677617
	C145	C	0.625590	0.091277	0.674431
	C146	C	0.626978	0.873558	0.313713
	C147	C	0.380216	0.090795	0.312201
	C148	C	0.684692	0.360288	0.884978
	C149	C	0.684450	0.605718	0.103355
	C150	C	0.322048	0.607785	0.885668
	C151	C	0.322472	0.359904	0.102866
	C152	C	0.893582	0.662737	0.372512
	C153	C	0.114270	0.661695	0.614999
	C154	C	0.892447	0.305958	0.614159
	C155	C	0.112706	0.302336	0.370062
	C156	C	0.892327	0.363423	0.671657
	C157	C	0.114392	0.603336	0.672012
	C158	C	0.893267	0.604426	0.315680
	C159	C	0.113894	0.361437	0.313984
	C160	C	0.378587	0.666366	0.886699
	C161	C	0.628632	0.665111	0.102352
	C162	C	0.628391	0.301239	0.885581
	C163	C	0.379472	0.301428	0.102617
	C164	C	0.683632	0.872768	0.372882
	C165	C	0.683607	0.091110	0.616444
	C166	C	0.320379	0.875549	0.618969
	C167	C	0.321424	0.090422	0.369511
	C168	C	0.880132	0.375262	0.176707
	C169	C	0.126420	0.592822	0.174142
	C170	C	0.127118	0.374634	0.812282
	C171	C	0.882051	0.591764	0.815162
	C172	C	0.184945	0.860134	0.385762
	C173	C	0.184500	0.107276	0.602930
	C174	C	0.824450	0.103931	0.384280
	C175	C	0.825084	0.861758	0.605080
	C176	C	0.395670	0.165651	0.869330
	C177	C	0.613572	0.162416	0.116001
	C178	C	0.395524	0.801064	0.119012
	C179	C	0.612430	0.802413	0.870903
	C180	C	0.394787	0.860053	0.175021
	C181	C	0.614015	0.103879	0.172491
	C182	C	0.395025	0.107133	0.813029
	C183	C	0.612611	0.860566	0.814032
	C184	C	0.879982	0.163743	0.385488
	C185	C	0.127794	0.165971	0.602446
	C186	C	0.127668	0.802199	0.385834
	C187	C	0.881469	0.802859	0.604329
	C188	C	0.185281	0.374997	0.869931
	C189	C	0.184311	0.592549	0.115801
	C190	C	0.823452	0.374428	0.117680
	C191	C	0.825003	0.592190	0.874179
	C192	C	0.408048	0.071937	0.589834
	C193	C	0.600349	0.892451	0.592375
	C194	C	0.602011	0.072659	0.396030
	C195	C	0.408150	0.894088	0.398010
	C196	C	0.600179	0.384808	0.085236
	C197	C	0.599622	0.579220	0.904281
	C198	C	0.409758	0.577565	0.083170
	C199	C	0.408706	0.386086	0.903459
	C200	C	0.094905	0.580271	0.397808
	C201	C	0.911549	0.581718	0.591879
	C202	C	0.094899	0.386049	0.590224
	C203	C	0.913050	0.387603	0.398431
	C204	C	0.906050	0.573424	0.092325
	C205	C	0.099367	0.394594	0.090348
	C206	C	0.100309	0.572964	0.896080
	C207	C	0.906094	0.392151	0.896381
	C208	C	0.097951	0.886819	0.584924
	C209	C	0.098639	0.079474	0.404498
	C210	C	0.906635	0.080804	0.584955
	C211	C	0.906648	0.884424	0.402962
	C212	C	0.594731	0.079365	0.898009
	C213	C	0.412405	0.079445	0.089839
	C214	C	0.595208	0.885988	0.089550
	C215	C	0.413208	0.887658	0.900555
	Zn216	Zn	0.503155	-0.017185	0.745815
	Zn217	Zn	0.504502	-0.017400	0.242754
	Zn218	Zn	0.753255	0.482486	-0.005165
	Zn219	Zn	0.254587	0.483203	-0.006614
	Zn220	Zn	0.003893	0.732901	0.494461
	Zn221	Zn	0.003013	0.233490	0.494011
	Zn222	Zn	0.003563	0.482773	0.743244
	Zn223	Zn	0.003924	0.483549	0.244898
	Zn224	Zn	0.503630	0.733102	-0.005684
	Zn225	Zn	0.503786	0.232346	-0.005785
	Zn226	Zn	0.754385	-0.017787	0.494563
	Zn227	Zn	0.252655	-0.016808	0.494392
	N228	N	0.415096	0.949127	0.675830
	N229	N	0.589799	0.017458	0.674392
	N230	N	0.591957	0.947875	0.313239
	N231	N	0.417379	0.017646	0.313557
	N232	N	0.683089	0.396656	0.959166
	N233	N	0.682036	0.568228	0.029949
	N234	N	0.325062	0.569297	0.958543
	N235	N	0.324190	0.396288	0.028679
	N236	N	0.968762	0.663221	0.407568
	N237	N	0.038784	0.662648	0.580523
	N238	N	0.967984	0.304835	0.579639
	N239	N	0.037910	0.302970	0.406190
	N240	N	0.967759	0.397821	0.672145
	N241	N	0.039174	0.568510	0.672300
	N242	N	0.968200	0.569017	0.316052
	N243	N	0.039802	0.398475	0.315780
	N244	N	0.416037	0.664202	0.960321
	N245	N	0.592169	0.664292	0.028263
	N246	N	0.592146	0.301382	0.960042
	N247	N	0.416225	0.302166	0.028352
	N248	N	0.683400	0.946695	0.408625
	N249	N	0.683535	0.017129	0.580983
	N250	N	0.322748	0.948375	0.581320
	N251	N	0.322637	0.017134	0.406345
	N252	N	0.915382	0.449428	0.176550
	N253	N	0.089966	0.519171	0.173670
	N254	N	0.090686	0.448372	0.812991
	N255	N	0.916520	0.517192	0.813783
	N256	N	0.182554	0.896946	0.459672
	N257	N	0.182711	0.070067	0.529305
	N258	N	0.825348	0.067812	0.458539
	N259	N	0.825030	0.896526	0.530149
	N260	N	0.470038	0.164505	0.905840
	N261	N	0.538303	0.162723	0.080910
	N262	N	0.470272	0.801546	0.082671
	N263	N	0.538214	0.803479	0.907800
	N264	N	0.469070	0.896578	0.173054
	N265	N	0.539245	0.068116	0.171862
	N266	N	0.469029	0.070125	0.814963
	N267	N	0.538424	0.897341	0.815987
	N268	N	0.914731	0.164698	0.460352
	N269	N	0.091282	0.165001	0.528345
	N270	N	0.090651	0.802977	0.460011
	N271	N	0.915921	0.801667	0.528840
	N272	N	0.184400	0.448723	0.906081
	N273	N	0.183488	0.518740	0.079783
	N274	N	0.824062	0.448038	0.081283
	N275	N	0.824612	0.517860	0.909005
	O276	O	0.053629	0.751386	0.045173
	H277	H	0.050654	0.757188	0.042220
	H278	H	0.046095	0.747119	0.073198
	O279	O	0.323041	0.663463	0.673734
	H280	H	0.329720	0.647074	0.652454
	H281	H	0.347305	0.658917	0.664847
	O282	O	1.300117	0.269402	0.704576
	H283	H	1.340965	0.264686	0.695341
	H284	H	1.288298	0.289336	0.696753
	O285	O	0.636700	0.544491	0.445400
	H286	H	0.630739	0.517369	0.442994
	H287	H	0.625425	0.537939	0.438164
	O288	O	0.174167	0.891527	0.932086
	H289	H	0.164723	0.894733	0.921603
	H290	H	0.178399	0.912597	0.922648
	O291	O	0.456950	0.416803	0.263371
	H292	H	0.436824	0.424941	0.268883
	H293	H	0.464640	0.437491	0.255092
	O294	O	1.217729	0.018013	1.215765
	H295	H	1.226427	0.007403	1.214625
	H296	H	1.226011	0.009577	1.220034
	O297	O	0.194720	0.793276	0.184750
	H298	H	0.173911	0.818608	0.173450
	H299	H	0.183549	0.806326	0.156079
	O300	O	-0.042350	0.164539	0.990694
	H301	H	-0.020346	0.171817	0.978310
	H302	H	-0.023602	0.162038	1.006566
	O303	O	0.528358	0.571670	0.560100
	H304	H	0.526212	0.579330	0.548856
	H305	H	0.520871	0.570030	0.559514
	O306	O	0.559792	0.536882	0.261780
	H307	H	0.575487	0.547031	0.254656
	H308	H	0.572131	0.533024	0.257525
	O309	O	0.032324	1.202785	1.215279
	H310	H	0.039120	1.221218	1.239671
	H311	H	0.050405	1.193342	1.223213
	O312	O	-0.050702	0.759550	0.932836
	H313	H	-0.049153	0.756355	0.951374
	H314	H	-0.038765	0.764746	0.939285
	O315	O	0.531036	0.704944	1.717614
	H316	H	0.561900	0.716196	1.727465
	H317	H	0.554144	0.713773	1.728751
	O318	O	0.666243	0.368294	0.558916
	H319	H	0.656478	0.359874	0.558263
	H320	H	0.671356	0.367275	0.561608
	O321	O	-0.208149	1.194941	0.780442
	H322	H	-0.239066	1.229077	0.748907
	H323	H	-0.177727	1.202259	0.798643
	O324	O	0.794140	0.767818	0.037425
	H325	H	0.789343	0.768148	0.024299
	H326	H	0.780499	0.785806	0.028743
	O327	O	-0.044512	0.091823	1.044965
	H328	H	-0.032655	0.099630	1.055034
	H329	H	-0.035372	0.069077	1.044421
	O330	O	0.465192	0.544094	0.694488
	H331	H	0.452660	0.547072	0.686120
	H332	H	0.463740	0.565657	0.699183
	O333	O	1.020273	-0.222158	0.779441
	H334	H	1.013388	-0.233624	0.769296
	H335	H	1.035717	-0.207700	0.788378
	O336	O	0.319667	0.444759	0.402871
	H337	H	0.309856	0.470001	0.383362
	H338	H	0.317917	0.443646	0.419097
	O339	O	0.472814	0.265430	0.709230
	H340	H	0.480884	0.263161	0.727240
	H341	H	0.482431	0.275286	0.724424
	O342	O	-0.187579	0.176495	0.185279
	H343	H	-0.161561	0.155491	0.180591
	H344	H	-0.175182	0.167687	0.148532
	O345	O	0.214945	1.197127	1.205780
	H346	H	0.249162	1.224813	1.239626
	H347	H	0.209796	1.157542	1.209404
	O348	O	0.062959	-0.092287	0.210583
	H349	H	0.046162	-0.084642	0.203198
	H350	H	0.050673	-0.086471	0.218842
	O351	O	0.295309	0.694056	0.285235
	H352	H	0.284738	0.708610	0.314314
	H353	H	0.283673	0.721459	0.262457
	O354	O	0.034505	-0.075901	0.869252
	H355	H	0.039273	-0.095256	0.878743
	H356	H	0.042756	-0.075788	0.857756
	O357	O	0.529452	0.332167	0.433222
	H358	H	0.519877	0.316450	0.442061
	H359	H	0.532944	0.327948	0.428195
	O360	O	0.686587	0.671098	0.302070
	H361	H	0.669021	0.657414	0.322726
	H362	H	0.670714	0.651552	0.323470
	O363	O	-0.030243	-0.240131	0.217408
	H364	H	-0.040876	-0.269634	0.249199
	H365	H	-0.053974	-0.225375	0.212596
	O366	O	0.694950	0.514633	0.524407
	H367	H	0.695654	0.507185	0.539913
	H368	H	0.689276	0.514486	0.526773
	O369	O	1.191415	0.173928	-0.191401
	H370	H	1.199920	0.156590	-0.190868
	H371	H	1.199942	0.173503	-0.202897
	O372	O	1.057002	1.211315	-0.057226
	H373	H	1.061303	1.218125	-0.045924
	H374	H	1.079898	1.204289	-0.069251
	O375	O	0.709400	-0.309834	-0.294750
	H376	H	0.743590	-0.277206	-0.263570
	H377	H	0.716451	-0.318087	-0.329327
	O378	O	0.287460	0.522684	0.271520
	H379	H	0.284762	0.545759	0.272484
	H380	H	0.269100	0.550027	0.253423
	O381	O	-0.039567	1.144707	0.837647
	H382	H	-0.026235	1.146361	0.838897
	H383	H	-0.022872	1.152894	0.843800
	O384	O	1.011256	0.101400	0.948199
	H385	H	1.005504	0.107839	0.935719
	H386	H	1.017397	0.109140	0.943031
	O387	O	1.492456	1.313134	-0.568193
	H388	H	1.490562	1.306094	-0.560119
	H389	H	1.490041	1.321512	-0.563594
	O390	O	0.549908	0.712161	0.446595
	H391	H	0.547283	0.704427	0.441407
	H392	H	0.560063	0.706866	0.449290
	O393	O	0.368322	0.529354	0.496159
	H394	H	0.367867	0.539815	0.487198
	H395	H	0.378295	0.529794	0.495583
	O396	O	0.184136	0.766485	0.775585
	H397	H	0.158190	0.763936	0.798383
	H398	H	0.209194	0.732473	0.744087
	O399	O	-0.017671	-0.092614	1.043910
	H400	H	-0.009045	-0.087264	1.047102
	H401	H	-0.028396	-0.081148	1.042774
	O402	O	0.298603	0.703160	0.456574
	H403	H	0.301967	0.716306	0.462911
	H404	H	0.300099	0.707613	0.463390
	O405	O	1.215775	-0.227937	0.982294
	H406	H	1.229462	-0.249105	0.978453
	H407	H	1.201572	-0.210113	0.978601
	O408	O	0.224541	-0.036835	0.062110
	H409	H	0.230738	-0.045571	0.045865
	H410	H	0.216512	-0.017571	0.047790
	O411	O	1.225323	1.047478	0.929695
	H412	H	1.221879	1.049449	0.909096
	H413	H	1.230208	1.068703	0.928744
	O414	O	0.290095	0.449293	0.714197
	H415	H	0.290582	0.441889	0.722363
	H416	H	0.277620	0.444338	0.721459
	O417	O	0.723138	0.258874	0.463122
	H418	H	0.739916	0.242877	0.453383
	H419	H	0.728553	0.252714	0.424736
	O420	O	0.444162	0.715845	0.562573
	H421	H	0.460493	0.725622	0.566031
	H422	H	0.468177	0.716474	0.570899
	O423	O	-0.091992	-0.054656	0.807848
	H424	H	-0.115207	-0.036005	0.804707
	H425	H	-0.078008	-0.052844	0.811851
	O426	O	0.466968	0.412337	0.550886
	H427	H	0.474549	0.412126	0.538277
	H428	H	0.483425	0.406652	0.555232
	O429	O	1.224584	0.960131	0.773054
	H430	H	1.233015	0.930229	0.756919
	H431	H	1.223248	0.953218	0.754844
	O432	O	0.781900	0.020574	0.774065
	H433	H	0.767839	0.043440	0.759061
	H434	H	0.772757	0.051607	0.770133
	O435	O	0.328930	1.287561	0.313660
	H436	H	0.357885	1.296391	0.322418
	H437	H	0.334640	1.311589	0.338542
	O438	O	0.689578	0.293230	-0.318979
	H439	H	0.668110	0.310857	-0.332420
	H440	H	0.670844	0.311236	-0.339582
	O441	O	-0.221845	-0.085722	-0.050484
	H442	H	-0.216994	-0.071333	-0.053456
	H443	H	-0.214155	-0.064238	-0.058519
	O444	O	0.725415	0.706506	0.535847
	H445	H	0.740458	0.713949	0.528229
	H446	H	0.742510	0.701844	0.534498
	O447	O	-0.156259	0.924942	1.158865
	H448	H	-0.165963	0.907299	1.175493
	H449	H	-0.153030	0.908005	1.165840
	O450	O	-0.202958	0.771298	1.205042
	H451	H	-0.237825	0.738551	1.231875
	H452	H	-0.197054	0.764405	1.162704
	O453	O	0.725604	0.522376	0.722729
	H454	H	0.738740	0.549218	0.732344
	H455	H	0.743407	0.524404	0.729669
	O456	O	-0.213276	0.189718	0.947934
	H457	H	-0.225861	0.208521	0.946554
	H458	H	-0.204741	0.176952	0.934181
	O459	O	0.890468	1.093672	0.118216
	H460	H	0.876599	1.089528	0.097782
	H461	H	0.901549	1.103718	0.110284
	O462	O	0.473966	0.701503	0.273473
	H463	H	0.468473	0.722268	0.251819
	H464	H	0.451807	0.694801	0.276370
	O465	O	0.810913	-0.213307	-0.197593
	H466	H	0.832433	-0.188831	-0.185228
	H467	H	0.825708	-0.200852	-0.169576
	O468	O	0.538894	0.489563	0.430028
	H469	H	0.541437	0.482694	0.432600
	H470	H	0.546011	0.487253	0.422143
	O471	O	0.549855	0.423134	0.723978
	H472	H	0.552693	0.440966	0.715835
	H473	H	0.546349	0.452801	0.733813
	O474	O	0.315560	0.500372	0.594086
	H475	H	0.322018	0.507173	0.585220
	H476	H	0.309069	0.495030	0.595002
	O477	O	0.286904	0.256249	1.519663
	H478	H	0.266062	0.248382	1.530446
	H479	H	0.273840	0.266618	1.529860
	O480	O	0.720248	0.455648	0.272845
	H481	H	0.726869	0.429699	0.277507
	H482	H	0.737930	0.437837	0.255528
	O483	O	0.544142	0.260519	0.277347
	H484	H	0.526783	0.280575	0.284017
	H485	H	0.532027	0.235868	0.257842
	O486	O	0.444383	0.310685	0.520551
	H487	H	0.442877	0.318192	0.513627
	H488	H	0.456596	0.298923	0.529995
	O489	O	1.225802	1.207219	0.022672
	H490	H	1.245317	1.223661	0.048272
	H491	H	1.225360	1.220036	0.040456
	O492	O	-0.217054	-0.004651	0.101267
	H493	H	-0.221533	-0.014636	0.112939
	H494	H	-0.222256	0.010918	0.108083
	O495	O	0.049658	1.049439	0.769730
	H496	H	0.038285	1.059947	0.764559
	H497	H	0.044728	1.046905	0.771050
	O498	O	1.004749	1.052058	1.160112
	H499	H	0.993293	1.042819	1.152595
	H500	H	1.004438	1.055186	1.169499
	O501	O	0.712966	0.275945	0.284273
	H502	H	0.742784	0.242363	0.250887
	H503	H	0.664541	0.272974	0.277459
