data_Molecule from HDF5

_cell_length_a		16.414665
_cell_length_b		16.132931
_cell_length_c		16.378408
_cell_angle_alpha	89.668398
_cell_angle_beta	89.861034
_cell_angle_gamma	90.121760
_symmetry_space_group_name_H-M	'P 1'
_symmetry_Int_Tables_number		1

loop_
	_symmetry_equiv_pos_as_xyz
	x,y,z

loop_
	_atom_site_label
	_atom_site_type_symbol
	_atom_site_fract_x
	_atom_site_fract_y
	_atom_site_fract_z
	H0	H	0.384930	0.831223	0.701330
	H1	H	0.590253	0.156241	0.699754
	H2	H	0.590955	0.830089	0.267026
	H3	H	0.387429	0.156208	0.266674
	H4	H	0.707438	0.386687	0.825741
	H5	H	0.703561	0.595613	0.145422
	H6	H	0.264230	0.595671	0.825473
	H7	H	0.264386	0.385577	0.146278
	H8	H	0.826001	0.711496	0.386018
	H9	H	0.146908	0.707228	0.586983
	H10	H	0.824906	0.272487	0.587384
	H11	H	0.147469	0.276353	0.385508
	H12	H	0.825124	0.384777	0.706433
	H13	H	0.144257	0.595327	0.705473
	H14	H	0.824537	0.595796	0.268177
	H15	H	0.144196	0.386076	0.264083
	H16	H	0.384816	0.708746	0.822416
	H17	H	0.582791	0.706976	0.146628
	H18	H	0.583778	0.279253	0.821274
	H19	H	0.384074	0.272767	0.146248
	H20	H	0.704317	0.830065	0.381977
	H21	H	0.703102	0.156786	0.582248
	H22	H	0.270991	0.830197	0.587130
	H23	H	0.268477	0.154772	0.378083
	H24	H	0.878799	0.329895	0.206705
	H25	H	0.087008	0.654123	0.201809
	H26	H	0.087624	0.328740	0.768585
	H27	H	0.882012	0.653238	0.765787
	H28	H	0.210120	0.885823	0.326827
	H29	H	0.211062	0.099345	0.643178
	H30	H	0.768438	0.098964	0.323658
	H31	H	0.764985	0.887445	0.644577
	H32	H	0.323585	0.208997	0.882658
	H33	H	0.646218	0.212799	0.083473
	H34	H	0.323631	0.777280	0.084155
	H35	H	0.646275	0.774601	0.882047
	H36	H	0.328449	0.886260	0.207251
	H37	H	0.646851	0.099652	0.201941
	H38	H	0.326717	0.097426	0.762704
	H39	H	0.646271	0.890364	0.764835
	H40	H	0.888163	0.210590	0.323348
	H41	H	0.087999	0.208170	0.647138
	H42	H	0.089638	0.773452	0.325598
	H43	H	0.886360	0.776281	0.647855
	H44	H	0.204257	0.329944	0.882139
	H45	H	0.202776	0.653397	0.089701
	H46	H	0.765818	0.329104	0.089794
	H47	H	0.767799	0.654417	0.880532
	H48	H	0.402796	0.108497	0.573426
	H49	H	0.574585	0.874188	0.583886
	H50	H	0.580506	0.113088	0.383071
	H51	H	0.402718	0.877163	0.393149
	H52	H	0.570718	0.402557	0.097968
	H53	H	0.572357	0.580776	0.871856
	H54	H	0.393348	0.592533	0.102984
	H55	H	0.394204	0.413667	0.874229
	H56	H	0.102010	0.586471	0.390598
	H57	H	0.872350	0.581158	0.571737
	H58	H	0.098568	0.400211	0.572798
	H59	H	0.875445	0.410378	0.398883
	H60	H	0.099161	0.407205	0.581919
	H61	H	0.870998	0.577268	0.580667
	H62	H	0.098538	0.581575	0.397743
	H63	H	0.868696	0.401397	0.387634
	H64	H	0.382683	0.578645	0.101654
	H65	H	0.578258	0.587660	0.867938
	H66	H	0.576944	0.399631	0.099911
	H67	H	0.399377	0.395296	0.870338
	H68	H	0.571522	0.107129	0.393074
	H69	H	0.570439	0.880697	0.568558
	H70	H	0.396802	0.108375	0.566866
	H71	H	0.399003	0.879056	0.400187
	H72	H	0.892967	0.608792	0.077635
	H73	H	0.077125	0.371949	0.080080
	H74	H	0.064745	0.602293	0.902524
	H75	H	0.906548	0.379125	0.896112
	H76	H	0.075487	0.903850	0.597568
	H77	H	0.088386	0.082572	0.367247
	H78	H	0.893096	0.079126	0.599033
	H79	H	0.889940	0.903778	0.369424
	H80	H	0.599242	0.086858	0.896675
	H81	H	0.371705	0.078557	0.079689
	H82	H	0.600453	0.897221	0.069694
	H83	H	0.367985	0.892617	0.890565
	H84	H	0.599634	0.907348	0.076272
	H85	H	0.371734	0.085014	0.074973
	H86	H	0.599116	0.079619	0.889492
	H87	H	0.375065	0.905618	0.900379
	H88	H	0.894913	0.080902	0.598900
	H89	H	0.074195	0.074080	0.374927
	H90	H	0.079520	0.897740	0.601685
	H91	H	0.899387	0.907013	0.373146
	H92	H	0.083883	0.608308	0.900986
	H93	H	0.066295	0.376564	0.077779
	H94	H	0.895734	0.607720	0.076040
	H95	H	0.888234	0.377202	0.907675
	H96	H	0.395385	0.111907	0.574802
	H97	H	0.585743	0.874765	0.571608
	H98	H	0.585274	0.110128	0.397095
	H99	H	0.394870	0.875969	0.393848
	H100	H	0.577234	0.407035	0.098114
	H101	H	0.581944	0.578332	0.869572
	H102	H	0.399271	0.577346	0.096315
	H103	H	0.381433	0.401488	0.866740
	H104	H	0.099694	0.577576	0.389367
	H105	H	0.868517	0.586602	0.578533
	H106	H	0.102789	0.396985	0.582901
	H107	H	0.871294	0.395443	0.402131
	H108	H	0.893218	0.608105	0.075098
	H109	H	0.075456	0.376349	0.069616
	H110	H	0.072215	0.610202	0.885161
	H111	H	0.889134	0.370213	0.887290
	H112	H	0.083194	0.904791	0.601286
	H113	H	0.073460	0.091658	0.370031
	H114	H	0.893482	0.081804	0.600049
	H115	H	0.897783	0.896626	0.369576
	H116	H	0.602801	0.088003	0.887549
	H117	H	0.375233	0.077678	0.071966
	H118	H	0.604346	0.896775	0.081442
	H119	H	0.371246	0.909115	0.883539
	C120	C	0.367031	0.002327	0.603988
	C121	C	0.607542	0.984560	0.604085
	C122	C	0.609494	0.002222	0.361663
	C123	C	0.367520	0.984425	0.363321
	C124	C	0.606073	0.371398	-0.007199
	C125	C	0.606935	0.613183	0.976037
	C126	C	0.361953	0.613805	-0.006455
	C127	C	0.361647	0.370643	0.976654
	C128	C	-0.005703	0.614015	0.363150
	C129	C	0.976747	0.612632	0.607628
	C130	C	-0.006274	0.369166	0.609098
	C131	C	0.977236	0.371045	0.364803
	C132	C	0.862717	0.500551	0.107378
	C133	C	0.104191	0.482644	0.106196
	C134	C	0.105267	0.499892	0.865208
	C135	C	0.863956	0.482815	0.864838
	C136	C	0.109903	0.870660	0.494360
	C137	C	0.109454	0.113982	0.476787
	C138	C	0.864765	0.113207	0.493272
	C139	C	0.864660	0.870993	0.476811
	C140	C	0.494503	0.115620	0.860659
	C141	C	0.478513	0.113571	0.105273
	C142	C	0.495142	0.870030	0.106659
	C143	C	0.477441	0.871562	0.861502
	C144	C	0.366151	0.879759	0.662525
	C145	C	0.608700	0.107361	0.660937
	C146	C	0.609736	0.879132	0.305463
	C147	C	0.367722	0.107030	0.304729
	C148	C	0.666247	0.369476	0.872863
	C149	C	0.664070	0.613872	0.097306
	C150	C	0.304011	0.614338	0.873151
	C151	C	0.303909	0.367486	0.097933
	C152	C	0.873910	0.672758	0.365163
	C153	C	0.098135	0.669500	0.606785
	C154	C	0.873108	0.310908	0.607733
	C155	C	0.098634	0.313968	0.365452
	C156	C	0.873249	0.367178	0.666965
	C157	C	0.096782	0.613819	0.665862
	C158	C	0.873312	0.615305	0.306474
	C159	C	0.097023	0.368557	0.304874
	C160	C	0.364222	0.670548	0.871462
	C161	C	0.604037	0.669391	0.098011
	C162	C	0.604578	0.315955	0.870583
	C163	C	0.363369	0.311579	0.097919
	C164	C	0.666289	0.879081	0.362479
	C165	C	0.664660	0.107734	0.602341
	C166	C	0.309581	0.879207	0.605607
	C167	C	0.308570	0.106498	0.360504
	C168	C	0.861016	0.378296	0.166695
	C169	C	0.105881	0.605047	0.163637
	C170	C	0.106632	0.377729	0.807102
	C171	C	0.863472	0.604998	0.805689
	C172	C	0.169583	0.868181	0.374342
	C173	C	0.169620	0.116424	0.596332
	C174	C	0.807749	0.116263	0.371992
	C175	C	0.805452	0.869247	0.597156
	C176	C	0.372680	0.171891	0.862028
	C177	C	0.598361	0.173718	0.104066
	C178	C	0.373134	0.813885	0.105561
	C179	C	0.598194	0.813373	0.862141
	C180	C	0.375529	0.868658	0.166339
	C181	C	0.598820	0.116921	0.162842
	C182	C	0.374212	0.116454	0.802327
	C183	C	0.598201	0.871174	0.803950
	C184	C	0.867262	0.172049	0.371875
	C185	C	0.108656	0.171121	0.597981
	C186	C	0.109621	0.812012	0.373957
	C187	C	0.865630	0.813684	0.598684
	C188	C	0.164465	0.378117	0.863806
	C189	C	0.163471	0.604782	0.107563
	C190	C	0.804482	0.378206	0.108578
	C191	C	0.806574	0.605479	0.862819
	C192	C	0.391318	0.087531	0.578842
	C193	C	0.583638	0.898881	0.581310
	C194	C	0.586176	0.087895	0.384445
	C195	C	0.391855	0.899431	0.388352
	C196	C	0.581933	0.395781	0.076622
	C197	C	0.584117	0.589291	0.891672
	C198	C	0.384932	0.589883	0.078249
	C199	C	0.384821	0.396091	0.892308
	C200	C	0.078397	0.589072	0.385793
	C201	C	0.892471	0.588561	0.583898
	C202	C	0.078153	0.394256	0.585939
	C203	C	0.893468	0.395442	0.389086
	C204	C	0.887180	0.586178	0.083282
	C205	C	0.079977	0.397278	0.082563
	C206	C	0.080761	0.584797	0.889412
	C207	C	0.887726	0.397587	0.889625
	C208	C	0.086339	0.895227	0.578404
	C209	C	0.085618	0.089748	0.392755
	C210	C	0.887261	0.087990	0.577415
	C211	C	0.888632	0.895453	0.392626
	C212	C	0.578387	0.091737	0.884312
	C213	C	0.394529	0.087824	0.082137
	C214	C	0.579543	0.893569	0.082734
	C215	C	0.393354	0.895399	0.884829
	Zn216	Zn	0.486508	-0.006131	0.732110
	Zn217	Zn	0.488433	-0.007781	0.234901
	Zn218	Zn	0.736159	0.491943	-0.014832
	Zn219	Zn	0.232710	0.491239	-0.013097
	Zn220	Zn	-0.012939	0.741791	0.486943
	Zn221	Zn	-0.013561	0.241690	0.486082
	Zn222	Zn	-0.015550	0.491561	0.736879
	Zn223	Zn	-0.015292	0.491351	0.234359
	Zn224	Zn	0.485094	0.742062	-0.015910
	Zn225	Zn	0.484698	0.242936	-0.016756
	Zn226	Zn	0.735803	-0.007485	0.483642
	Zn227	Zn	0.239063	-0.006887	0.484447
	N228	N	0.400854	0.957346	0.661792
	N229	N	0.573746	0.029773	0.662007
	N230	N	0.575505	0.956815	0.304494
	N231	N	0.403476	0.029972	0.306304
	N232	N	0.667544	0.403137	0.949847
	N233	N	0.665997	0.579865	0.020450
	N234	N	0.302562	0.579968	0.950164
	N235	N	0.302509	0.403390	0.021460
	N236	N	0.950221	0.672462	0.399349
	N237	N	0.022317	0.668925	0.571409
	N238	N	0.949208	0.312083	0.572724
	N239	N	0.023180	0.315403	0.402005
	N240	N	0.949605	0.402569	0.668115
	N241	N	0.020210	0.579097	0.666369
	N242	N	0.949280	0.579732	0.304944
	N243	N	0.020578	0.403497	0.304313
	N244	N	0.399314	0.670479	0.947590
	N245	N	0.569388	0.669302	0.021614
	N246	N	0.567783	0.317102	0.946089
	N247	N	0.398384	0.313343	0.021538
	N248	N	0.666443	0.956677	0.396535
	N249	N	0.663965	0.030371	0.567740
	N250	N	0.309958	0.956438	0.569785
	N251	N	0.308257	0.029235	0.396132
	N252	N	0.896551	0.455595	0.165995
	N253	N	0.069713	0.528174	0.162705
	N254	N	0.070294	0.454442	0.807926
	N255	N	0.898349	0.527677	0.806645
	N256	N	0.169937	0.903854	0.450256
	N257	N	0.170577	0.081838	0.519736
	N258	N	0.806324	0.079887	0.448225
	N259	N	0.804698	0.904014	0.520362
	N260	N	0.448587	0.171837	0.897284
	N261	N	0.522607	0.171662	0.068834
	N262	N	0.448559	0.814658	0.069073
	N263	N	0.522123	0.813465	0.897321
	N264	N	0.452569	0.902621	0.167118
	N265	N	0.523036	0.080179	0.163750
	N266	N	0.450875	0.082402	0.801149
	N267	N	0.522123	0.906643	0.803531
	N268	N	0.902146	0.170114	0.448071
	N269	N	0.072206	0.169766	0.522543
	N270	N	0.073205	0.813386	0.449646
	N271	N	0.901858	0.814545	0.522852
	N272	N	0.163830	0.455051	0.899253
	N273	N	0.162583	0.527519	0.072567
	N274	N	0.805509	0.455285	0.072500
	N275	N	0.806804	0.528480	0.899030
	O276	O	0.421647	0.677824	0.326650
	H277	H	0.412699	0.687042	0.307534
	H278	H	0.419370	0.670109	0.343011
	O279	O	1.131233	0.844022	0.879646
	H280	H	1.142924	0.834388	0.880481
	H281	H	1.133232	0.846520	0.893454
	O282	O	0.872375	0.153107	0.987345
	H283	H	0.875330	0.156723	0.987754
	H284	H	0.873993	0.159757	0.973178
	O285	O	0.819487	-0.108273	0.985588
	H286	H	0.809681	-0.120439	1.007576
	H287	H	0.814702	-0.118259	1.001644
	O288	O	1.043239	0.917601	0.865194
	H289	H	1.051817	0.910376	0.858334
	H290	H	1.039396	0.927826	0.858202
	O291	O	-0.207308	0.977562	-0.046043
	H292	H	-0.212865	0.971713	-0.056423
	H293	H	-0.205029	0.955207	-0.033864
	O294	O	0.541756	0.550043	0.642493
	H295	H	0.529735	0.538820	0.637574
	H296	H	0.540464	0.542868	0.643741
	O297	O	0.941212	1.020994	1.086140
	H298	H	0.929732	0.999059	1.099944
	H299	H	0.930420	1.020065	1.067489
	O300	O	0.445923	0.399743	0.536165
	H301	H	0.437698	0.412299	0.525245
	H302	H	0.448660	0.400230	0.546906
	O303	O	0.413808	0.650508	0.498257
	H304	H	0.412937	0.663193	0.488399
	H305	H	0.420045	0.656771	0.503089
	O306	O	0.596508	0.465550	0.396072
	H307	H	0.583583	0.471248	0.382850
	H308	H	0.603674	0.465147	0.407527
	O309	O	0.361239	0.393535	0.617716
	H310	H	0.358962	0.404215	0.610105
	H311	H	0.337580	0.392808	0.609780
	O312	O	-0.122561	0.097178	-0.027423
	H313	H	-0.113592	0.082079	-0.030806
	H314	H	-0.126962	0.100369	-0.051813
	O315	O	0.633674	0.562390	0.410689
	H316	H	0.636500	0.553101	0.407633
	H317	H	0.643386	0.559018	0.405707
	O318	O	-0.218603	0.951351	1.190036
	H319	H	-0.233868	0.960290	1.179421
	H320	H	-0.227621	0.943740	1.209859
	O321	O	0.675821	0.537510	0.505778
	H322	H	0.667662	0.541669	0.519428
	H323	H	0.678520	0.546320	0.503990
	O324	O	-0.472898	1.506210	-0.368169
	H325	H	-0.468874	1.505318	-0.364014
	H326	H	-0.481810	1.506000	-0.365288
	O327	O	0.453304	0.483914	0.415330
	H328	H	0.458897	0.475876	0.428414
	H329	H	0.446919	0.492570	0.405755
	O330	O	-0.072924	-0.055710	0.863606
	H331	H	-0.068995	-0.067146	0.864456
	H332	H	-0.081935	-0.066549	0.843299
	O333	O	-0.577094	0.455766	1.419580
	H334	H	-0.582739	0.466534	1.430725
	H335	H	-0.568574	0.460640	1.413812
	O336	O	0.593323	0.577484	0.506666
	H337	H	0.596879	0.582979	0.496752
	H338	H	0.588653	0.571099	0.502017
	O339	O	0.974465	-0.190846	-0.048861
	H340	H	0.979246	-0.200531	-0.037597
	H341	H	0.958968	-0.183207	-0.045085
	O342	O	0.022947	-0.043690	0.153798
	H343	H	0.023576	-0.033979	0.156176
	H344	H	0.034958	-0.034195	0.135129
	O345	O	1.091951	0.061524	1.014866
	H346	H	1.082661	0.050855	0.994331
	H347	H	1.112779	0.073504	1.004170
	O348	O	0.973182	0.920811	-0.167648
	H349	H	0.968801	0.927122	-0.159023
	H350	H	0.989776	0.915181	-0.165745
	O351	O	0.361722	0.338850	0.497979
	H352	H	0.362934	0.341047	0.476603
	H353	H	0.354140	0.320775	0.499426
	O354	O	1.067094	0.035822	0.948700
	H355	H	1.067636	0.049603	0.941461
	H356	H	1.055261	0.022838	0.939378
	O357	O	0.028549	-0.129926	0.986006
	H358	H	0.022754	-0.140905	0.996313
	H359	H	0.026278	-0.128069	0.984580
	O360	O	0.588715	0.371778	0.501323
	H361	H	0.590490	0.373794	0.508944
	H362	H	0.599513	0.362269	0.496414
	O363	O	-0.038571	0.846067	1.179756
	H364	H	-0.017119	0.834624	1.195330
	H365	H	-0.029396	0.863047	1.184743
	O366	O	1.114091	1.177239	0.151411
	H367	H	1.090874	1.184283	0.158539
	H368	H	1.104307	1.183444	0.120273
	O369	O	0.078000	0.111581	0.886073
	H370	H	0.079296	0.112756	0.880583
	H371	H	0.066543	0.111209	0.885172
	O372	O	0.512443	0.660694	0.628212
	H373	H	0.518262	0.658933	0.638763
	H374	H	0.527777	0.670642	0.630376
	O375	O	0.383677	0.440031	0.457443
	H376	H	0.381340	0.427798	0.459249
	H377	H	0.379357	0.441504	0.469299
	O378	O	1.084384	1.097078	-0.067725
	H379	H	1.087595	1.088378	-0.054888
	H380	H	1.092807	1.098595	-0.065138
	O381	O	0.999804	0.003036	-0.154075
	H382	H	1.000647	0.008950	-0.148546
	H383	H	0.992261	-0.012976	-0.157933
	O384	O	1.390612	0.519566	0.524658
	H385	H	1.392901	0.530053	0.521391
	H386	H	1.390798	0.512861	0.528251
	O387	O	0.054715	0.168415	0.143738
	H388	H	0.036941	0.163791	0.123153
	H389	H	0.047422	0.181724	0.142872
	O390	O	0.418690	1.526696	0.320837
	H391	H	0.423761	1.520727	0.330592
	H392	H	0.413872	1.532200	0.315781
	O393	O	0.797842	0.805788	1.131048
	H394	H	0.814922	0.795728	1.145463
	H395	H	0.805547	0.831276	1.141501
	O396	O	0.445924	0.325405	0.407612
	H397	H	0.453727	0.319452	0.407222
	H398	H	0.448598	0.340952	0.392855
	O399	O	0.446457	0.586874	1.339623
	H400	H	0.449996	0.597824	1.332229
	H401	H	0.431860	0.575381	1.337989
	O402	O	0.402770	0.520724	0.609209
	H403	H	0.412965	0.508355	0.610284
	H404	H	0.395031	0.522968	0.610831
	O405	O	0.835225	0.971589	-0.158862
	H406	H	0.840802	0.958287	-0.151685
	H407	H	0.831425	0.967435	-0.155938
	O408	O	1.184232	1.074959	0.129877
	H409	H	1.187718	1.100992	0.137841
	H410	H	1.186802	1.098323	0.131222
	O411	O	1.109455	-0.031756	0.938591
	H412	H	1.082631	-0.022081	0.936054
	H413	H	1.115239	-0.022879	0.957262
	O414	O	1.128341	-0.057615	-0.089320
	H415	H	1.122632	-0.053433	-0.082460
	H416	H	1.143318	-0.057665	-0.099252
	O417	O	0.569839	0.553446	0.475367
	H418	H	0.568153	0.558512	0.478323
	H419	H	0.559020	0.546069	0.468650
