data_Molecule from HDF5

_cell_length_a		16.207856
_cell_length_b		16.167949
_cell_length_c		16.324390
_cell_angle_alpha	89.997486
_cell_angle_beta	89.721072
_cell_angle_gamma	90.673243
_symmetry_space_group_name_H-M	'P 1'
_symmetry_Int_Tables_number		1

loop_
	_symmetry_equiv_pos_as_xyz
	x,y,z

loop_
	_atom_site_label
	_atom_site_type_symbol
	_atom_site_fract_x
	_atom_site_fract_y
	_atom_site_fract_z
	H0	H	0.392691	0.839552	0.706274
	H1	H	0.595140	0.168412	0.705732
	H2	H	0.593576	0.839764	0.275486
	H3	H	0.395702	0.166703	0.276174
	H4	H	0.707965	0.406265	0.827984
	H5	H	0.710216	0.606239	0.154460
	H6	H	0.282266	0.601028	0.827483
	H7	H	0.275631	0.403082	0.154183
	H8	H	0.828389	0.716118	0.394900
	H9	H	0.157565	0.719421	0.587705
	H10	H	0.829481	0.288354	0.588521
	H11	H	0.159036	0.293713	0.391324
	H12	H	0.830171	0.400904	0.707363
	H13	H	0.156976	0.607134	0.705239
	H14	H	0.829087	0.603289	0.276164
	H15	H	0.157046	0.406204	0.273246
	H16	H	0.398043	0.717105	0.827565
	H17	H	0.593319	0.720871	0.154507
	H18	H	0.591484	0.290252	0.828359
	H19	H	0.391392	0.288310	0.155058
	H20	H	0.706196	0.838774	0.394104
	H21	H	0.708096	0.168939	0.588493
	H22	H	0.277576	0.839806	0.591937
	H23	H	0.284960	0.168798	0.394360
	H24	H	0.891557	0.340020	0.206146
	H25	H	0.094612	0.668315	0.204923
	H26	H	0.091206	0.339811	0.775988
	H27	H	0.895960	0.668733	0.775969
	H28	H	0.207950	0.907414	0.328495
	H29	H	0.209065	0.103756	0.655347
	H30	H	0.780444	0.102733	0.328982
	H31	H	0.777105	0.903883	0.655071
	H32	H	0.327681	0.213650	0.896989
	H33	H	0.657415	0.219803	0.088276
	H34	H	0.329670	0.788639	0.089030
	H35	H	0.658794	0.793586	0.892311
	H36	H	0.330258	0.900201	0.207885
	H37	H	0.657192	0.106826	0.206089
	H38	H	0.329618	0.101554	0.778010
	H39	H	0.657653	0.907636	0.776272
	H40	H	0.898600	0.216233	0.327879
	H41	H	0.094215	0.221342	0.654209
	H42	H	0.092307	0.790787	0.327964
	H43	H	0.892972	0.788761	0.655264
	H44	H	0.205179	0.338972	0.893288
	H45	H	0.209005	0.669130	0.088400
	H46	H	0.777178	0.340106	0.090056
	H47	H	0.783070	0.669937	0.893524
	H48	H	0.411170	0.119411	0.584652
	H49	H	0.588870	0.885353	0.580935
	H50	H	0.586574	0.120403	0.400387
	H51	H	0.405648	0.886600	0.399419
	H52	H	0.585117	0.410000	0.108379
	H53	H	0.581380	0.597972	0.877418
	H54	H	0.404008	0.600427	0.108634
	H55	H	0.400079	0.407985	0.874376
	H56	H	0.110191	0.596381	0.395420
	H57	H	0.878540	0.593865	0.575526
	H58	H	0.107905	0.422827	0.580078
	H59	H	0.875946	0.411566	0.397228
	H60	H	0.114261	0.414485	0.594460
	H61	H	0.876034	0.586442	0.592205
	H62	H	0.111990	0.599938	0.394629
	H63	H	0.876823	0.409740	0.400856
	H64	H	0.396735	0.596266	0.109340
	H65	H	0.591901	0.604892	0.872521
	H66	H	0.587308	0.414193	0.107374
	H67	H	0.399007	0.410572	0.875873
	H68	H	0.589796	0.121624	0.399199
	H69	H	0.586973	0.884669	0.589438
	H70	H	0.397149	0.121821	0.578106
	H71	H	0.396713	0.884458	0.402952
	H72	H	0.904775	0.623570	0.088948
	H73	H	0.075105	0.385883	0.095742
	H74	H	0.095926	0.624226	0.896812
	H75	H	0.891409	0.384567	0.899592
	H76	H	0.084817	0.913312	0.607371
	H77	H	0.088325	0.097103	0.376151
	H78	H	0.887802	0.090135	0.610530
	H79	H	0.890644	0.903245	0.370337
	H80	H	0.610342	0.096431	0.897227
	H81	H	0.378604	0.080980	0.090695
	H82	H	0.610873	0.919496	0.088035
	H83	H	0.371110	0.902576	0.888223
	H84	H	0.614198	0.907609	0.087850
	H85	H	0.370192	0.103245	0.094605
	H86	H	0.611979	0.099829	0.895979
	H87	H	0.378381	0.904219	0.910375
	H88	H	0.913263	0.088197	0.602572
	H89	H	0.090909	0.102637	0.374047
	H90	H	0.084859	0.910035	0.608013
	H91	H	0.898344	0.921959	0.378161
	H92	H	0.085699	0.622905	0.891473
	H93	H	0.078810	0.391994	0.071116
	H94	H	0.906865	0.620238	0.081687
	H95	H	0.904166	0.385915	0.891185
	H96	H	0.400051	0.124805	0.593128
	H97	H	0.580034	0.887699	0.584059
	H98	H	0.587433	0.121312	0.395961
	H99	H	0.398648	0.883228	0.393652
	H100	H	0.582998	0.413777	0.106766
	H101	H	0.592787	0.592013	0.876215
	H102	H	0.402488	0.592599	0.105606
	H103	H	0.401872	0.409950	0.876183
	H104	H	0.109765	0.599083	0.398441
	H105	H	0.872184	0.604515	0.588861
	H106	H	0.112412	0.404377	0.578732
	H107	H	0.878461	0.413324	0.399941
	H108	H	0.898299	0.622879	0.082785
	H109	H	0.097907	0.381954	0.084321
	H110	H	0.087019	0.619113	0.902399
	H111	H	0.904533	0.390237	0.905554
	H112	H	0.087691	0.912239	0.607896
	H113	H	0.093220	0.097434	0.373817
	H114	H	0.903564	0.111302	0.612019
	H115	H	0.910748	0.904244	0.377299
	H116	H	0.610450	0.098697	0.899202
	H117	H	0.378777	0.096779	0.072954
	H118	H	0.609349	0.914110	0.077433
	H119	H	0.378689	0.922716	0.896510
	C120	C	0.372755	0.012742	0.613584
	C121	C	0.615129	0.994951	0.613077
	C122	C	0.616228	0.012509	0.369738
	C123	C	0.373552	0.994249	0.370693
	C124	C	0.614292	0.383494	-0.000143
	C125	C	0.617448	0.627929	0.982831
	C126	C	0.373315	0.624730	-0.000291
	C127	C	0.370085	0.380341	0.983048
	C128	C	0.001767	0.626233	0.368760
	C129	C	0.984451	0.625289	0.612625
	C130	C	0.002626	0.383087	0.612812
	C131	C	0.985416	0.383830	0.369559
	C132	C	0.872603	0.513077	0.112997
	C133	C	0.114079	0.495688	0.111859
	C134	C	0.116471	0.512837	0.868717
	C135	C	0.872457	0.495791	0.869868
	C136	C	0.114861	0.883275	0.499858
	C137	C	0.118589	0.127892	0.482950
	C138	C	0.873779	0.124857	0.500280
	C139	C	0.870792	0.881226	0.483303
	C140	C	0.502328	0.125592	0.869937
	C141	C	0.484446	0.124765	0.113773
	C142	C	0.502782	0.882858	0.113249
	C143	C	0.485228	0.882920	0.869878
	C144	C	0.373197	0.888868	0.668745
	C145	C	0.614495	0.119186	0.667914
	C146	C	0.613361	0.888701	0.314025
	C147	C	0.376291	0.117898	0.314817
	C148	C	0.669913	0.386025	0.876934
	C149	C	0.672280	0.626206	0.105605
	C150	C	0.319841	0.621435	0.876380
	C151	C	0.313981	0.383123	0.105580
	C152	C	0.877680	0.679598	0.373017
	C153	C	0.108225	0.681892	0.608834
	C154	C	0.878667	0.326513	0.609390
	C155	C	0.109477	0.330408	0.371026
	C156	C	0.879151	0.382286	0.668526
	C157	C	0.108067	0.625793	0.667286
	C158	C	0.878178	0.623778	0.313760
	C159	C	0.108617	0.386656	0.312606
	C160	C	0.377320	0.679289	0.876459
	C161	C	0.614058	0.683277	0.105674
	C162	C	0.611804	0.328386	0.877054
	C163	C	0.371423	0.325807	0.106059
	C164	C	0.669274	0.888132	0.373119
	C165	C	0.670854	0.119438	0.609801
	C166	C	0.316198	0.888815	0.611525
	C167	C	0.321146	0.118941	0.373615
	C168	C	0.872029	0.389338	0.168488
	C169	C	0.114100	0.619337	0.166929
	C170	C	0.112225	0.388882	0.813594
	C171	C	0.875700	0.619733	0.814267
	C172	C	0.170000	0.886340	0.377117
	C173	C	0.172442	0.124939	0.606000
	C174	C	0.819044	0.122356	0.377328
	C175	C	0.815121	0.883652	0.606400
	C176	C	0.377376	0.177682	0.874891
	C177	C	0.608128	0.182245	0.109983
	C178	C	0.378817	0.826542	0.110226
	C179	C	0.609205	0.829651	0.871723
	C180	C	0.379306	0.881764	0.169372
	C181	C	0.608046	0.125922	0.168493
	C182	C	0.378480	0.122446	0.815331
	C183	C	0.608672	0.886478	0.814059
	C184	C	0.877544	0.179025	0.376737
	C185	C	0.115006	0.183007	0.605669
	C186	C	0.112517	0.828520	0.377133
	C187	C	0.872773	0.826382	0.606609
	C188	C	0.168756	0.388329	0.872046
	C189	C	0.170772	0.619693	0.108863
	C190	C	0.815190	0.389352	0.110641
	C191	C	0.819420	0.620293	0.872700
	C192	C	0.396035	0.099552	0.591717
	C193	C	0.591796	0.908462	0.591310
	C194	C	0.594524	0.098741	0.391868
	C195	C	0.394300	0.907326	0.392375
	C196	C	0.591685	0.405885	0.085359
	C197	C	0.595530	0.605020	0.897369
	C198	C	0.394626	0.602981	0.085733
	C199	C	0.393437	0.402837	0.897377
	C200	C	0.088207	0.604817	0.389909
	C201	C	0.897849	0.601819	0.591470
	C202	C	0.089137	0.406933	0.590809
	C203	C	0.899277	0.405112	0.392690
	C204	C	0.896261	0.599817	0.090753
	C205	C	0.090913	0.408926	0.089946
	C206	C	0.095556	0.599626	0.890347
	C207	C	0.893733	0.409421	0.892140
	C208	C	0.092568	0.905374	0.585764
	C209	C	0.097192	0.105729	0.396846
	C210	C	0.895304	0.103153	0.586026
	C211	C	0.893236	0.903343	0.397527
	C212	C	0.588535	0.104661	0.891216
	C213	C	0.398323	0.100786	0.092336
	C214	C	0.588978	0.906761	0.091027
	C215	C	0.398465	0.903750	0.891799
	Zn216	Zn	0.493514	0.004068	0.741182
	Zn217	Zn	0.494043	0.003207	0.242116
	Zn218	Zn	0.744902	0.505085	-0.008526
	Zn219	Zn	0.243749	0.503608	-0.008706
	Zn220	Zn	-0.007319	0.753538	0.491686
	Zn221	Zn	-0.005113	0.255247	0.490803
	Zn222	Zn	-0.006307	0.504837	0.741481
	Zn223	Zn	-0.006834	0.504437	0.240765
	Zn224	Zn	0.494340	0.755293	-0.008533
	Zn225	Zn	0.492267	0.253136	-0.007719
	Zn226	Zn	0.743484	0.003789	0.492110
	Zn227	Zn	0.245845	0.004091	0.491910
	N228	N	0.407784	0.967074	0.669993
	N229	N	0.580432	0.040897	0.670048
	N230	N	0.581067	0.966978	0.311781
	N231	N	0.408071	0.039343	0.313081
	N232	N	0.671402	0.419777	0.954331
	N233	N	0.674189	0.592121	0.028449
	N234	N	0.317283	0.588329	0.953986
	N235	N	0.312996	0.416282	0.028035
	N236	N	0.955534	0.681660	0.406215
	N237	N	0.030077	0.681803	0.575930
	N238	N	0.956666	0.326761	0.575588
	N239	N	0.032026	0.328607	0.406081
	N240	N	0.957187	0.416819	0.670890
	N241	N	0.030168	0.591179	0.669691
	N242	N	0.956262	0.591381	0.311148
	N243	N	0.030472	0.419003	0.311755
	N244	N	0.409954	0.681395	0.954151
	N245	N	0.580815	0.684575	0.028364
	N246	N	0.577573	0.326819	0.954378
	N247	N	0.405685	0.324037	0.028819
	N248	N	0.671370	0.966135	0.406876
	N249	N	0.671251	0.041318	0.576347
	N250	N	0.315851	0.966930	0.577980
	N251	N	0.319301	0.041095	0.407855
	N252	N	0.906872	0.467314	0.169877
	N253	N	0.079420	0.541384	0.168568
	N254	N	0.080410	0.467527	0.811471
	N255	N	0.907984	0.541456	0.812552
	N256	N	0.171511	0.919798	0.454496
	N257	N	0.174723	0.091253	0.528483
	N258	N	0.816451	0.089474	0.455055
	N259	N	0.813845	0.917017	0.528916
	N260	N	0.455344	0.180088	0.907922
	N261	N	0.530265	0.181685	0.076816
	N262	N	0.456672	0.826969	0.076006
	N263	N	0.531428	0.827514	0.905927
	N264	N	0.457373	0.916166	0.171228
	N265	N	0.530235	0.090851	0.170976
	N266	N	0.456947	0.090879	0.812034
	N267	N	0.530693	0.918755	0.812687
	N268	N	0.911079	0.180542	0.454052
	N269	N	0.082353	0.184931	0.528096
	N270	N	0.078604	0.826624	0.454572
	N271	N	0.906773	0.824774	0.529197
	N272	N	0.171539	0.466212	0.905535
	N273	N	0.171001	0.541521	0.075221
	N274	N	0.815437	0.467459	0.076952
	N275	N	0.817072	0.542280	0.906380
	O276	O	0.442857	0.483935	0.543910
	H277	H	0.448031	0.478969	0.543556
	H278	H	0.442949	0.489690	0.547674
	O279	O	0.478449	0.437378	0.476526
	H280	H	0.470218	0.447446	0.474250
	H281	H	0.463854	0.429477	0.478397
	O282	O	0.544709	0.495643	0.540470
	H283	H	0.538623	0.493677	0.545328
	H284	H	0.549893	0.497536	0.534234
	O285	O	0.369810	0.431943	1.525151
	H286	H	0.363825	0.443851	1.530732
	H287	H	0.358059	0.430688	1.525474
	O288	O	0.484974	0.545502	0.503444
	H289	H	0.489249	0.542852	0.500341
	H290	H	0.491043	0.543094	0.499986
	O291	O	-0.074789	-0.012468	1.005205
	H292	H	-0.089386	-0.005096	0.999052
	H293	H	-0.081812	-0.018531	1.004379
	O294	O	0.949801	0.992698	0.994252
	H295	H	0.950659	1.002585	0.997122
	H296	H	0.945215	0.991066	0.991509
	O297	O	0.449194	0.446880	0.495297
	H298	H	0.451261	0.447816	0.487274
	H299	H	0.457376	0.437462	0.496248
	O300	O	0.413758	0.481686	0.525241
	H301	H	0.419446	0.490533	0.520532
	H302	H	0.412164	0.468894	0.529008
	O303	O	0.491399	0.511158	0.484492
	H304	H	0.497348	0.519967	0.482666
	H305	H	0.493014	0.508164	0.486200
	O306	O	1.533581	0.509009	0.522831
	H307	H	1.533848	0.509556	0.535308
	H308	H	1.534548	0.504361	0.513929
	O309	O	0.611809	0.501367	0.466405
	H310	H	0.606592	0.493780	0.475362
	H311	H	0.602874	0.493734	0.454378
	O312	O	0.520027	0.535979	0.493901
	H313	H	0.527413	0.529581	0.489397
	H314	H	0.511367	0.531206	0.494222
	O315	O	0.942157	-0.046003	1.001214
	H316	H	0.945460	-0.055036	0.993894
	H317	H	0.947865	-0.048637	1.009734
	O318	O	-0.562069	-0.477359	0.508413
	H319	H	-0.555616	-0.491359	0.511243
	H320	H	-0.566684	-0.474582	0.502124
	O321	O	0.532428	0.473899	0.515118
	H322	H	0.540246	0.480732	0.519793
	H323	H	0.526715	0.476577	0.524548
	O324	O	0.914727	-0.035906	0.036143
	H325	H	0.919031	-0.044154	0.045534
	H326	H	0.914075	-0.039551	0.042473
	O327	O	0.987414	0.960737	-0.008980
	H328	H	0.984716	0.970526	-0.014432
	H329	H	0.985784	0.962258	-0.008031
	O330	O	0.496254	0.493771	0.462339
	H331	H	0.493700	0.498109	0.460540
	H332	H	0.486725	0.486942	0.466338
	O333	O	0.461760	0.507509	0.463323
	H334	H	0.466894	0.517537	0.467636
	H335	H	0.459757	0.509671	0.482772
