data_Molecule from HDF5

_cell_length_a		16.292860
_cell_length_b		16.174219
_cell_length_c		16.246938
_cell_angle_alpha	89.731527
_cell_angle_beta	89.518127
_cell_angle_gamma	90.219413
_symmetry_space_group_name_H-M	'P 1'
_symmetry_Int_Tables_number		1

loop_
	_symmetry_equiv_pos_as_xyz
	x,y,z

loop_
	_atom_site_label
	_atom_site_type_symbol
	_atom_site_fract_x
	_atom_site_fract_y
	_atom_site_fract_z
	H0	H	0.392097	0.839172	0.706974
	H1	H	0.590782	0.168255	0.701995
	H2	H	0.592722	0.838789	0.275817
	H3	H	0.397117	0.167887	0.276795
	H4	H	0.711273	0.402554	0.827553
	H5	H	0.708612	0.602844	0.154253
	H6	H	0.280908	0.602299	0.826798
	H7	H	0.275165	0.400494	0.154131
	H8	H	0.829456	0.717813	0.392604
	H9	H	0.157306	0.716386	0.585254
	H10	H	0.829887	0.288683	0.590916
	H11	H	0.158324	0.290689	0.391531
	H12	H	0.831529	0.401353	0.708585
	H13	H	0.157452	0.602274	0.702593
	H14	H	0.829532	0.602146	0.275591
	H15	H	0.156286	0.404816	0.273443
	H16	H	0.396926	0.716106	0.827101
	H17	H	0.589610	0.716636	0.155160
	H18	H	0.591373	0.291611	0.825386
	H19	H	0.393817	0.288577	0.155068
	H20	H	0.709523	0.839242	0.390001
	H21	H	0.706753	0.167843	0.587785
	H22	H	0.277403	0.839332	0.592208
	H23	H	0.280954	0.168127	0.392174
	H24	H	0.892142	0.337885	0.207387
	H25	H	0.090692	0.667114	0.201618
	H26	H	0.092737	0.337690	0.775619
	H27	H	0.898180	0.667654	0.777620
	H28	H	0.210380	0.904796	0.327672
	H29	H	0.207195	0.102448	0.654966
	H30	H	0.780207	0.103908	0.327312
	H31	H	0.776803	0.902558	0.654973
	H32	H	0.328748	0.216622	0.892708
	H33	H	0.656398	0.216770	0.085530
	H34	H	0.328465	0.787529	0.090975
	H35	H	0.655640	0.789029	0.890965
	H36	H	0.329213	0.903256	0.207982
	H37	H	0.655863	0.103624	0.203105
	H38	H	0.330013	0.101954	0.776458
	H39	H	0.656243	0.904461	0.775168
	H40	H	0.897679	0.217498	0.326652
	H41	H	0.089584	0.215499	0.655988
	H42	H	0.091574	0.791491	0.326541
	H43	H	0.894216	0.787709	0.655500
	H44	H	0.209022	0.338227	0.890912
	H45	H	0.206461	0.666370	0.087111
	H46	H	0.776350	0.338240	0.092771
	H47	H	0.781240	0.667009	0.891777
	H48	H	0.403493	0.121755	0.589512
	H49	H	0.580559	0.889879	0.574182
	H50	H	0.576738	0.115745	0.400723
	H51	H	0.404660	0.884761	0.391656
	H52	H	0.586472	0.407269	0.108694
	H53	H	0.594768	0.588208	0.874783
	H54	H	0.401521	0.592741	0.107068
	H55	H	0.394050	0.412943	0.872794
	H56	H	0.106989	0.589108	0.397125
	H57	H	0.878039	0.593672	0.581323
	H58	H	0.109964	0.410574	0.582101
	H59	H	0.878010	0.415673	0.397090
	H60	H	0.111313	0.410596	0.584127
	H61	H	0.876885	0.591798	0.587854
	H62	H	0.112297	0.598886	0.386649
	H63	H	0.875246	0.405936	0.396659
	H64	H	0.398475	0.596465	0.109608
	H65	H	0.579022	0.594342	0.876894
	H66	H	0.585659	0.414216	0.106205
	H67	H	0.404977	0.414623	0.876578
	H68	H	0.596495	0.120950	0.404633
	H69	H	0.595491	0.882545	0.582546
	H70	H	0.404084	0.118482	0.578040
	H71	H	0.404984	0.889193	0.407199
	H72	H	0.900058	0.620336	0.085494
	H73	H	0.083800	0.382586	0.089497
	H74	H	0.083064	0.619131	0.896229
	H75	H	0.901571	0.387393	0.908793
	H76	H	0.085056	0.912739	0.607765
	H77	H	0.092791	0.090211	0.374627
	H78	H	0.897561	0.094613	0.608456
	H79	H	0.898319	0.903599	0.371410
	H80	H	0.606354	0.096786	0.906155
	H81	H	0.376459	0.091924	0.085463
	H82	H	0.609958	0.911339	0.088280
	H83	H	0.377707	0.916251	0.899956
	H84	H	0.609992	0.904915	0.080970
	H85	H	0.373896	0.096282	0.088447
	H86	H	0.609372	0.088751	0.887005
	H87	H	0.373014	0.908015	0.891571
	H88	H	0.899687	0.095108	0.608155
	H89	H	0.081464	0.096431	0.376232
	H90	H	0.084107	0.907665	0.608227
	H91	H	0.895937	0.919237	0.375373
	H92	H	0.090908	0.619459	0.900132
	H93	H	0.080042	0.386419	0.079790
	H94	H	0.902665	0.619088	0.082200
	H95	H	0.893261	0.381308	0.895681
	H96	H	0.395205	0.122938	0.583054
	H97	H	0.579178	0.884720	0.592178
	H98	H	0.588750	0.124129	0.385171
	H99	H	0.392639	0.883424	0.401281
	H100	H	0.580329	0.409073	0.105594
	H101	H	0.590758	0.604839	0.870609
	H102	H	0.396056	0.591615	0.107838
	H103	H	0.401751	0.404622	0.871831
	H104	H	0.109350	0.603062	0.400852
	H105	H	0.875219	0.598024	0.585662
	H106	H	0.111063	0.408647	0.582891
	H107	H	0.879006	0.409853	0.405842
	H108	H	0.898553	0.619696	0.081146
	H109	H	0.090419	0.383133	0.080934
	H110	H	0.090020	0.621467	0.892082
	H111	H	0.909732	0.386159	0.893750
	H112	H	0.088888	0.908707	0.608955
	H113	H	0.092108	0.103544	0.371462
	H114	H	0.898018	0.096724	0.607815
	H115	H	0.910685	0.911799	0.377417
	H116	H	0.614530	0.109082	0.890820
	H117	H	0.375423	0.096830	0.081990
	H118	H	0.606779	0.913850	0.079391
	H119	H	0.375813	0.904446	0.903760
	C120	C	0.371678	0.011962	0.612808
	C121	C	0.613575	0.994639	0.611225
	C122	C	0.616016	0.011601	0.368126
	C123	C	0.373001	0.994799	0.370674
	C124	C	0.614433	0.381547	-0.001201
	C125	C	0.615649	0.624626	0.982345
	C126	C	0.371422	0.623370	-0.000275
	C127	C	0.370678	0.380754	0.981752
	C128	C	0.001476	0.625578	0.367444
	C129	C	0.985081	0.623714	0.611921
	C130	C	0.002790	0.380935	0.612799
	C131	C	0.985539	0.381799	0.369716
	C132	C	0.870988	0.510778	0.112786
	C133	C	0.113656	0.493021	0.110972
	C134	C	0.116283	0.511111	0.867938
	C135	C	0.873316	0.493916	0.870071
	C136	C	0.115228	0.881807	0.499875
	C137	C	0.116121	0.125287	0.482658
	C138	C	0.871507	0.124681	0.499809
	C139	C	0.871630	0.881633	0.482743
	C140	C	0.501617	0.125957	0.867786
	C141	C	0.483911	0.123985	0.111943
	C142	C	0.500809	0.880636	0.112578
	C143	C	0.483866	0.881473	0.869303
	C144	C	0.372620	0.888401	0.668905
	C145	C	0.611193	0.118979	0.664975
	C146	C	0.613407	0.888078	0.313127
	C147	C	0.376388	0.118609	0.314905
	C148	C	0.671982	0.383340	0.876190
	C149	C	0.670255	0.622867	0.105616
	C150	C	0.317856	0.622046	0.876114
	C151	C	0.314184	0.381502	0.105397
	C152	C	0.878386	0.680315	0.371364
	C153	C	0.108106	0.679262	0.607376
	C154	C	0.879315	0.325598	0.611463
	C155	C	0.108886	0.327764	0.371401
	C156	C	0.879967	0.381814	0.669834
	C157	C	0.108500	0.622167	0.665160
	C158	C	0.878226	0.622686	0.313308
	C159	C	0.108020	0.384810	0.312986
	C160	C	0.375332	0.678936	0.876154
	C161	C	0.611604	0.679797	0.105841
	C162	C	0.612261	0.327988	0.875077
	C163	C	0.372937	0.325311	0.105678
	C164	C	0.671217	0.888219	0.370346
	C165	C	0.668850	0.118690	0.608230
	C166	C	0.315800	0.888292	0.611385
	C167	C	0.318630	0.118813	0.371971
	C168	C	0.871999	0.387210	0.169637
	C169	C	0.111283	0.617805	0.164523
	C170	C	0.113406	0.387040	0.813046
	C171	C	0.876852	0.618085	0.814896
	C172	C	0.171424	0.884542	0.376275
	C173	C	0.169530	0.122256	0.606189
	C174	C	0.817522	0.123499	0.376256
	C175	C	0.815195	0.882748	0.606110
	C176	C	0.378062	0.179890	0.871416
	C177	C	0.607151	0.179434	0.107071
	C178	C	0.377486	0.825335	0.111206
	C179	C	0.607051	0.826908	0.871009
	C180	C	0.377739	0.882758	0.169224
	C181	C	0.607069	0.122998	0.165501
	C182	C	0.378550	0.122629	0.813947
	C183	C	0.607072	0.884247	0.813249
	C184	C	0.876158	0.179847	0.375747
	C185	C	0.111164	0.178683	0.606609
	C186	C	0.112544	0.828176	0.375799
	C187	C	0.873403	0.825607	0.606447
	C188	C	0.171090	0.387118	0.870407
	C189	C	0.168615	0.617426	0.107620
	C190	C	0.814649	0.387194	0.112446
	C191	C	0.818869	0.617724	0.871668
	C192	C	0.394185	0.098628	0.590053
	C193	C	0.591330	0.908148	0.589446
	C194	C	0.593768	0.098118	0.390244
	C195	C	0.394551	0.908106	0.393277
	C196	C	0.591167	0.403697	0.084555
	C197	C	0.594252	0.602467	0.896502
	C198	C	0.392580	0.600405	0.085889
	C199	C	0.393612	0.403898	0.895861
	C200	C	0.087443	0.603536	0.388504
	C201	C	0.899071	0.601016	0.591134
	C202	C	0.088573	0.403253	0.589755
	C203	C	0.899497	0.404073	0.393079
	C204	C	0.893755	0.597144	0.089812
	C205	C	0.091372	0.406488	0.089614
	C206	C	0.094473	0.597655	0.889634
	C207	C	0.895045	0.407203	0.892746
	C208	C	0.092711	0.903381	0.585857
	C209	C	0.095068	0.103199	0.396305
	C210	C	0.892431	0.102226	0.585970
	C211	C	0.894786	0.904732	0.397003
	C212	C	0.587726	0.104662	0.888605
	C213	C	0.397748	0.101401	0.091381
	C214	C	0.586548	0.903301	0.089676
	C215	C	0.397694	0.903104	0.891879
	Zn216	Zn	0.493067	0.003298	0.740343
	Zn217	Zn	0.493306	0.003132	0.240690
	Zn218	Zn	0.744328	0.502284	-0.008874
	Zn219	Zn	0.242819	0.502443	-0.009403
	Zn220	Zn	-0.006921	0.752914	0.490714
	Zn221	Zn	-0.006532	0.252892	0.491329
	Zn222	Zn	-0.005594	0.502508	0.740554
	Zn223	Zn	-0.007291	0.502699	0.239423
	Zn224	Zn	0.492336	0.752309	-0.009240
	Zn225	Zn	0.492410	0.252921	-0.009948
	Zn226	Zn	0.742872	0.003158	0.491075
	Zn227	Zn	0.244070	0.003704	0.491445
	N228	N	0.406844	0.966267	0.669740
	N229	N	0.577506	0.040878	0.667044
	N230	N	0.579962	0.966038	0.311525
	N231	N	0.409571	0.040388	0.314074
	N232	N	0.673288	0.416136	0.954176
	N233	N	0.673122	0.589458	0.027941
	N234	N	0.315340	0.588053	0.953920
	N235	N	0.312571	0.415209	0.027405
	N236	N	0.955832	0.681873	0.404266
	N237	N	0.030368	0.680194	0.574901
	N238	N	0.956529	0.324962	0.576563
	N239	N	0.031430	0.325844	0.405960
	N240	N	0.957647	0.415536	0.670881
	N241	N	0.030930	0.588232	0.668119
	N242	N	0.955918	0.589619	0.310532
	N243	N	0.030237	0.417805	0.312060
	N244	N	0.408143	0.679784	0.953932
	N245	N	0.578373	0.680974	0.028320
	N246	N	0.576972	0.326842	0.952151
	N247	N	0.407425	0.324767	0.028022
	N248	N	0.672992	0.966205	0.403660
	N249	N	0.670326	0.040474	0.575366
	N250	N	0.314990	0.966388	0.577343
	N251	N	0.316780	0.040897	0.406150
	N252	N	0.906305	0.465199	0.170032
	N253	N	0.077807	0.539649	0.166847
	N254	N	0.080096	0.465146	0.811500
	N255	N	0.910137	0.540040	0.813856
	N256	N	0.173238	0.916993	0.454216
	N257	N	0.172687	0.089926	0.528054
	N258	N	0.814613	0.089926	0.454124
	N259	N	0.813884	0.916561	0.528291
	N260	N	0.455684	0.182058	0.904166
	N261	N	0.529605	0.180064	0.074374
	N262	N	0.455008	0.823990	0.076816
	N263	N	0.529575	0.825042	0.905143
	N264	N	0.455510	0.916444	0.170407
	N265	N	0.529446	0.089353	0.168592
	N266	N	0.456198	0.089829	0.811408
	N267	N	0.529477	0.917512	0.812250
	N268	N	0.909041	0.180862	0.453488
	N269	N	0.078508	0.180629	0.528694
	N270	N	0.078288	0.826216	0.453549
	N271	N	0.907847	0.824693	0.528705
	N272	N	0.173045	0.465197	0.903571
	N273	N	0.170303	0.538789	0.075291
	N274	N	0.814026	0.464971	0.077955
	N275	N	0.816499	0.539419	0.905283
	O276	O	0.417490	0.539314	0.447870
	H277	H	0.405731	0.547160	0.438527
	H278	H	0.414581	0.530405	0.455345
	O279	O	0.507391	0.483321	0.402162
	H280	H	0.508090	0.483844	0.396787
	H281	H	0.508651	0.481529	0.397184
	O282	O	0.578058	0.611802	0.437663
	H283	H	0.577951	0.628857	0.440901
	H284	H	0.578266	0.612904	0.427734
	O285	O	0.495458	0.499857	1.500535
	H286	H	0.489490	0.503541	1.500294
	H287	H	0.488491	0.495848	1.512354
	O288	O	0.513551	0.455271	0.527852
	H289	H	0.518633	0.451860	0.528853
	H290	H	0.524489	0.459561	0.535412
	O291	O	-0.107523	-0.015756	1.078641
	H292	H	-0.101095	-0.024804	1.076660
	H293	H	-0.112308	-0.020414	1.083007
	O294	O	0.924329	0.918124	1.067531
	H295	H	0.918436	0.924753	1.069433
	H296	H	0.912482	0.920968	1.068328
	O297	O	0.580306	0.495941	0.485468
	H298	H	0.581013	0.496751	0.483387
	H299	H	0.577904	0.485302	0.488182
	O300	O	0.547523	0.482834	0.522264
	H301	H	0.556103	0.484713	0.520090
	H302	H	0.538260	0.472531	0.517612
	O303	O	0.412837	0.523377	0.491606
	H304	H	0.417164	0.532506	0.482634
	H305	H	0.418848	0.520196	0.493533
	O306	O	1.379450	0.501935	0.592005
	H307	H	1.366960	0.493612	0.592358
	H308	H	1.383570	0.498573	0.588223
	O309	O	0.494061	0.475570	0.500423
	H310	H	0.494059	0.472822	0.502830
	H311	H	0.490659	0.477176	0.504471
	O312	O	0.528692	0.507089	0.548009
	H313	H	0.530742	0.502411	0.553482
	H314	H	0.546845	0.512539	0.545060
	O315	O	0.895446	-0.085228	1.047895
	H316	H	0.888947	-0.097388	1.043329
	H317	H	0.901621	-0.093344	1.056239
	O318	O	-0.484810	-0.523511	0.430864
	H319	H	-0.487244	-0.525489	0.441812
	H320	H	-0.480385	-0.530271	0.429915
	O321	O	0.561089	0.543572	0.509919
	H322	H	0.562446	0.541342	0.515840
	H323	H	0.567221	0.553476	0.510388
	O324	O	0.889938	-0.057925	0.080259
	H325	H	0.886664	-0.041714	0.087287
	H326	H	0.884482	-0.053696	0.092490
	O327	O	0.917812	0.951970	0.035368
	H328	H	0.913764	0.947494	0.037069
	H329	H	0.922064	0.950741	0.031633
	O330	O	0.533846	0.581646	0.531314
	H331	H	0.520501	0.587571	0.537807
	H332	H	0.532920	0.574526	0.526063
	O333	O	0.494676	0.542309	0.431191
	H334	H	0.489799	0.542477	0.424616
	H335	H	0.488775	0.549235	0.436797
