data_Molecule from HDF5

_cell_length_a		16.448113
_cell_length_b		16.405805
_cell_length_c		16.426135
_cell_angle_alpha	89.939134
_cell_angle_beta	90.032966
_cell_angle_gamma	89.910126
_symmetry_space_group_name_H-M	'P 1'
_symmetry_Int_Tables_number		1

loop_
	_symmetry_equiv_pos_as_xyz
	x,y,z

loop_
	_atom_site_label
	_atom_site_type_symbol
	_atom_site_fract_x
	_atom_site_fract_y
	_atom_site_fract_z
	H0	H	0.384540	0.851240	0.740245
	H1	H	0.596711	0.166352	0.737915
	H2	H	0.603450	0.852764	0.291155
	H3	H	0.388007	0.168303	0.293259
	H4	H	0.715282	0.402379	0.857256
	H5	H	0.718039	0.614837	0.172770
	H6	H	0.270862	0.618569	0.858732
	H7	H	0.270430	0.401963	0.173166
	H8	H	0.836051	0.734873	0.405581
	H9	H	0.151268	0.735153	0.621188
	H10	H	0.836339	0.288146	0.622020
	H11	H	0.149366	0.283765	0.404848
	H12	H	0.836301	0.407188	0.735784
	H13	H	0.151157	0.620864	0.738865
	H14	H	0.838033	0.619967	0.287837
	H15	H	0.151646	0.401368	0.290624
	H16	H	0.382461	0.736596	0.861545
	H17	H	0.602758	0.731281	0.173434
	H18	H	0.596224	0.289423	0.856685
	H19	H	0.389537	0.288123	0.174929
	H20	H	0.717364	0.852137	0.408270
	H21	H	0.715182	0.165991	0.623629
	H22	H	0.268462	0.852423	0.625055
	H23	H	0.271628	0.167991	0.408823
	H24	H	0.888077	0.353199	0.238751
	H25	H	0.105062	0.666569	0.241302
	H26	H	0.098485	0.354288	0.792259
	H27	H	0.884112	0.669021	0.791777
	H28	H	0.220690	0.898959	0.358929
	H29	H	0.213902	0.114396	0.672710
	H30	H	0.768905	0.117194	0.357880
	H31	H	0.770418	0.901730	0.672865
	H32	H	0.336305	0.229807	0.911658
	H33	H	0.653935	0.229364	0.121107
	H34	H	0.337582	0.782841	0.126515
	H35	H	0.650646	0.784239	0.908695
	H36	H	0.336087	0.903172	0.239390
	H37	H	0.653383	0.113519	0.236967
	H38	H	0.336399	0.113454	0.795299
	H39	H	0.650491	0.899262	0.792947
	H40	H	0.885512	0.231731	0.356152
	H41	H	0.095339	0.229389	0.672602
	H42	H	0.101340	0.787093	0.356972
	H43	H	0.884544	0.786364	0.671572
	H44	H	0.215746	0.353036	0.907702
	H45	H	0.218938	0.667762	0.123493
	H46	H	0.775005	0.349939	0.120853
	H47	H	0.767123	0.666047	0.905999
	H48	H	0.407957	0.123502	0.612999
	H49	H	0.580619	0.895874	0.603433
	H50	H	0.586698	0.121292	0.435120
	H51	H	0.409699	0.898288	0.426235
	H52	H	0.589051	0.411944	0.133637
	H53	H	0.580748	0.595200	0.904044
	H54	H	0.407656	0.589501	0.126127
	H55	H	0.404274	0.414512	0.900141
	H56	H	0.104494	0.597737	0.427617
	H57	H	0.883125	0.596875	0.598681
	H58	H	0.107040	0.422318	0.602121
	H59	H	0.879136	0.417046	0.423652
	H60	H	0.105838	0.421737	0.602033
	H61	H	0.881674	0.597584	0.607196
	H62	H	0.106370	0.599079	0.428149
	H63	H	0.883430	0.423213	0.430390
	H64	H	0.411561	0.595323	0.126913
	H65	H	0.580487	0.596055	0.903943
	H66	H	0.590784	0.425593	0.129386
	H67	H	0.401400	0.423199	0.902567
	H68	H	0.584434	0.126082	0.419784
	H69	H	0.582672	0.894982	0.602946
	H70	H	0.410684	0.117532	0.599746
	H71	H	0.406509	0.898561	0.432312
	H72	H	0.910808	0.619149	0.096486
	H73	H	0.077758	0.398758	0.105495
	H74	H	0.078365	0.622328	0.930781
	H75	H	0.902153	0.397886	0.930027
	H76	H	0.080689	0.919754	0.627863
	H77	H	0.086517	0.095067	0.400549
	H78	H	0.894994	0.094544	0.629097
	H79	H	0.906041	0.923109	0.402890
	H80	H	0.606205	0.092875	0.927741
	H81	H	0.378440	0.105894	0.106673
	H82	H	0.605554	0.917505	0.099507
	H83	H	0.384911	0.923925	0.935815
	H84	H	0.602657	0.926058	0.102433
	H85	H	0.384255	0.097445	0.098598
	H86	H	0.610297	0.098623	0.921365
	H87	H	0.381551	0.925731	0.925635
	H88	H	0.911680	0.094502	0.624036
	H89	H	0.077713	0.094897	0.402762
	H90	H	0.084622	0.925115	0.626721
	H91	H	0.903602	0.925722	0.402363
	H92	H	0.088143	0.626287	0.929707
	H93	H	0.082396	0.399744	0.097634
	H94	H	0.904055	0.621317	0.097393
	H95	H	0.903585	0.394683	0.918388
	H96	H	0.396979	0.123557	0.602595
	H97	H	0.581702	0.894393	0.604886
	H98	H	0.572408	0.119370	0.428043
	H99	H	0.402931	0.895757	0.427115
	H100	H	0.578071	0.418469	0.127701
	H101	H	0.580825	0.595642	0.903000
	H102	H	0.404577	0.595208	0.129053
	H103	H	0.409851	0.420464	0.904672
	H104	H	0.105030	0.598620	0.429541
	H105	H	0.880481	0.604483	0.602641
	H106	H	0.106396	0.422751	0.601835
	H107	H	0.881375	0.426347	0.421121
	H108	H	0.909123	0.621928	0.102918
	H109	H	0.086336	0.395344	0.104405
	H110	H	0.081492	0.626470	0.921509
	H111	H	0.913018	0.400173	0.924466
	H112	H	0.077602	0.925422	0.624720
	H113	H	0.081929	0.102460	0.399345
	H114	H	0.905458	0.108615	0.631397
	H115	H	0.906777	0.926550	0.403911
	H116	H	0.607991	0.101950	0.929929
	H117	H	0.381310	0.094033	0.110868
	H118	H	0.607988	0.919820	0.108280
	H119	H	0.378995	0.915985	0.930011
	C120	C	0.371327	0.017415	0.638124
	C121	C	0.614117	0.999686	0.637098
	C122	C	0.615117	0.018050	0.394592
	C123	C	0.373099	1.001587	0.394835
	C124	C	0.616679	0.386845	0.024844
	C125	C	0.615370	0.629206	1.007343
	C126	C	0.373093	0.629407	0.024504
	C127	C	0.371989	0.386872	1.006892
	C128	C	0.001738	0.632026	0.393819
	C129	C	0.985363	0.634161	0.636424
	C130	C	0.002373	0.390077	0.634994
	C131	C	0.985067	0.388037	0.391686
	C132	C	0.874839	0.517119	0.133721
	C133	C	0.116472	0.501520	0.137160
	C134	C	0.114871	0.520097	0.893913
	C135	C	0.871684	0.501485	0.891817
	C136	C	0.115153	0.889047	0.523009
	C137	C	0.114450	0.130528	0.505419
	C138	C	0.870540	0.132377	0.523940
	C139	C	0.872249	0.890484	0.506834
	C140	C	0.502893	0.129612	0.894950
	C141	C	0.486340	0.130636	0.137385
	C142	C	0.502225	0.887058	0.137993
	C143	C	0.485226	0.887332	0.895994
	C144	C	0.366986	0.898811	0.699643
	C145	C	0.615723	0.118867	0.697969
	C146	C	0.620262	0.899897	0.332193
	C147	C	0.369971	0.120615	0.333578
	C148	C	0.675550	0.384337	0.904994
	C149	C	0.677723	0.632946	0.125555
	C150	C	0.311128	0.635256	0.906189
	C151	C	0.310709	0.383988	0.125639
	C152	C	0.883698	0.694431	0.388153
	C153	C	0.103791	0.695395	0.639358
	C154	C	0.883719	0.329170	0.638723
	C155	C	0.102861	0.325278	0.387873
	C156	C	0.883505	0.388545	0.695419
	C157	C	0.103844	0.638204	0.698035
	C158	C	0.884521	0.637004	0.329686
	C159	C	0.103702	0.384339	0.331063
	C160	C	0.367003	0.694250	0.907788
	C161	C	0.619818	0.690601	0.125956
	C162	C	0.616603	0.328143	0.904655
	C163	C	0.370381	0.327454	0.126706
	C164	C	0.676973	0.899448	0.390835
	C165	C	0.674220	0.118770	0.640742
	C166	C	0.309361	0.899312	0.641922
	C167	C	0.312170	0.120694	0.391371
	C168	C	0.870948	0.399555	0.196975
	C169	C	0.121711	0.619598	0.200116
	C170	C	0.117159	0.401328	0.832590
	C171	C	0.867226	0.620920	0.831797
	C172	C	0.178199	0.883375	0.405185
	C173	C	0.174274	0.133388	0.624827
	C174	C	0.809308	0.135200	0.405144
	C175	C	0.810933	0.885399	0.625307
	C176	C	0.383971	0.189506	0.893327
	C177	C	0.605896	0.190017	0.139640
	C178	C	0.384427	0.824448	0.143221
	C179	C	0.603261	0.824909	0.891474
	C180	C	0.383864	0.884188	0.199718
	C181	C	0.605866	0.131976	0.197060
	C182	C	0.383889	0.131751	0.835148
	C183	C	0.603170	0.882173	0.833414
	C184	C	0.867221	0.192687	0.404587
	C185	C	0.115519	0.190433	0.624796
	C186	C	0.119142	0.827198	0.404476
	C187	C	0.867968	0.827646	0.624660
	C188	C	0.175275	0.400809	0.890206
	C189	C	0.178495	0.620091	0.141325
	C190	C	0.814609	0.398003	0.138030
	C191	C	0.808520	0.619279	0.888624
	C192	C	0.397622	0.100086	0.612349
	C193	C	0.588972	0.916667	0.611182
	C194	C	0.588777	0.100526	0.420338
	C195	C	0.398976	0.919097	0.421067
	C196	C	0.592956	0.411520	0.108237
	C197	C	0.588389	0.603205	0.925118
	C198	C	0.400260	0.601327	0.106132
	C199	C	0.397632	0.412178	0.924266
	C200	C	0.083826	0.605915	0.420669
	C201	C	0.903249	0.607433	0.610266
	C202	C	0.084730	0.415059	0.609253
	C203	C	0.902682	0.414657	0.417704
	C204	C	0.900826	0.599257	0.106604
	C205	C	0.089819	0.419455	0.110402
	C206	C	0.089787	0.603234	0.919765
	C207	C	0.898633	0.418933	0.917013
	C208	C	0.088571	0.915588	0.604769
	C209	C	0.089457	0.104698	0.422557
	C210	C	0.896657	0.106833	0.606693
	C211	C	0.898183	0.917407	0.424656
	C212	C	0.586395	0.104777	0.919311
	C213	C	0.402983	0.106138	0.112527
	C214	C	0.584090	0.913343	0.111257
	C215	C	0.403204	0.914132	0.922702
	Zn216	Zn	0.493501	0.007121	0.766224
	Zn217	Zn	0.494442	0.009867	0.266399
	Zn218	Zn	0.744509	0.508015	0.015181
	Zn219	Zn	0.244001	0.510113	0.015022
	Zn220	Zn	-0.007107	0.762109	0.514005
	Zn221	Zn	-0.006876	0.260001	0.513877
	Zn222	Zn	-0.005828	0.512379	0.764169
	Zn223	Zn	-0.006141	0.510757	0.264298
	Zn224	Zn	0.494057	0.757828	0.016458
	Zn225	Zn	0.495084	0.258964	0.016534
	Zn226	Zn	0.743060	0.009580	0.515809
	Zn227	Zn	0.243901	0.009324	0.515388
	N228	N	0.404890	0.973374	0.697558
	N229	N	0.579154	0.043637	0.695781
	N230	N	0.582244	0.974351	0.334667
	N231	N	0.406921	0.045486	0.335526
	N232	N	0.675752	0.419860	0.980728
	N233	N	0.675355	0.595737	0.050668
	N234	N	0.314882	0.595716	0.979880
	N235	N	0.311520	0.420169	0.050119
	N236	N	0.957471	0.691485	0.427141
	N237	N	0.029032	0.693140	0.602015
	N238	N	0.958474	0.330179	0.601547
	N239	N	0.028073	0.327516	0.424873
	N240	N	0.958078	0.425992	0.693291
	N241	N	0.029040	0.601030	0.696324
	N242	N	0.959007	0.599097	0.332927
	N243	N	0.029513	0.423017	0.333742
	N244	N	0.404870	0.690799	0.982316
	N245	N	0.581889	0.688537	0.051432
	N246	N	0.580802	0.329389	0.980182
	N247	N	0.407774	0.328922	0.051952
	N248	N	0.673942	0.974097	0.428851
	N249	N	0.673304	0.043665	0.603826
	N250	N	0.311889	0.974176	0.604369
	N251	N	0.313678	0.045575	0.428495
	N252	N	0.907732	0.474475	0.194314
	N253	N	0.083835	0.544967	0.197658
	N254	N	0.080605	0.476598	0.834608
	N255	N	0.905880	0.546681	0.833603
	N256	N	0.175964	0.920998	0.479739
	N257	N	0.173861	0.097170	0.549451
	N258	N	0.810926	0.098628	0.480521
	N259	N	0.813555	0.923812	0.550894
	N260	N	0.459033	0.188137	0.929958
	N261	N	0.530522	0.189412	0.103236
	N262	N	0.458927	0.826271	0.105480
	N263	N	0.528905	0.827860	0.929622
	N264	N	0.458039	0.922554	0.196453
	N265	N	0.530507	0.096058	0.195943
	N266	N	0.458988	0.094989	0.836259
	N267	N	0.528759	0.920259	0.836099
	N268	N	0.904596	0.191060	0.479495
	N269	N	0.079260	0.188826	0.549449
	N270	N	0.080473	0.830689	0.478508
	N271	N	0.905388	0.830523	0.550044
	N272	N	0.173913	0.475783	0.927509
	N273	N	0.175378	0.545693	0.103028
	N274	N	0.817003	0.472248	0.099116
	N275	N	0.810994	0.544033	0.925243
	O276	O	0.190477	-0.000900	-0.181017
	H277	H	0.186004	0.002691	-0.183058
	H278	H	0.206576	0.007405	-0.159790
	O279	O	0.798085	-0.042992	1.219280
	H280	H	0.787587	-0.034966	1.204763
	H281	H	0.778549	-0.039975	1.229686
	O282	O	0.473618	0.654764	0.726817
	H283	H	0.450303	0.644563	0.735607
	H284	H	0.480803	0.634260	0.739649
	O285	O	0.605263	0.696629	0.710384
	H286	H	0.603760	0.717245	0.707362
	H287	H	0.579204	0.673520	0.721022
	O288	O	0.809036	1.195071	-0.175950
	H289	H	0.788768	1.211175	-0.173052
	H290	H	0.824094	1.200017	-0.149009
	O291	O	0.287846	0.411162	0.531126
	H292	H	0.263031	0.382976	0.562207
	H293	H	0.307567	0.404406	0.531993
	O294	O	0.166844	-0.165781	0.835106
	H295	H	0.171900	-0.122135	0.825115
	H296	H	0.175840	-0.175695	0.887058
	O297	O	0.514339	0.530972	0.374224
	H298	H	0.503985	0.528311	0.396314
	H299	H	0.502714	0.554625	0.370412
	O300	O	0.377018	0.370966	0.604011
	H301	H	0.400734	0.377149	0.606263
	H302	H	0.386255	0.356674	0.611032
	O303	O	0.610650	0.306321	0.635004
	H304	H	0.622983	0.300766	0.605904
	H305	H	0.590312	0.322937	0.612167
	O306	O	1.205394	1.031856	0.230387
	H307	H	1.185000	1.048652	0.231908
	H308	H	1.230333	1.031708	0.256753
	O309	O	0.384714	0.707496	0.316898
	H310	H	0.384836	0.670799	0.305194
	H311	H	0.379677	0.718091	0.330881
	O312	O	0.040331	0.801725	1.075216
	H313	H	0.050470	0.806738	1.075068
	H314	H	0.035748	0.791289	1.095776
	O315	O	0.531729	0.473428	0.653369
	H316	H	0.529665	0.441458	0.647326
	H317	H	0.568102	0.470337	0.653006
	O318	O	0.973305	-0.209961	0.232044
	H319	H	0.955344	-0.236710	0.254384
	H320	H	0.944511	-0.213005	0.228157
	O321	O	-0.144431	0.020467	0.120558
	H322	H	-0.145784	0.026429	0.109510
	H323	H	-0.134152	0.003296	0.108035
	O324	O	0.846907	0.101253	0.153351
	H325	H	0.824564	0.090111	0.145605
	H326	H	0.859055	0.076707	0.151307
	O327	O	0.691024	0.577289	0.400424
	H328	H	0.702813	0.576776	0.410123
	H329	H	0.679839	0.587526	0.379434
	O330	O	0.637884	1.414766	-0.508588
	H331	H	0.665620	1.412824	-0.528972
	H332	H	0.612054	1.414902	-0.540896
	O333	O	0.647681	0.585372	0.514986
	H334	H	0.642148	0.611273	0.510439
	H335	H	0.633250	0.592338	0.530985
	O336	O	0.036323	-0.000348	0.033487
	H337	H	0.020904	0.002003	0.025640
	H338	H	0.020991	-0.030184	0.037609
	O339	O	-0.122622	1.208873	1.000318
	H340	H	-0.113073	1.196138	1.024704
	H341	H	-0.149470	1.220762	1.001658
	O342	O	0.008790	1.120833	0.889030
	H343	H	0.000205	1.105503	0.886963
	H344	H	0.003839	1.113670	0.883047
	O345	O	0.513888	0.307779	-0.691672
	H346	H	0.491387	0.309254	-0.705678
	H347	H	0.492882	0.314715	-0.694441
	O348	O	0.269668	0.293261	0.541697
	H349	H	0.271116	0.294613	0.581553
	H350	H	0.244089	0.264487	0.558151
	O351	O	0.239088	1.257773	0.768084
	H352	H	0.231540	1.264258	0.780892
	H353	H	0.240791	1.233457	0.790351
	O354	O	-0.120291	1.034631	-0.066729
	H355	H	-0.112587	1.024479	-0.073186
	H356	H	-0.130961	1.038760	-0.055888
	O357	O	-0.210828	-0.202378	1.034205
	H358	H	-0.211476	-0.221476	1.019835
	H359	H	-0.204197	-0.210813	1.017161
	O360	O	0.426787	0.303694	0.460303
	H361	H	0.402907	0.320285	0.458049
	H362	H	0.404988	0.299892	0.452283
	O363	O	-0.021328	0.200391	0.818998
	H364	H	-0.021877	0.187046	0.818776
	H365	H	-0.033856	0.202993	0.810012
	O366	O	0.200478	0.019316	1.014321
	H367	H	0.184584	0.039834	1.020518
	H368	H	0.205988	0.035591	1.035334
	O369	O	0.434662	0.620202	0.467929
	H370	H	0.434854	0.630820	0.472627
	H371	H	0.448796	0.628547	0.474880
	O372	O	1.011719	-0.208300	0.800265
	H373	H	1.018048	-0.243755	0.764355
	H374	H	1.053938	-0.190632	0.809171
	O375	O	0.275884	0.485476	0.730755
	H376	H	0.270008	0.456277	0.733476
	H377	H	0.253521	0.481046	0.745462
	O378	O	0.408155	0.515179	0.649046
	H379	H	0.430497	0.512343	0.651975
	H380	H	0.404360	0.527272	0.630152
	O381	O	0.840832	-0.125125	0.180157
	H382	H	0.827964	-0.135569	0.137057
	H383	H	0.844923	-0.088620	0.190071
	O384	O	0.459326	0.486222	0.309241
	H385	H	0.471471	0.491829	0.310174
	H386	H	0.442903	0.488241	0.329466
	O387	O	0.293155	-0.396415	0.321770
	H388	H	0.308245	-0.404414	0.341725
	H389	H	0.265783	-0.421132	0.298583
	O390	O	-0.132488	-0.117198	-0.057910
	H391	H	-0.116523	-0.119383	-0.077791
	H392	H	-0.119827	-0.113314	-0.067566
	O393	O	0.835919	0.990920	0.897464
	H394	H	0.828767	1.008652	0.871903
	H395	H	0.844354	0.994990	0.895725
	O396	O	1.397771	0.533900	0.548734
	H397	H	1.396773	0.535761	0.582932
	H398	H	1.399051	0.542494	0.547057
	O399	O	1.014886	0.216540	1.214031
	H400	H	0.997241	0.205262	1.223339
	H401	H	0.996599	0.227692	1.219510
	O402	O	1.332188	0.523057	0.572331
	H403	H	1.312001	0.511696	0.591228
	H404	H	1.349164	0.508492	0.584326
	O405	O	0.857525	1.022165	-0.133241
	H406	H	0.855013	1.037024	-0.134970
	H407	H	0.853366	1.013509	-0.147723
	O408	O	1.201276	0.221222	0.031766
	H409	H	1.205101	0.243627	0.030437
	H410	H	1.192460	0.228310	0.046413
	O411	O	1.176860	1.193343	0.196215
	H412	H	1.155508	1.172764	0.202722
	H413	H	1.155691	1.203833	0.177090
	O414	O	0.617009	0.670247	0.426574
	H415	H	0.607729	0.676904	0.430039
	H416	H	0.599133	0.659674	0.427107
	O417	O	0.461603	0.701116	0.405700
	H418	H	0.429185	0.695228	0.425858
	H419	H	0.443877	0.724068	0.384352
	O420	O	0.700051	0.521060	0.725467
	H421	H	0.721499	0.545749	0.746371
	H422	H	0.697063	0.534255	0.706918
	O423	O	0.467564	0.429586	0.605419
	H424	H	0.492476	0.409012	0.607554
	H425	H	0.459075	0.428058	0.621025
	O426	O	0.707489	0.293312	0.496402
	H427	H	0.720101	0.307604	0.490955
	H428	H	0.729529	0.274926	0.473945
	O429	O	0.694544	0.471486	0.464598
	H430	H	0.695766	0.456089	0.465121
	H431	H	0.666856	0.469074	0.448829
	O432	O	0.281843	0.722877	0.496462
	H433	H	0.269201	0.739868	0.498928
	H434	H	0.288078	0.732124	0.487253
	O435	O	-0.022171	1.183534	0.047480
	H436	H	-0.026136	1.165519	0.057288
	H437	H	-0.020069	1.182639	0.045559
	O438	O	0.017442	-0.021922	0.096572
	H439	H	0.015737	-0.041376	0.110135
	H440	H	0.020146	-0.015193	0.094477
	O441	O	1.016774	0.068064	-0.126436
	H442	H	1.005628	0.055663	-0.139251
	H443	H	1.011348	0.055461	-0.125518
	O444	O	0.194011	0.976264	1.053956
	H445	H	0.187569	1.000009	1.055659
	H446	H	0.189596	0.985162	1.066758
	O447	O	0.696530	0.709710	0.601219
	H448	H	0.657574	0.720567	0.603615
	H449	H	0.714572	0.736906	0.578699
	O450	O	0.686000	0.319177	0.322564
	H451	H	0.638513	0.314868	0.315070
	H452	H	0.688072	0.347363	0.331598
	O453	O	0.193616	-0.195876	0.998394
	H454	H	0.199421	-0.193576	1.013301
	H455	H	0.209317	-0.189793	1.018358
