data_Molecule from HDF5

_cell_length_a		16.315057
_cell_length_b		16.374108
_cell_length_c		16.215288
_cell_angle_alpha	90.280128
_cell_angle_beta	90.004277
_cell_angle_gamma	89.433942
_symmetry_space_group_name_H-M	'P 1'
_symmetry_Int_Tables_number		1

loop_
	_symmetry_equiv_pos_as_xyz
	x,y,z

loop_
	_atom_site_label
	_atom_site_type_symbol
	_atom_site_fract_x
	_atom_site_fract_y
	_atom_site_fract_z
	H0	H	0.402281	0.828079	0.718287
	H1	H	0.597914	0.152289	0.722546
	H2	H	0.601231	0.829131	0.284390
	H3	H	0.394723	0.151677	0.287990
	H4	H	0.715291	0.384292	0.839194
	H5	H	0.716035	0.592622	0.162927
	H6	H	0.282156	0.589602	0.837931
	H7	H	0.281518	0.390225	0.162543
	H8	H	0.836832	0.711063	0.399154
	H9	H	0.160304	0.705113	0.605427
	H10	H	0.835584	0.273423	0.605828
	H11	H	0.155851	0.265043	0.395794
	H12	H	0.835427	0.391160	0.718438
	H13	H	0.161469	0.584733	0.717069
	H14	H	0.836063	0.593464	0.283508
	H15	H	0.157890	0.383418	0.282507
	H16	H	0.394589	0.707516	0.839422
	H17	H	0.599164	0.707314	0.165124
	H18	H	0.602156	0.268142	0.841731
	H19	H	0.396759	0.277462	0.163918
	H20	H	0.718441	0.829801	0.399382
	H21	H	0.713874	0.153101	0.606579
	H22	H	0.282205	0.828760	0.606527
	H23	H	0.276330	0.149601	0.400427
	H24	H	0.894126	0.330506	0.219988
	H25	H	0.102233	0.648591	0.223105
	H26	H	0.099704	0.326771	0.784077
	H27	H	0.898631	0.651788	0.787670
	H28	H	0.218680	0.884378	0.341612
	H29	H	0.214851	0.093112	0.665742
	H30	H	0.779119	0.092487	0.341282
	H31	H	0.783819	0.892096	0.666644
	H32	H	0.336751	0.211095	0.900153
	H33	H	0.658104	0.210019	0.109100
	H34	H	0.335542	0.774335	0.105954
	H35	H	0.657341	0.766920	0.897520
	H36	H	0.336296	0.890960	0.221560
	H37	H	0.659067	0.091325	0.221294
	H38	H	0.336075	0.092849	0.786171
	H39	H	0.661244	0.888988	0.787961
	H40	H	0.889480	0.210202	0.342340
	H41	H	0.098745	0.208490	0.664500
	H42	H	0.106087	0.767271	0.342006
	H43	H	0.898563	0.775237	0.666301
	H44	H	0.218428	0.328766	0.895406
	H45	H	0.211925	0.651071	0.100421
	H46	H	0.779216	0.330351	0.103439
	H47	H	0.775402	0.648897	0.896412
	H48	H	0.392081	0.107483	0.589723
	H49	H	0.589710	0.876750	0.594229
	H50	H	0.597911	0.108664	0.412465
	H51	H	0.406174	0.875634	0.417204
	H52	H	0.590831	0.401638	0.117892
	H53	H	0.593473	0.580166	0.883421
	H54	H	0.407384	0.580065	0.116675
	H55	H	0.405222	0.403512	0.884691
	H56	H	0.113334	0.578545	0.409501
	H57	H	0.883454	0.580366	0.592558
	H58	H	0.115583	0.391119	0.599223
	H59	H	0.882150	0.402771	0.408759
	H60	H	0.111280	0.391981	0.582875
	H61	H	0.881280	0.584215	0.597485
	H62	H	0.111380	0.579646	0.415849
	H63	H	0.881590	0.397170	0.412742
	H64	H	0.405043	0.587697	0.119131
	H65	H	0.582390	0.570570	0.890966
	H66	H	0.586649	0.403554	0.116196
	H67	H	0.414599	0.398616	0.885540
	H68	H	0.582074	0.105319	0.406234
	H69	H	0.594624	0.875954	0.592310
	H70	H	0.409500	0.108443	0.608515
	H71	H	0.408177	0.873119	0.408194
	H72	H	0.912411	0.604843	0.096919
	H73	H	0.089112	0.375398	0.087227
	H74	H	0.090310	0.602291	0.916544
	H75	H	0.916220	0.376642	0.908484
	H76	H	0.092862	0.895645	0.619971
	H77	H	0.085438	0.076399	0.388440
	H78	H	0.904189	0.080112	0.619025
	H79	H	0.905197	0.903040	0.387821
	H80	H	0.612755	0.078367	0.912151
	H81	H	0.383714	0.083713	0.092301
	H82	H	0.608701	0.899752	0.082815
	H83	H	0.381055	0.895578	0.910155
	H84	H	0.612554	0.904603	0.099102
	H85	H	0.381411	0.083516	0.096811
	H86	H	0.613012	0.083105	0.915433
	H87	H	0.383788	0.899874	0.915805
	H88	H	0.910982	0.082054	0.618117
	H89	H	0.087199	0.078122	0.387777
	H90	H	0.090951	0.901898	0.618781
	H91	H	0.913048	0.900987	0.388963
	H92	H	0.096119	0.607615	0.904644
	H93	H	0.092293	0.373822	0.090994
	H94	H	0.910416	0.600679	0.082430
	H95	H	0.901708	0.375031	0.917799
	H96	H	0.415641	0.099405	0.585509
	H97	H	0.592951	0.875352	0.597532
	H98	H	0.585808	0.100768	0.421449
	H99	H	0.415352	0.877638	0.413965
	H100	H	0.587182	0.398933	0.117688
	H101	H	0.578308	0.585903	0.887017
	H102	H	0.399261	0.581429	0.119596
	H103	H	0.405873	0.392923	0.882385
	H104	H	0.110486	0.573434	0.413268
	H105	H	0.882405	0.587250	0.591462
	H106	H	0.109842	0.406031	0.592870
	H107	H	0.883433	0.402995	0.415518
	H108	H	0.898534	0.606263	0.090440
	H109	H	0.086697	0.375119	0.092013
	H110	H	0.082597	0.604376	0.904709
	H111	H	0.902603	0.369491	0.901784
	H112	H	0.085954	0.896535	0.617868
	H113	H	0.087581	0.075561	0.388596
	H114	H	0.905062	0.087139	0.620963
	H115	H	0.907901	0.895340	0.385358
	H116	H	0.611320	0.078356	0.917752
	H117	H	0.381088	0.087313	0.094048
	H118	H	0.615126	0.888154	0.094403
	H119	H	0.382150	0.903070	0.908362
	C120	C	0.376864	-0.001368	0.624905
	C121	C	0.621147	0.982511	0.625690
	C122	C	0.620700	-0.000850	0.381345
	C123	C	0.377372	0.981464	0.382577
	C124	C	0.619445	0.368598	0.010616
	C125	C	0.616980	0.610309	0.993673
	C126	C	0.374367	0.612617	0.010657
	C127	C	0.378069	0.369845	0.991939
	C128	C	0.006260	0.610949	0.380728
	C129	C	0.989929	0.611300	0.623943
	C130	C	0.005587	0.367861	0.622762
	C131	C	0.987859	0.367314	0.379938
	C132	C	0.876203	0.498496	0.121653
	C133	C	0.119549	0.480816	0.122018
	C134	C	0.120421	0.497875	0.878355
	C135	C	0.875293	0.480104	0.878801
	C136	C	0.121779	0.866347	0.512197
	C137	C	0.117350	0.109266	0.494958
	C138	C	0.875264	0.112797	0.511930
	C139	C	0.878342	0.870192	0.494669
	C140	C	0.506289	0.111885	0.882981
	C141	C	0.488887	0.113552	0.125395
	C142	C	0.505425	0.868921	0.123413
	C143	C	0.489493	0.868422	0.881034
	C144	C	0.380458	0.876914	0.681154
	C145	C	0.618149	0.104441	0.683164
	C146	C	0.620775	0.877643	0.323260
	C147	C	0.375893	0.102923	0.325731
	C148	C	0.676797	0.366342	0.888397
	C149	C	0.676318	0.611663	0.115049
	C150	C	0.319286	0.610393	0.887242
	C151	C	0.320321	0.371277	0.114060
	C152	C	0.884994	0.671057	0.380199
	C153	C	0.111925	0.666452	0.624207
	C154	C	0.883806	0.312375	0.623764
	C155	C	0.108111	0.305924	0.377852
	C156	C	0.883647	0.370870	0.679924
	C157	C	0.112443	0.606612	0.679763
	C158	C	0.884526	0.612830	0.322418
	C159	C	0.109128	0.364933	0.321285
	C160	C	0.375137	0.669214	0.888181
	C161	C	0.617990	0.668471	0.116019
	C162	C	0.620641	0.308174	0.889749
	C163	C	0.377862	0.315042	0.114950
	C164	C	0.679350	0.877884	0.380504
	C165	C	0.675849	0.104642	0.625583
	C166	C	0.320819	0.877160	0.625422
	C167	C	0.317079	0.101875	0.381944
	C168	C	0.875413	0.378482	0.180884
	C169	C	0.120072	0.600898	0.182254
	C170	C	0.119542	0.375689	0.821734
	C171	C	0.877109	0.602495	0.823758
	C172	C	0.180224	0.865116	0.390368
	C173	C	0.175878	0.111619	0.616940
	C174	C	0.817212	0.112365	0.390054
	C175	C	0.822175	0.871827	0.617777
	C176	C	0.384997	0.171050	0.881553
	C177	C	0.609992	0.170627	0.126729
	C178	C	0.384016	0.812776	0.124570
	C179	C	0.610019	0.808138	0.879649
	C180	C	0.384375	0.870764	0.182128
	C181	C	0.610550	0.111843	0.183047
	C182	C	0.384497	0.112143	0.824924
	C183	C	0.611798	0.868540	0.824818
	C184	C	0.872399	0.170810	0.390455
	C185	C	0.117618	0.168740	0.616486
	C186	C	0.123995	0.806615	0.390682
	C187	C	0.878971	0.813385	0.617345
	C188	C	0.178934	0.376735	0.876863
	C189	C	0.175192	0.602099	0.121529
	C190	C	0.818234	0.378291	0.122794
	C191	C	0.815798	0.601068	0.877925
	C192	C	0.399058	0.083170	0.601463
	C193	C	0.599099	0.898117	0.601740
	C194	C	0.596010	0.083027	0.406088
	C195	C	0.402558	0.897376	0.406243
	C196	C	0.595376	0.393923	0.095429
	C197	C	0.592000	0.585871	0.908919
	C198	C	0.397225	0.589838	0.096281
	C199	C	0.401669	0.391732	0.906318
	C200	C	0.089875	0.584918	0.405410
	C201	C	0.904690	0.590226	0.600628
	C202	C	0.090326	0.389848	0.598596
	C203	C	0.904157	0.393478	0.405057
	C204	C	0.900277	0.582180	0.096893
	C205	C	0.096145	0.396514	0.097128
	C206	C	0.096548	0.582721	0.901867
	C207	C	0.899482	0.395749	0.902666
	C208	C	0.097193	0.890966	0.596955
	C209	C	0.093555	0.083993	0.410230
	C210	C	0.899743	0.089605	0.597200
	C211	C	0.901843	0.893134	0.409453
	C212	C	0.590739	0.087011	0.907803
	C213	C	0.404124	0.091079	0.101418
	C214	C	0.590181	0.891270	0.099264
	C215	C	0.404549	0.892726	0.904535
	Zn216	Zn	0.499070	-0.009032	0.753575
	Zn217	Zn	0.497941	-0.009103	0.252526
	Zn218	Zn	0.746785	0.489857	0.000914
	Zn219	Zn	0.248590	0.488961	-0.000156
	Zn220	Zn	-0.001093	0.740532	0.502913
	Zn221	Zn	-0.004105	0.239294	0.502402
	Zn222	Zn	-0.001983	0.488525	0.751648
	Zn223	Zn	-0.002807	0.489437	0.250917
	Zn224	Zn	0.496297	0.739477	0.002504
	Zn225	Zn	0.497903	0.241544	0.003396
	Zn226	Zn	0.749115	-0.008653	0.504081
	Zn227	Zn	0.248072	-0.010715	0.503592
	N228	N	0.414439	0.953455	0.681254
	N229	N	0.584881	0.027664	0.683319
	N230	N	0.584866	0.953830	0.323741
	N231	N	0.412697	0.027085	0.325949
	N232	N	0.676159	0.403293	0.964559
	N233	N	0.675693	0.576212	0.038012
	N234	N	0.318509	0.576125	0.964383
	N235	N	0.320453	0.404728	0.036461
	N236	N	0.961693	0.670294	0.415423
	N237	N	0.034720	0.669391	0.590194
	N238	N	0.960776	0.310370	0.588845
	N239	N	0.031534	0.306964	0.413347
	N240	N	0.960213	0.404639	0.679389
	N241	N	0.035418	0.573237	0.679941
	N242	N	0.960858	0.576317	0.322494
	N243	N	0.033335	0.402441	0.322559
	N244	N	0.408575	0.670810	0.966052
	N245	N	0.581860	0.667795	0.039393
	N246	N	0.585593	0.309390	0.966927
	N247	N	0.412860	0.313849	0.037959
	N248	N	0.679580	0.954436	0.415906
	N249	N	0.677634	0.028015	0.590244
	N250	N	0.318345	0.953872	0.591364
	N251	N	0.317653	0.025411	0.416666
	N252	N	0.910984	0.454334	0.179949
	N253	N	0.086168	0.524437	0.182539
	N254	N	0.083913	0.452149	0.822461
	N255	N	0.913155	0.526312	0.823909
	N256	N	0.178940	0.901592	0.466899
	N257	N	0.175762	0.075175	0.540424
	N258	N	0.818835	0.077140	0.466808
	N259	N	0.821515	0.906281	0.540616
	N260	N	0.461696	0.170946	0.916842
	N261	N	0.533212	0.171990	0.091502
	N262	N	0.460334	0.811572	0.088881
	N263	N	0.532971	0.807800	0.913787
	N264	N	0.461032	0.904871	0.181709
	N265	N	0.534258	0.077083	0.182214
	N266	N	0.460925	0.076090	0.825616
	N267	N	0.535737	0.905458	0.825645
	N268	N	0.907735	0.171194	0.467371
	N269	N	0.082044	0.167545	0.539596
	N270	N	0.088494	0.807064	0.467496
	N271	N	0.913458	0.812367	0.539851
	N272	N	0.179665	0.453595	0.911426
	N273	N	0.175193	0.526180	0.084817
	N274	N	0.818528	0.453886	0.086766
	N275	N	0.814334	0.523895	0.911146
	O276	O	0.673357	0.542835	0.537337
	H277	H	0.655630	0.546967	0.538900
	H278	H	0.683615	0.544621	0.538746
	O279	O	0.369840	0.523359	0.361283
	H280	H	0.379161	0.522383	0.361317
	H281	H	0.368941	0.532018	0.352214
	O282	O	1.059072	0.009161	1.039989
	H283	H	1.040272	0.003627	1.035420
	H284	H	1.058664	0.022617	1.041525
	O285	O	0.470861	0.549988	0.386891
	H286	H	0.481832	0.554001	0.390764
	H287	H	0.462521	0.550386	0.372398
	O288	O	1.182159	1.125937	1.153517
	H289	H	1.190573	1.128383	1.120709
	H290	H	1.188846	1.099193	1.154536
	O291	O	-0.138295	0.803997	-0.000444
	H292	H	-0.138266	0.797860	-0.007588
	H293	H	-0.147443	0.825294	0.000337
	O294	O	0.464097	0.656151	0.638874
	H295	H	0.452645	0.649786	0.625693
	H296	H	0.464477	0.657286	0.635117
	O297	O	0.461229	0.518923	0.520783
	H298	H	0.462720	0.517988	0.532670
	H299	H	0.467145	0.520128	0.527535
	O300	O	0.472285	0.393742	0.487321
	H301	H	0.467445	0.393383	0.477368
	H302	H	0.457750	0.395149	0.481676
	O303	O	0.455978	0.616567	0.503885
	H304	H	0.448993	0.612193	0.497858
	H305	H	0.451066	0.622873	0.497029
	O306	O	0.466397	0.496567	0.637241
	H307	H	0.477497	0.498806	0.645022
	H308	H	0.469142	0.511031	0.617553
	O309	O	0.429525	0.621516	0.497530
	H310	H	0.407791	0.633446	0.497190
	H311	H	0.442441	0.604242	0.476154
	O312	O	0.123572	-0.013766	0.032859
	H313	H	0.129909	-0.022622	0.041603
	H314	H	0.111045	-0.020024	0.022009
	O315	O	0.458464	0.587985	0.367778
	H316	H	0.462324	0.583296	0.352842
	H317	H	0.461818	0.581572	0.381583
	O318	O	-0.166612	1.062936	0.932339
	H319	H	-0.175650	1.077816	0.934070
	H320	H	-0.155423	1.064096	0.942249
	O321	O	0.644451	0.364718	0.486873
	H322	H	0.647733	0.360018	0.495719
	H323	H	0.651623	0.362722	0.490045
	O324	O	-0.060744	1.033310	-0.000649
	H325	H	-0.051370	1.051153	-0.003194
	H326	H	-0.064407	1.028616	-0.006671
	O327	O	0.635971	0.553482	0.585713
	H328	H	0.629575	0.553855	0.595863
	H329	H	0.636192	0.557789	0.581837
	O330	O	-0.003169	-0.172475	1.094305
	H331	H	0.000081	-0.183931	1.101288
	H332	H	-0.013977	-0.154254	1.079308
	O333	O	-0.092977	0.007957	1.042358
	H334	H	-0.078310	0.006117	1.054015
	H335	H	-0.090256	0.010301	1.034610
	O336	O	0.576446	0.609110	0.514545
	H337	H	0.581572	0.600698	0.500019
	H338	H	0.586623	0.622917	0.524331
	O339	O	1.031286	0.202421	0.213689
	H340	H	1.057462	0.194900	0.212287
	H341	H	1.045343	0.229004	0.240785
	O342	O	0.044661	0.136096	0.025298
	H343	H	0.066719	0.124711	0.023753
	H344	H	0.037683	0.140723	0.035921
	O345	O	0.871645	0.011626	0.923974
	H346	H	0.874959	0.030171	0.921535
	H347	H	0.860462	0.014122	0.916103
	O348	O	1.167061	0.829821	-0.152604
	H349	H	1.177123	0.836429	-0.154693
	H350	H	1.169468	0.815189	-0.153279
	O351	O	0.396444	0.431840	0.421503
	H352	H	0.388554	0.434645	0.424697
	H353	H	0.389301	0.427367	0.417289
	O354	O	0.979980	-0.078027	1.167508
	H355	H	0.978637	-0.090976	1.168316
	H356	H	0.972111	-0.077828	1.167192
	O357	O	0.475450	0.350324	0.593166
	H358	H	0.470784	0.347813	0.597942
	H359	H	0.483244	0.356770	0.603319
	O360	O	0.411944	0.343875	0.520517
	H361	H	0.410816	0.336272	0.524982
	H362	H	0.423750	0.344671	0.525368
	O363	O	-0.131993	1.089403	1.012713
	H364	H	-0.114986	1.104711	1.029268
	H365	H	-0.129789	1.102989	1.006076
	O366	O	0.375727	0.342265	0.564676
	H367	H	0.379901	0.344674	0.571709
	H368	H	0.386698	0.339239	0.569624
	O369	O	0.113101	0.812339	-0.168538
	H370	H	0.113411	0.799013	-0.186301
	H371	H	0.113356	0.812463	-0.150771
	O372	O	0.349512	0.539479	0.383144
	H373	H	0.344373	0.535867	0.383287
	H374	H	0.346196	0.537420	0.385305
	O375	O	0.607507	0.338396	0.432672
	H376	H	0.612269	0.326139	0.447005
	H377	H	0.596389	0.346166	0.424321
	O378	O	0.953725	1.064378	-0.091830
	H379	H	0.952311	1.065535	-0.091271
	H380	H	0.951356	1.066592	-0.099658
	O381	O	1.107320	-0.027348	-0.001874
	H382	H	1.094231	-0.033161	-0.015876
	H383	H	1.108387	-0.040210	0.002896
	O384	O	1.057677	0.886912	0.187273
	H385	H	1.038889	0.882657	0.181349
	H386	H	1.038640	0.873325	0.187953
	O387	O	-0.010019	0.044317	-0.088649
	H388	H	-0.007711	0.036757	-0.074552
	H389	H	-0.006122	0.047430	-0.081331
	O390	O	-0.110970	0.883691	0.052266
	H391	H	-0.109075	0.889451	0.066753
	H392	H	-0.098911	0.894517	0.040732
	O393	O	0.879875	0.906075	1.001797
	H394	H	0.871310	0.905193	1.000302
	H395	H	0.865096	0.900216	1.001028
	O396	O	0.653648	0.463964	0.433649
	H397	H	0.653528	0.457923	0.422101
	H398	H	0.652723	0.478246	0.426198
	O399	O	-0.094366	1.005589	1.084199
	H400	H	-0.091038	0.999458	1.084654
	H401	H	-0.092484	1.015433	1.091721
	O402	O	0.534658	0.593671	0.586525
	H403	H	0.547075	0.589304	0.594397
	H404	H	0.545936	0.607551	0.586113
	O405	O	1.161251	1.067695	-0.001997
	H406	H	1.150603	1.056136	-0.010861
	H407	H	1.174370	1.062960	-0.011641
	O408	O	1.137480	0.952324	-0.190213
	H409	H	1.147541	0.932931	-0.195767
	H410	H	1.147216	0.941239	-0.190588
	O411	O	1.007938	0.034489	0.958011
	H412	H	1.004956	0.034783	0.962662
	H413	H	0.998710	0.029643	0.962728
	O414	O	0.486897	0.457602	0.672454
	H415	H	0.495478	0.446858	0.652535
	H416	H	0.492956	0.455082	0.680930
	O417	O	0.546017	0.495390	0.413361
	H418	H	0.543289	0.490093	0.412549
	H419	H	0.543777	0.494105	0.426936
