data_Molecule from HDF5

_cell_length_a		16.716241
_cell_length_b		16.545753
_cell_length_c		16.647678
_cell_angle_alpha	89.963374
_cell_angle_beta	89.951552
_cell_angle_gamma	89.990401
_symmetry_space_group_name_H-M	'P 1'
_symmetry_Int_Tables_number		1

loop_
	_symmetry_equiv_pos_as_xyz
	x,y,z

loop_
	_atom_site_label
	_atom_site_type_symbol
	_atom_site_fract_x
	_atom_site_fract_y
	_atom_site_fract_z
	H0	H	0.398585	0.823994	0.708368
	H1	H	0.608454	0.135054	0.712413
	H2	H	0.607336	0.823882	0.269396
	H3	H	0.399241	0.137307	0.270045
	H4	H	0.725134	0.375581	0.836256
	H5	H	0.725746	0.590399	0.144533
	H6	H	0.279439	0.587467	0.836175
	H7	H	0.278893	0.372150	0.143392
	H8	H	0.849455	0.705766	0.382563
	H9	H	0.159382	0.698776	0.591523
	H10	H	0.845845	0.262317	0.592793
	H11	H	0.155881	0.259204	0.384682
	H12	H	0.846114	0.378011	0.709532
	H13	H	0.158449	0.584515	0.710123
	H14	H	0.852234	0.595070	0.261926
	H15	H	0.156591	0.376202	0.269174
	H16	H	0.397498	0.701262	0.835021
	H17	H	0.605660	0.701600	0.146411
	H18	H	0.608767	0.259126	0.835577
	H19	H	0.397163	0.258020	0.143759
	H20	H	0.725706	0.825475	0.382967
	H21	H	0.725122	0.135401	0.597352
	H22	H	0.282205	0.825015	0.593167
	H23	H	0.283320	0.137629	0.385550
	H24	H	0.895249	0.325324	0.213819
	H25	H	0.107641	0.635945	0.211891
	H26	H	0.102674	0.322528	0.774233
	H27	H	0.901705	0.639290	0.774610
	H28	H	0.221519	0.878148	0.333089
	H29	H	0.224017	0.085693	0.644423
	H30	H	0.781917	0.085924	0.334080
	H31	H	0.778911	0.874008	0.643430
	H32	H	0.347830	0.201605	0.885597
	H33	H	0.657935	0.202114	0.093932
	H34	H	0.344977	0.764068	0.090155
	H35	H	0.656130	0.758360	0.884513
	H36	H	0.346555	0.878274	0.208942
	H37	H	0.657502	0.086601	0.211428
	H38	H	0.347213	0.084464	0.769716
	H39	H	0.654802	0.873430	0.766436
	H40	H	0.899802	0.201108	0.333570
	H41	H	0.105339	0.198908	0.646779
	H42	H	0.104866	0.762118	0.333679
	H43	H	0.899720	0.762193	0.646930
	H44	H	0.220220	0.322897	0.888568
	H45	H	0.225200	0.634884	0.098078
	H46	H	0.777335	0.326787	0.100676
	H47	H	0.785360	0.639424	0.889562
	H48	H	0.419528	0.090019	0.577668
	H49	H	0.596541	0.868700	0.573109
	H50	H	0.585806	0.089306	0.405327
	H51	H	0.409683	0.865227	0.394144
	H52	H	0.589388	0.392987	0.101433
	H53	H	0.591211	0.574147	0.877997
	H54	H	0.408952	0.576366	0.105651
	H55	H	0.413429	0.394432	0.879595
	H56	H	0.112601	0.571758	0.403100
	H57	H	0.888787	0.574492	0.585216
	H58	H	0.114623	0.386903	0.581817
	H59	H	0.891887	0.396155	0.402482
	H60	H	0.112699	0.392393	0.579954
	H61	H	0.891448	0.573745	0.579339
	H62	H	0.110166	0.566876	0.404142
	H63	H	0.891276	0.392777	0.400447
	H64	H	0.407573	0.563175	0.100677
	H65	H	0.597012	0.566920	0.878624
	H66	H	0.590471	0.393080	0.100925
	H67	H	0.413917	0.390650	0.877864
	H68	H	0.598030	0.093506	0.404260
	H69	H	0.589236	0.866453	0.583814
	H70	H	0.408540	0.093476	0.572762
	H71	H	0.418181	0.870285	0.399373
	H72	H	0.913251	0.592416	0.077300
	H73	H	0.091567	0.368641	0.077006
	H74	H	0.096997	0.594282	0.902997
	H75	H	0.909231	0.370538	0.909503
	H76	H	0.096394	0.895216	0.601316
	H77	H	0.097675	0.073333	0.374962
	H78	H	0.911350	0.071576	0.602121
	H79	H	0.918907	0.891600	0.380208
	H80	H	0.613954	0.067583	0.899031
	H81	H	0.392518	0.070369	0.078578
	H82	H	0.613592	0.888320	0.076334
	H83	H	0.389334	0.891696	0.896501
	H84	H	0.612231	0.894735	0.079967
	H85	H	0.392728	0.068250	0.079166
	H86	H	0.613529	0.070122	0.901226
	H87	H	0.389321	0.887523	0.899468
	H88	H	0.910195	0.068884	0.601385
	H89	H	0.093895	0.064777	0.380070
	H90	H	0.090346	0.890986	0.601051
	H91	H	0.911130	0.892612	0.377219
	H92	H	0.091932	0.594791	0.896497
	H93	H	0.090086	0.367703	0.080873
	H94	H	0.916093	0.591577	0.078337
	H95	H	0.905149	0.364859	0.895848
	H96	H	0.411138	0.095421	0.584993
	H97	H	0.584296	0.873355	0.573774
	H98	H	0.590515	0.093523	0.394240
	H99	H	0.408248	0.868372	0.404401
	H100	H	0.589838	0.393690	0.100674
	H101	H	0.588399	0.566414	0.881770
	H102	H	0.419665	0.570282	0.099534
	H103	H	0.410297	0.392670	0.877584
	H104	H	0.113061	0.567904	0.399377
	H105	H	0.891233	0.568895	0.583365
	H106	H	0.115190	0.390942	0.584982
	H107	H	0.892450	0.392270	0.403876
	H108	H	0.915847	0.590702	0.075190
	H109	H	0.088137	0.369959	0.078175
	H110	H	0.088994	0.591770	0.903400
	H111	H	0.919228	0.368591	0.898246
	H112	H	0.096481	0.888299	0.603880
	H113	H	0.086836	0.073188	0.377974
	H114	H	0.912823	0.069308	0.600813
	H115	H	0.915031	0.898956	0.381136
	H116	H	0.612276	0.067107	0.901901
	H117	H	0.391283	0.069584	0.080781
	H118	H	0.615664	0.889303	0.083409
	H119	H	0.391491	0.891959	0.901184
	C120	C	0.381189	-0.010313	0.610204
	C121	C	0.622989	0.972149	0.610241
	C122	C	0.623808	-0.011263	0.368500
	C123	C	0.381533	0.972157	0.368539
	C124	C	0.623480	0.360399	-0.001072
	C125	C	0.623622	0.602184	0.982455
	C126	C	0.380483	0.601948	-0.000784
	C127	C	0.380922	0.359374	0.981031
	C128	C	0.010828	0.602785	0.368881
	C129	C	0.993818	0.603084	0.612740
	C130	C	0.010399	0.359628	0.612303
	C131	C	0.993651	0.360935	0.369817
	C132	C	0.881212	0.489368	0.111980
	C133	C	0.122987	0.471496	0.111410
	C134	C	0.122874	0.489227	0.870108
	C135	C	0.880671	0.472174	0.869990
	C136	C	0.124728	0.859854	0.498558
	C137	C	0.123796	0.102107	0.481053
	C138	C	0.880502	0.102089	0.497977
	C139	C	0.881823	0.860358	0.481502
	C140	C	0.510874	0.101214	0.868445
	C141	C	0.494624	0.101855	0.111506
	C142	C	0.510608	0.859811	0.110999
	C143	C	0.492679	0.858072	0.867439
	C144	C	0.379873	0.871170	0.668826
	C145	C	0.626226	0.088677	0.671648
	C146	C	0.626336	0.871191	0.308663
	C147	C	0.380504	0.090371	0.309674
	C148	C	0.684637	0.357466	0.882507
	C149	C	0.684277	0.606742	0.098533
	C150	C	0.320367	0.604843	0.882356
	C151	C	0.319978	0.355079	0.097248
	C152	C	0.895845	0.665362	0.364741
	C153	C	0.112144	0.660211	0.611670
	C154	C	0.892958	0.301379	0.612443
	C155	C	0.109687	0.299866	0.366772
	C156	C	0.893054	0.359003	0.670396
	C157	C	0.111709	0.603072	0.670296
	C158	C	0.897025	0.609751	0.304924
	C159	C	0.109998	0.358085	0.309395
	C160	C	0.378788	0.661569	0.881745
	C161	C	0.625134	0.662845	0.099179
	C162	C	0.626776	0.299773	0.882078
	C163	C	0.378531	0.298225	0.097285
	C164	C	0.684978	0.871840	0.365125
	C165	C	0.684140	0.088844	0.614428
	C166	C	0.322125	0.871596	0.611678
	C167	C	0.322987	0.090454	0.367119
	C168	C	0.877287	0.372439	0.173703
	C169	C	0.125808	0.588993	0.171797
	C170	C	0.122513	0.370148	0.812798
	C171	C	0.881783	0.591581	0.812918
	C172	C	0.182437	0.859138	0.380271
	C173	C	0.183613	0.104112	0.597981
	C174	C	0.821923	0.104085	0.380555
	C175	C	0.820318	0.856682	0.597904
	C176	C	0.394492	0.161819	0.866522
	C177	C	0.611278	0.161983	0.112803
	C178	C	0.392253	0.802880	0.110160
	C179	C	0.609244	0.798247	0.865672
	C180	C	0.392944	0.859535	0.169115
	C181	C	0.611281	0.104293	0.170986
	C182	C	0.393887	0.103485	0.809234
	C183	C	0.608775	0.855224	0.806960
	C184	C	0.880296	0.161406	0.380500
	C185	C	0.124560	0.160390	0.599136
	C186	C	0.124501	0.801590	0.380623
	C187	C	0.880177	0.801267	0.599370
	C188	C	0.180604	0.370225	0.869843
	C189	C	0.184169	0.588437	0.115242
	C190	C	0.818615	0.373267	0.117425
	C191	C	0.824005	0.591753	0.870209
	C192	C	0.406018	0.071789	0.585599
	C193	C	0.597456	0.890595	0.584233
	C194	C	0.598637	0.070609	0.393765
	C195	C	0.405462	0.889502	0.392445
	C196	C	0.597457	0.385966	0.079932
	C197	C	0.599102	0.576450	0.900707
	C198	C	0.405168	0.576988	0.080780
	C199	C	0.405543	0.385286	0.899578
	C200	C	0.091036	0.576276	0.395016
	C201	C	0.911879	0.579357	0.589294
	C202	C	0.092775	0.383197	0.588970
	C203	C	0.912944	0.386491	0.395224
	C204	C	0.907575	0.570433	0.084931
	C205	C	0.097357	0.390007	0.085881
	C206	C	0.099466	0.572091	0.894105
	C207	C	0.904363	0.389407	0.894148
	C208	C	0.100990	0.884455	0.580819
	C209	C	0.099651	0.077775	0.399148
	C210	C	0.904513	0.077276	0.579974
	C211	C	0.907692	0.886645	0.400617
	C212	C	0.592128	0.075491	0.893463
	C213	C	0.413378	0.076571	0.086526
	C214	C	0.592486	0.883783	0.087053
	C215	C	0.411250	0.883213	0.892122
	Zn216	Zn	0.501603	-0.019783	0.738792
	Zn217	Zn	0.502738	-0.019563	0.240575
	Zn218	Zn	0.752977	0.481347	-0.008738
	Zn219	Zn	0.252001	0.480438	-0.009731
	Zn220	Zn	0.002596	0.731939	0.490355
	Zn221	Zn	0.002343	0.230665	0.490805
	Zn222	Zn	0.002292	0.481021	0.741756
	Zn223	Zn	0.001919	0.481231	0.239751
	Zn224	Zn	0.501589	0.730118	-0.009670
	Zn225	Zn	0.502876	0.230821	-0.010845
	Zn226	Zn	0.752009	-0.019370	0.489746
	Zn227	Zn	0.253174	-0.018641	0.489350
	N228	N	0.416115	0.945503	0.667966
	N229	N	0.588838	0.014906	0.669350
	N230	N	0.589164	0.945069	0.310444
	N231	N	0.416418	0.015792	0.310603
	N232	N	0.682850	0.394429	0.956205
	N233	N	0.683617	0.569803	0.024767
	N234	N	0.321073	0.568339	0.956370
	N235	N	0.321318	0.392395	0.023849
	N236	N	0.967563	0.661090	0.404028
	N237	N	0.037882	0.660594	0.576678
	N238	N	0.967225	0.301378	0.577097
	N239	N	0.036282	0.301009	0.403464
	N240	N	0.967300	0.394411	0.670534
	N241	N	0.037127	0.568188	0.671449
	N242	N	0.969415	0.571161	0.307465
	N243	N	0.036754	0.395281	0.311015
	N244	N	0.415593	0.659824	0.955404
	N245	N	0.588055	0.660188	0.025704
	N246	N	0.589535	0.301212	0.955583
	N247	N	0.416028	0.300829	0.024076
	N248	N	0.683517	0.946128	0.401617
	N249	N	0.682364	0.015203	0.576932
	N250	N	0.322860	0.946318	0.575811
	N251	N	0.323256	0.015950	0.402926
	N252	N	0.915522	0.445822	0.170348
	N253	N	0.088436	0.515212	0.169555
	N254	N	0.087666	0.445227	0.812648
	N255	N	0.915924	0.516015	0.812236
	N256	N	0.183048	0.894446	0.454848
	N257	N	0.183575	0.068735	0.523496
	N258	N	0.821807	0.068123	0.454908
	N259	N	0.821074	0.892701	0.523584
	N260	N	0.468362	0.160835	0.902278
	N261	N	0.537634	0.160690	0.076466
	N262	N	0.466537	0.802492	0.075138
	N263	N	0.535945	0.799752	0.902597
	N264	N	0.467691	0.894083	0.169973
	N265	N	0.537591	0.067668	0.170404
	N266	N	0.467383	0.066562	0.810049
	N267	N	0.535139	0.891680	0.807750
	N268	N	0.915981	0.160397	0.454667
	N269	N	0.088232	0.159677	0.525293
	N270	N	0.089696	0.801569	0.455286
	N271	N	0.917657	0.803262	0.525982
	N272	N	0.181304	0.445536	0.904512
	N273	N	0.182724	0.514358	0.078216
	N274	N	0.820650	0.447157	0.079824
	N275	N	0.822868	0.516347	0.904710
	O276	O	-0.218546	0.954610	0.208472
	H277	H	-0.214344	0.938281	0.215898
	H278	H	-0.232461	0.933420	0.223663
	O279	O	0.414644	0.688066	0.603456
	H280	H	0.431403	0.681939	0.602069
	H281	H	0.429993	0.691287	0.591724
	O282	O	1.274686	0.348145	0.714849
	H283	H	1.302091	0.320887	0.702645
	H284	H	1.246310	0.325398	0.747549
	O285	O	0.301283	0.596768	0.575926
	H286	H	0.323065	0.594968	0.572264
	H287	H	0.302653	0.579566	0.589123
	O288	O	0.013380	1.094536	1.129898
	H289	H	0.012527	1.092731	1.131235
	H290	H	0.008058	1.097702	1.122375
	O291	O	0.546556	0.451637	0.583897
	H292	H	0.549828	0.457889	0.588015
	H293	H	0.544155	0.459072	0.593959
	O294	O	0.982306	-0.025127	1.219419
	H295	H	0.993258	-0.010965	1.223241
	H296	H	0.979610	-0.043992	1.215757
	O297	O	0.231459	0.749907	0.212258
	H298	H	0.211422	0.748394	0.192240
	H299	H	0.221051	0.782409	0.217761
	O300	O	0.129681	-0.116605	1.183890
	H301	H	0.127595	-0.096743	1.171476
	H302	H	0.140540	-0.101949	1.177676
	O303	O	0.455541	0.249198	0.427339
	H304	H	0.438932	0.250126	0.428763
	H305	H	0.456041	0.246587	0.433091
	O306	O	0.276640	0.476477	0.626900
	H307	H	0.261960	0.457308	0.651702
	H308	H	0.272808	0.452930	0.627462
	O309	O	0.222154	1.012538	1.208237
	H310	H	0.219150	1.052869	1.206567
	H311	H	0.242566	1.021206	1.232895
	O312	O	0.053805	0.879223	1.130747
	H313	H	0.062177	0.881068	1.131025
	H314	H	0.070983	0.868678	1.130412
	O315	O	0.535266	0.695995	1.708744
	H316	H	0.542144	0.719418	1.729993
	H317	H	0.555029	0.694711	1.698674
	O318	O	0.724492	0.385647	0.496108
	H319	H	0.727738	0.405507	0.493910
	H320	H	0.733856	0.390454	0.496998
	O321	O	-0.203474	1.186253	0.778642
	H322	H	-0.223969	1.186830	0.760780
	H323	H	-0.221284	1.199142	0.793902
	O324	O	0.793201	0.849912	0.004092
	H325	H	0.795553	0.853900	0.013745
	H326	H	0.781325	0.840609	-0.004815
	O327	O	0.171153	-0.027836	0.831699
	H328	H	0.157372	-0.008037	0.822699
	H329	H	0.159844	-0.022154	0.833611
	O330	O	0.729215	0.516043	0.718351
	H331	H	0.738060	0.538016	0.722207
	H332	H	0.740109	0.525546	0.736980
	O333	O	0.976322	0.184162	0.987276
	H334	H	0.982028	0.183766	1.001121
	H335	H	0.975832	0.176838	0.985316
	O336	O	0.308109	0.290496	0.297000
	H337	H	0.322522	0.309153	0.319149
	H338	H	0.331309	0.306977	0.312212
	O339	O	0.354228	0.278902	0.677299
	H340	H	0.353344	0.258728	0.696424
	H341	H	0.388965	0.279751	0.684065
	O342	O	-0.289973	0.269769	0.281549
	H343	H	-0.291815	0.279486	0.267368
	H344	H	-0.302645	0.282166	0.302070
	O345	O	0.211807	1.187867	1.196792
	H346	H	0.161039	1.195766	1.202447
	H347	H	0.240906	1.222761	1.230100
	O348	O	0.170068	0.146082	0.036502
	H349	H	0.170069	0.160864	0.047125
	H350	H	0.180850	0.158047	0.058373
	O351	O	0.392636	0.622640	0.329252
	H352	H	0.375047	0.642607	0.319290
	H353	H	0.377391	0.593957	0.324035
	O354	O	-0.034812	0.199892	0.768715
	H355	H	-0.051971	0.221816	0.745799
	H356	H	-0.063459	0.202125	0.770612
	O357	O	0.484181	0.492167	0.550396
	H358	H	0.491730	0.498663	0.543948
	H359	H	0.490145	0.485519	0.551858
	O360	O	0.474354	0.423340	0.508048
	H361	H	0.490591	0.431857	0.510669
	H362	H	0.476977	0.433550	0.504276
	O363	O	-0.051953	-0.164365	0.100566
	H364	H	-0.048292	-0.167294	0.100965
	H365	H	-0.047188	-0.169259	0.105893
	O366	O	0.745625	0.541303	0.432923
	H367	H	0.750723	0.547249	0.427371
	H368	H	0.737323	0.537182	0.420546
	O369	O	1.078429	-0.117959	-0.157590
	H370	H	1.086559	-0.111908	-0.153880
	H371	H	1.081605	-0.110060	-0.168829
	O372	O	1.061837	0.748695	0.049979
	H373	H	1.053594	0.751095	0.040473
	H374	H	1.089932	0.750498	0.033483
	O375	O	0.807479	-0.206696	-0.200319
	H376	H	0.803994	-0.209195	-0.201593
	H377	H	0.822585	-0.188574	-0.184018
	O378	O	0.714036	0.267355	0.474380
	H379	H	0.727920	0.270590	0.454375
	H380	H	0.725227	0.257302	0.475730
	O381	O	-0.094715	0.900278	0.987472
	H382	H	-0.090335	0.891319	0.987578
	H383	H	-0.089455	0.915877	0.987674
	O384	O	1.021628	0.157468	1.210293
	H385	H	0.995423	0.150436	1.210735
	H386	H	1.014398	0.162794	1.216640
	O387	O	1.431234	1.489514	-0.664580
	H388	H	1.431107	1.499371	-0.671974
	H389	H	1.424781	1.478213	-0.661616
	O390	O	0.406010	0.534905	0.689325
	H391	H	0.411990	0.546540	0.690533
	H392	H	0.380712	0.517292	0.691193
	O393	O	0.499331	0.568611	0.366702
	H394	H	0.521498	0.568697	0.357157
	H395	H	0.476101	0.588750	0.363812
	O396	O	0.258663	0.740922	0.733253
	H397	H	0.285700	0.736256	0.705194
	H398	H	0.272246	0.743252	0.728133
	O399	O	-0.204628	-0.229390	1.195501
	H400	H	-0.186094	-0.240177	1.200745
	H401	H	-0.197534	-0.220119	1.166266
	O402	O	0.289262	0.695322	0.434493
	H403	H	0.275020	0.712856	0.442074
	H404	H	0.283954	0.689178	0.429939
	O405	O	1.213231	-0.240386	0.966625
	H406	H	1.234710	-0.261012	0.942057
	H407	H	1.216303	-0.229184	0.941791
	O408	O	0.077034	0.001870	-0.209053
	H409	H	0.059520	0.000611	-0.195588
	H410	H	0.059712	0.018795	-0.204621
	O411	O	1.192504	1.159694	0.804097
	H412	H	1.177833	1.141392	0.821941
	H413	H	1.168349	1.146331	0.821283
	O414	O	0.339425	0.528810	0.471170
	H415	H	0.322608	0.526187	0.468509
	H416	H	0.332225	0.525033	0.452089
	O417	O	0.484039	0.459883	0.264731
	H418	H	0.479605	0.463346	0.255930
	H419	H	0.487187	0.466589	0.276933
	O420	O	0.613170	0.378376	0.639882
	H421	H	0.618472	0.385837	0.631980
	H422	H	0.607378	0.389771	0.646817
	O423	O	-0.021124	0.135827	0.888934
	H424	H	-0.034371	0.143158	0.875894
	H425	H	-0.031479	0.126677	0.899346
	O426	O	0.568635	0.374637	0.384213
	H427	H	0.565487	0.377530	0.405107
	H428	H	0.569515	0.381681	0.384246
	O429	O	1.170657	0.944280	0.985111
	H430	H	1.172377	0.926868	0.989823
	H431	H	1.172965	0.960098	0.983879
	O432	O	1.000512	-0.209191	0.786763
	H433	H	1.017636	-0.215389	0.778367
	H434	H	1.017871	-0.221223	0.767735
	O435	O	0.265580	1.338288	0.478264
	H436	H	0.253808	1.328738	0.494528
	H437	H	0.260948	1.338204	0.506984
	O438	O	0.694790	0.290221	-0.317129
	H439	H	0.686664	0.316587	-0.339350
	H440	H	0.664251	0.299218	-0.328712
	O441	O	-0.052106	-0.146350	-0.155745
	H442	H	-0.049622	-0.160819	-0.176529
	H443	H	-0.071725	-0.145145	-0.149992
	O444	O	0.720331	0.692651	0.524926
	H445	H	0.725227	0.696902	0.518107
	H446	H	0.714699	0.699074	0.506714
	O447	O	0.013644	0.940548	0.980525
	H448	H	0.011479	0.934745	0.974067
	H449	H	0.014164	0.939910	0.974286
	O450	O	0.137432	0.794526	0.796475
	H451	H	0.142697	0.815928	0.782682
	H452	H	0.170135	0.786260	0.779373
	O453	O	0.710947	0.689098	0.697307
	H454	H	0.714637	0.681871	0.659993
	H455	H	0.722499	0.703630	0.709710
	O456	O	-0.213326	0.007449	0.983438
	H457	H	-0.224513	0.008911	0.980443
	H458	H	-0.217993	0.001229	0.974793
	O459	O	0.829903	1.159120	0.167143
	H460	H	0.833814	1.132542	0.156769
	H461	H	0.818373	1.166414	0.169467
	O462	O	0.467837	0.707352	0.263522
	H463	H	0.457264	0.737711	0.231684
	H464	H	0.426314	0.699075	0.269335
	O465	O	0.785334	0.004970	-0.229518
	H466	H	0.773063	0.012912	-0.237519
	H467	H	0.783046	0.013458	-0.228897
	O468	O	0.692810	0.665756	0.304783
	H469	H	0.688843	0.656006	0.311131
	H470	H	0.702285	0.659992	0.290392
	O471	O	0.564975	0.712036	0.452877
	H472	H	0.547566	0.710463	0.445615
	H473	H	0.562588	0.714268	0.429928
	O474	O	0.568555	0.293021	0.595749
	H475	H	0.584488	0.296647	0.590828
	H476	H	0.560732	0.297323	0.575056
	O477	O	0.374383	0.280802	1.592847
	H478	H	0.389431	0.288674	1.607684
	H479	H	0.378094	0.282356	1.603483
	O480	O	0.729264	0.464956	0.269529
	H481	H	0.695027	0.467077	0.265739
	H482	H	0.754179	0.456516	0.237517
	O483	O	0.281070	0.514083	0.270554
	H484	H	0.263298	0.514362	0.272766
	H485	H	0.275102	0.521077	0.262626
	O486	O	0.532555	0.264363	0.269252
	H487	H	0.525614	0.244573	0.259469
	H488	H	0.544743	0.272136	0.264324
	O489	O	1.185076	1.068497	-0.013607
	H490	H	1.195453	1.069863	-0.008126
	H491	H	1.182268	1.085881	-0.009800
	O492	O	-0.127779	0.202469	0.007328
	H493	H	-0.121128	0.211599	0.016992
	H494	H	-0.137919	0.202422	0.007100
	O495	O	-0.095552	1.010710	0.958366
	H496	H	-0.089822	1.008061	0.961563
	H497	H	-0.098565	1.019422	0.962549
	O498	O	0.830259	1.048195	1.012253
	H499	H	0.827159	1.042873	1.018729
	H500	H	0.838273	1.039268	1.020554
	O501	O	0.572675	0.511745	0.630938
	H502	H	0.550661	0.513662	0.639129
	H503	H	0.590185	0.519631	0.621334
