data_Molecule from HDF5

_cell_length_a		16.640188
_cell_length_b		16.472577
_cell_length_c		16.493512
_cell_angle_alpha	90.048565
_cell_angle_beta	89.977864
_cell_angle_gamma	89.927474
_symmetry_space_group_name_H-M	'P 1'
_symmetry_Int_Tables_number		1

loop_
	_symmetry_equiv_pos_as_xyz
	x,y,z

loop_
	_atom_site_label
	_atom_site_type_symbol
	_atom_site_fract_x
	_atom_site_fract_y
	_atom_site_fract_z
	H0	H	0.392458	0.857138	0.751726
	H1	H	0.602864	0.172227	0.752719
	H2	H	0.599327	0.857340	0.312538
	H3	H	0.392534	0.172971	0.307731
	H4	H	0.723381	0.405328	0.871848
	H5	H	0.717952	0.616884	0.186167
	H6	H	0.272454	0.627536	0.874085
	H7	H	0.274619	0.407691	0.183144
	H8	H	0.842333	0.737156	0.425045
	H9	H	0.154266	0.740061	0.634951
	H10	H	0.843074	0.293326	0.636418
	H11	H	0.154319	0.293437	0.423936
	H12	H	0.844652	0.407882	0.755024
	H13	H	0.152827	0.626908	0.754895
	H14	H	0.841679	0.616960	0.309580
	H15	H	0.154483	0.409912	0.307344
	H16	H	0.392583	0.738663	0.871853
	H17	H	0.600530	0.732523	0.187271
	H18	H	0.605703	0.291296	0.871679
	H19	H	0.393329	0.294551	0.184655
	H20	H	0.719305	0.859956	0.425163
	H21	H	0.719119	0.172945	0.637726
	H22	H	0.274577	0.858612	0.637690
	H23	H	0.275972	0.173158	0.424481
	H24	H	0.896912	0.356783	0.246813
	H25	H	0.100511	0.673088	0.248914
	H26	H	0.109477	0.361856	0.802308
	H27	H	0.893595	0.674689	0.807731
	H28	H	0.217718	0.912887	0.372965
	H29	H	0.222271	0.125584	0.686750
	H30	H	0.776698	0.121548	0.373407
	H31	H	0.771272	0.903904	0.684929
	H32	H	0.344766	0.242738	0.918246
	H33	H	0.652362	0.240058	0.136139
	H34	H	0.342618	0.795409	0.132230
	H35	H	0.655414	0.793269	0.923657
	H36	H	0.341326	0.913096	0.247382
	H37	H	0.652636	0.121545	0.252060
	H38	H	0.344300	0.124090	0.803810
	H39	H	0.654694	0.906500	0.804554
	H40	H	0.896900	0.233182	0.371121
	H41	H	0.105684	0.240999	0.686454
	H42	H	0.098073	0.799780	0.370596
	H43	H	0.888765	0.790214	0.684742
	H44	H	0.226541	0.363349	0.915669
	H45	H	0.220861	0.672409	0.136282
	H46	H	0.779394	0.357704	0.131676
	H47	H	0.776637	0.673083	0.922191
	H48	H	0.411296	0.126132	0.615189
	H49	H	0.582253	0.906193	0.612377
	H50	H	0.582337	0.128832	0.439932
	H51	H	0.404473	0.903925	0.445785
	H52	H	0.594748	0.419821	0.144569
	H53	H	0.589681	0.599057	0.916749
	H54	H	0.411616	0.609466	0.141775
	H55	H	0.419796	0.437206	0.921993
	H56	H	0.111271	0.605067	0.435722
	H57	H	0.889243	0.602190	0.616077
	H58	H	0.111013	0.422586	0.614232
	H59	H	0.884670	0.420982	0.437942
	H60	H	0.103667	0.434555	0.608529
	H61	H	0.888509	0.602788	0.618438
	H62	H	0.112303	0.609836	0.437965
	H63	H	0.887693	0.425652	0.440365
	H64	H	0.404796	0.602174	0.142204
	H65	H	0.585690	0.606758	0.915040
	H66	H	0.592829	0.436361	0.137516
	H67	H	0.415236	0.424042	0.914717
	H68	H	0.589071	0.129096	0.445883
	H69	H	0.591573	0.902644	0.613572
	H70	H	0.408722	0.126329	0.616748
	H71	H	0.402797	0.899967	0.435521
	H72	H	0.909760	0.627972	0.118028
	H73	H	0.077119	0.407100	0.117005
	H74	H	0.085598	0.630062	0.939261
	H75	H	0.914448	0.405431	0.939894
	H76	H	0.082555	0.928380	0.642148
	H77	H	0.081961	0.108176	0.418912
	H78	H	0.909286	0.107908	0.644545
	H79	H	0.913801	0.917446	0.415627
	H80	H	0.608007	0.104116	0.945491
	H81	H	0.386495	0.102728	0.120531
	H82	H	0.613918	0.920089	0.122701
	H83	H	0.386048	0.922801	0.938540
	H84	H	0.610916	0.924518	0.117083
	H85	H	0.385379	0.108011	0.117597
	H86	H	0.605734	0.097944	0.945191
	H87	H	0.389851	0.925837	0.945243
	H88	H	0.905140	0.100668	0.642086
	H89	H	0.093858	0.106832	0.415624
	H90	H	0.088483	0.925801	0.644438
	H91	H	0.895299	0.930234	0.414254
	H92	H	0.079710	0.624772	0.945080
	H93	H	0.093996	0.404816	0.106040
	H94	H	0.904910	0.629387	0.116779
	H95	H	0.911540	0.405781	0.944037
	H96	H	0.411353	0.126093	0.618147
	H97	H	0.585052	0.902768	0.621287
	H98	H	0.590846	0.131840	0.437519
	H99	H	0.412727	0.904245	0.438024
	H100	H	0.579452	0.425501	0.137118
	H101	H	0.593900	0.605795	0.912912
	H102	H	0.413872	0.600090	0.137505
	H103	H	0.405251	0.436531	0.916375
	H104	H	0.109586	0.606081	0.440612
	H105	H	0.888383	0.604598	0.616180
	H106	H	0.108936	0.434956	0.622010
	H107	H	0.885021	0.426099	0.434705
	H108	H	0.906622	0.630304	0.121881
	H109	H	0.093205	0.397604	0.126013
	H110	H	0.088702	0.626713	0.947894
	H111	H	0.909842	0.402930	0.939852
	H112	H	0.087922	0.932525	0.642155
	H113	H	0.087467	0.097306	0.421079
	H114	H	0.913650	0.101488	0.640342
	H115	H	0.913618	0.938787	0.423756
	H116	H	0.608391	0.100867	0.939806
	H117	H	0.388244	0.103321	0.114655
	H118	H	0.611396	0.927354	0.124483
	H119	H	0.389071	0.930287	0.938205
	C120	C	0.377294	0.022781	0.650456
	C121	C	0.619229	1.007162	0.650610
	C122	C	0.618616	0.025309	0.409245
	C123	C	0.375171	1.006988	0.407779
	C124	C	0.621752	0.393146	0.036465
	C125	C	0.620136	0.635410	1.019688
	C126	C	0.377391	0.637670	0.037218
	C127	C	0.379000	0.397332	1.020028
	C128	C	0.006844	0.637257	0.407332
	C129	C	0.990668	0.638133	0.650481
	C130	C	0.006379	0.396030	0.649950
	C131	C	0.989573	0.392705	0.406434
	C132	C	0.877174	0.524111	0.149574
	C133	C	0.120060	0.506902	0.149626
	C134	C	0.119997	0.525303	0.907966
	C135	C	0.878282	0.508053	0.907594
	C136	C	0.117622	0.896903	0.538477
	C137	C	0.120734	0.138235	0.521767
	C138	C	0.877419	0.136108	0.538501
	C139	C	0.875038	0.894368	0.521033
	C140	C	0.506143	0.135999	0.908317
	C141	C	0.489207	0.137598	0.150674
	C142	C	0.507895	0.893124	0.151507
	C143	C	0.491337	0.893357	0.907670
	C144	C	0.374431	0.904708	0.711495
	C145	C	0.621763	0.124931	0.712496
	C146	C	0.619137	0.905490	0.351139
	C147	C	0.373690	0.125741	0.347873
	C148	C	0.682849	0.388334	0.919108
	C149	C	0.678470	0.636170	0.138928
	C150	C	0.314577	0.643297	0.920446
	C151	C	0.316199	0.391192	0.136765
	C152	C	0.888880	0.696429	0.406094
	C153	C	0.107441	0.699898	0.653532
	C154	C	0.889980	0.333720	0.654364
	C155	C	0.107493	0.333415	0.405458
	C156	C	0.890724	0.391004	0.713211
	C157	C	0.106895	0.643287	0.712981
	C158	C	0.888572	0.637132	0.348776
	C159	C	0.107442	0.391310	0.347410
	C160	C	0.374329	0.698946	0.919329
	C161	C	0.620284	0.693570	0.139418
	C162	C	0.623965	0.331658	0.918721
	C163	C	0.375259	0.334858	0.137490
	C164	C	0.678394	0.906596	0.407285
	C165	C	0.679503	0.125342	0.655040
	C166	C	0.315665	0.905425	0.654711
	C167	C	0.315523	0.125788	0.405500
	C168	C	0.877324	0.404513	0.207792
	C169	C	0.120554	0.625678	0.209798
	C170	C	0.126215	0.408949	0.843397
	C171	C	0.875324	0.626813	0.847419
	C172	C	0.177304	0.894641	0.419823
	C173	C	0.181718	0.142504	0.639653
	C174	C	0.817400	0.138921	0.420206
	C175	C	0.812776	0.888188	0.638006
	C176	C	0.390759	0.200185	0.902059
	C177	C	0.606029	0.198700	0.153953
	C178	C	0.389692	0.834698	0.151389
	C179	C	0.608435	0.832675	0.904932
	C180	C	0.389004	0.893414	0.208708
	C181	C	0.606122	0.140347	0.211873
	C182	C	0.390530	0.141226	0.844930
	C183	C	0.608073	0.889737	0.845985
	C184	C	0.877010	0.194658	0.419206
	C185	C	0.123638	0.200028	0.639577
	C186	C	0.117911	0.838526	0.418663
	C187	C	0.871514	0.831393	0.638037
	C188	C	0.184744	0.409618	0.899978
	C189	C	0.179842	0.625365	0.153559
	C190	C	0.818986	0.404951	0.150588
	C191	C	0.816925	0.626001	0.904256
	C192	C	0.402977	0.104747	0.624289
	C193	C	0.593527	0.925090	0.623538
	C194	C	0.594274	0.108275	0.433879
	C195	C	0.399545	0.924404	0.432704
	C196	C	0.596261	0.419643	0.118407
	C197	C	0.596392	0.611040	0.936690
	C198	C	0.402903	0.611288	0.119254
	C199	C	0.405932	0.424818	0.938928
	C200	C	0.089428	0.613702	0.431308
	C201	C	0.909803	0.610959	0.624333
	C202	C	0.086948	0.422948	0.622700
	C203	C	0.907317	0.417282	0.430685
	C204	C	0.900496	0.607550	0.125704
	C205	C	0.095338	0.424656	0.123702
	C206	C	0.092484	0.606136	0.936279
	C207	C	0.904551	0.425959	0.933487
	C208	C	0.093322	0.921844	0.621202
	C209	C	0.095129	0.111779	0.439878
	C210	C	0.902310	0.110681	0.620757
	C211	C	0.900598	0.921261	0.439202
	C212	C	0.586616	0.108635	0.935734
	C213	C	0.407802	0.111938	0.125027
	C214	C	0.590517	0.917160	0.128122
	C215	C	0.409695	0.919010	0.933203
	Zn216	Zn	0.498575	0.014531	0.778837
	Zn217	Zn	0.497900	0.016155	0.280290
	Zn218	Zn	0.749385	0.515320	0.027647
	Zn219	Zn	0.248583	0.516613	0.028600
	Zn220	Zn	-0.002176	0.766838	0.529220
	Zn221	Zn	-0.001631	0.265288	0.529937
	Zn222	Zn	-0.000542	0.517253	0.779768
	Zn223	Zn	-0.001689	0.514845	0.278318
	Zn224	Zn	0.499650	0.764820	0.028691
	Zn225	Zn	0.497908	0.266523	0.028276
	Zn226	Zn	0.747179	0.016695	0.530448
	Zn227	Zn	0.247808	0.015878	0.530576
	N228	N	0.412138	0.978865	0.709038
	N229	N	0.585043	0.050353	0.709761
	N230	N	0.582898	0.980426	0.351918
	N231	N	0.410112	0.050956	0.349181
	N232	N	0.681579	0.425868	0.993332
	N233	N	0.678611	0.601035	0.063368
	N234	N	0.316345	0.605932	0.994910
	N235	N	0.318345	0.429288	0.062763
	N236	N	0.963418	0.696635	0.441354
	N237	N	0.034047	0.696887	0.615463
	N238	N	0.963054	0.336758	0.615576
	N239	N	0.032954	0.333750	0.441090
	N240	N	0.964048	0.428955	0.710643
	N241	N	0.033246	0.605695	0.711123
	N242	N	0.963100	0.601285	0.349221
	N243	N	0.033013	0.427395	0.347971
	N244	N	0.412678	0.695616	0.992953
	N245	N	0.584825	0.693253	0.064259
	N246	N	0.586857	0.334145	0.993147
	N247	N	0.413675	0.338548	0.063906
	N248	N	0.678210	0.982095	0.442623
	N249	N	0.678152	0.050806	0.617629
	N250	N	0.317378	0.979885	0.617497
	N251	N	0.316485	0.051109	0.442277
	N252	N	0.912686	0.479760	0.207336
	N253	N	0.084054	0.550941	0.207698
	N254	N	0.086589	0.481914	0.848203
	N255	N	0.912473	0.552258	0.849089
	N256	N	0.177562	0.929740	0.495324
	N257	N	0.180165	0.104902	0.565217
	N258	N	0.817329	0.103524	0.495487
	N259	N	0.814942	0.926980	0.564419
	N260	N	0.463639	0.197070	0.940734
	N261	N	0.532386	0.197094	0.116725
	N262	N	0.464781	0.834199	0.116806
	N263	N	0.534923	0.835013	0.942679
	N264	N	0.463678	0.928902	0.209301
	N265	N	0.532406	0.103038	0.210021
	N266	N	0.463277	0.101764	0.848884
	N267	N	0.534157	0.926645	0.847517
	N268	N	0.913766	0.193165	0.493792
	N269	N	0.086562	0.197559	0.565298
	N270	N	0.081538	0.839676	0.493360
	N271	N	0.909751	0.835106	0.564232
	N272	N	0.180813	0.482915	0.939617
	N273	N	0.179668	0.550488	0.117087
	N274	N	0.818693	0.480416	0.115228
	N275	N	0.818517	0.551064	0.940744
	O276	O	0.967207	1.030722	0.207135
	H277	H	0.963295	1.023290	0.200520
	H278	H	0.966761	1.015826	0.218002
	O279	O	0.004622	-0.078792	0.988589
	H280	H	-0.012697	-0.082046	0.987439
	H281	H	0.012785	-0.070907	0.980915
	O282	O	-0.044875	0.984421	-0.191591
	H283	H	-0.041415	0.999310	-0.191727
	H284	H	-0.058589	1.002912	-0.193303
	O285	O	0.274900	0.731077	0.497599
	H286	H	0.259436	0.754247	0.478477
	H287	H	0.276896	0.735315	0.478180
	O288	O	0.478418	0.714601	0.720496
	H289	H	0.473245	0.736137	0.736101
	H290	H	0.487186	0.694759	0.717745
	O291	O	0.452920	0.727017	0.316260
	H292	H	0.472852	0.725861	0.308563
	H293	H	0.460909	0.733555	0.312614
	O294	O	-0.713358	0.305692	0.566549
	H295	H	-0.723368	0.298258	0.545481
	H296	H	-0.724690	0.304513	0.553792
	O297	O	0.987107	0.124370	0.145615
	H298	H	0.990970	0.120418	0.146882
	H299	H	0.980110	0.110786	0.155655
	O300	O	-0.216192	-0.012468	0.241955
	H301	H	-0.238799	-0.038111	0.262927
	H302	H	-0.219502	-0.031602	0.231462
	O303	O	0.196403	0.206168	0.217457
	H304	H	0.210732	0.180499	0.230526
	H305	H	0.175999	0.218838	0.208063
	O306	O	0.778253	0.228242	0.008796
	H307	H	0.762864	0.240731	-0.010666
	H308	H	0.764679	0.221338	0.013212
	O309	O	1.046142	0.214025	0.237098
	H310	H	1.054698	0.239103	0.263276
	H311	H	1.037044	0.190462	0.244100
	O312	O	0.358830	0.584451	0.542635
	H313	H	0.355756	0.588230	0.558548
	H314	H	0.356999	0.595849	0.545599
	O315	O	0.457003	0.454018	0.650785
	H316	H	0.448477	0.464053	0.645493
	H317	H	0.458451	0.459204	0.639994
	O318	O	1.211004	1.225846	0.050261
	H319	H	1.208777	1.226763	0.069895
	H320	H	1.217089	1.234915	0.047231
	O321	O	0.517773	0.329712	0.493698
	H322	H	0.523730	0.335255	0.504824
	H323	H	0.511306	0.335761	0.493021
	O324	O	0.632501	0.582254	1.557259
	H325	H	0.625220	0.582300	1.565629
	H326	H	0.624564	0.573895	1.566733
	O327	O	0.475203	0.518292	0.327984
	H328	H	0.464722	0.514744	0.331267
	H329	H	0.459704	0.509452	0.337301
	O330	O	0.185207	0.830519	-0.152677
	H331	H	0.136350	0.820965	-0.161753
	H332	H	0.191838	0.880456	-0.162170
	O333	O	0.509603	0.552552	-0.523010
	H334	H	0.499384	0.547936	-0.522865
	H335	H	0.492445	0.562450	-0.513658
	O336	O	0.719035	0.298120	0.494444
	H337	H	0.727897	0.285206	0.470503
	H338	H	0.726702	0.284245	0.470252
	O339	O	0.699720	0.701624	0.466848
	H340	H	0.703686	0.712150	0.483178
	H341	H	0.684951	0.688143	0.472723
	O342	O	0.211869	1.087064	-0.100347
	H343	H	0.217283	1.101500	-0.097482
	H344	H	0.203563	1.109492	-0.097647
	O345	O	0.307157	0.363922	0.387014
	H346	H	0.315163	0.380383	0.390831
	H347	H	0.312565	0.385400	0.390747
	O348	O	0.777029	-0.203038	0.059720
	H349	H	0.768125	-0.217724	0.085143
	H350	H	0.762986	-0.215849	0.078758
	O351	O	-0.183190	0.118628	0.894250
	H352	H	-0.189473	0.123216	0.903181
	H353	H	-0.188485	0.099415	0.888160
	O354	O	1.532372	-0.687961	1.318098
	H355	H	1.524163	-0.696677	1.314427
	H356	H	1.528016	-0.685112	1.322085
	O357	O	0.511988	0.636975	0.540730
	H358	H	0.507938	0.643975	0.547655
	H359	H	0.513145	0.630484	0.537083
	O360	O	0.471333	0.290722	0.546379
	H361	H	0.456147	0.286859	0.564647
	H362	H	0.465595	0.290594	0.557306
	O363	O	0.335755	0.496317	-0.316047
	H364	H	0.345640	0.476063	-0.311783
	H365	H	0.324069	0.485057	-0.308328
	O366	O	1.096293	0.174564	0.934529
	H367	H	1.101357	0.180509	0.935484
	H368	H	1.078709	0.184952	0.952877
	O369	O	0.055224	0.018827	0.922304
	H370	H	0.045439	0.009472	0.890872
	H371	H	0.038267	0.038432	0.927689
	O372	O	-0.027796	0.799229	1.218597
	H373	H	-0.009535	0.798985	1.209805
	H374	H	-0.010069	0.790343	1.225841
	O375	O	0.960175	-0.173399	-0.031554
	H376	H	0.948149	-0.165970	-0.044807
	H377	H	0.957682	-0.169276	-0.025813
	O378	O	0.949869	0.946748	1.069866
	H379	H	0.954652	0.943852	1.053075
	H380	H	0.941522	0.950791	1.060423
	O381	O	0.189444	0.831224	0.216816
	H382	H	0.175102	0.841059	0.185844
	H383	H	0.171636	0.858781	0.207187
	O384	O	0.527774	0.346953	0.728603
	H385	H	0.531055	0.384022	0.738472
	H386	H	0.529319	0.332700	0.730486
	O387	O	0.220083	1.003688	0.845774
	H388	H	0.227581	1.008748	0.846729
	H389	H	0.237619	1.012912	0.843401
	O390	O	0.182471	0.963232	1.080931
	H391	H	0.175064	0.966895	1.066739
	H392	H	0.182139	0.946182	1.067715
	O393	O	1.196061	-0.182729	0.011672
	H394	H	1.213556	-0.210661	-0.005194
	H395	H	1.183337	-0.178033	-0.024471
	O396	O	0.286880	0.725287	0.323122
	H397	H	0.258113	0.759583	0.289055
	H398	H	0.331814	0.729968	0.322632
	O399	O	1.639821	0.474634	-0.356269
	H400	H	1.644245	0.479687	-0.377303
	H401	H	1.632374	0.473950	-0.368722
	O402	O	0.475663	-0.268414	1.626867
	H403	H	0.446458	-0.257116	1.632225
	H404	H	0.478965	-0.269299	1.637831
	O405	O	0.280310	0.540084	0.308137
	H406	H	0.279877	0.572253	0.316543
	H407	H	0.255605	0.560428	0.284915
	O408	O	0.964843	1.114102	0.812656
	H409	H	0.959894	1.151838	0.804019
	H410	H	1.004430	1.116518	0.811220
	O411	O	0.957147	1.232838	0.088499
	H412	H	0.943517	1.232787	0.097994
	H413	H	0.955688	1.229144	0.102727
	O414	O	-0.192993	0.061540	0.056389
	H415	H	-0.174030	0.051809	0.052639
	H416	H	-0.198489	0.060298	0.069369
	O417	O	0.379791	0.502080	0.507640
	H418	H	0.360728	0.502959	0.525226
	H419	H	0.382473	0.498681	0.494027
	O420	O	0.688368	-0.294226	0.687896
	H421	H	0.685738	-0.301843	0.682829
	H422	H	0.673980	-0.300235	0.672029
	O423	O	0.968553	0.872393	-0.108625
	H424	H	0.952318	0.880993	-0.125032
	H425	H	0.952844	0.864785	-0.123446
	O426	O	0.076795	0.862528	0.120466
	H427	H	0.079835	0.852661	0.099406
	H428	H	0.070705	0.865353	0.102061
	O429	O	0.705645	0.489318	0.316238
	H430	H	0.714900	0.489192	0.302842
	H431	H	0.704651	0.467209	0.315774
	O432	O	0.786727	0.811135	0.235984
	H433	H	0.759856	0.775866	0.270596
	H434	H	0.839247	0.806229	0.242472
	O435	O	1.185822	0.032243	0.242612
	H436	H	1.193968	0.027654	0.248247
	H437	H	1.191354	0.034522	0.232526
	O438	O	0.688112	0.652678	0.387704
	H439	H	0.676458	0.631055	0.383800
	H440	H	0.664534	0.643852	0.405016
	O441	O	0.564192	0.467349	0.675288
	H442	H	0.562321	0.475934	0.664609
	H443	H	0.562861	0.465699	0.662403
	O444	O	0.709102	0.310368	0.322298
	H445	H	0.675047	0.303258	0.314520
	H446	H	0.729645	0.304175	0.295836
	O447	O	0.478161	0.448812	0.664762
	H448	H	0.488824	0.451763	0.663315
	H449	H	0.468629	0.452130	0.668975
	O450	O	0.778402	0.039729	-0.193181
	H451	H	0.743238	0.049175	-0.225092
	H452	H	0.780481	0.042584	-0.169610
	O453	O	0.811657	0.200648	0.208495
	H454	H	0.820254	0.186927	0.187522
	H455	H	0.827064	0.179439	0.203342
	O456	O	0.048626	0.997667	1.107787
	H457	H	0.053627	0.995946	1.107111
	H458	H	0.042981	0.997030	1.106862
	O459	O	0.675732	-0.390414	0.505528
	H460	H	0.687490	-0.412740	0.496409
	H461	H	0.655581	-0.379660	0.506004
	O462	O	0.507256	0.483225	0.356453
	H463	H	0.507738	0.476064	0.359179
	H464	H	0.510825	0.469269	0.348987
	O465	O	0.973887	0.230950	-0.187962
	H466	H	0.972239	0.253310	-0.200039
	H467	H	0.968444	0.236432	-0.172067
	O468	O	-0.177823	0.944434	-0.082096
	H469	H	-0.181366	0.950734	-0.059611
	H470	H	-0.187118	0.929963	-0.080565
	O471	O	0.716737	0.539256	0.752299
	H472	H	0.723209	0.535037	0.738108
	H473	H	0.741005	0.553857	0.772176
	O474	O	0.305565	0.326401	0.727094
	H475	H	0.335211	0.322819	0.729032
	H476	H	0.307344	0.318433	0.686224
	O477	O	0.350391	-0.384499	0.637511
	H478	H	0.343010	-0.387027	0.636819
	H479	H	0.349712	-0.390898	0.649081
