data_Molecule from HDF5

_cell_length_a		16.200198
_cell_length_b		16.275848
_cell_length_c		16.224965
_cell_angle_alpha	90.128190
_cell_angle_beta	89.666264
_cell_angle_gamma	90.149994
_symmetry_space_group_name_H-M	'P 1'
_symmetry_Int_Tables_number		1

loop_
	_symmetry_equiv_pos_as_xyz
	x,y,z

loop_
	_atom_site_label
	_atom_site_type_symbol
	_atom_site_fract_x
	_atom_site_fract_y
	_atom_site_fract_z
	H0	H	0.394362	0.821745	0.720124
	H1	H	0.591409	0.150157	0.716614
	H2	H	0.594504	0.821997	0.288047
	H3	H	0.396691	0.149019	0.290281
	H4	H	0.709105	0.388508	0.839639
	H5	H	0.706864	0.584939	0.168641
	H6	H	0.282650	0.584402	0.839553
	H7	H	0.279689	0.388755	0.167929
	H8	H	0.830037	0.698538	0.408359
	H9	H	0.159259	0.701513	0.602775
	H10	H	0.831212	0.270480	0.604099
	H11	H	0.160063	0.272906	0.403989
	H12	H	0.830392	0.388241	0.717634
	H13	H	0.159782	0.584401	0.716741
	H14	H	0.829866	0.583202	0.292102
	H15	H	0.159727	0.387632	0.288113
	H16	H	0.397592	0.700609	0.839960
	H17	H	0.593933	0.702018	0.167953
	H18	H	0.593990	0.272967	0.839425
	H19	H	0.393292	0.271850	0.167273
	H20	H	0.708409	0.821594	0.404505
	H21	H	0.708745	0.149166	0.601582
	H22	H	0.279292	0.821203	0.602585
	H23	H	0.282258	0.149621	0.407314
	H24	H	0.894163	0.321371	0.218812
	H25	H	0.092307	0.650150	0.217343
	H26	H	0.093792	0.322102	0.787787
	H27	H	0.896457	0.649886	0.790347
	H28	H	0.209323	0.886512	0.339812
	H29	H	0.207022	0.084365	0.668063
	H30	H	0.782397	0.083447	0.339081
	H31	H	0.779674	0.887800	0.668706
	H32	H	0.330354	0.200773	0.906346
	H33	H	0.659543	0.201462	0.101735
	H34	H	0.331085	0.770868	0.104322
	H35	H	0.659199	0.772404	0.903240
	H36	H	0.330066	0.887359	0.217936
	H37	H	0.660093	0.083476	0.216342
	H38	H	0.329943	0.084418	0.792836
	H39	H	0.658729	0.887516	0.788100
	H40	H	0.898524	0.199566	0.339375
	H41	H	0.093124	0.200205	0.668084
	H42	H	0.094070	0.771383	0.339814
	H43	H	0.894823	0.772148	0.668122
	H44	H	0.209860	0.322343	0.904044
	H45	H	0.208894	0.649379	0.102425
	H46	H	0.778134	0.322251	0.102669
	H47	H	0.783552	0.651321	0.908963
	H48	H	0.401662	0.102067	0.602010
	H49	H	0.582809	0.870068	0.594208
	H50	H	0.591794	0.102716	0.414789
	H51	H	0.408883	0.870823	0.411951
	H52	H	0.586889	0.403788	0.118595
	H53	H	0.596920	0.577818	0.884917
	H54	H	0.400381	0.577695	0.120698
	H55	H	0.408902	0.396637	0.889787
	H56	H	0.111464	0.576654	0.412161
	H57	H	0.879784	0.576550	0.592793
	H58	H	0.117092	0.376418	0.594864
	H59	H	0.878583	0.395755	0.410318
	H60	H	0.106540	0.400760	0.582277
	H61	H	0.876988	0.575934	0.603720
	H62	H	0.114027	0.578524	0.406691
	H63	H	0.876075	0.388508	0.410246
	H64	H	0.403274	0.580819	0.120569
	H65	H	0.584535	0.574489	0.889910
	H66	H	0.577102	0.387963	0.120299
	H67	H	0.402238	0.385665	0.884227
	H68	H	0.590820	0.104521	0.405723
	H69	H	0.591701	0.867688	0.595825
	H70	H	0.403442	0.100876	0.596412
	H71	H	0.396402	0.868265	0.416076
	H72	H	0.905469	0.601037	0.096562
	H73	H	0.086055	0.370784	0.090980
	H74	H	0.086410	0.602167	0.908391
	H75	H	0.895719	0.366650	0.907644
	H76	H	0.088005	0.893297	0.621531
	H77	H	0.092402	0.079601	0.385590
	H78	H	0.899521	0.090794	0.624955
	H79	H	0.905973	0.896956	0.388771
	H80	H	0.611319	0.075270	0.908525
	H81	H	0.377547	0.074952	0.102219
	H82	H	0.614381	0.888515	0.099024
	H83	H	0.378893	0.897256	0.912927
	H84	H	0.610529	0.893222	0.088998
	H85	H	0.375700	0.084903	0.099201
	H86	H	0.614161	0.083686	0.905570
	H87	H	0.375840	0.890675	0.908886
	H88	H	0.891196	0.070639	0.621422
	H89	H	0.087533	0.077377	0.387249
	H90	H	0.086024	0.895422	0.620367
	H91	H	0.904510	0.884149	0.384773
	H92	H	0.088873	0.601647	0.912840
	H93	H	0.092357	0.367137	0.098206
	H94	H	0.896613	0.602325	0.096668
	H95	H	0.906822	0.369348	0.907244
	H96	H	0.397313	0.102493	0.597411
	H97	H	0.585313	0.866821	0.602800
	H98	H	0.582818	0.100517	0.410550
	H99	H	0.399863	0.865475	0.403546
	H100	H	0.595641	0.388577	0.125696
	H101	H	0.587241	0.587796	0.885024
	H102	H	0.399320	0.581705	0.122191
	H103	H	0.395651	0.398470	0.885218
	H104	H	0.112619	0.582519	0.411523
	H105	H	0.875399	0.585654	0.597997
	H106	H	0.114940	0.401708	0.610212
	H107	H	0.878990	0.392161	0.416971
	H108	H	0.901250	0.604003	0.104187
	H109	H	0.082412	0.369044	0.099935
	H110	H	0.091602	0.604514	0.908822
	H111	H	0.900958	0.371434	0.917506
	H112	H	0.084954	0.892667	0.621401
	H113	H	0.087702	0.082132	0.385582
	H114	H	0.912388	0.075279	0.616059
	H115	H	0.894106	0.892750	0.385180
	H116	H	0.611235	0.082203	0.914519
	H117	H	0.379902	0.077829	0.091596
	H118	H	0.611123	0.900142	0.098902
	H119	H	0.377571	0.889927	0.917006
	C120	C	0.371643	-0.006255	0.627039
	C121	C	0.615078	0.977063	0.625328
	C122	C	0.616514	-0.006111	0.381651
	C123	C	0.373357	0.976784	0.382909
	C124	C	0.615503	0.365254	0.012584
	C125	C	0.616797	0.608252	0.995540
	C126	C	0.373243	0.608437	0.012705
	C127	C	0.372756	0.364840	0.994785
	C128	C	0.003649	0.607035	0.382811
	C129	C	0.986092	0.608101	0.626157
	C130	C	0.003705	0.364627	0.624973
	C131	C	0.986776	0.364122	0.382535
	C132	C	0.871731	0.494381	0.127358
	C133	C	0.115172	0.477417	0.124894
	C134	C	0.116834	0.494146	0.881586
	C135	C	0.873527	0.477725	0.883014
	C136	C	0.115517	0.864572	0.512243
	C137	C	0.117013	0.107864	0.494814
	C138	C	0.873121	0.107251	0.512165
	C139	C	0.872542	0.863679	0.495177
	C140	C	0.503190	0.108205	0.882826
	C141	C	0.486465	0.108187	0.125784
	C142	C	0.503414	0.865012	0.125070
	C143	C	0.486031	0.864174	0.882925
	C144	C	0.373870	0.870505	0.682193
	C145	C	0.612304	0.100822	0.679458
	C146	C	0.614497	0.870857	0.325965
	C147	C	0.376155	0.100177	0.327924
	C148	C	0.671097	0.368361	0.888705
	C149	C	0.669758	0.605321	0.119509
	C150	C	0.319523	0.605185	0.888772
	C151	C	0.317506	0.367788	0.118893
	C152	C	0.879159	0.661111	0.386889
	C153	C	0.110121	0.663408	0.623018
	C154	C	0.880122	0.308859	0.623612
	C155	C	0.110714	0.309785	0.383484
	C156	C	0.879486	0.367200	0.679984
	C157	C	0.110441	0.605203	0.679786
	C158	C	0.879207	0.603785	0.329244
	C159	C	0.110537	0.366952	0.326186
	C160	C	0.376866	0.662801	0.888839
	C161	C	0.613895	0.663638	0.119007
	C162	C	0.614299	0.310435	0.888637
	C163	C	0.373807	0.309434	0.118275
	C164	C	0.671075	0.870572	0.384002
	C165	C	0.670592	0.100307	0.622276
	C166	C	0.316683	0.870302	0.623873
	C167	C	0.319311	0.100331	0.386126
	C168	C	0.874017	0.370720	0.181416
	C169	C	0.112529	0.601145	0.179706
	C170	C	0.114318	0.370979	0.825823
	C171	C	0.876670	0.601246	0.828577
	C172	C	0.171403	0.866315	0.388751
	C173	C	0.170241	0.104704	0.618843
	C174	C	0.819662	0.103902	0.388351
	C175	C	0.817388	0.867032	0.619318
	C176	C	0.379351	0.162758	0.886237
	C177	C	0.610312	0.163652	0.122452
	C178	C	0.380058	0.808922	0.124066
	C179	C	0.609869	0.809784	0.883534
	C180	C	0.379646	0.866805	0.180800
	C181	C	0.610654	0.105129	0.179667
	C182	C	0.379274	0.105079	0.829224
	C183	C	0.609670	0.867086	0.826413
	C184	C	0.877457	0.161712	0.388474
	C185	C	0.113964	0.162796	0.618793
	C186	C	0.114323	0.808723	0.388996
	C187	C	0.874740	0.809822	0.619142
	C188	C	0.171771	0.371033	0.883699
	C189	C	0.170410	0.600951	0.122357
	C190	C	0.816712	0.370847	0.123286
	C191	C	0.820372	0.602006	0.887441
	C192	C	0.394070	0.079617	0.604991
	C193	C	0.593072	0.890480	0.603861
	C194	C	0.594721	0.080325	0.403935
	C195	C	0.395208	0.890526	0.404403
	C196	C	0.593146	0.387037	0.099067
	C197	C	0.595713	0.586402	0.908992
	C198	C	0.394642	0.586509	0.098817
	C199	C	0.395616	0.387146	0.908736
	C200	C	0.090129	0.585803	0.403978
	C201	C	0.899726	0.585820	0.604736
	C202	C	0.090596	0.386650	0.602549
	C203	C	0.900298	0.385756	0.405689
	C204	C	0.894211	0.580296	0.105538
	C205	C	0.093457	0.391269	0.102706
	C206	C	0.095174	0.580463	0.903434
	C207	C	0.894978	0.391501	0.904347
	C208	C	0.092808	0.887139	0.598690
	C209	C	0.095650	0.086136	0.408426
	C210	C	0.894576	0.085327	0.598571
	C211	C	0.894844	0.885006	0.408728
	C212	C	0.590001	0.086799	0.903593
	C213	C	0.399996	0.085821	0.104128
	C214	C	0.589842	0.887428	0.102268
	C215	C	0.399732	0.886153	0.906150
	Zn216	Zn	0.494075	-0.014059	0.755340
	Zn217	Zn	0.494830	-0.014447	0.253916
	Zn218	Zn	0.744266	0.486718	0.004195
	Zn219	Zn	0.244910	0.486164	0.003680
	Zn220	Zn	-0.005170	0.735827	0.504035
	Zn221	Zn	-0.004326	0.236221	0.503908
	Zn222	Zn	-0.005427	0.485633	0.753277
	Zn223	Zn	-0.005456	0.485599	0.254421
	Zn224	Zn	0.495245	0.736247	0.004096
	Zn225	Zn	0.494406	0.236965	0.003659
	Zn226	Zn	0.744249	-0.015141	0.503635
	Zn227	Zn	0.243899	-0.014720	0.503839
	N228	N	0.407372	0.948218	0.684366
	N229	N	0.578616	0.022936	0.681600
	N230	N	0.581376	0.948833	0.324399
	N231	N	0.408820	0.022279	0.325634
	N232	N	0.672213	0.401571	0.966887
	N233	N	0.671925	0.571654	0.041694
	N234	N	0.317131	0.572135	0.966803
	N235	N	0.316652	0.401651	0.041297
	N236	N	0.957309	0.663228	0.419598
	N237	N	0.031937	0.665258	0.590296
	N238	N	0.958415	0.307265	0.590173
	N239	N	0.032791	0.307853	0.417756
	N240	N	0.957390	0.401127	0.680837
	N241	N	0.032392	0.571510	0.681957
	N242	N	0.957407	0.570987	0.326649
	N243	N	0.032408	0.400148	0.325594
	N244	N	0.409606	0.664874	0.966623
	N245	N	0.581369	0.665483	0.040866
	N246	N	0.580465	0.308564	0.966467
	N247	N	0.407441	0.307639	0.040177
	N248	N	0.672562	0.948104	0.417794
	N249	N	0.672304	0.022314	0.589486
	N250	N	0.315118	0.947890	0.590394
	N251	N	0.317461	0.022691	0.419533
	N252	N	0.907498	0.448345	0.183901
	N253	N	0.078956	0.523404	0.181349
	N254	N	0.080700	0.448565	0.824539
	N255	N	0.908912	0.522992	0.825707
	N256	N	0.172085	0.900265	0.466413
	N257	N	0.172446	0.071278	0.540836
	N258	N	0.816807	0.070794	0.466308
	N259	N	0.815920	0.899776	0.541149
	N260	N	0.457473	0.164523	0.918731
	N261	N	0.531956	0.165756	0.089943
	N262	N	0.458046	0.807850	0.090045
	N263	N	0.532047	0.807983	0.918124
	N264	N	0.457372	0.900963	0.181363
	N265	N	0.532730	0.071322	0.181834
	N266	N	0.457281	0.071822	0.826979
	N267	N	0.531714	0.900526	0.826202
	N268	N	0.909908	0.163876	0.466641
	N269	N	0.081379	0.164767	0.540689
	N270	N	0.080393	0.807646	0.467037
	N271	N	0.908372	0.807552	0.540993
	N272	N	0.173498	0.448554	0.917499
	N273	N	0.172076	0.523180	0.089035
	N274	N	0.814609	0.448849	0.090718
	N275	N	0.818393	0.524303	0.920626
	O276	O	1.033215	0.990475	0.069528
	H277	H	1.033161	0.987622	0.066996
	H278	H	1.038701	0.989026	0.063216
	O279	O	0.002473	-0.052570	0.013220
	H280	H	0.005404	-0.048304	0.013256
	H281	H	0.004761	-0.054578	0.014775
	O282	O	0.037078	-0.033642	1.016055
	H283	H	0.033688	-0.039953	1.010160
	H284	H	0.039776	-0.034729	1.023691
	O285	O	1.541276	1.429333	0.483573
	H286	H	1.535351	1.435927	0.479522
	H287	H	1.548095	1.414385	0.489236
	O288	O	0.026787	1.000197	-0.052375
	H289	H	0.027663	1.004431	-0.048477
	H290	H	0.026982	0.995292	-0.048427
	O291	O	0.519948	0.434515	0.451525
	H292	H	0.512941	0.434364	0.451708
	H293	H	0.520889	0.432848	0.440500
	O294	O	-0.021479	-0.009560	-0.045102
	H295	H	-0.024022	-0.012565	-0.048207
	H296	H	-0.033270	-0.014433	-0.043631
	O297	O	-0.010772	0.989472	1.047824
	H298	H	-0.010600	0.996627	1.054595
	H299	H	-0.006415	0.978846	1.047319
	O300	O	-0.006169	0.977909	1.027091
	H301	H	-0.004940	0.983599	1.016945
	H302	H	-0.002060	0.979789	1.037265
	O303	O	0.563929	0.372700	0.458854
	H304	H	0.568247	0.368464	0.461449
	H305	H	0.562859	0.367169	0.462012
	O306	O	0.073924	-0.055354	1.020697
	H307	H	0.081048	-0.062102	1.028955
	H308	H	0.076403	-0.057257	1.014170
	O309	O	1.026970	0.977992	0.997779
	H310	H	1.024886	0.971102	0.997252
	H311	H	1.027154	0.982079	0.996959
	O312	O	0.587133	0.453332	0.466159
	H313	H	0.581632	0.447843	0.463635
	H314	H	0.583835	0.452943	0.459311
	O315	O	0.556202	0.410459	0.465534
	H316	H	0.556881	0.414475	0.466342
	H317	H	0.564813	0.411353	0.470293
	O318	O	0.522938	1.417868	-0.543465
	H319	H	0.527494	1.416741	-0.546196
	H320	H	0.527360	1.420689	-0.541180
	O321	O	1.019787	0.968183	-0.032816
	H322	H	1.013654	0.980054	-0.040825
	H323	H	1.019692	0.965274	-0.034407
