data_Molecule from HDF5

_cell_length_a		16.380712
_cell_length_b		16.418101
_cell_length_c		16.516254
_cell_angle_alpha	90.108752
_cell_angle_beta	89.923865
_cell_angle_gamma	90.004830
_symmetry_space_group_name_H-M	'P 1'
_symmetry_Int_Tables_number		1

loop_
	_symmetry_equiv_pos_as_xyz
	x,y,z

loop_
	_atom_site_label
	_atom_site_type_symbol
	_atom_site_fract_x
	_atom_site_fract_y
	_atom_site_fract_z
	H0	H	0.391845	0.856005	0.735410
	H1	H	0.607316	0.169568	0.731697
	H2	H	0.609345	0.854602	0.286564
	H3	H	0.393750	0.168747	0.288666
	H4	H	0.723591	0.404206	0.854235
	H5	H	0.723743	0.619610	0.167254
	H6	H	0.275894	0.617465	0.855489
	H7	H	0.275707	0.402194	0.167888
	H8	H	0.841564	0.730375	0.410142
	H9	H	0.158807	0.734427	0.619704
	H10	H	0.842870	0.289566	0.617188
	H11	H	0.159556	0.288461	0.405055
	H12	H	0.844019	0.402185	0.736617
	H13	H	0.157635	0.619775	0.736931
	H14	H	0.843085	0.618334	0.290938
	H15	H	0.157144	0.401581	0.286618
	H16	H	0.392051	0.734255	0.854250
	H17	H	0.609440	0.737478	0.165068
	H18	H	0.604506	0.291081	0.852268
	H19	H	0.392297	0.286633	0.167425
	H20	H	0.721034	0.852471	0.406048
	H21	H	0.720481	0.169901	0.612936
	H22	H	0.280007	0.853169	0.615878
	H23	H	0.280303	0.169852	0.407225
	H24	H	0.893664	0.352662	0.234525
	H25	H	0.105897	0.669663	0.233582
	H26	H	0.112106	0.355093	0.784421
	H27	H	0.895386	0.669920	0.791517
	H28	H	0.223149	0.904592	0.353136
	H29	H	0.223465	0.115767	0.669414
	H30	H	0.782702	0.113672	0.351807
	H31	H	0.780364	0.908823	0.670047
	H32	H	0.340984	0.230874	0.906841
	H33	H	0.660364	0.231420	0.112240
	H34	H	0.343122	0.789951	0.115203
	H35	H	0.659611	0.788727	0.903307
	H36	H	0.344058	0.904137	0.233660
	H37	H	0.659300	0.118866	0.231863
	H38	H	0.342147	0.116649	0.789751
	H39	H	0.660385	0.907277	0.789486
	H40	H	0.897401	0.231958	0.353556
	H41	H	0.108375	0.234161	0.669058
	H42	H	0.106524	0.788256	0.353693
	H43	H	0.898407	0.793549	0.671570
	H44	H	0.224505	0.352901	0.903722
	H45	H	0.220428	0.669931	0.116285
	H46	H	0.780458	0.351495	0.115483
	H47	H	0.780691	0.670355	0.908970
	H48	H	0.411750	0.124007	0.596700
	H49	H	0.588697	0.899048	0.594281
	H50	H	0.588977	0.124556	0.421042
	H51	H	0.415556	0.899836	0.424299
	H52	H	0.590269	0.420447	0.123940
	H53	H	0.586147	0.592132	0.901226
	H54	H	0.407312	0.597435	0.123972
	H55	H	0.415906	0.423697	0.900884
	H56	H	0.114418	0.598159	0.422200
	H57	H	0.885517	0.605944	0.603051
	H58	H	0.109194	0.430075	0.595516
	H59	H	0.886483	0.421432	0.421407
	H60	H	0.115797	0.425893	0.605277
	H61	H	0.889630	0.598420	0.596666
	H62	H	0.115340	0.600394	0.422204
	H63	H	0.889079	0.421500	0.427278
	H64	H	0.416966	0.595938	0.120232
	H65	H	0.585358	0.605793	0.897273
	H66	H	0.589694	0.423309	0.122877
	H67	H	0.411299	0.416962	0.897593
	H68	H	0.592145	0.125743	0.421614
	H69	H	0.596704	0.894465	0.602594
	H70	H	0.412440	0.125743	0.602740
	H71	H	0.410294	0.896976	0.421407
	H72	H	0.909373	0.625908	0.105181
	H73	H	0.088597	0.399730	0.093995
	H74	H	0.085647	0.621698	0.923636
	H75	H	0.905661	0.397664	0.928699
	H76	H	0.091774	0.924553	0.623019
	H77	H	0.092513	0.100453	0.398756
	H78	H	0.916973	0.104183	0.623183
	H79	H	0.902477	0.926129	0.397219
	H80	H	0.615872	0.100994	0.915626
	H81	H	0.391330	0.092893	0.093509
	H82	H	0.612321	0.928490	0.094913
	H83	H	0.389049	0.925136	0.924481
	H84	H	0.615816	0.925152	0.102237
	H85	H	0.385586	0.096143	0.107981
	H86	H	0.615348	0.105175	0.923188
	H87	H	0.388784	0.925488	0.920368
	H88	H	0.904218	0.102406	0.627080
	H89	H	0.089708	0.096530	0.400924
	H90	H	0.088114	0.921949	0.622742
	H91	H	0.921389	0.923694	0.402960
	H92	H	0.087261	0.620530	0.926348
	H93	H	0.091508	0.395804	0.104475
	H94	H	0.915026	0.623600	0.103631
	H95	H	0.912241	0.394948	0.914170
	H96	H	0.416954	0.123076	0.599407
	H97	H	0.585052	0.897945	0.606360
	H98	H	0.591148	0.125559	0.418440
	H99	H	0.416200	0.898009	0.417974
	H100	H	0.587997	0.421456	0.122891
	H101	H	0.597781	0.599128	0.896529
	H102	H	0.414030	0.605786	0.123445
	H103	H	0.407087	0.424879	0.899273
	H104	H	0.114948	0.599393	0.424319
	H105	H	0.887552	0.596813	0.606984
	H106	H	0.114225	0.419037	0.595345
	H107	H	0.889684	0.426509	0.424003
	H108	H	0.910456	0.622967	0.099461
	H109	H	0.081445	0.400128	0.102444
	H110	H	0.088574	0.623008	0.924241
	H111	H	0.920932	0.402173	0.925894
	H112	H	0.092173	0.920528	0.625144
	H113	H	0.087088	0.101353	0.399814
	H114	H	0.911053	0.092638	0.620566
	H115	H	0.911247	0.908700	0.395244
	H116	H	0.612709	0.096930	0.922098
	H117	H	0.385265	0.107408	0.096479
	H118	H	0.614650	0.920471	0.095017
	H119	H	0.388252	0.921644	0.922451
	C120	C	0.380802	0.020021	0.631876
	C121	C	0.622049	1.002229	0.631824
	C122	C	0.623273	0.020485	0.387976
	C123	C	0.380220	1.002634	0.389175
	C124	C	0.621853	0.389544	0.019151
	C125	C	0.622556	0.632560	1.001905
	C126	C	0.378709	0.633075	0.019579
	C127	C	0.378383	0.388852	1.002888
	C128	C	0.009512	0.631707	0.391473
	C129	C	0.992092	0.633049	0.634547
	C130	C	0.009478	0.390521	0.632812
	C131	C	0.992286	0.389746	0.390674
	C132	C	0.878512	0.519419	0.134450
	C133	C	0.121174	0.502472	0.133455
	C134	C	0.121855	0.518576	0.890016
	C135	C	0.880474	0.503326	0.891359
	C136	C	0.123306	0.889007	0.519653
	C137	C	0.122848	0.132376	0.503716
	C138	C	0.879717	0.131901	0.519259
	C139	C	0.879475	0.888802	0.503288
	C140	C	0.509627	0.133006	0.888703
	C141	C	0.492251	0.132198	0.131234
	C142	C	0.510152	0.890852	0.130772
	C143	C	0.492893	0.890342	0.888900
	C144	C	0.375802	0.902229	0.693687
	C145	C	0.624903	0.121971	0.691267
	C146	C	0.626370	0.901690	0.327399
	C147	C	0.376617	0.121602	0.329301
	C148	C	0.682602	0.386833	0.900916
	C149	C	0.683572	0.636789	0.119858
	C150	C	0.316547	0.635945	0.902388
	C151	C	0.316781	0.385076	0.120788
	C152	C	0.889492	0.691085	0.391101
	C153	C	0.111327	0.693893	0.637597
	C154	C	0.890561	0.328976	0.635935
	C155	C	0.111814	0.328951	0.387241
	C156	C	0.891151	0.385459	0.695045
	C157	C	0.110659	0.636953	0.696152
	C158	C	0.890071	0.635114	0.331744
	C159	C	0.110740	0.385420	0.328259
	C160	C	0.374656	0.694072	0.901715
	C161	C	0.626719	0.695713	0.118810
	C162	C	0.623592	0.330165	0.900001
	C163	C	0.374825	0.327307	0.120539
	C164	C	0.682186	0.900659	0.386874
	C165	C	0.681043	0.122295	0.632169
	C166	C	0.319965	0.901000	0.634221
	C167	C	0.319796	0.121897	0.388070
	C168	C	0.875517	0.400179	0.194438
	C169	C	0.124201	0.621735	0.193721
	C170	C	0.127922	0.401390	0.826552
	C171	C	0.877538	0.622301	0.831472
	C172	C	0.183492	0.886040	0.400953
	C173	C	0.183273	0.134246	0.622141
	C174	C	0.821744	0.132876	0.399716
	C175	C	0.820226	0.889373	0.622597
	C176	C	0.389094	0.191516	0.887861
	C177	C	0.612208	0.192239	0.132302
	C178	C	0.390774	0.829877	0.133755
	C179	C	0.612019	0.829192	0.885452
	C180	C	0.391247	0.886896	0.192366
	C181	C	0.611768	0.135912	0.191421
	C182	C	0.389726	0.134962	0.829350
	C183	C	0.612435	0.888187	0.828845
	C184	C	0.878577	0.191974	0.400839
	C185	C	0.126134	0.193131	0.622051
	C186	C	0.125260	0.828083	0.401163
	C187	C	0.879174	0.832258	0.623647
	C188	C	0.184036	0.400461	0.885887
	C189	C	0.181186	0.621992	0.135292
	C190	C	0.819415	0.399468	0.134907
	C191	C	0.820554	0.622729	0.890081
	C192	C	0.406396	0.102843	0.606687
	C193	C	0.597322	0.918808	0.607917
	C194	C	0.598070	0.103721	0.413158
	C195	C	0.406513	0.919820	0.414047
	C196	C	0.596615	0.414585	0.101687
	C197	C	0.596861	0.606209	0.919756
	C198	C	0.405109	0.607232	0.101432
	C199	C	0.404242	0.414513	0.920718
	C200	C	0.092847	0.606455	0.415830
	C201	C	0.909295	0.607612	0.609433
	C202	C	0.091735	0.417287	0.606226
	C203	C	0.909889	0.415722	0.416835
	C204	C	0.904200	0.602479	0.110065
	C205	C	0.094860	0.420189	0.107655
	C206	C	0.094835	0.600413	0.917093
	C207	C	0.905642	0.420012	0.916053
	C208	C	0.097967	0.914851	0.602062
	C209	C	0.097074	0.106818	0.421510
	C210	C	0.903907	0.106937	0.602052
	C211	C	0.904458	0.912518	0.420391
	C212	C	0.593062	0.108238	0.913124
	C213	C	0.409217	0.106370	0.106345
	C214	C	0.592509	0.917240	0.104748
	C215	C	0.410231	0.916410	0.915028
	Zn216	Zn	0.501377	0.012376	0.760668
	Zn217	Zn	0.501408	0.011576	0.260309
	Zn218	Zn	0.751009	0.510550	0.011180
	Zn219	Zn	0.249830	0.510505	0.011823
	Zn220	Zn	0.001301	0.760173	0.512386
	Zn221	Zn	0.001354	0.261575	0.511574
	Zn222	Zn	0.000531	0.510711	0.761829
	Zn223	Zn	0.000145	0.511004	0.262571
	Zn224	Zn	0.501398	0.761680	0.009818
	Zn225	Zn	0.500154	0.260516	0.010064
	Zn226	Zn	0.750096	0.010894	0.510587
	Zn227	Zn	0.252261	0.011256	0.510559
	N228	N	0.412795	0.977215	0.692359
	N229	N	0.588749	0.046392	0.691029
	N230	N	0.590468	0.977333	0.328086
	N231	N	0.413269	0.046304	0.329687
	N232	N	0.681801	0.422949	0.976067
	N233	N	0.680940	0.598019	0.046080
	N234	N	0.318907	0.598648	0.976770
	N235	N	0.318898	0.422704	0.046749
	N236	N	0.964732	0.689077	0.427624
	N237	N	0.036779	0.691660	0.600185
	N238	N	0.965317	0.331822	0.598130
	N239	N	0.037528	0.331843	0.425608
	N240	N	0.965897	0.423143	0.693133
	N241	N	0.035647	0.599496	0.694212
	N242	N	0.965696	0.598953	0.331787
	N243	N	0.035681	0.422878	0.330408
	N244	N	0.412598	0.692353	0.975714
	N245	N	0.589392	0.693059	0.044559
	N246	N	0.586503	0.331679	0.974552
	N247	N	0.412648	0.329779	0.046157
	N248	N	0.680515	0.975657	0.423690
	N249	N	0.679406	0.046932	0.595875
	N250	N	0.322942	0.975282	0.596363
	N251	N	0.321844	0.046739	0.424438
	N252	N	0.911265	0.475815	0.194288
	N253	N	0.087559	0.546506	0.192809
	N254	N	0.090013	0.475916	0.829167
	N255	N	0.914015	0.546980	0.832194
	N256	N	0.182888	0.922576	0.475848
	N257	N	0.181353	0.097240	0.547489
	N258	N	0.822403	0.096164	0.474318
	N259	N	0.820216	0.923738	0.546828
	N260	N	0.464607	0.190472	0.924001
	N261	N	0.536902	0.190212	0.095855
	N262	N	0.465600	0.832269	0.096138
	N263	N	0.536541	0.830492	0.921972
	N264	N	0.466522	0.923758	0.190930
	N265	N	0.536073	0.099572	0.191190
	N266	N	0.465638	0.099336	0.829751
	N267	N	0.537309	0.925394	0.830794
	N268	N	0.914200	0.191337	0.476268
	N269	N	0.089345	0.192097	0.547470
	N270	N	0.088740	0.829659	0.476145
	N271	N	0.915097	0.831498	0.548407
	N272	N	0.180330	0.474368	0.924733
	N273	N	0.179647	0.546748	0.098606
	N274	N	0.820757	0.474671	0.098574
	N275	N	0.822356	0.547587	0.926514
	O276	O	-0.101332	0.012140	0.053939
	H277	H	-0.103153	0.003775	0.042275
	H278	H	-0.109123	0.020148	0.067019
	O279	O	0.807476	-0.060661	1.185739
	H280	H	0.801726	-0.069858	1.173009
	H281	H	0.792694	-0.051960	1.202243
	O282	O	0.400408	0.685710	0.591864
	H283	H	0.403638	0.673326	0.574448
	H284	H	0.409676	0.694285	0.600964
	O285	O	0.391357	0.410784	0.707548
	H286	H	0.384786	0.440620	0.716919
	H287	H	0.406674	0.405526	0.712494
	O288	O	1.113116	0.998986	-0.132843
	H289	H	1.109090	0.965579	-0.124348
	H290	H	1.128514	0.990954	-0.152347
	O291	O	0.408595	0.443977	0.582419
	H292	H	0.398995	0.439638	0.553195
	H293	H	0.395921	0.457104	0.590535
	O294	O	0.013863	0.036550	1.065980
	H295	H	0.010731	0.039554	1.070024
	H296	H	0.035860	0.040370	1.066856
	O297	O	0.510812	0.516737	0.287380
	H298	H	0.505117	0.490708	0.281852
	H299	H	0.505973	0.531244	0.286567
	O300	O	0.678168	0.504807	0.535649
	H301	H	0.676288	0.518199	0.540926
	H302	H	0.657343	0.510021	0.544084
	O303	O	0.425536	0.365200	0.426675
	H304	H	0.422179	0.353244	0.433420
	H305	H	0.434430	0.377407	0.437217
	O306	O	0.646771	0.746454	0.368975
	H307	H	0.640041	0.739003	0.359246
	H308	H	0.638200	0.735405	0.374346
	O309	O	0.320302	0.697714	0.323595
	H310	H	0.314204	0.661767	0.308925
	H311	H	0.319815	0.705305	0.339748
	O312	O	0.137364	0.809579	0.816571
	H313	H	0.154372	0.804876	0.848501
	H314	H	0.135494	0.786835	0.795552
	O315	O	0.718472	0.482806	0.291161
	H316	H	0.725292	0.486740	0.287186
	H317	H	0.730656	0.491298	0.275426
	O318	O	1.150801	-0.038595	0.047562
	H319	H	1.141086	-0.022500	0.054301
	H320	H	1.149868	-0.012645	0.071760
	O321	O	-0.053525	0.085647	0.040942
	H322	H	-0.053792	0.095866	0.057990
	H323	H	-0.068149	0.087827	0.029560
	O324	O	0.554319	0.483126	0.386309
	H325	H	0.565345	0.499685	0.395905
	H326	H	0.548590	0.465775	0.383091
	O327	O	0.692012	0.349107	0.522420
	H328	H	0.692786	0.363225	0.532499
	H329	H	0.690831	0.352442	0.529836
	O330	O	0.342576	1.582356	-0.270942
	H331	H	0.333984	1.573229	-0.281489
	H332	H	0.342915	1.578503	-0.284993
	O333	O	0.552540	0.526579	0.447988
	H334	H	0.521483	0.515642	0.444523
	H335	H	0.555036	0.508829	0.461944
	O336	O	-0.184298	0.023482	-0.074820
	H337	H	-0.165269	0.010917	-0.064160
	H338	H	-0.198737	0.008517	-0.082574
	O339	O	-0.000345	0.789106	0.995624
	H340	H	0.002038	0.795954	0.981158
	H341	H	-0.009935	0.781867	0.982530
	O342	O	0.074063	1.023640	1.223656
	H343	H	0.064555	1.030517	1.224875
	H344	H	0.067471	1.034504	1.230174
	O345	O	0.508157	0.716835	-0.284687
	H346	H	0.510721	0.745052	-0.266140
	H347	H	0.506175	0.700781	-0.288833
	O348	O	0.644183	0.535617	0.444622
	H349	H	0.655234	0.522040	0.450421
	H350	H	0.633656	0.515638	0.447157
	O351	O	-0.185646	0.817425	0.977822
	H352	H	-0.180121	0.813826	0.997401
	H353	H	-0.183980	0.808224	0.984982
	O354	O	0.030832	1.142661	0.005913
	H355	H	0.041728	1.122223	-0.013691
	H356	H	0.011288	1.139071	0.007108
	O357	O	0.046113	0.120070	0.900444
	H358	H	0.039607	0.121166	0.903514
	H359	H	0.055238	0.133186	0.879575
	O360	O	0.455543	0.414915	0.713921
	H361	H	0.437865	0.434617	0.712387
	H362	H	0.449580	0.412634	0.722703
	O363	O	-0.017388	0.219855	0.806186
	H364	H	-0.039868	0.229243	0.784648
	H365	H	-0.036111	0.211634	0.801867
	O366	O	0.156394	0.119926	1.036170
	H367	H	0.135014	0.120518	1.010299
	H368	H	0.173378	0.128170	1.049045
	O369	O	0.487854	0.358012	0.565765
	H370	H	0.507226	0.357131	0.571561
	H371	H	0.490239	0.352261	0.565426
	O372	O	1.103385	0.048825	0.866151
	H373	H	1.107646	0.048647	0.861302
	H374	H	1.116110	0.055175	0.877664
	O375	O	0.671396	0.682880	0.660562
	H376	H	0.681474	0.697152	0.618275
	H377	H	0.634498	0.675169	0.654564
	O378	O	0.391308	0.417001	0.515068
	H379	H	0.397102	0.420836	0.514617
	H380	H	0.387496	0.415415	0.513127
	O381	O	0.848891	0.072055	0.099903
	H382	H	0.844719	0.065207	0.083715
	H383	H	0.861659	0.092650	0.086213
	O384	O	0.300293	0.303358	0.547586
	H385	H	0.304150	0.301082	0.547129
	H386	H	0.277119	0.304285	0.555849
	O387	O	0.291918	-0.460120	0.299734
	H388	H	0.277725	-0.471587	0.276958
	H389	H	0.292534	-0.481802	0.298717
	O390	O	0.202885	0.103226	0.207133
	H391	H	0.221855	0.115920	0.190600
	H392	H	0.169454	0.126659	0.212341
	O393	O	0.818821	1.197456	0.825720
	H394	H	0.805239	1.192981	0.817765
	H395	H	0.810513	1.176516	0.835986
	O396	O	1.233496	0.294401	0.292936
	H397	H	1.244640	0.291299	0.263623
	H398	H	1.202631	0.283611	0.296041
	O399	O	0.858866	-0.053424	0.843878
	H400	H	0.880571	-0.065055	0.834008
	H401	H	0.852296	-0.056188	0.869353
	O402	O	1.715125	0.561446	0.719710
	H403	H	1.707519	0.601290	0.711519
	H404	H	1.736307	0.573065	0.737912
	O405	O	0.989293	0.865422	-0.189382
	H406	H	0.996883	0.872993	-0.190641
	H407	H	1.002061	0.860014	-0.212852
	O408	O	1.127537	-0.192806	0.041505
	H409	H	1.139959	-0.211992	0.025763
	H410	H	1.112914	-0.169614	0.049922
	O411	O	1.024204	1.190627	0.211203
	H412	H	1.007878	1.180216	0.207624
	H413	H	1.007810	1.204206	0.196037
	O414	O	0.448632	0.509749	0.625922
	H415	H	0.437981	0.509404	0.625069
	H416	H	0.444113	0.506494	0.614865
	O417	O	0.480368	0.723093	0.295964
	H418	H	0.457806	0.696237	0.300277
	H419	H	0.475491	0.750682	0.262403
	O420	O	0.475262	0.449542	0.612855
	H421	H	0.477362	0.451939	0.609308
	H422	H	0.476829	0.441203	0.625155
	O423	O	0.526264	0.302677	0.292927
	H424	H	0.551476	0.296726	0.306850
	H425	H	0.537900	0.276070	0.272079
	O426	O	0.687187	0.323706	0.333281
	H427	H	0.697014	0.352085	0.343278
	H428	H	0.679258	0.329386	0.355904
	O429	O	0.680867	0.720562	0.524491
	H430	H	0.673898	0.707635	0.504661
	H431	H	0.686915	0.746069	0.511181
	O432	O	0.599612	0.432747	0.608178
	H433	H	0.587679	0.439557	0.599553
	H434	H	0.600810	0.440282	0.590408
	O435	O	0.192761	0.859947	-0.043916
	H436	H	0.196586	0.865601	-0.022691
	H437	H	0.197813	0.864849	-0.032298
	O438	O	0.037952	-0.161097	0.197854
	H439	H	0.035658	-0.166689	0.202282
	H440	H	0.049091	-0.154340	0.196798
	O441	O	0.825020	0.146318	0.034155
	H442	H	0.825130	0.153060	0.011867
	H443	H	0.823700	0.132092	0.029157
	O444	O	-0.124353	0.833367	1.184705
	H445	H	-0.126448	0.847614	1.192164
	H446	H	-0.103827	0.828826	1.185686
	O447	O	0.280825	0.728739	0.486177
	H448	H	0.306848	0.727122	0.473935
	H449	H	0.245792	0.765649	0.483897
	O450	O	0.368332	0.539420	0.585635
	H451	H	0.374012	0.534077	0.578656
	H452	H	0.361985	0.548897	0.573131
	O453	O	0.108620	0.221824	0.987647
	H454	H	0.106908	0.225881	0.963512
	H455	H	0.099954	0.207781	0.973718
