data_Molecule from HDF5

_cell_length_a		16.373923
_cell_length_b		16.302924
_cell_length_c		16.475826
_cell_angle_alpha	89.905541
_cell_angle_beta	89.921107
_cell_angle_gamma	90.220669
_symmetry_space_group_name_H-M	'P 1'
_symmetry_Int_Tables_number		1

loop_
	_symmetry_equiv_pos_as_xyz
	x,y,z

loop_
	_atom_site_label
	_atom_site_type_symbol
	_atom_site_fract_x
	_atom_site_fract_y
	_atom_site_fract_z
	H0	H	0.386335	0.841756	0.714072
	H1	H	0.601505	0.159475	0.715786
	H2	H	0.599586	0.843232	0.271771
	H3	H	0.384346	0.158881	0.267148
	H4	H	0.716166	0.397987	0.835891
	H5	H	0.714474	0.604439	0.153303
	H6	H	0.270080	0.611178	0.838704
	H7	H	0.272698	0.393157	0.152691
	H8	H	0.834410	0.717388	0.393277
	H9	H	0.152981	0.725891	0.600863
	H10	H	0.835960	0.281750	0.598436
	H11	H	0.155377	0.282361	0.390235
	H12	H	0.838253	0.393269	0.718509
	H13	H	0.152245	0.612871	0.719066
	H14	H	0.837022	0.607129	0.273008
	H15	H	0.153206	0.393862	0.271543
	H16	H	0.390611	0.722776	0.836096
	H17	H	0.599869	0.722688	0.152443
	H18	H	0.597657	0.282445	0.834037
	H19	H	0.389819	0.277989	0.152175
	H20	H	0.714774	0.843374	0.387618
	H21	H	0.715167	0.161220	0.597993
	H22	H	0.271079	0.843521	0.599094
	H23	H	0.272678	0.161339	0.385756
	H24	H	0.889828	0.341343	0.216585
	H25	H	0.100217	0.661946	0.213457
	H26	H	0.105152	0.343428	0.771628
	H27	H	0.892350	0.661343	0.775222
	H28	H	0.215910	0.897071	0.335804
	H29	H	0.217196	0.108995	0.651169
	H30	H	0.774242	0.109084	0.334853
	H31	H	0.772274	0.898029	0.651530
	H32	H	0.334144	0.220468	0.889634
	H33	H	0.653782	0.221193	0.097569
	H34	H	0.334222	0.781808	0.096195
	H35	H	0.655779	0.785368	0.891715
	H36	H	0.335789	0.892869	0.215796
	H37	H	0.651432	0.109757	0.216481
	H38	H	0.334649	0.105973	0.773356
	H39	H	0.652252	0.895401	0.771016
	H40	H	0.892203	0.224119	0.335469
	H41	H	0.099244	0.222125	0.653211
	H42	H	0.098943	0.781821	0.335323
	H43	H	0.888427	0.781677	0.652707
	H44	H	0.217459	0.342626	0.889125
	H45	H	0.215053	0.662207	0.097395
	H46	H	0.773891	0.340922	0.101533
	H47	H	0.778860	0.662508	0.892450
	H48	H	0.408501	0.114220	0.579290
	H49	H	0.581876	0.888578	0.578593
	H50	H	0.585738	0.118806	0.399986
	H51	H	0.412829	0.890314	0.403298
	H52	H	0.582340	0.405538	0.109158
	H53	H	0.582900	0.583348	0.884375
	H54	H	0.413830	0.596006	0.106762
	H55	H	0.407077	0.410799	0.882756
	H56	H	0.111065	0.593603	0.402644
	H57	H	0.882294	0.588149	0.586317
	H58	H	0.109765	0.414114	0.586729
	H59	H	0.882646	0.412243	0.408775
	H60	H	0.109233	0.412300	0.582513
	H61	H	0.880596	0.590943	0.587001
	H62	H	0.108046	0.592318	0.406280
	H63	H	0.884181	0.417654	0.408073
	H64	H	0.399206	0.590919	0.110809
	H65	H	0.581262	0.601320	0.879380
	H66	H	0.590777	0.412248	0.108535
	H67	H	0.404473	0.411776	0.881065
	H68	H	0.578445	0.116127	0.401525
	H69	H	0.584969	0.886239	0.581562
	H70	H	0.402752	0.117774	0.582671
	H71	H	0.404783	0.891954	0.412548
	H72	H	0.902806	0.615662	0.083725
	H73	H	0.088284	0.385785	0.083300
	H74	H	0.082955	0.614508	0.909200
	H75	H	0.910576	0.387220	0.905808
	H76	H	0.084242	0.913308	0.607555
	H77	H	0.082208	0.088040	0.381994
	H78	H	0.910213	0.096839	0.606801
	H79	H	0.900885	0.911855	0.379502
	H80	H	0.609046	0.090379	0.899605
	H81	H	0.377862	0.094648	0.083736
	H82	H	0.607386	0.910288	0.076792
	H83	H	0.377259	0.907634	0.898469
	H84	H	0.605955	0.921258	0.085501
	H85	H	0.382945	0.087840	0.072828
	H86	H	0.608321	0.092543	0.905282
	H87	H	0.381421	0.908921	0.908596
	H88	H	0.898141	0.092261	0.609378
	H89	H	0.080626	0.095207	0.380928
	H90	H	0.082708	0.917418	0.605229
	H91	H	0.905527	0.912105	0.381148
	H92	H	0.086224	0.615115	0.906244
	H93	H	0.081779	0.386199	0.089253
	H94	H	0.908618	0.615574	0.088326
	H95	H	0.904967	0.387761	0.909677
	H96	H	0.409526	0.115616	0.586778
	H97	H	0.580784	0.887688	0.583535
	H98	H	0.584067	0.115548	0.407114
	H99	H	0.401273	0.885411	0.401997
	H100	H	0.581453	0.414819	0.105463
	H101	H	0.597499	0.592466	0.877109
	H102	H	0.409450	0.580636	0.103182
	H103	H	0.406612	0.413963	0.882186
	H104	H	0.109449	0.588632	0.403468
	H105	H	0.881230	0.590310	0.583815
	H106	H	0.108090	0.417136	0.582798
	H107	H	0.881527	0.415116	0.403201
	H108	H	0.908996	0.613573	0.081579
	H109	H	0.080660	0.388868	0.081238
	H110	H	0.082119	0.615079	0.904840
	H111	H	0.904714	0.384813	0.903686
	H112	H	0.079465	0.913242	0.605955
	H113	H	0.087245	0.092140	0.379357
	H114	H	0.907316	0.083615	0.603783
	H115	H	0.904152	0.907925	0.378381
	H116	H	0.605763	0.086428	0.903862
	H117	H	0.381222	0.080900	0.085446
	H118	H	0.611270	0.909855	0.089855
	H119	H	0.380924	0.917613	0.902358
	C120	C	0.373062	0.010570	0.614830
	C121	C	0.615148	0.992682	0.613654
	C122	C	0.615353	0.011516	0.370824
	C123	C	0.373133	0.993860	0.372129
	C124	C	0.616658	0.379615	0.002559
	C125	C	0.617634	0.623912	0.985469
	C126	C	0.374690	0.622149	0.002773
	C127	C	0.373377	0.378934	0.986162
	C128	C	0.004330	0.623032	0.372817
	C129	C	0.986264	0.623482	0.617152
	C130	C	0.004407	0.380888	0.616772
	C131	C	0.987666	0.381718	0.374130
	C132	C	0.873758	0.509645	0.117105
	C133	C	0.116251	0.492578	0.116087
	C134	C	0.117418	0.510312	0.873471
	C135	C	0.875401	0.492761	0.874565
	C136	C	0.115301	0.881537	0.502056
	C137	C	0.116350	0.124200	0.485127
	C138	C	0.873455	0.124092	0.502022
	C139	C	0.871118	0.879545	0.484808
	C140	C	0.502552	0.122057	0.871108
	C141	C	0.485631	0.121214	0.113321
	C142	C	0.502926	0.880394	0.115343
	C143	C	0.485491	0.879562	0.871450
	C144	C	0.368929	0.890110	0.674483
	C145	C	0.618760	0.112170	0.674727
	C146	C	0.617874	0.891329	0.311314
	C147	C	0.368067	0.112237	0.308969
	C148	C	0.676454	0.378770	0.883155
	C149	C	0.675715	0.624228	0.105437
	C150	C	0.312243	0.626877	0.885030
	C151	C	0.313179	0.375718	0.105202
	C152	C	0.883062	0.679840	0.373100
	C153	C	0.105537	0.685307	0.619106
	C154	C	0.884464	0.320700	0.618039
	C155	C	0.107351	0.321792	0.371938
	C156	C	0.885510	0.376439	0.677660
	C157	C	0.105287	0.628834	0.677844
	C158	C	0.884483	0.624855	0.313222
	C159	C	0.106396	0.377538	0.312829
	C160	C	0.372047	0.683020	0.883889
	C161	C	0.618577	0.683030	0.104877
	C162	C	0.617247	0.321553	0.882383
	C163	C	0.371389	0.318159	0.104898
	C164	C	0.675229	0.891333	0.369052
	C165	C	0.674940	0.113411	0.615831
	C166	C	0.311040	0.891026	0.617370
	C167	C	0.312464	0.113312	0.368095
	C168	C	0.871702	0.389296	0.176768
	C169	C	0.118535	0.613703	0.174192
	C170	C	0.121534	0.391042	0.812370
	C171	C	0.873938	0.613321	0.815225
	C172	C	0.175831	0.878838	0.383130
	C173	C	0.177107	0.126914	0.604046
	C174	C	0.814285	0.126759	0.382671
	C175	C	0.811773	0.878947	0.604009
	C176	C	0.382305	0.181292	0.870561
	C177	C	0.605844	0.181443	0.115523
	C178	C	0.382514	0.820724	0.115738
	C179	C	0.606620	0.822637	0.871476
	C180	C	0.383230	0.875988	0.175344
	C181	C	0.604455	0.125996	0.175044
	C182	C	0.382628	0.124298	0.812424
	C183	C	0.604961	0.877553	0.811261
	C184	C	0.872175	0.184760	0.383050
	C185	C	0.118406	0.183325	0.605146
	C186	C	0.117280	0.821492	0.383056
	C187	C	0.869866	0.820998	0.604553
	C188	C	0.177773	0.390480	0.870955
	C189	C	0.175881	0.613856	0.116540
	C190	C	0.813864	0.389102	0.119310
	C191	C	0.817188	0.613981	0.873573
	C192	C	0.399228	0.094148	0.589982
	C193	C	0.589798	0.909227	0.588466
	C194	C	0.590059	0.094953	0.395628
	C195	C	0.399029	0.910779	0.398432
	C196	C	0.592134	0.403899	0.085778
	C197	C	0.594031	0.599493	0.901927
	C198	C	0.400298	0.596430	0.085457
	C199	C	0.398577	0.404816	0.903411
	C200	C	0.087841	0.598800	0.397144
	C201	C	0.903233	0.597306	0.592626
	C202	C	0.087618	0.406976	0.591316
	C203	C	0.904422	0.407705	0.399501
	C204	C	0.899399	0.593243	0.091833
	C205	C	0.091058	0.408791	0.091742
	C206	C	0.091221	0.593450	0.899214
	C207	C	0.899833	0.408544	0.899147
	C208	C	0.089669	0.907236	0.584753
	C209	C	0.090673	0.099097	0.402494
	C210	C	0.898103	0.098331	0.584997
	C211	C	0.896217	0.903698	0.401305
	C212	C	0.585989	0.096882	0.895726
	C213	C	0.402566	0.095349	0.088010
	C214	C	0.586484	0.906337	0.091030
	C215	C	0.401803	0.904215	0.896028
	Zn216	Zn	0.493882	0.001030	0.742635
	Zn217	Zn	0.493154	0.001730	0.243063
	Zn218	Zn	0.746444	0.501107	-0.004946
	Zn219	Zn	0.244873	0.501020	-0.004175
	Zn220	Zn	-0.005758	0.751353	0.494835
	Zn221	Zn	-0.004035	0.252783	0.494377
	Zn222	Zn	-0.004064	0.501909	0.745656
	Zn223	Zn	-0.004346	0.501103	0.244633
	Zn224	Zn	0.494774	0.752506	-0.005771
	Zn225	Zn	0.494626	0.249905	-0.007028
	Zn226	Zn	0.743518	0.002619	0.492649
	Zn227	Zn	0.245017	0.003096	0.492994
	N228	N	0.406814	0.965515	0.673103
	N229	N	0.582107	0.036238	0.673351
	N230	N	0.581311	0.967012	0.312314
	N231	N	0.405085	0.036910	0.311472
	N232	N	0.676455	0.413766	0.958974
	N233	N	0.675523	0.588305	0.030060
	N234	N	0.313946	0.589430	0.959878
	N235	N	0.314216	0.412848	0.030211
	N236	N	0.958589	0.679147	0.409473
	N237	N	0.030461	0.682331	0.582273
	N238	N	0.959525	0.323262	0.580914
	N239	N	0.032498	0.324456	0.409672
	N240	N	0.961288	0.412918	0.677179
	N241	N	0.030133	0.591032	0.676804
	N242	N	0.960886	0.590314	0.312829
	N243	N	0.031163	0.414426	0.314473
	N244	N	0.410389	0.679756	0.957933
	N245	N	0.583399	0.683175	0.029232
	N246	N	0.581005	0.321772	0.957606
	N247	N	0.408185	0.320178	0.029899
	N248	N	0.673967	0.967100	0.405271
	N249	N	0.672809	0.038180	0.578545
	N250	N	0.313363	0.966910	0.581129
	N251	N	0.315314	0.038633	0.406694
	N252	N	0.908115	0.465351	0.175528
	N253	N	0.082529	0.537441	0.174257
	N254	N	0.084719	0.466702	0.813884
	N255	N	0.908998	0.536859	0.815562
	N256	N	0.174798	0.915415	0.458175
	N257	N	0.176251	0.091193	0.528448
	N258	N	0.814720	0.089929	0.457828
	N259	N	0.812323	0.914312	0.528276
	N260	N	0.458069	0.180221	0.906425
	N261	N	0.530961	0.178680	0.077984
	N262	N	0.458061	0.823123	0.079459
	N263	N	0.531220	0.823531	0.907912
	N264	N	0.459249	0.912027	0.175627
	N265	N	0.528788	0.089194	0.173788
	N266	N	0.458429	0.088370	0.812728
	N267	N	0.528484	0.912052	0.810913
	N268	N	0.908150	0.183387	0.458355
	N269	N	0.081413	0.181975	0.530384
	N270	N	0.080678	0.822770	0.458176
	N271	N	0.905938	0.821151	0.529154
	N272	N	0.175656	0.465820	0.908016
	N273	N	0.174849	0.537437	0.081312
	N274	N	0.815101	0.464925	0.082661
	N275	N	0.817798	0.537813	0.909753
	O276	O	0.301550	0.170506	0.730043
	H277	H	0.306479	0.185636	0.740554
	H278	H	0.294556	0.187512	0.738258
	O279	O	0.578158	0.697060	0.400288
	H280	H	0.577701	0.685283	0.412108
	H281	H	0.557383	0.690068	0.395792
	O282	O	0.498127	0.359499	0.649215
	H283	H	0.514809	0.345897	0.647433
	H284	H	0.502168	0.348555	0.663995
	O285	O	0.834612	1.255183	-0.265066
	H286	H	0.835692	1.266246	-0.284038
	H287	H	0.812940	1.255626	-0.274559
	O288	O	0.577930	0.347822	0.689024
	H289	H	0.585583	0.346551	0.683462
	H290	H	0.579427	0.365080	0.679188
	O291	O	0.302717	0.493799	0.472029
	H292	H	0.299364	0.503912	0.453235
	H293	H	0.301315	0.469725	0.463294
	O294	O	1.029854	1.097049	0.893684
	H295	H	1.023023	1.107720	0.878452
	H296	H	1.035510	1.095521	0.896240
	O297	O	0.492080	0.398897	0.355854
	H298	H	0.492077	0.393133	0.359944
	H299	H	0.471044	0.403226	0.359097
	O300	O	0.806878	-0.009699	1.015615
	H301	H	0.823857	-0.006603	1.021937
	H302	H	0.809267	-0.009439	1.020476
	O303	O	0.612476	0.540201	0.330404
	H304	H	0.601462	0.514470	0.313506
	H305	H	0.592702	0.546019	0.349514
	O306	O	-0.205231	0.197853	0.927951
	H307	H	-0.194340	0.181590	0.898683
	H308	H	-0.233986	0.228141	0.936060
	O309	O	0.951923	-0.083848	0.182321
	H310	H	0.960418	-0.086126	0.177307
	H311	H	0.952378	-0.086671	0.186417
	O312	O	0.695771	0.483022	0.291367
	H313	H	0.687320	0.475582	0.275781
	H314	H	0.698879	0.458193	0.283343
	O315	O	0.295992	0.698808	0.511676
	H316	H	0.296260	0.681180	0.536493
	H317	H	0.278110	0.716367	0.510959
	O318	O	-0.175815	0.016892	-0.210317
	H319	H	-0.185884	0.024038	-0.213589
	H320	H	-0.187842	0.008385	-0.212219
	O321	O	0.696049	0.704993	0.618959
	H322	H	0.696163	0.705972	0.604449
	H323	H	0.696819	0.712525	0.619038
	O324	O	1.002147	-0.131345	1.131244
	H325	H	0.998819	-0.137537	1.135312
	H326	H	0.986198	-0.132516	1.130504
	O327	O	0.495587	0.302586	0.387689
	H328	H	0.481854	0.291788	0.386661
	H329	H	0.505446	0.289897	0.391236
	O330	O	0.184423	0.897175	0.990239
	H331	H	0.168919	0.885347	0.994017
	H332	H	0.186622	0.897866	1.000588
	O333	O	-0.038076	1.077310	-0.010081
	H334	H	-0.032020	1.076842	-0.006386
	H335	H	-0.039364	1.088337	-0.001328
	O336	O	0.913803	1.138524	0.056153
	H337	H	0.896636	1.134338	0.057511
	H338	H	0.904913	1.143453	0.050596
	O339	O	0.126711	1.187949	1.127914
	H340	H	0.128903	1.194396	1.100383
	H341	H	0.109480	1.188411	1.128020
	O342	O	0.307526	0.685940	0.348545
	H343	H	0.335832	0.685737	0.338596
	H344	H	0.306517	0.696126	0.389498
	O345	O	0.056050	-0.191763	0.793886
	H346	H	0.058782	-0.195372	0.782659
	H347	H	0.060559	-0.193066	0.795466
	O348	O	0.503740	0.473561	0.469945
	H349	H	0.511860	0.478168	0.472247
	H350	H	0.508105	0.480013	0.457185
	O351	O	0.935609	1.084203	-0.205731
	H352	H	0.957725	1.096330	-0.208616
	H353	H	0.922692	1.081669	-0.214398
	O354	O	0.939497	0.986021	1.187447
	H355	H	0.923663	0.983727	1.188121
	H356	H	0.936870	0.987295	1.184627
	O357	O	0.001521	0.081740	0.012872
	H358	H	0.016669	0.081115	0.009866
	H359	H	-0.014388	0.074720	0.010354
	O360	O	0.425027	0.585322	0.500638
	H361	H	0.418025	0.586710	0.514803
	H362	H	0.434091	0.588295	0.516436
	O363	O	0.614236	-0.301856	-0.476239
	H364	H	0.596742	-0.302127	-0.466628
	H365	H	0.630459	-0.300808	-0.477914
	O366	O	-0.204069	-0.066075	1.170593
	H367	H	-0.202748	-0.068565	1.182110
	H368	H	-0.214070	-0.059560	1.178281
	O369	O	1.147069	0.066334	1.175051
	H370	H	1.152658	0.077291	1.184825
	H371	H	1.155487	0.075499	1.170615
	O372	O	0.358760	0.454799	0.692380
	H373	H	0.393549	0.449982	0.694787
	H374	H	0.347782	0.477161	0.704091
	O375	O	0.706404	0.526104	1.701148
	H376	H	0.736045	0.525589	1.712403
	H377	H	0.705761	0.560812	1.688667
	O378	O	0.696386	0.489610	0.498832
	H379	H	0.690749	0.504197	0.489397
	H380	H	0.683121	0.496642	0.488620
	O381	O	0.030145	0.826647	0.003582
	H382	H	0.029135	0.830540	0.008164
	H383	H	0.006205	0.819847	0.004194
	O384	O	0.473220	0.708740	0.290555
	H385	H	0.470425	0.708127	0.302368
	H386	H	0.475199	0.726350	0.274136
	O387	O	0.696770	0.295364	0.471934
	H388	H	0.714758	0.288719	0.479857
	H389	H	0.695257	0.307800	0.493247
	O390	O	0.320714	0.566027	0.282994
	H391	H	0.316900	0.597777	0.296546
	H392	H	0.305887	0.570630	0.262023
	O393	O	0.839926	-0.177986	1.158116
	H394	H	0.836651	-0.175687	1.173867
	H395	H	0.844684	-0.187472	1.155775
	O396	O	0.374161	0.329704	0.467662
	H397	H	0.355291	0.323574	0.472550
	H398	H	0.356929	0.348840	0.456600
	O399	O	1.092965	1.128719	0.007764
	H400	H	1.088959	1.131543	0.012264
	H401	H	1.091109	1.130621	0.015396
	O402	O	1.153566	1.111624	-0.023502
	H403	H	1.153457	1.109060	-0.025148
	H404	H	1.147028	1.082618	-0.029382
	O405	O	0.403564	0.600371	0.692957
	H406	H	0.397530	0.614703	0.720380
	H407	H	0.416514	0.597159	0.688762
	O408	O	0.457991	0.456872	0.451968
	H409	H	0.477236	0.444389	0.441438
	H410	H	0.434611	0.456006	0.423926
	O411	O	1.004670	1.028376	0.852804
	H412	H	1.005353	1.020012	0.850674
	H413	H	0.994651	1.030919	0.847041
	O414	O	0.455912	0.442210	0.317779
	H415	H	0.442125	0.446729	0.310936
	H416	H	0.452270	0.422290	0.312179
	O417	O	0.184376	0.829543	0.860417
	H418	H	0.190550	0.835120	0.886203
	H419	H	0.173877	0.829085	0.862589
	O420	O	-0.093294	0.940374	0.866097
	H421	H	-0.097317	0.941777	0.863803
	H422	H	-0.075158	0.925369	0.877509
	O423	O	0.182786	1.000802	0.070288
	H424	H	0.184739	0.999922	0.076779
	H425	H	0.191847	1.019472	0.076351
	O426	O	0.290533	0.529276	0.624449
	H427	H	0.274054	0.518242	0.662592
	H428	H	0.291888	0.519470	0.592979
	O429	O	0.577632	0.699509	0.698501
	H430	H	0.558019	0.690508	0.700407
	H431	H	0.581163	0.728314	0.701089
	O432	O	0.669103	0.322293	0.318210
	H433	H	0.637155	0.321558	0.315100
	H434	H	0.679177	0.316614	0.362959
	O435	O	0.289285	-0.704926	0.574566
	H436	H	0.296453	-0.702532	0.594482
	H437	H	0.264622	-0.708262	0.582617
	O438	O	-0.179826	0.795723	1.029778
	H439	H	-0.193898	0.787488	1.049479
	H440	H	-0.189357	0.792379	1.032559
	O441	O	0.485044	0.553995	0.611215
	H442	H	0.500591	0.545449	0.617661
	H443	H	0.487438	0.555399	0.605864
