data_Molecule from HDF5

_cell_length_a		16.795746
_cell_length_b		16.525631
_cell_length_c		16.570419
_cell_angle_alpha	90.102941
_cell_angle_beta	90.214438
_cell_angle_gamma	89.934359
_symmetry_space_group_name_H-M	'P 1'
_symmetry_Int_Tables_number		1

loop_
	_symmetry_equiv_pos_as_xyz
	x,y,z

loop_
	_atom_site_label
	_atom_site_type_symbol
	_atom_site_fract_x
	_atom_site_fract_y
	_atom_site_fract_z
	H0	H	0.402800	0.831041	0.714284
	H1	H	0.607268	0.146541	0.714046
	H2	H	0.606215	0.832542	0.276378
	H3	H	0.402198	0.146094	0.277405
	H4	H	0.725560	0.381783	0.839634
	H5	H	0.723846	0.591296	0.152018
	H6	H	0.277805	0.600153	0.842860
	H7	H	0.283864	0.382718	0.150293
	H8	H	0.853446	0.712273	0.387302
	H9	H	0.156864	0.713479	0.605916
	H10	H	0.851298	0.267186	0.599488
	H11	H	0.157468	0.261122	0.387010
	H12	H	0.850919	0.382392	0.717671
	H13	H	0.157159	0.596387	0.721607
	H14	H	0.853657	0.594366	0.271083
	H15	H	0.155305	0.374379	0.267037
	H16	H	0.398350	0.711003	0.840180
	H17	H	0.606036	0.706902	0.152299
	H18	H	0.606970	0.269759	0.837728
	H19	H	0.403275	0.269913	0.151074
	H20	H	0.723060	0.831961	0.391386
	H21	H	0.725950	0.144623	0.600841
	H22	H	0.283248	0.832572	0.601501
	H23	H	0.282890	0.144429	0.390445
	H24	H	0.901652	0.332140	0.215237
	H25	H	0.111851	0.642117	0.219816
	H26	H	0.111567	0.333566	0.773402
	H27	H	0.899165	0.643565	0.774375
	H28	H	0.224535	0.881836	0.340348
	H29	H	0.231742	0.100207	0.649352
	H30	H	0.783454	0.094990	0.339522
	H31	H	0.782390	0.882042	0.649755
	H32	H	0.350818	0.213306	0.885557
	H33	H	0.658417	0.209854	0.099342
	H34	H	0.354697	0.761133	0.105084
	H35	H	0.659701	0.766489	0.890239
	H36	H	0.352663	0.879401	0.219587
	H37	H	0.657373	0.095201	0.217154
	H38	H	0.350004	0.095583	0.770147
	H39	H	0.659688	0.884400	0.774753
	H40	H	0.901324	0.208698	0.339530
	H41	H	0.111167	0.210066	0.652115
	H42	H	0.106337	0.768438	0.339937
	H43	H	0.898037	0.766238	0.650590
	H44	H	0.231268	0.336586	0.884614
	H45	H	0.232282	0.639781	0.109480
	H46	H	0.783115	0.332701	0.101109
	H47	H	0.782561	0.643906	0.889243
	H48	H	0.418668	0.099630	0.582894
	H49	H	0.597411	0.875051	0.585526
	H50	H	0.595963	0.102326	0.407364
	H51	H	0.411688	0.875347	0.408010
	H52	H	0.595802	0.406092	0.105137
	H53	H	0.594741	0.574963	0.883063
	H54	H	0.420793	0.570191	0.103069
	H55	H	0.414825	0.408062	0.885401
	H56	H	0.117633	0.582879	0.408834
	H57	H	0.894053	0.577903	0.584639
	H58	H	0.114794	0.402725	0.586857
	H59	H	0.898427	0.403769	0.409184
	H60	H	0.116278	0.398482	0.587333
	H61	H	0.896208	0.575084	0.582435
	H62	H	0.112696	0.572948	0.414350
	H63	H	0.895746	0.400807	0.403969
	H64	H	0.421079	0.577393	0.105557
	H65	H	0.594579	0.578691	0.882395
	H66	H	0.590611	0.394979	0.107626
	H67	H	0.420041	0.401449	0.884529
	H68	H	0.594418	0.101683	0.405263
	H69	H	0.594067	0.876362	0.584278
	H70	H	0.418183	0.097967	0.578673
	H71	H	0.414052	0.874995	0.404020
	H72	H	0.918171	0.600152	0.083594
	H73	H	0.088479	0.379070	0.078275
	H74	H	0.091902	0.598764	0.913392
	H75	H	0.918901	0.376760	0.903911
	H76	H	0.087621	0.904358	0.605088
	H77	H	0.093570	0.073149	0.385550
	H78	H	0.916983	0.076765	0.606587
	H79	H	0.911810	0.898240	0.381599
	H80	H	0.611783	0.076404	0.909800
	H81	H	0.396223	0.072110	0.081476
	H82	H	0.614575	0.900673	0.084996
	H83	H	0.395497	0.903415	0.903555
	H84	H	0.614534	0.899842	0.083667
	H85	H	0.389715	0.079788	0.093179
	H86	H	0.614648	0.075407	0.899574
	H87	H	0.394858	0.896566	0.905880
	H88	H	0.913123	0.077928	0.608320
	H89	H	0.090318	0.072950	0.387068
	H90	H	0.095093	0.897220	0.610531
	H91	H	0.913189	0.901790	0.383415
	H92	H	0.090752	0.600567	0.910236
	H93	H	0.097195	0.376686	0.077173
	H94	H	0.911996	0.600256	0.081082
	H95	H	0.913091	0.377546	0.912982
	H96	H	0.414780	0.100690	0.580334
	H97	H	0.596646	0.876236	0.582122
	H98	H	0.593588	0.101398	0.407836
	H99	H	0.416115	0.877021	0.407893
	H100	H	0.603038	0.397151	0.110953
	H101	H	0.597748	0.576598	0.881419
	H102	H	0.414508	0.573415	0.105924
	H103	H	0.412423	0.400799	0.881069
	H104	H	0.116448	0.571916	0.402520
	H105	H	0.895306	0.574732	0.586557
	H106	H	0.114345	0.400006	0.583432
	H107	H	0.896504	0.397932	0.409833
	H108	H	0.913539	0.602615	0.086978
	H109	H	0.093243	0.374897	0.085504
	H110	H	0.088735	0.597333	0.911483
	H111	H	0.908470	0.373054	0.904104
	H112	H	0.098418	0.907627	0.607293
	H113	H	0.091694	0.075634	0.384688
	H114	H	0.913323	0.073271	0.607050
	H115	H	0.916196	0.898268	0.383117
	H116	H	0.616617	0.084905	0.904712
	H117	H	0.392374	0.086833	0.079818
	H118	H	0.614266	0.901178	0.083531
	H119	H	0.397715	0.901428	0.910244
	C120	C	0.384768	-0.003448	0.614447
	C121	C	0.626569	0.980254	0.616016
	C122	C	0.625067	-0.002237	0.375074
	C123	C	0.382689	0.979748	0.373976
	C124	C	0.626804	0.367109	0.003943
	C125	C	0.626664	0.609084	0.985991
	C126	C	0.383880	0.609180	0.003389
	C127	C	0.383969	0.369386	0.986392
	C128	C	0.014355	0.608947	0.374713
	C129	C	0.996139	0.610191	0.618620
	C130	C	0.013587	0.367363	0.617776
	C131	C	0.997388	0.365859	0.373791
	C132	C	0.883722	0.497057	0.116114
	C133	C	0.126531	0.478713	0.116191
	C134	C	0.124659	0.496929	0.876523
	C135	C	0.882407	0.479271	0.874727
	C136	C	0.125188	0.868830	0.504908
	C137	C	0.126326	0.109031	0.487757
	C138	C	0.883283	0.109245	0.504191
	C139	C	0.882267	0.866721	0.485858
	C140	C	0.512499	0.111392	0.871806
	C141	C	0.495019	0.111072	0.116585
	C142	C	0.513232	0.867089	0.117054
	C143	C	0.497232	0.867347	0.873746
	C144	C	0.383410	0.878240	0.674679
	C145	C	0.626923	0.098849	0.674826
	C146	C	0.625093	0.879403	0.316182
	C147	C	0.382153	0.098548	0.315700
	C148	C	0.685385	0.364452	0.886258
	C149	C	0.684491	0.610322	0.105036
	C150	C	0.320188	0.615745	0.888526
	C151	C	0.324582	0.365428	0.103670
	C152	C	0.899290	0.670951	0.369939
	C153	C	0.110948	0.672298	0.623008
	C154	C	0.897377	0.307119	0.618650
	C155	C	0.111631	0.302607	0.369392
	C156	C	0.897391	0.364292	0.677315
	C157	C	0.111130	0.614154	0.680827
	C158	C	0.899409	0.612663	0.312108
	C159	C	0.110760	0.358983	0.309866
	C160	C	0.379953	0.671027	0.887139
	C161	C	0.626297	0.667534	0.105026
	C162	C	0.626301	0.308597	0.885369
	C163	C	0.383667	0.309492	0.104131
	C164	C	0.683379	0.879095	0.373038
	C165	C	0.685533	0.098209	0.618514
	C166	C	0.324226	0.879073	0.618452
	C167	C	0.323403	0.097812	0.371941
	C168	C	0.882543	0.379004	0.175536
	C169	C	0.130483	0.595226	0.179605
	C170	C	0.129036	0.380442	0.814002
	C171	C	0.880464	0.596868	0.814422
	C172	C	0.184141	0.864776	0.387164
	C173	C	0.189463	0.115229	0.603278
	C174	C	0.823999	0.112404	0.386432
	C175	C	0.822558	0.863965	0.603227
	C176	C	0.396681	0.172312	0.868399
	C177	C	0.611607	0.170315	0.118108
	C178	C	0.399555	0.803469	0.121652
	C179	C	0.613223	0.806824	0.871705
	C180	C	0.398785	0.862116	0.178873
	C181	C	0.611117	0.113266	0.176784
	C182	C	0.396535	0.113993	0.810622
	C183	C	0.613351	0.865240	0.814130
	C184	C	0.882451	0.169083	0.386583
	C185	C	0.129653	0.170378	0.604837
	C186	C	0.125407	0.808421	0.387011
	C187	C	0.880218	0.806475	0.603420
	C188	C	0.188637	0.381924	0.869435
	C189	C	0.189810	0.594223	0.124259
	C190	C	0.823722	0.379590	0.118983
	C191	C	0.822498	0.596958	0.871352
	C192	C	0.409901	0.078065	0.588352
	C193	C	0.602684	0.897288	0.591112
	C194	C	0.601665	0.080419	0.399771
	C195	C	0.406976	0.897342	0.399261
	C196	C	0.603317	0.392135	0.086457
	C197	C	0.602633	0.584087	0.903761
	C198	C	0.411024	0.581464	0.084007
	C199	C	0.408629	0.395879	0.904938
	C200	C	0.094779	0.583098	0.401280
	C201	C	0.916151	0.583569	0.591861
	C202	C	0.094134	0.392989	0.593042
	C203	C	0.917753	0.393328	0.400200
	C204	C	0.907865	0.579558	0.091116
	C205	C	0.100251	0.397968	0.088236
	C206	C	0.097879	0.577910	0.904024
	C207	C	0.906693	0.397157	0.899870
	C208	C	0.100710	0.895360	0.586422
	C209	C	0.099494	0.081663	0.406870
	C210	C	0.907727	0.083534	0.586074
	C211	C	0.906718	0.892032	0.403960
	C212	C	0.593209	0.085963	0.897222
	C213	C	0.414006	0.086577	0.092040
	C214	C	0.593568	0.893493	0.091329
	C215	C	0.416856	0.893289	0.899156
	Zn216	Zn	0.505242	-0.011326	0.743441
	Zn217	Zn	0.504258	-0.010843	0.246228
	Zn218	Zn	0.754763	0.488435	-0.004740
	Zn219	Zn	0.254635	0.488908	-0.004171
	Zn220	Zn	0.005151	0.739104	0.496443
	Zn221	Zn	0.005563	0.237327	0.496334
	Zn222	Zn	0.004665	0.488799	0.747518
	Zn223	Zn	0.005972	0.487296	0.244115
	Zn224	Zn	0.505178	0.737587	-0.004821
	Zn225	Zn	0.504134	0.239916	-0.006055
	Zn226	Zn	0.754413	-0.011225	0.494916
	Zn227	Zn	0.254817	-0.011379	0.495140
	N228	N	0.420254	0.952354	0.672502
	N229	N	0.591145	0.024247	0.673611
	N230	N	0.589764	0.954276	0.317017
	N231	N	0.417967	0.023773	0.316541
	N232	N	0.686025	0.399902	0.961235
	N233	N	0.684994	0.575081	0.029973
	N234	N	0.322579	0.577887	0.962062
	N235	N	0.324445	0.401626	0.029231
	N236	N	0.971735	0.668802	0.408309
	N237	N	0.038378	0.670027	0.585223
	N238	N	0.970631	0.308827	0.582310
	N239	N	0.040105	0.306885	0.408560
	N240	N	0.970681	0.401043	0.677165
	N241	N	0.038490	0.576180	0.678249
	N242	N	0.972035	0.574545	0.314977
	N243	N	0.038716	0.397920	0.312710
	N244	N	0.419017	0.667014	0.959828
	N245	N	0.591175	0.667118	0.030000
	N246	N	0.590448	0.309984	0.959768
	N247	N	0.419667	0.311474	0.030031
	N248	N	0.683694	0.953867	0.408773
	N249	N	0.685530	0.023175	0.582753
	N250	N	0.324551	0.953752	0.582151
	N251	N	0.323180	0.022642	0.407019
	N252	N	0.918848	0.453271	0.174030
	N253	N	0.091591	0.522397	0.174582
	N254	N	0.089739	0.453038	0.818491
	N255	N	0.916862	0.522636	0.815951
	N256	N	0.184228	0.901595	0.461520
	N257	N	0.187564	0.077843	0.529353
	N258	N	0.823959	0.076150	0.460817
	N259	N	0.823481	0.900734	0.528980
	N260	N	0.469732	0.170913	0.905653
	N261	N	0.538444	0.169370	0.081319
	N262	N	0.471946	0.806412	0.083785
	N263	N	0.539809	0.807522	0.907800
	N264	N	0.470603	0.901103	0.176185
	N265	N	0.537593	0.077078	0.176208
	N266	N	0.469640	0.076769	0.812395
	N267	N	0.540055	0.901932	0.814918
	N268	N	0.918848	0.167184	0.460905
	N269	N	0.090804	0.166585	0.531873
	N270	N	0.089424	0.810706	0.461341
	N271	N	0.916593	0.807830	0.529397
	N272	N	0.185870	0.455454	0.907901
	N273	N	0.187387	0.520949	0.085284
	N274	N	0.824031	0.454304	0.082890
	N275	N	0.823512	0.522744	0.908029
	O276	O	-0.207301	0.784046	0.200251
	H277	H	-0.165332	0.778543	0.195500
	H278	H	-0.232896	0.748596	0.235697
	O279	O	0.370923	0.312111	0.359975
	H280	H	0.385829	0.332979	0.368035
	H281	H	0.374730	0.315882	0.377648
	O282	O	1.231074	-0.053882	0.778548
	H283	H	1.207992	-0.038271	0.769217
	H284	H	1.237723	-0.040073	0.756411
	O285	O	0.542207	0.705618	0.713149
	H286	H	0.560057	0.709581	0.712483
	H287	H	0.551842	0.722033	0.726290
	O288	O	0.727031	0.515368	0.712407
	H289	H	0.719401	0.543558	0.709864
	H290	H	0.750797	0.529157	0.738773
	O291	O	0.485029	0.669121	0.352027
	H292	H	0.488544	0.664450	0.372788
	H293	H	0.499345	0.652864	0.353060
	O294	O	0.866184	0.177792	1.001145
	H295	H	0.882090	0.162917	0.989001
	H296	H	0.853233	0.201091	1.006605
	O297	O	0.498873	0.711618	0.521741
	H298	H	0.516282	0.720244	0.524241
	H299	H	0.485137	0.704566	0.532649
	O300	O	0.013364	0.205825	0.945133
	H301	H	0.017629	0.188577	0.961241
	H302	H	0.038876	0.210418	0.947604
	O303	O	0.712821	0.697480	0.704187
	H304	H	0.712857	0.712525	0.692470
	H305	H	0.733999	0.720231	0.712791
	O306	O	0.548685	0.478158	0.459262
	H307	H	0.548210	0.463659	0.477250
	H308	H	0.543617	0.479365	0.478786
	O309	O	0.221115	0.776015	0.778750
	H310	H	0.226860	0.824515	0.774805
	H311	H	0.254317	0.746077	0.745389
	O312	O	0.559906	0.438613	0.714348
	H313	H	0.541661	0.405882	0.714608
	H314	H	0.586541	0.445168	0.710929
	O315	O	0.882975	0.926605	1.068606
	H316	H	0.868097	0.924045	1.068681
	H317	H	0.879107	0.925182	1.090108
	O318	O	0.693139	0.305675	0.680719
	H319	H	0.701488	0.298273	0.679063
	H320	H	0.688317	0.309186	0.678439
	O321	O	0.017788	0.968205	0.903518
	H322	H	0.021130	0.973516	0.911031
	H323	H	0.004043	0.972081	0.899711
	O324	O	0.957892	0.784175	0.199656
	H325	H	0.966390	0.794350	0.195296
	H326	H	0.974486	0.776778	0.206465
	O327	O	0.230044	0.214506	1.017589
	H328	H	0.231606	0.217067	1.050178
	H329	H	0.251143	0.230049	1.034499
	O330	O	0.729428	0.269988	0.470994
	H331	H	0.730223	0.269011	0.434165
	H332	H	0.742667	0.245644	0.460506
	O333	O	0.471296	0.270934	0.711141
	H334	H	0.438762	0.263618	0.716593
	H335	H	0.456218	0.258075	0.726039
	O336	O	0.712696	0.283776	0.291433
	H337	H	0.683055	0.295913	0.288010
	H338	H	0.742916	0.250629	0.257245
	O339	O	0.478703	0.284098	0.515997
	H340	H	0.496640	0.276698	0.531009
	H341	H	0.493051	0.283714	0.523865
	O342	O	0.072550	-0.070337	0.163963
	H343	H	0.066571	-0.068957	0.154089
	H344	H	0.075076	-0.064750	0.160387
	O345	O	0.134853	1.109030	1.105554
	H346	H	0.134169	1.078947	1.111631
	H347	H	0.153848	1.118806	1.113980
	O348	O	0.028975	-0.017569	0.120850
	H349	H	0.020165	-0.017893	0.117148
	H350	H	0.034399	-0.009631	0.114483
	O351	O	0.446985	0.685747	0.395653
	H352	H	0.454964	0.679375	0.419058
	H353	H	0.455078	0.707424	0.391702
	O354	O	0.076071	0.172192	1.069655
	H355	H	0.090801	0.160633	1.090788
	H356	H	0.076655	0.166004	1.072165
	O357	O	0.725338	0.704927	0.527779
	H358	H	0.740736	0.694838	0.524076
	H359	H	0.754876	0.707754	0.520480
	O360	O	0.301249	0.286853	0.695314
	H361	H	0.286687	0.305033	0.701988
	H362	H	0.297114	0.308718	0.671781
	O363	O	0.043294	-0.239965	0.029853
	H364	H	0.030744	-0.242406	0.029096
	H365	H	0.058545	-0.245961	-0.000404
	O366	O	0.548916	0.269880	0.287529
	H367	H	0.549231	0.273664	0.269622
	H368	H	0.536059	0.271801	0.268727
	O369	O	0.807539	0.182313	0.188393
	H370	H	0.822558	0.154741	0.172351
	H371	H	0.832231	0.172009	0.168557
	O372	O	0.953891	0.809024	0.019413
	H373	H	0.953860	0.827360	0.012622
	H374	H	0.935552	0.807275	0.034824
	O375	O	1.023131	-0.226320	-0.220237
	H376	H	1.052646	-0.235314	-0.229174
	H377	H	1.029840	-0.236530	-0.226485
	O378	O	0.261582	0.430941	0.444501
	H379	H	0.256907	0.432499	0.445209
	H380	H	0.265503	0.423290	0.426473
	O381	O	-0.030866	1.200476	0.778554
	H382	H	-0.005548	1.203587	0.803923
	H383	H	-0.026991	1.222746	0.761184
	O384	O	0.786545	0.015654	0.774720
	H385	H	0.757365	0.018046	0.750032
	H386	H	0.790085	0.039310	0.788313
	O387	O	1.015187	1.201818	0.203732
	H388	H	1.048287	1.203626	0.211600
	H389	H	1.029749	1.212308	0.209398
	O390	O	0.733722	0.453647	0.276841
	H391	H	0.746217	0.454118	0.253990
	H392	H	0.730654	0.428292	0.271155
	O393	O	0.282193	0.490285	0.287651
	H394	H	0.285523	0.507876	0.294877
	H395	H	0.271381	0.510872	0.269092
	O396	O	0.232122	0.766114	0.982327
	H397	H	0.242444	0.753350	0.951969
	H398	H	0.230841	0.752664	0.960025
	O399	O	-0.040234	0.008309	0.839341
	H400	H	-0.058922	0.012577	0.839106
	H401	H	-0.043170	0.006401	0.847022
	O402	O	0.278420	0.707198	0.467839
	H403	H	0.266898	0.726153	0.447631
	H404	H	0.269144	0.714821	0.440482
	O405	O	0.792454	0.198162	0.781232
	H406	H	0.825261	0.195110	0.791941
	H407	H	0.795303	0.203174	0.788128
	O408	O	0.228465	0.018900	0.220075
	H409	H	0.242935	0.002161	0.205954
	H410	H	0.253659	0.007770	0.227512
	O411	O	0.812032	0.799282	0.804396
	H412	H	0.834169	0.808663	0.825726
	H413	H	0.827782	0.820541	0.822922
	O414	O	0.267860	0.553938	0.553904
	H415	H	0.261332	0.547990	0.538124
	H416	H	0.266024	0.570762	0.534160
	O417	O	0.598176	0.305752	0.536862
	H418	H	0.605154	0.303225	0.557637
	H419	H	0.597837	0.301490	0.526078
	O420	O	0.437092	0.474305	0.393669
	H421	H	0.434746	0.491138	0.389651
	H422	H	0.450733	0.482450	0.411753
	O423	O	0.242124	0.025447	0.933025
	H424	H	0.246233	0.034565	0.922563
	H425	H	0.237401	0.035285	0.924778
	O426	O	0.319035	0.674081	0.680575
	H427	H	0.343913	0.657727	0.665396
	H428	H	0.324130	0.645584	0.665348
	O429	O	0.774261	0.954309	0.960621
	H430	H	0.772316	0.932661	0.978775
	H431	H	0.768963	0.967889	0.958752
	O432	O	0.734155	0.555665	0.419107
	H433	H	0.732981	0.522484	0.435572
	H434	H	0.739276	0.530472	0.405512
	O435	O	0.263124	1.245147	0.246785
	H436	H	0.270342	1.250140	0.263609
	H437	H	0.279243	1.252730	0.270805
	O438	O	-0.195778	0.049704	0.040749
	H439	H	-0.202541	0.042220	0.042469
	H440	H	-0.197990	0.079983	0.038534
	O441	O	0.078936	-0.139689	-0.091036
	H442	H	0.068686	-0.134093	-0.091716
	H443	H	0.097749	-0.139388	-0.105643
	O444	O	0.566614	0.501770	0.278447
	H445	H	0.576214	0.489711	0.277120
	H446	H	0.565660	0.504501	0.305169
	O447	O	-0.130850	1.200311	0.987497
	H448	H	-0.126615	1.204159	0.997676
	H449	H	-0.114893	1.209083	0.979141
	O450	O	0.240812	0.942938	1.065186
	H451	H	0.242453	0.939547	1.039535
	H452	H	0.237704	0.927741	1.043693
	O453	O	0.298238	0.452621	0.695168
	H454	H	0.305548	0.474514	0.679505
	H455	H	0.296830	0.470912	0.705440
	O456	O	0.100131	0.054140	0.777521
	H457	H	0.073499	0.041782	0.790504
	H458	H	0.093671	0.079621	0.774747
	O459	O	0.773999	0.962483	0.217085
	H460	H	0.757150	0.942527	0.230357
	H461	H	0.766528	0.933469	0.228191
	O462	O	0.706039	0.679139	0.303719
	H463	H	0.691726	0.655298	0.322108
	H464	H	0.685401	0.664217	0.324195
	O465	O	0.775690	-0.198906	0.003486
	H466	H	0.748819	-0.223904	0.012511
	H467	H	0.791404	-0.198840	0.029509
	O468	O	0.430725	0.471834	0.510177
	H469	H	0.430661	0.482977	0.518855
	H470	H	0.434062	0.479249	0.503556
	O471	O	0.572929	0.498301	0.556217
	H472	H	0.567225	0.504677	0.564878
	H473	H	0.569301	0.485858	0.549488
	O474	O	0.285290	0.698533	0.294865
	H475	H	0.327729	0.693411	0.288357
	H476	H	0.258831	0.730525	0.257576
	O477	O	0.290107	0.275832	1.518713
	H478	H	0.286944	0.254559	1.515522
	H479	H	0.288854	0.284342	1.517988
	O480	O	0.553949	0.635890	0.428289
	H481	H	0.543201	0.622993	0.445484
	H482	H	0.569520	0.642761	0.436049
	O483	O	0.718514	0.453093	0.562294
	H484	H	0.727107	0.428961	0.573839
	H485	H	0.708963	0.444506	0.583879
	O486	O	0.437734	0.551165	0.725652
	H487	H	0.459641	0.559227	0.729267
	H488	H	0.459399	0.546153	0.724205
	O489	O	0.947369	0.878240	-0.181651
	H490	H	0.932967	0.891443	-0.179359
	H491	H	0.957495	0.860101	-0.189937
	O492	O	0.198989	-0.202580	0.185032
	H493	H	0.180383	-0.189804	0.163711
	H494	H	0.188738	-0.183042	0.162634
	O495	O	0.193733	1.164309	0.833785
	H496	H	0.184161	1.149671	0.853483
	H497	H	0.197340	1.184611	0.836533
	O498	O	0.931860	1.037829	1.217102
	H499	H	0.928736	1.022952	1.222212
	H500	H	0.924276	1.048091	1.211475
	O501	O	0.477882	0.462066	0.363649
	H502	H	0.488644	0.463092	0.365352
	H503	H	0.475281	0.466711	0.375754
