data_Molecule from HDF5

_cell_length_a		16.498058
_cell_length_b		16.655768
_cell_length_c		16.751939
_cell_angle_alpha	89.839531
_cell_angle_beta	90.036742
_cell_angle_gamma	90.014230
_symmetry_space_group_name_H-M	'P 1'
_symmetry_Int_Tables_number		1

loop_
	_symmetry_equiv_pos_as_xyz
	x,y,z

loop_
	_atom_site_label
	_atom_site_type_symbol
	_atom_site_fract_x
	_atom_site_fract_y
	_atom_site_fract_z
	H0	H	0.395740	0.826735	0.713366
	H1	H	0.615541	0.131556	0.714673
	H2	H	0.606609	0.825740	0.268417
	H3	H	0.394110	0.133501	0.265101
	H4	H	0.724539	0.375107	0.835816
	H5	H	0.718377	0.577398	0.148152
	H6	H	0.281666	0.587354	0.835838
	H7	H	0.277691	0.371069	0.141611
	H8	H	0.844498	0.694649	0.388209
	H9	H	0.159930	0.698275	0.591152
	H10	H	0.845241	0.259995	0.593384
	H11	H	0.160081	0.260233	0.387249
	H12	H	0.845325	0.376334	0.707656
	H13	H	0.158483	0.586391	0.710893
	H14	H	0.845637	0.582979	0.269767
	H15	H	0.157956	0.372869	0.267398
	H16	H	0.397564	0.703580	0.836301
	H17	H	0.604528	0.696573	0.147234
	H18	H	0.612338	0.254128	0.838045
	H19	H	0.391426	0.252184	0.140206
	H20	H	0.724360	0.827157	0.382901
	H21	H	0.725513	0.135020	0.593470
	H22	H	0.281030	0.824943	0.595054
	H23	H	0.281214	0.135179	0.385171
	H24	H	0.899598	0.322220	0.208847
	H25	H	0.111529	0.631937	0.213946
	H26	H	0.110224	0.326058	0.766634
	H27	H	0.899781	0.636687	0.771166
	H28	H	0.224054	0.874407	0.333523
	H29	H	0.225833	0.085336	0.642708
	H30	H	0.785286	0.080609	0.331872
	H31	H	0.776293	0.870295	0.638896
	H32	H	0.350882	0.208314	0.875961
	H33	H	0.657986	0.199311	0.092583
	H34	H	0.346843	0.757999	0.094291
	H35	H	0.661981	0.764420	0.890086
	H36	H	0.345274	0.875203	0.208397
	H37	H	0.657242	0.084238	0.210496
	H38	H	0.351034	0.092785	0.761412
	H39	H	0.660293	0.877038	0.770516
	H40	H	0.898990	0.200529	0.333925
	H41	H	0.110181	0.202294	0.643084
	H42	H	0.107468	0.757956	0.333697
	H43	H	0.891942	0.752804	0.639431
	H44	H	0.227380	0.326329	0.882296
	H45	H	0.226790	0.633391	0.097101
	H46	H	0.786738	0.320778	0.088980
	H47	H	0.789374	0.638556	0.892798
	H48	H	0.411816	0.089359	0.571465
	H49	H	0.587032	0.868111	0.583553
	H50	H	0.594163	0.092606	0.398567
	H51	H	0.413257	0.868711	0.402199
	H52	H	0.591537	0.393422	0.099000
	H53	H	0.591618	0.578486	0.877470
	H54	H	0.415864	0.574281	0.102433
	H55	H	0.421568	0.396797	0.883581
	H56	H	0.115006	0.564582	0.399286
	H57	H	0.891468	0.567303	0.576009
	H58	H	0.113405	0.395499	0.579713
	H59	H	0.886915	0.385503	0.394981
	H60	H	0.116235	0.388069	0.580945
	H61	H	0.889692	0.565139	0.581365
	H62	H	0.116718	0.568950	0.397363
	H63	H	0.890980	0.388340	0.406591
	H64	H	0.410512	0.566447	0.101219
	H65	H	0.601129	0.575781	0.875400
	H66	H	0.587838	0.385617	0.100120
	H67	H	0.419195	0.391192	0.880095
	H68	H	0.587543	0.092797	0.395566
	H69	H	0.586500	0.872171	0.574633
	H70	H	0.413313	0.093129	0.581713
	H71	H	0.411485	0.866995	0.397219
	H72	H	0.908757	0.593154	0.085091
	H73	H	0.094796	0.367982	0.074093
	H74	H	0.097787	0.592172	0.901864
	H75	H	0.911526	0.367019	0.899004
	H76	H	0.090873	0.889931	0.598186
	H77	H	0.083079	0.069475	0.381519
	H78	H	0.911413	0.071705	0.601145
	H79	H	0.915244	0.884669	0.375826
	H80	H	0.613953	0.066709	0.902667
	H81	H	0.389138	0.064541	0.079014
	H82	H	0.618221	0.890760	0.087752
	H83	H	0.390871	0.891717	0.901173
	H84	H	0.617212	0.883661	0.076473
	H85	H	0.389218	0.069311	0.074798
	H86	H	0.613262	0.065379	0.903726
	H87	H	0.390691	0.892528	0.900103
	H88	H	0.911664	0.065950	0.599047
	H89	H	0.093262	0.076117	0.376023
	H90	H	0.089512	0.890448	0.597621
	H91	H	0.910188	0.892368	0.376258
	H92	H	0.087898	0.591717	0.893841
	H93	H	0.084832	0.369146	0.081758
	H94	H	0.913774	0.590622	0.083365
	H95	H	0.910212	0.365102	0.895175
	H96	H	0.421858	0.088489	0.576262
	H97	H	0.595027	0.868064	0.577114
	H98	H	0.588273	0.090657	0.401587
	H99	H	0.416839	0.868535	0.397656
	H100	H	0.596049	0.387429	0.102637
	H101	H	0.594354	0.569398	0.879521
	H102	H	0.419190	0.566449	0.098079
	H103	H	0.414911	0.396980	0.880319
	H104	H	0.115831	0.568517	0.401619
	H105	H	0.888618	0.571549	0.580297
	H106	H	0.114273	0.390073	0.573526
	H107	H	0.891350	0.397087	0.397268
	H108	H	0.909832	0.592382	0.080043
	H109	H	0.084394	0.374460	0.070705
	H110	H	0.085760	0.587128	0.905203
	H111	H	0.914299	0.366861	0.895081
	H112	H	0.088930	0.888866	0.598098
	H113	H	0.094515	0.062886	0.379851
	H114	H	0.916837	0.070151	0.598618
	H115	H	0.918858	0.891614	0.379897
	H116	H	0.613041	0.065467	0.902424
	H117	H	0.392333	0.064187	0.073256
	H118	H	0.612805	0.896627	0.076965
	H119	H	0.390778	0.891713	0.899871
	C120	C	0.381980	-0.011340	0.610276
	C121	C	0.624264	0.971417	0.610296
	C122	C	0.622162	-0.010528	0.367298
	C123	C	0.380521	0.970607	0.366762
	C124	C	0.624575	0.357364	-0.001481
	C125	C	0.624863	0.602339	0.981664
	C126	C	0.382113	0.602339	-0.001220
	C127	C	0.382566	0.359129	0.981092
	C128	C	0.011644	0.598624	0.368354
	C129	C	0.993313	0.601226	0.610829
	C130	C	0.011058	0.359226	0.610030
	C131	C	0.993515	0.358135	0.368174
	C132	C	0.880780	0.487941	0.112313
	C133	C	0.122571	0.471915	0.109346
	C134	C	0.124518	0.488925	0.867231
	C135	C	0.881593	0.471055	0.867770
	C136	C	0.123058	0.857705	0.496131
	C137	C	0.123978	0.101607	0.480704
	C138	C	0.881736	0.100814	0.496852
	C139	C	0.880632	0.856889	0.478465
	C140	C	0.512296	0.101834	0.867405
	C141	C	0.493239	0.099293	0.108980
	C142	C	0.511684	0.858733	0.111127
	C143	C	0.494728	0.860176	0.869261
	C144	C	0.378195	0.872642	0.672116
	C145	C	0.630851	0.086349	0.672548
	C146	C	0.625145	0.872504	0.307895
	C147	C	0.376646	0.087228	0.306001
	C148	C	0.684888	0.355969	0.882351
	C149	C	0.680474	0.598466	0.100490
	C150	C	0.321805	0.605203	0.882454
	C151	C	0.318649	0.353466	0.095455
	C152	C	0.892324	0.656210	0.368623
	C153	C	0.112257	0.659796	0.611197
	C154	C	0.892844	0.299710	0.611757
	C155	C	0.112234	0.298981	0.367305
	C156	C	0.892736	0.357545	0.668710
	C157	C	0.111570	0.603942	0.670348
	C158	C	0.892851	0.600488	0.309739
	C159	C	0.111592	0.355155	0.308321
	C160	C	0.379352	0.663224	0.882590
	C161	C	0.623859	0.657730	0.100223
	C162	C	0.629072	0.296042	0.883456
	C163	C	0.375352	0.294451	0.094818
	C164	C	0.683396	0.873145	0.364837
	C165	C	0.686178	0.087617	0.612746
	C166	C	0.321282	0.871804	0.613401
	C167	C	0.320570	0.088038	0.365534
	C168	C	0.880872	0.369221	0.169240
	C169	C	0.128253	0.586520	0.172347
	C170	C	0.128179	0.372510	0.807115
	C171	C	0.881481	0.589776	0.811003
	C172	C	0.183726	0.855987	0.379972
	C173	C	0.185321	0.103719	0.596465
	C174	C	0.823872	0.100972	0.379159
	C175	C	0.817628	0.852690	0.593248
	C176	C	0.397146	0.166455	0.860215
	C177	C	0.611121	0.159627	0.111682
	C178	C	0.393617	0.798474	0.112655
	C179	C	0.614010	0.802795	0.869705
	C180	C	0.392699	0.856676	0.169276
	C181	C	0.610606	0.102848	0.170094
	C182	C	0.397164	0.108960	0.803096
	C183	C	0.613278	0.858850	0.810662
	C184	C	0.880318	0.160328	0.380187
	C185	C	0.127716	0.161911	0.596588
	C186	C	0.126024	0.797818	0.380064
	C187	C	0.875107	0.794230	0.593326
	C188	C	0.186501	0.372787	0.864484
	C189	C	0.185499	0.587251	0.114129
	C190	C	0.824717	0.368540	0.109779
	C191	C	0.826398	0.590673	0.871279
	C192	C	0.408299	0.069412	0.584052
	C193	C	0.597312	0.890604	0.585240
	C194	C	0.596890	0.070582	0.391634
	C195	C	0.406357	0.889331	0.391899
	C196	C	0.598942	0.381887	0.079495
	C197	C	0.602078	0.580830	0.899105
	C198	C	0.407756	0.576463	0.079421
	C199	C	0.410589	0.386950	0.901929
	C200	C	0.094271	0.574128	0.392592
	C201	C	0.911192	0.575513	0.586272
	C202	C	0.093420	0.384255	0.585121
	C203	C	0.911198	0.383192	0.392601
	C204	C	0.904070	0.570685	0.089510
	C205	C	0.095660	0.391352	0.082908
	C206	C	0.097997	0.569422	0.892922
	C207	C	0.905173	0.388110	0.889963
	C208	C	0.097209	0.882698	0.576943
	C209	C	0.097718	0.076490	0.399957
	C210	C	0.906117	0.076388	0.578283
	C211	C	0.907021	0.882524	0.398160
	C212	C	0.592566	0.073810	0.894952
	C213	C	0.411534	0.073392	0.083114
	C214	C	0.594523	0.883360	0.087233
	C215	C	0.412119	0.884882	0.893433
	Zn216	Zn	0.503468	-0.019351	0.739373
	Zn217	Zn	0.501651	-0.020066	0.238253
	Zn218	Zn	0.753035	0.479521	-0.010309
	Zn219	Zn	0.253157	0.480476	-0.010387
	Zn220	Zn	0.002632	0.727778	0.487951
	Zn221	Zn	0.002312	0.230684	0.489883
	Zn222	Zn	0.002325	0.479756	0.738604
	Zn223	Zn	0.002972	0.478669	0.239814
	Zn224	Zn	0.503663	0.731355	-0.009768
	Zn225	Zn	0.502410	0.228508	-0.010906
	Zn226	Zn	0.751624	-0.019588	0.487647
	Zn227	Zn	0.252658	-0.020858	0.488814
	N228	N	0.415202	0.946486	0.670445
	N229	N	0.592995	0.013021	0.671295
	N230	N	0.587660	0.945861	0.309099
	N231	N	0.412966	0.013155	0.306479
	N232	N	0.682482	0.393265	0.955151
	N233	N	0.681510	0.564715	0.025758
	N234	N	0.323054	0.568237	0.955744
	N235	N	0.322959	0.393020	0.023782
	N236	N	0.967371	0.655362	0.404192
	N237	N	0.037494	0.658699	0.575155
	N238	N	0.967696	0.300381	0.576014
	N239	N	0.037868	0.300696	0.403799
	N240	N	0.967398	0.393895	0.667945
	N241	N	0.036455	0.568669	0.670728
	N242	N	0.968162	0.565383	0.309101
	N243	N	0.036607	0.390988	0.308454
	N244	N	0.415965	0.661877	0.956066
	N245	N	0.590418	0.660638	0.025195
	N246	N	0.592307	0.296608	0.956851
	N247	N	0.414318	0.297618	0.022536
	N248	N	0.681630	0.946636	0.401245
	N249	N	0.682363	0.014940	0.574616
	N250	N	0.323261	0.944978	0.575701
	N251	N	0.322600	0.014326	0.402326
	N252	N	0.914474	0.444689	0.171366
	N253	N	0.089636	0.513735	0.169442
	N254	N	0.090295	0.445827	0.808438
	N255	N	0.914726	0.514206	0.808400
	N256	N	0.182027	0.892769	0.453247
	N257	N	0.183240	0.066732	0.523350
	N258	N	0.824304	0.064833	0.452898
	N259	N	0.820828	0.891168	0.520898
	N260	N	0.469835	0.162229	0.899560
	N261	N	0.537037	0.157585	0.074495
	N262	N	0.468743	0.799528	0.077414
	N263	N	0.539050	0.803068	0.905287
	N264	N	0.467216	0.893497	0.168535
	N265	N	0.536115	0.066242	0.168589
	N266	N	0.469808	0.069294	0.807272
	N267	N	0.537900	0.893614	0.809958
	N268	N	0.915009	0.160781	0.454631
	N269	N	0.090055	0.160658	0.523525
	N270	N	0.089231	0.798541	0.453403
	N271	N	0.913542	0.796610	0.520888
	N272	N	0.184476	0.446182	0.901377
	N273	N	0.181944	0.514984	0.075273
	N274	N	0.824239	0.443432	0.075191
	N275	N	0.825673	0.515566	0.905510
	O276	O	-0.194142	0.972043	0.153132
	H277	H	-0.191281	0.977677	0.172697
	H278	H	-0.175632	0.967846	0.143766
	O279	O	0.486603	0.707799	0.513975
	H280	H	0.481493	0.711278	0.508698
	H281	H	0.504262	0.713232	0.516377
	O282	O	1.335678	0.570795	0.590707
	H283	H	1.344837	0.579734	0.603011
	H284	H	1.341414	0.565501	0.601671
	O285	O	0.314329	0.670612	0.681648
	H286	H	0.317948	0.675464	0.670858
	H287	H	0.300598	0.679669	0.696823
	O288	O	0.021902	1.184993	1.209921
	H289	H	0.035353	1.216139	1.237268
	H290	H	0.055034	1.179655	1.196759
	O291	O	0.532765	0.542520	0.496429
	H292	H	0.518954	0.523853	0.502101
	H293	H	0.520616	0.564051	0.498800
	O294	O	1.126209	-0.068464	1.158956
	H295	H	1.115522	-0.064280	1.149687
	H296	H	1.128761	-0.096088	1.161582
	O297	O	0.459149	0.696035	0.278732
	H298	H	0.465449	0.704834	0.273425
	H299	H	0.457982	0.687767	0.266576
	O300	O	0.175631	-0.143642	1.029936
	H301	H	0.181727	-0.124292	1.006222
	H302	H	0.193721	-0.147905	1.051271
	O303	O	0.534008	0.241875	0.529007
	H304	H	0.560137	0.248135	0.534760
	H305	H	0.545615	0.243009	0.560037
	O306	O	0.448139	0.426375	0.522012
	H307	H	0.464761	0.435779	0.535554
	H308	H	0.438121	0.432006	0.507990
	O309	O	0.217061	1.019293	1.209260
	H310	H	0.214663	1.000808	1.212521
	H311	H	0.225164	1.011138	1.223371
	O312	O	0.225461	1.198627	1.008480
	H313	H	0.202757	1.200449	1.043662
	H314	H	0.252699	1.230889	1.018042
	O315	O	0.534172	0.707670	1.715570
	H316	H	0.560112	0.721769	1.729322
	H317	H	0.554277	0.717144	1.728016
	O318	O	0.723474	0.251209	0.450991
	H319	H	0.753135	0.222221	0.438347
	H320	H	0.715593	0.255068	0.412355
	O321	O	-0.202718	1.188956	0.780695
	H322	H	-0.187708	1.187261	0.813912
	H323	H	-0.183664	1.168718	0.787226
	O324	O	0.847855	0.952695	-0.024504
	H325	H	0.873049	0.963913	-0.032547
	H326	H	0.834724	0.950883	-0.032641
	O327	O	0.067000	0.200283	0.981699
	H328	H	0.055312	0.202589	0.959446
	H329	H	0.070129	0.201172	0.996807
	O330	O	0.723807	0.514982	0.724590
	H331	H	0.749158	0.527035	0.739843
	H332	H	0.733388	0.539193	0.718180
	O333	O	0.829194	0.038659	1.107534
	H334	H	0.835588	0.025452	1.110993
	H335	H	0.837922	0.031491	1.104529
	O336	O	0.310338	0.285791	0.295746
	H337	H	0.329802	0.306801	0.310991
	H338	H	0.326289	0.302877	0.319016
	O339	O	0.284127	0.264177	0.701117
	H340	H	0.292310	0.302355	0.691995
	H341	H	0.302806	0.259396	0.663723
	O342	O	-0.300158	0.268014	0.286444
	H343	H	-0.270646	0.267880	0.260401
	H344	H	-0.311684	0.305154	0.283993
	O345	O	0.205303	1.188704	1.199638
	H346	H	0.211942	1.143866	1.199031
	H347	H	0.240661	1.218541	1.231594
	O348	O	-0.013690	-0.075514	0.132038
	H349	H	-0.004088	-0.072418	0.129664
	H350	H	-0.001228	-0.068931	0.123608
	O351	O	0.384140	0.606519	0.449536
	H352	H	0.373118	0.620422	0.457523
	H353	H	0.398744	0.601848	0.457268
	O354	O	-0.026695	0.193052	0.770079
	H355	H	-0.019832	0.183247	0.760093
	H356	H	-0.014164	0.201991	0.753329
	O357	O	0.277904	0.649551	0.348829
	H358	H	0.294453	0.631921	0.349791
	H359	H	0.293691	0.642914	0.355270
	O360	O	0.458669	0.531723	0.668112
	H361	H	0.473613	0.543160	0.666857
	H362	H	0.471128	0.551976	0.663978
	O363	O	-0.034904	-0.234152	0.201747
	H364	H	-0.019702	-0.230308	0.191651
	H365	H	-0.022699	-0.254826	0.196864
	O366	O	0.713943	0.461729	0.521442
	H367	H	0.717960	0.434852	0.519205
	H368	H	0.714010	0.454654	0.542838
	O369	O	1.207034	-0.226504	-0.219500
	H370	H	1.186586	-0.218668	-0.203478
	H371	H	1.190703	-0.224599	-0.207658
	O372	O	1.051129	0.739273	0.058567
	H373	H	1.077340	0.746454	0.055707
	H374	H	1.049854	0.728898	0.045484
	O375	O	0.815120	-0.211588	-0.211464
	H376	H	0.829406	-0.196756	-0.180134
	H377	H	0.839607	-0.185483	-0.207385
	O378	O	0.568520	0.392861	0.507227
	H379	H	0.566517	0.390115	0.510656
	H380	H	0.574858	0.384059	0.505887
	O381	O	0.229039	0.998282	0.998635
	H382	H	0.232520	1.019486	0.994131
	H383	H	0.237423	1.004769	1.004583
	O384	O	0.901046	-0.011443	1.208859
	H385	H	0.905479	0.000926	1.220272
	H386	H	0.923395	-0.031338	1.209835
	O387	O	1.437181	1.260439	-0.591818
	H388	H	1.460973	1.262482	-0.574854
	H389	H	1.457757	1.248754	-0.602867
	O390	O	0.316492	0.585367	0.426685
	H391	H	0.330178	0.579147	0.412173
	H392	H	0.315721	0.584890	0.435555
	O393	O	0.455067	0.428418	0.277508
	H394	H	0.464514	0.428305	0.288293
	H395	H	0.470035	0.401782	0.274321
	O396	O	0.141879	0.939566	0.831535
	H397	H	0.153324	0.942949	0.821741
	H398	H	0.151587	0.933589	0.838959
	O399	O	-0.209656	-0.225067	1.209356
	H400	H	-0.178841	-0.238660	1.213643
	H401	H	-0.199891	-0.189616	1.209146
	O402	O	0.214061	0.784132	0.213508
	H403	H	0.235660	0.783675	0.220328
	H404	H	0.215298	0.765331	0.233593
	O405	O	1.219251	-0.242315	0.957233
	H406	H	1.247085	-0.266163	0.952931
	H407	H	1.213666	-0.224799	0.967247
	O408	O	0.225590	-0.001125	-0.148881
	H409	H	0.229925	0.024142	-0.145379
	H410	H	0.232178	-0.009893	-0.169819
	O411	O	1.183592	1.165265	0.801579
	H412	H	1.216619	1.197781	0.771124
	H413	H	1.186140	1.160318	0.836229
	O414	O	0.286910	0.417814	0.438496
	H415	H	0.282765	0.429408	0.463613
	H416	H	0.289880	0.421690	0.449288
	O417	O	0.564381	0.419890	0.488646
	H418	H	0.586432	0.405894	0.486387
	H419	H	0.568302	0.421020	0.501032
	O420	O	0.635884	0.552832	0.512225
	H421	H	0.641859	0.523686	0.513909
	H422	H	0.611927	0.560758	0.511613
	O423	O	-0.207966	0.192205	0.957612
	H424	H	-0.220395	0.179579	0.973614
	H425	H	-0.215365	0.196690	0.969198
	O426	O	0.347220	0.424696	0.677816
	H427	H	0.365958	0.426877	0.683763
	H428	H	0.335084	0.424204	0.696606
	O429	O	0.987819	0.768620	0.916144
	H430	H	0.966148	0.786951	0.921202
	H431	H	1.010854	0.775955	0.920099
	O432	O	1.036088	-0.240446	0.758140
	H433	H	1.031987	-0.266368	0.731486
	H434	H	1.030169	-0.243874	0.778875
	O435	O	0.304081	1.273213	0.538023
	H436	H	0.320712	1.262597	0.518256
	H437	H	0.307500	1.273867	0.526194
	O438	O	0.690019	0.289153	-0.315679
	H439	H	0.670254	0.289913	-0.306532
	H440	H	0.708210	0.262284	-0.289537
	O441	O	-0.055063	-0.084209	-0.251773
	H442	H	-0.040103	-0.085636	-0.246261
	H443	H	-0.044763	-0.065639	-0.255313
	O444	O	0.711601	0.699483	0.517310
	H445	H	0.721628	0.700164	0.525462
	H446	H	0.722382	0.696072	0.521835
	O447	O	-0.103087	1.056261	0.882255
	H448	H	-0.098978	1.076208	0.890856
	H449	H	-0.105615	1.064522	0.870662
	O450	O	0.056930	1.040216	0.752164
	H451	H	0.085339	1.026335	0.760454
	H452	H	0.077336	1.060561	0.748333
	O453	O	0.706055	0.690518	0.702405
	H454	H	0.709390	0.677182	0.669924
	H455	H	0.743152	0.723219	0.729568
	O456	O	-0.220446	-0.242215	1.032183
	H457	H	-0.240544	-0.264239	1.048673
	H458	H	-0.214182	-0.246397	1.057944
	O459	O	0.942500	1.203629	0.027243
	H460	H	0.940309	1.207559	0.025912
	H461	H	0.939457	1.202854	0.024021
	O462	O	0.540756	0.529890	0.317022
	H463	H	0.545264	0.519157	0.324869
	H464	H	0.555870	0.522546	0.328193
	O465	O	0.813155	-0.000989	-0.216748
	H466	H	0.794193	0.000135	-0.239952
	H467	H	0.822896	0.002254	-0.216547
	O468	O	0.692210	0.669981	0.301574
	H469	H	0.708049	0.687573	0.286162
	H470	H	0.677707	0.674769	0.325083
	O471	O	0.480320	0.684106	0.392679
	H472	H	0.486244	0.667150	0.396224
	H473	H	0.478133	0.689089	0.403647
	O474	O	0.557478	0.431325	0.726342
	H475	H	0.570598	0.439066	0.728420
	H476	H	0.577405	0.450697	0.728877
	O477	O	0.493489	0.256863	1.708224
	H478	H	0.484938	0.275754	1.715748
	H479	H	0.477859	0.245053	1.730121
	O480	O	0.726230	0.424984	0.262612
	H481	H	0.713517	0.456889	0.277188
	H482	H	0.759285	0.436794	0.234148
	O483	O	0.280644	0.512343	0.365562
	H484	H	0.281509	0.515462	0.361406
	H485	H	0.279734	0.511482	0.374117
	O486	O	0.531781	0.256879	0.268180
	H487	H	0.563397	0.267771	0.282699
	H488	H	0.533718	0.227436	0.242874
	O489	O	1.036878	0.983722	-0.075313
	H490	H	1.022215	0.983738	-0.074351
	H491	H	1.039460	1.000236	-0.076945
	O492	O	-0.182868	0.166734	0.174009
	H493	H	-0.189412	0.150024	0.164989
	H494	H	-0.150511	0.154736	0.168760
	O495	O	-0.175552	0.860706	0.940340
	H496	H	-0.176012	0.880529	0.943895
	H497	H	-0.194952	0.838876	0.962018
	O498	O	1.065912	1.056744	1.075723
	H499	H	1.073158	1.063607	1.067176
	H500	H	1.077685	1.073779	1.075566
	O501	O	0.660495	0.538730	0.409503
	H502	H	0.664749	0.532703	0.438925
	H503	H	0.659039	0.564418	0.401284
