data_Molecule from HDF5

_cell_length_a		16.452612
_cell_length_b		16.318544
_cell_length_c		16.232623
_cell_angle_alpha	89.774270
_cell_angle_beta	90.088656
_cell_angle_gamma	90.039088
_symmetry_space_group_name_H-M	'P 1'
_symmetry_Int_Tables_number		1

loop_
	_symmetry_equiv_pos_as_xyz
	x,y,z

loop_
	_atom_site_label
	_atom_site_type_symbol
	_atom_site_fract_x
	_atom_site_fract_y
	_atom_site_fract_z
	H0	H	0.379110	0.835459	0.715284
	H1	H	0.585121	0.157030	0.713554
	H2	H	0.582069	0.833609	0.280486
	H3	H	0.376526	0.155695	0.274181
	H4	H	0.704483	0.390056	0.836691
	H5	H	0.705708	0.602938	0.155604
	H6	H	0.261866	0.601611	0.834356
	H7	H	0.261139	0.388915	0.156154
	H8	H	0.824220	0.718315	0.389416
	H9	H	0.142866	0.717739	0.598185
	H10	H	0.825661	0.275302	0.603023
	H11	H	0.141308	0.274152	0.389296
	H12	H	0.824757	0.393270	0.714933
	H13	H	0.143275	0.602401	0.715412
	H14	H	0.823859	0.601424	0.274071
	H15	H	0.143926	0.395329	0.278206
	H16	H	0.378464	0.716058	0.834364
	H17	H	0.586528	0.713999	0.157399
	H18	H	0.587012	0.276672	0.834625
	H19	H	0.377027	0.274734	0.156663
	H20	H	0.702721	0.836172	0.392052
	H21	H	0.704043	0.155367	0.602563
	H22	H	0.258851	0.837482	0.604906
	H23	H	0.260139	0.154983	0.387501
	H24	H	0.880220	0.336400	0.216514
	H25	H	0.084278	0.658041	0.211086
	H26	H	0.084756	0.335275	0.777226
	H27	H	0.879788	0.657244	0.775291
	H28	H	0.204139	0.891138	0.336763
	H29	H	0.205906	0.103413	0.654895
	H30	H	0.761899	0.102537	0.335385
	H31	H	0.764573	0.892469	0.657186
	H32	H	0.324209	0.217922	0.888558
	H33	H	0.640911	0.215865	0.101286
	H34	H	0.322986	0.774312	0.100481
	H35	H	0.642128	0.776303	0.893585
	H36	H	0.321482	0.891967	0.215427
	H37	H	0.640870	0.099427	0.216468
	H38	H	0.322863	0.099189	0.774971
	H39	H	0.643004	0.892652	0.777092
	H40	H	0.879462	0.216623	0.335104
	H41	H	0.086203	0.213886	0.658537
	H42	H	0.085924	0.781013	0.333803
	H43	H	0.879859	0.776843	0.656279
	H44	H	0.204197	0.336603	0.887496
	H45	H	0.204189	0.655257	0.100338
	H46	H	0.760947	0.337442	0.104765
	H47	H	0.760359	0.655404	0.888077
	H48	H	0.385399	0.112361	0.582806
	H49	H	0.575640	0.881300	0.583422
	H50	H	0.574642	0.110891	0.409016
	H51	H	0.391800	0.882980	0.411386
	H52	H	0.575339	0.408121	0.112036
	H53	H	0.575787	0.581824	0.881111
	H54	H	0.396933	0.587210	0.110416
	H55	H	0.399141	0.398324	0.879940
	H56	H	0.097210	0.589784	0.404456
	H57	H	0.873565	0.583008	0.577092
	H58	H	0.095477	0.406042	0.577362
	H59	H	0.874629	0.412295	0.414021
	H60	H	0.096784	0.413787	0.589210
	H61	H	0.869674	0.583062	0.591874
	H62	H	0.096393	0.588240	0.404927
	H63	H	0.868305	0.412413	0.397464
	H64	H	0.387175	0.586052	0.112434
	H65	H	0.567715	0.582567	0.883056
	H66	H	0.568856	0.408896	0.108724
	H67	H	0.382415	0.408173	0.877069
	H68	H	0.570884	0.111108	0.403052
	H69	H	0.575257	0.879277	0.588538
	H70	H	0.394802	0.112215	0.591185
	H71	H	0.388647	0.880135	0.407309
	H72	H	0.894760	0.611346	0.085001
	H73	H	0.073272	0.378625	0.089712
	H74	H	0.075011	0.612174	0.903805
	H75	H	0.890960	0.384457	0.916645
	H76	H	0.070771	0.911121	0.609784
	H77	H	0.071751	0.081574	0.382875
	H78	H	0.895377	0.084591	0.609312
	H79	H	0.886659	0.906491	0.377693
	H80	H	0.597056	0.094639	0.911228
	H81	H	0.368276	0.083402	0.086891
	H82	H	0.597450	0.904805	0.093928
	H83	H	0.369039	0.901896	0.907869
	H84	H	0.596895	0.899786	0.085245
	H85	H	0.367308	0.087702	0.083803
	H86	H	0.591533	0.078444	0.910326
	H87	H	0.371617	0.909171	0.908797
	H88	H	0.891809	0.089211	0.612773
	H89	H	0.067321	0.087675	0.383244
	H90	H	0.068453	0.907598	0.609730
	H91	H	0.890584	0.914151	0.381511
	H92	H	0.070094	0.609677	0.906022
	H93	H	0.068503	0.383547	0.083925
	H94	H	0.894239	0.609266	0.080623
	H95	H	0.886471	0.378215	0.901268
	H96	H	0.396258	0.107520	0.579356
	H97	H	0.571178	0.881601	0.585605
	H98	H	0.568527	0.109212	0.409086
	H99	H	0.393874	0.881789	0.406503
	H100	H	0.571086	0.402470	0.111484
	H101	H	0.571235	0.588621	0.879885
	H102	H	0.392252	0.578061	0.109059
	H103	H	0.397837	0.416744	0.886529
	H104	H	0.097418	0.588635	0.403496
	H105	H	0.868192	0.595335	0.583526
	H106	H	0.100599	0.400655	0.589568
	H107	H	0.867581	0.397976	0.406926
	H108	H	0.890188	0.611179	0.082928
	H109	H	0.076183	0.381040	0.081987
	H110	H	0.075323	0.609885	0.909147
	H111	H	0.902019	0.384724	0.903652
	H112	H	0.072352	0.907206	0.611401
	H113	H	0.073731	0.087952	0.380078
	H114	H	0.889608	0.083116	0.611971
	H115	H	0.895519	0.905909	0.379897
	H116	H	0.598554	0.085896	0.897024
	H117	H	0.370143	0.083449	0.082117
	H118	H	0.593946	0.908787	0.085118
	H119	H	0.368642	0.906877	0.902088
	C120	C	0.360434	0.004782	0.617234
	C121	C	0.604703	0.987201	0.617508
	C122	C	0.602976	0.004409	0.375401
	C123	C	0.359687	0.987142	0.374917
	C124	C	0.604008	0.374154	0.004635
	C125	C	0.603751	0.616434	0.987491
	C126	C	0.360785	0.616504	0.004012
	C127	C	0.360948	0.374447	0.987146
	C128	C	-0.008241	0.620024	0.372420
	C129	C	0.975519	0.619053	0.616171
	C130	C	-0.007359	0.375253	0.617685
	C131	C	0.975019	0.375641	0.374343
	C132	C	0.861314	0.505122	0.116784
	C133	C	0.104110	0.487186	0.116487
	C134	C	0.105096	0.504905	0.873873
	C135	C	0.861360	0.487966	0.874400
	C136	C	0.102821	0.877007	0.504358
	C137	C	0.103711	0.118020	0.487958
	C138	C	0.860790	0.118306	0.505064
	C139	C	0.860733	0.876396	0.486533
	C140	C	0.490746	0.117792	0.873557
	C141	C	0.473321	0.116894	0.117105
	C142	C	0.490627	0.872937	0.119050
	C143	C	0.474667	0.874354	0.874524
	C144	C	0.359371	0.884090	0.676853
	C145	C	0.604649	0.108291	0.675531
	C146	C	0.602372	0.882669	0.318491
	C147	C	0.357991	0.107371	0.313844
	C148	C	0.664264	0.371869	0.884301
	C149	C	0.664570	0.619644	0.107915
	C150	C	0.301720	0.619415	0.882847
	C151	C	0.300831	0.371049	0.108001
	C152	C	0.871918	0.679033	0.370773
	C153	C	0.095167	0.678323	0.617323
	C154	C	0.873271	0.315395	0.620591
	C155	C	0.094318	0.315268	0.371859
	C156	C	0.872666	0.374160	0.676483
	C157	C	0.095391	0.620594	0.675690
	C158	C	0.871753	0.620685	0.313428
	C159	C	0.095474	0.375182	0.316142
	C160	C	0.359996	0.676442	0.882783
	C161	C	0.605271	0.675290	0.108866
	C162	C	0.605725	0.315369	0.883502
	C163	C	0.358714	0.314143	0.108145
	C164	C	0.662453	0.883846	0.373858
	C165	C	0.663662	0.107724	0.620000
	C166	C	0.299503	0.885259	0.621655
	C167	C	0.299711	0.107079	0.370190
	C168	C	0.860869	0.384647	0.176919
	C169	C	0.104343	0.609087	0.173519
	C170	C	0.104869	0.383909	0.815304
	C171	C	0.860628	0.609065	0.815013
	C172	C	0.163446	0.874078	0.384083
	C173	C	0.165017	0.121038	0.607676
	C174	C	0.801579	0.120450	0.383731
	C175	C	0.803230	0.873818	0.608568
	C176	C	0.371479	0.177620	0.870841
	C177	C	0.593324	0.175833	0.119175
	C178	C	0.370633	0.813612	0.119662
	C179	C	0.594604	0.815579	0.874034
	C180	C	0.369922	0.872229	0.176889
	C181	C	0.593192	0.117980	0.176598
	C182	C	0.370739	0.118471	0.814308
	C183	C	0.594910	0.873540	0.816152
	C184	C	0.860120	0.177445	0.383562
	C185	C	0.105278	0.175948	0.609343
	C186	C	0.104426	0.819296	0.382562
	C187	C	0.860671	0.816500	0.607900
	C188	C	0.164252	0.384426	0.870789
	C189	C	0.163991	0.607759	0.118458
	C190	C	0.801416	0.384961	0.121182
	C191	C	0.800992	0.607889	0.871041
	C192	C	0.384980	0.088626	0.591666
	C193	C	0.580827	0.902759	0.592995
	C194	C	0.578511	0.088496	0.400124
	C195	C	0.384250	0.903558	0.401156
	C196	C	0.579055	0.399354	0.088770
	C197	C	0.578817	0.591493	0.903269
	C198	C	0.385061	0.590981	0.088536
	C199	C	0.385866	0.400329	0.903079
	C200	C	0.075277	0.595705	0.397038
	C201	C	0.892178	0.594205	0.591513
	C202	C	0.075809	0.399766	0.592483
	C203	C	0.891702	0.400378	0.399061
	C204	C	0.885815	0.588794	0.090494
	C205	C	0.079791	0.403042	0.092111
	C206	C	0.080601	0.588777	0.899084
	C207	C	0.886028	0.404272	0.899760
	C208	C	0.077846	0.901746	0.588386
	C209	C	0.078230	0.092785	0.403787
	C210	C	0.885178	0.092905	0.589509
	C211	C	0.884072	0.901615	0.401877
	C212	C	0.574089	0.093424	0.898813
	C213	C	0.390193	0.092178	0.091802
	C214	C	0.574202	0.897381	0.095006
	C215	C	0.391281	0.898963	0.899104
	Zn216	Zn	0.482754	-0.004302	0.744775
	Zn217	Zn	0.481119	-0.004156	0.246825
	Zn218	Zn	0.732315	0.495932	-0.003824
	Zn219	Zn	0.232232	0.495021	-0.004329
	Zn220	Zn	-0.016805	0.749229	0.494337
	Zn221	Zn	-0.016319	0.246582	0.496330
	Zn222	Zn	-0.016559	0.496961	0.745720
	Zn223	Zn	-0.016023	0.496993	0.244565
	Zn224	Zn	0.482502	0.744500	-0.003857
	Zn225	Zn	0.482160	0.246364	-0.004225
	Zn226	Zn	0.732503	-0.003370	0.496357
	Zn227	Zn	0.231718	-0.003512	0.496088
	N228	N	0.396441	0.959393	0.674236
	N229	N	0.568572	0.032223	0.674017
	N230	N	0.566117	0.958644	0.319238
	N231	N	0.394370	0.031667	0.316462
	N232	N	0.663432	0.407648	0.960724
	N233	N	0.663633	0.583668	0.031341
	N234	N	0.302060	0.582876	0.959169
	N235	N	0.302030	0.407849	0.031644
	N236	N	0.947538	0.679129	0.406424
	N237	N	0.019536	0.677635	0.581195
	N238	N	0.948765	0.315977	0.584510
	N239	N	0.018416	0.315336	0.407184
	N240	N	0.947842	0.410719	0.674927
	N241	N	0.019836	0.584477	0.675079
	N242	N	0.947341	0.584945	0.313980
	N243	N	0.020310	0.411932	0.317412
	N244	N	0.395921	0.674745	0.959405
	N245	N	0.567902	0.673130	0.033110
	N246	N	0.568951	0.316696	0.959521
	N247	N	0.395369	0.316002	0.032070
	N248	N	0.662813	0.960606	0.408674
	N249	N	0.664117	0.031239	0.584925
	N250	N	0.299855	0.961572	0.585355
	N251	N	0.300624	0.031310	0.407594
	N252	N	0.897258	0.460422	0.174462
	N253	N	0.067779	0.533300	0.172362
	N254	N	0.068667	0.459767	0.817119
	N255	N	0.897322	0.533447	0.816778
	N256	N	0.162621	0.909382	0.460768
	N257	N	0.163951	0.085568	0.531231
	N258	N	0.801913	0.084517	0.460478
	N259	N	0.803504	0.910589	0.532350
	N260	N	0.447064	0.177437	0.906852
	N261	N	0.517735	0.175600	0.083212
	N262	N	0.446822	0.813571	0.084733
	N263	N	0.518943	0.816065	0.909622
	N264	N	0.445412	0.908328	0.176544
	N265	N	0.517514	0.082024	0.175446
	N266	N	0.446072	0.082126	0.815699
	N267	N	0.519107	0.909042	0.816189
	N268	N	0.896244	0.176350	0.459963
	N269	N	0.067901	0.174192	0.533599
	N270	N	0.067334	0.821073	0.458266
	N271	N	0.895545	0.817524	0.530822
	N272	N	0.164486	0.460794	0.906270
	N273	N	0.164008	0.530971	0.083831
	N274	N	0.801623	0.460940	0.084518
	N275	N	0.801119	0.531548	0.907031
	O276	O	1.032993	0.023049	-0.175294
	H277	H	1.031917	0.034765	-0.167771
	H278	H	1.048608	0.024494	-0.168513
	O279	O	0.311539	0.553563	0.570201
	H280	H	0.311232	0.574675	0.564981
	H281	H	0.315806	0.531572	0.559356
	O282	O	0.662738	0.484324	0.292376
	H283	H	0.647071	0.496402	0.293091
	H284	H	0.680482	0.492700	0.275631
	O285	O	1.090337	0.088611	-0.094479
	H286	H	1.087342	0.086152	-0.078956
	H287	H	1.094574	0.085216	-0.083782
	O288	O	0.131619	0.149061	1.042870
	H289	H	0.117292	0.153061	1.060222
	H290	H	0.138385	0.135812	1.053224
	O291	O	0.555452	0.287068	0.288004
	H292	H	0.562404	0.277683	0.256915
	H293	H	0.596351	0.292131	0.314805
	O294	O	0.485774	0.289661	0.425742
	H295	H	0.502150	0.289903	0.435945
	H296	H	0.504108	0.290416	0.407376
	O297	O	0.862496	0.965777	0.898678
	H298	H	0.855529	0.976722	0.886009
	H299	H	0.867457	0.972126	0.897511
	O300	O	-0.144610	-0.160552	0.004997
	H301	H	-0.138604	-0.153260	-0.019449
	H302	H	-0.145609	-0.175287	-0.002167
	O303	O	0.549988	0.367586	0.568464
	H304	H	0.544649	0.366419	0.583788
	H305	H	0.539372	0.390741	0.563989
	O306	O	1.030111	0.053435	-0.025305
	H307	H	1.029115	0.065566	-0.016193
	H308	H	1.021320	0.054954	-0.041865
	O309	O	1.135624	1.117066	0.912889
	H310	H	1.129028	1.120306	0.934460
	H311	H	1.155111	1.130358	0.913974
	O312	O	1.047991	1.177504	0.112484
	H313	H	1.043255	1.161652	0.132595
	H314	H	1.017769	1.179357	0.107518
	O315	O	1.025821	-0.189669	0.013512
	H316	H	1.032837	-0.179671	-0.014041
	H317	H	1.032109	-0.200737	0.007797
	O318	O	0.301819	0.594746	0.469180
	H319	H	0.295042	0.605572	0.468748
	H320	H	0.305656	0.602409	0.483464
	O321	O	0.869250	0.037151	1.167927
	H322	H	0.858888	0.032795	1.155159
	H323	H	0.867316	0.029676	1.161118
	O324	O	-0.093562	-0.114311	1.094025
	H325	H	-0.101774	-0.123967	1.099913
	H326	H	-0.110188	-0.108057	1.091216
	O327	O	0.487472	0.458412	0.358240
	H328	H	0.508187	0.453621	0.362255
	H329	H	0.490985	0.450843	0.348510
	O330	O	0.740844	0.279890	0.694049
	H331	H	0.735055	0.284347	0.702199
	H332	H	0.745201	0.286798	0.703599
	O333	O	1.686637	1.583204	0.574833
	H334	H	1.666278	1.567962	0.566328
	H335	H	1.704385	1.577866	0.587257
	O336	O	0.345764	0.660537	0.440183
	H337	H	0.334334	0.641074	0.431601
	H338	H	0.335569	0.658698	0.461625
	O339	O	1.009513	0.145517	0.905246
	H340	H	1.020474	0.152252	0.903760
	H341	H	1.020490	0.168269	0.913839
	O342	O	0.067107	0.850123	1.026051
	H343	H	0.067549	0.840915	1.006221
	H344	H	0.071747	0.836811	1.031959
	O345	O	0.447048	0.518750	1.607314
	H346	H	0.433411	0.514576	1.605897
	H347	H	0.455372	0.529389	1.605288
	O348	O	0.483651	0.554770	0.296909
	H349	H	0.474335	0.561996	0.296075
	H350	H	0.478778	0.549022	0.301461
	O351	O	0.061951	-0.080021	-0.102145
	H352	H	0.068295	-0.086486	-0.115299
	H353	H	0.066106	-0.069158	-0.088109
	O354	O	0.994813	1.006453	0.063650
	H355	H	0.984716	1.009554	0.068806
	H356	H	1.004994	0.997237	0.053854
	O357	O	0.170352	0.910275	-0.061342
	H358	H	0.164058	0.913401	-0.050320
	H359	H	0.175888	0.920125	-0.057224
	O360	O	0.682993	0.390503	0.464769
	H361	H	0.692698	0.374411	0.491948
	H362	H	0.657457	0.390770	0.473767
	O363	O	0.337815	0.340552	0.444740
	H364	H	0.338140	0.322087	0.442370
	H365	H	0.355729	0.326489	0.434754
	O366	O	-0.225955	1.127388	-0.105518
	H367	H	-0.243630	1.150805	-0.109185
	H368	H	-0.228278	1.117425	-0.101197
	O369	O	0.512139	0.579101	0.505673
	H370	H	0.501195	0.578039	0.481905
	H371	H	0.512713	0.581016	0.503905
	O372	O	0.674381	0.304635	0.368338
	H373	H	0.683185	0.343054	0.369684
	H374	H	0.695648	0.286834	0.403020
	O375	O	0.463062	0.690899	0.342230
	H376	H	0.453725	0.701389	0.327238
	H377	H	0.440628	0.691726	0.332296
	O378	O	0.410443	0.481770	0.486505
	H379	H	0.415180	0.476727	0.472083
	H380	H	0.388497	0.496646	0.496471
	O381	O	0.601983	0.466173	0.586629
	H382	H	0.596982	0.460881	0.581938
	H383	H	0.595021	0.466757	0.580992
	O384	O	-0.080837	0.885449	0.977265
	H385	H	-0.076183	0.884233	0.977187
	H386	H	-0.067144	0.886465	0.974096
	O387	O	0.892513	1.130786	-0.021635
	H388	H	0.895991	1.146327	-0.027617
	H389	H	0.891094	1.115822	-0.023114
	O390	O	0.460229	0.612715	0.612256
	H391	H	0.482726	0.613889	0.606316
	H392	H	0.465698	0.623537	0.625007
	O393	O	0.923475	0.157342	1.095340
	H394	H	0.902234	0.148217	1.084556
	H395	H	0.920526	0.156218	1.090408
	O396	O	0.176219	0.829011	0.889217
	H397	H	0.181437	0.842151	0.891746
	H398	H	0.178991	0.834342	0.902703
	O399	O	0.642786	0.680833	1.582489
	H400	H	0.658701	0.687781	1.573928
	H401	H	0.628906	0.667615	1.561480
	O402	O	0.813874	0.011294	0.906836
	H403	H	0.809483	-0.003580	0.896735
	H404	H	0.824069	0.010853	0.901053
	O405	O	-0.708984	0.547777	-0.669584
	H406	H	-0.698741	0.530133	-0.652722
	H407	H	-0.718944	0.530138	-0.686896
	O408	O	0.873423	0.892020	1.182342
	H409	H	0.883321	0.892856	1.176003
	H410	H	0.864761	0.881877	1.168584
	O411	O	1.408826	1.325518	-0.378639
	H412	H	1.389969	1.323521	-0.370860
	H413	H	1.391526	1.298538	-0.363570
	O414	O	0.524356	-0.450127	1.647144
	H415	H	0.549351	-0.442837	1.648029
	H416	H	0.536865	-0.436661	1.651462
	O417	O	0.334107	0.529992	0.616461
	H418	H	0.343003	0.539094	0.602194
	H419	H	0.314510	0.529504	0.636868
	O420	O	-0.154632	0.917019	0.022282
	H421	H	-0.143643	0.927076	0.019954
	H422	H	-0.153923	0.900631	0.025482
	O423	O	1.121037	-0.079324	0.145851
	H424	H	1.121911	-0.072681	0.151025
	H425	H	1.119011	-0.081938	0.138984
	O426	O	0.663461	0.642737	1.678881
	H427	H	0.663762	0.630362	1.669688
	H428	H	0.669630	0.649468	1.665348
	O429	O	0.303263	0.324540	0.647814
	H430	H	0.302020	0.352924	0.650380
	H431	H	0.293304	0.327546	0.622330
