data_Molecule from HDF5

_cell_length_a		16.238482
_cell_length_b		16.260312
_cell_length_c		16.291682
_cell_angle_alpha	90.043960
_cell_angle_beta	90.039938
_cell_angle_gamma	90.063815
_symmetry_space_group_name_H-M	'P 1'
_symmetry_Int_Tables_number		1

loop_
	_symmetry_equiv_pos_as_xyz
	x,y,z

loop_
	_atom_site_label
	_atom_site_type_symbol
	_atom_site_fract_x
	_atom_site_fract_y
	_atom_site_fract_z
	H0	H	0.405876	0.828443	0.708867
	H1	H	0.601881	0.156232	0.710013
	H2	H	0.602208	0.828696	0.280030
	H3	H	0.405849	0.156014	0.280706
	H4	H	0.716939	0.394615	0.830478
	H5	H	0.717844	0.589565	0.158580
	H6	H	0.289617	0.589334	0.830643
	H7	H	0.289329	0.394298	0.158771
	H8	H	0.839016	0.705478	0.398514
	H9	H	0.167587	0.707131	0.593697
	H10	H	0.839546	0.279419	0.591492
	H11	H	0.167428	0.279170	0.396806
	H12	H	0.839554	0.394519	0.708631
	H13	H	0.168134	0.590375	0.708309
	H14	H	0.839110	0.590762	0.281414
	H15	H	0.167113	0.395366	0.281425
	H16	H	0.404884	0.706874	0.831579
	H17	H	0.602503	0.706770	0.158868
	H18	H	0.600151	0.278367	0.830611
	H19	H	0.406050	0.278510	0.159090
	H20	H	0.717245	0.828526	0.396846
	H21	H	0.717445	0.157518	0.592559
	H22	H	0.290796	0.828034	0.591549
	H23	H	0.289567	0.156450	0.396852
	H24	H	0.905029	0.328797	0.209587
	H25	H	0.102681	0.656319	0.209796
	H26	H	0.101772	0.328925	0.780873
	H27	H	0.905260	0.657188	0.780520
	H28	H	0.217165	0.895079	0.331038
	H29	H	0.217533	0.090472	0.658610
	H30	H	0.787808	0.091422	0.331223
	H31	H	0.788842	0.894361	0.658264
	H32	H	0.338810	0.204384	0.898035
	H33	H	0.667432	0.206763	0.093356
	H34	H	0.339103	0.778106	0.091812
	H35	H	0.668348	0.778899	0.897807
	H36	H	0.339210	0.893048	0.208658
	H37	H	0.667811	0.089936	0.208710
	H38	H	0.338983	0.089171	0.782311
	H39	H	0.668130	0.894617	0.781004
	H40	H	0.904810	0.206712	0.330997
	H41	H	0.101454	0.206395	0.658916
	H42	H	0.101715	0.778392	0.330993
	H43	H	0.904909	0.778292	0.658508
	H44	H	0.214403	0.327673	0.898775
	H45	H	0.217767	0.656221	0.092732
	H46	H	0.790280	0.328073	0.092013
	H47	H	0.790048	0.657414	0.897444
	H48	H	0.409004	0.110285	0.590431
	H49	H	0.594829	0.874818	0.595221
	H50	H	0.590039	0.107563	0.398477
	H51	H	0.405773	0.874812	0.402654
	H52	H	0.598183	0.402373	0.111183
	H53	H	0.603684	0.582399	0.877255
	H54	H	0.405721	0.579813	0.110314
	H55	H	0.407573	0.399649	0.877969
	H56	H	0.120925	0.586051	0.401223
	H57	H	0.888877	0.586367	0.579299
	H58	H	0.120018	0.401752	0.587535
	H59	H	0.884537	0.400402	0.397857
	H60	H	0.122096	0.398852	0.590723
	H61	H	0.888594	0.576629	0.591466
	H62	H	0.120825	0.587079	0.401621
	H63	H	0.885493	0.395864	0.402703
	H64	H	0.416595	0.584938	0.109455
	H65	H	0.590431	0.582011	0.881302
	H66	H	0.593872	0.397995	0.110410
	H67	H	0.411518	0.398430	0.879317
	H68	H	0.597678	0.107548	0.409006
	H69	H	0.591534	0.878614	0.583686
	H70	H	0.411474	0.109445	0.590111
	H71	H	0.410391	0.873874	0.397371
	H72	H	0.900772	0.610930	0.082758
	H73	H	0.102153	0.375828	0.078876
	H74	H	0.097813	0.609276	0.903869
	H75	H	0.910982	0.376886	0.900678
	H76	H	0.089609	0.899846	0.609313
	H77	H	0.095596	0.087933	0.377752
	H78	H	0.915442	0.080623	0.607751
	H79	H	0.888914	0.901818	0.372785
	H80	H	0.622874	0.098256	0.908406
	H81	H	0.385774	0.079855	0.095612
	H82	H	0.619543	0.898586	0.084176
	H83	H	0.387068	0.903615	0.899569
	H84	H	0.618988	0.903020	0.088542
	H85	H	0.383556	0.093824	0.088838
	H86	H	0.615219	0.074645	0.910194
	H87	H	0.384665	0.894438	0.898163
	H88	H	0.913367	0.093848	0.612710
	H89	H	0.099208	0.086348	0.376810
	H90	H	0.099456	0.892885	0.614261
	H91	H	0.921665	0.916259	0.386756
	H92	H	0.097971	0.610397	0.899536
	H93	H	0.101318	0.371299	0.097932
	H94	H	0.910310	0.612724	0.099209
	H95	H	0.910462	0.375626	0.901375
	H96	H	0.409891	0.110080	0.587506
	H97	H	0.603259	0.874313	0.586282
	H98	H	0.601474	0.112200	0.397520
	H99	H	0.412818	0.876210	0.403099
	H100	H	0.600071	0.395935	0.112314
	H101	H	0.595701	0.593491	0.876121
	H102	H	0.407676	0.591121	0.113759
	H103	H	0.408720	0.395776	0.877395
	H104	H	0.120431	0.586580	0.402056
	H105	H	0.883089	0.591328	0.593544
	H106	H	0.120479	0.397760	0.586664
	H107	H	0.887857	0.402671	0.404200
	H108	H	0.919144	0.604949	0.083484
	H109	H	0.085483	0.379186	0.089362
	H110	H	0.094236	0.609796	0.901027
	H111	H	0.910461	0.376123	0.900847
	H112	H	0.101561	0.904765	0.611479
	H113	H	0.096839	0.083764	0.379188
	H114	H	0.902736	0.084467	0.612850
	H115	H	0.919827	0.879710	0.375409
	H116	H	0.623476	0.083561	0.888613
	H117	H	0.389958	0.081473	0.080648
	H118	H	0.621519	0.897643	0.090115
	H119	H	0.388616	0.896801	0.906821
	C120	C	0.382289	0.001034	0.616875
	C121	C	0.625227	0.984290	0.616652
	C122	C	0.624740	0.000944	0.373489
	C123	C	0.381864	0.983742	0.373153
	C124	C	0.625169	0.370706	0.002849
	C125	C	0.624976	0.613950	0.986620
	C126	C	0.381971	0.613319	0.003072
	C127	C	0.381149	0.369899	0.986723
	C128	C	0.012112	0.614370	0.373542
	C129	C	0.995232	0.613932	0.616477
	C130	C	0.012349	0.370965	0.616666
	C131	C	0.994604	0.371727	0.373566
	C132	C	0.881886	0.500924	0.116527
	C133	C	0.125049	0.483999	0.116757
	C134	C	0.124588	0.501231	0.873571
	C135	C	0.882046	0.485072	0.873296
	C136	C	0.125202	0.870981	0.503271
	C137	C	0.125222	0.114283	0.486423
	C138	C	0.881958	0.114288	0.502952
	C139	C	0.881773	0.871004	0.486601
	C140	C	0.511888	0.113235	0.874203
	C141	C	0.494862	0.113778	0.116588
	C142	C	0.511686	0.870658	0.116112
	C143	C	0.495495	0.870480	0.873145
	C144	C	0.385466	0.877060	0.670698
	C145	C	0.622058	0.107921	0.671429
	C146	C	0.622286	0.877293	0.318562
	C147	C	0.384948	0.107146	0.318299
	C148	C	0.679499	0.373435	0.879344
	C149	C	0.679949	0.610700	0.110008
	C150	C	0.327322	0.610156	0.879459
	C151	C	0.326596	0.373173	0.109894
	C152	C	0.888182	0.668633	0.376960
	C153	C	0.118687	0.669223	0.613804
	C154	C	0.888670	0.316409	0.613292
	C155	C	0.118408	0.316965	0.376419
	C156	C	0.888683	0.373972	0.671131
	C157	C	0.119052	0.611522	0.670922
	C158	C	0.888116	0.611359	0.319101
	C159	C	0.118227	0.374559	0.319123
	C160	C	0.384200	0.668723	0.880006
	C161	C	0.622379	0.668519	0.110112
	C162	C	0.621497	0.315956	0.879353
	C163	C	0.384536	0.315579	0.109949
	C164	C	0.679645	0.877399	0.376234
	C165	C	0.679716	0.108194	0.613623
	C166	C	0.328076	0.877205	0.612907
	C167	C	0.327609	0.107579	0.376267
	C168	C	0.884821	0.377494	0.171202
	C169	C	0.122737	0.607415	0.171672
	C170	C	0.122122	0.377753	0.818715
	C171	C	0.884715	0.608252	0.818404
	C172	C	0.179398	0.874295	0.379838
	C173	C	0.179919	0.111233	0.609764
	C174	C	0.826552	0.111198	0.379743
	C175	C	0.826963	0.873738	0.609517
	C176	C	0.388014	0.167361	0.876985
	C177	C	0.618488	0.168769	0.113976
	C178	C	0.388048	0.815566	0.113163
	C179	C	0.619162	0.815903	0.876090
	C180	C	0.388198	0.872834	0.170892
	C181	C	0.618695	0.110916	0.171318
	C182	C	0.388232	0.110346	0.819380
	C183	C	0.619025	0.873779	0.818584
	C184	C	0.884166	0.168919	0.379777
	C185	C	0.122132	0.168886	0.609829
	C186	C	0.121992	0.816390	0.380002
	C187	C	0.884600	0.816058	0.609570
	C188	C	0.178151	0.377235	0.877328
	C189	C	0.179839	0.607377	0.113666
	C190	C	0.827931	0.377114	0.112766
	C191	C	0.827312	0.608340	0.876340
	C192	C	0.403818	0.087561	0.595833
	C193	C	0.603141	0.898174	0.594868
	C194	C	0.602822	0.086971	0.395165
	C195	C	0.403352	0.897445	0.394720
	C196	C	0.603644	0.392479	0.088976
	C197	C	0.603128	0.592398	0.900626
	C198	C	0.403773	0.591636	0.088841
	C199	C	0.402881	0.391600	0.900463
	C200	C	0.098415	0.592901	0.395170
	C201	C	0.909167	0.591543	0.594519
	C202	C	0.098598	0.392917	0.594660
	C203	C	0.908451	0.393323	0.395277
	C204	C	0.903631	0.587420	0.094795
	C205	C	0.102894	0.397735	0.095147
	C206	C	0.103089	0.587591	0.894953
	C207	C	0.904114	0.398534	0.894817
	C208	C	0.103463	0.892879	0.589483
	C209	C	0.103560	0.092596	0.400174
	C210	C	0.904005	0.092726	0.589067
	C211	C	0.903810	0.892845	0.400546
	C212	C	0.598305	0.091721	0.895807
	C213	C	0.408694	0.091484	0.094674
	C214	C	0.597859	0.893226	0.094178
	C215	C	0.409038	0.891966	0.894950
	Zn216	Zn	0.503385	-0.007551	0.745332
	Zn217	Zn	0.503586	-0.007985	0.244805
	Zn218	Zn	0.753610	0.492285	-0.005432
	Zn219	Zn	0.253010	0.492130	-0.005288
	Zn220	Zn	0.003482	0.742582	0.494965
	Zn221	Zn	0.003530	0.242941	0.494503
	Zn222	Zn	0.003979	0.492939	0.745056
	Zn223	Zn	0.003446	0.493068	0.245103
	Zn224	Zn	0.503659	0.742574	-0.005052
	Zn225	Zn	0.503562	0.241556	-0.005215
	Zn226	Zn	0.753200	-0.007043	0.494488
	Zn227	Zn	0.253873	-0.007377	0.495016
	N228	N	0.418057	0.955053	0.673448
	N229	N	0.589051	0.029988	0.673675
	N230	N	0.588817	0.954963	0.316656
	N231	N	0.418100	0.029433	0.316519
	N232	N	0.681722	0.406735	0.956951
	N233	N	0.681513	0.577508	0.032384
	N234	N	0.325587	0.576673	0.956886
	N235	N	0.324686	0.406489	0.032212
	N236	N	0.965952	0.670167	0.410428
	N237	N	0.040588	0.670874	0.580656
	N238	N	0.966374	0.314716	0.579954
	N239	N	0.040440	0.314811	0.409556
	N240	N	0.966760	0.407052	0.673313
	N241	N	0.041390	0.577826	0.672841
	N242	N	0.966194	0.578541	0.316700
	N243	N	0.040532	0.407735	0.317309
	N244	N	0.417682	0.670609	0.957606
	N245	N	0.588963	0.670715	0.032556
	N246	N	0.588409	0.314174	0.957119
	N247	N	0.417447	0.313348	0.032296
	N248	N	0.681053	0.955077	0.409830
	N249	N	0.681588	0.030505	0.580143
	N250	N	0.326147	0.955195	0.579937
	N251	N	0.325561	0.029823	0.409569
	N252	N	0.917508	0.455587	0.173758
	N253	N	0.089501	0.529528	0.173679
	N254	N	0.089661	0.455805	0.816193
	N255	N	0.918126	0.530471	0.816550
	N256	N	0.181365	0.907743	0.457530
	N257	N	0.181908	0.077950	0.532202
	N258	N	0.825057	0.078078	0.457475
	N259	N	0.825207	0.907261	0.532139
	N260	N	0.465832	0.169320	0.910186
	N261	N	0.540632	0.170655	0.080852
	N262	N	0.465857	0.814356	0.079667
	N263	N	0.541347	0.813841	0.909408
	N264	N	0.466011	0.906278	0.172902
	N265	N	0.540757	0.077479	0.173157
	N266	N	0.466182	0.077137	0.817723
	N267	N	0.541066	0.906786	0.816816
	N268	N	0.917891	0.170824	0.457258
	N269	N	0.088698	0.170596	0.532165
	N270	N	0.088948	0.814381	0.457643
	N271	N	0.917946	0.814265	0.531936
	N272	N	0.179690	0.454943	0.910894
	N273	N	0.181290	0.529763	0.080170
	N274	N	0.826106	0.454950	0.079561
	N275	N	0.825688	0.530631	0.909625
	O276	O	1.019864	0.034515	1.007754
	H277	H	1.011069	0.038775	1.003656
	H278	H	1.030584	0.039367	1.004249
	O279	O	-0.007192	1.014901	0.968541
	H280	H	-0.000839	1.020452	0.967054
	H281	H	-0.011548	1.005910	0.967410
	O282	O	0.973817	1.021618	-0.022463
	H283	H	0.969074	1.022531	-0.022398
	H284	H	0.980033	1.017370	-0.018767
	O285	O	-0.001508	1.021716	0.964219
	H286	H	-0.000965	1.027141	0.965356
	H287	H	-0.010374	1.020815	0.964605
