data_Molecule from HDF5

_cell_length_a		16.468953
_cell_length_b		16.581024
_cell_length_c		16.538095
_cell_angle_alpha	90.035501
_cell_angle_beta	90.034617
_cell_angle_gamma	90.118797
_symmetry_space_group_name_H-M	'P 1'
_symmetry_Int_Tables_number		1

loop_
	_symmetry_equiv_pos_as_xyz
	x,y,z

loop_
	_atom_site_label
	_atom_site_type_symbol
	_atom_site_fract_x
	_atom_site_fract_y
	_atom_site_fract_z
	H0	H	0.392996	0.868028	0.733196
	H1	H	0.608940	0.177997	0.736970
	H2	H	0.604538	0.868309	0.290191
	H3	H	0.395297	0.182318	0.291141
	H4	H	0.717543	0.421352	0.852916
	H5	H	0.720902	0.627772	0.169268
	H6	H	0.279927	0.628092	0.855072
	H7	H	0.279478	0.421073	0.170313
	H8	H	0.843283	0.746467	0.402782
	H9	H	0.156868	0.744212	0.615451
	H10	H	0.842348	0.300802	0.617005
	H11	H	0.157540	0.303591	0.406603
	H12	H	0.842584	0.417277	0.733752
	H13	H	0.157317	0.626928	0.730767
	H14	H	0.842756	0.629798	0.288010
	H15	H	0.157040	0.417488	0.289243
	H16	H	0.394256	0.747074	0.857017
	H17	H	0.605694	0.745853	0.169165
	H18	H	0.602264	0.303610	0.854088
	H19	H	0.394866	0.303917	0.170197
	H20	H	0.722691	0.868768	0.404949
	H21	H	0.726593	0.177870	0.622020
	H22	H	0.279060	0.866713	0.612565
	H23	H	0.279279	0.182855	0.408211
	H24	H	0.892266	0.367006	0.233306
	H25	H	0.105683	0.678781	0.234260
	H26	H	0.103137	0.367653	0.790957
	H27	H	0.893748	0.680381	0.788988
	H28	H	0.219959	0.919569	0.353562
	H29	H	0.217020	0.124743	0.669894
	H30	H	0.775684	0.130606	0.355882
	H31	H	0.777149	0.916699	0.666775
	H32	H	0.341077	0.241602	0.909521
	H33	H	0.658803	0.243089	0.114977
	H34	H	0.343298	0.802481	0.116869
	H35	H	0.657871	0.804450	0.906737
	H36	H	0.341641	0.920124	0.231319
	H37	H	0.658623	0.126714	0.230848
	H38	H	0.342201	0.125855	0.792506
	H39	H	0.656265	0.918496	0.789145
	H40	H	0.892014	0.246804	0.355024
	H41	H	0.102589	0.242992	0.669165
	H42	H	0.105836	0.800787	0.354777
	H43	H	0.891073	0.798551	0.665696
	H44	H	0.220066	0.367624	0.907879
	H45	H	0.219182	0.681202	0.114788
	H46	H	0.776044	0.368103	0.116418
	H47	H	0.778689	0.681593	0.906561
	H48	H	0.405920	0.137381	0.602110
	H49	H	0.581618	0.913707	0.602692
	H50	H	0.589056	0.136033	0.425057
	H51	H	0.409648	0.911315	0.415651
	H52	H	0.590273	0.436357	0.124693
	H53	H	0.585518	0.613903	0.901242
	H54	H	0.411565	0.611224	0.123143
	H55	H	0.408778	0.434101	0.899872
	H56	H	0.111784	0.608857	0.419103
	H57	H	0.885700	0.612796	0.602089
	H58	H	0.112221	0.435613	0.601466
	H59	H	0.888868	0.440987	0.422009
	H60	H	0.113127	0.433009	0.603790
	H61	H	0.887321	0.613395	0.595799
	H62	H	0.113396	0.615904	0.424170
	H63	H	0.884758	0.431919	0.418974
	H64	H	0.413389	0.614432	0.125197
	H65	H	0.588706	0.618528	0.898585
	H66	H	0.587439	0.435111	0.122639
	H67	H	0.411307	0.432306	0.899614
	H68	H	0.588027	0.136135	0.423264
	H69	H	0.585961	0.915367	0.592238
	H70	H	0.411371	0.136370	0.605187
	H71	H	0.411721	0.914030	0.423372
	H72	H	0.912695	0.634578	0.101995
	H73	H	0.086221	0.412992	0.098589
	H74	H	0.095580	0.639738	0.919027
	H75	H	0.908943	0.411058	0.918331
	H76	H	0.084476	0.938267	0.620559
	H77	H	0.090781	0.117423	0.396392
	H78	H	0.916160	0.109307	0.620211
	H79	H	0.909789	0.935538	0.397888
	H80	H	0.614107	0.114040	0.922171
	H81	H	0.386503	0.112377	0.101982
	H82	H	0.610254	0.935661	0.092401
	H83	H	0.386889	0.933501	0.924653
	H84	H	0.611750	0.943921	0.105494
	H85	H	0.384773	0.115181	0.105420
	H86	H	0.612405	0.114068	0.926170
	H87	H	0.387990	0.935814	0.923406
	H88	H	0.914836	0.115389	0.623445
	H89	H	0.091197	0.112965	0.397718
	H90	H	0.085980	0.926469	0.625542
	H91	H	0.913955	0.938878	0.401146
	H92	H	0.085778	0.637248	0.915945
	H93	H	0.091732	0.410909	0.098519
	H94	H	0.913312	0.634448	0.098804
	H95	H	0.913516	0.414625	0.923101
	H96	H	0.410886	0.135550	0.599080
	H97	H	0.592632	0.910657	0.600512
	H98	H	0.586682	0.135454	0.424563
	H99	H	0.404145	0.911225	0.421827
	H100	H	0.588688	0.432861	0.124885
	H101	H	0.591044	0.613013	0.899572
	H102	H	0.409125	0.613652	0.125789
	H103	H	0.408657	0.431311	0.898765
	H104	H	0.108896	0.608706	0.427788
	H105	H	0.887803	0.607518	0.598724
	H106	H	0.112309	0.432463	0.599911
	H107	H	0.889165	0.432955	0.428609
	H108	H	0.910774	0.635725	0.099933
	H109	H	0.088200	0.409878	0.103352
	H110	H	0.088795	0.635322	0.926195
	H111	H	0.906742	0.411946	0.925264
	H112	H	0.096123	0.935007	0.625301
	H113	H	0.087025	0.114958	0.398731
	H114	H	0.910171	0.110290	0.623923
	H115	H	0.915523	0.932519	0.400090
	H116	H	0.612137	0.110247	0.923974
	H117	H	0.385691	0.117204	0.101390
	H118	H	0.616239	0.929337	0.105008
	H119	H	0.386853	0.934106	0.921828
	C120	C	0.377878	0.032502	0.632803
	C121	C	0.621239	1.015655	0.632987
	C122	C	0.621151	0.033149	0.390957
	C123	C	0.376861	1.016444	0.389009
	C124	C	0.620348	0.403128	0.019902
	C125	C	0.621142	0.646508	1.003709
	C126	C	0.379381	0.645336	0.020790
	C127	C	0.377706	0.402064	1.003983
	C128	C	0.007997	0.644347	0.389797
	C129	C	0.991096	0.644063	0.631699
	C130	C	0.008008	0.401924	0.633224
	C131	C	0.991408	0.402644	0.390694
	C132	C	0.878351	0.532013	0.133033
	C133	C	0.120760	0.514735	0.132608
	C134	C	0.121552	0.533341	0.889276
	C135	C	0.877770	0.515981	0.889880
	C136	C	0.120844	0.901913	0.519661
	C137	C	0.120959	0.145656	0.502235
	C138	C	0.878926	0.145233	0.519720
	C139	C	0.879249	0.902190	0.502364
	C140	C	0.508591	0.144317	0.891495
	C141	C	0.490983	0.145851	0.133782
	C142	C	0.508497	0.904098	0.132784
	C143	C	0.491069	0.902227	0.890341
	C144	C	0.375306	0.914525	0.692248
	C145	C	0.626101	0.131633	0.695762
	C146	C	0.623256	0.915399	0.330131
	C147	C	0.376272	0.135084	0.330717
	C148	C	0.678799	0.402062	0.900884
	C149	C	0.681133	0.647070	0.122093
	C150	C	0.319769	0.647050	0.902486
	C151	C	0.318949	0.401790	0.122830
	C152	C	0.890135	0.705778	0.385632
	C153	C	0.109591	0.704410	0.634252
	C154	C	0.889488	0.341787	0.635111
	C155	C	0.110071	0.342955	0.388257
	C156	C	0.889323	0.399511	0.693232
	C157	C	0.109790	0.645877	0.691319
	C158	C	0.890189	0.647689	0.328406
	C159	C	0.109789	0.399784	0.329845
	C160	C	0.376551	0.706146	0.903247
	C161	C	0.623957	0.705822	0.122245
	C162	C	0.621200	0.343627	0.901399
	C163	C	0.376193	0.343333	0.122741
	C164	C	0.682085	0.915553	0.387186
	C165	C	0.684611	0.131596	0.638378
	C166	C	0.318509	0.913868	0.632864
	C167	C	0.318277	0.135175	0.388633
	C168	C	0.874777	0.414284	0.193221
	C169	C	0.123519	0.632376	0.193398
	C170	C	0.122058	0.414669	0.830705
	C171	C	0.875489	0.633659	0.829431
	C172	C	0.180123	0.900845	0.400921
	C173	C	0.178601	0.145083	0.622065
	C174	C	0.816417	0.148580	0.402655
	C175	C	0.817655	0.898660	0.619692
	C176	C	0.388987	0.202476	0.890222
	C177	C	0.610899	0.203764	0.134001
	C178	C	0.390188	0.843292	0.134894
	C179	C	0.609886	0.843144	0.887899
	C180	C	0.389353	0.901807	0.191869
	C181	C	0.610914	0.146172	0.191787
	C182	C	0.389479	0.144939	0.832067
	C183	C	0.609288	0.899960	0.829534
	C184	C	0.874324	0.206555	0.402377
	C185	C	0.121723	0.203753	0.621693
	C186	C	0.123382	0.841661	0.401504
	C187	C	0.874250	0.839828	0.619218
	C188	C	0.180017	0.414794	0.888920
	C189	C	0.180219	0.633405	0.134519
	C190	C	0.816818	0.414594	0.135067
	C191	C	0.818051	0.634158	0.887697
	C192	C	0.402408	0.114800	0.608922
	C193	C	0.594382	0.934306	0.606093
	C194	C	0.595426	0.114730	0.417035
	C195	C	0.401195	0.933737	0.413376
	C196	C	0.595708	0.427653	0.102615
	C197	C	0.595859	0.622089	0.921218
	C198	C	0.404354	0.620276	0.103308
	C199	C	0.402393	0.425673	0.921163
	C200	C	0.089871	0.618692	0.416322
	C201	C	0.908364	0.618462	0.606146
	C202	C	0.090943	0.426594	0.608747
	C203	C	0.909121	0.427923	0.416077
	C204	C	0.904664	0.613676	0.107473
	C205	C	0.095826	0.432598	0.107475
	C206	C	0.097079	0.615933	0.913272
	C207	C	0.902632	0.433850	0.914861
	C208	C	0.095879	0.926323	0.602055
	C209	C	0.096787	0.121825	0.419257
	C210	C	0.906090	0.119017	0.601124
	C211	C	0.905558	0.928234	0.421000
	C212	C	0.591246	0.119864	0.916741
	C213	C	0.407412	0.121843	0.110002
	C214	C	0.591169	0.929221	0.108046
	C215	C	0.408558	0.927222	0.915997
	Zn216	Zn	0.500028	0.023433	0.762034
	Zn217	Zn	0.499923	0.024829	0.261818
	Zn218	Zn	0.749711	0.524918	0.011307
	Zn219	Zn	0.249966	0.524394	0.012097
	Zn220	Zn	-0.000523	0.773028	0.511058
	Zn221	Zn	-0.000065	0.273873	0.511443
	Zn222	Zn	-0.001202	0.524212	0.761036
	Zn223	Zn	-0.000122	0.523137	0.261777
	Zn224	Zn	0.500490	0.774751	0.012213
	Zn225	Zn	0.499517	0.273492	0.012217
	Zn226	Zn	0.750674	0.023611	0.512167
	Zn227	Zn	0.248745	0.024374	0.510987
	N228	N	0.411422	0.989254	0.692546
	N229	N	0.587431	0.058481	0.692241
	N230	N	0.586305	0.989607	0.332192
	N231	N	0.411900	0.060209	0.330892
	N232	N	0.678511	0.438350	0.975663
	N233	N	0.679550	0.610895	0.047424
	N234	N	0.321626	0.609845	0.976505
	N235	N	0.319595	0.437414	0.047899
	N236	N	0.964477	0.703924	0.423302
	N237	N	0.034448	0.703440	0.597976
	N238	N	0.964273	0.343108	0.598567
	N239	N	0.035399	0.344573	0.425270
	N240	N	0.964125	0.436165	0.692151
	N241	N	0.035002	0.609395	0.689815
	N242	N	0.964332	0.610132	0.330905
	N243	N	0.034853	0.435906	0.330883
	N244	N	0.413005	0.705003	0.977863
	N245	N	0.587757	0.705659	0.047511
	N246	N	0.585954	0.343964	0.976618
	N247	N	0.412149	0.343274	0.047758
	N248	N	0.681088	0.989692	0.424200
	N249	N	0.681536	0.058235	0.599726
	N250	N	0.319894	0.988189	0.596688
	N251	N	0.318365	0.060118	0.423972
	N252	N	0.912213	0.488368	0.192019
	N253	N	0.087668	0.557548	0.192670
	N254	N	0.086535	0.489586	0.830748
	N255	N	0.911754	0.559150	0.830526
	N256	N	0.178728	0.937674	0.475334
	N257	N	0.178594	0.110150	0.546725
	N258	N	0.819130	0.111187	0.476837
	N259	N	0.820627	0.936821	0.546039
	N260	N	0.464089	0.202516	0.926365
	N261	N	0.535082	0.204152	0.099176
	N262	N	0.465300	0.844537	0.098975
	N263	N	0.535361	0.844347	0.924985
	N264	N	0.463929	0.938961	0.190725
	N265	N	0.535216	0.111210	0.191973
	N266	N	0.464879	0.109663	0.832636
	N267	N	0.534324	0.935979	0.830831
	N268	N	0.912186	0.204719	0.476228
	N269	N	0.086999	0.204624	0.545994
	N270	N	0.087257	0.842262	0.476344
	N271	N	0.911663	0.841684	0.545189
	N272	N	0.180090	0.489724	0.924262
	N273	N	0.178711	0.559264	0.097509
	N274	N	0.818724	0.488930	0.098468
	N275	N	0.819423	0.559867	0.924535
	O276	O	0.949825	0.999608	-0.189176
	H277	H	0.939820	0.997743	-0.178293
	H278	H	0.925610	1.009290	-0.199472
	O279	O	-0.190385	-0.084989	0.881124
	H280	H	-0.198172	-0.069482	0.891400
	H281	H	-0.182320	-0.085011	0.888022
	O282	O	0.569002	0.461834	0.328902
	H283	H	0.559365	0.461165	0.361986
	H284	H	0.558404	0.456812	0.332771
	O285	O	0.817692	0.214994	0.837898
	H286	H	0.806486	0.229864	0.841771
	H287	H	0.797123	0.223851	0.832817
	O288	O	1.115816	-0.150866	1.199267
	H289	H	1.114952	-0.131609	1.184964
	H290	H	1.096149	-0.145963	1.182318
	O291	O	0.585408	0.415504	0.529351
	H292	H	0.580360	0.422467	0.540764
	H293	H	0.576896	0.414861	0.531828
	O294	O	-0.108485	0.122502	0.219090
	H295	H	-0.089044	0.125786	0.203485
	H296	H	-0.080594	0.121825	0.214420
	O297	O	1.188251	0.219599	0.153192
	H298	H	1.205932	0.212914	0.158217
	H299	H	1.194955	0.208108	0.129455
	O300	O	0.192169	-0.072391	0.115382
	H301	H	0.196282	-0.071602	0.105884
	H302	H	0.190801	-0.062185	0.115156
	O303	O	-0.059059	0.063468	-0.000555
	H304	H	-0.059892	0.049513	0.001218
	H305	H	-0.062209	0.053280	0.001547
	O306	O	0.781471	-0.195063	0.051862
	H307	H	0.770015	-0.214157	0.067142
	H308	H	0.773406	-0.206632	0.076545
	O309	O	0.551911	0.304083	0.292779
	H310	H	0.531086	0.299514	0.304436
	H311	H	0.558497	0.275822	0.275222
	O312	O	0.477275	0.496939	0.311069
	H313	H	0.463700	0.501212	0.312884
	H314	H	0.463694	0.486253	0.301684
	O315	O	0.675976	0.566701	0.461301
	H316	H	0.667373	0.559078	0.443650
	H317	H	0.670081	0.569031	0.452960
	O318	O	1.098710	1.197635	-0.057974
	H319	H	1.081090	1.189559	-0.079318
	H320	H	1.097247	1.184398	-0.060085
	O321	O	0.292608	0.315283	0.721864
	H322	H	0.317687	0.307491	0.702541
	H323	H	0.260179	0.281400	0.753312
	O324	O	0.499556	0.706003	1.534997
	H325	H	0.500282	0.689608	1.526140
	H326	H	0.486624	0.711621	1.533066
	O327	O	0.279725	0.487917	0.731349
	H328	H	0.268549	0.474453	0.752383
	H329	H	0.272036	0.454494	0.743369
	O330	O	0.118631	0.990615	0.111893
	H331	H	0.133001	0.992923	0.110632
	H332	H	0.105765	0.989030	0.099221
	O333	O	0.788548	0.244412	-0.019323
	H334	H	0.785544	0.252943	0.002392
	H335	H	0.793551	0.261527	0.000683
	O336	O	0.464824	0.307147	0.728764
	H337	H	0.469515	0.284893	0.741356
	H338	H	0.455037	0.312465	0.723113
	O339	O	0.377218	0.361144	0.365848
	H340	H	0.377895	0.396208	0.370308
	H341	H	0.385443	0.358396	0.392386
	O342	O	-0.119944	1.215654	0.111893
	H343	H	-0.102351	1.211166	0.106590
	H344	H	-0.108676	1.210793	0.142194
	O345	O	0.560170	0.292714	0.567575
	H346	H	0.550441	0.289049	0.564060
	H347	H	0.568872	0.291388	0.559019
	O348	O	0.820347	0.054870	0.002136
	H349	H	0.823778	0.045327	0.015226
	H350	H	0.814844	0.078070	0.012578
	O351	O	-0.004975	-0.189914	1.174385
	H352	H	-0.014467	-0.208246	1.180915
	H353	H	-0.000296	-0.192560	1.161332
	O354	O	1.575474	-0.426917	1.309478
	H355	H	1.564082	-0.444229	1.302682
	H356	H	1.585598	-0.424196	1.302669
	O357	O	0.278088	0.505725	0.499041
	H358	H	0.294918	0.496256	0.505683
	H359	H	0.269755	0.505534	0.505761
	O360	O	0.562601	0.652545	0.699462
	H361	H	0.554272	0.652078	0.709746
	H362	H	0.552980	0.657585	0.675249
	O363	O	0.424742	0.402784	-0.476910
	H364	H	0.437630	0.402671	-0.474147
	H365	H	0.423983	0.414734	-0.477298
	O366	O	0.845652	-0.012347	1.231019
	H367	H	0.838791	-0.001876	1.247068
	H368	H	0.871284	0.000652	1.238966
	O369	O	0.188096	0.214377	0.822636
	H370	H	0.169455	0.186215	0.833805
	H371	H	0.166095	0.204711	0.845308
	O372	O	-0.032078	0.847909	0.978929
	H373	H	-0.046091	0.852612	0.961845
	H374	H	-0.051128	0.849550	0.976176
	O375	O	1.045516	0.040818	-0.149803
	H376	H	1.028218	0.040313	-0.156537
	H377	H	1.049171	0.023924	-0.156326
	O378	O	0.714919	0.505414	0.641320
	H379	H	0.729097	0.524939	0.664540
	H380	H	0.698339	0.522247	0.628736
	O381	O	0.025247	0.814939	-0.205901
	H382	H	0.018963	0.822678	-0.211142
	H383	H	0.030470	0.809115	-0.219656
	O384	O	0.292441	0.729906	0.482541
	H385	H	0.290166	0.722651	0.463511
	H386	H	0.268656	0.734431	0.487050
	O387	O	-0.189316	0.828027	1.209601
	H388	H	-0.183936	0.859331	1.221567
	H389	H	-0.180967	0.825538	1.218734
	O390	O	0.206963	0.817110	0.806294
	H391	H	0.188391	0.807380	0.816392
	H392	H	0.224034	0.788685	0.784856
	O393	O	1.212284	0.161838	-0.014021
	H394	H	1.215138	0.168674	-0.026628
	H395	H	1.205177	0.159764	-0.033158
	O396	O	0.711051	0.314202	0.483226
	H397	H	0.738246	0.292962	0.484114
	H398	H	0.705526	0.335585	0.489553
	O399	O	0.982271	0.822757	-0.003113
	H400	H	0.976584	0.816132	-0.023151
	H401	H	0.977744	0.825518	-0.011780
	O402	O	0.720493	-0.506876	1.294432
	H403	H	0.724291	-0.514862	1.286531
	H404	H	0.728567	-0.520972	1.279232
	O405	O	0.483911	0.733026	0.503978
	H406	H	0.477611	0.735290	0.510228
	H407	H	0.477355	0.743635	0.512559
	O408	O	0.787292	1.014678	0.833827
	H409	H	0.772575	1.035147	0.834649
	H410	H	0.778008	1.032879	0.852758
	O411	O	0.969233	1.239301	-0.202444
	H412	H	0.958889	1.254707	-0.228503
	H413	H	0.945238	1.236170	-0.205140
	O414	O	-0.196259	0.194798	-0.194715
	H415	H	-0.219737	0.207909	-0.184095
	H416	H	-0.205940	0.211625	-0.179742
	O417	O	0.712322	0.735922	0.537515
	H418	H	0.717802	0.734433	0.534416
	H419	H	0.728314	0.737520	0.534270
	O420	O	0.712274	-0.353474	0.716631
	H421	H	0.710347	-0.352402	0.712664
	H422	H	0.711550	-0.343181	0.708126
	O423	O	1.134658	1.132362	-0.010091
	H424	H	1.139300	1.120489	-0.011425
	H425	H	1.138726	1.131018	-0.009793
	O426	O	0.026216	1.244887	0.231851
	H427	H	0.032815	1.270623	0.248335
	H428	H	0.064155	1.247654	0.230199
	O429	O	0.571881	0.397407	0.614828
	H430	H	0.559004	0.390614	0.597253
	H431	H	0.572497	0.415412	0.604802
	O432	O	0.653151	0.702886	0.373386
	H433	H	0.633560	0.703360	0.385171
	H434	H	0.659181	0.688304	0.384077
	O435	O	1.161155	-0.011700	-0.180381
	H436	H	1.175306	-0.019429	-0.198772
	H437	H	1.156559	-0.038620	-0.180451
	O438	O	0.283381	0.307358	0.548641
	H439	H	0.270480	0.314238	0.553976
	H440	H	0.269204	0.284498	0.548895
	O441	O	0.313926	0.706299	0.698637
	H442	H	0.333303	0.683805	0.682161
	H443	H	0.329341	0.692534	0.679802
	O444	O	0.575086	0.723853	0.709266
	H445	H	0.572619	0.734748	0.717063
	H446	H	0.581218	0.728560	0.712840
	O447	O	0.503485	0.575811	0.507666
	H448	H	0.504658	0.575916	0.493767
	H449	H	0.500759	0.570812	0.505366
	O450	O	1.175237	0.129847	0.167023
	H451	H	1.177313	0.129874	0.192024
	H452	H	1.169429	0.112178	0.177644
	O453	O	0.465333	0.735436	0.303257
	H454	H	0.458844	0.751338	0.295943
	H455	H	0.480813	0.733238	0.303324
	O456	O	0.063106	1.037640	1.229567
	H457	H	0.064295	1.022141	1.224721
	H458	H	0.067660	1.048136	1.223590
	O459	O	0.524400	-0.532234	0.700967
	H460	H	0.535028	-0.546152	0.708718
	H461	H	0.529993	-0.522918	0.702682
	O462	O	0.517144	0.485859	0.581870
	H463	H	0.508202	0.476322	0.574761
	H464	H	0.526347	0.495533	0.587872
	O465	O	0.922408	-0.056078	0.039059
	H466	H	0.924629	-0.082372	0.045367
	H467	H	0.923380	-0.051852	0.027753
	O468	O	0.261051	0.813168	0.286089
	H469	H	0.270998	0.827506	0.276869
	H470	H	0.259697	0.822843	0.273149
	O471	O	0.336658	0.504185	0.531483
	H472	H	0.328417	0.505841	0.520969
	H473	H	0.337115	0.496802	0.554895
	O474	O	0.285173	0.553172	0.296397
	H475	H	0.262432	0.556626	0.291326
	H476	H	0.279324	0.574629	0.297981
	O477	O	0.202176	-0.178812	0.979248
	H478	H	0.206497	-0.177284	0.976914
	H479	H	0.212295	-0.178457	0.972980
