data_Molecule from HDF5

_cell_length_a		16.705962
_cell_length_b		16.516665
_cell_length_c		16.683145
_cell_angle_alpha	90.017226
_cell_angle_beta	89.942769
_cell_angle_gamma	90.014717
_symmetry_space_group_name_H-M	'P 1'
_symmetry_Int_Tables_number		1

loop_
	_symmetry_equiv_pos_as_xyz
	x,y,z

loop_
	_atom_site_label
	_atom_site_type_symbol
	_atom_site_fract_x
	_atom_site_fract_y
	_atom_site_fract_z
	H0	H	0.401005	0.828057	0.709183
	H1	H	0.614900	0.138759	0.709355
	H2	H	0.615801	0.828996	0.262998
	H3	H	0.403509	0.139958	0.267355
	H4	H	0.728897	0.378801	0.832675
	H5	H	0.728350	0.589424	0.142891
	H6	H	0.282901	0.593158	0.835032
	H7	H	0.284527	0.376515	0.140510
	H8	H	0.853585	0.707150	0.380060
	H9	H	0.161535	0.705750	0.592965
	H10	H	0.851909	0.263114	0.589568
	H11	H	0.163439	0.263244	0.383507
	H12	H	0.852633	0.376624	0.708647
	H13	H	0.159846	0.591908	0.712158
	H14	H	0.853353	0.591092	0.263239
	H15	H	0.161449	0.376643	0.263848
	H16	H	0.402323	0.705639	0.833018
	H17	H	0.613474	0.707014	0.141471
	H18	H	0.612458	0.263089	0.832013
	H19	H	0.404286	0.263299	0.142598
	H20	H	0.730954	0.829115	0.378011
	H21	H	0.730613	0.138795	0.594014
	H22	H	0.285570	0.827476	0.592689
	H23	H	0.287673	0.139672	0.383079
	H24	H	0.905424	0.325553	0.205259
	H25	H	0.113797	0.639567	0.209239
	H26	H	0.112004	0.326578	0.767910
	H27	H	0.902794	0.639279	0.766053
	H28	H	0.227740	0.877950	0.331267
	H29	H	0.229707	0.089150	0.641124
	H30	H	0.786013	0.089413	0.332729
	H31	H	0.782194	0.873128	0.640077
	H32	H	0.353181	0.205801	0.881600
	H33	H	0.663059	0.203523	0.090193
	H34	H	0.352392	0.762560	0.091332
	H35	H	0.662372	0.763305	0.881793
	H36	H	0.353457	0.877109	0.209175
	H37	H	0.659782	0.092388	0.211267
	H38	H	0.353604	0.091724	0.763600
	H39	H	0.660922	0.876805	0.763178
	H40	H	0.905340	0.202773	0.330892
	H41	H	0.111850	0.204143	0.642430
	H42	H	0.109484	0.763054	0.331675
	H43	H	0.902106	0.761206	0.641988
	H44	H	0.228986	0.327717	0.882492
	H45	H	0.230073	0.639833	0.093716
	H46	H	0.789269	0.325435	0.089653
	H47	H	0.787307	0.639949	0.883102
	H48	H	0.415992	0.093781	0.566837
	H49	H	0.596025	0.873095	0.569829
	H50	H	0.590553	0.094524	0.396517
	H51	H	0.417165	0.869042	0.394222
	H52	H	0.604078	0.388067	0.102524
	H53	H	0.598264	0.570151	0.876797
	H54	H	0.421505	0.564581	0.094441
	H55	H	0.416587	0.395337	0.875548
	H56	H	0.116957	0.567526	0.396216
	H57	H	0.897469	0.568319	0.577697
	H58	H	0.117161	0.399410	0.578790
	H59	H	0.897048	0.393166	0.399408
	H60	H	0.121395	0.391577	0.581518
	H61	H	0.896021	0.573821	0.576281
	H62	H	0.118432	0.574206	0.395875
	H63	H	0.896292	0.396136	0.394366
	H64	H	0.424178	0.576775	0.097710
	H65	H	0.596029	0.574426	0.876118
	H66	H	0.601299	0.401077	0.098033
	H67	H	0.419240	0.397904	0.877721
	H68	H	0.596203	0.093549	0.404778
	H69	H	0.595957	0.870805	0.576169
	H70	H	0.414758	0.098362	0.579876
	H71	H	0.421245	0.871517	0.398127
	H72	H	0.918240	0.597342	0.079125
	H73	H	0.098173	0.372904	0.072053
	H74	H	0.098931	0.596771	0.899763
	H75	H	0.919286	0.369869	0.895770
	H76	H	0.096128	0.900677	0.596061
	H77	H	0.102219	0.076989	0.372440
	H78	H	0.913304	0.076758	0.600468
	H79	H	0.926033	0.895802	0.379193
	H80	H	0.619684	0.071453	0.891115
	H81	H	0.397571	0.069929	0.076561
	H82	H	0.617680	0.900094	0.079331
	H83	H	0.398785	0.906493	0.894782
	H84	H	0.620094	0.891776	0.075938
	H85	H	0.395630	0.073091	0.078977
	H86	H	0.619009	0.076225	0.900558
	H87	H	0.392183	0.889023	0.890462
	H88	H	0.915534	0.066190	0.595905
	H89	H	0.100815	0.067152	0.375910
	H90	H	0.093470	0.890859	0.598500
	H91	H	0.915585	0.892076	0.374441
	H92	H	0.091758	0.594774	0.896089
	H93	H	0.095787	0.371261	0.077538
	H94	H	0.920691	0.594344	0.074437
	H95	H	0.918459	0.371789	0.899385
	H96	H	0.426399	0.092212	0.575664
	H97	H	0.590247	0.873925	0.573578
	H98	H	0.599953	0.098099	0.396310
	H99	H	0.415453	0.870099	0.399818
	H100	H	0.591404	0.391066	0.097908
	H101	H	0.600312	0.574223	0.874615
	H102	H	0.412490	0.571357	0.100148
	H103	H	0.420974	0.394096	0.875665
	H104	H	0.115940	0.571229	0.401949
	H105	H	0.898037	0.570485	0.572249
	H106	H	0.118101	0.392225	0.573166
	H107	H	0.894918	0.389832	0.394444
	H108	H	0.915481	0.595888	0.074127
	H109	H	0.092540	0.373464	0.073486
	H110	H	0.092592	0.592909	0.903810
	H111	H	0.915616	0.370006	0.897615
	H112	H	0.103342	0.894421	0.599705
	H113	H	0.093001	0.074134	0.377291
	H114	H	0.924762	0.074093	0.597669
	H115	H	0.916566	0.903752	0.378721
	H116	H	0.615998	0.065769	0.899275
	H117	H	0.396246	0.073609	0.074906
	H118	H	0.615742	0.897610	0.070443
	H119	H	0.399282	0.892306	0.907648
	C120	C	0.385910	-0.008048	0.607764
	C121	C	0.627640	0.975357	0.606867
	C122	C	0.628952	-0.007194	0.365346
	C123	C	0.386544	0.974328	0.365842
	C124	C	0.629846	0.361724	-0.003823
	C125	C	0.629683	0.605413	0.978640
	C126	C	0.386400	0.604601	-0.004319
	C127	C	0.386828	0.362800	0.978674
	C128	C	0.015508	0.604721	0.365073
	C129	C	0.998905	0.604273	0.608440
	C130	C	0.015988	0.361871	0.609044
	C131	C	0.998978	0.361405	0.364714
	C132	C	0.886965	0.491806	0.107507
	C133	C	0.128834	0.475556	0.107795
	C134	C	0.127723	0.491724	0.866900
	C135	C	0.886038	0.474480	0.865774
	C136	C	0.128799	0.862414	0.495466
	C137	C	0.129697	0.104878	0.478054
	C138	C	0.886776	0.104263	0.495244
	C139	C	0.886084	0.862833	0.478970
	C140	C	0.516035	0.104607	0.865018
	C141	C	0.498785	0.104835	0.108179
	C142	C	0.515717	0.863296	0.107913
	C143	C	0.498656	0.862650	0.865030
	C144	C	0.383006	0.874527	0.668524
	C145	C	0.632009	0.092065	0.668661
	C146	C	0.633078	0.875955	0.303588
	C147	C	0.385014	0.092604	0.306986
	C148	C	0.689068	0.360120	0.879260
	C149	C	0.688691	0.607910	0.095800
	C150	C	0.324483	0.609539	0.880536
	C151	C	0.325598	0.359088	0.094630
	C152	C	0.899755	0.666527	0.361698
	C153	C	0.115221	0.665232	0.611198
	C154	C	0.898657	0.302525	0.609350
	C155	C	0.116481	0.302598	0.363780
	C156	C	0.899004	0.359305	0.668221
	C157	C	0.114416	0.608637	0.670240
	C158	C	0.899813	0.608840	0.303591
	C159	C	0.115574	0.358998	0.304602
	C160	C	0.383722	0.665627	0.879610
	C161	C	0.631624	0.666320	0.095249
	C162	C	0.630944	0.302858	0.878859
	C163	C	0.385111	0.302874	0.095526
	C164	C	0.690570	0.875890	0.360855
	C165	C	0.689681	0.091997	0.611385
	C166	C	0.325530	0.874454	0.610937
	C167	C	0.327391	0.092548	0.364384
	C168	C	0.886319	0.372860	0.165816
	C169	C	0.131934	0.592808	0.168815
	C170	C	0.130452	0.374012	0.807171
	C171	C	0.884350	0.592510	0.806109
	C172	C	0.187660	0.859832	0.378021
	C173	C	0.189205	0.107253	0.594964
	C174	C	0.826989	0.106779	0.378631
	C175	C	0.823945	0.857285	0.594346
	C176	C	0.399812	0.165874	0.862990
	C177	C	0.615948	0.164512	0.109543
	C178	C	0.399033	0.802764	0.109986
	C179	C	0.615376	0.802738	0.862988
	C180	C	0.399478	0.860012	0.168216
	C181	C	0.614457	0.108944	0.169340
	C182	C	0.400091	0.109072	0.804236
	C183	C	0.614852	0.859413	0.804017
	C184	C	0.886022	0.163300	0.377899
	C185	C	0.130906	0.164562	0.595450
	C186	C	0.129347	0.802599	0.378239
	C187	C	0.883190	0.801045	0.595083
	C188	C	0.188481	0.374445	0.864264
	C189	C	0.189439	0.592948	0.111041
	C190	C	0.828620	0.372978	0.108546
	C191	C	0.827303	0.592817	0.864413
	C192	C	0.411855	0.073664	0.581834
	C193	C	0.601505	0.893829	0.580718
	C194	C	0.603013	0.074190	0.391627
	C195	C	0.411025	0.891710	0.390434
	C196	C	0.605842	0.386243	0.078184
	C197	C	0.605204	0.580081	0.897068
	C198	C	0.412127	0.578342	0.076455
	C199	C	0.411682	0.388588	0.897351
	C200	C	0.096152	0.578543	0.390768
	C201	C	0.918113	0.578253	0.582773
	C202	C	0.097579	0.387135	0.584658
	C203	C	0.917375	0.386016	0.389219
	C204	C	0.911239	0.574316	0.083153
	C205	C	0.102955	0.393847	0.081818
	C206	C	0.101996	0.573450	0.892585
	C207	C	0.910782	0.392005	0.890481
	C208	C	0.104491	0.887807	0.576951
	C209	C	0.105419	0.080084	0.396356
	C210	C	0.911054	0.079409	0.576789
	C211	C	0.912022	0.889523	0.398201
	C212	C	0.597225	0.078609	0.889840
	C213	C	0.417678	0.079584	0.083663
	C214	C	0.596809	0.889165	0.082420
	C215	C	0.417826	0.888447	0.890336
	Zn216	Zn	0.506885	-0.016208	0.735401
	Zn217	Zn	0.507593	-0.016256	0.237504
	Zn218	Zn	0.758170	0.483891	-0.012217
	Zn219	Zn	0.257084	0.483975	-0.013143
	Zn220	Zn	0.007207	0.733555	0.487201
	Zn221	Zn	0.007834	0.233486	0.487031
	Zn222	Zn	0.007398	0.482980	0.737953
	Zn223	Zn	0.007643	0.483389	0.236257
	Zn224	Zn	0.507334	0.733713	-0.012458
	Zn225	Zn	0.507804	0.233386	-0.013305
	Zn226	Zn	0.757007	-0.016632	0.486875
	Zn227	Zn	0.257831	-0.017112	0.486431
	N228	N	0.419850	0.948695	0.666736
	N229	N	0.593978	0.018449	0.665998
	N230	N	0.595448	0.949588	0.306188
	N231	N	0.421059	0.017922	0.307779
	N232	N	0.688550	0.396076	0.953293
	N233	N	0.687605	0.570687	0.022125
	N234	N	0.326151	0.572118	0.953706
	N235	N	0.326517	0.395673	0.020810
	N236	N	0.972698	0.664295	0.399296
	N237	N	0.042388	0.662690	0.573247
	N238	N	0.972583	0.303783	0.573197
	N239	N	0.042815	0.303636	0.400261
	N240	N	0.973059	0.395097	0.668322
	N241	N	0.041122	0.571444	0.668726
	N242	N	0.972927	0.571166	0.305466
	N243	N	0.041576	0.394776	0.304997
	N244	N	0.421574	0.662741	0.952407
	N245	N	0.595777	0.665271	0.021235
	N246	N	0.594931	0.303519	0.952729
	N247	N	0.422353	0.304906	0.022219
	N248	N	0.688282	0.949641	0.398919
	N249	N	0.687143	0.018301	0.573518
	N250	N	0.327306	0.948432	0.573450
	N251	N	0.327974	0.017701	0.400101
	N252	N	0.921903	0.447848	0.165564
	N253	N	0.095075	0.518537	0.167097
	N254	N	0.093451	0.448060	0.808603
	N255	N	0.920089	0.517704	0.806647
	N256	N	0.187824	0.895920	0.452063
	N257	N	0.188797	0.071046	0.520904
	N258	N	0.827207	0.070858	0.452668
	N259	N	0.825745	0.895009	0.521080
	N260	N	0.473185	0.163437	0.899947
	N261	N	0.542912	0.162369	0.072285
	N262	N	0.472373	0.804792	0.072969
	N263	N	0.542208	0.804405	0.900397
	N264	N	0.473161	0.896744	0.167186
	N265	N	0.540698	0.072515	0.168725
	N266	N	0.473429	0.071816	0.805197
	N267	N	0.541102	0.895880	0.804890
	N268	N	0.922607	0.161921	0.451447
	N269	N	0.094682	0.163430	0.521602
	N270	N	0.093901	0.803698	0.452481
	N271	N	0.921251	0.804318	0.522252
	N272	N	0.187197	0.448934	0.900617
	N273	N	0.187868	0.518738	0.074029
	N274	N	0.828684	0.448045	0.073230
	N275	N	0.828103	0.518220	0.900558
	O276	O	-0.050764	0.761396	-0.081607
	H277	H	-0.077633	0.760569	-0.072453
	H278	H	-0.050172	0.768838	-0.083293
	O279	O	0.546467	0.268566	0.271843
	H280	H	0.562573	0.268188	0.276955
	H281	H	0.551809	0.250927	0.255329
	O282	O	0.949954	-0.066040	0.751810
	H283	H	0.962112	-0.087372	0.753750
	H284	H	0.943583	-0.058945	0.748282
	O285	O	0.554003	0.707260	0.416828
	H286	H	0.563144	0.712283	0.400951
	H287	H	0.552105	0.712595	0.421636
	O288	O	0.271633	0.719926	0.724011
	H289	H	0.246484	0.737872	0.725745
	H290	H	0.292425	0.701968	0.693969
	O291	O	0.298347	0.595854	0.596676
	H292	H	0.309607	0.589236	0.584841
	H293	H	0.308573	0.586966	0.598021
	O294	O	1.230168	0.016601	1.206569
	H295	H	1.228584	0.018582	1.209159
	H296	H	1.234135	0.015615	1.225477
	O297	O	0.286677	0.709410	0.263121
	H298	H	0.257061	0.738708	0.231660
	H299	H	0.295210	0.674107	0.265525
	O300	O	0.078256	-0.004820	1.112049
	H301	H	0.089256	-0.012826	1.088558
	H302	H	0.074421	0.018387	1.114705
	O303	O	0.718665	0.696579	0.703161
	H304	H	0.725112	0.697949	0.708074
	H305	H	0.720435	0.667848	0.701203
	O306	O	0.539651	0.504955	0.251137
	H307	H	0.528688	0.513224	0.250905
	H308	H	0.533506	0.504344	0.253821
	O309	O	0.049776	0.762156	1.041792
	H310	H	0.053654	0.767538	1.038309
	H311	H	0.051852	0.762552	1.022107
	O312	O	0.161307	0.829132	0.823511
	H313	H	0.163472	0.822091	0.827814
	H314	H	0.153614	0.850155	0.832443
	O315	O	0.732929	0.515803	1.431276
	H316	H	0.731980	0.532409	1.428525
	H317	H	0.726617	0.525110	1.417434
	O318	O	0.625122	0.377392	0.691934
	H319	H	0.626097	0.390691	0.679977
	H320	H	0.616904	0.399180	0.682817
	O321	O	-0.210791	1.198876	0.948217
	H322	H	-0.206786	1.189168	0.959758
	H323	H	-0.224091	1.216472	0.953636
	O324	O	0.866376	1.005186	0.212819
	H325	H	0.872907	0.993598	0.216959
	H326	H	0.866122	1.003784	0.226574
	O327	O	0.166507	-0.072534	1.130676
	H328	H	0.159014	-0.064239	1.134228
	H329	H	0.164956	-0.067496	1.136461
	O330	O	0.518318	0.320878	0.504604
	H331	H	0.524765	0.313991	0.514362
	H332	H	0.522907	0.335951	0.507090
	O333	O	0.797680	0.188738	0.775326
	H334	H	0.786045	0.197158	0.807808
	H335	H	0.784953	0.191930	0.762359
	O336	O	0.280661	0.419765	0.420761
	H337	H	0.288606	0.407768	0.427199
	H338	H	0.280756	0.435767	0.442021
	O339	O	0.428252	0.510945	0.421438
	H340	H	0.445958	0.519234	0.414766
	H341	H	0.435869	0.495955	0.420637
	O342	O	-0.187091	0.168787	0.181358
	H343	H	-0.162574	0.165432	0.160322
	H344	H	-0.176605	0.140678	0.167947
	O345	O	0.221793	1.191502	1.195424
	H346	H	0.204848	1.161684	1.205217
	H347	H	0.253317	1.223253	1.229680
	O348	O	-0.126667	-0.043036	0.180658
	H349	H	-0.130859	-0.040068	0.181415
	H350	H	-0.115248	-0.052254	0.177677
	O351	O	0.498695	0.655668	0.484991
	H352	H	0.496118	0.652560	0.478451
	H353	H	0.501587	0.664550	0.476722
	O354	O	0.199504	-0.206910	1.149671
	H355	H	0.184683	-0.184350	1.139176
	H356	H	0.184968	-0.195350	1.133370
	O357	O	0.484775	0.274645	0.701864
	H358	H	0.484779	0.278964	0.707271
	H359	H	0.487642	0.273454	0.716220
	O360	O	0.481083	0.576163	0.530938
	H361	H	0.473887	0.578809	0.533354
	H362	H	0.478236	0.573469	0.528275
	O363	O	0.210903	-0.219895	-0.048899
	H364	H	0.224413	-0.234409	-0.071161
	H365	H	0.213715	-0.226010	-0.052652
	O366	O	0.663939	0.657029	0.313498
	H367	H	0.676063	0.676261	0.286745
	H368	H	0.657907	0.646824	0.321103
	O369	O	0.715179	0.276145	0.278836
	H370	H	0.742377	0.249099	0.253662
	H371	H	0.707859	0.312214	0.273160
	O372	O	0.993507	0.972777	-0.066905
	H373	H	0.998672	0.987294	-0.072213
	H374	H	0.993655	0.974673	-0.080720
	O375	O	0.821890	-0.203312	-0.199294
	H376	H	0.823651	-0.175658	-0.184102
	H377	H	0.818348	-0.206384	-0.205034
	O378	O	0.377870	0.418078	0.596543
	H379	H	0.394148	0.409361	0.590100
	H380	H	0.378716	0.427795	0.595699
	O381	O	0.045706	1.201050	1.207633
	H382	H	0.064342	1.223178	1.220289
	H383	H	0.037225	1.210456	1.199793
	O384	O	0.996219	0.191728	0.983154
	H385	H	1.018678	0.195398	0.976390
	H386	H	0.996680	0.189433	0.955914
	O387	O	1.193434	1.166280	-0.200203
	H388	H	1.209292	1.183154	-0.225246
	H389	H	1.191190	1.140318	-0.187354
	O390	O	0.731243	0.443738	0.268764
	H391	H	0.734904	0.442694	0.269078
	H392	H	0.732168	0.456307	0.249482
	O393	O	0.287042	0.512574	0.265558
	H394	H	0.277184	0.506498	0.277364
	H395	H	0.271881	0.509089	0.252223
	O396	O	0.039258	0.770633	0.769294
	H397	H	0.044543	0.763993	0.772621
	H398	H	0.032249	0.751004	0.772195
	O399	O	-0.210276	0.003631	0.769581
	H400	H	-0.227253	0.018620	0.750535
	H401	H	-0.196504	0.010464	0.763708
	O402	O	0.281398	0.705272	0.455422
	H403	H	0.257099	0.729961	0.447407
	H404	H	0.281143	0.700509	0.428983
	O405	O	1.054845	0.015805	0.858459
	H406	H	1.052964	0.023586	0.852752
	H407	H	1.075656	0.027432	0.853752
	O408	O	0.036136	0.139349	-0.177698
	H409	H	0.040538	0.166627	-0.187516
	H410	H	0.024283	0.122506	-0.185887
	O411	O	1.079067	0.969633	1.009422
	H412	H	1.092601	0.975871	1.000671
	H413	H	1.079647	0.968620	1.005928
	O414	O	0.647057	0.541291	0.526362
	H415	H	0.650951	0.548471	0.525282
	H416	H	0.647031	0.550650	0.503348
	O417	O	0.285596	0.459741	0.714133
	H418	H	0.295138	0.465093	0.708547
	H419	H	0.263711	0.450018	0.732098
	O420	O	0.535200	0.705783	0.708991
	H421	H	0.549083	0.721193	0.710420
	H422	H	0.545495	0.715488	0.717830
	O423	O	0.223681	-0.040721	0.777789
	H424	H	0.213920	-0.046913	0.781800
	H425	H	0.239279	-0.052596	0.757413
	O426	O	0.505641	0.318969	0.445852
	H427	H	0.516888	0.325092	0.436522
	H428	H	0.514976	0.319142	0.448297
	O429	O	1.229922	1.202978	1.022519
	H430	H	1.231618	1.198156	1.055058
	H431	H	1.259291	1.229946	1.036777
	O432	O	0.611464	0.299689	0.597242
	H433	H	0.623097	0.306979	0.593767
	H434	H	0.602314	0.288410	0.597234
	O435	O	0.317848	1.294240	0.296966
	H436	H	0.347596	1.305077	0.309591
	H437	H	0.324595	1.317674	0.322360
	O438	O	0.292491	0.267362	-0.297371
	H439	H	0.314244	0.270258	-0.286772
	H440	H	0.296877	0.285526	-0.324082
	O441	O	-0.024240	-0.229922	0.203790
	H442	H	-0.016012	-0.235437	0.190858
	H443	H	-0.025137	-0.246800	0.216287
	O444	O	0.728083	0.703705	0.513169
	H445	H	0.735568	0.710757	0.511309
	H446	H	0.742196	0.712769	0.524128
	O447	O	-0.033055	1.183644	0.780342
	H448	H	-0.054769	1.199824	0.762119
	H449	H	-0.049944	1.198077	0.779176
	O450	O	0.070660	1.085515	1.007019
	H451	H	0.081109	1.093108	0.990471
	H452	H	0.092619	1.087571	1.013817
	O453	O	0.727612	0.519969	0.710187
	H454	H	0.726617	0.510079	0.706274
	H455	H	0.746336	0.508845	0.717465
	O456	O	-0.216067	-0.073702	0.945821
	H457	H	-0.214931	-0.052232	0.924095
	H458	H	-0.206286	-0.056180	0.958555
	O459	O	0.905074	1.156782	0.073580
	H460	H	0.918686	1.130935	0.059985
	H461	H	0.918017	1.166218	0.060264
	O462	O	0.481889	0.701323	0.266684
	H463	H	0.471779	0.722361	0.239714
	H464	H	0.461380	0.699679	0.282672
	O465	O	0.787790	-0.234899	0.018246
	H466	H	0.764919	-0.230761	0.012581
	H467	H	0.768484	-0.222897	0.009858
	O468	O	0.433028	0.586732	0.663695
	H469	H	0.417767	0.594427	0.665511
	H470	H	0.439380	0.603449	0.640738
	O471	O	0.704708	0.419347	0.562915
	H472	H	0.713354	0.425256	0.545303
	H473	H	0.706971	0.412464	0.545039
	O474	O	0.722856	0.262790	0.452382
	H475	H	0.722643	0.248340	0.429923
	H476	H	0.735992	0.250698	0.436637
	O477	O	0.286790	0.267173	1.517060
	H478	H	0.278553	0.246089	1.514203
	H479	H	0.291197	0.268656	1.528324
	O480	O	0.451461	0.469923	0.289120
	H481	H	0.450102	0.454593	0.294682
	H482	H	0.443957	0.490205	0.286962
	O483	O	0.396145	0.502452	0.567589
	H484	H	0.389652	0.501450	0.569922
	H485	H	0.396070	0.525742	0.576426
	O486	O	0.517746	0.402189	0.596747
	H487	H	0.516674	0.422983	0.603160
	H488	H	0.506808	0.411746	0.598447
	O489	O	0.798934	0.774504	0.192840
	H490	H	0.825022	0.781273	0.179703
	H491	H	0.800646	0.790252	0.167258
	O492	O	-0.014282	-0.046599	0.030581
	H493	H	-0.002061	-0.034978	0.015276
	H494	H	0.001343	-0.040156	0.035256
	O495	O	0.242129	1.032608	0.921252
	H496	H	0.244631	1.041178	0.918105
	H497	H	0.247388	1.035213	0.916259
	O498	O	0.817134	0.988665	1.045444
	H499	H	0.822154	0.989830	1.058608
	H500	H	0.828503	0.991134	1.052478
	O501	O	0.568683	0.499247	0.402701
	H502	H	0.577693	0.517573	0.400185
	H503	H	0.586778	0.485381	0.415112
