data_Molecule from HDF5

_cell_length_a		16.420800
_cell_length_b		16.210592
_cell_length_c		16.299207
_cell_angle_alpha	89.963362
_cell_angle_beta	89.803692
_cell_angle_gamma	89.811548
_symmetry_space_group_name_H-M	'P 1'
_symmetry_Int_Tables_number		1

loop_
	_symmetry_equiv_pos_as_xyz
	x,y,z

loop_
	_atom_site_label
	_atom_site_type_symbol
	_atom_site_fract_x
	_atom_site_fract_y
	_atom_site_fract_z
	H0	H	0.402658	0.828322	0.719862
	H1	H	0.602764	0.154422	0.717810
	H2	H	0.603772	0.827117	0.286461
	H3	H	0.401484	0.154155	0.287486
	H4	H	0.719875	0.387869	0.839585
	H5	H	0.718279	0.591133	0.163130
	H6	H	0.283847	0.596246	0.840791
	H7	H	0.282494	0.385983	0.162073
	H8	H	0.840752	0.707668	0.399554
	H9	H	0.163019	0.706302	0.599967
	H10	H	0.839181	0.274177	0.600711
	H11	H	0.162678	0.271882	0.399551
	H12	H	0.839601	0.390534	0.718369
	H13	H	0.161864	0.594820	0.718890
	H14	H	0.840536	0.591265	0.282756
	H15	H	0.161570	0.384578	0.280444
	H16	H	0.402815	0.709062	0.840500
	H17	H	0.601320	0.704356	0.165220
	H18	H	0.603453	0.273616	0.839559
	H19	H	0.402555	0.274980	0.165077
	H20	H	0.719414	0.827904	0.399811
	H21	H	0.719464	0.152784	0.603255
	H22	H	0.282639	0.829194	0.608960
	H23	H	0.283438	0.152569	0.400669
	H24	H	0.901486	0.326141	0.216467
	H25	H	0.104527	0.650699	0.219029
	H26	H	0.101661	0.326670	0.785069
	H27	H	0.901416	0.653814	0.785299
	H28	H	0.225036	0.883660	0.342121
	H29	H	0.219501	0.095674	0.661890
	H30	H	0.784217	0.092184	0.339316
	H31	H	0.781835	0.885454	0.662434
	H32	H	0.341595	0.211040	0.901080
	H33	H	0.664367	0.207373	0.102216
	H34	H	0.342530	0.771174	0.107566
	H35	H	0.664244	0.773504	0.902208
	H36	H	0.341953	0.888801	0.222801
	H37	H	0.663300	0.094346	0.221633
	H38	H	0.342133	0.096699	0.783031
	H39	H	0.663116	0.887843	0.783458
	H40	H	0.903053	0.204281	0.337782
	H41	H	0.100776	0.205810	0.662827
	H42	H	0.103274	0.774131	0.338107
	H43	H	0.901256	0.772188	0.663393
	H44	H	0.223071	0.328979	0.895250
	H45	H	0.220559	0.650354	0.105331
	H46	H	0.785353	0.327081	0.101743
	H47	H	0.783594	0.652899	0.898125
	H48	H	0.408779	0.104887	0.587506
	H49	H	0.591322	0.874309	0.598985
	H50	H	0.590732	0.107805	0.404589
	H51	H	0.423426	0.880249	0.417992
	H52	H	0.598809	0.398764	0.118758
	H53	H	0.592326	0.574814	0.888864
	H54	H	0.415184	0.584991	0.117840
	H55	H	0.414016	0.407222	0.888640
	H56	H	0.112694	0.574486	0.412464
	H57	H	0.885203	0.587573	0.593626
	H58	H	0.115104	0.397008	0.588047
	H59	H	0.884267	0.392895	0.405359
	H60	H	0.115432	0.401008	0.593996
	H61	H	0.889853	0.578107	0.585216
	H62	H	0.117673	0.577522	0.402757
	H63	H	0.887936	0.396733	0.412755
	H64	H	0.402666	0.581420	0.119653
	H65	H	0.588636	0.588548	0.885537
	H66	H	0.594765	0.402492	0.116559
	H67	H	0.418502	0.398000	0.888128
	H68	H	0.588775	0.103378	0.417194
	H69	H	0.587722	0.876754	0.589378
	H70	H	0.404633	0.108659	0.594996
	H71	H	0.402120	0.873970	0.420620
	H72	H	0.909108	0.606391	0.092327
	H73	H	0.088838	0.375326	0.087716
	H74	H	0.089637	0.604894	0.908563
	H75	H	0.905698	0.375465	0.916892
	H76	H	0.087623	0.896551	0.615089
	H77	H	0.083008	0.082416	0.387987
	H78	H	0.907236	0.079984	0.616788
	H79	H	0.911162	0.905959	0.387966
	H80	H	0.620545	0.087131	0.904366
	H81	H	0.386220	0.086207	0.098877
	H82	H	0.616930	0.899766	0.097653
	H83	H	0.388689	0.901596	0.911027
	H84	H	0.616965	0.896379	0.093517
	H85	H	0.389974	0.083793	0.089903
	H86	H	0.614149	0.084074	0.919013
	H87	H	0.387788	0.899864	0.912107
	H88	H	0.909219	0.079152	0.616232
	H89	H	0.101219	0.085513	0.381148
	H90	H	0.095941	0.896466	0.618553
	H91	H	0.915091	0.896117	0.386698
	H92	H	0.093433	0.604531	0.914015
	H93	H	0.095759	0.373818	0.085882
	H94	H	0.911931	0.603920	0.091314
	H95	H	0.905491	0.370414	0.902376
	H96	H	0.414129	0.106051	0.594847
	H97	H	0.597987	0.873538	0.590413
	H98	H	0.601501	0.109402	0.413508
	H99	H	0.412378	0.870811	0.400511
	H100	H	0.593026	0.396681	0.117381
	H101	H	0.601852	0.583963	0.882548
	H102	H	0.410520	0.572956	0.114923
	H103	H	0.408767	0.399150	0.884912
	H104	H	0.116505	0.584913	0.411484
	H105	H	0.887676	0.575980	0.597813
	H106	H	0.117153	0.393510	0.594766
	H107	H	0.886929	0.402215	0.405677
	H108	H	0.910081	0.605639	0.089295
	H109	H	0.092987	0.372366	0.092779
	H110	H	0.095784	0.608019	0.907905
	H111	H	0.917996	0.376582	0.908530
	H112	H	0.092724	0.903608	0.614753
	H113	H	0.096443	0.067847	0.388532
	H114	H	0.909519	0.081369	0.616712
	H115	H	0.905502	0.898295	0.383610
	H116	H	0.614406	0.072052	0.907970
	H117	H	0.388824	0.077391	0.097126
	H118	H	0.615713	0.901616	0.092093
	H119	H	0.388915	0.901420	0.913156
	C120	C	0.379621	-0.000737	0.624239
	C121	C	0.623031	0.982556	0.622976
	C122	C	0.623613	-0.000948	0.381139
	C123	C	0.381484	0.982082	0.382187
	C124	C	0.624704	0.368905	0.010075
	C125	C	0.623758	0.611703	0.993119
	C126	C	0.379626	0.612288	0.010942
	C127	C	0.382315	0.370214	0.993545
	C128	C	0.009642	0.610550	0.378618
	C129	C	0.993484	0.611528	0.622123
	C130	C	0.009299	0.367709	0.622631
	C131	C	0.992719	0.366821	0.378048
	C132	C	0.880504	0.497843	0.121253
	C133	C	0.123174	0.480651	0.120937
	C134	C	0.123948	0.498746	0.878964
	C135	C	0.879996	0.481814	0.879288
	C136	C	0.123979	0.867801	0.509876
	C137	C	0.122768	0.110129	0.492564
	C138	C	0.879387	0.110712	0.509565
	C139	C	0.879930	0.868462	0.492676
	C140	C	0.510488	0.113160	0.880007
	C141	C	0.494696	0.112889	0.124832
	C142	C	0.510765	0.868772	0.125341
	C143	C	0.494560	0.870048	0.881918
	C144	C	0.381641	0.877119	0.682028
	C145	C	0.622322	0.105155	0.679744
	C146	C	0.622921	0.876193	0.324559
	C147	C	0.381514	0.104966	0.325285
	C148	C	0.681296	0.368679	0.888153
	C149	C	0.680336	0.611086	0.114905
	C150	C	0.322883	0.614390	0.889219
	C151	C	0.322844	0.368393	0.114316
	C152	C	0.888702	0.668630	0.379503
	C153	C	0.114734	0.668418	0.620304
	C154	C	0.887749	0.312088	0.621090
	C155	C	0.114266	0.309845	0.379351
	C156	C	0.887987	0.369953	0.679624
	C157	C	0.114100	0.612718	0.679731
	C158	C	0.888602	0.610692	0.321612
	C159	C	0.113692	0.366219	0.320185
	C160	C	0.381883	0.670778	0.889061
	C161	C	0.621707	0.666953	0.116156
	C162	C	0.623457	0.311824	0.888221
	C163	C	0.382630	0.313109	0.115925
	C164	C	0.680599	0.876227	0.380965
	C165	C	0.680650	0.104230	0.622869
	C166	C	0.322061	0.877671	0.626543
	C167	C	0.322882	0.104140	0.381672
	C168	C	0.881596	0.375219	0.178216
	C169	C	0.123194	0.602088	0.179774
	C170	C	0.122607	0.375838	0.822494
	C171	C	0.881202	0.604897	0.822805
	C172	C	0.184248	0.866103	0.389503
	C173	C	0.180252	0.112798	0.613746
	C174	C	0.822943	0.110919	0.387618
	C175	C	0.821401	0.866891	0.614167
	C176	C	0.389694	0.171782	0.881133
	C177	C	0.615976	0.169284	0.122860
	C178	C	0.390396	0.810517	0.126202
	C179	C	0.615601	0.812229	0.882463
	C180	C	0.389937	0.869102	0.183594
	C181	C	0.615333	0.113010	0.182239
	C182	C	0.390134	0.115138	0.822246
	C183	C	0.615229	0.869200	0.823219
	C184	C	0.881953	0.166879	0.386759
	C185	C	0.121167	0.167794	0.614405
	C186	C	0.123825	0.811246	0.387503
	C187	C	0.880723	0.810617	0.614553
	C188	C	0.182936	0.376976	0.877311
	C189	C	0.181192	0.602066	0.123141
	C190	C	0.824004	0.375616	0.121030
	C191	C	0.822552	0.604245	0.879031
	C192	C	0.402589	0.084501	0.599663
	C193	C	0.599413	0.897059	0.599587
	C194	C	0.600359	0.084522	0.404843
	C195	C	0.405648	0.897115	0.405978
	C196	C	0.602087	0.392531	0.095425
	C197	C	0.600846	0.589088	0.907949
	C198	C	0.402586	0.587180	0.095340
	C199	C	0.406733	0.394619	0.909162
	C200	C	0.093784	0.586208	0.402022
	C201	C	0.909432	0.587602	0.598936
	C202	C	0.093968	0.390582	0.599344
	C203	C	0.908269	0.390447	0.401351
	C204	C	0.903478	0.583260	0.097888
	C205	C	0.099384	0.395897	0.096010
	C206	C	0.100049	0.583641	0.903183
	C207	C	0.902992	0.396373	0.902445
	C208	C	0.099340	0.891873	0.594067
	C209	C	0.100156	0.085617	0.407910
	C210	C	0.902191	0.087245	0.594367
	C211	C	0.903491	0.892977	0.408254
	C212	C	0.594555	0.088319	0.903480
	C213	C	0.410315	0.089339	0.101879
	C214	C	0.594496	0.892334	0.101445
	C215	C	0.410420	0.894093	0.905377
	Zn216	Zn	0.501899	-0.008388	0.751433
	Zn217	Zn	0.502776	-0.009155	0.254051
	Zn218	Zn	0.751933	0.490708	0.000621
	Zn219	Zn	0.251840	0.490149	0.000563
	Zn220	Zn	0.001937	0.739880	0.500175
	Zn221	Zn	0.001348	0.238144	0.500453
	Zn222	Zn	0.001678	0.490643	0.751560
	Zn223	Zn	0.001559	0.488918	0.249164
	Zn224	Zn	0.502730	0.739550	0.003196
	Zn225	Zn	0.503036	0.241019	0.002643
	Zn226	Zn	0.751193	-0.010092	0.501257
	Zn227	Zn	0.251889	-0.010051	0.502494
	N228	N	0.416391	0.953950	0.680798
	N229	N	0.587155	0.028335	0.679832
	N230	N	0.588295	0.953596	0.324527
	N231	N	0.417121	0.028118	0.325435
	N232	N	0.682332	0.403231	0.965048
	N233	N	0.681867	0.577728	0.037552
	N234	N	0.321343	0.578943	0.965935
	N235	N	0.322409	0.403161	0.037134
	N236	N	0.964948	0.668606	0.414152
	N237	N	0.038779	0.667952	0.585280
	N238	N	0.964180	0.310607	0.586554
	N239	N	0.038110	0.310094	0.414682
	N240	N	0.964745	0.403595	0.680963
	N241	N	0.037707	0.578092	0.681049
	N242	N	0.964872	0.575605	0.320711
	N243	N	0.037106	0.400813	0.319148
	N244	N	0.416208	0.669941	0.965813
	N245	N	0.587228	0.667669	0.039340
	N246	N	0.589011	0.311812	0.965199
	N247	N	0.419060	0.314210	0.039946
	N248	N	0.681298	0.953670	0.415238
	N249	N	0.681145	0.026887	0.588490
	N250	N	0.320429	0.954936	0.591559
	N251	N	0.322365	0.026597	0.416165
	N252	N	0.916076	0.452302	0.178490
	N253	N	0.087713	0.525377	0.178525
	N254	N	0.086866	0.452475	0.823172
	N255	N	0.916325	0.527755	0.822717
	N256	N	0.184314	0.900572	0.466520
	N257	N	0.181325	0.077312	0.537121
	N258	N	0.821278	0.076854	0.464934
	N259	N	0.820880	0.902176	0.537360
	N260	N	0.465697	0.170648	0.916260
	N261	N	0.539903	0.169267	0.087847
	N262	N	0.466447	0.810130	0.090812
	N263	N	0.539665	0.812630	0.918271
	N264	N	0.465695	0.904483	0.183456
	N265	N	0.538858	0.078585	0.183642
	N266	N	0.466195	0.079278	0.821416
	N267	N	0.538940	0.904718	0.822772
	N268	N	0.916214	0.167137	0.463582
	N269	N	0.086230	0.166572	0.538020
	N270	N	0.086843	0.812176	0.463249
	N271	N	0.916399	0.811389	0.538194
	N272	N	0.184230	0.454611	0.911315
	N273	N	0.181208	0.525482	0.087178
	N274	N	0.823245	0.452971	0.086348
	N275	N	0.821637	0.526662	0.913216
	O276	O	0.593898	0.376148	0.501416
	H277	H	0.592102	0.378722	0.502009
	H278	H	0.595346	0.361885	0.491347
	O279	O	0.355409	0.596898	0.319391
	H280	H	0.350342	0.593830	0.312890
	H281	H	0.365412	0.607558	0.328631
	O282	O	1.078644	0.155348	1.042687
	H283	H	1.077109	0.150392	1.029759
	H284	H	1.065798	0.159823	1.037504
	O285	O	0.471483	0.618947	0.330673
	H286	H	0.461178	0.625765	0.344121
	H287	H	0.475148	0.632017	0.311543
	O288	O	1.166339	0.842449	0.850501
	H289	H	1.166569	0.838454	0.843413
	H290	H	1.168530	0.853655	0.849953
	O291	O	-0.080237	0.815586	0.195229
	H292	H	-0.079149	0.817317	0.197332
	H293	H	-0.094816	0.813000	0.188154
	O294	O	0.318927	0.501217	0.666582
	H295	H	0.307140	0.481868	0.673010
	H296	H	0.313556	0.481829	0.660600
	O297	O	0.799657	0.788035	0.745779
	H298	H	0.830515	0.788398	0.745946
	H299	H	0.794217	0.776418	0.764278
	O300	O	0.491265	0.532461	0.649921
	H301	H	0.493246	0.516923	0.642032
	H302	H	0.479711	0.523873	0.662678
	O303	O	0.619332	0.346195	0.458634
	H304	H	0.632592	0.354791	0.461350
	H305	H	0.619715	0.353882	0.449481
	O306	O	0.420876	0.573045	0.444520
	H307	H	0.417938	0.570778	0.431397
	H308	H	0.410025	0.578826	0.445322
	O309	O	0.368047	0.329641	0.594921
	H310	H	0.375314	0.316899	0.593656
	H311	H	0.364308	0.318360	0.588135
	O312	O	0.180015	0.100707	-0.056216
	H313	H	0.187380	0.096514	-0.047024
	H314	H	0.189454	0.082094	-0.059891
	O315	O	0.599927	0.453813	0.449532
	H316	H	0.604832	0.452134	0.449603
	H317	H	0.596791	0.450003	0.442764
	O318	O	0.044180	0.838007	0.911988
	H319	H	0.041569	0.837533	0.917176
	H320	H	0.037006	0.847512	0.914735
	O321	O	0.603384	0.601422	0.591049
	H322	H	0.595324	0.597062	0.593018
	H323	H	0.593264	0.602827	0.597100
	O324	O	-0.470935	1.367332	-0.412958
	H325	H	-0.468463	1.367817	-0.421346
	H326	H	-0.483378	1.375698	-0.424098
	O327	O	0.459561	0.525085	0.563768
	H328	H	0.444592	0.521801	0.561073
	H329	H	0.454667	0.514649	0.563960
	O330	O	-0.039052	-0.032347	0.875391
	H331	H	-0.042293	-0.023130	0.868529
	H332	H	-0.032338	-0.017870	0.886719
	O333	O	0.096700	-0.095076	0.930581
	H334	H	0.120377	-0.108323	0.921942
	H335	H	0.089566	-0.099308	0.913903
	O336	O	0.513119	0.393965	0.327698
	H337	H	0.514267	0.381464	0.318745
	H338	H	0.522677	0.395175	0.316825
	O339	O	1.167415	0.142234	0.128646
	H340	H	1.150048	0.140374	0.119356
	H341	H	1.178731	0.139104	0.120941
	O342	O	-0.087188	0.074448	0.123195
	H343	H	-0.082883	0.052323	0.128724
	H344	H	-0.089984	0.061884	0.112557
	O345	O	0.880898	0.000548	0.870172
	H346	H	0.895987	0.011518	0.867116
	H347	H	0.878270	0.016581	0.874870
	O348	O	1.092147	0.844999	0.003459
	H349	H	1.084351	0.851897	-0.003522
	H350	H	1.085892	0.849008	0.000026
	O351	O	0.395406	0.531317	0.426950
	H352	H	0.395727	0.538534	0.432741
	H353	H	0.409749	0.531727	0.446512
	O354	O	1.000621	-0.061476	1.178630
	H355	H	0.995092	-0.080633	1.184184
	H356	H	0.984954	-0.056334	1.183426
	O357	O	0.118871	0.143604	0.903971
	H358	H	0.108697	0.141929	0.907486
	H359	H	0.121748	0.138415	0.919598
	O360	O	0.563695	0.535612	0.495463
	H361	H	0.562120	0.531053	0.489979
	H362	H	0.561631	0.542093	0.499596
	O363	O	0.064245	0.852980	0.979744
	H364	H	0.066431	0.848752	0.992263
	H365	H	0.080242	0.856411	0.986064
	O366	O	0.471981	0.409868	0.383568
	H367	H	0.480789	0.418485	0.386256
	H368	H	0.476678	0.426515	0.379328
	O369	O	-0.044339	0.864372	0.103376
	H370	H	-0.049065	0.867104	0.097994
	H371	H	-0.051293	0.854946	0.116605
	O372	O	0.520692	0.326746	0.585089
	H373	H	0.524477	0.321051	0.580341
	H374	H	0.538058	0.320062	0.580112
	O375	O	0.589553	0.482539	0.636333
	H376	H	0.595565	0.476580	0.634095
	H377	H	0.595509	0.485079	0.642308
	O378	O	0.808615	0.958091	0.110203
	H379	H	0.801127	0.954372	0.099713
	H380	H	0.820147	0.954245	0.107586
	O381	O	0.832378	-0.149939	-0.009817
	H382	H	0.839887	-0.160136	-0.004764
	H383	H	0.828477	-0.138639	-0.021604
	O384	O	0.959655	1.102683	0.009171
	H385	H	0.965306	1.098645	0.014165
	H386	H	0.965799	1.098284	0.022194
	O387	O	-0.097443	0.052409	-0.061294
	H388	H	-0.100022	0.042989	-0.060043
	H389	H	-0.085438	0.056934	-0.067790
	O390	O	-0.006401	0.906243	0.111433
	H391	H	0.004775	0.909054	0.084096
	H392	H	-0.015995	0.906587	0.121397
	O393	O	0.883025	1.179368	0.890020
	H394	H	0.889153	1.195288	0.896657
	H395	H	0.872866	1.189795	0.886236
	O396	O	0.631962	0.567735	0.577849
	H397	H	0.622032	0.560345	0.581670
	H398	H	0.628596	0.584856	0.581085
	O399	O	-0.190587	1.043410	0.818904
	H400	H	-0.196716	1.041291	0.818802
	H401	H	-0.197587	1.053787	0.819762
	O402	O	0.388867	0.521528	0.554941
	H403	H	0.377608	0.524694	0.541982
	H404	H	0.383393	0.514571	0.558862
	O405	O	1.200338	1.029096	0.150625
	H406	H	1.204109	1.036855	0.168003
	H407	H	1.209027	1.042772	0.150029
	O408	O	1.148106	0.925263	-0.145922
	H409	H	1.155038	0.923931	-0.139661
	H410	H	1.157428	0.917570	-0.170021
	O411	O	1.004474	0.069948	1.082840
	H412	H	1.009704	0.062519	1.089729
	H413	H	0.990127	0.046717	1.086986
	O414	O	0.457553	0.639051	0.554695
	H415	H	0.454473	0.633859	0.568589
	H416	H	0.464913	0.635748	0.554892
	O417	O	0.512025	0.424827	0.456613
	H418	H	0.520467	0.425287	0.451662
	H419	H	0.528433	0.425166	0.461073
