data_Molecule from HDF5

_cell_length_a		16.337586
_cell_length_b		16.290950
_cell_length_c		16.163646
_cell_angle_alpha	90.022757
_cell_angle_beta	90.010293
_cell_angle_gamma	89.963234
_symmetry_space_group_name_H-M	'P 1'
_symmetry_Int_Tables_number		1

loop_
	_symmetry_equiv_pos_as_xyz
	x,y,z

loop_
	_atom_site_label
	_atom_site_type_symbol
	_atom_site_fract_x
	_atom_site_fract_y
	_atom_site_fract_z
	H0	H	0.403253	0.836363	0.713068
	H1	H	0.596290	0.164784	0.712157
	H2	H	0.597473	0.835831	0.286597
	H3	H	0.404532	0.165110	0.287585
	H4	H	0.713041	0.401994	0.835068
	H5	H	0.712241	0.597491	0.165528
	H6	H	0.285518	0.598621	0.835631
	H7	H	0.285398	0.401552	0.164123
	H8	H	0.837274	0.714373	0.401534
	H9	H	0.163741	0.713728	0.598278
	H10	H	0.837055	0.284319	0.599359
	H11	H	0.163151	0.284701	0.401274
	H12	H	0.836176	0.403469	0.713115
	H13	H	0.164209	0.595992	0.713181
	H14	H	0.836187	0.595831	0.287391
	H15	H	0.163729	0.402398	0.286211
	H16	H	0.402405	0.713191	0.835377
	H17	H	0.597427	0.713146	0.164862
	H18	H	0.597570	0.286901	0.834883
	H19	H	0.402814	0.288031	0.165051
	H20	H	0.715636	0.836982	0.400131
	H21	H	0.715571	0.162760	0.598932
	H22	H	0.285169	0.836602	0.599900
	H23	H	0.285241	0.163265	0.401754
	H24	H	0.903238	0.335364	0.213075
	H25	H	0.095838	0.663788	0.212410
	H26	H	0.095654	0.334752	0.787853
	H27	H	0.903469	0.664475	0.787648
	H28	H	0.213930	0.901641	0.335659
	H29	H	0.213665	0.098698	0.665134
	H30	H	0.785160	0.098961	0.335915
	H31	H	0.785608	0.902008	0.664841
	H32	H	0.337070	0.214879	0.901371
	H33	H	0.663289	0.215438	0.098642
	H34	H	0.337193	0.785127	0.099141
	H35	H	0.662985	0.783915	0.900123
	H36	H	0.335858	0.903647	0.212708
	H37	H	0.664369	0.096695	0.212440
	H38	H	0.336485	0.097641	0.786496
	H39	H	0.663455	0.903212	0.786024
	H40	H	0.901939	0.213360	0.335229
	H41	H	0.096636	0.212899	0.664667
	H42	H	0.097993	0.786599	0.335659
	H43	H	0.903071	0.787557	0.665724
	H44	H	0.216621	0.336976	0.899245
	H45	H	0.214700	0.663036	0.099234
	H46	H	0.784775	0.336765	0.099222
	H47	H	0.784928	0.663850	0.901959
	H48	H	0.413473	0.112083	0.583835
	H49	H	0.593916	0.885076	0.586045
	H50	H	0.595838	0.115842	0.412080
	H51	H	0.399815	0.879811	0.400006
	H52	H	0.595517	0.410916	0.117063
	H53	H	0.592680	0.588637	0.883352
	H54	H	0.407054	0.586506	0.115280
	H55	H	0.406392	0.410668	0.883460
	H56	H	0.116898	0.595574	0.406999
	H57	H	0.886505	0.586920	0.591676
	H58	H	0.118520	0.403312	0.599349
	H59	H	0.883966	0.408672	0.405368
	H60	H	0.116260	0.402225	0.587280
	H61	H	0.880927	0.595606	0.601847
	H62	H	0.116313	0.593537	0.407861
	H63	H	0.883269	0.403210	0.406063
	H64	H	0.412339	0.597197	0.117537
	H65	H	0.589949	0.596426	0.882569
	H66	H	0.588924	0.406881	0.116606
	H67	H	0.410585	0.407625	0.882762
	H68	H	0.596423	0.118811	0.402607
	H69	H	0.599436	0.880734	0.595645
	H70	H	0.393515	0.119837	0.589939
	H71	H	0.414810	0.884996	0.403721
	H72	H	0.899469	0.619375	0.095245
	H73	H	0.099027	0.381930	0.091725
	H74	H	0.104304	0.618041	0.911963
	H75	H	0.909907	0.386401	0.911632
	H76	H	0.090313	0.898996	0.619515
	H77	H	0.102675	0.086554	0.381673
	H78	H	0.914272	0.083697	0.613192
	H79	H	0.911644	0.900486	0.381682
	H80	H	0.618104	0.092500	0.899938
	H81	H	0.384299	0.099602	0.085749
	H82	H	0.611866	0.915031	0.087369
	H83	H	0.382431	0.902517	0.904766
	H84	H	0.618928	0.906853	0.103415
	H85	H	0.385374	0.086172	0.095458
	H86	H	0.618160	0.100551	0.908232
	H87	H	0.384924	0.905940	0.912011
	H88	H	0.911919	0.102278	0.619251
	H89	H	0.084121	0.088803	0.385882
	H90	H	0.101939	0.908669	0.620125
	H91	H	0.898149	0.905589	0.380024
	H92	H	0.093087	0.619683	0.895942
	H93	H	0.091555	0.381678	0.097273
	H94	H	0.909340	0.616548	0.097365
	H95	H	0.899469	0.382291	0.909630
	H96	H	0.410078	0.119406	0.605041
	H97	H	0.588006	0.883982	0.596278
	H98	H	0.588256	0.115400	0.406244
	H99	H	0.403490	0.885197	0.414409
	H100	H	0.595644	0.403406	0.119330
	H101	H	0.597388	0.594374	0.880491
	H102	H	0.400481	0.595129	0.120735
	H103	H	0.405951	0.405802	0.881464
	H104	H	0.116706	0.593661	0.405859
	H105	H	0.883579	0.600531	0.588385
	H106	H	0.113941	0.412909	0.593097
	H107	H	0.885041	0.406071	0.409949
	H108	H	0.905689	0.615222	0.087686
	H109	H	0.090724	0.384981	0.088429
	H110	H	0.085769	0.612645	0.912576
	H111	H	0.906931	0.382146	0.901168
	H112	H	0.088734	0.913146	0.614479
	H113	H	0.094549	0.103288	0.378597
	H114	H	0.897389	0.089414	0.619637
	H115	H	0.908941	0.914419	0.385190
	H116	H	0.614073	0.090132	0.911068
	H117	H	0.380155	0.100574	0.101916
	H118	H	0.618061	0.896440	0.087022
	H119	H	0.384204	0.910247	0.904593
	C120	C	0.378131	0.008492	0.621371
	C121	C	0.621714	0.991385	0.621145
	C122	C	0.621543	0.008471	0.378489
	C123	C	0.378053	0.991570	0.378126
	C124	C	0.621574	0.378560	0.008545
	C125	C	0.621034	0.621138	0.991737
	C126	C	0.378624	0.621529	0.008811
	C127	C	0.378849	0.379253	0.991381
	C128	C	0.008610	0.621626	0.378666
	C129	C	0.991660	0.622033	0.622218
	C130	C	0.008221	0.378151	0.621576
	C131	C	0.991839	0.377540	0.378230
	C132	C	0.877351	0.508514	0.121672
	C133	C	0.121488	0.491188	0.120957
	C134	C	0.122126	0.508445	0.878138
	C135	C	0.877392	0.491764	0.878584
	C136	C	0.121655	0.878475	0.508958
	C137	C	0.121654	0.121194	0.491477
	C138	C	0.879258	0.120523	0.508527
	C139	C	0.878733	0.878963	0.491751
	C140	C	0.508485	0.122120	0.878431
	C141	C	0.491767	0.122619	0.121688
	C142	C	0.508341	0.878283	0.121005
	C143	C	0.491977	0.878186	0.878360
	C144	C	0.381969	0.885394	0.676207
	C145	C	0.618008	0.115264	0.675518
	C146	C	0.618319	0.884979	0.323746
	C147	C	0.382535	0.115631	0.324554
	C148	C	0.675551	0.381476	0.884201
	C149	C	0.675073	0.618082	0.116043
	C150	C	0.323698	0.619171	0.884704
	C151	C	0.323788	0.381747	0.115368
	C152	C	0.885805	0.676937	0.380694
	C153	C	0.114951	0.676363	0.619341
	C154	C	0.885507	0.322785	0.619514
	C155	C	0.114660	0.322668	0.380839
	C156	C	0.885037	0.381710	0.676123
	C157	C	0.115296	0.617564	0.676011
	C158	C	0.885522	0.618128	0.323902
	C159	C	0.114991	0.381314	0.323967
	C160	C	0.381506	0.676185	0.884708
	C161	C	0.617786	0.675273	0.116033
	C162	C	0.618314	0.324290	0.884283
	C163	C	0.381809	0.324991	0.115501
	C164	C	0.676941	0.885454	0.380345
	C165	C	0.677308	0.114507	0.619584
	C166	C	0.323478	0.885390	0.619640
	C167	C	0.323532	0.114928	0.381297
	C168	C	0.881853	0.384700	0.175714
	C169	C	0.117557	0.614883	0.175307
	C170	C	0.118234	0.384564	0.823943
	C171	C	0.881694	0.615367	0.824729
	C172	C	0.176276	0.881063	0.384817
	C173	C	0.175844	0.118821	0.615837
	C174	C	0.823434	0.118863	0.384844
	C175	C	0.823424	0.881197	0.615735
	C176	C	0.385692	0.177015	0.880966
	C177	C	0.614855	0.176937	0.118551
	C178	C	0.385582	0.823340	0.119054
	C179	C	0.614582	0.822792	0.880300
	C180	C	0.384898	0.882519	0.175111
	C181	C	0.615324	0.118185	0.175383
	C182	C	0.385319	0.118468	0.824194
	C183	C	0.614863	0.881753	0.823493
	C184	C	0.881466	0.175506	0.384560
	C185	C	0.117773	0.175497	0.615647
	C186	C	0.118273	0.824313	0.384634
	C187	C	0.881778	0.824602	0.616124
	C188	C	0.177805	0.385353	0.879680
	C189	C	0.176350	0.614455	0.119035
	C190	C	0.822782	0.385290	0.119276
	C191	C	0.822864	0.614993	0.881450
	C192	C	0.399317	0.094922	0.599223
	C193	C	0.600166	0.905458	0.599192
	C194	C	0.600045	0.094487	0.400570
	C195	C	0.399540	0.905428	0.399832
	C196	C	0.599808	0.400426	0.095326
	C197	C	0.599532	0.599528	0.904542
	C198	C	0.400144	0.599343	0.095612
	C199	C	0.400976	0.401475	0.904811
	C200	C	0.094295	0.600462	0.400401
	C201	C	0.905987	0.600716	0.600423
	C202	C	0.094054	0.399754	0.599579
	C203	C	0.906084	0.399309	0.400583
	C204	C	0.898606	0.594727	0.100068
	C205	C	0.100067	0.405177	0.098855
	C206	C	0.100610	0.594449	0.900341
	C207	C	0.899030	0.405639	0.900717
	C208	C	0.100185	0.900460	0.595825
	C209	C	0.100274	0.099275	0.404558
	C210	C	0.901312	0.098260	0.595138
	C211	C	0.900004	0.900347	0.404735
	C212	C	0.594618	0.100591	0.900133
	C213	C	0.405490	0.101694	0.100548
	C214	C	0.594113	0.899829	0.098993
	C215	C	0.406010	0.899764	0.900533
	Zn216	Zn	0.499876	0.000478	0.749610
	Zn217	Zn	0.500369	0.000145	0.249765
	Zn218	Zn	0.748630	0.500066	-0.000011
	Zn219	Zn	0.250570	0.499975	0.000071
	Zn220	Zn	0.000242	0.750762	0.500513
	Zn221	Zn	0.000132	0.248777	0.499842
	Zn222	Zn	-0.000100	0.499672	0.750348
	Zn223	Zn	0.000201	0.499772	0.249393
	Zn224	Zn	0.500318	0.748821	0.000315
	Zn225	Zn	0.500090	0.251279	-0.000429
	Zn226	Zn	0.750207	0.000038	0.500055
	Zn227	Zn	0.249346	-0.000399	0.500265
	N228	N	0.415159	0.963097	0.677401
	N229	N	0.583989	0.037946	0.676583
	N230	N	0.584289	0.962239	0.322758
	N231	N	0.415818	0.037919	0.322613
	N232	N	0.677525	0.414557	0.962417
	N233	N	0.677079	0.585159	0.037629
	N234	N	0.321964	0.585574	0.962759
	N235	N	0.321813	0.414838	0.037013
	N236	N	0.963201	0.679119	0.414237
	N237	N	0.037278	0.679244	0.586508
	N238	N	0.963039	0.320488	0.586287
	N239	N	0.037093	0.320356	0.413857
	N240	N	0.962302	0.415242	0.677534
	N241	N	0.037856	0.584457	0.677917
	N242	N	0.962714	0.584338	0.322618
	N243	N	0.037649	0.414748	0.322170
	N244	N	0.414941	0.677495	0.962794
	N245	N	0.585011	0.677169	0.037736
	N246	N	0.585450	0.322396	0.962651
	N247	N	0.415319	0.323603	0.037495
	N248	N	0.679040	0.963174	0.413546
	N249	N	0.679756	0.036741	0.586537
	N250	N	0.321035	0.963080	0.586364
	N251	N	0.320522	0.036930	0.413793
	N252	N	0.915102	0.462300	0.177366
	N253	N	0.084078	0.537453	0.176464
	N254	N	0.084135	0.461882	0.823167
	N255	N	0.915052	0.537681	0.822878
	N256	N	0.178242	0.914070	0.463109
	N257	N	0.178323	0.085594	0.537515
	N258	N	0.821991	0.085288	0.462933
	N259	N	0.821410	0.914383	0.537421
	N260	N	0.463470	0.179378	0.913899
	N261	N	0.537068	0.179721	0.085836
	N262	N	0.463291	0.820580	0.086194
	N263	N	0.537049	0.820350	0.913598
	N264	N	0.462092	0.916229	0.176426
	N265	N	0.537885	0.085208	0.177517
	N266	N	0.462673	0.085029	0.822583
	N267	N	0.537761	0.915453	0.822263
	N268	N	0.915356	0.176788	0.462492
	N269	N	0.084809	0.176805	0.537415
	N270	N	0.084982	0.822733	0.462786
	N271	N	0.915477	0.823360	0.538133
	N272	N	0.180599	0.463309	0.912537
	N273	N	0.178999	0.536558	0.086143
	N274	N	0.820226	0.463043	0.086179
	N275	N	0.820311	0.537204	0.914179
