data_Molecule from HDF5

_cell_length_a		16.269606
_cell_length_b		16.284449
_cell_length_c		16.081392
_cell_angle_alpha	89.901797
_cell_angle_beta	90.058617
_cell_angle_gamma	89.985790
_symmetry_space_group_name_H-M	'P 1'
_symmetry_Int_Tables_number		1

loop_
	_symmetry_equiv_pos_as_xyz
	x,y,z

loop_
	_atom_site_label
	_atom_site_type_symbol
	_atom_site_fract_x
	_atom_site_fract_y
	_atom_site_fract_z
	H0	H	0.395465	0.837667	0.715007
	H1	H	0.590128	0.166067	0.715783
	H2	H	0.591276	0.838115	0.288031
	H3	H	0.395071	0.166034	0.287143
	H4	H	0.708329	0.401066	0.836458
	H5	H	0.709006	0.599866	0.166545
	H6	H	0.277785	0.602190	0.835965
	H7	H	0.277203	0.399558	0.165900
	H8	H	0.830000	0.720169	0.397942
	H9	H	0.154913	0.719365	0.604082
	H10	H	0.829500	0.286051	0.602744
	H11	H	0.155109	0.285894	0.398805
	H12	H	0.828794	0.403110	0.715180
	H13	H	0.155799	0.601028	0.715562
	H14	H	0.828267	0.600054	0.287637
	H15	H	0.156804	0.405156	0.288250
	H16	H	0.393621	0.716062	0.835758
	H17	H	0.596038	0.716818	0.165974
	H18	H	0.592369	0.286941	0.836809
	H19	H	0.395229	0.287607	0.167462
	H20	H	0.710165	0.840101	0.400498
	H21	H	0.707610	0.166435	0.601957
	H22	H	0.277441	0.838852	0.603238
	H23	H	0.277035	0.164964	0.401015
	H24	H	0.894739	0.338302	0.217107
	H25	H	0.091545	0.666227	0.214837
	H26	H	0.089064	0.337515	0.787450
	H27	H	0.895286	0.666398	0.787931
	H28	H	0.206874	0.902926	0.336614
	H29	H	0.206607	0.100693	0.666972
	H30	H	0.777806	0.103095	0.336018
	H31	H	0.778679	0.904460	0.666842
	H32	H	0.330005	0.217959	0.900039
	H33	H	0.655699	0.215922	0.103249
	H34	H	0.330594	0.783290	0.103918
	H35	H	0.656391	0.784918	0.900587
	H36	H	0.328932	0.903218	0.214788
	H37	H	0.656807	0.097805	0.213854
	H38	H	0.328540	0.098450	0.788661
	H39	H	0.657541	0.903362	0.787745
	H40	H	0.892998	0.217047	0.335564
	H41	H	0.092597	0.217288	0.666320
	H42	H	0.091154	0.789218	0.336385
	H43	H	0.892486	0.787503	0.666312
	H44	H	0.207560	0.337584	0.900560
	H45	H	0.211116	0.663769	0.103013
	H46	H	0.779052	0.337580	0.101490
	H47	H	0.775906	0.664151	0.899466
	H48	H	0.392072	0.121737	0.595867
	H49	H	0.591038	0.885714	0.586521
	H50	H	0.584238	0.119073	0.405880
	H51	H	0.401713	0.887186	0.414392
	H52	H	0.586044	0.412085	0.119799
	H53	H	0.586470	0.587041	0.885352
	H54	H	0.394388	0.588692	0.120451
	H55	H	0.396950	0.414503	0.884345
	H56	H	0.111155	0.607055	0.414905
	H57	H	0.879454	0.591330	0.582054
	H58	H	0.112011	0.402518	0.595802
	H59	H	0.875587	0.407208	0.411483
	H60	H	0.106739	0.409129	0.585184
	H61	H	0.874931	0.588856	0.602678
	H62	H	0.105207	0.587168	0.414633
	H63	H	0.877547	0.412716	0.410769
	H64	H	0.408545	0.586207	0.115398
	H65	H	0.579057	0.593804	0.885574
	H66	H	0.584109	0.405065	0.119581
	H67	H	0.407632	0.409887	0.886416
	H68	H	0.584563	0.118649	0.410414
	H69	H	0.588706	0.883583	0.600000
	H70	H	0.404100	0.118999	0.600704
	H71	H	0.393311	0.883561	0.409567
	H72	H	0.893406	0.619261	0.089757
	H73	H	0.083686	0.385907	0.095262
	H74	H	0.080679	0.616309	0.908615
	H75	H	0.910568	0.389375	0.911903
	H76	H	0.088211	0.913333	0.619761
	H77	H	0.083670	0.091574	0.384135
	H78	H	0.898864	0.089921	0.618511
	H79	H	0.905271	0.914271	0.386133
	H80	H	0.609846	0.097214	0.911352
	H81	H	0.375186	0.098091	0.091317
	H82	H	0.608074	0.906768	0.087154
	H83	H	0.376610	0.914656	0.902408
	H84	H	0.609303	0.913441	0.096354
	H85	H	0.376651	0.091661	0.092062
	H86	H	0.609529	0.092429	0.910466
	H87	H	0.373296	0.897517	0.907927
	H88	H	0.905310	0.095694	0.618231
	H89	H	0.083295	0.099411	0.382706
	H90	H	0.081088	0.910532	0.618005
	H91	H	0.900686	0.906045	0.382304
	H92	H	0.090012	0.617680	0.914309
	H93	H	0.086305	0.385292	0.091683
	H94	H	0.900743	0.619572	0.100041
	H95	H	0.890341	0.383516	0.915535
	H96	H	0.400499	0.116408	0.587033
	H97	H	0.579276	0.889459	0.591763
	H98	H	0.588385	0.119940	0.407802
	H99	H	0.401968	0.884720	0.404520
	H100	H	0.590864	0.406490	0.121898
	H101	H	0.588168	0.595914	0.880802
	H102	H	0.403863	0.600316	0.119449
	H103	H	0.398158	0.403261	0.881145
	H104	H	0.112314	0.595335	0.397799
	H105	H	0.871974	0.608216	0.592937
	H106	H	0.108294	0.415030	0.597782
	H107	H	0.874506	0.409107	0.406322
	H108	H	0.904653	0.615568	0.088825
	H109	H	0.087473	0.384566	0.095628
	H110	H	0.089676	0.620174	0.903155
	H111	H	0.898235	0.381254	0.895894
	H112	H	0.085797	0.905925	0.621740
	H113	H	0.090395	0.096030	0.381510
	H114	H	0.898172	0.098951	0.621544
	H115	H	0.896657	0.915027	0.383161
	H116	H	0.611375	0.094527	0.906658
	H117	H	0.373728	0.095880	0.097497
	H118	H	0.611632	0.902945	0.096489
	H119	H	0.379837	0.909495	0.918976
	C120	C	0.370775	0.010676	0.623510
	C121	C	0.614914	0.994263	0.622664
	C122	C	0.614983	0.011034	0.379042
	C123	C	0.370858	0.993459	0.380295
	C124	C	0.615490	0.379236	0.010866
	C125	C	0.614843	0.621720	0.992820
	C126	C	0.372350	0.621839	0.009642
	C127	C	0.371625	0.379478	0.992901
	C128	C	0.001355	0.625037	0.379600
	C129	C	0.983371	0.624573	0.622485
	C130	C	0.001081	0.380454	0.622513
	C131	C	0.983913	0.380665	0.379753
	C132	C	0.871235	0.510050	0.122590
	C133	C	0.114839	0.493080	0.123269
	C134	C	0.114666	0.509689	0.879464
	C135	C	0.870715	0.493109	0.878980
	C136	C	0.114222	0.881026	0.510720
	C137	C	0.114526	0.124183	0.492220
	C138	C	0.871513	0.124167	0.510077
	C139	C	0.871313	0.881957	0.492737
	C140	C	0.501478	0.123382	0.880243
	C141	C	0.483358	0.123214	0.123168
	C142	C	0.501996	0.878734	0.123231
	C143	C	0.484782	0.879056	0.879996
	C144	C	0.373921	0.887152	0.678488
	C145	C	0.611556	0.117014	0.678587
	C146	C	0.612355	0.887592	0.324833
	C147	C	0.373890	0.116486	0.324460
	C148	C	0.670584	0.381151	0.886073
	C149	C	0.670790	0.619877	0.117282
	C150	C	0.315915	0.621276	0.885484
	C151	C	0.316011	0.380671	0.117009
	C152	C	0.878427	0.681195	0.379437
	C153	C	0.106267	0.680821	0.622425
	C154	C	0.878271	0.324538	0.621677
	C155	C	0.106670	0.324494	0.380224
	C156	C	0.877721	0.383165	0.677522
	C157	C	0.106883	0.621765	0.677834
	C158	C	0.877898	0.621817	0.324241
	C159	C	0.107416	0.383940	0.325294
	C160	C	0.373551	0.678335	0.885445
	C161	C	0.614279	0.677723	0.116824
	C162	C	0.612944	0.324173	0.886346
	C163	C	0.374630	0.324763	0.117725
	C164	C	0.671684	0.888697	0.380723
	C165	C	0.669791	0.117432	0.621578
	C166	C	0.315567	0.887608	0.622284
	C167	C	0.315280	0.116298	0.381132
	C168	C	0.874183	0.387081	0.178843
	C169	C	0.112217	0.616824	0.177789
	C170	C	0.110734	0.386596	0.824290
	C171	C	0.873747	0.616797	0.824483
	C172	C	0.169463	0.883061	0.386173
	C173	C	0.169742	0.121764	0.617102
	C174	C	0.815603	0.122635	0.385421
	C175	C	0.816116	0.883627	0.617274
	C176	C	0.378703	0.179610	0.880998
	C177	C	0.606848	0.177939	0.122195
	C178	C	0.379152	0.822150	0.122908
	C179	C	0.607658	0.823235	0.880721
	C180	C	0.378386	0.881468	0.178296
	C181	C	0.607288	0.119104	0.177354
	C182	C	0.377747	0.119950	0.825739
	C183	C	0.608147	0.882220	0.824911
	C184	C	0.873095	0.179357	0.385199
	C185	C	0.112313	0.178958	0.617153
	C186	C	0.111698	0.826629	0.385810
	C187	C	0.872897	0.825635	0.616938
	C188	C	0.169572	0.386569	0.880680
	C189	C	0.171662	0.615582	0.122035
	C190	C	0.816606	0.386554	0.121366
	C191	C	0.814507	0.615697	0.880293
	C192	C	0.392425	0.096810	0.601018
	C193	C	0.592832	0.908360	0.599583
	C194	C	0.592403	0.096971	0.401506
	C195	C	0.392512	0.907354	0.402932
	C196	C	0.593570	0.401501	0.098038
	C197	C	0.591531	0.598965	0.906347
	C198	C	0.395527	0.598514	0.096113
	C199	C	0.394287	0.402550	0.906142
	C200	C	0.087243	0.603139	0.402333
	C201	C	0.897681	0.602527	0.599373
	C202	C	0.086840	0.402377	0.599731
	C203	C	0.897949	0.402948	0.402817
	C204	C	0.893023	0.595933	0.099597
	C205	C	0.092411	0.407387	0.100705
	C206	C	0.093121	0.595849	0.901997
	C207	C	0.892988	0.406952	0.901205
	C208	C	0.091705	0.903338	0.597426
	C209	C	0.092484	0.102315	0.405505
	C210	C	0.894017	0.101535	0.596993
	C211	C	0.894140	0.904966	0.406193
	C212	C	0.587745	0.101382	0.902844
	C213	C	0.397340	0.101792	0.100374
	C214	C	0.587545	0.901149	0.100189
	C215	C	0.398933	0.900824	0.902939
	Zn216	Zn	0.492777	0.001519	0.751496
	Zn217	Zn	0.492487	0.001419	0.250757
	Zn218	Zn	0.742796	0.500976	0.001653
	Zn219	Zn	0.243762	0.500749	0.001378
	Zn220	Zn	-0.007315	0.753608	0.501312
	Zn221	Zn	-0.007325	0.251840	0.500999
	Zn222	Zn	-0.007607	0.502359	0.750485
	Zn223	Zn	-0.007139	0.502080	0.251785
	Zn224	Zn	0.493484	0.750314	0.001462
	Zn225	Zn	0.493459	0.251703	0.002184
	Zn226	Zn	0.743690	0.003592	0.501149
	Zn227	Zn	0.242144	0.002032	0.502031
	N228	N	0.407590	0.964681	0.679452
	N229	N	0.578094	0.039374	0.679222
	N230	N	0.577838	0.964772	0.323752
	N231	N	0.407628	0.039023	0.323772
	N232	N	0.672128	0.414725	0.964529
	N233	N	0.671364	0.585616	0.039165
	N234	N	0.315139	0.586586	0.963684
	N235	N	0.314002	0.414037	0.038226
	N236	N	0.956138	0.683546	0.413009
	N237	N	0.028494	0.682708	0.588620
	N238	N	0.956053	0.322645	0.587974
	N239	N	0.028831	0.322527	0.413712
	N240	N	0.955032	0.417116	0.678244
	N241	N	0.029591	0.587666	0.678101
	N242	N	0.955355	0.587566	0.324074
	N243	N	0.030057	0.418104	0.324856
	N244	N	0.408231	0.678524	0.963581
	N245	N	0.580054	0.678835	0.038528
	N246	N	0.579389	0.323062	0.964908
	N247	N	0.408625	0.324027	0.039576
	N248	N	0.673362	0.966455	0.413699
	N249	N	0.672274	0.039991	0.587649
	N250	N	0.313213	0.965374	0.588831
	N251	N	0.313089	0.038697	0.415116
	N252	N	0.907325	0.464867	0.180012
	N253	N	0.077534	0.539703	0.178558
	N254	N	0.077379	0.464332	0.823423
	N255	N	0.907849	0.539553	0.823427
	N256	N	0.171060	0.916399	0.464885
	N257	N	0.171153	0.088285	0.538569
	N258	N	0.814475	0.089030	0.464145
	N259	N	0.815048	0.917790	0.539146
	N260	N	0.456809	0.181755	0.914099
	N261	N	0.529016	0.180463	0.088856
	N262	N	0.457220	0.819872	0.089697
	N263	N	0.529933	0.821065	0.914180
	N264	N	0.455628	0.915723	0.178834
	N265	N	0.529504	0.085900	0.178201
	N266	N	0.455232	0.085957	0.824879
	N267	N	0.530629	0.916136	0.824153
	N268	N	0.907139	0.180497	0.463654
	N269	N	0.078737	0.180862	0.538656
	N270	N	0.078282	0.825043	0.464191
	N271	N	0.906378	0.824283	0.538217
	N272	N	0.172040	0.464125	0.914304
	N273	N	0.173653	0.537697	0.088933
	N274	N	0.814755	0.463988	0.087174
	N275	N	0.812382	0.537491	0.913145
	O276	O	0.016503	-0.012971	0.036612
	H277	H	0.014736	-0.013497	0.038832
	H278	H	0.016734	-0.005820	0.029444
	O279	O	0.482812	0.531293	0.405408
	H280	H	0.471572	0.531069	0.404736
	H281	H	0.481895	0.545265	0.417146
	O282	O	0.455694	0.361647	0.546970
	H283	H	0.448075	0.367226	0.545075
	H284	H	0.455488	0.347822	0.555642
	O285	O	0.051322	0.938263	0.968649
	H286	H	0.047893	0.946356	0.965249
	H287	H	0.043269	0.931797	0.960899
	O288	O	0.480834	0.421894	0.594574
	H289	H	0.475242	0.448219	0.598446
	H290	H	0.482563	0.422657	0.604412
	O291	O	0.974065	0.968717	1.068608
	H292	H	0.960649	0.969998	1.057496
	H293	H	0.983555	0.967104	1.071256
	O294	O	1.495535	0.478379	0.432252
	H295	H	1.505001	0.467930	0.431143
	H296	H	1.487118	0.470136	0.432347
	O297	O	1.010085	-0.054002	1.040784
	H298	H	0.998946	-0.059869	1.051696
	H299	H	1.008998	-0.036718	1.043742
	O300	O	0.604795	0.633708	0.627170
	H301	H	0.607708	0.638503	0.630527
	H302	H	0.619599	0.639590	0.626961
	O303	O	0.935443	0.008599	-0.015688
	H304	H	0.938107	0.006655	-0.013339
	H305	H	0.944611	0.007825	-0.012538
	O306	O	-0.056524	1.037701	0.987925
	H307	H	-0.051760	1.029848	0.978510
	H308	H	-0.073401	1.048127	0.974419
	O309	O	0.487141	0.474045	0.522583
	H310	H	0.479602	0.476357	0.518941
	H311	H	0.501733	0.468938	0.521313
	O312	O	1.084377	0.020880	1.032869
	H313	H	1.093639	0.026708	1.039884
	H314	H	1.085833	0.021684	1.033229
	O315	O	0.303257	0.542397	0.453928
	H316	H	0.299795	0.545260	0.452426
	H317	H	0.298203	0.545973	0.458777
	O318	O	0.522552	0.654244	0.508409
	H319	H	0.512867	0.653534	0.507675
	H320	H	0.528546	0.663266	0.495513
	O321	O	0.971874	0.905783	1.028247
	H322	H	0.974705	0.895930	1.042969
	H323	H	0.962466	0.906052	1.032153
	O324	O	0.494875	0.432377	0.537935
	H325	H	0.476215	0.439140	0.539392
	H326	H	0.494683	0.413552	0.537286
	O327	O	0.518045	0.547906	0.569117
	H328	H	0.525219	0.551734	0.570396
	H329	H	0.525447	0.547608	0.571342
	O330	O	0.958734	0.096217	0.984414
	H331	H	0.954716	0.090268	0.975676
	H332	H	0.962751	0.091043	0.976285
	O333	O	1.597339	1.500802	-0.629481
	H334	H	1.589068	1.503445	-0.637400
	H335	H	1.596425	1.490999	-0.630667
	O336	O	0.471444	0.642318	0.466553
	H337	H	0.476162	0.646920	0.449376
	H338	H	0.469372	0.644072	0.480002
	O339	O	0.527400	0.478446	0.453309
	H340	H	0.522145	0.474087	0.450213
	H341	H	0.518737	0.473024	0.454977
	O342	O	-0.002871	1.045884	0.032350
	H343	H	-0.013860	1.037293	0.036823
	H344	H	0.003963	1.054575	0.030984
	O345	O	-0.096013	-0.073452	0.024384
	H346	H	-0.094305	-0.071993	0.029764
	H347	H	-0.097847	-0.081711	0.022712
	O348	O	0.544906	0.451892	0.495440
	H349	H	0.547671	0.455136	0.493245
	H350	H	0.539537	0.451905	0.502576
	O351	O	0.392499	0.572428	0.439981
	H352	H	0.397962	0.570137	0.445807
	H353	H	0.385174	0.556148	0.432745
	O354	O	0.629870	0.485979	0.608574
	H355	H	0.642252	0.478214	0.588243
	H356	H	0.642683	0.488198	0.614186
	O357	O	0.467610	0.546966	0.488900
	H358	H	0.471872	0.545457	0.496537
	H359	H	0.472331	0.556858	0.476518
	O360	O	-0.064321	-0.020163	0.025171
	H361	H	-0.065711	-0.026948	0.029964
	H362	H	-0.053163	-0.013250	0.033094
	O363	O	0.356130	0.462149	0.555309
	H364	H	0.358247	0.470198	0.555964
	H365	H	0.363681	0.461229	0.550293
	O366	O	0.004854	0.035904	0.949667
	H367	H	0.005054	0.038867	0.946551
	H368	H	0.009348	0.033253	0.944659
	O369	O	0.427388	0.438426	0.423262
	H370	H	0.433519	0.432296	0.438866
	H371	H	0.432505	0.441709	0.426519
