data_Molecule from HDF5

_cell_length_a		16.543565
_cell_length_b		16.660234
_cell_length_c		16.408183
_cell_angle_alpha	90.017744
_cell_angle_beta	90.032676
_cell_angle_gamma	89.971885
_symmetry_space_group_name_H-M	'P 1'
_symmetry_Int_Tables_number		1

loop_
	_symmetry_equiv_pos_as_xyz
	x,y,z

loop_
	_atom_site_label
	_atom_site_type_symbol
	_atom_site_fract_x
	_atom_site_fract_y
	_atom_site_fract_z
	H0	H	0.402481	0.853516	0.735172
	H1	H	0.610472	0.167515	0.733454
	H2	H	0.612347	0.854681	0.292530
	H3	H	0.402151	0.166454	0.291346
	H4	H	0.727298	0.408911	0.855730
	H5	H	0.725603	0.614336	0.172356
	H6	H	0.285810	0.618825	0.854303
	H7	H	0.284724	0.406044	0.168922
	H8	H	0.853649	0.734225	0.407601
	H9	H	0.163562	0.739368	0.627192
	H10	H	0.851684	0.292253	0.618130
	H11	H	0.164897	0.291369	0.409650
	H12	H	0.850488	0.412316	0.731129
	H13	H	0.165707	0.618924	0.738883
	H14	H	0.851643	0.614735	0.294771
	H15	H	0.165824	0.409031	0.293965
	H16	H	0.398531	0.736365	0.856054
	H17	H	0.612486	0.732468	0.171431
	H18	H	0.614989	0.290723	0.856699
	H19	H	0.398543	0.287015	0.168454
	H20	H	0.731824	0.856695	0.406581
	H21	H	0.727541	0.167495	0.616819
	H22	H	0.282448	0.856096	0.622784
	H23	H	0.285929	0.166883	0.408758
	H24	H	0.907569	0.354846	0.231256
	H25	H	0.116456	0.667470	0.237962
	H26	H	0.113704	0.357000	0.791703
	H27	H	0.903393	0.668432	0.792279
	H28	H	0.231860	0.904774	0.356901
	H29	H	0.228176	0.115690	0.672033
	H30	H	0.791805	0.112722	0.354080
	H31	H	0.789134	0.908072	0.671426
	H32	H	0.353630	0.233052	0.908218
	H33	H	0.663646	0.233077	0.119508
	H34	H	0.349769	0.789518	0.120005
	H35	H	0.664090	0.790915	0.910041
	H36	H	0.348576	0.909218	0.233082
	H37	H	0.664921	0.113855	0.233249
	H38	H	0.349472	0.111329	0.796802
	H39	H	0.665544	0.909980	0.796486
	H40	H	0.905782	0.230789	0.354697
	H41	H	0.112607	0.232739	0.671331
	H42	H	0.120120	0.786599	0.358061
	H43	H	0.903392	0.790406	0.671318
	H44	H	0.234304	0.359930	0.903551
	H45	H	0.233641	0.667234	0.122198
	H46	H	0.787154	0.356419	0.117871
	H47	H	0.786675	0.668121	0.909132
	H48	H	0.420149	0.121788	0.607305
	H49	H	0.598170	0.900600	0.597910
	H50	H	0.595864	0.121501	0.422778
	H51	H	0.421581	0.900329	0.423413
	H52	H	0.594949	0.420933	0.127151
	H53	H	0.592776	0.607182	0.898932
	H54	H	0.424913	0.596427	0.122030
	H55	H	0.424387	0.421283	0.901860
	H56	H	0.119643	0.595361	0.427411
	H57	H	0.899387	0.596168	0.604109
	H58	H	0.119302	0.421087	0.595012
	H59	H	0.895702	0.421926	0.426540
	H60	H	0.121060	0.427074	0.605960
	H61	H	0.896465	0.606033	0.603935
	H62	H	0.123249	0.601674	0.423309
	H63	H	0.894814	0.422733	0.420573
	H64	H	0.422991	0.605439	0.125462
	H65	H	0.602696	0.602926	0.897765
	H66	H	0.598041	0.421757	0.128531
	H67	H	0.419443	0.423091	0.899572
	H68	H	0.600842	0.123311	0.426543
	H69	H	0.604649	0.896767	0.604375
	H70	H	0.418371	0.120762	0.601122
	H71	H	0.423366	0.903284	0.430327
	H72	H	0.918165	0.625253	0.107077
	H73	H	0.095762	0.405187	0.092838
	H74	H	0.101460	0.623027	0.934126
	H75	H	0.917964	0.400379	0.923196
	H76	H	0.092746	0.922384	0.625910
	H77	H	0.094565	0.107954	0.399048
	H78	H	0.915468	0.102845	0.629463
	H79	H	0.919480	0.928791	0.402473
	H80	H	0.620611	0.096259	0.922251
	H81	H	0.393235	0.102723	0.105362
	H82	H	0.617976	0.921867	0.099621
	H83	H	0.393322	0.917968	0.924861
	H84	H	0.620163	0.922455	0.106733
	H85	H	0.395944	0.103719	0.096516
	H86	H	0.623747	0.103978	0.920690
	H87	H	0.396190	0.923127	0.929543
	H88	H	0.918503	0.101768	0.627264
	H89	H	0.103468	0.099300	0.398689
	H90	H	0.097274	0.926413	0.626137
	H91	H	0.926982	0.920174	0.401406
	H92	H	0.097066	0.626276	0.919522
	H93	H	0.105578	0.399248	0.102664
	H94	H	0.917871	0.623318	0.100919
	H95	H	0.916635	0.400875	0.924715
	H96	H	0.414238	0.123188	0.605489
	H97	H	0.595388	0.898826	0.607650
	H98	H	0.601155	0.124709	0.420475
	H99	H	0.416833	0.900157	0.428715
	H100	H	0.595833	0.423917	0.126858
	H101	H	0.595062	0.596815	0.901865
	H102	H	0.415284	0.598248	0.125796
	H103	H	0.422952	0.426950	0.901598
	H104	H	0.120701	0.602841	0.431425
	H105	H	0.900792	0.601433	0.594859
	H106	H	0.124166	0.415576	0.604755
	H107	H	0.893662	0.417393	0.422871
	H108	H	0.912979	0.625841	0.103317
	H109	H	0.091407	0.402220	0.107021
	H110	H	0.086973	0.619104	0.929129
	H111	H	0.916068	0.399887	0.922971
	H112	H	0.091757	0.927762	0.622552
	H113	H	0.092482	0.096668	0.403805
	H114	H	0.918890	0.105560	0.629052
	H115	H	0.915988	0.918484	0.396843
	H116	H	0.621341	0.102279	0.928420
	H117	H	0.397227	0.095292	0.101081
	H118	H	0.620738	0.915886	0.103237
	H119	H	0.394590	0.924918	0.922546
	C120	C	0.385383	0.018871	0.636805
	C121	C	0.629778	1.002548	0.634664
	C122	C	0.630584	0.020112	0.390987
	C123	C	0.387075	1.003326	0.393463
	C124	C	0.628630	0.390957	0.022578
	C125	C	0.628194	0.633263	1.004661
	C126	C	0.387098	0.633191	0.020674
	C127	C	0.387560	0.390870	1.004270
	C128	C	0.017866	0.632543	0.393846
	C129	C	1.001579	0.634060	0.635605
	C130	C	0.017189	0.390743	0.634420
	C131	C	0.999214	0.389805	0.391759
	C132	C	0.886228	0.520810	0.134968
	C133	C	0.131009	0.504294	0.134846
	C134	C	0.128889	0.520813	0.893072
	C135	C	0.885642	0.503712	0.891827
	C136	C	0.128923	0.891254	0.521866
	C137	C	0.128925	0.132849	0.505200
	C138	C	0.887288	0.133195	0.522564
	C139	C	0.888462	0.890497	0.504809
	C140	C	0.517814	0.132136	0.892192
	C141	C	0.499248	0.132121	0.133668
	C142	C	0.515207	0.889258	0.135155
	C143	C	0.498679	0.890115	0.893349
	C144	C	0.383746	0.901072	0.696206
	C145	C	0.629641	0.120468	0.693539
	C146	C	0.631433	0.902174	0.331655
	C147	C	0.384061	0.120134	0.332033
	C148	C	0.688332	0.389927	0.903593
	C149	C	0.686976	0.634160	0.124329
	C150	C	0.325699	0.636743	0.902142
	C151	C	0.325337	0.387733	0.121796
	C152	C	0.900174	0.693227	0.390304
	C153	C	0.117800	0.696835	0.642291
	C154	C	0.898647	0.332387	0.636338
	C155	C	0.117768	0.331042	0.390487
	C156	C	0.898170	0.391881	0.692489
	C157	C	0.118732	0.637190	0.698338
	C158	C	0.899302	0.634001	0.334073
	C159	C	0.118281	0.389516	0.333224
	C160	C	0.381716	0.695458	0.902850
	C161	C	0.630250	0.692491	0.123822
	C162	C	0.632377	0.330939	0.904167
	C163	C	0.381861	0.328668	0.121643
	C164	C	0.690768	0.902973	0.388439
	C165	C	0.688027	0.120560	0.635843
	C166	C	0.324003	0.902387	0.639916
	C167	C	0.325976	0.120151	0.390038
	C168	C	0.887161	0.402292	0.192611
	C169	C	0.134229	0.620862	0.197136
	C170	C	0.132333	0.403959	0.831445
	C171	C	0.884980	0.621695	0.832479
	C172	C	0.191262	0.887473	0.404140
	C173	C	0.188208	0.134476	0.624545
	C174	C	0.830333	0.132531	0.401962
	C175	C	0.828736	0.889290	0.623965
	C176	C	0.399548	0.191921	0.890265
	C177	C	0.616986	0.192318	0.137143
	C178	C	0.396754	0.830025	0.137776
	C179	C	0.617194	0.831030	0.891604
	C180	C	0.396228	0.889335	0.194163
	C181	C	0.617606	0.133263	0.193655
	C182	C	0.397869	0.131843	0.834741
	C183	C	0.617911	0.889670	0.834920
	C184	C	0.887019	0.191172	0.402465
	C185	C	0.131224	0.192801	0.624072
	C186	C	0.135585	0.828495	0.404726
	C187	C	0.885917	0.831046	0.623916
	C188	C	0.192061	0.405377	0.887226
	C189	C	0.192858	0.620719	0.139578
	C190	C	0.827428	0.402894	0.136137
	C191	C	0.826590	0.621371	0.890232
	C192	C	0.410343	0.100854	0.611784
	C193	C	0.606229	0.920185	0.610364
	C194	C	0.606166	0.101961	0.415966
	C195	C	0.413059	0.922439	0.419871
	C196	C	0.603267	0.415250	0.105782
	C197	C	0.603665	0.609169	0.921070
	C198	C	0.413596	0.607469	0.102906
	C199	C	0.414624	0.416624	0.922289
	C200	C	0.099879	0.607295	0.419987
	C201	C	0.920188	0.608492	0.608573
	C202	C	0.100033	0.414425	0.609294
	C203	C	0.916189	0.413754	0.416145
	C204	C	0.909803	0.603399	0.110773
	C205	C	0.105074	0.423434	0.108485
	C206	C	0.102586	0.601693	0.920109
	C207	C	0.909905	0.421716	0.916484
	C208	C	0.101685	0.917897	0.603654
	C209	C	0.103961	0.108256	0.422127
	C210	C	0.910815	0.110033	0.606569
	C211	C	0.913663	0.915166	0.421683
	C212	C	0.600349	0.107975	0.916671
	C213	C	0.416972	0.107642	0.108256
	C214	C	0.597950	0.913150	0.110469
	C215	C	0.416247	0.914743	0.918320
	Zn216	Zn	0.507987	0.009969	0.764474
	Zn217	Zn	0.507536	0.011301	0.263077
	Zn218	Zn	0.756201	0.512401	0.013991
	Zn219	Zn	0.259197	0.513256	0.012081
	Zn220	Zn	0.009979	0.762271	0.513657
	Zn221	Zn	0.008073	0.261357	0.513608
	Zn222	Zn	0.008639	0.512220	0.763592
	Zn223	Zn	0.008520	0.512165	0.264002
	Zn224	Zn	0.506769	0.761267	0.013414
	Zn225	Zn	0.508470	0.261972	0.013346
	Zn226	Zn	0.759704	0.011488	0.513256
	Zn227	Zn	0.257037	0.011211	0.514508
	N228	N	0.421348	0.974638	0.694216
	N229	N	0.594276	0.045868	0.693267
	N230	N	0.594848	0.976180	0.332895
	N231	N	0.421176	0.046532	0.334006
	N232	N	0.686375	0.426471	0.978535
	N233	N	0.685821	0.598078	0.049027
	N234	N	0.329134	0.598645	0.976290
	N235	N	0.328872	0.425797	0.047809
	N236	N	0.975101	0.692613	0.426551
	N237	N	0.044038	0.695135	0.604024
	N238	N	0.973781	0.331482	0.601116
	N239	N	0.042539	0.330862	0.425885
	N240	N	0.973141	0.427315	0.691605
	N241	N	0.045328	0.598947	0.694444
	N242	N	0.973629	0.597156	0.335982
	N243	N	0.043470	0.425263	0.333998
	N244	N	0.419162	0.693504	0.977602
	N245	N	0.594629	0.692277	0.048113
	N246	N	0.596038	0.331439	0.979319
	N247	N	0.419925	0.330534	0.047376
	N248	N	0.690390	0.977203	0.424627
	N249	N	0.688314	0.046278	0.599916
	N250	N	0.324802	0.976847	0.603963
	N251	N	0.327645	0.046593	0.427580
	N252	N	0.922917	0.476662	0.192103
	N253	N	0.096489	0.547487	0.194425
	N254	N	0.093550	0.476741	0.835144
	N255	N	0.921007	0.547500	0.833264
	N256	N	0.187131	0.925973	0.478065
	N257	N	0.187123	0.098106	0.549575
	N258	N	0.830138	0.097372	0.477776
	N259	N	0.829983	0.925452	0.548730
	N260	N	0.475133	0.192366	0.924956
	N261	N	0.542302	0.191873	0.100739
	N262	N	0.471910	0.829596	0.102175
	N263	N	0.541816	0.830930	0.926726
	N264	N	0.470953	0.925379	0.192583
	N265	N	0.543451	0.096518	0.191596
	N266	N	0.472392	0.095556	0.835479
	N267	N	0.543176	0.925425	0.835716
	N268	N	0.921302	0.192005	0.478689
	N269	N	0.095219	0.192062	0.548618
	N270	N	0.097395	0.830692	0.479000
	N271	N	0.922213	0.831708	0.548628
	N272	N	0.189956	0.479028	0.924745
	N273	N	0.191093	0.547362	0.101578
	N274	N	0.826750	0.477729	0.101042
	N275	N	0.826620	0.547035	0.926273
	O276	O	0.800257	0.835782	0.020381
	H277	H	0.785438	0.836335	0.035750
	H278	H	0.798048	0.830776	0.046694
	O279	O	0.039975	-0.199849	0.982360
	H280	H	0.034327	-0.214301	0.950337
	H281	H	0.054891	-0.198805	0.988043
	O282	O	0.293492	0.721837	0.501983
	H283	H	0.281863	0.738678	0.482667
	H284	H	0.302885	0.720276	0.516813
	O285	O	0.736567	0.282543	0.744196
	H286	H	0.715511	0.304836	0.718742
	H287	H	0.721730	0.297946	0.756975
	O288	O	0.962016	0.212951	1.056145
	H289	H	0.967557	0.212109	1.057018
	H290	H	0.962471	0.218021	1.068167
	O291	O	0.361656	0.460553	0.560583
	H292	H	0.359157	0.455102	0.569122
	H293	H	0.363239	0.482456	0.553875
	O294	O	-0.049774	-0.065600	0.026397
	H295	H	-0.037372	-0.061196	0.042951
	H296	H	-0.049982	-0.049466	0.018654
	O297	O	0.964616	-0.080645	0.207644
	H298	H	0.957433	-0.057670	0.205751
	H299	H	0.986388	-0.072039	0.212295
	O300	O	-0.014824	-0.205151	0.231708
	H301	H	-0.000840	-0.213297	0.244403
	H302	H	0.000589	-0.213225	0.229540
	O303	O	-0.291635	-0.283858	-0.292830
	H304	H	-0.339854	-0.283629	-0.281497
	H305	H	-0.272373	-0.266338	-0.263479
	O306	O	0.947830	0.045221	0.008945
	H307	H	0.960304	0.045107	0.022400
	H308	H	0.934116	0.046661	0.009499
	O309	O	0.527610	0.297478	0.296378
	H310	H	0.551651	0.288488	0.304541
	H311	H	0.550748	0.287000	0.282723
	O312	O	0.288182	0.458506	0.449558
	H313	H	0.294734	0.449309	0.460246
	H314	H	0.284228	0.475835	0.448395
	O315	O	0.723312	0.726561	0.533567
	H316	H	0.743853	0.741683	0.541751
	H317	H	0.723729	0.727882	0.573415
	O318	O	0.860023	1.219562	-0.196374
	H319	H	0.866111	1.227697	-0.199523
	H320	H	0.837770	1.246813	-0.214362
	O321	O	0.296690	0.299708	0.545602
	H322	H	0.295119	0.292861	0.546996
	H323	H	0.294077	0.296968	0.548190
	O324	O	0.453265	0.462217	1.292424
	H325	H	0.459482	0.438104	1.286886
	H326	H	0.453530	0.454984	1.295010
	O327	O	0.665900	0.533102	0.510974
	H328	H	0.655454	0.552228	0.515594
	H329	H	0.662662	0.541438	0.521624
	O330	O	-0.004738	0.973699	-0.040613
	H331	H	-0.007498	0.966373	-0.045838
	H332	H	-0.007250	0.990673	-0.042032
	O333	O	0.420788	0.578736	0.700640
	H334	H	0.423701	0.583299	0.695641
	H335	H	0.407678	0.572200	0.697189
	O336	O	0.303875	0.484726	0.720165
	H337	H	0.293682	0.478070	0.737449
	H338	H	0.310991	0.478865	0.707587
	O339	O	0.317301	0.705247	0.326878
	H340	H	0.334493	0.714197	0.346668
	H341	H	0.309393	0.666853	0.322071
	O342	O	0.209751	0.999258	0.218177
	H343	H	0.205369	0.984268	0.225803
	H344	H	0.213081	1.008606	0.228460
	O345	O	0.541541	0.487834	0.735642
	H346	H	0.537448	0.486110	0.735786
	H347	H	0.521780	0.470824	0.733865
	O348	O	0.782001	0.224603	0.236497
	H349	H	0.772342	0.228569	0.273373
	H350	H	0.813810	0.202659	0.227545
	O351	O	0.215778	0.221640	0.811431
	H352	H	0.201357	0.206300	0.839269
	H353	H	0.193134	0.202565	0.813843
	O354	O	1.061235	-0.088561	1.166816
	H355	H	1.055400	-0.092631	1.181825
	H356	H	1.068579	-0.094716	1.165525
	O357	O	0.588828	0.406445	0.596540
	H358	H	0.585921	0.426022	0.583317
	H359	H	0.574396	0.406119	0.593979
	O360	O	0.514722	0.481252	0.542368
	H361	H	0.511147	0.483822	0.529869
	H362	H	0.507185	0.481026	0.533444
	O363	O	1.026776	0.224776	-0.164499
	H364	H	1.039115	0.222781	-0.140675
	H365	H	1.022226	0.233752	-0.188591
	O366	O	1.173522	-0.069019	1.025973
	H367	H	1.160117	-0.068059	1.028670
	H368	H	1.181068	-0.068917	1.027111
	O369	O	-0.193055	-0.159374	0.836907
	H370	H	-0.188219	-0.142342	0.851653
	H371	H	-0.181131	-0.154340	0.851308
	O372	O	0.068487	1.074754	0.802872
	H373	H	0.050060	1.066308	0.807166
	H374	H	0.046670	1.073640	0.804820
	O375	O	1.215956	0.018542	-0.133410
	H376	H	1.195495	0.032717	-0.136216
	H377	H	1.220354	0.020215	-0.146234
	O378	O	0.491384	0.313103	0.528752
	H379	H	0.490255	0.304864	0.527921
	H380	H	0.486004	0.321115	0.530790
	O381	O	0.219333	1.220332	0.028455
	H382	H	0.216608	1.215087	0.029986
	H383	H	0.228193	1.228463	0.036137
	O384	O	0.691926	0.367015	0.403093
	H385	H	0.710166	0.370657	0.400404
	H386	H	0.687816	0.357078	0.416971
	O387	O	-0.135255	1.034442	1.047331
	H388	H	-0.138034	1.034239	1.041905
	H389	H	-0.141138	1.056964	1.051678
	O390	O	0.213160	1.218406	1.219605
	H391	H	0.226350	1.231173	1.212357
	H392	H	0.223586	1.204625	1.226688
	O393	O	0.960847	0.023903	0.156856
	H394	H	0.965289	0.025774	0.148701
	H395	H	0.967672	0.020926	0.136611
	O396	O	0.325772	0.325994	0.702414
	H397	H	0.295627	0.301650	0.732618
	H398	H	0.321343	0.349228	0.685999
	O399	O	0.538991	0.581174	0.312809
	H400	H	0.546596	0.586192	0.326887
	H401	H	0.521630	0.572665	0.298689
	O402	O	0.798664	0.218179	0.986514
	H403	H	0.781230	0.237677	0.994215
	H404	H	0.816101	0.215547	0.977653
	O405	O	0.710943	0.485539	0.312124
	H406	H	0.703727	0.474504	0.330327
	H407	H	0.713616	0.501758	0.320982
	O408	O	0.907453	0.994069	0.959506
	H409	H	0.893262	0.997740	0.935538
	H410	H	0.903479	1.003005	0.973108
	O411	O	1.017515	0.834762	-0.187411
	H412	H	1.017517	0.843156	-0.178443
	H413	H	1.014403	0.812374	-0.207656
	O414	O	0.044019	0.230080	0.228274
	H415	H	0.066834	0.236845	0.237572
	H416	H	0.050450	0.240348	0.245608
	O417	O	0.544026	0.731423	0.730112
	H418	H	0.529671	0.739921	0.752533
	H419	H	0.520227	0.734726	0.721658
	O420	O	0.722383	-0.452141	0.723386
	H421	H	0.719209	-0.453918	0.740164
	H422	H	0.727081	-0.428716	0.735667
	O423	O	1.161827	1.057147	-0.039784
	H424	H	1.172722	1.050973	-0.043979
	H425	H	1.168295	1.052198	-0.016022
	O426	O	-0.191814	0.859335	0.065553
	H427	H	-0.190175	0.846261	0.071231
	H428	H	-0.182610	0.859169	0.075934
	O429	O	0.477085	0.293982	0.735933
	H430	H	0.445585	0.289786	0.734185
	H431	H	0.459695	0.272286	0.760854
	O432	O	0.499298	0.348750	0.529032
	H433	H	0.494587	0.349925	0.531816
	H434	H	0.512818	0.341322	0.517392
	O435	O	0.721505	0.371226	0.388627
	H436	H	0.745102	0.371796	0.391157
	H437	H	0.722046	0.396771	0.398581
	O438	O	0.324188	0.325975	0.331551
	H439	H	0.349796	0.332466	0.347493
	H440	H	0.328704	0.334872	0.345408
	O441	O	0.686776	0.503711	0.506958
	H442	H	0.686576	0.519574	0.534312
	H443	H	0.669135	0.505089	0.498899
	O444	O	0.476174	0.736403	0.294874
	H445	H	0.474909	0.725118	0.288650
	H446	H	0.463082	0.759045	0.268789
	O447	O	0.626760	0.541999	0.512392
	H448	H	0.612507	0.548191	0.523797
	H449	H	0.625431	0.549259	0.510282
	O450	O	1.108462	0.179796	-0.022661
	H451	H	1.101625	0.182931	-0.018016
	H452	H	1.095569	0.168278	-0.015180
	O453	O	0.293766	0.545656	0.298842
	H454	H	0.273015	0.535946	0.288847
	H455	H	0.300230	0.541007	0.291919
	O456	O	0.189578	0.825777	0.830854
	H457	H	0.175815	0.834601	0.845154
	H458	H	0.181235	0.850027	0.825254
	O459	O	0.770888	-0.167419	0.249460
	H460	H	0.751608	-0.186187	0.269608
	H461	H	0.787902	-0.171718	0.231401
	O462	O	0.542407	0.726849	0.451080
	H463	H	0.562126	0.732533	0.434950
	H464	H	0.558568	0.728711	0.442607
	O465	O	0.373138	0.664165	0.586534
	H466	H	0.383843	0.669948	0.591637
	H467	H	0.383352	0.648596	0.580633
	O468	O	-0.159447	1.022801	-0.198299
	H469	H	-0.173076	1.035141	-0.192628
	H470	H	-0.172230	1.029015	-0.213421
	O471	O	0.589970	0.649213	0.494468
	H472	H	0.600576	0.654224	0.499642
	H473	H	0.574770	0.652477	0.485132
	O474	O	0.864359	1.014960	0.221832
	H475	H	0.861807	1.016171	0.203032
	H476	H	0.839206	1.017258	0.242455
	O477	O	0.216706	-0.197123	0.992379
	H478	H	0.231115	-0.205300	0.985795
	H479	H	0.221508	-0.192651	0.987757
