data_Molecule from HDF5

_cell_length_a		16.485326
_cell_length_b		16.295591
_cell_length_c		16.530777
_cell_angle_alpha	90.072836
_cell_angle_beta	89.874986
_cell_angle_gamma	90.062275
_symmetry_space_group_name_H-M	'P 1'
_symmetry_Int_Tables_number		1

loop_
	_symmetry_equiv_pos_as_xyz
	x,y,z

loop_
	_atom_site_label
	_atom_site_type_symbol
	_atom_site_fract_x
	_atom_site_fract_y
	_atom_site_fract_z
	H0	H	0.401150	0.847791	0.717644
	H1	H	0.608629	0.167456	0.722738
	H2	H	0.607954	0.849313	0.278276
	H3	H	0.390335	0.165425	0.276135
	H4	H	0.724075	0.401045	0.846064
	H5	H	0.725595	0.616151	0.160319
	H6	H	0.281630	0.611130	0.845405
	H7	H	0.277674	0.397975	0.159364
	H8	H	0.843106	0.726950	0.397900
	H9	H	0.160396	0.727002	0.603733
	H10	H	0.844053	0.285102	0.606718
	H11	H	0.160281	0.284116	0.395492
	H12	H	0.845202	0.398649	0.725842
	H13	H	0.160456	0.611402	0.722677
	H14	H	0.845718	0.616462	0.277719
	H15	H	0.157386	0.395698	0.275183
	H16	H	0.400677	0.724996	0.844019
	H17	H	0.606183	0.729833	0.160757
	H18	H	0.604151	0.288879	0.843363
	H19	H	0.395251	0.282752	0.160156
	H20	H	0.724152	0.849525	0.393084
	H21	H	0.725263	0.167306	0.607757
	H22	H	0.285729	0.847061	0.601192
	H23	H	0.278642	0.166292	0.394019
	H24	H	0.897317	0.347081	0.223550
	H25	H	0.110394	0.664352	0.226011
	H26	H	0.109757	0.346591	0.780220
	H27	H	0.902268	0.666159	0.785849
	H28	H	0.224632	0.900938	0.343509
	H29	H	0.223193	0.112825	0.658563
	H30	H	0.777491	0.117658	0.344639
	H31	H	0.780611	0.903741	0.657484
	H32	H	0.342235	0.225515	0.900336
	H33	H	0.660304	0.227507	0.104567
	H34	H	0.343692	0.786969	0.105475
	H35	H	0.662253	0.791812	0.902337
	H36	H	0.345389	0.899536	0.225004
	H37	H	0.655527	0.122223	0.229328
	H38	H	0.343194	0.112418	0.781103
	H39	H	0.660916	0.906712	0.782616
	H40	H	0.899079	0.228096	0.343279
	H41	H	0.106460	0.227171	0.659515
	H42	H	0.106482	0.785493	0.342434
	H43	H	0.902307	0.791787	0.660053
	H44	H	0.223742	0.346757	0.896473
	H45	H	0.223604	0.665263	0.108043
	H46	H	0.781645	0.346772	0.108751
	H47	H	0.784405	0.666004	0.899900
	H48	H	0.412851	0.125070	0.595709
	H49	H	0.590044	0.893182	0.594423
	H50	H	0.586943	0.122131	0.411188
	H51	H	0.421247	0.899042	0.416126
	H52	H	0.588222	0.422442	0.112721
	H53	H	0.595079	0.598838	0.889519
	H54	H	0.409451	0.598095	0.116809
	H55	H	0.411751	0.423698	0.892900
	H56	H	0.112770	0.592455	0.414815
	H57	H	0.888264	0.595795	0.599643
	H58	H	0.116023	0.416829	0.593299
	H59	H	0.890975	0.419719	0.415463
	H60	H	0.114003	0.418421	0.589940
	H61	H	0.886799	0.600550	0.595023
	H62	H	0.114056	0.593568	0.411825
	H63	H	0.891238	0.420942	0.413579
	H64	H	0.412132	0.591567	0.114212
	H65	H	0.596858	0.596390	0.889932
	H66	H	0.588449	0.413818	0.115880
	H67	H	0.418485	0.414329	0.891342
	H68	H	0.584298	0.118399	0.417487
	H69	H	0.588435	0.897073	0.587363
	H70	H	0.415586	0.121598	0.588503
	H71	H	0.407723	0.893505	0.417050
	H72	H	0.911792	0.619737	0.086599
	H73	H	0.082446	0.395229	0.090013
	H74	H	0.095968	0.620734	0.915394
	H75	H	0.913576	0.393944	0.921442
	H76	H	0.082454	0.920623	0.609523
	H77	H	0.096603	0.094616	0.387614
	H78	H	0.919530	0.096732	0.610984
	H79	H	0.909220	0.914546	0.385118
	H80	H	0.617845	0.108570	0.913308
	H81	H	0.387093	0.098496	0.091537
	H82	H	0.617808	0.919268	0.097989
	H83	H	0.385971	0.918041	0.904339
	H84	H	0.613609	0.915721	0.083937
	H85	H	0.391786	0.093295	0.083181
	H86	H	0.609748	0.088168	0.917499
	H87	H	0.386561	0.911895	0.907446
	H88	H	0.907417	0.097662	0.615937
	H89	H	0.089365	0.089010	0.390997
	H90	H	0.095174	0.904460	0.618837
	H91	H	0.910460	0.921244	0.388254
	H92	H	0.092754	0.622214	0.908154
	H93	H	0.089139	0.395454	0.082831
	H94	H	0.911342	0.622235	0.094657
	H95	H	0.905537	0.387261	0.911430
	H96	H	0.407242	0.124215	0.588871
	H97	H	0.596068	0.893764	0.588453
	H98	H	0.591663	0.120759	0.417184
	H99	H	0.414350	0.892507	0.404774
	H100	H	0.596303	0.418898	0.116690
	H101	H	0.593326	0.596327	0.890953
	H102	H	0.416780	0.597496	0.115176
	H103	H	0.407418	0.414521	0.888369
	H104	H	0.114350	0.595337	0.414157
	H105	H	0.889318	0.594185	0.592721
	H106	H	0.114246	0.420021	0.593369
	H107	H	0.890772	0.418297	0.413370
	H108	H	0.918720	0.618928	0.092057
	H109	H	0.091197	0.391510	0.091814
	H110	H	0.088673	0.618710	0.913542
	H111	H	0.919323	0.390999	0.908287
	H112	H	0.103849	0.925326	0.614648
	H113	H	0.087823	0.097739	0.388554
	H114	H	0.911010	0.086502	0.610886
	H115	H	0.915911	0.916623	0.386981
	H116	H	0.618185	0.092904	0.897758
	H117	H	0.390819	0.088042	0.092958
	H118	H	0.611025	0.929307	0.089518
	H119	H	0.388826	0.917407	0.910966
	C120	C	0.381285	0.017084	0.621728
	C121	C	0.623913	0.999820	0.622282
	C122	C	0.621704	0.016322	0.380769
	C123	C	0.380189	0.999397	0.379447
	C124	C	0.623211	0.385807	0.011108
	C125	C	0.625714	0.629520	0.994819
	C126	C	0.381364	0.627445	0.011151
	C127	C	0.379388	0.383800	0.994428
	C128	C	0.010074	0.627316	0.380791
	C129	C	0.993245	0.628539	0.625313
	C130	C	0.010823	0.384700	0.624315
	C131	C	0.994436	0.385615	0.380496
	C132	C	0.880971	0.515189	0.124157
	C133	C	0.122117	0.498151	0.122312
	C134	C	0.124715	0.514815	0.880356
	C135	C	0.882239	0.497054	0.882840
	C136	C	0.124774	0.884419	0.509536
	C137	C	0.123612	0.127482	0.493039
	C138	C	0.880497	0.128105	0.509215
	C139	C	0.880553	0.886208	0.491528
	C140	C	0.510363	0.128849	0.879036
	C141	C	0.493053	0.128455	0.122532
	C142	C	0.510322	0.887431	0.123002
	C143	C	0.493148	0.886024	0.878781
	C144	C	0.381725	0.895710	0.678736
	C145	C	0.626508	0.119701	0.682629
	C146	C	0.625628	0.897002	0.318663
	C147	C	0.374577	0.118170	0.317454
	C148	C	0.683597	0.383136	0.892942
	C149	C	0.685396	0.633451	0.113005
	C150	C	0.321850	0.629276	0.892507
	C151	C	0.318012	0.380021	0.112446
	C152	C	0.891154	0.687704	0.378816
	C153	C	0.112910	0.687539	0.624119
	C154	C	0.891959	0.324407	0.625890
	C155	C	0.112513	0.324063	0.377026
	C156	C	0.892440	0.380819	0.685325
	C157	C	0.113050	0.629941	0.683013
	C158	C	0.892324	0.632225	0.319096
	C159	C	0.111088	0.379996	0.317112
	C160	C	0.380843	0.686061	0.891837
	C161	C	0.625876	0.690156	0.113321
	C162	C	0.623960	0.327149	0.891581
	C163	C	0.376963	0.322971	0.112815
	C164	C	0.683312	0.897023	0.375991
	C165	C	0.684503	0.119641	0.625216
	C166	C	0.324294	0.895466	0.621273
	C167	C	0.318767	0.118671	0.376407
	C168	C	0.878745	0.395090	0.184054
	C169	C	0.127100	0.617045	0.184674
	C170	C	0.127254	0.394683	0.820331
	C171	C	0.882494	0.618036	0.824725
	C172	C	0.184618	0.882536	0.390649
	C173	C	0.183180	0.130755	0.611513
	C174	C	0.819276	0.133604	0.391314
	C175	C	0.821054	0.884920	0.610279
	C176	C	0.390340	0.187194	0.879978
	C177	C	0.612079	0.188955	0.124225
	C178	C	0.391589	0.826345	0.124582
	C179	C	0.614163	0.830205	0.881540
	C180	C	0.392244	0.882566	0.183994
	C181	C	0.609680	0.136249	0.186367
	C182	C	0.390663	0.130636	0.820817
	C183	C	0.613405	0.887003	0.821979
	C184	C	0.879475	0.188971	0.390687
	C185	C	0.124908	0.187738	0.611840
	C186	C	0.125731	0.825194	0.390241
	C187	C	0.881568	0.829444	0.611860
	C188	C	0.184339	0.394863	0.878161
	C189	C	0.183464	0.617562	0.125889
	C190	C	0.821127	0.394992	0.126953
	C191	C	0.824012	0.617930	0.881546
	C192	C	0.404889	0.101669	0.597953
	C193	C	0.598900	0.916283	0.597190
	C194	C	0.595147	0.098833	0.407418
	C195	C	0.406494	0.916594	0.405386
	C196	C	0.598325	0.411220	0.093500
	C197	C	0.602044	0.604262	0.911925
	C198	C	0.405775	0.602872	0.093755
	C199	C	0.405042	0.409991	0.912236
	C200	C	0.092312	0.601273	0.406260
	C201	C	0.909740	0.603908	0.602320
	C202	C	0.093371	0.410817	0.599465
	C203	C	0.912250	0.412154	0.406977
	C204	C	0.906492	0.598601	0.098560
	C205	C	0.095217	0.415632	0.095838
	C206	C	0.099698	0.598750	0.905292
	C207	C	0.905966	0.412747	0.906863
	C208	C	0.100827	0.909461	0.592542
	C209	C	0.098596	0.101450	0.410633
	C210	C	0.905418	0.101204	0.591165
	C211	C	0.905016	0.910285	0.408372
	C212	C	0.593615	0.103880	0.902644
	C213	C	0.411288	0.101157	0.096729
	C214	C	0.592664	0.913924	0.097599
	C215	C	0.408900	0.909045	0.901159
	Zn216	Zn	0.502063	0.008364	0.749992
	Zn217	Zn	0.501677	0.008679	0.251882
	Zn218	Zn	0.753460	0.506148	0.003972
	Zn219	Zn	0.251442	0.506023	0.002967
	Zn220	Zn	0.001738	0.756325	0.501016
	Zn221	Zn	0.002498	0.256500	0.501575
	Zn222	Zn	0.002774	0.505326	0.753750
	Zn223	Zn	0.002038	0.506868	0.251483
	Zn224	Zn	0.502193	0.757797	0.002104
	Zn225	Zn	0.502198	0.256407	0.001875
	Zn226	Zn	0.751427	0.008084	0.500095
	Zn227	Zn	0.253053	0.007467	0.501103
	N228	N	0.416127	0.972491	0.679201
	N229	N	0.589264	0.044225	0.680692
	N230	N	0.587948	0.972161	0.321629
	N231	N	0.412214	0.043187	0.319285
	N232	N	0.683499	0.418726	0.968344
	N233	N	0.685270	0.596347	0.038336
	N234	N	0.321948	0.593473	0.967705
	N235	N	0.319402	0.417088	0.037735
	N236	N	0.965250	0.684674	0.416700
	N237	N	0.037468	0.686720	0.589074
	N238	N	0.966526	0.326648	0.588761
	N239	N	0.038935	0.327686	0.415929
	N240	N	0.967577	0.417565	0.684631
	N241	N	0.037503	0.594003	0.684006
	N242	N	0.967290	0.595517	0.320092
	N243	N	0.036625	0.417750	0.319509
	N244	N	0.417008	0.685216	0.966489
	N245	N	0.589475	0.688060	0.038633
	N246	N	0.586985	0.328670	0.966093
	N247	N	0.414170	0.325126	0.038399
	N248	N	0.681165	0.972112	0.413692
	N249	N	0.683095	0.044049	0.588294
	N250	N	0.323741	0.972080	0.586622
	N251	N	0.322143	0.043746	0.414520
	N252	N	0.914880	0.471041	0.182633
	N253	N	0.089716	0.541768	0.182581
	N254	N	0.091131	0.470633	0.821359
	N255	N	0.917960	0.541911	0.825413
	N256	N	0.184336	0.918562	0.465980
	N257	N	0.182669	0.094163	0.536576
	N258	N	0.819839	0.096720	0.465961
	N259	N	0.819962	0.918991	0.534355
	N260	N	0.465738	0.186237	0.915286
	N261	N	0.538737	0.184335	0.085502
	N262	N	0.465968	0.829295	0.087259
	N263	N	0.538284	0.829330	0.915963
	N264	N	0.466950	0.919974	0.183052
	N265	N	0.534502	0.099421	0.185769
	N266	N	0.466362	0.095338	0.819856
	N267	N	0.536983	0.920285	0.819786
	N268	N	0.916839	0.185798	0.464906
	N269	N	0.088777	0.185863	0.537085
	N270	N	0.089555	0.826115	0.465101
	N271	N	0.917610	0.829934	0.536706
	N272	N	0.182965	0.470622	0.914792
	N273	N	0.180543	0.542623	0.087939
	N274	N	0.822198	0.470924	0.090797
	N275	N	0.823551	0.541568	0.916848
	O276	O	0.470260	0.455432	0.491370
	H277	H	0.476452	0.459102	0.498549
	H278	H	0.472789	0.464249	0.495622
	O279	O	0.844603	0.182952	0.856329
	H280	H	0.844268	0.191654	0.859793
	H281	H	0.846505	0.171868	0.847738
	O282	O	0.544234	0.320098	0.595175
	H283	H	0.551392	0.332623	0.602633
	H284	H	0.550959	0.313728	0.592074
	O285	O	0.509620	0.659776	0.366022
	H286	H	0.509276	0.643089	0.354762
	H287	H	0.513269	0.654808	0.376486
	O288	O	1.080822	0.831463	0.167312
	H289	H	1.086497	0.833193	0.165727
	H290	H	1.094074	0.820851	0.144234
	O291	O	0.390826	0.417368	0.541447
	H292	H	0.390512	0.398078	0.557377
	H293	H	0.360162	0.419221	0.528599
	O294	O	0.102419	0.190372	1.098167
	H295	H	0.085821	0.174803	1.128566
	H296	H	0.128633	0.198319	1.104677
	O297	O	0.479125	0.476397	0.291826
	H298	H	0.489322	0.458920	0.289548
	H299	H	0.484918	0.473095	0.295265
	O300	O	0.385722	0.496748	0.632396
	H301	H	0.384726	0.510366	0.617573
	H302	H	0.367280	0.504289	0.644920
	O303	O	0.716729	0.483863	0.287001
	H304	H	0.734980	0.487961	0.267524
	H305	H	0.719535	0.459160	0.288752
	O306	O	0.283804	0.387232	0.501531
	H307	H	0.277345	0.389353	0.498908
	H308	H	0.276406	0.381527	0.522875
	O309	O	0.496692	0.612572	0.494616
	H310	H	0.500209	0.623554	0.490956
	H311	H	0.512022	0.604436	0.493809
	O312	O	0.214373	0.816212	0.985880
	H313	H	0.214829	0.820895	0.960367
	H314	H	0.229554	0.790369	0.974886
	O315	O	0.639082	0.616528	0.367639
	H316	H	0.643946	0.608037	0.357348
	H317	H	0.634347	0.609000	0.375293
	O318	O	0.893481	0.080617	0.053115
	H319	H	0.903765	0.079163	0.054071
	H320	H	0.895888	0.074045	0.047255
	O321	O	-0.123797	0.102068	0.012841
	H322	H	-0.136426	0.098510	0.004114
	H323	H	-0.121364	0.105749	0.001383
	O324	O	0.523252	0.306834	0.289433
	H325	H	0.504495	0.301005	0.311028
	H326	H	0.513940	0.283309	0.281989
	O327	O	0.487269	0.308338	0.470942
	H328	H	0.480892	0.319976	0.489619
	H329	H	0.486216	0.301395	0.486725
	O330	O	0.103603	0.941965	0.014672
	H331	H	0.117781	0.938717	0.013245
	H332	H	0.107702	0.945474	0.020961
	O333	O	0.494944	0.673992	0.521567
	H334	H	0.501795	0.681088	0.524805
	H335	H	0.515902	0.680975	0.517502
	O336	O	0.084271	0.131159	-0.034655
	H337	H	0.090839	0.150835	-0.037219
	H338	H	0.087446	0.130451	-0.028227
	O339	O	0.195561	0.804279	0.801694
	H340	H	0.191570	0.829035	0.790327
	H341	H	0.202392	0.782480	0.778271
	O342	O	0.027697	0.803815	1.135294
	H343	H	0.037723	0.811893	1.123054
	H344	H	0.049659	0.801113	1.137996
	O345	O	0.808869	0.805492	0.017831
	H346	H	0.793080	0.799994	0.015413
	H347	H	0.825834	0.797248	0.006867
	O348	O	0.317154	0.691931	0.312199
	H349	H	0.331478	0.673837	0.312076
	H350	H	0.334254	0.688560	0.295721
	O351	O	0.025450	0.808319	0.800250
	H352	H	0.023144	0.803927	0.779940
	H353	H	0.047461	0.813473	0.823227
	O354	O	0.154853	0.970282	0.133363
	H355	H	0.170024	0.967166	0.130145
	H356	H	0.151620	0.959090	0.115478
	O357	O	-0.006217	0.011318	0.793333
	H358	H	0.011359	0.013828	0.799011
	H359	H	0.004085	0.016345	0.803056
	O360	O	0.612084	0.635534	0.711352
	H361	H	0.611586	0.648212	0.726182
	H362	H	0.627607	0.630514	0.704638
	O363	O	0.169618	0.016136	0.823904
	H364	H	0.185053	0.020982	0.818014
	H365	H	0.161632	0.042965	0.823365
	O366	O	0.233162	0.286124	0.670081
	H367	H	0.258287	0.297996	0.674076
	H368	H	0.223585	0.285839	0.681626
	O369	O	0.501217	0.627678	0.709261
	H370	H	0.516868	0.620261	0.711255
	H371	H	0.505598	0.659881	0.722993
	O372	O	0.997383	0.107059	0.883084
	H373	H	0.984185	0.105752	0.893803
	H374	H	0.996153	0.123981	0.892363
	O375	O	0.489925	0.384964	0.655478
	H376	H	0.494263	0.396676	0.656530
	H377	H	0.481539	0.389192	0.656023
	O378	O	0.709367	0.709980	0.705553
	H379	H	0.731757	0.730264	0.697593
	H380	H	0.713753	0.676374	0.716663
	O381	O	0.691929	0.513365	0.617793
	H382	H	0.696448	0.510492	0.633493
	H383	H	0.687913	0.502890	0.607711
	O384	O	0.689231	0.323459	0.316298
	H385	H	0.644398	0.313012	0.307858
	H386	H	0.695448	0.336883	0.331227
	O387	O	0.276170	-0.214247	0.721427
	H388	H	0.290950	-0.231166	0.708849
	H389	H	0.294403	-0.229268	0.699445
	O390	O	0.129644	0.075117	0.011343
	H391	H	0.136929	0.091878	0.028432
	H392	H	0.128212	0.079947	-0.004339
	O393	O	0.865218	1.004260	0.796993
	H394	H	0.870920	0.987381	0.788853
	H395	H	0.889633	1.013631	0.786802
	O396	O	1.043258	0.071116	0.209166
	H397	H	1.040066	0.073520	0.207708
	H398	H	1.030310	0.058925	0.215831
	O399	O	0.915744	0.170291	1.010291
	H400	H	0.897969	0.178682	1.022686
	H401	H	0.906643	0.167730	0.991226
	O402	O	0.815638	0.858325	0.857245
	H403	H	0.818688	0.875229	0.865316
	H404	H	0.844631	0.860369	0.856777
	O405	O	0.825565	0.829670	0.114999
	H406	H	0.821854	0.817683	0.080269
	H407	H	0.863094	0.815989	0.117781
	O408	O	0.800344	0.026249	0.041648
	H409	H	0.797976	0.031629	0.045878
	H410	H	0.798711	0.027590	0.033332
	O411	O	0.787181	0.952781	0.213341
	H412	H	0.780839	0.934686	0.225045
	H413	H	0.786706	0.927571	0.222538
	O414	O	0.304917	0.565256	0.597515
	H415	H	0.299826	0.588296	0.580341
	H416	H	0.312127	0.564096	0.589003
	O417	O	0.657334	0.564285	0.456696
	H418	H	0.644916	0.573073	0.456996
	H419	H	0.670887	0.570821	0.448385
	O420	O	0.173021	0.190803	0.109804
	H421	H	0.147580	0.194269	0.130031
	H422	H	0.183444	0.167307	0.119127
	O423	O	0.623914	0.415184	0.657993
	H424	H	0.614814	0.407199	0.672818
	H425	H	0.635522	0.431852	0.645757
	O426	O	0.709775	0.301433	0.478475
	H427	H	0.723490	0.308964	0.489876
	H428	H	0.715929	0.289324	0.457797
	O429	O	0.288093	0.709825	0.477476
	H430	H	0.276637	0.737545	0.469593
	H431	H	0.300729	0.712099	0.446356
	O432	O	0.301766	0.501267	0.336923
	H433	H	0.311947	0.491856	0.349324
	H434	H	0.294595	0.506972	0.330514
	O435	O	0.463843	0.467348	0.516025
	H436	H	0.473329	0.476165	0.510035
	H437	H	0.457341	0.459721	0.521794
	O438	O	0.051777	0.187912	0.120057
	H439	H	0.037892	0.182067	0.115379
	H440	H	0.036059	0.181845	0.120822
	O441	O	0.938242	0.083501	0.055961
	H442	H	0.929326	0.094454	0.069330
	H443	H	0.951071	0.090881	0.061137
	O444	O	-0.027295	0.803574	0.970229
	H445	H	-0.012338	0.818267	0.978375
	H446	H	-0.029565	0.811515	0.972580
	O447	O	0.455342	0.669218	0.529834
	H448	H	0.464800	0.669950	0.525161
	H449	H	0.462311	0.667541	0.524181
	O450	O	0.715610	0.717122	0.536670
	H451	H	0.718677	0.709434	0.545009
	H452	H	0.735946	0.737324	0.537570
	O453	O	0.314168	0.262587	0.761800
	H454	H	0.307701	0.288309	0.762616
	H455	H	0.309999	0.259706	0.743651
