data_Molecule from HDF5

_cell_length_a		16.189121
_cell_length_b		16.215427
_cell_length_c		16.271258
_cell_angle_alpha	89.726169
_cell_angle_beta	89.956457
_cell_angle_gamma	90.043195
_symmetry_space_group_name_H-M	'P 1'
_symmetry_Int_Tables_number		1

loop_
	_symmetry_equiv_pos_as_xyz
	x,y,z

loop_
	_atom_site_label
	_atom_site_type_symbol
	_atom_site_fract_x
	_atom_site_fract_y
	_atom_site_fract_z
	H0	H	0.405315	0.836890	0.710893
	H1	H	0.606818	0.163336	0.705729
	H2	H	0.606564	0.835455	0.278097
	H3	H	0.407332	0.163411	0.276843
	H4	H	0.719681	0.404824	0.829060
	H5	H	0.720121	0.598820	0.157429
	H6	H	0.291139	0.602158	0.829090
	H7	H	0.291226	0.402562	0.156813
	H8	H	0.840703	0.713654	0.393731
	H9	H	0.169571	0.711799	0.589275
	H10	H	0.841454	0.284369	0.592946
	H11	H	0.169377	0.286688	0.392905
	H12	H	0.840442	0.401211	0.706790
	H13	H	0.168082	0.601221	0.707422
	H14	H	0.840687	0.599215	0.278891
	H15	H	0.168049	0.400677	0.276784
	H16	H	0.407553	0.718042	0.830411
	H17	H	0.604659	0.714703	0.158221
	H18	H	0.606756	0.287154	0.829115
	H19	H	0.406715	0.284983	0.156797
	H20	H	0.719769	0.834903	0.395664
	H21	H	0.721645	0.162944	0.590877
	H22	H	0.290529	0.835893	0.593364
	H23	H	0.292166	0.164072	0.392571
	H24	H	0.904814	0.337388	0.207722
	H25	H	0.103107	0.665090	0.205756
	H26	H	0.104088	0.337318	0.778507
	H27	H	0.904751	0.664648	0.776410
	H28	H	0.220020	0.903309	0.328244
	H29	H	0.222018	0.099187	0.655817
	H30	H	0.792887	0.096308	0.328112
	H31	H	0.790990	0.897999	0.656497
	H32	H	0.342306	0.213789	0.894468
	H33	H	0.670825	0.212968	0.089983
	H34	H	0.342154	0.786752	0.093445
	H35	H	0.671100	0.786685	0.895816
	H36	H	0.343036	0.898707	0.209546
	H37	H	0.670872	0.099339	0.207061
	H38	H	0.343026	0.100400	0.777767
	H39	H	0.670051	0.899745	0.778473
	H40	H	0.906230	0.215441	0.328988
	H41	H	0.106108	0.214871	0.656070
	H42	H	0.103713	0.787012	0.327513
	H43	H	0.906754	0.783615	0.655989
	H44	H	0.220568	0.337254	0.892819
	H45	H	0.218028	0.665736	0.089260
	H46	H	0.791419	0.336929	0.091137
	H47	H	0.792231	0.666102	0.895790
	H48	H	0.415993	0.118592	0.592287
	H49	H	0.593333	0.884400	0.585250
	H50	H	0.603757	0.117965	0.399742
	H51	H	0.411627	0.878680	0.391203
	H52	H	0.600233	0.402451	0.112218
	H53	H	0.598940	0.590454	0.878035
	H54	H	0.401273	0.594434	0.113294
	H55	H	0.409529	0.409267	0.875450
	H56	H	0.126946	0.595595	0.391405
	H57	H	0.889784	0.591844	0.578226
	H58	H	0.122439	0.409872	0.588290
	H59	H	0.884833	0.408137	0.391993
	H60	H	0.123443	0.405661	0.586208
	H61	H	0.887701	0.585481	0.588652
	H62	H	0.122645	0.598843	0.403811
	H63	H	0.886703	0.400688	0.405076
	H64	H	0.415652	0.584355	0.106607
	H65	H	0.593845	0.595555	0.878276
	H66	H	0.600929	0.409636	0.110103
	H67	H	0.414990	0.410923	0.877433
	H68	H	0.596816	0.116599	0.395377
	H69	H	0.601857	0.882156	0.583253
	H70	H	0.420338	0.112801	0.579211
	H71	H	0.421905	0.886264	0.402913
	H72	H	0.914840	0.616980	0.083250
	H73	H	0.096047	0.383647	0.086363
	H74	H	0.089903	0.614342	0.904547
	H75	H	0.916639	0.383607	0.894457
	H76	H	0.100841	0.905317	0.609889
	H77	H	0.100436	0.103135	0.372361
	H78	H	0.914867	0.096690	0.610943
	H79	H	0.911957	0.902222	0.374048
	H80	H	0.622765	0.084975	0.896361
	H81	H	0.391594	0.085593	0.083468
	H82	H	0.620247	0.915828	0.082968
	H83	H	0.392169	0.915779	0.903146
	H84	H	0.627325	0.907731	0.096752
	H85	H	0.387246	0.091657	0.092831
	H86	H	0.627939	0.100251	0.892282
	H87	H	0.386991	0.908688	0.895844
	H88	H	0.909034	0.089424	0.609782
	H89	H	0.106585	0.086784	0.375510
	H90	H	0.097536	0.907981	0.607701
	H91	H	0.908172	0.909287	0.375089
	H92	H	0.106385	0.619835	0.902572
	H93	H	0.097713	0.383671	0.085267
	H94	H	0.906497	0.620311	0.084855
	H95	H	0.915110	0.385785	0.906620
	H96	H	0.406436	0.117920	0.581911
	H97	H	0.598227	0.880331	0.591357
	H98	H	0.596676	0.114987	0.402994
	H99	H	0.405414	0.881416	0.406644
	H100	H	0.593925	0.405556	0.108697
	H101	H	0.599903	0.596920	0.875440
	H102	H	0.417500	0.602293	0.111158
	H103	H	0.414478	0.404837	0.875981
	H104	H	0.120839	0.586714	0.399748
	H105	H	0.884259	0.597200	0.587778
	H106	H	0.120870	0.408636	0.582779
	H107	H	0.891694	0.415435	0.404417
	H108	H	0.913234	0.620127	0.090678
	H109	H	0.098479	0.383200	0.086368
	H110	H	0.095485	0.620863	0.889360
	H111	H	0.906005	0.381994	0.899594
	H112	H	0.096493	0.902997	0.609212
	H113	H	0.090187	0.091046	0.379612
	H114	H	0.917949	0.088028	0.607053
	H115	H	0.915974	0.908245	0.376845
	H116	H	0.623299	0.097313	0.908289
	H117	H	0.388033	0.098549	0.081987
	H118	H	0.625311	0.899564	0.081114
	H119	H	0.389720	0.905196	0.906530
	C120	C	0.384559	0.008413	0.614598
	C121	C	0.627699	0.990474	0.614587
	C122	C	0.627807	0.008018	0.371450
	C123	C	0.384831	0.990919	0.371134
	C124	C	0.627573	0.378580	0.001740
	C125	C	0.626583	0.622725	0.985684
	C126	C	0.383606	0.623373	0.002045
	C127	C	0.384032	0.379029	0.984409
	C128	C	0.014254	0.621902	0.370435
	C129	C	0.995661	0.621033	0.613541
	C130	C	0.013501	0.378689	0.614568
	C131	C	0.996047	0.379131	0.371068
	C132	C	0.883193	0.510180	0.114662
	C133	C	0.126004	0.492397	0.113944
	C134	C	0.126336	0.509670	0.870692
	C135	C	0.883641	0.492318	0.871500
	C136	C	0.127066	0.877762	0.500626
	C137	C	0.128048	0.122189	0.484134
	C138	C	0.884518	0.120724	0.501080
	C139	C	0.883484	0.877191	0.483671
	C140	C	0.515555	0.122458	0.870639
	C141	C	0.497719	0.120940	0.114605
	C142	C	0.515442	0.878535	0.115562
	C143	C	0.497991	0.880152	0.872876
	C144	C	0.385728	0.885502	0.671790
	C145	C	0.626458	0.114358	0.668421
	C146	C	0.626012	0.884174	0.316423
	C147	C	0.387314	0.114536	0.315080
	C148	C	0.682468	0.383360	0.878242
	C149	C	0.681938	0.619202	0.108650
	C150	C	0.328977	0.622001	0.878343
	C151	C	0.328849	0.381399	0.107870
	C152	C	0.889768	0.676088	0.373488
	C153	C	0.119957	0.675553	0.610474
	C154	C	0.890291	0.322675	0.612945
	C155	C	0.120039	0.324353	0.372988
	C156	C	0.889979	0.380566	0.669715
	C157	C	0.119368	0.620604	0.669384
	C158	C	0.889740	0.619290	0.316339
	C159	C	0.119506	0.380920	0.315140
	C160	C	0.386224	0.679976	0.879079
	C161	C	0.624593	0.676867	0.109081
	C162	C	0.626046	0.324854	0.878168
	C163	C	0.386596	0.323149	0.107862
	C164	C	0.682502	0.884062	0.374737
	C165	C	0.683731	0.113925	0.611468
	C166	C	0.328740	0.884891	0.613495
	C167	C	0.330220	0.114954	0.372764
	C168	C	0.885115	0.386438	0.169909
	C169	C	0.123331	0.616127	0.167978
	C170	C	0.124140	0.386209	0.816220
	C171	C	0.885104	0.615990	0.815118
	C172	C	0.182102	0.882092	0.377019
	C173	C	0.183817	0.119601	0.606932
	C174	C	0.829637	0.117864	0.377631
	C175	C	0.828255	0.878149	0.607322
	C176	C	0.391674	0.176997	0.873366
	C177	C	0.621785	0.175398	0.111107
	C178	C	0.391334	0.824042	0.113482
	C179	C	0.621666	0.824301	0.875332
	C180	C	0.391910	0.879573	0.171400
	C181	C	0.621591	0.118817	0.169213
	C182	C	0.392023	0.120501	0.815463
	C183	C	0.621251	0.880408	0.816956
	C184	C	0.886351	0.176804	0.377761
	C185	C	0.126246	0.177314	0.607068
	C186	C	0.124421	0.824144	0.376929
	C187	C	0.885811	0.821225	0.607059
	C188	C	0.182149	0.386351	0.873029
	C189	C	0.180822	0.616316	0.110361
	C190	C	0.828750	0.386071	0.111817
	C191	C	0.829420	0.616813	0.874643
	C192	C	0.407442	0.094214	0.591189
	C193	C	0.604623	0.904399	0.593023
	C194	C	0.605533	0.094234	0.392956
	C195	C	0.406428	0.904545	0.393715
	C196	C	0.605057	0.399647	0.088125
	C197	C	0.604093	0.600843	0.899557
	C198	C	0.405148	0.600482	0.088052
	C199	C	0.406315	0.401591	0.898542
	C200	C	0.100906	0.600134	0.391995
	C201	C	0.909573	0.598270	0.591451
	C202	C	0.099935	0.401473	0.592454
	C203	C	0.909896	0.401410	0.393866
	C204	C	0.905081	0.596934	0.092881
	C205	C	0.103967	0.405804	0.092432
	C206	C	0.103840	0.595979	0.892400
	C207	C	0.905870	0.406091	0.893618
	C208	C	0.105044	0.899242	0.586725
	C209	C	0.105647	0.100075	0.398071
	C210	C	0.907148	0.098009	0.586937
	C211	C	0.905503	0.899781	0.397834
	C212	C	0.602181	0.100476	0.892493
	C213	C	0.411283	0.098619	0.092489
	C214	C	0.601932	0.900977	0.093263
	C215	C	0.411890	0.903234	0.895186
	Zn216	Zn	0.506712	0.000498	0.743067
	Zn217	Zn	0.506312	-0.000954	0.242952
	Zn218	Zn	0.755313	0.500991	-0.006699
	Zn219	Zn	0.255005	0.501285	-0.007598
	Zn220	Zn	0.005002	0.748629	0.491881
	Zn221	Zn	0.005484	0.250538	0.492869
	Zn222	Zn	0.004850	0.500939	0.742115
	Zn223	Zn	0.004676	0.500851	0.243021
	Zn224	Zn	0.505967	0.752090	-0.005611
	Zn225	Zn	0.506707	0.249944	-0.007228
	Zn226	Zn	0.755938	-0.001380	0.493186
	Zn227	Zn	0.256435	0.000019	0.492616
	N228	N	0.419585	0.963262	0.672547
	N229	N	0.592457	0.036552	0.670774
	N230	N	0.592468	0.962053	0.314366
	N231	N	0.420660	0.036488	0.314023
	N232	N	0.683491	0.415818	0.956216
	N233	N	0.683287	0.586034	0.030891
	N234	N	0.326895	0.587648	0.955915
	N235	N	0.327023	0.415201	0.030132
	N236	N	0.967949	0.677797	0.406341
	N237	N	0.042316	0.675911	0.576306
	N238	N	0.968162	0.321433	0.579358
	N239	N	0.042279	0.323090	0.407186
	N240	N	0.967844	0.414545	0.670855
	N241	N	0.041112	0.587325	0.671599
	N242	N	0.968152	0.586288	0.314273
	N243	N	0.041539	0.414350	0.314011
	N244	N	0.419517	0.680844	0.956839
	N245	N	0.590962	0.679158	0.031477
	N246	N	0.592532	0.321860	0.955922
	N247	N	0.420069	0.321379	0.030016
	N248	N	0.683694	0.961933	0.408231
	N249	N	0.684429	0.035994	0.578440
	N250	N	0.327822	0.962398	0.578718
	N251	N	0.328446	0.037147	0.406952
	N252	N	0.918141	0.464637	0.171757
	N253	N	0.090003	0.537999	0.170357
	N254	N	0.090353	0.464161	0.814443
	N255	N	0.918220	0.537855	0.813232
	N256	N	0.183955	0.914653	0.454939
	N257	N	0.185031	0.086212	0.529407
	N258	N	0.828575	0.083674	0.455110
	N259	N	0.827018	0.912598	0.529891
	N260	N	0.469649	0.178532	0.906610
	N261	N	0.543696	0.176757	0.077700
	N262	N	0.469196	0.823247	0.079623
	N263	N	0.543894	0.823938	0.909287
	N264	N	0.470047	0.912782	0.172715
	N265	N	0.543349	0.085751	0.171638
	N266	N	0.470241	0.087477	0.813533
	N267	N	0.543478	0.914544	0.815245
	N268	N	0.919785	0.178782	0.455626
	N269	N	0.092273	0.179022	0.529546
	N270	N	0.090820	0.821435	0.454690
	N271	N	0.919415	0.820416	0.529311
	N272	N	0.183634	0.464146	0.906067
	N273	N	0.182477	0.538243	0.077401
	N274	N	0.827590	0.463853	0.078070
	N275	N	0.828445	0.538977	0.908963
	O276	O	0.984032	0.981738	-0.041164
	H277	H	0.983757	0.977226	-0.047285
	H278	H	0.981423	0.977965	-0.046991
	O279	O	0.009905	0.085485	0.979521
	H280	H	0.018948	0.087167	0.973824
	H281	H	-0.001482	0.090525	0.982898
	O282	O	0.042307	0.078677	0.008526
	H283	H	0.046512	0.087732	0.010431
	H284	H	0.041018	0.079317	0.008073
	O285	O	0.487730	0.554792	0.523210
	H286	H	0.492252	0.568909	0.527056
	H287	H	0.505421	0.552369	0.528545
	O288	O	-0.019316	0.067155	0.001253
	H289	H	-0.025502	0.069693	0.010878
	H290	H	-0.009901	0.069508	-0.002285
	O291	O	0.032914	0.940665	-0.025390
	H292	H	0.030603	0.944052	-0.012933
	H293	H	0.034254	0.932646	-0.025239
	O294	O	0.040797	1.006434	-0.061691
	H295	H	0.030366	1.008256	-0.060043
	H296	H	0.051847	1.001543	-0.056457
	O297	O	0.477761	0.593629	0.513167
	H298	H	0.480678	0.577026	0.511280
	H299	H	0.494816	0.591718	0.512301
	O300	O	0.556306	0.444417	0.506044
	H301	H	0.557618	0.447259	0.497272
	H302	H	0.556376	0.458672	0.514242
	O303	O	0.994514	0.073248	0.933257
	H304	H	1.002860	0.073101	0.930353
	H305	H	0.990474	0.078374	0.927625
	O306	O	-0.003084	0.939532	0.956972
	H307	H	-0.008790	0.936525	0.962433
	H308	H	-0.012726	0.943496	0.953943
	O309	O	0.038802	1.007462	1.005850
	H310	H	0.035167	1.010473	1.004731
	H311	H	0.048606	1.013938	0.997699
	O312	O	0.066009	0.019597	0.893410
	H313	H	0.070823	0.006042	0.897531
	H314	H	0.066041	0.016775	0.887750
	O315	O	0.568993	0.524313	0.441769
	H316	H	0.570528	0.529107	0.437629
	H317	H	0.579820	0.517693	0.449994
	O318	O	0.043907	-0.005317	0.954633
	H319	H	0.041127	0.005443	0.945311
	H320	H	0.035467	-0.000976	0.962641
	O321	O	0.515897	0.561951	0.481174
	H322	H	0.515118	0.563862	0.484273
	H323	H	0.519732	0.575216	0.488487
	O324	O	0.442748	-0.565071	1.610447
	H325	H	0.441596	-0.559848	1.610286
	H326	H	0.437892	-0.566569	1.612678
	O327	O	1.070746	1.059582	0.872628
	H328	H	1.070011	1.071688	0.852548
	H329	H	1.075285	1.047979	0.876740
	O330	O	0.404561	0.482220	0.512114
	H331	H	0.396107	0.498345	0.506002
	H332	H	0.392421	0.478682	0.508048
	O333	O	0.421325	0.446691	0.454082
	H334	H	0.419357	0.444198	0.463696
	H335	H	0.420009	0.450125	0.449276
	O336	O	0.403564	0.465009	0.563848
	H337	H	0.386174	0.467929	0.580230
	H338	H	0.412193	0.471609	0.557070
	O339	O	0.505424	0.385251	0.577048
	H340	H	0.491097	0.378886	0.574914
	H341	H	0.493043	0.374897	0.577193
	O342	O	0.578267	0.515794	0.511515
	H343	H	0.580055	0.506437	0.513880
	H344	H	0.576458	0.517377	0.502886
	O345	O	0.502625	0.453565	0.506598
	H346	H	0.502618	0.438584	0.508637
	H347	H	0.495492	0.458679	0.493851
