data_Molecule from HDF5

_cell_length_a		16.531915
_cell_length_b		16.300548
_cell_length_c		15.949447
_cell_angle_alpha	89.643662
_cell_angle_beta	90.508376
_cell_angle_gamma	90.019586
_symmetry_space_group_name_H-M	'P 1'
_symmetry_Int_Tables_number		1

loop_
	_symmetry_equiv_pos_as_xyz
	x,y,z

loop_
	_atom_site_label
	_atom_site_type_symbol
	_atom_site_fract_x
	_atom_site_fract_y
	_atom_site_fract_z
	H0	H	0.402986	0.832171	0.707752
	H1	H	0.594830	0.160161	0.708245
	H2	H	0.591510	0.831900	0.286038
	H3	H	0.399306	0.159235	0.279621
	H4	H	0.710375	0.393435	0.829145
	H5	H	0.715948	0.596503	0.158138
	H6	H	0.277004	0.599615	0.830754
	H7	H	0.281707	0.391641	0.160056
	H8	H	0.838363	0.718593	0.388144
	H9	H	0.155928	0.717059	0.602062
	H10	H	0.837310	0.275484	0.597813
	H11	H	0.157282	0.277832	0.394592
	H12	H	0.833515	0.398812	0.707381
	H13	H	0.158091	0.592948	0.711451
	H14	H	0.836061	0.595101	0.277230
	H15	H	0.159917	0.400671	0.283097
	H16	H	0.393262	0.712284	0.829264
	H17	H	0.596375	0.706536	0.161295
	H18	H	0.592268	0.283868	0.827988
	H19	H	0.397532	0.279991	0.160272
	H20	H	0.719089	0.838037	0.390275
	H21	H	0.718912	0.156761	0.602959
	H22	H	0.275655	0.836477	0.604744
	H23	H	0.275856	0.155998	0.386739
	H24	H	0.903051	0.331903	0.206948
	H25	H	0.095512	0.660738	0.207952
	H26	H	0.089352	0.331436	0.784476
	H27	H	0.899402	0.660155	0.780052
	H28	H	0.211984	0.894523	0.331485
	H29	H	0.216611	0.099779	0.659368
	H30	H	0.777796	0.103980	0.333148
	H31	H	0.781134	0.892668	0.659868
	H32	H	0.335463	0.214461	0.888717
	H33	H	0.655827	0.213932	0.097780
	H34	H	0.337634	0.772666	0.100467
	H35	H	0.655553	0.775686	0.892558
	H36	H	0.334837	0.895739	0.210601
	H37	H	0.657641	0.091402	0.210543
	H38	H	0.335455	0.093658	0.775789
	H39	H	0.659790	0.900682	0.783575
	H40	H	0.898588	0.208798	0.329574
	H41	H	0.096475	0.207977	0.662131
	H42	H	0.096215	0.783951	0.330124
	H43	H	0.898188	0.781637	0.660952
	H44	H	0.214644	0.335083	0.889835
	H45	H	0.220567	0.655309	0.103904
	H46	H	0.779454	0.333704	0.098245
	H47	H	0.773715	0.656143	0.885100
	H48	H	0.400779	0.111917	0.580043
	H49	H	0.602293	0.879293	0.580689
	H50	H	0.592231	0.114482	0.403227
	H51	H	0.399882	0.880737	0.413571
	H52	H	0.589318	0.407668	0.112598
	H53	H	0.585521	0.582709	0.876901
	H54	H	0.404487	0.578808	0.111544
	H55	H	0.404381	0.405450	0.877471
	H56	H	0.109381	0.597004	0.418294
	H57	H	0.879134	0.593573	0.593576
	H58	H	0.111134	0.398068	0.588159
	H59	H	0.880890	0.399639	0.396373
	H60	H	0.109256	0.404346	0.586476
	H61	H	0.883516	0.598298	0.575372
	H62	H	0.107768	0.577493	0.401888
	H63	H	0.883800	0.399430	0.406901
	H64	H	0.412040	0.582506	0.110248
	H65	H	0.582506	0.585675	0.876912
	H66	H	0.586927	0.403266	0.113900
	H67	H	0.399683	0.404705	0.875057
	H68	H	0.586668	0.113042	0.402722
	H69	H	0.591264	0.877471	0.597052
	H70	H	0.406414	0.113305	0.585858
	H71	H	0.396196	0.876878	0.401063
	H72	H	0.908763	0.610286	0.084551
	H73	H	0.092680	0.377542	0.094798
	H74	H	0.083475	0.610765	0.904237
	H75	H	0.901399	0.380981	0.906077
	H76	H	0.084741	0.899103	0.615475
	H77	H	0.087268	0.090306	0.376478
	H78	H	0.914708	0.077383	0.609624
	H79	H	0.908742	0.904651	0.377149
	H80	H	0.612349	0.096223	0.903882
	H81	H	0.382232	0.087455	0.083714
	H82	H	0.611461	0.898272	0.089624
	H83	H	0.384686	0.905672	0.907131
	H84	H	0.609797	0.900595	0.085919
	H85	H	0.381598	0.088815	0.084406
	H86	H	0.608581	0.090796	0.906711
	H87	H	0.382226	0.905260	0.898708
	H88	H	0.910787	0.098573	0.618154
	H89	H	0.090355	0.086389	0.377321
	H90	H	0.096888	0.909057	0.616360
	H91	H	0.900037	0.909490	0.376028
	H92	H	0.089417	0.610083	0.910771
	H93	H	0.082576	0.384236	0.084332
	H94	H	0.903163	0.609761	0.075554
	H95	H	0.897434	0.378823	0.902289
	H96	H	0.407708	0.109626	0.578558
	H97	H	0.584275	0.885164	0.580409
	H98	H	0.589348	0.111953	0.408126
	H99	H	0.408891	0.880670	0.403558
	H100	H	0.591843	0.403792	0.113672
	H101	H	0.586441	0.587372	0.875720
	H102	H	0.405472	0.587444	0.114294
	H103	H	0.402166	0.408899	0.876380
	H104	H	0.117429	0.599951	0.393612
	H105	H	0.885952	0.578932	0.581523
	H106	H	0.111636	0.402928	0.592923
	H107	H	0.884272	0.408623	0.401633
	H108	H	0.898754	0.613687	0.084427
	H109	H	0.097365	0.381179	0.079395
	H110	H	0.091383	0.612974	0.903055
	H111	H	0.902923	0.378684	0.900493
	H112	H	0.083983	0.914100	0.610188
	H113	H	0.085770	0.085087	0.377638
	H114	H	0.893971	0.082391	0.617617
	H115	H	0.908090	0.914326	0.380307
	H116	H	0.611523	0.090107	0.900209
	H117	H	0.382357	0.088512	0.083203
	H118	H	0.609894	0.902631	0.089880
	H119	H	0.382332	0.898623	0.903888
	C120	C	0.375603	0.004973	0.614966
	C121	C	0.620854	0.987897	0.616905
	C122	C	0.618565	0.005704	0.375102
	C123	C	0.373064	0.986775	0.373410
	C124	C	0.616645	0.375335	0.003247
	C125	C	0.616459	0.615363	0.985477
	C126	C	0.375266	0.615652	0.003640
	C127	C	0.374286	0.375118	0.985900
	C128	C	0.005958	0.621211	0.372283
	C129	C	0.988480	0.619371	0.616328
	C130	C	0.004553	0.372873	0.617943
	C131	C	0.989265	0.373843	0.373077
	C132	C	0.875499	0.503770	0.113441
	C133	C	0.120169	0.487856	0.117168
	C134	C	0.116693	0.503981	0.875546
	C135	C	0.872275	0.486833	0.871288
	C136	C	0.117541	0.877072	0.504763
	C137	C	0.118464	0.117159	0.486425
	C138	C	0.876070	0.117428	0.505667
	C139	C	0.876371	0.877682	0.486884
	C140	C	0.504627	0.120480	0.871211
	C141	C	0.487655	0.117392	0.115564
	C142	C	0.504227	0.871587	0.118176
	C143	C	0.489175	0.874344	0.873687
	C144	C	0.379817	0.881865	0.671715
	C145	C	0.617041	0.110664	0.672247
	C146	C	0.614309	0.881869	0.321601
	C147	C	0.376878	0.109794	0.316106
	C148	C	0.671752	0.375203	0.878507
	C149	C	0.675994	0.615311	0.109263
	C150	C	0.316304	0.617863	0.879624
	C151	C	0.319601	0.373516	0.110429
	C152	C	0.885860	0.678881	0.370255
	C153	C	0.108529	0.676585	0.618888
	C154	C	0.884462	0.315372	0.616760
	C155	C	0.109764	0.317224	0.374821
	C156	C	0.882470	0.376995	0.671133
	C157	C	0.109590	0.615143	0.673707
	C158	C	0.884762	0.617553	0.314888
	C159	C	0.111198	0.378396	0.319367
	C160	C	0.374315	0.673869	0.879064
	C161	C	0.616360	0.669775	0.111024
	C162	C	0.612872	0.320679	0.877925
	C163	C	0.377385	0.317987	0.110773
	C164	C	0.677694	0.885071	0.373293
	C165	C	0.678638	0.109130	0.619702
	C166	C	0.316584	0.884155	0.620156
	C167	C	0.315910	0.108266	0.369812
	C168	C	0.880412	0.381328	0.170315
	C169	C	0.117227	0.611011	0.172105
	C170	C	0.112270	0.380971	0.820447
	C171	C	0.876639	0.610474	0.815903
	C172	C	0.173880	0.876183	0.380730
	C173	C	0.176688	0.117628	0.610431
	C174	C	0.817795	0.120353	0.381905
	C175	C	0.819969	0.875176	0.610577
	C176	C	0.383701	0.176118	0.869872
	C177	C	0.607953	0.174700	0.116952
	C178	C	0.384746	0.813247	0.118417
	C179	C	0.608734	0.816161	0.874096
	C180	C	0.383331	0.874259	0.173638
	C181	C	0.609104	0.113587	0.172717
	C182	C	0.383665	0.116189	0.813420
	C183	C	0.610570	0.878110	0.819340
	C184	C	0.877794	0.172971	0.380281
	C185	C	0.116972	0.171721	0.611870
	C186	C	0.116177	0.820901	0.380104
	C187	C	0.878310	0.819738	0.611242
	C188	C	0.174288	0.382904	0.873527
	C189	C	0.179276	0.608306	0.120017
	C190	C	0.818909	0.382064	0.115857
	C191	C	0.814320	0.608182	0.868222
	C192	C	0.398307	0.089786	0.589019
	C193	C	0.598977	0.902737	0.592887
	C194	C	0.596196	0.090828	0.397965
	C195	C	0.395293	0.901760	0.398629
	C196	C	0.595325	0.398058	0.090632
	C197	C	0.592104	0.591954	0.899112
	C198	C	0.400175	0.590394	0.089438
	C199	C	0.395879	0.399090	0.898904
	C200	C	0.089893	0.598273	0.397381
	C201	C	0.904761	0.596770	0.590976
	C202	C	0.088887	0.395139	0.595866
	C203	C	0.904948	0.395939	0.395281
	C204	C	0.897255	0.589241	0.088487
	C205	C	0.097317	0.402987	0.093153
	C206	C	0.094311	0.589152	0.899209
	C207	C	0.894342	0.401511	0.895621
	C208	C	0.095068	0.900603	0.591480
	C209	C	0.094742	0.094074	0.399453
	C210	C	0.899596	0.093055	0.592701
	C211	C	0.898927	0.902474	0.400282
	C212	C	0.588987	0.098717	0.896091
	C213	C	0.403791	0.094789	0.090977
	C214	C	0.588489	0.894049	0.095189
	C215	C	0.404892	0.896739	0.896490
	Zn216	Zn	0.497655	-0.003848	0.742975
	Zn217	Zn	0.495729	-0.004873	0.246866
	Zn218	Zn	0.744608	0.495154	-0.007169
	Zn219	Zn	0.247701	0.495689	-0.004650
	Zn220	Zn	-0.002588	0.750509	0.495249
	Zn221	Zn	-0.003248	0.243192	0.495646
	Zn222	Zn	-0.004096	0.496337	0.745966
	Zn223	Zn	-0.002117	0.497320	0.243793
	Zn224	Zn	0.496338	0.742646	-0.004999
	Zn225	Zn	0.495454	0.249169	-0.005854
	Zn226	Zn	0.749159	-0.001783	0.496123
	Zn227	Zn	0.245246	-0.003942	0.495307
	N228	N	0.415738	0.957776	0.668458
	N229	N	0.581559	0.034404	0.670641
	N230	N	0.578330	0.957846	0.322336
	N231	N	0.411542	0.033090	0.318167
	N232	N	0.674370	0.408351	0.957535
	N233	N	0.676353	0.582218	0.030160
	N234	N	0.316600	0.582694	0.958188
	N235	N	0.317734	0.408392	0.031860
	N236	N	0.962257	0.681145	0.405105
	N237	N	0.032139	0.679440	0.584195
	N238	N	0.961195	0.312914	0.584149
	N239	N	0.033023	0.314133	0.407236
	N240	N	0.958131	0.412091	0.672143
	N241	N	0.034031	0.580055	0.672155
	N242	N	0.960445	0.582569	0.315878
	N243	N	0.035364	0.412930	0.318154
	N244	N	0.410319	0.672689	0.957087
	N245	N	0.580049	0.669874	0.033040
	N246	N	0.579396	0.320674	0.956546
	N247	N	0.410724	0.318727	0.032092
	N248	N	0.680413	0.963090	0.405873
	N249	N	0.680968	0.031840	0.585820
	N250	N	0.313874	0.961855	0.585517
	N251	N	0.313220	0.030791	0.404584
	N252	N	0.914998	0.458028	0.168940
	N253	N	0.080958	0.535176	0.170395
	N254	N	0.077036	0.457374	0.821546
	N255	N	0.911855	0.534043	0.817569
	N256	N	0.174631	0.910495	0.459195
	N257	N	0.177748	0.084586	0.531330
	N258	N	0.816374	0.086966	0.461081
	N259	N	0.818604	0.910342	0.532067
	N260	N	0.459999	0.178863	0.904961
	N261	N	0.531600	0.177149	0.082028
	N262	N	0.461148	0.811293	0.084938
	N263	N	0.532104	0.813665	0.906979
	N264	N	0.458708	0.909659	0.173691
	N265	N	0.533306	0.078684	0.172072
	N266	N	0.459872	0.082303	0.814156
	N267	N	0.535177	0.913533	0.819097
	N268	N	0.913509	0.171320	0.458464
	N269	N	0.081302	0.171528	0.533684
	N270	N	0.081789	0.821276	0.458252
	N271	N	0.912862	0.821157	0.533157
	N272	N	0.177368	0.460629	0.906723
	N273	N	0.181402	0.530763	0.086628
	N274	N	0.815929	0.459436	0.081199
	N275	N	0.811348	0.530205	0.901779
	O276	O	0.038504	0.003541	-0.030833
	H277	H	0.061088	-0.003976	-0.034394
	H278	H	0.038006	0.002299	-0.044378
	O279	O	0.978291	0.064251	1.027695
	H280	H	0.979340	0.062555	1.028482
	H281	H	1.004682	0.058752	1.026214
	O282	O	1.126439	-0.028987	-0.009287
	H283	H	1.134125	-0.038002	-0.019992
	H284	H	1.128044	-0.021219	0.003757
	O285	O	0.107359	0.928997	-0.140672
	H286	H	0.091825	0.917994	-0.141865
	H287	H	0.103451	0.942976	-0.140080
	O288	O	0.484329	0.497419	0.420474
	H289	H	0.473700	0.498063	0.418311
	H290	H	0.489561	0.487792	0.421111
	O291	O	0.520495	0.495271	0.583600
	H292	H	0.526033	0.502698	0.566003
	H293	H	0.538202	0.493625	0.602800
	O294	O	1.144443	1.031182	1.078309
	H295	H	1.139681	1.020737	1.058428
	H296	H	1.147774	1.031095	1.081061
	O297	O	-0.084976	-0.093842	0.162057
	H298	H	-0.079178	-0.112236	0.170602
	H299	H	-0.082567	-0.088382	0.158245
	O300	O	0.566645	0.548721	0.526486
	H301	H	0.559271	0.548927	0.531701
	H302	H	0.571804	0.553955	0.531106
	O303	O	-0.001805	0.933400	1.041042
	H304	H	-0.013852	0.939461	1.035585
	H305	H	-0.012683	0.930662	1.048449
	O306	O	0.613605	0.474495	0.525433
	H307	H	0.605970	0.469141	0.530706
	H308	H	0.603307	0.478910	0.520349
	O309	O	0.985176	-0.086256	-0.051521
	H310	H	0.994953	-0.089170	-0.062868
	H311	H	0.978228	-0.086922	-0.044311
	O312	O	0.162485	0.031941	1.000794
	H313	H	0.168963	0.038797	0.996614
	H314	H	0.162985	0.045141	1.000847
	O315	O	0.462766	0.587739	0.618225
	H316	H	0.454587	0.588381	0.609381
	H317	H	0.453810	0.592027	0.599166
	O318	O	0.504351	0.483782	0.483128
	H319	H	0.515231	0.478220	0.484831
	H320	H	0.509286	0.476449	0.479399
	O321	O	0.478976	0.402221	0.598332
	H322	H	0.475646	0.391812	0.621842
	H323	H	0.456524	0.407170	0.598036
	O324	O	0.504009	0.549006	0.364426
	H325	H	0.514363	0.558858	0.374788
	H326	H	0.508905	0.547278	0.378947
	O327	O	-0.052173	1.116753	0.921460
	H328	H	-0.046195	1.128939	0.919710
	H329	H	-0.047459	1.106116	0.934314
	O330	O	0.437937	0.449399	0.546133
	H331	H	0.427887	0.448504	0.547945
	H332	H	0.445215	0.459379	0.551885
	O333	O	-0.077521	1.163244	0.960686
	H334	H	-0.092907	1.181497	0.961954
	H335	H	-0.069826	1.153413	0.966402
	O336	O	1.110850	0.963397	0.992099
	H337	H	1.115891	0.968430	0.989447
	H338	H	1.108576	0.966794	0.984183
	O339	O	0.516084	0.572720	0.483176
	H340	H	0.517969	0.571561	0.497796
	H341	H	0.537913	0.574623	0.485923
	O342	O	0.839768	-0.062664	-0.006448
	H343	H	0.838899	-0.061819	0.009023
	H344	H	0.836835	-0.047680	-0.005114
	O345	O	0.529108	0.546211	0.527742
	H346	H	0.534825	0.538406	0.527107
	H347	H	0.545012	0.538007	0.529685
	O348	O	0.978012	0.908450	1.026875
	H349	H	0.970402	0.894724	1.033618
	H350	H	0.975226	0.908593	1.036649
	O351	O	0.898993	1.006614	-0.061516
	H352	H	0.900608	1.001150	-0.063701
	H353	H	0.875366	0.995756	-0.063081
	O354	O	0.500490	0.582177	0.522760
	H355	H	0.522160	0.582608	0.529962
	H356	H	0.481452	0.591149	0.514383
	O357	O	0.621688	0.538460	0.610566
	H358	H	0.622730	0.530475	0.604120
	H359	H	0.608386	0.546284	0.624749
	O360	O	-0.081453	0.047211	-0.099786
	H361	H	-0.090330	0.043621	-0.111568
	H362	H	-0.077623	0.041623	-0.077180
	O363	O	0.551389	0.431787	0.499686
	H364	H	0.539961	0.430076	0.507104
	H365	H	0.560541	0.425308	0.510667
	O366	O	0.406212	0.568887	0.470209
	H367	H	0.405342	0.560526	0.457581
	H368	H	0.395316	0.572117	0.467014
	O369	O	0.476285	0.387248	0.491308
	H370	H	0.484071	0.388824	0.502479
	H371	H	0.476048	0.375222	0.495081
	O372	O	0.481351	0.332137	0.561912
	H373	H	0.476200	0.340578	0.559048
	H374	H	0.478236	0.333943	0.561186
	O375	O	0.550854	0.373414	0.375221
	H376	H	0.546273	0.386502	0.369438
	H377	H	0.558082	0.372702	0.378649
	O378	O	0.542977	0.679497	0.486848
	H379	H	0.551060	0.678223	0.482572
	H380	H	0.553019	0.688112	0.491051
	O381	O	0.454579	0.532491	0.345856
	H382	H	0.456649	0.534459	0.342128
	H383	H	0.460371	0.534060	0.354452
	O384	O	0.086282	0.934217	0.067468
	H385	H	0.093712	0.939546	0.072696
	H386	H	0.080308	0.932448	0.080864
	O387	O	0.994009	-0.080235	0.936464
	H388	H	0.996078	-0.073845	0.951731
	H389	H	0.990549	-0.083909	0.934972
	O390	O	-0.030388	0.980028	0.167719
	H391	H	-0.025182	0.998221	0.164130
	H392	H	-0.022880	0.996862	0.173319
	O393	O	0.822543	0.960854	0.034819
	H394	H	0.807701	0.960766	0.041677
	H395	H	0.834854	0.976270	0.043903
	O396	O	0.379358	0.324400	0.502111
	H397	H	0.374808	0.334780	0.502442
	H398	H	0.363689	0.324756	0.495891
	O399	O	-0.046469	1.061467	0.971227
	H400	H	-0.059660	1.075523	0.971740
	H401	H	-0.041161	1.059551	0.971083
	O402	O	0.961998	1.017265	1.022447
	H403	H	0.970418	1.016261	1.025101
	H404	H	0.966599	1.011642	1.005558
	O405	O	0.319180	1.479965	0.300717
	H406	H	0.300300	1.476462	0.297343
	H407	H	0.325059	1.491816	0.301022
