data_Molecule from HDF5

_cell_length_a		16.134877
_cell_length_b		16.153623
_cell_length_c		16.346374
_cell_angle_alpha	89.917041
_cell_angle_beta	89.725905
_cell_angle_gamma	91.161817
_symmetry_space_group_name_H-M	'P 1'
_symmetry_Int_Tables_number		1

loop_
	_symmetry_equiv_pos_as_xyz
	x,y,z

loop_
	_atom_site_label
	_atom_site_type_symbol
	_atom_site_fract_x
	_atom_site_fract_y
	_atom_site_fract_z
	H0	H	0.396833	0.847419	0.718142
	H1	H	0.607242	0.175165	0.710735
	H2	H	0.601778	0.845764	0.283015
	H3	H	0.407822	0.174223	0.285594
	H4	H	0.716131	0.415250	0.836381
	H5	H	0.721972	0.613395	0.162718
	H6	H	0.293433	0.605013	0.835263
	H7	H	0.285185	0.408583	0.162691
	H8	H	0.836853	0.715045	0.403200
	H9	H	0.167891	0.725314	0.595781
	H10	H	0.838236	0.291534	0.596907
	H11	H	0.169621	0.302056	0.401962
	H12	H	0.839644	0.401907	0.716960
	H13	H	0.169160	0.610343	0.710648
	H14	H	0.839479	0.606892	0.282704
	H15	H	0.167196	0.411742	0.282247
	H16	H	0.408163	0.723457	0.836246
	H17	H	0.604160	0.728508	0.162644
	H18	H	0.600990	0.296833	0.836778
	H19	H	0.400296	0.292882	0.163181
	H20	H	0.710402	0.842335	0.403812
	H21	H	0.722081	0.173000	0.596452
	H22	H	0.285520	0.844864	0.598238
	H23	H	0.296136	0.175944	0.403108
	H24	H	0.896865	0.344964	0.215134
	H25	H	0.108957	0.672417	0.214887
	H26	H	0.102762	0.344387	0.782700
	H27	H	0.908329	0.672949	0.782159
	H28	H	0.216316	0.914147	0.334792
	H29	H	0.219607	0.109699	0.662161
	H30	H	0.793932	0.102061	0.334629
	H31	H	0.783618	0.904055	0.661963
	H32	H	0.337300	0.216887	0.905953
	H33	H	0.667278	0.227954	0.098260
	H34	H	0.339120	0.793118	0.098739
	H35	H	0.670254	0.801613	0.900218
	H36	H	0.340072	0.905250	0.217481
	H37	H	0.667704	0.115353	0.214639
	H38	H	0.341309	0.112764	0.782774
	H39	H	0.667828	0.914071	0.782199
	H40	H	0.908622	0.220110	0.335258
	H41	H	0.105347	0.227238	0.661742
	H42	H	0.101157	0.796431	0.334726
	H43	H	0.901225	0.789942	0.661919
	H44	H	0.212397	0.342182	0.902517
	H45	H	0.220133	0.673387	0.096203
	H46	H	0.784673	0.345344	0.097802
	H47	H	0.797767	0.676677	0.902320
	H48	H	0.413732	0.126083	0.587151
	H49	H	0.581822	0.894559	0.594994
	H50	H	0.598216	0.127626	0.402930
	H51	H	0.412998	0.891419	0.401824
	H52	H	0.597396	0.427276	0.114605
	H53	H	0.605962	0.611931	0.879238
	H54	H	0.412277	0.606903	0.117096
	H55	H	0.410412	0.413354	0.884092
	H56	H	0.120751	0.604358	0.407621
	H57	H	0.885349	0.597312	0.594082
	H58	H	0.123204	0.418670	0.597682
	H59	H	0.887273	0.419151	0.409065
	H60	H	0.121391	0.414283	0.588257
	H61	H	0.884781	0.596427	0.592565
	H62	H	0.120847	0.599020	0.404004
	H63	H	0.881900	0.412419	0.398604
	H64	H	0.405009	0.599968	0.117313
	H65	H	0.602876	0.597591	0.885177
	H66	H	0.584745	0.416432	0.113949
	H67	H	0.407324	0.410590	0.881432
	H68	H	0.598177	0.125833	0.409143
	H69	H	0.594487	0.893051	0.584626
	H70	H	0.407369	0.130665	0.595466
	H71	H	0.411091	0.893755	0.413004
	H72	H	0.919069	0.622398	0.081527
	H73	H	0.091652	0.386875	0.104333
	H74	H	0.102923	0.630055	0.897240
	H75	H	0.919757	0.392130	0.899214
	H76	H	0.095339	0.915971	0.615793
	H77	H	0.102917	0.102871	0.382832
	H78	H	0.919326	0.098897	0.613238
	H79	H	0.910556	0.898837	0.379593
	H80	H	0.620993	0.096998	0.901737
	H81	H	0.383048	0.100801	0.097298
	H82	H	0.623146	0.910961	0.085555
	H83	H	0.387544	0.922016	0.907568
	H84	H	0.617185	0.932741	0.088050
	H85	H	0.385218	0.100260	0.093097
	H86	H	0.626304	0.112901	0.900032
	H87	H	0.384959	0.913040	0.904877
	H88	H	0.908990	0.105762	0.618696
	H89	H	0.096391	0.103862	0.383533
	H90	H	0.092871	0.918194	0.613472
	H91	H	0.894542	0.914120	0.379978
	H92	H	0.090431	0.623822	0.903654
	H93	H	0.082935	0.395895	0.087353
	H94	H	0.904803	0.631084	0.094564
	H95	H	0.907864	0.396398	0.920898
	H96	H	0.417852	0.128102	0.597363
	H97	H	0.596056	0.888796	0.600246
	H98	H	0.603783	0.128342	0.407283
	H99	H	0.402633	0.889812	0.406532
	H100	H	0.598972	0.411201	0.119775
	H101	H	0.591725	0.608803	0.884657
	H102	H	0.415025	0.597743	0.114159
	H103	H	0.406371	0.415267	0.883018
	H104	H	0.122837	0.605028	0.402246
	H105	H	0.884554	0.596317	0.594921
	H106	H	0.120003	0.423922	0.590135
	H107	H	0.883776	0.405263	0.409841
	H108	H	0.924406	0.627321	0.100960
	H109	H	0.102870	0.389486	0.086114
	H110	H	0.103187	0.625289	0.911498
	H111	H	0.896201	0.386508	0.901032
	H112	H	0.091715	0.915152	0.614036
	H113	H	0.100267	0.107784	0.381012
	H114	H	0.907217	0.092810	0.614117
	H115	H	0.915392	0.920708	0.386515
	H116	H	0.619843	0.107354	0.914872
	H117	H	0.385243	0.096010	0.096488
	H118	H	0.626387	0.921042	0.105672
	H119	H	0.387584	0.914526	0.912942
	C120	C	0.381225	0.019349	0.622276
	C121	C	0.623606	1.000970	0.620694
	C122	C	0.625540	0.017917	0.378125
	C123	C	0.382762	1.001192	0.378774
	C124	C	0.622635	0.390155	0.008342
	C125	C	0.628264	0.634928	0.991186
	C126	C	0.383453	0.629752	0.007889
	C127	C	0.378922	0.384781	0.990889
	C128	C	0.012175	0.629347	0.376772
	C129	C	0.994515	0.628509	0.620984
	C130	C	0.012776	0.386382	0.621531
	C131	C	0.994044	0.386886	0.377182
	C132	C	0.882587	0.518283	0.121284
	C133	C	0.124025	0.499686	0.120756
	C134	C	0.125522	0.516917	0.877028
	C135	C	0.882693	0.501120	0.877988
	C136	C	0.122996	0.888591	0.506720
	C137	C	0.127946	0.133392	0.490215
	C138	C	0.884034	0.127663	0.507344
	C139	C	0.878112	0.882754	0.490329
	C140	C	0.512846	0.132201	0.878589
	C141	C	0.493656	0.131005	0.123080
	C142	C	0.513163	0.889587	0.121763
	C143	C	0.495507	0.889411	0.878274
	C144	C	0.379137	0.895997	0.678807
	C145	C	0.625661	0.125418	0.674060
	C146	C	0.621730	0.894311	0.322060
	C147	C	0.387282	0.125232	0.323603
	C148	C	0.678103	0.393756	0.885290
	C149	C	0.683707	0.633216	0.113966
	C150	C	0.329968	0.626524	0.884421
	C151	C	0.322992	0.387915	0.113894
	C152	C	0.886929	0.680236	0.380988
	C153	C	0.118600	0.686571	0.616826
	C154	C	0.887928	0.329597	0.617942
	C155	C	0.119434	0.336722	0.380454
	C156	C	0.888789	0.384215	0.677724
	C157	C	0.119266	0.629447	0.673847
	C158	C	0.888380	0.626377	0.321357
	C159	C	0.118172	0.391529	0.321138
	C160	C	0.387252	0.685262	0.884852
	C161	C	0.625236	0.690501	0.113992
	C162	C	0.620723	0.335019	0.885583
	C163	C	0.380256	0.330278	0.114078
	C164	C	0.675712	0.892472	0.382063
	C165	C	0.682916	0.124260	0.616948
	C166	C	0.323361	0.894857	0.619438
	C167	C	0.331765	0.126138	0.382226
	C168	C	0.879548	0.394209	0.176603
	C169	C	0.126433	0.623470	0.176531
	C170	C	0.122244	0.392960	0.821678
	C171	C	0.887783	0.624311	0.821072
	C172	C	0.178850	0.892444	0.383807
	C173	C	0.182265	0.130630	0.613379
	C174	C	0.830817	0.123590	0.383766
	C175	C	0.822001	0.884425	0.612922
	C176	C	0.387519	0.182602	0.883392
	C177	C	0.618059	0.189422	0.119298
	C178	C	0.388614	0.831515	0.119318
	C179	C	0.620306	0.837654	0.880011
	C180	C	0.389024	0.887512	0.178085
	C181	C	0.618337	0.133114	0.176725
	C182	C	0.389624	0.130369	0.822264
	C183	C	0.619193	0.893705	0.821285
	C184	C	0.887789	0.182234	0.384264
	C185	C	0.125608	0.189154	0.613112
	C186	C	0.121175	0.834027	0.383707
	C187	C	0.880444	0.827630	0.612945
	C188	C	0.176962	0.392077	0.881188
	C189	C	0.182002	0.623910	0.117468
	C190	C	0.823300	0.394418	0.118618
	C191	C	0.832354	0.626138	0.880759
	C192	C	0.405699	0.105946	0.599973
	C193	C	0.598078	0.914233	0.599540
	C194	C	0.605809	0.104893	0.399984
	C195	C	0.402818	0.914121	0.400743
	C196	C	0.600293	0.411937	0.093986
	C197	C	0.606526	0.612580	0.905170
	C198	C	0.404732	0.608076	0.093980
	C199	C	0.401411	0.406501	0.905110
	C200	C	0.099051	0.609038	0.398330
	C201	C	0.907537	0.603844	0.600078
	C202	C	0.099403	0.411581	0.598848
	C203	C	0.906808	0.406524	0.399346
	C204	C	0.908397	0.604621	0.098814
	C205	C	0.099601	0.413104	0.099034
	C206	C	0.104998	0.603778	0.897955
	C207	C	0.902185	0.414180	0.900469
	C208	C	0.100148	0.910159	0.592331
	C209	C	0.106257	0.111572	0.404776
	C210	C	0.905554	0.105694	0.593243
	C211	C	0.900284	0.904680	0.404252
	C212	C	0.599806	0.111840	0.899577
	C213	C	0.407161	0.106289	0.101864
	C214	C	0.599678	0.914272	0.099365
	C215	C	0.409108	0.910198	0.901491
	Zn216	Zn	0.503721	0.011461	0.750173
	Zn217	Zn	0.504255	0.010386	0.250399
	Zn218	Zn	0.754439	0.511035	0.000335
	Zn219	Zn	0.252712	0.508079	-0.001331
	Zn220	Zn	0.001549	0.756132	0.498510
	Zn221	Zn	0.004284	0.259873	0.499173
	Zn222	Zn	0.004187	0.507635	0.748578
	Zn223	Zn	0.003192	0.508449	0.249396
	Zn224	Zn	0.504774	0.761403	0.000098
	Zn225	Zn	0.501770	0.257569	0.000514
	Zn226	Zn	0.752253	0.007154	0.499306
	Zn227	Zn	0.254279	0.010247	0.498951
	N228	N	0.414400	0.974285	0.680621
	N229	N	0.589354	0.047572	0.676373
	N230	N	0.591264	0.973387	0.319530
	N231	N	0.418534	0.046499	0.321525
	N232	N	0.679366	0.427333	0.962513
	N233	N	0.685892	0.599740	0.036429
	N234	N	0.327652	0.592709	0.961777
	N235	N	0.321936	0.421008	0.036303
	N236	N	0.964937	0.682320	0.414849
	N237	N	0.039926	0.685974	0.584511
	N238	N	0.966282	0.330582	0.583959
	N239	N	0.041339	0.333636	0.414740
	N240	N	0.967461	0.418831	0.679936
	N241	N	0.040897	0.594256	0.676745
	N242	N	0.967253	0.595709	0.318561
	N243	N	0.039086	0.421956	0.319141
	N244	N	0.419313	0.687611	0.962801
	N245	N	0.591826	0.691794	0.036604
	N246	N	0.586913	0.332425	0.963137
	N247	N	0.414421	0.328145	0.036815
	N248	N	0.678386	0.970286	0.416114
	N249	N	0.681703	0.045668	0.584555
	N250	N	0.324494	0.972793	0.585009
	N251	N	0.328980	0.047968	0.415943
	N252	N	0.915547	0.472170	0.178549
	N253	N	0.090801	0.545227	0.178559
	N254	N	0.091071	0.471553	0.818965
	N255	N	0.918132	0.545276	0.819179
	N256	N	0.180229	0.925650	0.461457
	N257	N	0.184154	0.096939	0.536229
	N258	N	0.828444	0.089970	0.461215
	N259	N	0.820402	0.918018	0.535493
	N260	N	0.465108	0.183838	0.917617
	N261	N	0.539679	0.188225	0.086398
	N262	N	0.466771	0.832769	0.084932
	N263	N	0.542352	0.835042	0.914957
	N264	N	0.467374	0.922868	0.179871
	N265	N	0.540223	0.097316	0.179010
	N266	N	0.468677	0.099784	0.819008
	N267	N	0.540563	0.925153	0.820055
	N268	N	0.920209	0.184788	0.462121
	N269	N	0.092206	0.190911	0.535674
	N270	N	0.087108	0.831383	0.461050
	N271	N	0.914584	0.826400	0.535640
	N272	N	0.179042	0.470162	0.915083
	N273	N	0.180761	0.546168	0.083559
	N274	N	0.825079	0.472782	0.084929
	N275	N	0.829103	0.548478	0.915476
	O276	O	-0.038541	0.032136	-0.046721
	H277	H	-0.021185	0.034859	-0.046383
	H278	H	-0.043400	0.028848	-0.047457
	O279	O	0.480103	0.533013	0.606194
	H280	H	0.491216	0.534159	0.609094
	H281	H	0.486490	0.549357	0.598035
	O282	O	0.735696	0.723949	0.891219
	H283	H	0.756990	0.730548	0.905292
	H284	H	0.743819	0.731818	0.884879
	O285	O	1.011564	0.053207	1.035588
	H286	H	1.010753	0.045378	1.022648
	H287	H	1.015153	0.050348	1.030997
	O288	O	1.100918	-0.030147	-0.029826
	H289	H	1.103881	-0.027958	-0.025700
	H290	H	1.102334	-0.035330	-0.021055
	O291	O	0.514290	0.580336	0.512629
	H292	H	0.507231	0.581672	0.508485
	H293	H	0.511247	0.576013	0.516710
	O294	O	1.092327	-0.029587	0.998049
	H295	H	1.096299	-0.025672	0.983945
	H296	H	1.084934	-0.027687	1.009732
	O297	O	-0.113322	-0.067902	0.052327
	H298	H	-0.126732	-0.081436	0.055132
	H299	H	-0.105363	-0.072490	0.070784
	O300	O	0.545050	0.473837	0.509725
	H301	H	0.550265	0.476207	0.519736
	H302	H	0.548240	0.473341	0.517879
	O303	O	1.007913	0.062527	0.004778
	H304	H	1.013502	0.069849	0.006163
	H305	H	1.011848	0.072526	0.004647
	O306	O	1.015476	0.021242	-0.083701
	H307	H	1.012662	0.029449	-0.091845
	H308	H	1.014289	0.017268	-0.082460
	O309	O	0.003627	0.004515	0.857106
	H310	H	-0.000943	0.010234	0.861100
	H311	H	0.004847	0.003888	0.858325
	O312	O	0.986346	0.926387	1.043767
	H313	H	0.997539	0.921182	1.035978
	H314	H	0.985631	0.930475	1.039750
	O315	O	0.520680	0.534599	0.494682
	H316	H	0.521139	0.526244	0.496982
	H317	H	0.525576	0.531828	0.488432
	O318	O	0.480603	0.517215	0.530487
	H319	H	0.481971	0.509393	0.521792
	H320	H	0.479183	0.502444	0.532900
	O321	O	0.009917	1.032334	1.022813
	H322	H	0.004778	1.049905	1.027236
	H323	H	0.009994	1.021738	1.009213
	O324	O	0.078716	0.011835	-0.053347
	H325	H	0.085209	0.009759	-0.068006
	H326	H	0.084330	0.008578	-0.065106
	O327	O	0.035691	0.029377	1.117702
	H328	H	0.034911	0.032080	1.104070
	H329	H	0.036262	0.021283	1.121367
	O330	O	1.010532	0.928238	0.001672
	H331	H	0.991019	0.935535	-0.011806
	H332	H	1.009475	0.928871	0.002921
	O333	O	0.464418	0.485365	0.503448
	H334	H	0.462185	0.495618	0.504636
	H335	H	0.468597	0.481534	0.510492
	O336	O	0.495684	0.483210	0.576835
	H337	H	0.493665	0.495576	0.578928
	H338	H	0.491445	0.475522	0.582482
	O339	O	0.925111	1.023051	0.004917
	H340	H	0.926747	1.030275	0.020881
	H341	H	0.927188	1.019792	0.013613
	O342	O	0.476585	0.501100	0.532044
	H343	H	0.474093	0.500004	0.531474
	H344	H	0.479004	0.500831	0.526449
	O345	O	0.509108	0.518844	0.593360
	H346	H	0.506852	0.513026	0.589945
	H347	H	0.514414	0.528262	0.601100
	O348	O	0.094958	0.064716	0.096589
	H349	H	0.099628	0.060834	0.103975
	H350	H	0.092922	0.062386	0.111094
	O351	O	-0.031505	1.007176	0.877532
	H352	H	-0.037823	0.995979	0.872732
	H353	H	-0.020233	0.996641	0.880533
	O354	O	0.510830	0.472480	0.497147
	H355	H	0.513045	0.484150	0.503123
	H356	H	0.501201	0.475274	0.496240
	O357	O	-0.099702	1.031687	0.888736
	H358	H	-0.113113	1.026058	0.888205
	H359	H	-0.102169	1.029150	0.894145
