data_Molecule from HDF5

_cell_length_a		16.168309
_cell_length_b		16.195194
_cell_length_c		16.246221
_cell_angle_alpha	89.747426
_cell_angle_beta	90.196402
_cell_angle_gamma	90.360236
_symmetry_space_group_name_H-M	'P 1'
_symmetry_Int_Tables_number		1

loop_
	_symmetry_equiv_pos_as_xyz
	x,y,z

loop_
	_atom_site_label
	_atom_site_type_symbol
	_atom_site_fract_x
	_atom_site_fract_y
	_atom_site_fract_z
	H0	H	0.418876	0.842738	0.701794
	H1	H	0.617307	0.172421	0.703511
	H2	H	0.616591	0.843794	0.275605
	H3	H	0.421402	0.171897	0.273930
	H4	H	0.729120	0.411458	0.824029
	H5	H	0.733634	0.606954	0.152068
	H6	H	0.303303	0.605353	0.825010
	H7	H	0.302983	0.407218	0.152815
	H8	H	0.853227	0.722900	0.387206
	H9	H	0.181996	0.723258	0.585942
	H10	H	0.853702	0.291778	0.586780
	H11	H	0.183559	0.299322	0.392236
	H12	H	0.852595	0.406803	0.701862
	H13	H	0.181285	0.609739	0.703456
	H14	H	0.852701	0.608032	0.272169
	H15	H	0.181498	0.411283	0.274562
	H16	H	0.418563	0.721326	0.824937
	H17	H	0.617671	0.721028	0.152633
	H18	H	0.614560	0.294393	0.824363
	H19	H	0.419217	0.292858	0.153422
	H20	H	0.730177	0.842806	0.393138
	H21	H	0.732711	0.173747	0.586857
	H22	H	0.303530	0.844105	0.586510
	H23	H	0.306959	0.173582	0.389546
	H24	H	0.916453	0.344611	0.203374
	H25	H	0.117653	0.672403	0.201841
	H26	H	0.113696	0.343492	0.774778
	H27	H	0.919230	0.673026	0.772794
	H28	H	0.230461	0.913430	0.323622
	H29	H	0.234357	0.108028	0.652681
	H30	H	0.803210	0.108340	0.325007
	H31	H	0.805383	0.908034	0.652687
	H32	H	0.351896	0.219505	0.889919
	H33	H	0.681000	0.223117	0.088315
	H34	H	0.352702	0.791225	0.088113
	H35	H	0.682054	0.796056	0.893305
	H36	H	0.353854	0.906187	0.204539
	H37	H	0.683006	0.105906	0.202087
	H38	H	0.352930	0.105177	0.774212
	H39	H	0.682208	0.908269	0.776915
	H40	H	0.920713	0.221675	0.324380
	H41	H	0.118420	0.222529	0.652965
	H42	H	0.116466	0.796081	0.323590
	H43	H	0.918253	0.790832	0.650955
	H44	H	0.227838	0.342127	0.892175
	H45	H	0.233857	0.671415	0.087221
	H46	H	0.803969	0.343575	0.086124
	H47	H	0.803243	0.672667	0.887501
	H48	H	0.430030	0.123146	0.575661
	H49	H	0.612690	0.887423	0.591688
	H50	H	0.614361	0.125241	0.401170
	H51	H	0.432808	0.891158	0.391425
	H52	H	0.619295	0.413952	0.108165
	H53	H	0.610958	0.598389	0.871857
	H54	H	0.418733	0.596791	0.107828
	H55	H	0.424239	0.397708	0.867680
	H56	H	0.135205	0.600325	0.392984
	H57	H	0.895636	0.618731	0.571104
	H58	H	0.132232	0.427215	0.583310
	H59	H	0.895123	0.412447	0.384360
	H60	H	0.140589	0.412019	0.592007
	H61	H	0.908159	0.583373	0.567790
	H62	H	0.136383	0.605604	0.392895
	H63	H	0.899104	0.406128	0.402623
	H64	H	0.429889	0.594597	0.104209
	H65	H	0.606267	0.603327	0.871808
	H66	H	0.606848	0.421503	0.102613
	H67	H	0.407792	0.420109	0.868718
	H68	H	0.614352	0.128450	0.390630
	H69	H	0.605005	0.893330	0.581841
	H70	H	0.418554	0.129132	0.583553
	H71	H	0.423224	0.893464	0.407265
	H72	H	0.927586	0.623671	0.076202
	H73	H	0.111439	0.388854	0.085920
	H74	H	0.107014	0.622090	0.901635
	H75	H	0.920734	0.391376	0.895862
	H76	H	0.104412	0.916299	0.603354
	H77	H	0.124265	0.098308	0.370092
	H78	H	0.925103	0.100086	0.606841
	H79	H	0.921247	0.905586	0.366503
	H80	H	0.634290	0.099345	0.898651
	H81	H	0.393688	0.095979	0.103321
	H82	H	0.636190	0.910206	0.081597
	H83	H	0.401813	0.923777	0.893527
	H84	H	0.633216	0.917567	0.080312
	H85	H	0.395611	0.117809	0.072124
	H86	H	0.635836	0.101154	0.893156
	H87	H	0.394405	0.907514	0.887372
	H88	H	0.927759	0.099254	0.605530
	H89	H	0.101860	0.098449	0.374934
	H90	H	0.112788	0.910227	0.607214
	H91	H	0.915870	0.924392	0.371456
	H92	H	0.119987	0.627663	0.895414
	H93	H	0.104817	0.390723	0.084840
	H94	H	0.920751	0.628140	0.080332
	H95	H	0.921988	0.389257	0.892583
	H96	H	0.432452	0.126486	0.590307
	H97	H	0.617665	0.889933	0.579503
	H98	H	0.605725	0.123444	0.395509
	H99	H	0.415172	0.886151	0.391908
	H100	H	0.605091	0.407481	0.106775
	H101	H	0.612858	0.603807	0.869862
	H102	H	0.426794	0.606570	0.107942
	H103	H	0.433779	0.421596	0.876918
	H104	H	0.133965	0.602664	0.397427
	H105	H	0.894538	0.596578	0.600026
	H106	H	0.134546	0.410814	0.573736
	H107	H	0.902980	0.424821	0.397840
	H108	H	0.928626	0.626985	0.084416
	H109	H	0.109491	0.391021	0.079045
	H110	H	0.106698	0.627175	0.886881
	H111	H	0.925353	0.391363	0.895137
	H112	H	0.114509	0.920189	0.604720
	H113	H	0.112972	0.118187	0.367431
	H114	H	0.927025	0.101754	0.605671
	H115	H	0.934709	0.918772	0.374868
	H116	H	0.635565	0.104977	0.897934
	H117	H	0.408264	0.082080	0.071069
	H118	H	0.636379	0.915965	0.087392
	H119	H	0.400019	0.909598	0.904602
	C120	C	0.397309	0.016995	0.610819
	C121	C	0.640717	0.999333	0.612251
	C122	C	0.639768	0.016718	0.368123
	C123	C	0.396799	0.999335	0.367829
	C124	C	0.638287	0.386327	-0.002710
	C125	C	0.639507	0.630009	0.979773
	C126	C	0.396211	0.628260	-0.001871
	C127	C	0.394400	0.384521	0.980084
	C128	C	0.026051	0.630841	0.365548
	C129	C	1.008648	0.628990	0.608212
	C130	C	0.026784	0.386562	0.610806
	C131	C	1.008437	0.387403	0.367112
	C132	C	0.895832	0.517465	0.109185
	C133	C	0.138934	0.498758	0.111036
	C134	C	0.138704	0.516575	0.866784
	C135	C	0.894692	0.499727	0.865453
	C136	C	0.139189	0.887650	0.496493
	C137	C	0.141566	0.132172	0.479758
	C138	C	0.897479	0.129694	0.497258
	C139	C	0.895869	0.886318	0.479338
	C140	C	0.526033	0.129159	0.867631
	C141	C	0.508468	0.128002	0.110459
	C142	C	0.526430	0.884998	0.111424
	C143	C	0.508223	0.885870	0.868069
	C144	C	0.398457	0.892549	0.665004
	C145	C	0.638277	0.123468	0.666328
	C146	C	0.636934	0.892658	0.313741
	C147	C	0.400388	0.122987	0.311614
	C148	C	0.692263	0.390053	0.873280
	C149	C	0.695380	0.627257	0.103058
	C150	C	0.341060	0.625740	0.874106
	C151	C	0.340559	0.386833	0.103996
	C152	C	0.902144	0.685118	0.367340
	C153	C	0.132785	0.684961	0.606077
	C154	C	0.902666	0.330148	0.607458
	C155	C	0.133472	0.335083	0.371108
	C156	C	0.902022	0.387555	0.664435
	C157	C	0.132366	0.628721	0.664554
	C158	C	0.901848	0.627964	0.310219
	C159	C	0.132556	0.390995	0.312634
	C160	C	0.398391	0.683387	0.874096
	C161	C	0.637885	0.684142	0.103285
	C162	C	0.635290	0.331958	0.873510
	C163	C	0.397870	0.329758	0.104016
	C164	C	0.693464	0.892295	0.372061
	C165	C	0.695523	0.123892	0.608414
	C166	C	0.341011	0.893169	0.607577
	C167	C	0.343811	0.123993	0.369564
	C168	C	0.897129	0.393605	0.164938
	C169	C	0.137380	0.623178	0.164392
	C170	C	0.134850	0.392791	0.811961
	C171	C	0.897860	0.623440	0.809875
	C172	C	0.193407	0.891853	0.372835
	C173	C	0.196544	0.128608	0.603704
	C174	C	0.841345	0.128197	0.374176
	C175	C	0.842266	0.888015	0.603170
	C176	C	0.401379	0.182196	0.870174
	C177	C	0.632304	0.184389	0.108499
	C178	C	0.402320	0.829226	0.108664
	C179	C	0.632764	0.832645	0.871982
	C180	C	0.402749	0.886109	0.166671
	C181	C	0.633100	0.126109	0.164988
	C182	C	0.402028	0.125570	0.812257
	C183	C	0.632552	0.888339	0.813958
	C184	C	0.899631	0.184794	0.373815
	C185	C	0.139111	0.185795	0.603606
	C186	C	0.136617	0.833585	0.372737
	C187	C	0.898527	0.829767	0.602467
	C188	C	0.191423	0.391816	0.870711
	C189	C	0.195437	0.622458	0.107745
	C190	C	0.841183	0.393074	0.106563
	C191	C	0.840876	0.623527	0.867593
	C192	C	0.420287	0.103815	0.589397
	C193	C	0.618470	0.912755	0.590686
	C194	C	0.618007	0.103266	0.389461
	C195	C	0.417480	0.912701	0.390183
	C196	C	0.616780	0.407937	0.083515
	C197	C	0.616620	0.608290	0.893644
	C198	C	0.418495	0.605926	0.084373
	C199	C	0.415628	0.406543	0.893576
	C200	C	0.112909	0.609086	0.387663
	C201	C	0.921997	0.606332	0.585958
	C202	C	0.113424	0.409773	0.589325
	C203	C	0.921516	0.408300	0.388543
	C204	C	0.918813	0.603936	0.087068
	C205	C	0.115527	0.412426	0.089470
	C206	C	0.117636	0.603237	0.888355
	C207	C	0.916048	0.413152	0.887829
	C208	C	0.117177	0.909118	0.582846
	C209	C	0.119621	0.111155	0.393135
	C210	C	0.920045	0.106990	0.583739
	C211	C	0.917592	0.909343	0.393135
	C212	C	0.612898	0.108043	0.890076
	C213	C	0.421707	0.105142	0.088631
	C214	C	0.612933	0.907967	0.089614
	C215	C	0.421421	0.907244	0.889137
	Zn216	Zn	0.517854	0.007317	0.740022
	Zn217	Zn	0.517898	0.007319	0.239297
	Zn218	Zn	0.767446	0.508331	-0.011790
	Zn219	Zn	0.267270	0.506603	-0.010880
	Zn220	Zn	0.017724	0.758328	0.487220
	Zn221	Zn	0.018499	0.259158	0.488817
	Zn222	Zn	0.016728	0.508693	0.737597
	Zn223	Zn	0.016799	0.508794	0.238313
	Zn224	Zn	0.517424	0.757482	-0.010767
	Zn225	Zn	0.516821	0.256763	-0.011020
	Zn226	Zn	0.768633	0.008346	0.489383
	Zn227	Zn	0.268462	0.009460	0.488526
	N228	N	0.432691	0.970506	0.667168
	N229	N	0.604990	0.045076	0.669071
	N230	N	0.604240	0.970892	0.311107
	N231	N	0.432687	0.044505	0.310423
	N232	N	0.694439	0.423044	0.951250
	N233	N	0.696647	0.594314	0.025187
	N234	N	0.339530	0.592339	0.952191
	N235	N	0.338114	0.420030	0.025987
	N236	N	0.980302	0.687148	0.400899
	N237	N	0.054877	0.685162	0.571625
	N238	N	0.981041	0.329457	0.574861
	N239	N	0.055357	0.332729	0.404335
	N240	N	0.980167	0.421874	0.666712
	N241	N	0.054214	0.594603	0.666015
	N242	N	0.980047	0.595075	0.308911
	N243	N	0.053876	0.422821	0.310013
	N244	N	0.431953	0.685155	0.952167
	N245	N	0.603882	0.685964	0.025668
	N246	N	0.602687	0.329276	0.951582
	N247	N	0.430816	0.328367	0.026009
	N248	N	0.695181	0.970382	0.405192
	N249	N	0.697449	0.045656	0.575809
	N250	N	0.340039	0.971662	0.574610
	N251	N	0.341345	0.046108	0.403596
	N252	N	0.930662	0.471920	0.166622
	N253	N	0.102986	0.545164	0.166737
	N254	N	0.102680	0.471353	0.809444
	N255	N	0.930737	0.545479	0.808592
	N256	N	0.195066	0.924772	0.450803
	N257	N	0.198317	0.095999	0.525654
	N258	N	0.839912	0.094729	0.452137
	N259	N	0.840648	0.922545	0.525705
	N260	N	0.479557	0.184454	0.903912
	N261	N	0.553950	0.185529	0.075418
	N262	N	0.480301	0.828337	0.075247
	N263	N	0.554547	0.831077	0.905125
	N264	N	0.480968	0.920174	0.168589
	N265	N	0.554876	0.091899	0.166526
	N266	N	0.480581	0.093318	0.810544
	N267	N	0.554063	0.920729	0.811180
	N268	N	0.934134	0.185445	0.451496
	N269	N	0.105753	0.188284	0.525602
	N270	N	0.103577	0.830966	0.450744
	N271	N	0.931196	0.828698	0.524365
	N272	N	0.194134	0.469799	0.903858
	N273	N	0.196309	0.544217	0.075282
	N274	N	0.840353	0.470981	0.072573
	N275	N	0.838866	0.545553	0.901554
	O276	O	0.993226	0.957041	0.066864
	H277	H	0.993741	0.954923	0.069747
	H278	H	1.000001	0.948455	0.076389
	O279	O	-0.013569	0.074462	0.936762
	H280	H	-0.007551	0.083185	0.928404
	H281	H	-0.017534	0.087535	0.940389
	O282	O	0.047429	0.039301	-0.013534
	H283	H	0.037221	0.049679	-0.016386
	H284	H	0.055971	0.042004	-0.012436
	O285	O	0.467960	0.514300	0.514924
	H286	H	0.469425	0.520034	0.521670
	H287	H	0.464535	0.517636	0.514334
	O288	O	-1.064387	-1.031543	0.024448
	H289	H	-1.072156	-1.038944	0.030031
	H290	H	-1.065512	-1.030744	0.017048
	O291	O	0.015294	0.969094	-0.003223
	H292	H	0.008490	0.959637	-0.000346
	H293	H	0.020487	0.976843	-0.006061
	O294	O	-0.028137	1.019304	-0.081597
	H295	H	-0.026320	1.020694	-0.073722
	H296	H	-0.042358	1.021355	-0.088427
	O297	O	0.514355	0.534978	0.519336
	H298	H	0.507504	0.518639	0.513228
	H299	H	0.516473	0.531571	0.512390
	O300	O	0.481847	0.581694	0.441996
	H301	H	0.473810	0.591530	0.438115
	H302	H	0.476722	0.582993	0.442865
	O303	O	1.011663	0.011794	0.987259
	H304	H	1.009115	0.015319	0.986675
	H305	H	1.007662	0.010393	0.989558
	O306	O	0.012012	1.015368	0.952333
	H307	H	0.017202	1.015468	0.954336
	H308	H	0.018929	1.004533	0.955225
	O309	O	0.038770	0.950626	1.006618
	H310	H	0.033977	0.947568	1.001796
	H311	H	0.041866	0.942377	1.003058
	O312	O	0.020263	-0.008348	0.936926
	H313	H	0.016236	-0.007773	0.934262
	H314	H	0.023896	-0.014518	0.941940
	O315	O	0.512301	0.551173	0.526662
	H316	H	0.506958	0.544769	0.532991
	H317	H	0.514158	0.550151	0.522258
	O318	O	0.028360	0.032593	1.060721
	H319	H	0.030235	0.045159	1.065606
	H320	H	0.032432	0.021058	1.058757
	O321	O	0.481694	0.611346	0.455536
	H322	H	0.477498	0.608430	0.455676
	H323	H	0.476093	0.614943	0.464166
	O324	O	0.395518	-0.499324	1.508584
	H325	H	0.394722	-0.506561	1.508347
	H326	H	0.394765	-0.488849	1.500502
	O327	O	0.958270	1.039687	0.969754
	H328	H	0.953761	1.043933	0.968597
	H329	H	0.963032	1.042583	0.967547
	O330	O	-0.063993	0.040442	0.969941
	H331	H	-0.062534	0.045638	0.953729
	H332	H	-0.065343	0.045797	0.970699
	O333	O	0.499862	0.510942	0.507703
	H334	H	0.506887	0.512368	0.514465
	H335	H	0.505344	0.517640	0.499088
	O336	O	0.514088	0.526913	0.535102
	H337	H	0.518386	0.527740	0.531624
	H338	H	0.510252	0.523526	0.533516
	O339	O	0.536671	0.514681	0.523784
	H340	H	0.525952	0.506209	0.529485
	H341	H	0.549504	0.516101	0.524975
	O342	O	0.553082	0.516164	0.513540
	H343	H	0.551668	0.523624	0.523134
	H344	H	0.553402	0.510943	0.508621
	O345	O	0.435450	0.475087	0.448204
	H346	H	0.439131	0.470185	0.444816
	H347	H	0.434837	0.475852	0.453287
