data_Molecule from HDF5

_cell_length_a		16.407923
_cell_length_b		16.340248
_cell_length_c		16.521813
_cell_angle_alpha	90.233257
_cell_angle_beta	90.004084
_cell_angle_gamma	89.977755
_symmetry_space_group_name_H-M	'P 1'
_symmetry_Int_Tables_number		1

loop_
	_symmetry_equiv_pos_as_xyz
	x,y,z

loop_
	_atom_site_label
	_atom_site_type_symbol
	_atom_site_fract_x
	_atom_site_fract_y
	_atom_site_fract_z
	H0	H	0.385846	0.850803	0.746112
	H1	H	0.606737	0.163228	0.744694
	H2	H	0.606507	0.849960	0.293522
	H3	H	0.385880	0.163978	0.296216
	H4	H	0.720505	0.394687	0.861897
	H5	H	0.724673	0.618383	0.170868
	H6	H	0.270544	0.614732	0.861884
	H7	H	0.268450	0.397158	0.173089
	H8	H	0.838380	0.726164	0.414044
	H9	H	0.153912	0.727659	0.625955
	H10	H	0.837281	0.285080	0.620585
	H11	H	0.151290	0.278197	0.406785
	H12	H	0.839481	0.394243	0.741513
	H13	H	0.152398	0.614932	0.743975
	H14	H	0.838739	0.613132	0.295742
	H15	H	0.151698	0.392466	0.289879
	H16	H	0.381757	0.735369	0.864932
	H17	H	0.605194	0.732301	0.173475
	H18	H	0.605305	0.278001	0.863655
	H19	H	0.389366	0.286190	0.176935
	H20	H	0.715359	0.846591	0.415173
	H21	H	0.719479	0.163696	0.627356
	H22	H	0.270977	0.849542	0.630954
	H23	H	0.271623	0.163674	0.412322
	H24	H	0.886205	0.349017	0.240933
	H25	H	0.104373	0.663017	0.241492
	H26	H	0.105432	0.348431	0.790672
	H27	H	0.884972	0.661774	0.791788
	H28	H	0.223853	0.893340	0.365306
	H29	H	0.221147	0.117496	0.674314
	H30	H	0.768161	0.114416	0.363856
	H31	H	0.772607	0.897999	0.676166
	H32	H	0.336541	0.226895	0.915315
	H33	H	0.652851	0.230687	0.127806
	H34	H	0.339235	0.780785	0.130318
	H35	H	0.651436	0.780613	0.910499
	H36	H	0.341748	0.894077	0.247948
	H37	H	0.651163	0.120340	0.247198
	H38	H	0.340109	0.118473	0.792747
	H39	H	0.651868	0.896404	0.795717
	H40	H	0.886714	0.226948	0.360311
	H41	H	0.105869	0.234937	0.672445
	H42	H	0.102752	0.782494	0.361850
	H43	H	0.888471	0.781180	0.675457
	H44	H	0.218969	0.347298	0.907452
	H45	H	0.216548	0.664640	0.123736
	H46	H	0.773168	0.347847	0.122736
	H47	H	0.770412	0.662295	0.907808
	H48	H	0.413747	0.114661	0.599787
	H49	H	0.583127	0.890190	0.614396
	H50	H	0.584317	0.118306	0.438902
	H51	H	0.418966	0.894484	0.426790
	H52	H	0.584348	0.416324	0.130479
	H53	H	0.584746	0.591767	0.905844
	H54	H	0.411621	0.595715	0.128851
	H55	H	0.407555	0.416781	0.905988
	H56	H	0.111888	0.592662	0.424893
	H57	H	0.882641	0.592648	0.606595
	H58	H	0.107261	0.421972	0.604067
	H59	H	0.881608	0.419963	0.422445
	H60	H	0.107775	0.419788	0.601696
	H61	H	0.883503	0.593513	0.605345
	H62	H	0.110211	0.595800	0.431961
	H63	H	0.882138	0.412930	0.430334
	H64	H	0.403111	0.595577	0.131711
	H65	H	0.577859	0.588677	0.909028
	H66	H	0.587071	0.422804	0.130239
	H67	H	0.407292	0.417039	0.905702
	H68	H	0.587496	0.122336	0.428812
	H69	H	0.577049	0.895557	0.605666
	H70	H	0.402229	0.120666	0.605500
	H71	H	0.413884	0.898677	0.442031
	H72	H	0.911533	0.618849	0.104012
	H73	H	0.089213	0.389193	0.107252
	H74	H	0.081620	0.616937	0.932958
	H75	H	0.909147	0.393289	0.928643
	H76	H	0.083224	0.916452	0.631926
	H77	H	0.088194	0.087837	0.406451
	H78	H	0.905690	0.089723	0.628559
	H79	H	0.904428	0.916986	0.406423
	H80	H	0.605474	0.085908	0.931047
	H81	H	0.383793	0.093509	0.108152
	H82	H	0.607450	0.922385	0.107554
	H83	H	0.383014	0.920645	0.932526
	H84	H	0.607956	0.919117	0.106975
	H85	H	0.382955	0.093070	0.108647
	H86	H	0.610886	0.094913	0.926298
	H87	H	0.383890	0.922515	0.933306
	H88	H	0.913444	0.094794	0.628386
	H89	H	0.079311	0.085605	0.410475
	H90	H	0.085969	0.918101	0.631935
	H91	H	0.907693	0.918394	0.407666
	H92	H	0.084059	0.619432	0.928787
	H93	H	0.074827	0.393323	0.108910
	H94	H	0.908110	0.618844	0.104640
	H95	H	0.908963	0.392524	0.928639
	H96	H	0.414472	0.120279	0.612756
	H97	H	0.588110	0.892362	0.604141
	H98	H	0.576812	0.118323	0.430616
	H99	H	0.403349	0.891119	0.431651
	H100	H	0.580217	0.421557	0.127289
	H101	H	0.578382	0.596539	0.906364
	H102	H	0.406535	0.588049	0.128018
	H103	H	0.407092	0.416836	0.906696
	H104	H	0.108176	0.588349	0.430709
	H105	H	0.883961	0.591668	0.605952
	H106	H	0.106392	0.422730	0.601276
	H107	H	0.886235	0.422942	0.431113
	H108	H	0.910375	0.619316	0.106797
	H109	H	0.081935	0.395112	0.095775
	H110	H	0.079417	0.617236	0.928252
	H111	H	0.909405	0.391885	0.928450
	H112	H	0.083533	0.919815	0.630426
	H113	H	0.080945	0.094978	0.407013
	H114	H	0.905854	0.098432	0.632796
	H115	H	0.907417	0.914948	0.406994
	H116	H	0.607856	0.095251	0.937821
	H117	H	0.383261	0.094110	0.108274
	H118	H	0.607259	0.921113	0.104539
	H119	H	0.383560	0.922637	0.931592
	C120	C	0.375316	0.014924	0.641109
	C121	C	0.617122	0.997056	0.641450
	C122	C	0.616998	0.015179	0.398769
	C123	C	0.375871	0.998281	0.398863
	C124	C	0.617322	0.384639	0.026321
	C125	C	0.616382	0.627659	1.009286
	C126	C	0.372417	0.628356	0.027173
	C127	C	0.373538	0.384106	1.009688
	C128	C	0.005362	0.626004	0.397137
	C129	C	0.986889	0.627126	0.640139
	C130	C	0.003971	0.385883	0.636626
	C131	C	0.986329	0.382708	0.393626
	C132	C	0.875418	0.514762	0.137851
	C133	C	0.116514	0.496740	0.138182
	C134	C	0.116544	0.513868	0.895187
	C135	C	0.873996	0.496322	0.894390
	C136	C	0.118442	0.883427	0.528539
	C137	C	0.117265	0.126588	0.510116
	C138	C	0.873621	0.126950	0.526690
	C139	C	0.873897	0.883670	0.510747
	C140	C	0.504444	0.127248	0.898197
	C141	C	0.486904	0.128389	0.142147
	C142	C	0.504853	0.885364	0.141201
	C143	C	0.486611	0.886116	0.898460
	C144	C	0.369502	0.897640	0.704646
	C145	C	0.622701	0.115888	0.703546
	C146	C	0.622731	0.896940	0.335438
	C147	C	0.369623	0.116258	0.336739
	C148	C	0.679653	0.378052	0.909089
	C149	C	0.682222	0.634701	0.124895
	C150	C	0.310162	0.633049	0.909623
	C151	C	0.310467	0.380241	0.126802
	C152	C	0.885953	0.686444	0.395486
	C153	C	0.106085	0.688285	0.643885
	C154	C	0.884957	0.324506	0.639553
	C155	C	0.104084	0.318914	0.389170
	C156	C	0.886434	0.379325	0.699775
	C157	C	0.105236	0.631929	0.702675
	C158	C	0.886354	0.630164	0.336272
	C159	C	0.104187	0.376298	0.330912
	C160	C	0.365857	0.693210	0.911198
	C161	C	0.622542	0.691208	0.126344
	C162	C	0.621937	0.319955	0.909981
	C163	C	0.370388	0.324566	0.128782
	C164	C	0.676805	0.895104	0.396086
	C165	C	0.679169	0.116021	0.645090
	C166	C	0.311991	0.897071	0.647169
	C167	C	0.312197	0.115971	0.394620
	C168	C	0.870009	0.396132	0.199517
	C169	C	0.121550	0.615675	0.200659
	C170	C	0.122150	0.395595	0.831964
	C171	C	0.868470	0.614409	0.832370
	C172	C	0.182034	0.877270	0.411647
	C173	C	0.180282	0.134073	0.627197
	C174	C	0.810022	0.131110	0.410005
	C175	C	0.813030	0.880454	0.628981
	C176	C	0.384865	0.187989	0.896104
	C177	C	0.605145	0.190687	0.145673
	C178	C	0.387302	0.821351	0.147232
	C179	C	0.604290	0.821985	0.893441
	C180	C	0.388090	0.878398	0.205832
	C181	C	0.604393	0.135273	0.205223
	C182	C	0.386727	0.133827	0.835015
	C183	C	0.604678	0.879793	0.836253
	C184	C	0.869276	0.187518	0.408403
	C185	C	0.122927	0.192609	0.626150
	C186	C	0.121622	0.822104	0.409834
	C187	C	0.870535	0.822045	0.628472
	C188	C	0.178773	0.395201	0.890400
	C189	C	0.177359	0.616366	0.141840
	C190	C	0.813601	0.395587	0.140596
	C191	C	0.811040	0.614641	0.889989
	C192	C	0.402389	0.097207	0.613867
	C193	C	0.590514	0.914346	0.615524
	C194	C	0.590541	0.097929	0.425244
	C195	C	0.403925	0.916018	0.425741
	C196	C	0.591295	0.412381	0.108054
	C197	C	0.588420	0.600319	0.928349
	C198	C	0.399215	0.600945	0.108261
	C199	C	0.399835	0.409508	0.927752
	C200	C	0.088021	0.599799	0.421895
	C201	C	0.904835	0.600236	0.613647
	C202	C	0.085827	0.413531	0.609851
	C203	C	0.904636	0.410608	0.420228
	C204	C	0.902249	0.597268	0.112322
	C205	C	0.089799	0.414256	0.111785
	C206	C	0.089599	0.596302	0.922114
	C207	C	0.901177	0.414035	0.920989
	C208	C	0.091904	0.910229	0.609939
	C209	C	0.090356	0.097863	0.429205
	C210	C	0.900622	0.101552	0.608517
	C211	C	0.899342	0.909340	0.428569
	C212	C	0.586637	0.099953	0.924419
	C213	C	0.404923	0.101048	0.116004
	C214	C	0.586386	0.912902	0.113971
	C215	C	0.404739	0.913722	0.924917
	Zn216	Zn	0.496189	0.006462	0.769499
	Zn217	Zn	0.496668	0.006903	0.270285
	Zn218	Zn	0.746658	0.506068	0.016266
	Zn219	Zn	0.244324	0.505724	0.016973
	Zn220	Zn	-0.003806	0.755035	0.518762
	Zn221	Zn	-0.005029	0.255676	0.517059
	Zn222	Zn	-0.004070	0.504954	0.766756
	Zn223	Zn	-0.003598	0.505863	0.266695
	Zn224	Zn	0.494847	0.757149	0.018796
	Zn225	Zn	0.495074	0.255750	0.019828
	Zn226	Zn	0.744782	0.005319	0.519907
	Zn227	Zn	0.247021	0.005567	0.520138
	N228	N	0.408126	0.972052	0.700842
	N229	N	0.584848	0.040892	0.701475
	N230	N	0.586208	0.972792	0.336860
	N231	N	0.408371	0.041801	0.339302
	N232	N	0.676952	0.417689	0.982487
	N233	N	0.678625	0.595778	0.051087
	N234	N	0.313887	0.593654	0.982907
	N235	N	0.311911	0.416363	0.051777
	N236	N	0.960907	0.684149	0.432460
	N237	N	0.031583	0.685486	0.605723
	N238	N	0.958960	0.328453	0.600824
	N239	N	0.029825	0.322683	0.427494
	N240	N	0.961477	0.416776	0.697993
	N241	N	0.030254	0.594686	0.700585
	N242	N	0.961542	0.593043	0.337169
	N243	N	0.029957	0.415253	0.333514
	N244	N	0.403587	0.690803	0.985449
	N245	N	0.582398	0.686990	0.053493
	N246	N	0.583888	0.323949	0.984076
	N247	N	0.408712	0.326766	0.054925
	N248	N	0.673608	0.969767	0.434461
	N249	N	0.675854	0.041145	0.607224
	N250	N	0.315599	0.971145	0.608110
	N251	N	0.316033	0.041276	0.432606
	N252	N	0.907626	0.471136	0.198036
	N253	N	0.084540	0.540212	0.198680
	N254	N	0.084359	0.470502	0.834790
	N255	N	0.906858	0.539639	0.835002
	N256	N	0.180411	0.914649	0.486235
	N257	N	0.176916	0.093630	0.554182
	N258	N	0.812517	0.094310	0.484513
	N259	N	0.814872	0.918106	0.554717
	N260	N	0.459141	0.184258	0.934563
	N261	N	0.530984	0.186567	0.107093
	N262	N	0.460914	0.825510	0.107806
	N263	N	0.529711	0.825436	0.931285
	N264	N	0.462170	0.917482	0.202450
	N265	N	0.529866	0.097184	0.203221
	N266	N	0.462145	0.097180	0.835932
	N267	N	0.530523	0.918789	0.839156
	N268	N	0.908229	0.184907	0.481957
	N269	N	0.084699	0.188374	0.552295
	N270	N	0.083016	0.825424	0.483604
	N271	N	0.907597	0.823902	0.554054
	N272	N	0.175574	0.469922	0.929004
	N273	N	0.174628	0.541335	0.103948
	N274	N	0.816584	0.470495	0.103026
	N275	N	0.814416	0.540090	0.927853
	O276	O	0.213237	0.017345	0.240116
	H277	H	0.198152	0.067007	0.225643
	H278	H	0.249493	0.026820	0.276870
	O279	O	1.017366	-0.206829	0.803425
	H280	H	0.995331	-0.213672	0.811194
	H281	H	1.004448	-0.219814	0.785819
	O282	O	0.781929	0.794574	1.033942
	H283	H	0.776867	0.776312	1.031277
	H284	H	0.778484	0.789576	1.060355
	O285	O	0.669243	0.680832	0.694638
	H286	H	0.648165	0.687689	0.687534
	H287	H	0.679313	0.674583	0.658369
	O288	O	1.071186	0.927573	0.221464
	H289	H	1.074573	0.931855	0.221137
	H290	H	1.088872	0.952472	0.230359
	O291	O	0.478143	0.714875	0.309486
	H292	H	0.493942	0.707309	0.283576
	H293	H	0.489060	0.703801	0.287635
	O294	O	-0.028578	-0.201525	1.227382
	H295	H	-0.036301	-0.215015	1.237378
	H296	H	-0.009004	-0.190629	1.235246
	O297	O	0.585799	0.310895	0.594912
	H298	H	0.567095	0.305678	0.625324
	H299	H	0.569527	0.332320	0.600065
	O300	O	0.442233	0.455192	0.308325
	H301	H	0.403523	0.462202	0.311286
	H302	H	0.437993	0.422166	0.309587
	O303	O	0.549203	0.450516	0.736890
	H304	H	0.565342	0.437495	0.738548
	H305	H	0.548718	0.426153	0.734902
	O306	O	0.814349	0.828289	0.194863
	H307	H	0.841592	0.823174	0.193513
	H308	H	0.804670	0.848968	0.198575
	O309	O	0.277349	0.436119	0.448022
	H310	H	0.282258	0.470776	0.464301
	H311	H	0.272998	0.461343	0.414794
	O312	O	-0.089879	1.083548	1.217311
	H313	H	-0.095412	1.066443	1.209147
	H314	H	-0.108722	1.075518	1.234026
	O315	O	0.469266	0.536671	0.667821
	H316	H	0.467916	0.522109	0.677073
	H317	H	0.445677	0.529662	0.646024
	O318	O	0.788216	0.206884	-0.003731
	H319	H	0.764728	0.227414	0.001733
	H320	H	0.801239	0.200232	0.021615
	O321	O	-0.025816	0.030554	0.104000
	H322	H	-0.007129	0.022307	0.123835
	H323	H	-0.023931	0.032283	0.088568
	O324	O	1.133378	0.053786	-0.027517
	H325	H	1.116256	0.050475	-0.028243
	H326	H	1.135730	0.057317	-0.036581
	O327	O	0.512819	0.724344	0.735539
	H328	H	0.518459	0.759344	0.777120
	H329	H	0.522719	0.691437	0.732066
	O330	O	0.696233	1.698085	-0.465401
	H331	H	0.712717	1.685671	-0.477739
	H332	H	0.696082	1.686342	-0.483381
	O333	O	0.510223	0.301598	0.319653
	H334	H	0.500351	0.274155	0.310193
	H335	H	0.493956	0.298840	0.343151
	O336	O	0.169656	0.171246	0.195949
	H337	H	0.183470	0.187731	0.146292
	H338	H	0.123216	0.174410	0.197515
	O339	O	-0.157734	1.191087	0.841443
	H340	H	-0.171266	1.201474	0.886426
	H341	H	-0.153489	1.157705	0.835524
	O342	O	-0.218957	1.042665	1.068863
	H343	H	-0.210506	1.052400	1.064356
	H344	H	-0.221995	1.015998	1.043218
	O345	O	0.291823	0.299672	-0.462192
	H346	H	0.271152	0.323361	-0.485238
	H347	H	0.270906	0.296849	-0.467309
	O348	O	0.698578	0.604916	0.411310
	H349	H	0.700732	0.582380	0.421929
	H350	H	0.692131	0.576708	0.398424
	O351	O	0.327229	1.330515	0.695464
	H352	H	0.314453	1.381044	0.703118
	H353	H	0.314137	1.318576	0.643089
	O354	O	0.210947	0.796793	0.001443
	H355	H	0.250814	0.765016	0.001493
	H356	H	0.216274	0.838262	0.024334
	O357	O	0.063130	0.061679	0.806970
	H358	H	0.089768	0.046041	0.803204
	H359	H	0.056326	0.078408	0.794605
	O360	O	0.425625	0.722562	0.582006
	H361	H	0.451517	0.726089	0.619544
	H362	H	0.461666	0.719265	0.558562
	O363	O	-0.329438	0.509737	0.291416
	H364	H	-0.288710	0.497717	0.262891
	H365	H	-0.349876	0.459938	0.303125
	O366	O	0.064085	-0.172786	1.053473
	H367	H	0.084495	-0.169925	1.048112
	H368	H	0.071238	-0.165247	1.063566
	O369	O	0.709852	0.472318	0.547288
	H370	H	0.709554	0.462215	0.553771
	H371	H	0.715629	0.459485	0.563728
	O372	O	0.782228	-0.012701	1.235117
	H373	H	0.759210	-0.028402	1.252587
	H374	H	0.766173	-0.006971	1.213279
	O375	O	0.687015	0.373081	0.324545
	H376	H	0.691046	0.353850	0.369513
	H377	H	0.656923	0.360345	0.309979
	O378	O	0.537974	0.709138	0.469129
	H379	H	0.534422	0.711701	0.433344
	H380	H	0.558522	0.693794	0.463978
	O381	O	1.005995	-0.007391	-0.023869
	H382	H	1.013012	-0.017604	-0.029222
	H383	H	1.002991	-0.006402	-0.023157
	O384	O	0.287266	0.491526	0.722460
	H385	H	0.302946	0.517277	0.709257
	H386	H	0.257170	0.487184	0.746918
	O387	O	0.390364	-0.377091	0.491407
	H388	H	0.391197	-0.365530	0.485516
	H389	H	0.403965	-0.358140	0.503234
	O390	O	-0.654446	-0.422081	-0.337226
	H391	H	-0.629654	-0.407187	-0.349703
	H392	H	-0.637790	-0.406190	-0.341673
	O393	O	1.060587	1.183814	0.990506
	H394	H	1.048945	1.186605	0.987361
	H395	H	1.049428	1.179844	0.968237
	O396	O	1.595900	0.482024	0.359842
	H397	H	1.612743	0.467784	0.368663
	H398	H	1.588851	0.445855	0.364476
	O399	O	0.813209	-0.096555	0.937713
	H400	H	0.816722	-0.089538	0.925294
	H401	H	0.808492	-0.122729	0.948484
	O402	O	0.958538	0.813969	0.954644
	H403	H	0.961117	0.809880	0.951919
	H404	H	0.969921	0.817545	0.984951
	O405	O	1.013795	1.216421	0.228922
	H406	H	1.017608	1.239300	0.248102
	H407	H	0.997955	1.204516	0.226040
	O408	O	1.198210	-0.026715	0.066665
	H409	H	1.196197	-0.008890	0.092632
	H410	H	1.192348	-0.003103	0.058722
	O411	O	0.789394	1.041543	-0.186781
	H412	H	0.785417	1.035980	-0.198566
	H413	H	0.801038	1.043215	-0.192844
	O414	O	0.316416	0.679281	0.338253
	H415	H	0.362905	0.694420	0.332254
	H416	H	0.307796	0.693324	0.387085
	O417	O	0.454775	0.289484	0.472376
	H418	H	0.430745	0.293968	0.485572
	H419	H	0.453831	0.293511	0.496252
	O420	O	0.690777	0.311109	0.451345
	H421	H	0.682276	0.297527	0.462658
	H422	H	0.677776	0.296993	0.480931
	O423	O	0.287245	0.635267	0.532103
	H424	H	0.307606	0.650851	0.551315
	H425	H	0.276010	0.665309	0.545736
	O426	O	0.484679	0.495397	0.519821
	H427	H	0.481300	0.500017	0.528121
	H428	H	0.506432	0.502181	0.507010
	O429	O	0.273970	0.522121	0.299105
	H430	H	0.241378	0.533865	0.268762
	H431	H	0.284123	0.570377	0.306518
	O432	O	0.710201	0.523514	0.735552
	H433	H	0.688980	0.547137	0.727792
	H434	H	0.745288	0.530933	0.772483
	O435	O	0.200356	1.208103	0.047304
	H436	H	0.208663	1.215867	0.029209
	H437	H	0.202759	1.225815	0.033772
	O438	O	0.209273	-0.009411	-0.194948
	H439	H	0.206637	-0.056672	-0.191121
	H440	H	0.233280	-0.017018	-0.206008
	O441	O	0.988374	0.201951	-0.182915
	H442	H	0.982494	0.210163	-0.196010
	H443	H	0.958100	0.185696	-0.184352
	O444	O	-0.095330	0.954677	0.825862
	H445	H	-0.078253	0.953147	0.849886
	H446	H	-0.077020	0.977189	0.808981
	O447	O	0.480585	0.286860	0.735965
	H448	H	0.441049	0.288191	0.727946
	H449	H	0.459729	0.261378	0.761499
	O450	O	0.918859	0.207226	0.081605
	H451	H	0.924685	0.188758	0.085140
	H452	H	0.907970	0.208233	0.087128
	O453	O	0.177379	-0.166107	0.844258
	H454	H	0.185142	-0.175301	0.895740
	H455	H	0.127967	-0.182797	0.831979
