data_Molecule from HDF5

_cell_length_a		16.199036
_cell_length_b		16.170873
_cell_length_c		16.272824
_cell_angle_alpha	89.324395
_cell_angle_beta	90.439692
_cell_angle_gamma	89.201802
_symmetry_space_group_name_H-M	'P 1'
_symmetry_Int_Tables_number		1

loop_
	_symmetry_equiv_pos_as_xyz
	x,y,z

loop_
	_atom_site_label
	_atom_site_type_symbol
	_atom_site_fract_x
	_atom_site_fract_y
	_atom_site_fract_z
	H0	H	0.418884	0.846569	0.706566
	H1	H	0.613193	0.174753	0.703125
	H2	H	0.618148	0.845368	0.278234
	H3	H	0.410124	0.172899	0.270936
	H4	H	0.731171	0.411489	0.825925
	H5	H	0.730346	0.604456	0.153784
	H6	H	0.297048	0.613305	0.828108
	H7	H	0.305132	0.410902	0.155146
	H8	H	0.852660	0.729357	0.388732
	H9	H	0.182309	0.718274	0.587776
	H10	H	0.851620	0.296916	0.589913
	H11	H	0.180995	0.295311	0.396971
	H12	H	0.851031	0.411297	0.705214
	H13	H	0.179536	0.605769	0.706287
	H14	H	0.852757	0.614346	0.271863
	H15	H	0.180710	0.407994	0.278168
	H16	H	0.411888	0.728661	0.827117
	H17	H	0.613531	0.719477	0.154850
	H18	H	0.614755	0.296816	0.825210
	H19	H	0.420865	0.294346	0.154028
	H20	H	0.733172	0.845894	0.394553
	H21	H	0.730191	0.174967	0.589295
	H22	H	0.308699	0.844254	0.589255
	H23	H	0.298619	0.172695	0.388314
	H24	H	0.918958	0.346127	0.207856
	H25	H	0.112092	0.675216	0.202731
	H26	H	0.116384	0.345494	0.779181
	H27	H	0.910051	0.672799	0.771910
	H28	H	0.231378	0.911709	0.325852
	H29	H	0.232133	0.105240	0.654441
	H30	H	0.798159	0.114407	0.327735
	H31	H	0.805002	0.909225	0.653979
	H32	H	0.351841	0.228730	0.887882
	H33	H	0.681106	0.218487	0.087535
	H34	H	0.349594	0.798003	0.088608
	H35	H	0.678904	0.793696	0.895356
	H36	H	0.350685	0.912232	0.204956
	H37	H	0.677818	0.109036	0.208068
	H38	H	0.351981	0.114827	0.770904
	H39	H	0.680623	0.909109	0.778693
	H40	H	0.914515	0.229598	0.327501
	H41	H	0.115464	0.220525	0.655418
	H42	H	0.116403	0.796555	0.325727
	H43	H	0.922453	0.795347	0.654042
	H44	H	0.232565	0.346171	0.894191
	H45	H	0.226569	0.675347	0.087305
	H46	H	0.807886	0.344049	0.089040
	H47	H	0.797647	0.672967	0.888259
	H48	H	0.431495	0.126999	0.585133
	H49	H	0.629787	0.889186	0.577403
	H50	H	0.610235	0.127557	0.398593
	H51	H	0.430814	0.890945	0.389981
	H52	H	0.620142	0.420272	0.106561
	H53	H	0.598913	0.609501	0.873048
	H54	H	0.423306	0.599920	0.106910
	H55	H	0.427164	0.414545	0.872932
	H56	H	0.133615	0.607435	0.405100
	H57	H	0.899314	0.607872	0.575163
	H58	H	0.132747	0.411000	0.581455
	H59	H	0.901306	0.431063	0.395344
	H60	H	0.131949	0.421175	0.586928
	H61	H	0.900593	0.597398	0.581572
	H62	H	0.129875	0.590981	0.396920
	H63	H	0.894668	0.414428	0.390771
	H64	H	0.422732	0.606676	0.108420
	H65	H	0.614894	0.603845	0.870891
	H66	H	0.602644	0.415556	0.103267
	H67	H	0.416362	0.420012	0.871660
	H68	H	0.604050	0.129070	0.391684
	H69	H	0.609443	0.887571	0.605177
	H70	H	0.422633	0.124940	0.569796
	H71	H	0.429013	0.895201	0.405139
	H72	H	0.916367	0.631352	0.087675
	H73	H	0.108708	0.393888	0.085134
	H74	H	0.115401	0.630485	0.897927
	H75	H	0.921079	0.390075	0.899424
	H76	H	0.120013	0.908697	0.610164
	H77	H	0.111301	0.098037	0.375273
	H78	H	0.927626	0.099090	0.605595
	H79	H	0.911983	0.922878	0.370506
	H80	H	0.629464	0.101967	0.906625
	H81	H	0.399003	0.102707	0.077063
	H82	H	0.632610	0.921247	0.093083
	H83	H	0.396271	0.918581	0.894492
	H84	H	0.635683	0.903981	0.087177
	H85	H	0.398413	0.100710	0.082295
	H86	H	0.632138	0.092519	0.890690
	H87	H	0.398648	0.921071	0.900344
	H88	H	0.924640	0.106980	0.608451
	H89	H	0.100882	0.104267	0.375840
	H90	H	0.114260	0.920904	0.605055
	H91	H	0.931502	0.931388	0.378769
	H92	H	0.100504	0.629102	0.887765
	H93	H	0.113935	0.391610	0.084842
	H94	H	0.929727	0.625397	0.082449
	H95	H	0.926429	0.391197	0.893932
	H96	H	0.413878	0.131042	0.584309
	H97	H	0.596871	0.900707	0.574471
	H98	H	0.600836	0.124675	0.400359
	H99	H	0.416294	0.887751	0.396847
	H100	H	0.614150	0.402961	0.110200
	H101	H	0.603572	0.593639	0.878069
	H102	H	0.417880	0.602464	0.108973
	H103	H	0.424814	0.426501	0.875847
	H104	H	0.138168	0.604965	0.386908
	H105	H	0.896643	0.607139	0.587011
	H106	H	0.135618	0.411768	0.592605
	H107	H	0.901131	0.418104	0.407799
	H108	H	0.917645	0.626419	0.073658
	H109	H	0.111320	0.391288	0.089359
	H110	H	0.099727	0.623230	0.904834
	H111	H	0.928062	0.392815	0.901030
	H112	H	0.106525	0.908992	0.606458
	H113	H	0.110281	0.108565	0.372072
	H114	H	0.919526	0.099795	0.608151
	H115	H	0.930694	0.910026	0.371197
	H116	H	0.637691	0.110605	0.891671
	H117	H	0.396627	0.105955	0.081302
	H118	H	0.628393	0.916686	0.075024
	H119	H	0.399179	0.924679	0.895220
	C120	C	0.395862	0.018639	0.610339
	C121	C	0.639395	1.001510	0.613152
	C122	C	0.636405	0.018655	0.369493
	C123	C	0.394421	1.000140	0.367764
	C124	C	0.640151	0.385582	-0.001648
	C125	C	0.635407	0.629438	0.982202
	C126	C	0.391523	0.633270	-0.000320
	C127	C	0.395058	0.389774	0.981808
	C128	C	0.025435	0.632382	0.367111
	C129	C	1.007518	0.630465	0.610412
	C130	C	0.024612	0.387013	0.614509
	C131	C	1.007832	0.390246	0.370682
	C132	C	0.894960	0.518615	0.111320
	C133	C	0.138111	0.501357	0.113358
	C134	C	0.135952	0.518859	0.869398
	C135	C	0.893823	0.500161	0.868029
	C136	C	0.141199	0.885755	0.498691
	C137	C	0.137504	0.130511	0.482530
	C138	C	0.893526	0.133252	0.499395
	C139	C	0.896960	0.890536	0.481669
	C140	C	0.524709	0.132852	0.866604
	C141	C	0.506847	0.130489	0.110183
	C142	C	0.523353	0.886719	0.112990
	C143	C	0.506719	0.890409	0.869416
	C144	C	0.399590	0.895169	0.667438
	C145	C	0.635174	0.125519	0.666567
	C146	C	0.637467	0.894716	0.315416
	C147	C	0.392618	0.123943	0.310313
	C148	C	0.694279	0.389933	0.875011
	C149	C	0.691727	0.625159	0.105311
	C150	C	0.335210	0.632906	0.876653
	C151	C	0.342166	0.390921	0.105788
	C152	C	0.901809	0.690751	0.368311
	C153	C	0.132512	0.682158	0.608351
	C154	C	0.900577	0.333680	0.610846
	C155	C	0.131755	0.333283	0.375161
	C156	C	0.900415	0.390745	0.668161
	C157	C	0.131010	0.626403	0.667372
	C158	C	0.901660	0.633413	0.310577
	C159	C	0.131616	0.389519	0.316354
	C160	C	0.392368	0.690223	0.876330
	C161	C	0.633708	0.682606	0.105703
	C162	C	0.635997	0.333291	0.874386
	C163	C	0.399656	0.332773	0.105249
	C164	C	0.694730	0.894970	0.373117
	C165	C	0.693023	0.125459	0.609825
	C166	C	0.344351	0.894064	0.609247
	C167	C	0.336833	0.123837	0.368526
	C168	C	0.898730	0.395049	0.168801
	C169	C	0.133700	0.625779	0.166271
	C170	C	0.136111	0.394884	0.816184
	C171	C	0.892221	0.623828	0.810829
	C172	C	0.194879	0.890173	0.375222
	C173	C	0.193561	0.125928	0.605752
	C174	C	0.836264	0.133941	0.376755
	C175	C	0.842751	0.890330	0.605013
	C176	C	0.401068	0.190643	0.867321
	C177	C	0.631250	0.182867	0.108351
	C178	C	0.399238	0.834292	0.109500
	C179	C	0.630187	0.832516	0.873767
	C180	C	0.399720	0.891148	0.167290
	C181	C	0.629669	0.127979	0.168123
	C182	C	0.401136	0.133847	0.809364
	C183	C	0.630863	0.889898	0.815827
	C184	C	0.894341	0.191246	0.376644
	C185	C	0.135279	0.183072	0.606298
	C186	C	0.137642	0.832732	0.375109
	C187	C	0.901145	0.833394	0.605004
	C188	C	0.193909	0.395292	0.873403
	C189	C	0.190326	0.626016	0.108651
	C190	C	0.842864	0.394024	0.110169
	C191	C	0.836082	0.623719	0.868694
	C192	C	0.416510	0.105279	0.586657
	C193	C	0.618361	0.914912	0.591986
	C194	C	0.612247	0.104705	0.390751
	C195	C	0.418503	0.913715	0.390670
	C196	C	0.618709	0.406601	0.084417
	C197	C	0.612450	0.608578	0.896184
	C198	C	0.414506	0.609737	0.085773
	C199	C	0.416302	0.413459	0.895726
	C200	C	0.111685	0.608117	0.389635
	C201	C	0.921157	0.610348	0.587818
	C202	C	0.111165	0.408191	0.593328
	C203	C	0.921449	0.414209	0.391635
	C204	C	0.915403	0.605343	0.088135
	C205	C	0.117537	0.414613	0.092605
	C206	C	0.112205	0.605274	0.890496
	C207	C	0.918069	0.413762	0.891414
	C208	C	0.119932	0.906695	0.584989
	C209	C	0.114328	0.109792	0.396658
	C210	C	0.917074	0.109127	0.585176
	C211	C	0.918374	0.914476	0.395598
	C212	C	0.610754	0.108714	0.889705
	C213	C	0.420310	0.109521	0.087044
	C214	C	0.610053	0.907732	0.091477
	C215	C	0.420335	0.914454	0.890345
	Zn216	Zn	0.515604	0.011095	0.739555
	Zn217	Zn	0.515454	0.009118	0.239888
	Zn218	Zn	0.767338	0.508699	-0.010118
	Zn219	Zn	0.264891	0.511055	-0.008830
	Zn220	Zn	0.017715	0.759347	0.489352
	Zn221	Zn	0.016109	0.260764	0.491745
	Zn222	Zn	0.014733	0.509526	0.740792
	Zn223	Zn	0.016297	0.510412	0.240157
	Zn224	Zn	0.514139	0.760209	-0.009419
	Zn225	Zn	0.516453	0.259510	-0.010771
	Zn226	Zn	0.766081	0.010812	0.490747
	Zn227	Zn	0.267912	0.008678	0.490084
	N228	N	0.430992	0.973783	0.668234
	N229	N	0.602337	0.047492	0.668770
	N230	N	0.601897	0.972503	0.312811
	N231	N	0.427736	0.046036	0.309795
	N232	N	0.696966	0.421817	0.952991
	N233	N	0.693138	0.592867	0.027382
	N234	N	0.334510	0.598268	0.954224
	N235	N	0.339313	0.425723	0.028077
	N236	N	0.979731	0.690256	0.402752
	N237	N	0.054814	0.684881	0.573520
	N238	N	0.978780	0.331156	0.578221
	N239	N	0.053823	0.333807	0.408245
	N240	N	0.978484	0.423138	0.670508
	N241	N	0.052429	0.595010	0.668875
	N242	N	0.979249	0.597837	0.309771
	N243	N	0.053509	0.424348	0.313453
	N244	N	0.427142	0.690253	0.953802
	N245	N	0.599220	0.685164	0.028242
	N246	N	0.603079	0.330471	0.952050
	N247	N	0.431701	0.331870	0.027139
	N248	N	0.694119	0.972951	0.406064
	N249	N	0.695872	0.047198	0.577530
	N250	N	0.341928	0.971898	0.574393
	N251	N	0.337378	0.045824	0.403328
	N252	N	0.930160	0.473651	0.169757
	N253	N	0.101878	0.547357	0.169138
	N254	N	0.100902	0.472644	0.813742
	N255	N	0.927695	0.545947	0.810393
	N256	N	0.197202	0.922481	0.452983
	N257	N	0.195042	0.093889	0.527682
	N258	N	0.835773	0.098711	0.454057
	N259	N	0.840201	0.925151	0.527422
	N260	N	0.478711	0.190021	0.902285
	N261	N	0.553804	0.184436	0.072971
	N262	N	0.477201	0.831577	0.076379
	N263	N	0.552266	0.832769	0.906401
	N264	N	0.478162	0.922919	0.169770
	N265	N	0.551294	0.096292	0.169327
	N266	N	0.479007	0.098705	0.808619
	N267	N	0.552984	0.925389	0.813099
	N268	N	0.929323	0.190948	0.454121
	N269	N	0.100950	0.186091	0.528704
	N270	N	0.105062	0.829673	0.452970
	N271	N	0.934035	0.833326	0.527185
	N272	N	0.193869	0.473523	0.905880
	N273	N	0.193172	0.547704	0.076449
	N274	N	0.840464	0.471854	0.075051
	N275	N	0.837195	0.545868	0.903577
	O276	O	0.937754	1.079196	-0.071051
	H277	H	0.939461	1.085584	-0.075715
	H278	H	0.945004	1.088083	-0.078533
	O279	O	0.006148	0.047194	1.028172
	H280	H	0.004278	0.056332	1.029112
	H281	H	0.000063	0.039320	1.019631
	O282	O	-0.036396	0.042055	-0.033844
	H283	H	-0.037549	0.055440	-0.038101
	H284	H	-0.036582	0.036112	-0.027271
	O285	O	0.562369	0.468500	0.492386
	H286	H	0.560303	0.473359	0.486977
	H287	H	0.560126	0.465049	0.487115
	O288	O	-1.033178	-1.050276	0.077924
	H289	H	-1.034497	-1.045936	0.081972
	H290	H	-1.045508	-1.041396	0.070354
	O291	O	0.038063	1.012243	-0.014335
	H292	H	0.038513	1.005455	-0.011528
	H293	H	0.036372	1.017001	-0.017124
	O294	O	0.013236	1.048863	-0.019745
	H295	H	0.015277	1.039953	-0.030015
	H296	H	0.021592	1.043095	-0.011044
	O297	O	0.517742	0.525605	0.517592
	H298	H	0.518643	0.514172	0.515419
	H299	H	0.520640	0.524174	0.520513
	O300	O	0.485583	0.542893	0.476316
	H301	H	0.478102	0.547616	0.467689
	H302	H	0.483266	0.538808	0.486600
	O303	O	1.090197	-0.034973	1.006826
	H304	H	1.089116	-0.035729	1.018294
	H305	H	1.092755	-0.044342	1.014019
	O306	O	0.025267	0.971194	0.954806
	H307	H	0.022262	0.970766	0.959501
	H308	H	0.030504	0.966960	0.955078
	O309	O	-0.054905	1.039102	0.921453
	H310	H	-0.050557	1.029908	0.926129
	H311	H	-0.062439	1.046397	0.909924
	O312	O	-0.055658	0.019444	0.969252
	H313	H	-0.055407	0.021102	0.965052
	H314	H	-0.058973	0.020695	0.949469
	O315	O	0.523431	0.486792	0.438786
	H316	H	0.526858	0.487761	0.429918
	H317	H	0.527193	0.477808	0.438355
	O318	O	0.107846	-0.032401	1.062881
	H319	H	0.105399	-0.027944	1.062153
	H320	H	0.097334	-0.035651	1.074212
	O321	O	0.489673	0.491933	0.437462
	H322	H	0.488543	0.490960	0.439599
	H323	H	0.491536	0.490631	0.438283
	O324	O	0.576623	-0.462675	1.481849
	H325	H	0.571988	-0.458852	1.482242
	H326	H	0.583604	-0.469036	1.484751
	O327	O	0.960972	0.980023	0.999332
	H328	H	0.963353	0.976614	1.000809
	H329	H	0.953359	0.988178	1.002785
	O330	O	0.009939	0.007636	0.906184
	H331	H	0.014154	0.009961	0.899516
	H332	H	0.006615	0.012324	0.916368
	O333	O	0.466133	0.455649	0.558549
	H334	H	0.458428	0.447419	0.551021
	H335	H	0.467691	0.466108	0.564160
	O336	O	0.484602	0.511256	0.503319
	H337	H	0.487592	0.499999	0.508071
	H338	H	0.481009	0.512499	0.506202
	O339	O	0.422473	0.482469	0.478611
	H340	H	0.427524	0.493428	0.472160
	H341	H	0.430249	0.486039	0.479797
	O342	O	0.542472	0.517176	0.401999
	H343	H	0.545148	0.527342	0.394973
	H344	H	0.536312	0.533712	0.395220
	O345	O	0.505740	0.508316	0.486004
	H346	H	0.495770	0.510167	0.496877
	H347	H	0.500391	0.510198	0.485562
