data_Molecule from HDF5

_cell_length_a		16.252147
_cell_length_b		16.201263
_cell_length_c		16.131929
_cell_angle_alpha	91.253374
_cell_angle_beta	90.836707
_cell_angle_gamma	91.085616
_symmetry_space_group_name_H-M	'P 1'
_symmetry_Int_Tables_number		1

loop_
	_symmetry_equiv_pos_as_xyz
	x,y,z

loop_
	_atom_site_label
	_atom_site_type_symbol
	_atom_site_fract_x
	_atom_site_fract_y
	_atom_site_fract_z
	H0	H	0.387008	0.833973	0.705113
	H1	H	0.591705	0.163473	0.723634
	H2	H	0.575418	0.835705	0.286887
	H3	H	0.387792	0.165359	0.289632
	H4	H	0.693011	0.400739	0.835684
	H5	H	0.705467	0.606502	0.166181
	H6	H	0.270039	0.594976	0.838010
	H7	H	0.271489	0.402187	0.166656
	H8	H	0.821034	0.708106	0.402864
	H9	H	0.149596	0.723222	0.608504
	H10	H	0.821284	0.286431	0.593333
	H11	H	0.150644	0.288322	0.402994
	H12	H	0.819812	0.404693	0.705248
	H13	H	0.148906	0.607015	0.722564
	H14	H	0.822712	0.591882	0.284798
	H15	H	0.150676	0.402060	0.287932
	H16	H	0.388998	0.705186	0.835861
	H17	H	0.591166	0.720850	0.166114
	H18	H	0.581126	0.282491	0.838502
	H19	H	0.387902	0.288975	0.168450
	H20	H	0.695654	0.835935	0.398248
	H21	H	0.706421	0.164991	0.607583
	H22	H	0.266156	0.837959	0.596974
	H23	H	0.273843	0.166305	0.405652
	H24	H	0.888168	0.334568	0.205758
	H25	H	0.092572	0.662593	0.222681
	H26	H	0.077211	0.336050	0.783942
	H27	H	0.890341	0.666681	0.792390
	H28	H	0.193050	0.901447	0.336051
	H29	H	0.205994	0.108956	0.665530
	H30	H	0.770854	0.094584	0.336155
	H31	H	0.772041	0.903720	0.666446
	H32	H	0.320279	0.207106	0.902879
	H33	H	0.649120	0.221774	0.109199
	H34	H	0.322713	0.782983	0.095737
	H35	H	0.650876	0.787475	0.903018
	H36	H	0.320075	0.901158	0.207009
	H37	H	0.649081	0.105280	0.222855
	H38	H	0.321520	0.091884	0.785798
	H39	H	0.649969	0.901297	0.786417
	H40	H	0.889618	0.204861	0.334002
	H41	H	0.090404	0.223725	0.665669
	H42	H	0.080558	0.784525	0.337584
	H43	H	0.886796	0.789601	0.667837
	H44	H	0.196004	0.336038	0.898220
	H45	H	0.207309	0.663679	0.107985
	H46	H	0.768877	0.337321	0.095725
	H47	H	0.774489	0.666162	0.905560
	H48	H	0.395908	0.120203	0.601812
	H49	H	0.585389	0.882699	0.585198
	H50	H	0.582636	0.119899	0.411367
	H51	H	0.382973	0.881675	0.403890
	H52	H	0.579273	0.401178	0.123088
	H53	H	0.589907	0.591116	0.879036
	H54	H	0.399355	0.598945	0.120521
	H55	H	0.396856	0.403413	0.886029
	H56	H	0.099986	0.590272	0.419280
	H57	H	0.864412	0.601854	0.602515
	H58	H	0.105605	0.409938	0.599877
	H59	H	0.867473	0.402503	0.395247
	H60	H	0.102388	0.410844	0.587307
	H61	H	0.871024	0.598259	0.583854
	H62	H	0.105576	0.591752	0.405665
	H63	H	0.866934	0.394579	0.403104
	H64	H	0.393425	0.593079	0.122062
	H65	H	0.574987	0.584464	0.887109
	H66	H	0.591126	0.418403	0.122821
	H67	H	0.388019	0.396429	0.881698
	H68	H	0.576815	0.116962	0.414444
	H69	H	0.580407	0.879841	0.600367
	H70	H	0.403232	0.116657	0.594630
	H71	H	0.388780	0.883182	0.400161
	H72	H	0.886424	0.620097	0.089612
	H73	H	0.074506	0.380091	0.101921
	H74	H	0.070684	0.616248	0.910722
	H75	H	0.890167	0.383746	0.898542
	H76	H	0.082755	0.923114	0.618273
	H77	H	0.074693	0.091479	0.385373
	H78	H	0.897303	0.090125	0.617937
	H79	H	0.890245	0.905422	0.384165
	H80	H	0.604854	0.094379	0.907286
	H81	H	0.367509	0.090043	0.099738
	H82	H	0.600677	0.919830	0.096594
	H83	H	0.367912	0.900023	0.898120
	H84	H	0.606559	0.907481	0.103974
	H85	H	0.366715	0.098186	0.095713
	H86	H	0.603131	0.098219	0.918610
	H87	H	0.367517	0.896526	0.905064
	H88	H	0.903200	0.100872	0.619669
	H89	H	0.080226	0.099347	0.380582
	H90	H	0.070413	0.913771	0.617584
	H91	H	0.891232	0.900254	0.382061
	H92	H	0.085091	0.614840	0.925261
	H93	H	0.073494	0.385001	0.083318
	H94	H	0.899278	0.621938	0.108489
	H95	H	0.886230	0.383743	0.905884
	H96	H	0.392913	0.118398	0.591465
	H97	H	0.569846	0.886617	0.589231
	H98	H	0.582781	0.117470	0.417725
	H99	H	0.388727	0.884793	0.407288
	H100	H	0.571799	0.419544	0.116658
	H101	H	0.575489	0.601343	0.881684
	H102	H	0.401173	0.591823	0.119367
	H103	H	0.386903	0.407338	0.884905
	H104	H	0.104858	0.603727	0.415389
	H105	H	0.870811	0.583572	0.596885
	H106	H	0.100936	0.421090	0.596201
	H107	H	0.870557	0.405572	0.406247
	H108	H	0.907692	0.613875	0.088554
	H109	H	0.089593	0.378804	0.090767
	H110	H	0.088886	0.622275	0.907390
	H111	H	0.882474	0.380561	0.899324
	H112	H	0.083339	0.908740	0.623458
	H113	H	0.085027	0.091010	0.381845
	H114	H	0.891145	0.099084	0.622124
	H115	H	0.887213	0.902202	0.383019
	H116	H	0.598972	0.086968	0.915663
	H117	H	0.370079	0.090928	0.088888
	H118	H	0.603325	0.906890	0.090029
	H119	H	0.370870	0.904429	0.905836
	C120	C	0.365962	0.009325	0.621660
	C121	C	0.609672	0.991492	0.624293
	C122	C	0.606015	0.009424	0.382118
	C123	C	0.361047	0.992076	0.378129
	C124	C	0.606642	0.381144	0.011586
	C125	C	0.610173	0.623788	0.992214
	C126	C	0.367512	0.619979	0.011017
	C127	C	0.363107	0.376446	0.993464
	C128	C	-0.005101	0.620788	0.382204
	C129	C	0.976747	0.626385	0.626411
	C130	C	-0.005614	0.382626	0.620337
	C131	C	0.977460	0.375644	0.376194
	C132	C	0.866939	0.509595	0.121067
	C133	C	0.110290	0.490246	0.124054
	C134	C	0.106956	0.509268	0.881696
	C135	C	0.861499	0.492261	0.877343
	C136	C	0.105754	0.882987	0.511025
	C137	C	0.110009	0.125733	0.491826
	C138	C	0.867213	0.121232	0.509786
	C139	C	0.862568	0.877212	0.493013
	C140	C	0.493733	0.119156	0.882986
	C141	C	0.476449	0.124464	0.126692
	C142	C	0.494767	0.880514	0.122000
	C143	C	0.477308	0.874622	0.876558
	C144	C	0.366631	0.884373	0.671172
	C145	C	0.610195	0.114696	0.683795
	C146	C	0.598469	0.885069	0.324601
	C147	C	0.366518	0.116191	0.326261
	C148	C	0.657416	0.381034	0.885902
	C149	C	0.666933	0.624950	0.116569
	C150	C	0.309806	0.615026	0.886910
	C151	C	0.308874	0.380963	0.117575
	C152	C	0.870845	0.672151	0.382729
	C153	C	0.100281	0.684486	0.627338
	C154	C	0.870482	0.325120	0.614539
	C155	C	0.101427	0.324456	0.381626
	C156	C	0.869660	0.383916	0.670463
	C157	C	0.099914	0.626748	0.684223
	C158	C	0.871511	0.614155	0.324134
	C159	C	0.101174	0.380553	0.323780
	C160	C	0.368902	0.670115	0.885963
	C161	C	0.610046	0.682086	0.116545
	C162	C	0.601707	0.322245	0.887197
	C163	C	0.366953	0.324895	0.118512
	C164	C	0.658304	0.885204	0.380128
	C165	C	0.667346	0.115366	0.626046
	C166	C	0.306194	0.886480	0.617425
	C167	C	0.310006	0.116706	0.384046
	C168	C	0.867815	0.384492	0.171055
	C169	C	0.111272	0.613880	0.183037
	C170	C	0.100009	0.385387	0.822810
	C171	C	0.868143	0.617065	0.827607
	C172	C	0.157151	0.882201	0.385787
	C173	C	0.167435	0.127294	0.616218
	C174	C	0.810069	0.115221	0.385233
	C175	C	0.809130	0.882746	0.617198
	C176	C	0.369920	0.171035	0.883197
	C177	C	0.599857	0.182781	0.127803
	C178	C	0.371224	0.822616	0.116331
	C179	C	0.601418	0.823540	0.881678
	C180	C	0.370034	0.881139	0.172239
	C181	C	0.599851	0.124610	0.184331
	C182	C	0.370418	0.113460	0.825131
	C183	C	0.600994	0.880063	0.823581
	C184	C	0.868862	0.170398	0.384069
	C185	C	0.109914	0.184670	0.616091
	C186	C	0.101483	0.823810	0.386833
	C187	C	0.866326	0.825778	0.617828
	C188	C	0.158932	0.385155	0.879615
	C189	C	0.168299	0.614291	0.125955
	C190	C	0.808411	0.386069	0.116244
	C191	C	0.810418	0.616745	0.883823
	C192	C	0.390338	0.096062	0.601917
	C193	C	0.585589	0.905152	0.598847
	C194	C	0.586451	0.095779	0.407208
	C195	C	0.380814	0.905505	0.397836
	C196	C	0.586629	0.405694	0.098227
	C197	C	0.586884	0.599499	0.905106
	C198	C	0.391050	0.600286	0.098300
	C199	C	0.384185	0.396347	0.906706
	C200	C	0.081077	0.601098	0.406430
	C201	C	0.890773	0.601669	0.601673
	C202	C	0.080703	0.406925	0.600564
	C203	C	0.890729	0.395022	0.395651
	C204	C	0.890876	0.596199	0.101590
	C205	C	0.086208	0.403705	0.099176
	C206	C	0.087230	0.595624	0.906874
	C207	C	0.880545	0.405272	0.895764
	C208	C	0.085052	0.907998	0.597524
	C209	C	0.086891	0.101271	0.404945
	C210	C	0.890385	0.102376	0.597081
	C211	C	0.883363	0.896727	0.405706
	C212	C	0.579964	0.099196	0.907060
	C213	C	0.390383	0.100160	0.102106
	C214	C	0.581139	0.904541	0.102806
	C215	C	0.391190	0.894427	0.896845
	Zn216	Zn	0.486212	-0.001086	0.750582
	Zn217	Zn	0.484162	0.001021	0.252171
	Zn218	Zn	0.736074	0.501919	0.000952
	Zn219	Zn	0.237671	0.499547	0.002759
	Zn220	Zn	-0.013641	0.752289	0.503650
	Zn221	Zn	-0.013266	0.251284	0.499927
	Zn222	Zn	-0.015412	0.502150	0.751574
	Zn223	Zn	-0.012080	0.498664	0.250100
	Zn224	Zn	0.487295	0.749245	0.001181
	Zn225	Zn	0.485464	0.250750	0.003569
	Zn226	Zn	0.737022	0.000783	0.501906
	Zn227	Zn	0.235525	0.002308	0.500815
	N228	N	0.403052	0.961926	0.673996
	N229	N	0.575143	0.036570	0.682960
	N230	N	0.566832	0.963315	0.325645
	N231	N	0.397487	0.037831	0.322301
	N232	N	0.660927	0.416899	0.964119
	N233	N	0.667126	0.589429	0.038273
	N234	N	0.309023	0.584588	0.965967
	N235	N	0.306307	0.412264	0.038876
	N236	N	0.948532	0.676175	0.418298
	N237	N	0.022483	0.684507	0.592074
	N238	N	0.949099	0.324219	0.584060
	N239	N	0.023351	0.320906	0.413269
	N240	N	0.947554	0.418993	0.674322
	N241	N	0.022324	0.591100	0.683564
	N242	N	0.949734	0.582818	0.323817
	N243	N	0.023086	0.411846	0.320305
	N244	N	0.404056	0.673333	0.964228
	N245	N	0.575304	0.681432	0.038151
	N246	N	0.570910	0.322033	0.966313
	N247	N	0.400088	0.321965	0.040304
	N248	N	0.663115	0.963394	0.415179
	N249	N	0.667213	0.037618	0.589698
	N250	N	0.305653	0.965317	0.587410
	N251	N	0.306488	0.038407	0.415495
	N252	N	0.903679	0.462351	0.174239
	N253	N	0.075897	0.535866	0.182098
	N254	N	0.068355	0.463668	0.823830
	N255	N	0.899097	0.538674	0.823189
	N256	N	0.160078	0.918340	0.463925
	N257	N	0.167507	0.091224	0.537968
	N258	N	0.809130	0.085099	0.464429
	N259	N	0.806445	0.913844	0.538439
	N260	N	0.447694	0.174671	0.918507
	N261	N	0.521998	0.182714	0.092558
	N262	N	0.449723	0.821925	0.085871
	N263	N	0.523545	0.819720	0.913773
	N264	N	0.447791	0.916742	0.175882
	N265	N	0.522104	0.089099	0.183986
	N266	N	0.448462	0.081943	0.824965
	N267	N	0.522832	0.911137	0.820006
	N268	N	0.903679	0.174227	0.462559
	N269	N	0.075131	0.183872	0.537789
	N270	N	0.070338	0.824178	0.465703
	N271	N	0.898822	0.822068	0.539512
	N272	N	0.163585	0.463013	0.915422
	N273	N	0.167693	0.536267	0.089860
	N274	N	0.807717	0.464788	0.085854
	N275	N	0.805979	0.538153	0.914087
	O276	O	0.032647	-0.045509	-0.029688
	H277	H	0.034478	-0.036151	-0.019199
	H278	H	0.020638	-0.053918	-0.031669
	O279	O	0.432275	0.482001	0.546795
	H280	H	0.422160	0.476458	0.536255
	H281	H	0.427368	0.480828	0.547867
	O282	O	0.515775	0.507155	0.434691
	H283	H	0.520993	0.510647	0.434207
	H284	H	0.514235	0.502003	0.437203
	O285	O	-0.066569	1.029524	0.925022
	H286	H	-0.061680	1.019253	0.929885
	H287	H	-0.076601	1.011508	0.919915
	O288	O	0.586356	0.626723	0.542648
	H289	H	0.590041	0.603623	0.547763
	H290	H	0.602666	0.636718	0.543598
	O291	O	0.944848	1.063364	0.980830
	H292	H	0.954488	1.055400	0.982919
	H293	H	0.962082	1.064353	0.984150
	O294	O	1.550932	0.475281	0.459757
	H295	H	1.546836	0.478733	0.463105
	H296	H	1.543101	0.479026	0.462696
	O297	O	1.037112	-0.105536	1.056365
	H298	H	1.028487	-0.108354	1.052381
	H299	H	1.052407	-0.110221	1.056200
	O300	O	0.528212	0.523897	0.501409
	H301	H	0.535831	0.515034	0.508962
	H302	H	0.529813	0.530158	0.509699
	O303	O	1.065494	0.030019	0.005798
	H304	H	1.064075	0.027215	0.008039
	H305	H	1.067983	0.027307	0.007028
	O306	O	-0.021492	1.022701	0.994319
	H307	H	-0.024244	1.030059	0.987434
	H308	H	-0.013841	1.023061	0.987743
	O309	O	0.585453	0.489993	0.518028
	H310	H	0.597014	0.469402	0.516813
	H311	H	0.573662	0.487692	0.523418
	O312	O	1.036235	0.047307	1.005019
	H313	H	1.036750	0.064084	1.009320
	H314	H	1.039911	0.051823	1.018310
	O315	O	0.553685	0.507806	0.560432
	H316	H	0.561456	0.525392	0.566358
	H317	H	0.555855	0.507905	0.578659
	O318	O	0.477343	0.550156	0.624704
	H319	H	0.478955	0.559026	0.618579
	H320	H	0.476680	0.554452	0.630128
	O321	O	0.916652	0.993403	0.930022
	H322	H	0.912887	0.986887	0.926438
	H323	H	0.917736	0.995991	0.932687
	O324	O	1.047359	0.024143	0.011649
	H325	H	1.045685	0.034725	0.005428
	H326	H	1.053787	0.029870	0.010569
	O327	O	0.423829	0.473991	0.455198
	H328	H	0.422797	0.468019	0.459636
	H329	H	0.419457	0.475122	0.451867
	O330	O	0.894645	0.054634	0.976843
	H331	H	0.885099	0.055675	0.989367
	H332	H	0.887629	0.051905	0.971636
	O333	O	1.390724	1.462830	-0.547707
	H334	H	1.395535	1.460283	-0.547549
	H335	H	1.387971	1.454044	-0.536564
	O336	O	0.991882	0.914860	0.992852
	H337	H	0.988659	0.911886	0.998818
	H338	H	0.986964	0.916485	0.991674
	O339	O	0.516494	0.428034	0.532775
	H340	H	0.510436	0.435171	0.531453
	H341	H	0.511521	0.425740	0.524542
	O342	O	-0.075384	1.018337	0.000641
	H343	H	-0.074335	1.028843	0.003556
	H344	H	-0.072812	1.015191	0.013580
	O345	O	-0.007629	0.090735	0.080456
	H346	H	-0.002724	0.092562	0.088122
	H347	H	0.005612	0.092276	0.087260
	O348	O	0.502491	0.495062	0.446835
	H349	H	0.512083	0.498106	0.444969
	H350	H	0.507824	0.492537	0.437019
	O351	O	0.418064	0.469542	0.516223
	H352	H	0.409910	0.474623	0.510738
	H353	H	0.414958	0.479012	0.500543
	O354	O	0.395474	0.504013	0.605212
	H355	H	0.398897	0.513359	0.589882
	H356	H	0.383850	0.507329	0.605933
	O357	O	0.579066	0.528600	0.448217
	H358	H	0.585099	0.526579	0.468853
	H359	H	0.578799	0.534690	0.453993
	O360	O	0.010949	0.000804	0.000184
	H361	H	0.003935	0.002317	0.000993
	H362	H	0.021061	0.004162	-0.011403
	O363	O	0.387772	0.505417	0.448870
	H364	H	0.390125	0.505949	0.455929
	H365	H	0.389720	0.498375	0.436891
	O366	O	-0.032493	-0.057549	1.018158
	H367	H	-0.040442	-0.057383	1.016664
	H368	H	-0.026172	-0.056400	1.013906
	O369	O	0.457981	0.616146	0.593057
	H370	H	0.464724	0.623754	0.606481
	H371	H	0.464200	0.629533	0.593035
