data_Molecule from HDF5

_cell_length_a		16.381298
_cell_length_b		16.063093
_cell_length_c		16.139344
_cell_angle_alpha	90.726183
_cell_angle_beta	90.757330
_cell_angle_gamma	90.161920
_symmetry_space_group_name_H-M	'P 1'
_symmetry_Int_Tables_number		1

loop_
	_symmetry_equiv_pos_as_xyz
	x,y,z

loop_
	_atom_site_label
	_atom_site_type_symbol
	_atom_site_fract_x
	_atom_site_fract_y
	_atom_site_fract_z
	H0	H	0.398476	0.839641	0.719657
	H1	H	0.594651	0.171788	0.731780
	H2	H	0.589283	0.839887	0.301857
	H3	H	0.397378	0.173348	0.302556
	H4	H	0.709589	0.402473	0.848039
	H5	H	0.716032	0.609809	0.176835
	H6	H	0.278458	0.604781	0.850678
	H7	H	0.281551	0.403152	0.177439
	H8	H	0.832449	0.720951	0.415075
	H9	H	0.159594	0.726368	0.614416
	H10	H	0.833041	0.294634	0.609073
	H11	H	0.159376	0.292489	0.415420
	H12	H	0.832843	0.411893	0.724043
	H13	H	0.158155	0.614352	0.734917
	H14	H	0.834470	0.606554	0.295082
	H15	H	0.160197	0.409103	0.299887
	H16	H	0.398139	0.715078	0.848566
	H17	H	0.596397	0.719937	0.179163
	H18	H	0.590759	0.290881	0.847645
	H19	H	0.405225	0.298570	0.180836
	H20	H	0.709199	0.842602	0.411470
	H21	H	0.711321	0.172129	0.618816
	H22	H	0.278073	0.843758	0.609679
	H23	H	0.278730	0.172033	0.411100
	H24	H	0.900587	0.341904	0.222181
	H25	H	0.096834	0.673209	0.228301
	H26	H	0.093173	0.342908	0.796709
	H27	H	0.900537	0.676232	0.805938
	H28	H	0.205868	0.906125	0.348516
	H29	H	0.216932	0.116654	0.674888
	H30	H	0.774585	0.108586	0.350797
	H31	H	0.782484	0.908634	0.677628
	H32	H	0.332628	0.219220	0.914666
	H33	H	0.660185	0.221507	0.115732
	H34	H	0.333485	0.790025	0.110464
	H35	H	0.659247	0.790946	0.917994
	H36	H	0.331449	0.909070	0.222979
	H37	H	0.657955	0.108122	0.235139
	H38	H	0.332995	0.102908	0.797379
	H39	H	0.658484	0.902851	0.797970
	H40	H	0.895954	0.218231	0.347060
	H41	H	0.095189	0.223600	0.678583
	H42	H	0.088797	0.795044	0.349043
	H43	H	0.900316	0.799061	0.679399
	H44	H	0.208219	0.341552	0.912141
	H45	H	0.216932	0.669301	0.120793
	H46	H	0.782833	0.341771	0.110439
	H47	H	0.777874	0.670741	0.910713
	H48	H	0.407450	0.125774	0.608964
	H49	H	0.578683	0.891857	0.601553
	H50	H	0.581678	0.122798	0.429158
	H51	H	0.393530	0.886247	0.414508
	H52	H	0.600430	0.406940	0.136244
	H53	H	0.585464	0.596862	0.896038
	H54	H	0.412424	0.599816	0.131696
	H55	H	0.409839	0.405499	0.896083
	H56	H	0.113984	0.600910	0.415653
	H57	H	0.882574	0.593886	0.608790
	H58	H	0.108795	0.419904	0.596626
	H59	H	0.878650	0.408225	0.415348
	H60	H	0.110802	0.426632	0.612685
	H61	H	0.875662	0.610298	0.616896
	H62	H	0.114737	0.610164	0.422514
	H63	H	0.883516	0.417163	0.421824
	H64	H	0.401345	0.601903	0.134182
	H65	H	0.589818	0.599454	0.893324
	H66	H	0.599246	0.427188	0.128917
	H67	H	0.391325	0.407911	0.891771
	H68	H	0.591945	0.126079	0.429597
	H69	H	0.599644	0.887043	0.595583
	H70	H	0.405807	0.124806	0.602089
	H71	H	0.401706	0.889205	0.414844
	H72	H	0.904800	0.627892	0.110980
	H73	H	0.085131	0.387098	0.109668
	H74	H	0.090732	0.624171	0.934033
	H75	H	0.900183	0.389757	0.921802
	H76	H	0.086844	0.917180	0.631540
	H77	H	0.090057	0.094418	0.395528
	H78	H	0.907841	0.102970	0.630396
	H79	H	0.893813	0.907583	0.390750
	H80	H	0.614570	0.103860	0.921368
	H81	H	0.379038	0.105964	0.106222
	H82	H	0.614515	0.905211	0.106591
	H83	H	0.374941	0.903632	0.907554
	H84	H	0.608218	0.920934	0.103578
	H85	H	0.381197	0.098750	0.105797
	H86	H	0.608939	0.096841	0.930420
	H87	H	0.380805	0.905898	0.927345
	H88	H	0.902404	0.105526	0.632676
	H89	H	0.080921	0.101394	0.396006
	H90	H	0.095701	0.920334	0.634229
	H91	H	0.894523	0.924492	0.396751
	H92	H	0.097185	0.628957	0.923418
	H93	H	0.088336	0.390232	0.099345
	H94	H	0.910785	0.623828	0.101742
	H95	H	0.900319	0.387536	0.913846
	H96	H	0.401438	0.126868	0.606839
	H97	H	0.594262	0.882621	0.616780
	H98	H	0.586234	0.125939	0.420834
	H99	H	0.398167	0.887677	0.422003
	H100	H	0.581889	0.413449	0.128141
	H101	H	0.590978	0.595372	0.895157
	H102	H	0.404463	0.591490	0.130995
	H103	H	0.400617	0.423789	0.899387
	H104	H	0.110719	0.600044	0.427325
	H105	H	0.880843	0.609566	0.598932
	H106	H	0.116006	0.409838	0.610418
	H107	H	0.880625	0.419582	0.411259
	H108	H	0.899570	0.626242	0.100395
	H109	H	0.095918	0.386132	0.105987
	H110	H	0.083948	0.625009	0.922392
	H111	H	0.907482	0.390042	0.916598
	H112	H	0.089125	0.926565	0.629953
	H113	H	0.090666	0.104640	0.391999
	H114	H	0.902336	0.099317	0.630721
	H115	H	0.908230	0.913503	0.397118
	H116	H	0.611747	0.092090	0.919234
	H117	H	0.378165	0.101646	0.112300
	H118	H	0.613992	0.916882	0.119863
	H119	H	0.383072	0.922467	0.914703
	C120	C	0.375244	0.016162	0.632670
	C121	C	0.619101	0.997378	0.636378
	C122	C	0.614994	0.015665	0.394943
	C123	C	0.371435	0.997867	0.390252
	C124	C	0.619557	0.384659	0.021817
	C125	C	0.618596	0.627370	1.004309
	C126	C	0.375761	0.625888	0.023231
	C127	C	0.374891	0.384623	1.004936
	C128	C	0.005105	0.631179	0.391980
	C129	C	0.987545	0.634033	0.637787
	C130	C	0.004228	0.389283	0.634042
	C131	C	0.988404	0.385932	0.389229
	C132	C	0.876540	0.516284	0.132489
	C133	C	0.119413	0.497382	0.135713
	C134	C	0.117861	0.516872	0.894171
	C135	C	0.874136	0.498657	0.890392
	C136	C	0.116579	0.889675	0.522705
	C137	C	0.117817	0.131084	0.503381
	C138	C	0.873733	0.130135	0.522314
	C139	C	0.873149	0.887351	0.504270
	C140	C	0.504417	0.126635	0.893139
	C141	C	0.487655	0.130308	0.138056
	C142	C	0.504396	0.884868	0.136264
	C143	C	0.487270	0.881768	0.889747
	C144	C	0.377478	0.890266	0.684316
	C145	C	0.615717	0.122071	0.693626
	C146	C	0.610994	0.890260	0.338663
	C147	C	0.375717	0.123192	0.337805
	C148	C	0.672156	0.383640	0.897299
	C149	C	0.676552	0.628104	0.127880
	C150	C	0.317732	0.624198	0.899637
	C151	C	0.320542	0.385399	0.128731
	C152	C	0.881752	0.684414	0.393947
	C153	C	0.110337	0.689406	0.635630
	C154	C	0.881865	0.332798	0.630121
	C155	C	0.110780	0.330265	0.394000
	C156	C	0.881651	0.391539	0.687297
	C157	C	0.109851	0.633044	0.695014
	C158	C	0.882622	0.627440	0.334307
	C159	C	0.111195	0.388175	0.336291
	C160	C	0.377398	0.679082	0.898521
	C161	C	0.617186	0.682992	0.129051
	C162	C	0.613274	0.328123	0.897228
	C163	C	0.381818	0.333083	0.130551
	C164	C	0.670522	0.891567	0.393321
	C165	C	0.673919	0.122072	0.637461
	C166	C	0.317429	0.892405	0.629735
	C167	C	0.316990	0.122751	0.392122
	C168	C	0.879352	0.391503	0.186068
	C169	C	0.117770	0.622770	0.191941
	C170	C	0.113963	0.392230	0.835529
	C171	C	0.878391	0.625062	0.839975
	C172	C	0.168810	0.888177	0.398075
	C173	C	0.176740	0.133708	0.626322
	C174	C	0.814809	0.127938	0.399200
	C175	C	0.819879	0.889210	0.628560
	C176	C	0.381654	0.181454	0.894409
	C177	C	0.610806	0.184663	0.136642
	C178	C	0.381878	0.828653	0.130984
	C179	C	0.610259	0.827480	0.895364
	C180	C	0.380810	0.887959	0.187185
	C181	C	0.609848	0.127933	0.195728
	C182	C	0.381748	0.123561	0.836017
	C183	C	0.609776	0.883473	0.835871
	C184	C	0.875143	0.182585	0.397447
	C185	C	0.116236	0.187179	0.628243
	C186	C	0.110874	0.832624	0.398380
	C187	C	0.878787	0.834982	0.629564
	C188	C	0.171292	0.391382	0.892889
	C189	C	0.177404	0.620737	0.138227
	C190	C	0.821081	0.391393	0.129818
	C191	C	0.817391	0.622299	0.892045
	C192	C	0.398137	0.103250	0.612103
	C193	C	0.597314	0.909823	0.611738
	C194	C	0.592961	0.102493	0.419371
	C195	C	0.391729	0.910436	0.411054
	C196	C	0.599748	0.408655	0.108692
	C197	C	0.595524	0.603807	0.917328
	C198	C	0.399164	0.604117	0.109939
	C199	C	0.394597	0.406135	0.918109
	C200	C	0.090957	0.609930	0.415067
	C201	C	0.901748	0.611202	0.614802
	C202	C	0.089615	0.412025	0.612833
	C203	C	0.902962	0.408460	0.410059
	C204	C	0.898585	0.603413	0.110823
	C205	C	0.096548	0.410389	0.111978
	C206	C	0.096895	0.603576	0.919207
	C207	C	0.896131	0.411675	0.911099
	C208	C	0.096632	0.914207	0.609480
	C209	C	0.094199	0.107098	0.416927
	C210	C	0.897253	0.108892	0.608837
	C211	C	0.893058	0.908644	0.417378
	C212	C	0.589703	0.104303	0.916756
	C213	C	0.401851	0.108549	0.114956
	C214	C	0.590083	0.907508	0.115997
	C215	C	0.401736	0.903866	0.910372
	Zn216	Zn	0.496119	0.005012	0.761772
	Zn217	Zn	0.494477	0.006498	0.265740
	Zn218	Zn	0.747321	0.506497	0.011103
	Zn219	Zn	0.246433	0.505154	0.014933
	Zn220	Zn	-0.004435	0.761820	0.514683
	Zn221	Zn	-0.003806	0.258095	0.512676
	Zn222	Zn	-0.003935	0.509986	0.765419
	Zn223	Zn	-0.002383	0.508273	0.261164
	Zn224	Zn	0.496810	0.754774	0.014089
	Zn225	Zn	0.496763	0.257676	0.014492
	Zn226	Zn	0.745556	0.007246	0.514514
	Zn227	Zn	0.245263	0.008721	0.511754
	N228	N	0.412729	0.968298	0.686303
	N229	N	0.582661	0.043244	0.693175
	N230	N	0.576856	0.968521	0.339851
	N231	N	0.408868	0.044596	0.336268
	N232	N	0.676131	0.418158	0.975737
	N233	N	0.677632	0.594259	0.049064
	N234	N	0.316631	0.591825	0.978289
	N235	N	0.316025	0.416723	0.049722
	N236	N	0.958857	0.686804	0.428899
	N237	N	0.033286	0.689876	0.600641
	N238	N	0.959094	0.331370	0.597760
	N239	N	0.033292	0.328550	0.426048
	N240	N	0.958822	0.426034	0.689898
	N241	N	0.032478	0.599530	0.696760
	N242	N	0.960372	0.595018	0.333057
	N243	N	0.034144	0.422113	0.333245
	N244	N	0.412656	0.680363	0.976470
	N245	N	0.581867	0.682682	0.051126
	N246	N	0.581311	0.328647	0.975702
	N247	N	0.415077	0.332347	0.052649
	N248	N	0.673275	0.970472	0.427708
	N249	N	0.676069	0.043243	0.602695
	N250	N	0.316114	0.971533	0.598205
	N251	N	0.314090	0.043872	0.423933
	N252	N	0.913189	0.470056	0.187703
	N253	N	0.082536	0.544858	0.190694
	N254	N	0.081445	0.471209	0.835953
	N255	N	0.913266	0.547164	0.838824
	N256	N	0.172151	0.923225	0.476294
	N257	N	0.177913	0.099338	0.547716
	N258	N	0.813690	0.096245	0.477999
	N259	N	0.816080	0.920961	0.549811
	N260	N	0.458853	0.183208	0.929370
	N261	N	0.533795	0.186395	0.101482
	N262	N	0.459861	0.826731	0.100008
	N263	N	0.533252	0.826349	0.928407
	N264	N	0.457855	0.922340	0.190424
	N265	N	0.532173	0.095106	0.196924
	N266	N	0.459052	0.090145	0.835046
	N267	N	0.532243	0.916435	0.832098
	N268	N	0.911010	0.184276	0.475075
	N269	N	0.080354	0.185863	0.550698
	N270	N	0.079029	0.833403	0.476909
	N271	N	0.911251	0.833513	0.551314
	N272	N	0.173659	0.469609	0.928696
	N273	N	0.178396	0.541902	0.103829
	N274	N	0.818933	0.470385	0.097415
	N275	N	0.814484	0.542709	0.922361
	O276	O	-0.512395	0.596228	-0.484430
	H277	H	-0.502292	0.593612	-0.490422
	H278	H	-0.511021	0.591633	-0.481262
	O279	O	0.484692	0.568565	0.589810
	H280	H	0.491814	0.575152	0.603354
	H281	H	0.492845	0.561614	0.585185
	O282	O	0.480030	0.486549	0.594380
	H283	H	0.487293	0.496250	0.599637
	H284	H	0.481356	0.485148	0.595767
	O285	O	0.104539	1.061075	1.002641
	H286	H	0.114456	1.063778	1.004300
	H287	H	0.110204	1.074244	1.003008
	O288	O	-0.140058	-0.093232	-0.003061
	H289	H	-0.142829	-0.090918	0.012631
	H290	H	-0.140224	-0.090658	-0.001871
	O291	O	0.534372	1.526641	0.431124
	H292	H	0.532742	1.519604	0.428078
	H293	H	0.534065	1.518070	0.441005
	O294	O	1.506177	0.436830	0.541483
	H295	H	1.503361	0.434649	0.542492
	H296	H	1.505716	0.423613	0.535760
	O297	O	0.905587	0.021159	1.068736
	H298	H	0.897758	0.020977	1.062567
	H299	H	0.907011	0.023550	1.053819
	O300	O	0.409427	0.566748	0.483037
	H301	H	0.421422	0.563661	0.483264
	H302	H	0.409544	0.555388	0.487155
	O303	O	1.109559	-0.089981	-0.075859
	H304	H	1.114588	-0.100955	-0.073261
	H305	H	1.100868	-0.095177	-0.071275
	O306	O	0.105508	1.056321	0.935269
	H307	H	0.105584	1.046843	0.931326
	H308	H	0.114813	1.057781	0.935833
	O309	O	0.526367	0.474170	0.423610
	H310	H	0.512681	0.484811	0.422502
	H311	H	0.511281	0.467809	0.417145
	O312	O	0.983127	-0.011970	0.973225
	H313	H	0.998551	-0.015419	0.967888
	H314	H	0.984076	-0.018001	0.972353
	O315	O	-0.017467	0.099295	0.008264
	H316	H	-0.005135	0.091837	0.002220
	H317	H	-0.011022	0.101710	0.011786
	O318	O	0.435938	0.501239	0.461641
	H319	H	0.434389	0.501796	0.456830
	H320	H	0.436948	0.500375	0.468355
	O321	O	1.034796	0.987532	1.091309
	H322	H	1.035133	0.980650	1.105370
	H323	H	1.035607	0.986677	1.074235
	O324	O	1.026608	-0.002520	-0.006727
	H325	H	1.022689	-0.007453	0.003530
	H326	H	1.021629	-0.004267	-0.012266
	O327	O	0.510769	0.537369	0.589350
	H328	H	0.519016	0.538153	0.584080
	H329	H	0.512734	0.550009	0.596874
	O330	O	0.945095	-0.036921	1.081362
	H331	H	0.937603	-0.029086	1.079073
	H332	H	0.938806	-0.030435	1.093724
	O333	O	0.991365	1.080597	-1.017334
	H334	H	0.984086	1.091395	-1.021667
	H335	H	0.987719	1.090804	-1.009583
	O336	O	1.005032	1.055967	0.969051
	H337	H	1.005698	1.042784	0.967599
	H338	H	1.003009	1.059653	0.968544
	O339	O	0.543882	0.430959	0.439270
	H340	H	0.544635	0.427345	0.440304
	H341	H	0.536573	0.439166	0.426210
	O342	O	0.069906	1.048727	-0.014187
	H343	H	0.069469	1.034611	-0.015846
	H344	H	0.066504	1.047073	-0.019949
	O345	O	-0.011687	-0.036641	0.035629
	H346	H	0.002752	-0.035902	0.046445
	H347	H	-0.016331	-0.029995	0.032939
	O348	O	0.941293	-0.013042	0.911253
	H349	H	0.939965	-0.025705	0.903343
	H350	H	0.938131	-0.014155	0.918621
	O351	O	0.607053	0.509590	0.558389
	H352	H	0.617419	0.496873	0.550803
	H353	H	0.614304	0.509467	0.547736
	O354	O	0.481301	0.484548	0.493391
	H355	H	0.468114	0.491872	0.494120
	H356	H	0.480305	0.489572	0.498805
	O357	O	0.544636	0.532613	0.597534
	H358	H	0.542550	0.528666	0.595432
	H359	H	0.549480	0.535231	0.595590
	O360	O	-0.037710	-0.009337	0.150152
	H361	H	-0.037094	0.004806	0.137493
	H362	H	-0.039687	-0.007526	0.157690
	O363	O	0.488342	0.408732	0.460690
	H364	H	0.490159	0.420015	0.459293
	H365	H	0.486721	0.405813	0.475061
	O366	O	-0.007974	0.061716	0.972699
	H367	H	-0.010796	0.057639	0.964015
	H368	H	-0.008829	0.073682	0.982298
	O369	O	0.513522	0.459128	0.562138
	H370	H	0.522864	0.466068	0.561264
	H371	H	0.515335	0.456671	0.565986
