data_Molecule from HDF5

_cell_length_a		16.185873
_cell_length_b		16.620735
_cell_length_c		16.229313
_cell_angle_alpha	89.987032
_cell_angle_beta	90.084038
_cell_angle_gamma	90.087736
_symmetry_space_group_name_H-M	'P 1'
_symmetry_Int_Tables_number		1

loop_
	_symmetry_equiv_pos_as_xyz
	x,y,z

loop_
	_atom_site_label
	_atom_site_type_symbol
	_atom_site_fract_x
	_atom_site_fract_y
	_atom_site_fract_z
	H0	H	0.391784	0.840902	0.718148
	H1	H	0.601512	0.157334	0.715307
	H2	H	0.598477	0.838961	0.277073
	H3	H	0.393668	0.156274	0.274485
	H4	H	0.711324	0.398391	0.832901
	H5	H	0.713078	0.597884	0.158474
	H6	H	0.281647	0.596470	0.832660
	H7	H	0.281829	0.398943	0.158863
	H8	H	0.837544	0.718230	0.384677
	H9	H	0.157194	0.718277	0.600903
	H10	H	0.837917	0.275071	0.601937
	H11	H	0.158625	0.277100	0.387196
	H12	H	0.834912	0.395828	0.712362
	H13	H	0.158530	0.601243	0.713215
	H14	H	0.834874	0.595327	0.278501
	H15	H	0.161097	0.398548	0.278359
	H16	H	0.386283	0.721939	0.837589
	H17	H	0.605154	0.720718	0.155552
	H18	H	0.604607	0.275255	0.836683
	H19	H	0.389910	0.276859	0.156804
	H20	H	0.716543	0.839797	0.391934
	H21	H	0.718681	0.156304	0.598144
	H22	H	0.278332	0.838971	0.597941
	H23	H	0.278056	0.156956	0.393308
	H24	H	0.893312	0.340053	0.215379
	H25	H	0.101839	0.656063	0.215083
	H26	H	0.102378	0.341189	0.773646
	H27	H	0.888420	0.654422	0.770731
	H28	H	0.212685	0.898178	0.332039
	H29	H	0.215289	0.099390	0.657368
	H30	H	0.781712	0.097521	0.332277
	H31	H	0.780758	0.895171	0.656953
	H32	H	0.338335	0.219410	0.889344
	H33	H	0.656465	0.219970	0.105503
	H34	H	0.338384	0.774235	0.106338
	H35	H	0.655919	0.774740	0.887472
	H36	H	0.334874	0.896427	0.212501
	H37	H	0.660798	0.097007	0.210688
	H38	H	0.335912	0.100547	0.777603
	H39	H	0.659504	0.896753	0.779472
	H40	H	0.890520	0.218782	0.334651
	H41	H	0.109158	0.222525	0.652757
	H42	H	0.104363	0.776060	0.334710
	H43	H	0.887014	0.771900	0.652110
	H44	H	0.217648	0.340206	0.892673
	H45	H	0.220428	0.655187	0.101408
	H46	H	0.774845	0.340630	0.099993
	H47	H	0.772433	0.654945	0.887870
	H48	H	0.396680	0.111720	0.578413
	H49	H	0.587271	0.886254	0.588462
	H50	H	0.590435	0.110222	0.407487
	H51	H	0.406961	0.886569	0.406115
	H52	H	0.588135	0.407865	0.112060
	H53	H	0.577744	0.590165	0.882156
	H54	H	0.414219	0.588755	0.110129
	H55	H	0.406573	0.408555	0.881227
	H56	H	0.114676	0.587216	0.400705
	H57	H	0.884504	0.582692	0.577263
	H58	H	0.115310	0.402896	0.584444
	H59	H	0.883738	0.406490	0.409693
	H60	H	0.110204	0.409318	0.576935
	H61	H	0.881290	0.585265	0.585903
	H62	H	0.114702	0.593883	0.408679
	H63	H	0.882744	0.408385	0.403563
	H64	H	0.408695	0.590207	0.112017
	H65	H	0.585503	0.592294	0.879266
	H66	H	0.581577	0.408527	0.110177
	H67	H	0.413034	0.405560	0.882236
	H68	H	0.590401	0.112263	0.400924
	H69	H	0.587175	0.886433	0.585999
	H70	H	0.408779	0.113551	0.597191
	H71	H	0.402401	0.884489	0.404923
	H72	H	0.904609	0.609515	0.080425
	H73	H	0.088217	0.383788	0.091369
	H74	H	0.091035	0.611817	0.904307
	H75	H	0.906081	0.389704	0.913248
	H76	H	0.091373	0.914976	0.609340
	H77	H	0.086728	0.089399	0.379044
	H78	H	0.910529	0.088367	0.610208
	H79	H	0.906005	0.902251	0.376994
	H80	H	0.613670	0.086218	0.906409
	H81	H	0.381821	0.088557	0.080438
	H82	H	0.613007	0.905014	0.082802
	H83	H	0.381079	0.910013	0.905885
	H84	H	0.611845	0.909941	0.081898
	H85	H	0.381598	0.086303	0.087345
	H86	H	0.614329	0.091737	0.907816
	H87	H	0.381881	0.906262	0.910598
	H88	H	0.911709	0.087569	0.609408
	H89	H	0.086346	0.087716	0.380271
	H90	H	0.073562	0.905479	0.606215
	H91	H	0.906485	0.910245	0.379761
	H92	H	0.084751	0.610458	0.902350
	H93	H	0.084376	0.387723	0.083072
	H94	H	0.902841	0.612536	0.089356
	H95	H	0.898223	0.382184	0.901539
	H96	H	0.417939	0.104308	0.579630
	H97	H	0.589041	0.885361	0.586804
	H98	H	0.584866	0.110064	0.403809
	H99	H	0.406413	0.885013	0.401217
	H100	H	0.582866	0.403212	0.112349
	H101	H	0.584273	0.585257	0.882124
	H102	H	0.410038	0.585073	0.109847
	H103	H	0.407974	0.402397	0.879129
	H104	H	0.111035	0.584932	0.410467
	H105	H	0.881035	0.591464	0.578812
	H106	H	0.112268	0.413278	0.587175
	H107	H	0.880985	0.402703	0.405681
	H108	H	0.911690	0.609047	0.087298
	H109	H	0.092983	0.384554	0.083782
	H110	H	0.086718	0.609032	0.908922
	H111	H	0.913555	0.387071	0.899838
	H112	H	0.089446	0.896119	0.614608
	H113	H	0.084386	0.088747	0.379156
	H114	H	0.912277	0.089122	0.609582
	H115	H	0.913236	0.905705	0.380442
	H116	H	0.611938	0.087885	0.911351
	H117	H	0.379325	0.092464	0.085654
	H118	H	0.613506	0.908614	0.087480
	H119	H	0.383468	0.911923	0.911924
	C120	C	0.375059	0.006062	0.617709
	C121	C	0.620225	0.990177	0.618421
	C122	C	0.619115	0.006248	0.373334
	C123	C	0.374161	0.989640	0.372487
	C124	C	0.616845	0.376134	0.004765
	C125	C	0.616337	0.619623	0.987456
	C126	C	0.377070	0.619504	0.004618
	C127	C	0.376676	0.375604	0.987577
	C128	C	0.006866	0.618953	0.373653
	C129	C	0.988266	0.618560	0.614620
	C130	C	0.006188	0.376654	0.615500
	C131	C	0.989430	0.376155	0.373650
	C132	C	0.874939	0.506036	0.117044
	C133	C	0.120348	0.489597	0.117735
	C134	C	0.119324	0.506403	0.873704
	C135	C	0.873876	0.490061	0.872477
	C136	C	0.117016	0.875711	0.503143
	C137	C	0.118995	0.119743	0.485769
	C138	C	0.878474	0.118850	0.503226
	C139	C	0.875727	0.874611	0.485185
	C140	C	0.506879	0.119510	0.876187
	C141	C	0.488157	0.119001	0.116544
	C142	C	0.506221	0.876259	0.116527
	C143	C	0.488175	0.877562	0.875869
	C144	C	0.373570	0.887903	0.677555
	C145	C	0.620551	0.109500	0.676139
	C146	C	0.618409	0.886671	0.315805
	C147	C	0.374082	0.108912	0.313990
	C148	C	0.674336	0.377345	0.882213
	C149	C	0.675051	0.618258	0.109357
	C150	C	0.318704	0.617919	0.882252
	C151	C	0.319590	0.377788	0.109867
	C152	C	0.885432	0.677499	0.369211
	C153	C	0.109049	0.678376	0.618348
	C154	C	0.885738	0.315862	0.619161
	C155	C	0.110899	0.317871	0.370455
	C156	C	0.884168	0.375911	0.674194
	C157	C	0.109617	0.620084	0.674584
	C158	C	0.884094	0.616815	0.315812
	C159	C	0.111966	0.377931	0.315892
	C160	C	0.371051	0.680134	0.884586
	C161	C	0.621312	0.679590	0.107857
	C162	C	0.621074	0.316125	0.884257
	C163	C	0.373466	0.317087	0.108568
	C164	C	0.677144	0.887031	0.373221
	C165	C	0.679205	0.109062	0.618042
	C166	C	0.316774	0.886936	0.617903
	C167	C	0.316426	0.109159	0.372926
	C168	C	0.874219	0.387610	0.176076
	C169	C	0.121308	0.608490	0.176305
	C170	C	0.120874	0.388194	0.814048
	C171	C	0.870852	0.607643	0.811356
	C172	C	0.174998	0.877555	0.381093
	C173	C	0.177610	0.119562	0.607897
	C174	C	0.819528	0.118079	0.381409
	C175	C	0.817492	0.874547	0.607209
	C176	C	0.385634	0.178885	0.872313
	C177	C	0.608998	0.178766	0.121097
	C178	C	0.385925	0.815435	0.121892
	C179	C	0.608463	0.816285	0.871334
	C180	C	0.384258	0.876184	0.175105
	C181	C	0.611145	0.117768	0.173773
	C182	C	0.384797	0.119983	0.816631
	C183	C	0.610385	0.876954	0.817272
	C184	C	0.874093	0.178472	0.382536
	C185	C	0.124926	0.181248	0.605377
	C186	C	0.121078	0.816668	0.382433
	C187	C	0.870763	0.813336	0.604938
	C188	C	0.178517	0.387709	0.872991
	C189	C	0.180429	0.607988	0.119765
	C190	C	0.815091	0.387700	0.118590
	C191	C	0.812890	0.607714	0.869958
	C192	C	0.400363	0.088519	0.592284
	C193	C	0.595252	0.907452	0.594205
	C194	C	0.595409	0.089221	0.397218
	C195	C	0.398217	0.906845	0.396877
	C196	C	0.591768	0.399773	0.089395
	C197	C	0.590077	0.596000	0.903054
	C198	C	0.403400	0.595117	0.088670
	C199	C	0.401767	0.398823	0.902783
	C200	C	0.091419	0.595590	0.399286
	C201	C	0.904122	0.593499	0.588443
	C202	C	0.090648	0.401298	0.590278
	C203	C	0.904531	0.399192	0.398864
	C204	C	0.899306	0.588912	0.092848
	C205	C	0.095674	0.406866	0.093169
	C206	C	0.094704	0.588977	0.898166
	C207	C	0.898921	0.407783	0.897715
	C208	C	0.091926	0.898851	0.588002
	C209	C	0.093143	0.095721	0.401495
	C210	C	0.904126	0.095054	0.587614
	C211	C	0.901190	0.899060	0.400984
	C212	C	0.591227	0.095529	0.901355
	C213	C	0.402886	0.095603	0.091780
	C214	C	0.590768	0.900480	0.091140
	C215	C	0.404272	0.902242	0.902041
	Zn216	Zn	0.497472	-0.001234	0.748155
	Zn217	Zn	0.497492	-0.002016	0.243356
	Zn218	Zn	0.744036	0.498042	-0.004846
	Zn219	Zn	0.249766	0.498041	-0.004165
	Zn220	Zn	-0.003072	0.747096	0.493904
	Zn221	Zn	-0.001548	0.248030	0.494532
	Zn222	Zn	-0.003030	0.498512	0.743116
	Zn223	Zn	-0.001908	0.498010	0.246447
	Zn224	Zn	0.496246	0.749031	-0.003976
	Zn225	Zn	0.497466	0.247191	-0.003225
	Zn226	Zn	0.749774	-0.002069	0.494834
	Zn227	Zn	0.245166	-0.002649	0.495448
	N228	N	0.409071	0.962967	0.677608
	N229	N	0.584843	0.034274	0.676707
	N230	N	0.582871	0.961719	0.315804
	N231	N	0.409012	0.033542	0.313218
	N232	N	0.671932	0.413896	0.958223
	N233	N	0.672000	0.581677	0.033334
	N234	N	0.322462	0.580774	0.957909
	N235	N	0.321378	0.413566	0.033621
	N236	N	0.962851	0.679032	0.404324
	N237	N	0.032438	0.677776	0.581990
	N238	N	0.962726	0.316084	0.583580
	N239	N	0.033771	0.316625	0.405732
	N240	N	0.960197	0.412838	0.672204
	N241	N	0.033266	0.583657	0.672366
	N242	N	0.960385	0.580961	0.318619
	N243	N	0.035265	0.413433	0.317653
	N244	N	0.406443	0.681297	0.961614
	N245	N	0.585883	0.680718	0.030883
	N246	N	0.586340	0.315169	0.961658
	N247	N	0.408192	0.315524	0.031211
	N248	N	0.677620	0.962130	0.408554
	N249	N	0.679423	0.033791	0.583183
	N250	N	0.317542	0.961686	0.581421
	N251	N	0.316460	0.034118	0.408424
	N252	N	0.910803	0.462261	0.175069
	N253	N	0.084745	0.533853	0.175238
	N254	N	0.084967	0.462960	0.814204
	N255	N	0.907905	0.533378	0.812656
	N256	N	0.172953	0.913457	0.457281
	N257	N	0.174041	0.082021	0.532515
	N258	N	0.822136	0.081717	0.457514
	N259	N	0.820294	0.911975	0.531695
	N260	N	0.462476	0.178918	0.908335
	N261	N	0.531604	0.179810	0.086450
	N262	N	0.462899	0.815289	0.086278
	N263	N	0.531481	0.816465	0.907168
	N264	N	0.459991	0.913525	0.171973
	N265	N	0.534744	0.081286	0.171294
	N266	N	0.461059	0.083799	0.818861
	N267	N	0.534818	0.914228	0.819876
	N268	N	0.910176	0.178996	0.459282
	N269	N	0.089063	0.181601	0.528444
	N270	N	0.085605	0.815559	0.459396
	N271	N	0.905853	0.812913	0.527841
	N272	N	0.177680	0.462301	0.909539
	N273	N	0.180032	0.533178	0.083905
	N274	N	0.815417	0.462442	0.082494
	N275	N	0.814588	0.533578	0.907073
	O276	O	0.582104	0.433392	0.479132
	H277	H	0.577712	0.437639	0.488157
	H278	H	0.578960	0.451105	0.474954
	O279	O	0.493189	0.684254	0.503781
	H280	H	0.495033	0.679833	0.492120
	H281	H	0.492787	0.675993	0.501807
	O282	O	0.370433	0.579046	0.330165
	H283	H	0.362324	0.579882	0.324699
	H284	H	0.373514	0.584558	0.326434
	O285	O	0.785726	-0.212072	0.021438
	H286	H	0.764503	-0.217690	0.034560
	H287	H	0.777063	-0.209729	0.051568
	O288	O	-0.202534	0.100094	0.797513
	H289	H	-0.210650	0.075233	0.779438
	H290	H	-0.188183	0.107873	0.793536
	O291	O	0.679029	0.367054	0.546711
	H292	H	0.669891	0.357424	0.541690
	H293	H	0.685715	0.376093	0.561572
	O294	O	0.392525	0.419576	0.376652
	H295	H	0.391160	0.425311	0.378669
	H296	H	0.398331	0.408166	0.362583
	O297	O	1.077796	0.805621	1.058823
	H298	H	1.097395	0.795726	1.040312
	H299	H	1.085919	0.816012	1.064511
	O300	O	0.072548	0.013201	-0.155681
	H301	H	0.060188	0.021832	-0.169213
	H302	H	0.074992	0.031699	-0.168222
	O303	O	0.621542	0.577583	0.662372
	H304	H	0.634568	0.573355	0.656369
	H305	H	0.630377	0.601394	0.673365
	O306	O	0.928340	0.135789	0.083076
	H307	H	0.937259	0.121700	0.082172
	H308	H	0.925109	0.144167	0.095854
	O309	O	0.454687	0.352410	0.558690
	H310	H	0.446227	0.359346	0.576131
	H311	H	0.430238	0.336397	0.568677
	O312	O	1.178880	0.845022	-0.180055
	H313	H	1.187776	0.878964	-0.198284
	H314	H	1.133528	0.845100	-0.195657
	O315	O	0.349959	0.449153	0.638816
	H316	H	0.360410	0.458427	0.635265
	H317	H	0.353858	0.454964	0.643632
	O318	O	0.396741	0.417785	0.505936
	H319	H	0.378989	0.408668	0.510439
	H320	H	0.396091	0.438646	0.500902
	O321	O	1.060610	0.103100	0.921510
	H322	H	1.046406	0.098980	0.945519
	H323	H	1.049844	0.099042	0.930244
	O324	O	0.176749	0.039376	0.983024
	H325	H	0.185068	0.049583	0.975102
	H326	H	0.160122	0.025499	0.973592
	O327	O	0.479879	0.566874	0.338731
	H328	H	0.478426	0.570032	0.340532
	H329	H	0.480911	0.558306	0.328565
	O330	O	0.449507	0.542157	0.615980
	H331	H	0.462397	0.543037	0.617712
	H332	H	0.447722	0.552426	0.613354
	O333	O	0.813566	0.823513	1.175641
	H334	H	0.810840	0.845053	1.176772
	H335	H	0.845174	0.835153	1.183016
	O336	O	0.530012	0.576294	0.556492
	H337	H	0.552300	0.566583	0.556311
	H338	H	0.525055	0.582110	0.553254
	O339	O	1.132848	0.121450	1.008676
	H340	H	1.148056	0.125195	1.009787
	H341	H	1.123134	0.112537	1.034558
	O342	O	-0.187243	1.206882	0.947166
	H343	H	-0.182639	1.191842	0.926588
	H344	H	-0.191336	1.228779	0.954843
	O345	O	0.134675	1.022384	1.043261
	H346	H	0.138961	1.015621	1.025251
	H347	H	0.136214	1.016615	1.031819
	O348	O	0.480068	0.502595	0.409187
	H349	H	0.501390	0.493690	0.412298
	H350	H	0.470439	0.500723	0.413986
	O351	O	-0.000996	0.090404	0.182521
	H352	H	-0.008851	0.095001	0.169686
	H353	H	0.002657	0.107479	0.189320
	O354	O	1.161069	1.188090	0.136169
	H355	H	1.148843	1.187119	0.140908
	H356	H	1.169704	1.168665	0.148330
	O357	O	-0.039497	1.148745	-0.072210
	H358	H	-0.034197	1.141383	-0.049848
	H359	H	-0.032904	1.150594	-0.078672
	O360	O	0.346773	0.499993	0.582517
	H361	H	0.349585	0.510517	0.578591
	H362	H	0.346399	0.494136	0.585634
	O363	O	0.600932	0.656464	0.639432
	H364	H	0.606722	0.649980	0.617986
	H365	H	0.605793	0.660150	0.628173
	O366	O	0.403986	0.484508	0.415209
	H367	H	0.408981	0.480696	0.424158
	H368	H	0.392262	0.484776	0.429703
	O369	O	0.446070	0.563299	0.305652
	H370	H	0.452479	0.563704	0.312093
	H371	H	0.445282	0.562461	0.308604
	O372	O	0.379536	0.311133	0.601181
	H373	H	0.362383	0.317845	0.610052
	H374	H	0.364881	0.304924	0.600425
	O375	O	0.703868	0.633418	0.556378
	H376	H	0.728114	0.645008	0.561261
	H377	H	0.704246	0.611663	0.543970
	O378	O	0.669832	0.536634	0.448006
	H379	H	0.656625	0.525751	0.428052
	H380	H	0.664189	0.536865	0.458768
	O381	O	0.658792	0.487805	0.366880
	H382	H	0.669691	0.473379	0.351810
	H383	H	0.646232	0.476833	0.376752
	O384	O	-0.003552	1.111158	0.953644
	H385	H	0.002529	1.117493	0.943520
	H386	H	0.005501	1.099267	0.952300
	O387	O	0.805639	0.987987	-0.108432
	H388	H	0.792533	0.985941	-0.122804
	H389	H	0.806670	0.979062	-0.109048
	O390	O	0.544305	0.416078	0.434373
	H391	H	0.531755	0.405025	0.448936
	H392	H	0.545474	0.421398	0.428333
	O393	O	0.993446	-0.200000	0.801882
	H394	H	0.992265	-0.225419	0.805607
	H395	H	0.968838	-0.208867	0.821768
	O396	O	-0.002047	0.984336	1.173558
	H397	H	0.013774	0.988674	1.168215
	H398	H	0.001139	0.994649	1.168078
	O399	O	0.818371	0.744189	0.816812
	H400	H	0.803675	0.749143	0.817010
	H401	H	0.806193	0.741330	0.841586
	O402	O	1.201757	-0.209103	0.959163
	H403	H	1.223029	-0.237652	0.953791
	H404	H	1.194575	-0.191346	0.912259
	O405	O	-0.001382	0.189707	-0.087109
	H406	H	-0.010470	0.195830	-0.090947
	H407	H	-0.014393	0.208628	-0.088073
	O408	O	0.911867	0.927460	1.013376
	H409	H	0.917948	0.944954	1.017136
	H410	H	0.908778	0.917308	1.028737
	O411	O	0.819950	0.976436	0.088863
	H412	H	0.831210	0.988460	0.075491
	H413	H	0.825266	0.972631	0.104010
	O414	O	-0.021280	-0.195124	1.193342
	H415	H	-0.006111	-0.198679	1.208558
	H416	H	-0.016466	-0.190066	1.187876
	O417	O	0.613273	0.298022	0.353531
	H418	H	0.606355	0.290902	0.349229
	H419	H	0.609604	0.292459	0.373700
	O420	O	0.020057	1.121107	-0.200123
	H421	H	0.015072	1.137123	-0.192630
	H422	H	0.009295	1.117712	-0.200352
	O423	O	1.164489	0.018017	0.191187
	H424	H	1.181246	0.011109	0.196371
	H425	H	1.167854	0.005700	0.169186
	O426	O	-0.057562	-0.038892	0.827528
	H427	H	-0.049181	-0.056521	0.820940
	H428	H	-0.068672	-0.054982	0.841872
	O429	O	0.386292	0.520299	0.662532
	H430	H	0.403017	0.536543	0.668011
	H431	H	0.390045	0.536286	0.662886
