data_Molecule from HDF5

_cell_length_a		16.231697
_cell_length_b		16.207346
_cell_length_c		16.234554
_cell_angle_alpha	90.371229
_cell_angle_beta	90.274745
_cell_angle_gamma	89.848279
_symmetry_space_group_name_H-M	'P 1'
_symmetry_Int_Tables_number		1

loop_
	_symmetry_equiv_pos_as_xyz
	x,y,z

loop_
	_atom_site_label
	_atom_site_type_symbol
	_atom_site_fract_x
	_atom_site_fract_y
	_atom_site_fract_z
	H0	H	0.394121	0.836310	0.704080
	H1	H	0.593693	0.163041	0.709613
	H2	H	0.592274	0.836425	0.275728
	H3	H	0.393461	0.165243	0.279221
	H4	H	0.708468	0.399514	0.828817
	H5	H	0.708925	0.599432	0.157702
	H6	H	0.276380	0.598823	0.830494
	H7	H	0.281318	0.401296	0.157191
	H8	H	0.829267	0.713460	0.395448
	H9	H	0.157959	0.714359	0.594258
	H10	H	0.830198	0.287122	0.591588
	H11	H	0.157725	0.283674	0.394892
	H12	H	0.829995	0.403110	0.706013
	H13	H	0.157969	0.599768	0.710110
	H14	H	0.830182	0.598814	0.278895
	H15	H	0.157979	0.399044	0.279291
	H16	H	0.393667	0.711213	0.827931
	H17	H	0.593768	0.717236	0.156259
	H18	H	0.593047	0.285113	0.828497
	H19	H	0.397879	0.287011	0.156659
	H20	H	0.707618	0.835491	0.392436
	H21	H	0.707563	0.163719	0.593847
	H22	H	0.279452	0.836557	0.589176
	H23	H	0.276994	0.164134	0.392709
	H24	H	0.895799	0.334761	0.207102
	H25	H	0.093998	0.663228	0.210351
	H26	H	0.094065	0.335926	0.778933
	H27	H	0.894413	0.663981	0.780554
	H28	H	0.206552	0.899901	0.328066
	H29	H	0.210134	0.100389	0.655568
	H30	H	0.778086	0.097630	0.329148
	H31	H	0.778846	0.901080	0.656924
	H32	H	0.330414	0.214923	0.893369
	H33	H	0.658412	0.213434	0.091073
	H34	H	0.329168	0.786708	0.088683
	H35	H	0.657585	0.784246	0.892657
	H36	H	0.328937	0.903010	0.204549
	H37	H	0.656939	0.100658	0.209227
	H38	H	0.329217	0.098070	0.778334
	H39	H	0.657061	0.899014	0.776269
	H40	H	0.893519	0.214570	0.329883
	H41	H	0.092588	0.213637	0.657671
	H42	H	0.093040	0.781858	0.330488
	H43	H	0.897746	0.789486	0.658970
	H44	H	0.207282	0.335332	0.896111
	H45	H	0.209394	0.663397	0.094875
	H46	H	0.780904	0.335115	0.090977
	H47	H	0.779059	0.663405	0.896550
	H48	H	0.387646	0.119051	0.575217
	H49	H	0.594914	0.880382	0.580355
	H50	H	0.587759	0.114296	0.412183
	H51	H	0.396380	0.884587	0.404647
	H52	H	0.586976	0.407051	0.109835
	H53	H	0.586555	0.587428	0.877115
	H54	H	0.397810	0.600937	0.113556
	H55	H	0.396585	0.403705	0.873331
	H56	H	0.111392	0.596495	0.404378
	H57	H	0.877124	0.588607	0.589702
	H58	H	0.111620	0.407395	0.585437
	H59	H	0.879660	0.414390	0.403754
	H60	H	0.111084	0.408645	0.588538
	H61	H	0.874205	0.598808	0.592051
	H62	H	0.108287	0.587461	0.407335
	H63	H	0.875551	0.407463	0.394400
	H64	H	0.398440	0.586079	0.108859
	H65	H	0.583164	0.592936	0.876674
	H66	H	0.589178	0.405662	0.110849
	H67	H	0.398955	0.412313	0.877187
	H68	H	0.594666	0.122018	0.394215
	H69	H	0.582691	0.880940	0.592134
	H70	H	0.400718	0.122561	0.600117
	H71	H	0.397000	0.880081	0.391600
	H72	H	0.909152	0.614714	0.087880
	H73	H	0.088635	0.379987	0.093321
	H74	H	0.092398	0.617552	0.907888
	H75	H	0.903805	0.381912	0.897549
	H76	H	0.088406	0.913368	0.608594
	H77	H	0.096117	0.088671	0.373055
	H78	H	0.892032	0.085687	0.610537
	H79	H	0.898566	0.911021	0.377755
	H80	H	0.611196	0.090209	0.898179
	H81	H	0.377249	0.091359	0.085006
	H82	H	0.614211	0.897916	0.086053
	H83	H	0.373508	0.911321	0.884618
	H84	H	0.605485	0.911886	0.072303
	H85	H	0.374606	0.096135	0.088900
	H86	H	0.612594	0.094105	0.899150
	H87	H	0.373306	0.893253	0.898489
	H88	H	0.911349	0.090622	0.606821
	H89	H	0.076776	0.083555	0.380541
	H90	H	0.083676	0.905388	0.609848
	H91	H	0.905751	0.904804	0.377829
	H92	H	0.087474	0.620311	0.894269
	H93	H	0.083628	0.383779	0.084936
	H94	H	0.899093	0.615268	0.081204
	H95	H	0.901132	0.381983	0.901124
	H96	H	0.414998	0.112007	0.578433
	H97	H	0.579498	0.886894	0.575926
	H98	H	0.574852	0.115601	0.395870
	H99	H	0.408261	0.884903	0.397458
	H100	H	0.589403	0.408883	0.110558
	H101	H	0.590561	0.592026	0.875307
	H102	H	0.411359	0.595405	0.108423
	H103	H	0.405545	0.406027	0.876116
	H104	H	0.111281	0.588997	0.398427
	H105	H	0.878286	0.596624	0.581798
	H106	H	0.112496	0.405132	0.587402
	H107	H	0.876930	0.402364	0.404645
	H108	H	0.898904	0.619167	0.092565
	H109	H	0.092938	0.381537	0.083259
	H110	H	0.078806	0.614489	0.904156
	H111	H	0.899342	0.381026	0.897031
	H112	H	0.092698	0.906002	0.612651
	H113	H	0.080871	0.103641	0.373249
	H114	H	0.898108	0.105042	0.614740
	H115	H	0.897544	0.902035	0.374137
	H116	H	0.610931	0.091209	0.901758
	H117	H	0.375777	0.097896	0.081819
	H118	H	0.609121	0.917256	0.091826
	H119	H	0.381845	0.913290	0.907128
	C120	C	0.372616	0.009269	0.612219
	C121	C	0.615009	0.991010	0.613796
	C122	C	0.614757	0.008712	0.370678
	C123	C	0.371257	0.991715	0.369520
	C124	C	0.616840	0.377647	0.001808
	C125	C	0.615982	0.621112	0.984494
	C126	C	0.372539	0.621584	0.001707
	C127	C	0.373158	0.378847	0.984400
	C128	C	0.002086	0.620696	0.373386
	C129	C	0.985226	0.622787	0.616966
	C130	C	0.003080	0.378761	0.615346
	C131	C	0.985476	0.378186	0.372147
	C132	C	0.873598	0.507651	0.115132
	C133	C	0.116961	0.490580	0.116619
	C134	C	0.114982	0.508733	0.873037
	C135	C	0.872411	0.490783	0.871390
	C136	C	0.115820	0.878156	0.501849
	C137	C	0.114444	0.121338	0.484133
	C138	C	0.871123	0.121896	0.502213
	C139	C	0.872320	0.878481	0.485153
	C140	C	0.502659	0.120712	0.871127
	C141	C	0.484781	0.123201	0.114075
	C142	C	0.501460	0.879673	0.112372
	C143	C	0.484528	0.876795	0.868450
	C144	C	0.374559	0.885341	0.666318
	C145	C	0.613517	0.114069	0.671067
	C146	C	0.612713	0.885258	0.313995
	C147	C	0.372997	0.115760	0.315771
	C148	C	0.671309	0.379315	0.878137
	C149	C	0.671345	0.619767	0.108407
	C150	C	0.315199	0.618786	0.878968
	C151	C	0.319053	0.381417	0.107995
	C152	C	0.878560	0.675864	0.375122
	C153	C	0.108898	0.677153	0.614465
	C154	C	0.879083	0.324797	0.611923
	C155	C	0.108976	0.321852	0.374816
	C156	C	0.879114	0.382247	0.669147
	C157	C	0.108896	0.620236	0.672251
	C158	C	0.879198	0.618998	0.316822
	C159	C	0.109188	0.379292	0.317352
	C160	C	0.373747	0.674659	0.877698
	C161	C	0.614137	0.678464	0.107462
	C162	C	0.613727	0.322602	0.877836
	C163	C	0.376987	0.324524	0.107695
	C164	C	0.670232	0.885031	0.371892
	C165	C	0.670082	0.114444	0.613433
	C166	C	0.317416	0.885560	0.609232
	C167	C	0.315048	0.115140	0.372119
	C168	C	0.875617	0.384027	0.169687
	C169	C	0.114214	0.614269	0.172155
	C170	C	0.113513	0.384873	0.817283
	C171	C	0.874489	0.614764	0.818053
	C172	C	0.169355	0.879814	0.377576
	C173	C	0.171004	0.119886	0.607122
	C174	C	0.815795	0.118717	0.378437
	C175	C	0.817220	0.881288	0.608486
	C176	C	0.379097	0.176659	0.873200
	C177	C	0.609018	0.176724	0.111768
	C178	C	0.378108	0.824447	0.109464
	C179	C	0.608384	0.821761	0.871861
	C180	C	0.377875	0.882448	0.166876
	C181	C	0.608233	0.120715	0.170472
	C182	C	0.378496	0.118593	0.815976
	C183	C	0.608034	0.878721	0.813805
	C184	C	0.873265	0.176500	0.378695
	C185	C	0.112666	0.176195	0.608072
	C186	C	0.113114	0.820918	0.378735
	C187	C	0.876070	0.825509	0.609437
	C188	C	0.169940	0.384653	0.875408
	C189	C	0.171680	0.614328	0.115176
	C190	C	0.818478	0.384130	0.112053
	C191	C	0.816994	0.614565	0.875460
	C192	C	0.394668	0.095571	0.590875
	C193	C	0.592442	0.904926	0.589799
	C194	C	0.592304	0.095121	0.393811
	C195	C	0.394052	0.905355	0.391233
	C196	C	0.594771	0.400441	0.088125
	C197	C	0.593402	0.597657	0.898563
	C198	C	0.395797	0.600284	0.087918
	C199	C	0.394238	0.400791	0.897920
	C200	C	0.088041	0.597742	0.396616
	C201	C	0.898810	0.601071	0.594628
	C202	C	0.089436	0.400670	0.593561
	C203	C	0.899776	0.401274	0.394322
	C204	C	0.895686	0.593946	0.093524
	C205	C	0.095027	0.404147	0.093769
	C206	C	0.092791	0.595280	0.895529
	C207	C	0.894741	0.404113	0.892459
	C208	C	0.094640	0.901278	0.588032
	C209	C	0.091294	0.098619	0.397951
	C210	C	0.893783	0.100150	0.588521
	C211	C	0.894121	0.899650	0.399029
	C212	C	0.589030	0.098496	0.893188
	C213	C	0.398190	0.101655	0.091793
	C214	C	0.587436	0.902348	0.090104
	C215	C	0.398371	0.899118	0.890289
	Zn216	Zn	0.493584	-0.000250	0.741326
	Zn217	Zn	0.493055	0.001197	0.241819
	Zn218	Zn	0.744722	0.499029	-0.006302
	Zn219	Zn	0.243916	0.500178	-0.005908
	Zn220	Zn	-0.006140	0.749924	0.494745
	Zn221	Zn	-0.006399	0.250340	0.494023
	Zn222	Zn	-0.005677	0.500057	0.743760
	Zn223	Zn	-0.005485	0.499397	0.243761
	Zn224	Zn	0.493427	0.749768	-0.008577
	Zn225	Zn	0.494899	0.250346	-0.008169
	Zn226	Zn	0.743063	-0.000256	0.493098
	Zn227	Zn	0.243964	0.000428	0.491572
	N228	N	0.408205	0.963218	0.668444
	N229	N	0.579565	0.036282	0.671208
	N230	N	0.579106	0.963365	0.313057
	N231	N	0.407563	0.037989	0.314141
	N232	N	0.673497	0.412851	0.956394
	N233	N	0.672541	0.584869	0.030855
	N234	N	0.314352	0.586429	0.957184
	N235	N	0.316333	0.414477	0.030118
	N236	N	0.956129	0.676864	0.409744
	N237	N	0.031020	0.678643	0.580692
	N238	N	0.956995	0.322517	0.579453
	N239	N	0.030997	0.320796	0.408088
	N240	N	0.957189	0.415243	0.671139
	N241	N	0.031130	0.586965	0.673591
	N242	N	0.957167	0.585692	0.315656
	N243	N	0.031596	0.413446	0.315492
	N244	N	0.408749	0.676436	0.955011
	N245	N	0.580647	0.679423	0.029459
	N246	N	0.580766	0.321356	0.955669
	N247	N	0.409965	0.323024	0.029872
	N248	N	0.671269	0.962773	0.406606
	N249	N	0.670771	0.037042	0.578325
	N250	N	0.316176	0.963618	0.576115
	N251	N	0.313802	0.037173	0.404774
	N252	N	0.909342	0.461828	0.171535
	N253	N	0.081277	0.536115	0.173460
	N254	N	0.080037	0.462971	0.815703
	N255	N	0.908077	0.536709	0.815374
	N256	N	0.171248	0.914765	0.455113
	N257	N	0.172284	0.086417	0.529120
	N258	N	0.814378	0.085666	0.456242
	N259	N	0.814704	0.913477	0.530296
	N260	N	0.457120	0.177949	0.906640
	N261	N	0.531425	0.178221	0.077450
	N262	N	0.455903	0.822951	0.076012
	N263	N	0.530581	0.820509	0.905024
	N264	N	0.455612	0.916124	0.168760
	N265	N	0.529953	0.088145	0.172094
	N266	N	0.456301	0.084667	0.814463
	N267	N	0.530095	0.912342	0.811729
	N268	N	0.906991	0.178752	0.456689
	N269	N	0.078000	0.177010	0.530493
	N270	N	0.080500	0.819872	0.456794
	N271	N	0.909883	0.823653	0.531871
	N272	N	0.170966	0.462716	0.909483
	N273	N	0.173523	0.536557	0.081259
	N274	N	0.817197	0.461990	0.078755
	N275	N	0.815834	0.536486	0.907979
	O276	O	0.509107	0.543947	0.622258
	H277	H	0.513505	0.542104	0.627284
	H278	H	0.523844	0.542695	0.626035
	O279	O	0.540116	0.495234	0.460649
	H280	H	0.543527	0.499246	0.459184
	H281	H	0.540893	0.500790	0.459668
	O282	O	0.558433	0.495972	0.426009
	H283	H	0.555067	0.504453	0.424841
	H284	H	0.546252	0.487963	0.418496
	O285	O	0.117957	0.809813	1.176214
	H286	H	0.124756	0.813628	1.168237
	H287	H	0.118990	0.807399	1.171262
	O288	O	0.468281	0.575056	0.468807
	H289	H	0.462915	0.577273	0.473742
	H290	H	0.464918	0.573875	0.469543
	O291	O	-0.050875	0.021044	1.037448
	H292	H	-0.048448	0.016267	1.044659
	H293	H	-0.054731	0.026578	1.043474
	O294	O	0.970335	0.936791	1.088269
	H295	H	0.968335	0.926971	1.092600
	H296	H	0.965742	0.925915	1.091657
	O297	O	0.501385	0.468794	0.471581
	H298	H	0.507436	0.462136	0.465951
	H299	H	0.501067	0.472876	0.468155
	O300	O	0.479530	0.461247	0.586333
	H301	H	0.484066	0.449051	0.585963
	H302	H	0.483965	0.462782	0.596651
	O303	O	0.511963	0.466405	0.543431
	H304	H	0.506483	0.452793	0.540025
	H305	H	0.510758	0.463208	0.544317
	O306	O	1.476442	0.526904	0.437962
	H307	H	1.485654	0.535356	0.434540
	H308	H	1.466930	0.526855	0.443283
	O309	O	0.505052	0.560685	0.510257
	H310	H	0.501329	0.551738	0.504485
	H311	H	0.497123	0.554604	0.499750
	O312	O	0.514948	0.452310	0.510877
	H313	H	0.510931	0.449764	0.504011
	H314	H	0.506297	0.455661	0.508313
	O315	O	0.965026	-0.020912	1.065545
	H316	H	0.972795	-0.017334	1.059111
	H317	H	0.964900	-0.020615	1.069686
	O318	O	-0.551501	-0.459478	0.491060
	H319	H	-0.538970	-0.450244	0.496510
	H320	H	-0.553573	-0.464641	0.489434
	O321	O	0.520953	0.608314	0.466642
	H322	H	0.530468	0.608751	0.468603
	H323	H	0.519395	0.614036	0.458291
	O324	O	0.966595	-0.004382	0.020969
	H325	H	0.960570	-0.003009	0.014017
	H326	H	0.971167	-0.003210	0.015441
	O327	O	0.928602	0.957501	0.018463
	H328	H	0.927636	0.956325	0.010715
	H329	H	0.929574	0.960905	0.030706
	O330	O	0.576529	0.539514	0.532814
	H331	H	0.582431	0.539021	0.525986
	H332	H	0.583545	0.538968	0.547050
	O333	O	0.479415	0.446683	0.383533
	H334	H	0.473409	0.450277	0.383313
	H335	H	0.470643	0.455692	0.380558
