data_Molecule from HDF5

_cell_length_a		16.354109
_cell_length_b		16.418844
_cell_length_c		16.258697
_cell_angle_alpha	90.260566
_cell_angle_beta	90.170697
_cell_angle_gamma	90.087186
_symmetry_space_group_name_H-M	'P 1'
_symmetry_Int_Tables_number		1

loop_
	_symmetry_equiv_pos_as_xyz
	x,y,z

loop_
	_atom_site_label
	_atom_site_type_symbol
	_atom_site_fract_x
	_atom_site_fract_y
	_atom_site_fract_z
	H0	H	0.378529	0.836297	0.711760
	H1	H	0.583987	0.156814	0.714984
	H2	H	0.580103	0.837102	0.275121
	H3	H	0.375090	0.156728	0.275011
	H4	H	0.701063	0.394659	0.833363
	H5	H	0.699672	0.601694	0.157733
	H6	H	0.263628	0.596879	0.833895
	H7	H	0.262487	0.391620	0.155469
	H8	H	0.820211	0.714019	0.389566
	H9	H	0.139889	0.718795	0.599833
	H10	H	0.822510	0.274094	0.602795
	H11	H	0.142144	0.275327	0.392354
	H12	H	0.821477	0.393766	0.715262
	H13	H	0.143446	0.598851	0.713025
	H14	H	0.821279	0.596696	0.275746
	H15	H	0.144018	0.394764	0.279479
	H16	H	0.379153	0.710708	0.832314
	H17	H	0.583668	0.717491	0.156454
	H18	H	0.587416	0.276732	0.834044
	H19	H	0.375178	0.274635	0.153651
	H20	H	0.697978	0.836955	0.389352
	H21	H	0.701398	0.156358	0.601042
	H22	H	0.260412	0.836900	0.597161
	H23	H	0.258533	0.155854	0.390661
	H24	H	0.880556	0.335668	0.211366
	H25	H	0.086420	0.657464	0.215742
	H26	H	0.088140	0.338693	0.771584
	H27	H	0.878847	0.656362	0.776321
	H28	H	0.197939	0.891499	0.332904
	H29	H	0.200600	0.100366	0.654927
	H30	H	0.763317	0.097085	0.333140
	H31	H	0.762754	0.894684	0.656070
	H32	H	0.322724	0.219172	0.887335
	H33	H	0.640544	0.219260	0.102028
	H34	H	0.319199	0.777772	0.096666
	H35	H	0.641362	0.779089	0.891685
	H36	H	0.317908	0.895542	0.210719
	H37	H	0.640848	0.099444	0.214280
	H38	H	0.318895	0.096987	0.777776
	H39	H	0.641617	0.897417	0.778004
	H40	H	0.874969	0.215260	0.334653
	H41	H	0.086330	0.216916	0.654822
	H42	H	0.081129	0.778006	0.332446
	H43	H	0.875598	0.777469	0.654628
	H44	H	0.203532	0.338134	0.888941
	H45	H	0.201990	0.656990	0.099017
	H46	H	0.757901	0.339631	0.103191
	H47	H	0.764744	0.657687	0.893935
	H48	H	0.386660	0.109170	0.577560
	H49	H	0.573271	0.881281	0.585587
	H50	H	0.575113	0.113839	0.401269
	H51	H	0.390363	0.885103	0.408763
	H52	H	0.564151	0.408758	0.107366
	H53	H	0.581177	0.597096	0.874380
	H54	H	0.385930	0.587199	0.112417
	H55	H	0.392778	0.410373	0.880751
	H56	H	0.097615	0.589578	0.403434
	H57	H	0.866690	0.588297	0.584349
	H58	H	0.097724	0.407942	0.590373
	H59	H	0.867261	0.403598	0.406035
	H60	H	0.096268	0.399821	0.579855
	H61	H	0.867421	0.585464	0.584233
	H62	H	0.095730	0.589899	0.409356
	H63	H	0.868815	0.406992	0.406149
	H64	H	0.396921	0.582952	0.108243
	H65	H	0.578349	0.577631	0.882001
	H66	H	0.573881	0.404443	0.110702
	H67	H	0.395142	0.409002	0.881094
	H68	H	0.564980	0.109782	0.403398
	H69	H	0.567779	0.883516	0.585195
	H70	H	0.386314	0.113333	0.590286
	H71	H	0.383567	0.881144	0.401860
	H72	H	0.882025	0.615238	0.088727
	H73	H	0.082173	0.380962	0.083590
	H74	H	0.076789	0.610265	0.910740
	H75	H	0.890363	0.386316	0.916415
	H76	H	0.063071	0.905334	0.607927
	H77	H	0.068366	0.085344	0.379695
	H78	H	0.884189	0.084213	0.611786
	H79	H	0.885832	0.903884	0.377340
	H80	H	0.596238	0.091692	0.906952
	H81	H	0.365596	0.090572	0.083780
	H82	H	0.594324	0.904979	0.083300
	H83	H	0.362807	0.899744	0.899857
	H84	H	0.593266	0.908873	0.082792
	H85	H	0.367194	0.089120	0.078765
	H86	H	0.593689	0.084205	0.908123
	H87	H	0.366375	0.901559	0.907441
	H88	H	0.895249	0.081352	0.607549
	H89	H	0.068535	0.084757	0.379573
	H90	H	0.073675	0.903893	0.611467
	H91	H	0.888471	0.906515	0.378699
	H92	H	0.072355	0.611508	0.900822
	H93	H	0.071736	0.380521	0.094416
	H94	H	0.899401	0.611861	0.094650
	H95	H	0.884296	0.379380	0.901360
	H96	H	0.397699	0.108690	0.584918
	H97	H	0.571476	0.884275	0.581328
	H98	H	0.572877	0.109797	0.411458
	H99	H	0.392390	0.882744	0.398956
	H100	H	0.572948	0.415544	0.108277
	H101	H	0.562137	0.591126	0.882372
	H102	H	0.395612	0.594556	0.111706
	H103	H	0.392254	0.407493	0.880213
	H104	H	0.094884	0.584818	0.406097
	H105	H	0.866209	0.586604	0.586635
	H106	H	0.091803	0.412086	0.579174
	H107	H	0.867426	0.405759	0.403273
	H108	H	0.894121	0.606562	0.077365
	H109	H	0.068644	0.386600	0.080792
	H110	H	0.066752	0.607659	0.909124
	H111	H	0.901123	0.384520	0.902165
	H112	H	0.071048	0.913566	0.606911
	H113	H	0.068130	0.085014	0.380159
	H114	H	0.893218	0.092885	0.611948
	H115	H	0.889898	0.903020	0.378906
	H116	H	0.596692	0.086179	0.901148
	H117	H	0.367128	0.085364	0.083522
	H118	H	0.594589	0.907460	0.086597
	H119	H	0.364791	0.907671	0.901201
	C120	C	0.358774	0.005043	0.615505
	C121	C	0.602321	0.988459	0.616398
	C122	C	0.601237	0.005339	0.373380
	C123	C	0.357329	0.988477	0.372333
	C124	C	0.602980	0.377320	0.002996
	C125	C	0.603858	0.619430	0.986720
	C126	C	0.361057	0.617750	0.003788
	C127	C	0.361282	0.376483	0.986277
	C128	C	-0.010036	0.617894	0.373811
	C129	C	0.972968	0.618047	0.616440
	C130	C	-0.010018	0.374992	0.616505
	C131	C	0.973664	0.374093	0.374035
	C132	C	0.860346	0.505574	0.117734
	C133	C	0.105088	0.488502	0.117729
	C134	C	0.103699	0.504718	0.874227
	C135	C	0.860758	0.488828	0.874995
	C136	C	0.100297	0.875525	0.502305
	C137	C	0.100814	0.116679	0.486084
	C138	C	0.859239	0.117503	0.503935
	C139	C	0.857521	0.874239	0.485201
	C140	C	0.489589	0.118126	0.873503
	C141	C	0.472217	0.119462	0.115250
	C142	C	0.487792	0.876096	0.114826
	C143	C	0.471484	0.874019	0.872391
	C144	C	0.358798	0.884473	0.672897
	C145	C	0.603129	0.108693	0.675912
	C146	C	0.600193	0.884851	0.314225
	C147	C	0.355958	0.108796	0.313996
	C148	C	0.661980	0.375758	0.881858
	C149	C	0.661027	0.620384	0.108827
	C150	C	0.302603	0.616665	0.882079
	C151	C	0.301811	0.373712	0.107139
	C152	C	0.868676	0.674876	0.371654
	C153	C	0.092751	0.678299	0.618312
	C154	C	0.869997	0.314880	0.619752
	C155	C	0.094374	0.315198	0.373236
	C156	C	0.869698	0.374193	0.676169
	C157	C	0.094301	0.618596	0.674474
	C158	C	0.869208	0.616445	0.314777
	C159	C	0.095221	0.374601	0.317087
	C160	C	0.360479	0.672953	0.881091
	C161	C	0.603415	0.678118	0.108448
	C162	C	0.605284	0.317293	0.881865
	C163	C	0.358061	0.315497	0.106234
	C164	C	0.658547	0.884800	0.371509
	C165	C	0.661485	0.108545	0.618930
	C166	C	0.299954	0.884599	0.615884
	C167	C	0.297708	0.108210	0.371275
	C168	C	0.860465	0.384516	0.174001
	C169	C	0.105341	0.609003	0.176409
	C170	C	0.106073	0.385759	0.812694
	C171	C	0.860121	0.608788	0.816101
	C172	C	0.158747	0.873548	0.381266
	C173	C	0.160903	0.118848	0.606967
	C174	C	0.801246	0.117299	0.382145
	C175	C	0.800617	0.875025	0.607098
	C176	C	0.369680	0.178267	0.870204
	C177	C	0.592532	0.179051	0.118918
	C178	C	0.367161	0.817363	0.115245
	C179	C	0.592946	0.817727	0.872458
	C180	C	0.366316	0.876354	0.171820
	C181	C	0.592626	0.119469	0.175069
	C182	C	0.367776	0.117527	0.815757
	C183	C	0.593029	0.876353	0.815619
	C184	C	0.857260	0.175780	0.382834
	C185	C	0.104077	0.176722	0.607038
	C186	C	0.100539	0.816804	0.380972
	C187	C	0.856695	0.816546	0.606529
	C188	C	0.163551	0.385561	0.870890
	C189	C	0.163110	0.609065	0.118472
	C190	C	0.799493	0.386411	0.119901
	C191	C	0.803219	0.609315	0.874634
	C192	C	0.383069	0.088606	0.591362
	C193	C	0.577942	0.904698	0.591358
	C194	C	0.577826	0.089224	0.398247
	C195	C	0.381636	0.904942	0.396320
	C196	C	0.577754	0.402244	0.086858
	C197	C	0.580765	0.595505	0.901752
	C198	C	0.385616	0.594798	0.088686
	C199	C	0.386264	0.401592	0.902548
	C200	C	0.074075	0.594960	0.399099
	C201	C	0.888722	0.593749	0.592078
	C202	C	0.073362	0.399425	0.590801
	C203	C	0.889724	0.398288	0.398200
	C204	C	0.884711	0.589386	0.093746
	C205	C	0.081133	0.404552	0.093334
	C206	C	0.078932	0.588204	0.899671
	C207	C	0.885050	0.405087	0.899454
	C208	C	0.076209	0.900438	0.586860
	C209	C	0.075483	0.092127	0.401729
	C210	C	0.883902	0.093303	0.588497
	C211	C	0.881140	0.897666	0.400334
	C212	C	0.573468	0.094193	0.898117
	C213	C	0.388313	0.095282	0.089426
	C214	C	0.572165	0.900197	0.091140
	C215	C	0.386672	0.896495	0.896036
	Zn216	Zn	0.480356	-0.003067	0.744711
	Zn217	Zn	0.478970	-0.002429	0.243946
	Zn218	Zn	0.732052	0.497750	-0.004243
	Zn219	Zn	0.233198	0.496983	-0.004498
	Zn220	Zn	-0.020054	0.746952	0.494421
	Zn221	Zn	-0.019239	0.245563	0.495010
	Zn222	Zn	-0.018073	0.496644	0.745202
	Zn223	Zn	-0.017442	0.495681	0.245586
	Zn224	Zn	0.480804	0.746077	-0.005868
	Zn225	Zn	0.481790	0.248171	-0.006041
	Zn226	Zn	0.730555	-0.002842	0.494787
	Zn227	Zn	0.229073	-0.003620	0.494163
	N228	N	0.394532	0.960135	0.672687
	N229	N	0.566849	0.033069	0.674387
	N230	N	0.564961	0.960756	0.315383
	N231	N	0.392225	0.033408	0.314464
	N232	N	0.660728	0.412180	0.958097
	N233	N	0.661447	0.584859	0.032211
	N234	N	0.302934	0.583084	0.959332
	N235	N	0.303712	0.410947	0.031624
	N236	N	0.944731	0.675910	0.407655
	N237	N	0.016075	0.678442	0.583364
	N238	N	0.945769	0.315402	0.583082
	N239	N	0.017808	0.314714	0.407847
	N240	N	0.945297	0.410611	0.674392
	N241	N	0.018638	0.582053	0.673434
	N242	N	0.945596	0.581826	0.315944
	N243	N	0.019150	0.410438	0.317332
	N244	N	0.396091	0.673801	0.957795
	N245	N	0.568791	0.677906	0.031387
	N246	N	0.569255	0.317789	0.958224
	N247	N	0.394408	0.317085	0.030177
	N248	N	0.659344	0.960759	0.407446
	N249	N	0.661018	0.032820	0.582612
	N250	N	0.299613	0.960792	0.581021
	N251	N	0.298227	0.032316	0.406552
	N252	N	0.897582	0.459606	0.172845
	N253	N	0.070048	0.532892	0.176126
	N254	N	0.069306	0.460815	0.814898
	N255	N	0.895381	0.532959	0.816304
	N256	N	0.158496	0.909633	0.457737
	N257	N	0.159055	0.082236	0.530853
	N258	N	0.802442	0.081791	0.458507
	N259	N	0.800850	0.909938	0.530499
	N260	N	0.446348	0.178924	0.905341
	N261	N	0.516588	0.179056	0.082388
	N262	N	0.443793	0.817156	0.080673
	N263	N	0.516237	0.816035	0.906737
	N264	N	0.442210	0.912396	0.171676
	N265	N	0.516675	0.083450	0.173122
	N266	N	0.443212	0.080839	0.817430
	N267	N	0.516282	0.910239	0.815153
	N268	N	0.892463	0.176268	0.459765
	N269	N	0.067334	0.175358	0.530902
	N270	N	0.064776	0.818148	0.457349
	N271	N	0.891084	0.815460	0.529471
	N272	N	0.161908	0.460483	0.908722
	N273	N	0.163284	0.533024	0.082954
	N274	N	0.799138	0.462815	0.085673
	N275	N	0.803289	0.533497	0.910225
	O276	O	1.051640	0.043147	-0.178095
	H277	H	1.057579	0.048782	-0.163206
	H278	H	1.054093	0.044192	-0.178980
	O279	O	0.383173	0.520246	0.598828
	H280	H	0.383970	0.516028	0.604994
	H281	H	0.379279	0.504023	0.600440
	O282	O	0.555991	0.328783	0.298747
	H283	H	0.579895	0.342212	0.291027
	H284	H	0.548231	0.315336	0.287759
	O285	O	1.152172	0.106003	0.073219
	H286	H	1.149015	0.102215	0.084718
	H287	H	1.161896	0.105413	0.083216
	O288	O	0.150980	0.154563	1.133521
	H289	H	0.128968	0.148745	1.131939
	H290	H	0.154085	0.149685	1.134013
	O291	O	0.646439	0.420547	0.323040
	H292	H	0.642315	0.437352	0.307497
	H293	H	0.657392	0.428149	0.315266
	O294	O	0.493173	0.320896	0.546976
	H295	H	0.481679	0.317273	0.550328
	H296	H	0.501451	0.328911	0.558342
	O297	O	0.980720	0.812881	1.038358
	H298	H	0.975253	0.817966	1.016915
	H299	H	0.973670	0.814124	1.042091
	O300	O	0.120227	-0.047237	-0.161239
	H301	H	0.124770	-0.049400	-0.179394
	H302	H	0.115810	-0.052322	-0.153807
	O303	O	0.459914	0.390720	0.641436
	H304	H	0.464114	0.390078	0.647745
	H305	H	0.477286	0.388593	0.640440
	O306	O	0.809421	0.011588	-0.191185
	H307	H	0.828768	0.001700	-0.176778
	H308	H	0.800313	0.009839	-0.190176
	O309	O	0.987392	1.102700	0.862324
	H310	H	1.011783	1.111313	0.863348
	H311	H	0.994918	1.109245	0.846383
	O312	O	1.147293	0.894294	-0.017484
	H313	H	1.149349	0.873514	-0.012389
	H314	H	1.133533	0.911431	0.001281
	O315	O	0.880451	-0.176649	0.022812
	H316	H	0.875044	-0.175853	0.016712
	H317	H	0.877271	-0.166295	0.027699
	O318	O	0.487536	0.487785	0.558012
	H319	H	0.503773	0.471218	0.554117
	H320	H	0.487032	0.484511	0.549022
	O321	O	1.051644	-0.140089	1.115207
	H322	H	1.039832	-0.146447	1.116582
	H323	H	1.053822	-0.138833	1.112712
	O324	O	0.087695	-0.189322	0.807542
	H325	H	0.106928	-0.196578	0.803854
	H326	H	0.097057	-0.190892	0.821113
	O327	O	0.463013	0.655138	0.531982
	H328	H	0.471768	0.654392	0.541905
	H329	H	0.449620	0.656509	0.516175
	O330	O	0.866133	-0.098763	0.889852
	H331	H	0.883039	-0.095620	0.902167
	H332	H	0.865625	-0.079356	0.892475
	O333	O	1.591073	1.519863	0.570274
	H334	H	1.614029	1.527022	0.592798
	H335	H	1.577291	1.523823	0.564391
	O336	O	0.559825	0.558842	0.471180
	H337	H	0.556545	0.554718	0.475425
	H338	H	0.556074	0.566578	0.479067
	O339	O	0.851044	0.086419	1.141026
	H340	H	0.848452	0.089672	1.127980
	H341	H	0.868309	0.099169	1.138313
	O342	O	0.105782	0.974195	1.187128
	H343	H	0.097810	0.978330	1.184416
	H344	H	0.101650	0.951784	1.192265
	O345	O	0.512577	0.477502	1.558803
	H346	H	0.502903	0.491371	1.547921
	H347	H	0.512019	0.454996	1.548538
	O348	O	0.318844	0.579119	0.414861
	H349	H	0.315880	0.572419	0.404890
	H350	H	0.338281	0.585830	0.404399
	O351	O	-0.147398	0.170049	-0.187386
	H352	H	-0.143453	0.153058	-0.196702
	H353	H	-0.133898	0.164857	-0.202587
	O354	O	0.814780	0.816265	0.140318
	H355	H	0.809708	0.813474	0.136919
	H356	H	0.796058	0.817321	0.145410
	O357	O	0.060730	0.948846	-0.027006
	H358	H	0.059809	0.944365	-0.028373
	H359	H	0.062759	0.947832	-0.040021
	O360	O	0.682805	0.337296	0.427333
	H361	H	0.687714	0.334932	0.410493
	H362	H	0.693055	0.335603	0.429255
	O363	O	0.527658	0.563158	0.375266
	H364	H	0.532853	0.562582	0.384712
	H365	H	0.528640	0.560950	0.390479
	O366	O	-0.029344	1.042487	-0.025869
	H367	H	-0.017821	1.032035	-0.038914
	H368	H	-0.030460	1.049332	-0.010085
	O369	O	0.439864	0.352332	0.423859
	H370	H	0.446189	0.338989	0.415842
	H371	H	0.436819	0.368288	0.411350
	O372	O	0.583309	0.464989	0.478243
	H373	H	0.576665	0.485248	0.483381
	H374	H	0.590089	0.456702	0.479820
	O375	O	0.429771	0.646621	0.542205
	H376	H	0.426730	0.641233	0.539747
	H377	H	0.432835	0.647075	0.544039
	O378	O	0.453984	0.428932	0.384362
	H379	H	0.461077	0.437892	0.377904
	H380	H	0.450230	0.430702	0.396310
	O381	O	0.387021	0.634001	0.302016
	H382	H	0.384533	0.630302	0.296482
	H383	H	0.396816	0.636479	0.310836
	O384	O	-0.052542	1.020572	1.084515
	H385	H	-0.061110	1.008051	1.086954
	H386	H	-0.058305	0.994420	1.091855
	O387	O	0.783979	1.208250	-0.024452
	H388	H	0.789142	1.214343	-0.049617
	H389	H	0.766134	1.223786	-0.036656
	O390	O	0.402727	0.459368	0.533440
	H391	H	0.409089	0.462861	0.545275
	H392	H	0.405847	0.450249	0.526378
	O393	O	0.932992	0.110545	0.966247
	H394	H	0.940778	0.105621	0.982820
	H395	H	0.922130	0.126142	0.967594
	O396	O	0.104141	1.109904	0.985557
	H397	H	0.110783	1.131556	0.971440
	H398	H	0.119057	1.091214	1.011237
	O399	O	0.580026	0.651341	1.697714
	H400	H	0.587559	0.665316	1.719257
	H401	H	0.567376	0.658185	1.688582
	O402	O	0.870465	-0.097262	1.023976
	H403	H	0.868353	-0.110532	1.045924
	H404	H	0.865684	-0.088777	1.025264
	O405	O	-0.612870	0.568778	-0.620394
	H406	H	-0.608350	0.575641	-0.629212
	H407	H	-0.627158	0.572734	-0.623007
	O408	O	0.951018	1.162310	1.175324
	H409	H	0.950292	1.176909	1.167683
	H410	H	0.977168	1.173271	1.173615
	O411	O	1.291103	1.493218	-0.467685
	H412	H	1.293174	1.497048	-0.475743
	H413	H	1.289655	1.488213	-0.474956
	O414	O	0.508154	-0.543949	1.483568
	H415	H	0.514155	-0.536818	1.498286
	H416	H	0.524700	-0.542212	1.475946
	O417	O	0.470576	0.497885	0.520830
	H418	H	0.470777	0.494215	0.519401
	H419	H	0.476008	0.497322	0.523896
	O420	O	-0.075949	1.015149	-0.041046
	H421	H	-0.075507	1.021645	-0.028618
	H422	H	-0.062572	1.029831	-0.049503
	O423	O	0.987338	-0.094523	-0.057052
	H424	H	1.000804	-0.087604	-0.060878
	H425	H	0.993245	-0.090500	-0.061609
	O426	O	0.683982	0.692556	1.593280
	H427	H	0.682055	0.697422	1.610648
	H428	H	0.693520	0.696061	1.599811
	O429	O	0.487008	0.428728	0.613335
	H430	H	0.499056	0.420334	0.617968
	H431	H	0.487876	0.435885	0.608318
