data_Molecule from HDF5

_cell_length_a		16.233969
_cell_length_b		16.327262
_cell_length_c		16.089431
_cell_angle_alpha	89.866644
_cell_angle_beta	89.942156
_cell_angle_gamma	90.450009
_symmetry_space_group_name_H-M	'P 1'
_symmetry_Int_Tables_number		1

loop_
	_symmetry_equiv_pos_as_xyz
	x,y,z

loop_
	_atom_site_label
	_atom_site_type_symbol
	_atom_site_fract_x
	_atom_site_fract_y
	_atom_site_fract_z
	H0	H	0.406441	0.836153	0.701155
	H1	H	0.606673	0.163533	0.698961
	H2	H	0.606286	0.837073	0.270110
	H3	H	0.411324	0.164133	0.270271
	H4	H	0.718733	0.399937	0.820031
	H5	H	0.723787	0.601118	0.148632
	H6	H	0.293388	0.598797	0.818899
	H7	H	0.290860	0.399674	0.149143
	H8	H	0.843120	0.717340	0.378189
	H9	H	0.169070	0.718672	0.582968
	H10	H	0.844626	0.280495	0.584912
	H11	H	0.169957	0.286293	0.380050
	H12	H	0.841826	0.399372	0.695884
	H13	H	0.171020	0.598904	0.695829
	H14	H	0.841338	0.596305	0.268417
	H15	H	0.170702	0.405822	0.269924
	H16	H	0.405279	0.716655	0.820678
	H17	H	0.606619	0.714479	0.150331
	H18	H	0.606664	0.285616	0.821517
	H19	H	0.403851	0.284535	0.149375
	H20	H	0.723202	0.838192	0.384303
	H21	H	0.726767	0.162442	0.588016
	H22	H	0.289074	0.836852	0.585624
	H23	H	0.293223	0.163895	0.384872
	H24	H	0.905980	0.336645	0.198741
	H25	H	0.105164	0.663642	0.196325
	H26	H	0.103702	0.335398	0.768195
	H27	H	0.908769	0.662719	0.767066
	H28	H	0.221424	0.902179	0.318709
	H29	H	0.219943	0.098427	0.650843
	H30	H	0.792479	0.100424	0.319617
	H31	H	0.792448	0.898919	0.648836
	H32	H	0.342056	0.213341	0.885637
	H33	H	0.668092	0.220106	0.088050
	H34	H	0.343179	0.782647	0.088703
	H35	H	0.669690	0.784121	0.883833
	H36	H	0.342366	0.903209	0.198949
	H37	H	0.671490	0.098705	0.196829
	H38	H	0.342529	0.095329	0.771996
	H39	H	0.671127	0.902171	0.771043
	H40	H	0.909001	0.213134	0.318579
	H41	H	0.109526	0.217595	0.647902
	H42	H	0.106419	0.788600	0.317002
	H43	H	0.902714	0.780468	0.645746
	H44	H	0.220770	0.336196	0.884547
	H45	H	0.222911	0.662645	0.082994
	H46	H	0.788075	0.337097	0.086366
	H47	H	0.790185	0.662059	0.881382
	H48	H	0.407549	0.121910	0.590318
	H49	H	0.596289	0.886137	0.574735
	H50	H	0.598948	0.117403	0.384969
	H51	H	0.415083	0.887358	0.400240
	H52	H	0.589431	0.407279	0.101843
	H53	H	0.601152	0.587696	0.868004
	H54	H	0.412340	0.601088	0.106350
	H55	H	0.408110	0.407731	0.864059
	H56	H	0.121179	0.598437	0.397189
	H57	H	0.889255	0.587200	0.579242
	H58	H	0.123689	0.410093	0.576498
	H59	H	0.883709	0.389918	0.386676
	H60	H	0.123893	0.405753	0.574651
	H61	H	0.887342	0.598625	0.572583
	H62	H	0.121242	0.586913	0.388349
	H63	H	0.894841	0.406943	0.406891
	H64	H	0.406700	0.583813	0.103225
	H65	H	0.589736	0.591278	0.869651
	H66	H	0.601262	0.404915	0.106008
	H67	H	0.416514	0.411331	0.868397
	H68	H	0.597135	0.114295	0.396747
	H69	H	0.603078	0.883165	0.574906
	H70	H	0.426640	0.111628	0.577915
	H71	H	0.405625	0.882383	0.392408
	H72	H	0.912383	0.615497	0.071679
	H73	H	0.102454	0.381243	0.080470
	H74	H	0.100106	0.618215	0.880820
	H75	H	0.916696	0.384468	0.889568
	H76	H	0.092184	0.909725	0.598877
	H77	H	0.103096	0.092618	0.366217
	H78	H	0.926692	0.086314	0.597529
	H79	H	0.916584	0.907901	0.365268
	H80	H	0.625189	0.095829	0.887860
	H81	H	0.390149	0.096304	0.072684
	H82	H	0.628400	0.902380	0.087096
	H83	H	0.389908	0.902722	0.897635
	H84	H	0.623581	0.899591	0.068421
	H85	H	0.390001	0.087141	0.076889
	H86	H	0.624740	0.101492	0.896167
	H87	H	0.392969	0.912545	0.897466
	H88	H	0.918643	0.101799	0.604136
	H89	H	0.098968	0.093593	0.366312
	H90	H	0.096797	0.902434	0.602483
	H91	H	0.913263	0.909014	0.364373
	H92	H	0.092551	0.611812	0.893436
	H93	H	0.094023	0.383411	0.077823
	H94	H	0.913107	0.615929	0.076217
	H95	H	0.906957	0.383587	0.895851
	H96	H	0.406083	0.114683	0.566009
	H97	H	0.599284	0.883608	0.581038
	H98	H	0.608748	0.118834	0.393671
	H99	H	0.418293	0.884595	0.387326
	H100	H	0.598556	0.415903	0.101360
	H101	H	0.598845	0.598577	0.865341
	H102	H	0.424057	0.589066	0.098762
	H103	H	0.416186	0.401070	0.865673
	H104	H	0.126015	0.600477	0.383391
	H105	H	0.893338	0.588379	0.565524
	H106	H	0.122966	0.409398	0.571493
	H107	H	0.888835	0.416155	0.380439
	H108	H	0.917340	0.615291	0.073990
	H109	H	0.100921	0.384389	0.072400
	H110	H	0.108033	0.615992	0.894352
	H111	H	0.907204	0.380314	0.884593
	H112	H	0.101231	0.910712	0.601653
	H113	H	0.102715	0.095653	0.365092
	H114	H	0.907486	0.085983	0.603624
	H115	H	0.914387	0.911208	0.366008
	H116	H	0.621546	0.091792	0.896761
	H117	H	0.387054	0.094584	0.082847
	H118	H	0.621225	0.916517	0.075722
	H119	H	0.389053	0.907181	0.889406
	C120	C	0.383797	0.008214	0.607930
	C121	C	0.629483	0.992055	0.606672
	C122	C	0.630082	0.009077	0.362607
	C123	C	0.385373	0.992402	0.363702
	C124	C	0.626045	0.379608	-0.005725
	C125	C	0.627130	0.621652	0.976561
	C126	C	0.384968	0.621034	-0.006370
	C127	C	0.384428	0.378175	0.975552
	C128	C	0.014543	0.622836	0.359944
	C129	C	0.997996	0.621177	0.602658
	C130	C	0.015357	0.378207	0.603749
	C131	C	0.997767	0.377826	0.361491
	C132	C	0.884063	0.507990	0.104305
	C133	C	0.128224	0.491111	0.105549
	C134	C	0.128386	0.507524	0.860755
	C135	C	0.882927	0.491050	0.860626
	C136	C	0.126565	0.879625	0.491639
	C137	C	0.130129	0.122817	0.475260
	C138	C	0.888005	0.120534	0.492778
	C139	C	0.884930	0.878687	0.474158
	C140	C	0.515220	0.122755	0.864224
	C141	C	0.497312	0.122330	0.106749
	C142	C	0.515695	0.877987	0.106852
	C143	C	0.498393	0.878603	0.864683
	C144	C	0.385989	0.885230	0.663338
	C145	C	0.627584	0.114532	0.662168
	C146	C	0.626700	0.886105	0.307776
	C147	C	0.389826	0.115225	0.307942
	C148	C	0.681234	0.380597	0.869776
	C149	C	0.684637	0.620473	0.099936
	C150	C	0.330336	0.619290	0.868691
	C151	C	0.328899	0.380210	0.100023
	C152	C	0.891586	0.678190	0.360083
	C153	C	0.120727	0.678906	0.602214
	C154	C	0.892824	0.320011	0.603624
	C155	C	0.121027	0.324289	0.361653
	C156	C	0.891485	0.378784	0.659016
	C157	C	0.121517	0.619205	0.658384
	C158	C	0.890628	0.618349	0.305071
	C159	C	0.121209	0.383763	0.306611
	C160	C	0.386047	0.677822	0.869612
	C161	C	0.626588	0.676963	0.100673
	C162	C	0.625435	0.323727	0.870409
	C163	C	0.384914	0.322750	0.100067
	C164	C	0.685339	0.886885	0.364477
	C165	C	0.686920	0.114067	0.606582
	C166	C	0.327598	0.885506	0.605730
	C167	C	0.331281	0.115163	0.365204
	C168	C	0.885538	0.385512	0.160879
	C169	C	0.125516	0.614482	0.159083
	C170	C	0.124714	0.384560	0.805749
	C171	C	0.887525	0.613883	0.805170
	C172	C	0.182710	0.882271	0.367522
	C173	C	0.183684	0.119579	0.600520
	C174	C	0.831275	0.119343	0.368531
	C175	C	0.829541	0.878996	0.598683
	C176	C	0.391467	0.176379	0.865405
	C177	C	0.620154	0.179949	0.106131
	C178	C	0.392053	0.821502	0.107354
	C179	C	0.621200	0.822564	0.864645
	C180	C	0.391672	0.881158	0.162414
	C181	C	0.621871	0.119873	0.160521
	C182	C	0.391731	0.117458	0.808899
	C183	C	0.621909	0.881148	0.808344
	C184	C	0.889235	0.175322	0.367882
	C185	C	0.128669	0.178804	0.599153
	C186	C	0.125814	0.825594	0.366713
	C187	C	0.884333	0.819882	0.597113
	C188	C	0.182872	0.384800	0.863598
	C189	C	0.184157	0.613882	0.102862
	C190	C	0.827201	0.385687	0.104501
	C191	C	0.828130	0.613345	0.861805
	C192	C	0.406763	0.093795	0.584994
	C193	C	0.606293	0.906572	0.583602
	C194	C	0.608063	0.094688	0.385004
	C195	C	0.406681	0.906869	0.386569
	C196	C	0.603234	0.402556	0.080668
	C197	C	0.603514	0.599020	0.890064
	C198	C	0.407670	0.598091	0.080299
	C199	C	0.407077	0.400200	0.888644
	C200	C	0.100411	0.601501	0.382843
	C201	C	0.912298	0.598196	0.579139
	C202	C	0.101152	0.401544	0.581003
	C203	C	0.911362	0.398251	0.384635
	C204	C	0.907370	0.593366	0.080791
	C205	C	0.105749	0.405259	0.083444
	C206	C	0.106728	0.593145	0.883028
	C207	C	0.904194	0.405140	0.883438
	C208	C	0.103479	0.901222	0.578523
	C209	C	0.108165	0.100582	0.388199
	C210	C	0.910971	0.098193	0.579166
	C211	C	0.908035	0.902281	0.387804
	C212	C	0.601509	0.102417	0.886928
	C213	C	0.411559	0.099544	0.084124
	C214	C	0.601812	0.899620	0.083894
	C215	C	0.412914	0.900902	0.887975
	Zn216	Zn	0.507885	0.000135	0.735899
	Zn217	Zn	0.507601	0.000240	0.234008
	Zn218	Zn	0.754171	0.499303	-0.016196
	Zn219	Zn	0.257586	0.499238	-0.016273
	Zn220	Zn	0.005931	0.751555	0.481340
	Zn221	Zn	0.007776	0.249468	0.483228
	Zn222	Zn	0.006048	0.498856	0.731760
	Zn223	Zn	0.005583	0.500173	0.233142
	Zn224	Zn	0.506156	0.749245	-0.014512
	Zn225	Zn	0.505782	0.251831	-0.014279
	Zn226	Zn	0.758441	0.000867	0.485164
	Zn227	Zn	0.255273	-0.000129	0.484734
	N228	N	0.420537	0.962394	0.664460
	N229	N	0.592685	0.037359	0.662438
	N230	N	0.593085	0.963297	0.306177
	N231	N	0.422765	0.037895	0.307032
	N232	N	0.681726	0.414764	0.947673
	N233	N	0.685300	0.586899	0.021476
	N234	N	0.329586	0.584556	0.946744
	N235	N	0.328315	0.414074	0.021514
	N236	N	0.969605	0.681146	0.393317
	N237	N	0.042917	0.680461	0.568474
	N238	N	0.970935	0.319490	0.569784
	N239	N	0.043178	0.320665	0.395271
	N240	N	0.968356	0.414531	0.659007
	N241	N	0.044118	0.584167	0.658711
	N242	N	0.968016	0.584604	0.304900
	N243	N	0.043306	0.416406	0.306199
	N244	N	0.419070	0.679134	0.948328
	N245	N	0.591578	0.677730	0.022806
	N246	N	0.591670	0.322941	0.948966
	N247	N	0.418800	0.321516	0.021804
	N248	N	0.687314	0.964335	0.397953
	N249	N	0.688049	0.036784	0.572920
	N250	N	0.325941	0.963148	0.572140
	N251	N	0.328426	0.037785	0.399289
	N252	N	0.920387	0.462565	0.160895
	N253	N	0.091443	0.537195	0.160982
	N254	N	0.091629	0.461934	0.804113
	N255	N	0.920664	0.536664	0.804183
	N256	N	0.183429	0.915069	0.446298
	N257	N	0.184718	0.085443	0.522439
	N258	N	0.830670	0.085578	0.447036
	N259	N	0.829770	0.914950	0.521347
	N260	N	0.469289	0.179803	0.899169
	N261	N	0.541813	0.181789	0.073481
	N262	N	0.469943	0.819296	0.073584
	N263	N	0.543478	0.820694	0.898706
	N264	N	0.469349	0.915590	0.162191
	N265	N	0.544751	0.084421	0.160890
	N266	N	0.469630	0.084923	0.808072
	N267	N	0.544665	0.915363	0.808160
	N268	N	0.923989	0.176060	0.445840
	N269	N	0.095902	0.180709	0.520261
	N270	N	0.091595	0.823752	0.444985
	N271	N	0.918072	0.819539	0.518690
	N272	N	0.185614	0.462398	0.896907
	N273	N	0.185920	0.536083	0.070088
	N274	N	0.826165	0.462861	0.069995
	N275	N	0.825143	0.535820	0.895457
	O276	O	0.473734	0.522499	0.505818
	H277	H	0.469107	0.535167	0.508440
	H278	H	0.482302	0.525825	0.499934
	O279	O	0.617906	0.577616	0.460059
	H280	H	0.623399	0.584932	0.462827
	H281	H	0.617302	0.576053	0.458227
	O282	O	1.489055	0.481535	-0.494992
	H283	H	1.489249	0.474962	-0.494273
	H284	H	1.499982	0.468918	-0.506903
	O285	O	0.871257	-0.013123	1.020703
	H286	H	0.870708	-0.026551	1.015501
	H287	H	0.867244	-0.007791	1.026969
	O288	O	-0.027616	1.107522	0.940286
	H289	H	-0.042060	1.118911	0.951217
	H290	H	-0.013106	1.104695	0.941987
	O291	O	0.499432	0.509253	0.403057
	H292	H	0.496305	0.518116	0.413071
	H293	H	0.501321	0.509891	0.404405
	O294	O	0.086186	0.086154	0.957423
	H295	H	0.079100	0.071134	0.970684
	H296	H	0.092515	0.080866	0.946718
	O297	O	-0.026776	0.078768	0.981329
	H298	H	-0.035096	0.082815	0.999211
	H299	H	-0.036454	0.072264	0.977393
	O300	O	0.397613	0.623929	0.400443
	H301	H	0.380330	0.618424	0.396873
	H302	H	0.395334	0.632033	0.400604
	O303	O	0.067975	1.013531	-0.051870
	H304	H	0.061624	1.014207	-0.059970
	H305	H	0.066054	1.014754	-0.052936
	O306	O	0.033770	0.896874	0.896321
	H307	H	0.044517	0.899439	0.889765
	H308	H	0.031523	0.899665	0.889569
	O309	O	0.373860	0.575308	0.545766
	H310	H	0.369480	0.566216	0.543762
	H311	H	0.375138	0.578898	0.557944
	O312	O	-0.037359	0.029640	-0.053543
	H313	H	-0.036731	0.012202	-0.043310
	H314	H	-0.037532	0.030834	-0.061043
	O315	O	1.013187	-0.008035	0.036091
	H316	H	1.013366	-0.004401	0.037540
	H317	H	1.010081	-0.003987	0.032577
	O318	O	0.964762	0.990727	1.047573
	H319	H	0.972354	0.987647	1.039300
	H320	H	0.945866	0.977089	1.053487
	O321	O	0.550485	0.578600	1.472155
	H322	H	0.563777	0.571133	1.461573
	H323	H	0.550521	0.585010	1.462844
	O324	O	0.519775	0.525000	0.485639
	H325	H	0.517212	0.526815	0.483365
	H326	H	0.517180	0.538905	0.498021
	O327	O	0.467037	-0.587310	0.441513
	H328	H	0.471954	-0.594261	0.433446
	H329	H	0.463462	-0.593713	0.438484
	O330	O	0.586581	0.528800	0.510041
	H331	H	0.579565	0.532829	0.502489
	H332	H	0.580972	0.521006	0.505462
	O333	O	-0.032696	0.993020	1.121953
	H334	H	-0.023635	0.991481	1.126168
	H335	H	-0.023920	0.992752	1.126163
	O336	O	-0.035336	-0.085906	-0.041953
	H337	H	-0.032035	-0.083859	-0.057355
	H338	H	-0.023316	-0.073809	-0.033580
	O339	O	0.495588	0.459952	0.483992
	H340	H	0.487131	0.455341	0.490987
	H341	H	0.497908	0.462121	0.483744
	O342	O	0.972750	1.070846	1.008418
	H343	H	0.968706	1.062989	1.017178
	H344	H	0.979695	1.066268	1.001842
	O345	O	1.046431	0.901942	-0.073272
	H346	H	1.039708	0.905639	-0.067674
	H347	H	1.049951	0.907459	-0.070766
	O348	O	0.388168	0.530841	0.400533
	H349	H	0.370459	0.532512	0.404186
	H350	H	0.391546	0.525244	0.391809
	O351	O	0.523006	0.477555	0.533097
	H352	H	0.533376	0.479757	0.538531
	H353	H	0.528399	0.467569	0.537548
	O354	O	0.588471	0.590856	0.549863
	H355	H	0.585993	0.582338	0.552067
	H356	H	0.590015	0.591029	0.560400
	O357	O	0.518565	0.467721	1.428814
	H358	H	0.510986	0.468357	1.426348
	H359	H	0.509357	0.465700	1.426802
	O360	O	0.504042	0.422717	0.526002
	H361	H	0.504093	0.425511	0.536887
	H362	H	0.494227	0.434079	0.538723
	O363	O	0.935015	1.012383	0.821762
	H364	H	0.928597	1.012625	0.824997
	H365	H	0.946105	1.012491	0.822439
	O366	O	1.063067	0.919553	0.953301
	H367	H	1.070453	0.921662	0.951312
	H368	H	1.048489	0.927668	0.957318
	O369	O	1.138857	-0.081364	0.863906
	H370	H	1.140377	-0.073976	0.863956
	H371	H	1.139193	-0.079204	0.860398
	O372	O	0.011664	-0.049409	0.105175
	H373	H	0.024372	-0.047142	0.100463
	H374	H	0.014446	-0.066301	0.092194
	O375	O	0.558496	-0.530760	0.450621
	H376	H	0.562625	-0.523007	0.440861
	H377	H	0.556432	-0.540818	0.467924
	O378	O	0.516963	0.560044	0.643296
	H379	H	0.524375	0.560679	0.642179
	H380	H	0.529951	0.560532	0.645701
	O381	O	0.499554	0.435985	0.562702
	H382	H	0.513331	0.430166	0.554542
	H383	H	0.493944	0.436138	0.564042
