data_Molecule from HDF5

_cell_length_a		16.612707
_cell_length_b		16.606364
_cell_length_c		16.526037
_cell_angle_alpha	90.033606
_cell_angle_beta	89.904926
_cell_angle_gamma	90.017376
_symmetry_space_group_name_H-M	'P 1'
_symmetry_Int_Tables_number		1

loop_
	_symmetry_equiv_pos_as_xyz
	x,y,z

loop_
	_atom_site_label
	_atom_site_type_symbol
	_atom_site_fract_x
	_atom_site_fract_y
	_atom_site_fract_z
	H0	H	0.401436	0.850462	0.719737
	H1	H	0.611099	0.161895	0.719498
	H2	H	0.603634	0.846647	0.282647
	H3	H	0.400535	0.162713	0.277362
	H4	H	0.726126	0.403132	0.842181
	H5	H	0.724055	0.609326	0.156736
	H6	H	0.287203	0.607644	0.841056
	H7	H	0.284161	0.400641	0.155735
	H8	H	0.849733	0.724646	0.397406
	H9	H	0.165619	0.721411	0.597927
	H10	H	0.847963	0.287719	0.599325
	H11	H	0.160443	0.280911	0.389650
	H12	H	0.847553	0.405853	0.714960
	H13	H	0.164802	0.604094	0.714379
	H14	H	0.849861	0.608280	0.280289
	H15	H	0.161180	0.398600	0.274326
	H16	H	0.402255	0.724770	0.841044
	H17	H	0.606233	0.724267	0.157033
	H18	H	0.610795	0.285939	0.842803
	H19	H	0.401397	0.286175	0.156915
	H20	H	0.722235	0.846450	0.397585
	H21	H	0.727283	0.161289	0.602874
	H22	H	0.282398	0.851481	0.606063
	H23	H	0.283183	0.161949	0.392859
	H24	H	0.899423	0.351028	0.222042
	H25	H	0.109811	0.661866	0.218090
	H26	H	0.107740	0.347905	0.779799
	H27	H	0.907791	0.664674	0.782665
	H28	H	0.226294	0.902857	0.340968
	H29	H	0.226189	0.111789	0.655373
	H30	H	0.788464	0.107052	0.339453
	H31	H	0.789130	0.904591	0.656552
	H32	H	0.352226	0.231084	0.890746
	H33	H	0.662994	0.225374	0.102254
	H34	H	0.349397	0.784126	0.102954
	H35	H	0.661647	0.784506	0.893408
	H36	H	0.349176	0.900536	0.220322
	H37	H	0.663097	0.107696	0.217662
	H38	H	0.351095	0.114452	0.775399
	H39	H	0.661820	0.902128	0.777949
	H40	H	0.901780	0.225687	0.340558
	H41	H	0.110455	0.226627	0.655103
	H42	H	0.110697	0.786503	0.341268
	H43	H	0.908036	0.790715	0.658180
	H44	H	0.227607	0.349129	0.891502
	H45	H	0.227449	0.660610	0.103931
	H46	H	0.783470	0.351117	0.104935
	H47	H	0.789608	0.665028	0.897904
	H48	H	0.421705	0.115747	0.586211
	H49	H	0.587604	0.897703	0.586074
	H50	H	0.597911	0.118370	0.406338
	H51	H	0.414502	0.895379	0.412364
	H52	H	0.595951	0.418180	0.111120
	H53	H	0.600590	0.598629	0.883865
	H54	H	0.419288	0.597236	0.111459
	H55	H	0.422399	0.407773	0.885719
	H56	H	0.120868	0.595610	0.401957
	H57	H	0.892146	0.600957	0.593377
	H58	H	0.119732	0.416597	0.595159
	H59	H	0.895330	0.416300	0.409707
	H60	H	0.120202	0.408483	0.586353
	H61	H	0.893887	0.600681	0.589106
	H62	H	0.120255	0.601233	0.411117
	H63	H	0.896408	0.416597	0.411676
	H64	H	0.414215	0.594079	0.111645
	H65	H	0.598310	0.593492	0.886459
	H66	H	0.594215	0.415303	0.111887
	H67	H	0.408924	0.419042	0.884588
	H68	H	0.599445	0.118058	0.408664
	H69	H	0.603992	0.892887	0.581521
	H70	H	0.414373	0.117289	0.583529
	H71	H	0.416957	0.894204	0.408124
	H72	H	0.911180	0.620831	0.091911
	H73	H	0.089948	0.394672	0.086590
	H74	H	0.094274	0.617891	0.905026
	H75	H	0.911465	0.392131	0.907695
	H76	H	0.094379	0.921147	0.609397
	H77	H	0.089826	0.092426	0.388292
	H78	H	0.917062	0.094491	0.609755
	H79	H	0.916833	0.907526	0.383258
	H80	H	0.614019	0.092098	0.916133
	H81	H	0.394421	0.094312	0.088999
	H82	H	0.618678	0.913827	0.090534
	H83	H	0.396810	0.917795	0.919360
	H84	H	0.617862	0.913212	0.088106
	H85	H	0.393134	0.096870	0.088862
	H86	H	0.618171	0.090312	0.904630
	H87	H	0.394525	0.923542	0.903853
	H88	H	0.916321	0.098007	0.611062
	H89	H	0.095587	0.096066	0.384974
	H90	H	0.092436	0.910201	0.612454
	H91	H	0.908895	0.914263	0.383173
	H92	H	0.097401	0.616477	0.912572
	H93	H	0.095028	0.395716	0.082444
	H94	H	0.923271	0.617267	0.091668
	H95	H	0.914976	0.392828	0.905221
	H96	H	0.415908	0.119474	0.590836
	H97	H	0.597862	0.889634	0.597961
	H98	H	0.600601	0.119129	0.406317
	H99	H	0.419315	0.896276	0.411877
	H100	H	0.597147	0.415880	0.113808
	H101	H	0.594762	0.597773	0.885492
	H102	H	0.418942	0.591686	0.109030
	H103	H	0.424326	0.424357	0.891441
	H104	H	0.116425	0.591321	0.410866
	H105	H	0.893938	0.596682	0.591770
	H106	H	0.115823	0.419483	0.584159
	H107	H	0.896091	0.418471	0.410417
	H108	H	0.916054	0.615842	0.081488
	H109	H	0.095956	0.392727	0.087967
	H110	H	0.102269	0.619846	0.906143
	H111	H	0.914844	0.393981	0.909191
	H112	H	0.102688	0.914594	0.614141
	H113	H	0.096687	0.088979	0.387682
	H114	H	0.913718	0.095616	0.611071
	H115	H	0.917961	0.917439	0.386745
	H116	H	0.619759	0.101234	0.909713
	H117	H	0.394529	0.095716	0.086456
	H118	H	0.617165	0.915696	0.088987
	H119	H	0.390332	0.907537	0.907289
	C120	C	0.384946	0.014404	0.619822
	C121	C	0.627522	0.996960	0.619756
	C122	C	0.627828	0.013561	0.377279
	C123	C	0.384684	0.998347	0.378084
	C124	C	0.627375	0.385481	0.008240
	C125	C	0.627452	0.627721	0.990009
	C126	C	0.385434	0.625832	0.006935
	C127	C	0.385422	0.384369	0.990703
	C128	C	0.015256	0.627322	0.377416
	C129	C	0.998226	0.627342	0.620153
	C130	C	0.014037	0.384286	0.619244
	C131	C	0.997924	0.384038	0.376857
	C132	C	0.884142	0.514929	0.120995
	C133	C	0.126797	0.496841	0.118886
	C134	C	0.128152	0.513931	0.876618
	C135	C	0.884494	0.497803	0.877767
	C136	C	0.128213	0.884638	0.507453
	C137	C	0.126590	0.126323	0.489978
	C138	C	0.884792	0.126412	0.506193
	C139	C	0.885180	0.883586	0.489652
	C140	C	0.515138	0.127916	0.877118
	C141	C	0.497562	0.127058	0.120271
	C142	C	0.514078	0.883548	0.120407
	C143	C	0.497157	0.884480	0.877754
	C144	C	0.382526	0.897430	0.680382
	C145	C	0.629331	0.114985	0.679183
	C146	C	0.624604	0.893866	0.321420
	C147	C	0.382107	0.115818	0.317589
	C148	C	0.686519	0.384434	0.889533
	C149	C	0.684462	0.628076	0.109581
	C150	C	0.326531	0.626862	0.888370
	C151	C	0.324738	0.382349	0.108695
	C152	C	0.896954	0.685377	0.377775
	C153	C	0.118101	0.682656	0.618300
	C154	C	0.895120	0.327229	0.618617
	C155	C	0.114370	0.322214	0.372380
	C156	C	0.894951	0.385742	0.676137
	C157	C	0.117763	0.624310	0.675699
	C158	C	0.896843	0.627401	0.319772
	C159	C	0.114657	0.380478	0.314982
	C160	C	0.383931	0.684714	0.888174
	C161	C	0.626339	0.685440	0.109373
	C162	C	0.629271	0.326237	0.889778
	C163	C	0.383127	0.325508	0.109453
	C164	C	0.683453	0.893914	0.378286
	C165	C	0.687273	0.114488	0.621457
	C166	C	0.323749	0.897779	0.623455
	C167	C	0.324041	0.115470	0.375188
	C168	C	0.881250	0.397605	0.181539
	C169	C	0.128903	0.614384	0.178991
	C170	C	0.127582	0.395285	0.818594
	C171	C	0.887024	0.617300	0.821151
	C172	C	0.187009	0.883786	0.388580
	C173	C	0.186576	0.129799	0.607978
	C174	C	0.826909	0.126403	0.387357
	C175	C	0.828090	0.884710	0.609244
	C176	C	0.398509	0.189827	0.873449
	C177	C	0.615887	0.185447	0.121245
	C178	C	0.396227	0.823748	0.122259
	C179	C	0.614742	0.824811	0.875253
	C180	C	0.396266	0.881645	0.180308
	C181	C	0.615867	0.127191	0.178721
	C182	C	0.398146	0.131902	0.815798
	C183	C	0.615058	0.883290	0.818001
	C184	C	0.883438	0.185409	0.387637
	C185	C	0.128885	0.187038	0.607753
	C186	C	0.129564	0.825885	0.388624
	C187	C	0.887235	0.828517	0.610011
	C188	C	0.187131	0.395884	0.874316
	C189	C	0.187287	0.613815	0.121960
	C190	C	0.823483	0.397845	0.123705
	C191	C	0.828504	0.617529	0.878428
	C192	C	0.410167	0.096273	0.594165
	C193	C	0.603283	0.914663	0.595397
	C194	C	0.605623	0.096822	0.400322
	C195	C	0.409868	0.916608	0.403546
	C196	C	0.602778	0.409641	0.090891
	C197	C	0.604538	0.603663	0.906858
	C198	C	0.410310	0.601357	0.089354
	C199	C	0.411142	0.409708	0.908753
	C200	C	0.097965	0.603222	0.401071
	C201	C	0.914984	0.605773	0.597771
	C202	C	0.097003	0.407764	0.595283
	C203	C	0.916969	0.409709	0.403165
	C204	C	0.909691	0.596710	0.095675
	C205	C	0.101058	0.415606	0.092997
	C206	C	0.104764	0.596545	0.901009
	C207	C	0.907036	0.414827	0.900741
	C208	C	0.103640	0.908490	0.590274
	C209	C	0.101397	0.099967	0.408215
	C210	C	0.908745	0.102886	0.589173
	C211	C	0.908135	0.906407	0.406005
	C212	C	0.596152	0.101800	0.902857
	C213	C	0.415391	0.102595	0.095266
	C214	C	0.596263	0.907399	0.096247
	C215	C	0.415249	0.909244	0.902921
	Zn216	Zn	0.506104	0.006013	0.748962
	Zn217	Zn	0.505535	0.005646	0.248973
	Zn218	Zn	0.756167	0.506937	-0.000537
	Zn219	Zn	0.256138	0.504788	-0.001837
	Zn220	Zn	0.007127	0.756424	0.499118
	Zn221	Zn	0.005866	0.254815	0.497801
	Zn222	Zn	0.006195	0.505486	0.748865
	Zn223	Zn	0.006369	0.505391	0.248499
	Zn224	Zn	0.505297	0.755238	-0.001532
	Zn225	Zn	0.506483	0.255942	-0.000449
	Zn226	Zn	0.756641	0.004750	0.498539
	Zn227	Zn	0.255741	0.006400	0.499137
	N228	N	0.419740	0.971098	0.678312
	N229	N	0.592782	0.040914	0.678256
	N230	N	0.591148	0.969444	0.320277
	N231	N	0.419143	0.041857	0.319179
	N232	N	0.685800	0.420464	0.964406
	N233	N	0.685621	0.593219	0.034156
	N234	N	0.327178	0.590979	0.963215
	N235	N	0.325839	0.417990	0.033798
	N236	N	0.971824	0.685701	0.412603
	N237	N	0.042736	0.685071	0.584588
	N238	N	0.970610	0.325920	0.584303
	N239	N	0.040944	0.324187	0.410154
	N240	N	0.970037	0.420322	0.676766
	N241	N	0.042321	0.590883	0.677259
	N242	N	0.971540	0.591918	0.319535
	N243	N	0.041366	0.418223	0.317703
	N244	N	0.419853	0.684287	0.962979
	N245	N	0.591919	0.685488	0.033932
	N246	N	0.593224	0.326692	0.964592
	N247	N	0.419962	0.326330	0.034862
	N248	N	0.685968	0.969593	0.411845
	N249	N	0.686334	0.040043	0.585255
	N250	N	0.325053	0.971713	0.586609
	N251	N	0.325518	0.041491	0.412048
	N252	N	0.918107	0.471576	0.180095
	N253	N	0.092038	0.540346	0.177606
	N254	N	0.091906	0.469799	0.819435
	N255	N	0.920717	0.541749	0.820031
	N256	N	0.186408	0.919466	0.463565
	N257	N	0.185476	0.092850	0.533691
	N258	N	0.827498	0.090533	0.462240
	N259	N	0.826341	0.917850	0.533116
	N260	N	0.472165	0.187721	0.910911
	N261	N	0.541133	0.185726	0.085949
	N262	N	0.470395	0.824952	0.085566
	N263	N	0.540280	0.825249	0.911409
	N264	N	0.470316	0.918352	0.179203
	N265	N	0.540955	0.091981	0.178541
	N266	N	0.471669	0.094035	0.817822
	N267	N	0.540752	0.919441	0.819071
	N268	N	0.918582	0.185830	0.462715
	N269	N	0.092481	0.185429	0.533161
	N270	N	0.094220	0.825715	0.463740
	N271	N	0.921617	0.827284	0.534319
	N272	N	0.187782	0.470884	0.909486
	N273	N	0.186249	0.539755	0.085521
	N274	N	0.825021	0.471985	0.087026
	N275	N	0.826573	0.542168	0.912621
	O276	O	-0.202065	0.794249	0.208509
	H277	H	-0.234279	0.761745	0.241446
	H278	H	-0.195385	0.811620	0.193243
	O279	O	0.721105	0.471931	0.284252
	H280	H	0.739472	0.474257	0.262464
	H281	H	0.713074	0.465395	0.284928
	O282	O	1.133333	0.247291	0.859908
	H283	H	1.142927	0.255101	0.854201
	H284	H	1.141858	0.252499	0.846876
	O285	O	0.694081	0.315132	0.689610
	H286	H	0.664790	0.322297	0.677257
	H287	H	0.686479	0.345922	0.667840
	O288	O	0.307180	0.616324	0.563502
	H289	H	0.315934	0.605992	0.553825
	H290	H	0.308102	0.615106	0.555645
	O291	O	0.538771	0.550678	0.643051
	H292	H	0.527764	0.558018	0.663095
	H293	H	0.525493	0.566212	0.635516
	O294	O	0.789167	0.036540	0.781922
	H295	H	0.777732	0.068306	0.773640
	H296	H	0.776929	0.040206	0.777368
	O297	O	0.548353	0.653825	0.498982
	H298	H	0.544659	0.643072	0.503928
	H299	H	0.524684	0.656177	0.486876
	O300	O	-0.030876	0.230487	0.775858
	H301	H	-0.056533	0.226661	0.771529
	H302	H	-0.039282	0.250736	0.752364
	O303	O	0.481546	0.669002	0.327300
	H304	H	0.478222	0.685741	0.315380
	H305	H	0.439522	0.667169	0.322876
	O306	O	0.696806	0.715738	0.702127
	H307	H	0.723439	0.743112	0.715605
	H308	H	0.708977	0.711521	0.664225
	O309	O	0.697810	0.694356	0.309621
	H310	H	0.669905	0.671638	0.314181
	H311	H	0.688328	0.678071	0.342686
	O312	O	0.717770	0.720825	0.529654
	H313	H	0.690485	0.725175	0.510810
	H314	H	0.731999	0.723842	0.519598
	O315	O	0.987175	1.047440	0.793979
	H316	H	0.974818	1.055679	0.789753
	H317	H	0.979476	1.036703	0.794495
	O318	O	0.390285	0.648796	0.600186
	H319	H	0.388092	0.635177	0.595177
	H320	H	0.398185	0.643496	0.591366
	O321	O	0.085319	1.011913	0.841474
	H322	H	0.063205	1.007309	0.829973
	H323	H	0.095883	1.000259	0.833531
	O324	O	0.997374	0.874842	0.128138
	H325	H	0.995242	0.891655	0.140377
	H326	H	0.975687	0.879980	0.137841
	O327	O	0.210653	0.113084	0.904650
	H328	H	0.203273	0.119203	0.890785
	H329	H	0.209417	0.106389	0.879459
	O330	O	0.825510	0.199197	0.177814
	H331	H	0.847684	0.182228	0.163804
	H332	H	0.847739	0.193314	0.155876
	O333	O	0.364410	0.374393	0.696844
	H334	H	0.400659	0.375248	0.697872
	H335	H	0.349100	0.363890	0.662016
	O336	O	0.298927	0.540969	0.376280
	H337	H	0.292779	0.528444	0.366826
	H338	H	0.300833	0.530083	0.375057
	O339	O	1.205476	0.010049	1.022245
	H340	H	1.214911	0.017497	1.003885
	H341	H	1.188297	0.018727	1.020245
	O342	O	0.111060	-0.200674	0.095803
	H343	H	0.098524	-0.185754	0.103228
	H344	H	0.101331	-0.195454	0.088731
	O345	O	0.122037	1.139791	0.938919
	H346	H	0.108154	1.122828	0.933105
	H347	H	0.137559	1.153905	0.911445
	O348	O	0.139428	0.077960	0.030273
	H349	H	0.137126	0.068728	0.021123
	H350	H	0.157133	0.075427	0.005985
	O351	O	0.670478	0.437257	0.527060
	H352	H	0.662564	0.437783	0.522794
	H353	H	0.664265	0.443567	0.541468
	O354	O	0.026839	0.224111	1.214059
	H355	H	0.057290	0.230162	1.217934
	H356	H	0.048125	0.236158	1.223818
	O357	O	0.719016	0.289052	0.463384
	H358	H	0.732008	0.279350	0.468659
	H359	H	0.721917	0.300958	0.463078
	O360	O	0.224017	-0.019666	0.783114
	H361	H	0.216415	-0.058091	0.784609
	H362	H	0.249254	-0.024846	0.759299
	O363	O	-0.079931	0.026490	0.218562
	H364	H	-0.084114	0.056695	0.231355
	H365	H	-0.086740	0.028776	0.211121
	O366	O	0.484286	0.295530	0.703161
	H367	H	0.500372	0.311801	0.706124
	H368	H	0.491998	0.270931	0.703200
	O369	O	0.805854	0.051626	0.012449
	H370	H	0.803848	0.057519	0.015421
	H371	H	0.811735	0.062236	0.003323
	O372	O	1.134618	0.891210	0.166612
	H373	H	1.115207	0.907216	0.166408
	H374	H	1.119911	0.900209	0.158651
	O375	O	0.788345	0.222006	-0.038304
	H376	H	0.806129	0.231126	-0.025327
	H377	H	0.777313	0.234181	-0.031272
	O378	O	0.532224	0.714790	0.715256
	H379	H	0.552542	0.732989	0.730817
	H380	H	0.559870	0.720498	0.720786
	O381	O	0.217438	0.794030	0.789060
	H382	H	0.229738	0.771516	0.765732
	H383	H	0.220054	0.789792	0.839172
	O384	O	0.799253	0.213509	0.791242
	H385	H	0.765414	0.243489	0.761820
	H386	H	0.801199	0.214827	0.830271
	O387	O	1.217680	0.792879	-0.039780
	H388	H	1.211827	0.785797	-0.025115
	H389	H	1.215618	0.788273	-0.023428
	O390	O	0.706297	0.298821	0.294219
	H391	H	0.714142	0.313396	0.326980
	H392	H	0.738611	0.281683	0.265419
	O393	O	0.434875	0.504610	0.495102
	H394	H	0.433639	0.512524	0.505420
	H395	H	0.419802	0.513786	0.480657
	O396	O	-0.063304	0.904397	0.813907
	H397	H	-0.067843	0.897778	0.838137
	H398	H	-0.049040	0.898101	0.793717
	O399	O	-0.042287	0.103641	0.958941
	H400	H	-0.043878	0.103743	0.952454
	H401	H	-0.040135	0.097608	0.951912
	O402	O	0.493089	0.325200	0.555888
	H403	H	0.496212	0.335522	0.544040
	H404	H	0.491468	0.322909	0.549174
	O405	O	1.048360	-0.193169	1.020524
	H406	H	1.038130	-0.192924	1.035976
	H407	H	1.049923	-0.182770	1.017184
	O408	O	-0.199350	-0.163164	-0.172651
	H409	H	-0.168247	-0.164753	-0.165475
	H410	H	-0.201685	-0.138364	-0.159680
	O411	O	0.546789	0.539852	0.573220
	H412	H	0.538232	0.532073	0.553983
	H413	H	0.542818	0.538971	0.602117
	O414	O	0.212568	0.209796	0.201778
	H415	H	0.218996	0.212318	0.156329
	H416	H	0.212439	0.165969	0.204974
	O417	O	0.539858	0.528123	0.668872
	H418	H	0.555617	0.545101	0.671555
	H419	H	0.529720	0.545266	0.679762
	O420	O	0.678360	0.544378	0.461083
	H421	H	0.678430	0.533109	0.459676
	H422	H	0.679233	0.537146	0.463719
	O423	O	-0.088620	-0.032659	1.055785
	H424	H	-0.095099	-0.039990	1.044329
	H425	H	-0.090577	-0.030914	1.057864
	O426	O	0.373533	0.470311	0.548950
	H427	H	0.372375	0.464801	0.554863
	H428	H	0.366576	0.475985	0.547313
	O429	O	1.228254	1.223695	1.027371
	H430	H	1.224333	1.237732	1.010234
	H431	H	1.243279	1.229894	1.009247
	O432	O	0.402952	0.361659	0.340847
	H433	H	0.404876	0.353922	0.344225
	H434	H	0.397129	0.339680	0.329153
	O435	O	-0.211722	0.781968	0.033265
	H436	H	-0.219960	0.776438	0.029068
	H437	H	-0.221106	0.768988	0.056029
	O438	O	-0.187295	-0.012552	0.219319
	H439	H	-0.186735	-0.018078	0.225948
	H440	H	-0.194448	-0.028799	0.223528
	O441	O	0.218296	0.030352	0.211919
	H442	H	0.231219	0.013933	0.195157
	H443	H	0.217962	0.017894	0.225786
	O444	O	0.391354	0.421019	0.292200
	H445	H	0.388962	0.402625	0.294277
	H446	H	0.386765	0.417392	0.288482
	O447	O	0.048657	0.788256	0.779821
	H448	H	0.079080	0.795490	0.791457
	H449	H	0.042399	0.766211	0.757047
	O450	O	-0.026849	0.787589	1.217299
	H451	H	-0.041382	0.790934	1.228961
	H452	H	-0.044020	0.777283	1.233503
	O453	O	0.291261	0.477548	0.715617
	H454	H	0.297288	0.455281	0.710612
	H455	H	0.271457	0.469593	0.737876
	O456	O	-0.010991	0.170876	1.073103
	H457	H	0.000207	0.165274	1.063370
	H458	H	0.020394	0.170716	1.067559
	O459	O	0.288292	0.724935	0.461200
	H460	H	0.291240	0.731119	0.465046
	H461	H	0.271391	0.735869	0.453545
	O462	O	0.569471	0.479221	0.416836
	H463	H	0.563901	0.471473	0.409742
	H464	H	0.568781	0.475812	0.411641
	O465	O	1.049519	-0.048036	-0.015671
	H466	H	1.036186	-0.049968	-0.019767
	H467	H	1.053421	-0.042256	-0.032514
	O468	O	0.538127	0.281884	0.276966
	H469	H	0.579406	0.280082	0.274804
	H470	H	0.549035	0.256877	0.252993
	O471	O	0.533758	0.592234	0.294528
	H472	H	0.520818	0.592072	0.292501
	H473	H	0.520179	0.588388	0.287301
	O474	O	0.430977	0.659047	0.420270
	H475	H	0.398622	0.666582	0.403342
	H476	H	0.436918	0.660408	0.417469
	O477	O	0.293753	0.293477	1.528808
	H478	H	0.299616	0.297991	1.518202
	H479	H	0.277863	0.280371	1.517853
	O480	O	0.462526	0.332613	0.442187
	H481	H	0.473592	0.333638	0.439885
	H482	H	0.463862	0.335192	0.425181
	O483	O	0.725329	0.550037	0.721561
	H484	H	0.742295	0.559770	0.737665
	H485	H	0.730531	0.572614	0.724547
	O486	O	0.305477	0.717252	0.291644
	H487	H	0.301195	0.728333	0.302622
	H488	H	0.287650	0.709480	0.276827
	O489	O	0.787704	0.942622	-0.033351
	H490	H	0.786072	0.946455	-0.028152
	H491	H	0.797289	0.940708	-0.016743
