data_Molecule from HDF5

_cell_length_a		16.193061
_cell_length_b		16.267262
_cell_length_c		16.259650
_cell_angle_alpha	90.275512
_cell_angle_beta	90.175914
_cell_angle_gamma	90.235024
_symmetry_space_group_name_H-M	'P 1'
_symmetry_Int_Tables_number		1

loop_
	_symmetry_equiv_pos_as_xyz
	x,y,z

loop_
	_atom_site_label
	_atom_site_type_symbol
	_atom_site_fract_x
	_atom_site_fract_y
	_atom_site_fract_z
	H0	H	0.389478	0.836056	0.706395
	H1	H	0.590158	0.163144	0.707801
	H2	H	0.587908	0.835671	0.278121
	H3	H	0.388402	0.161720	0.275998
	H4	H	0.702630	0.401534	0.827865
	H5	H	0.705532	0.599976	0.155340
	H6	H	0.275896	0.595817	0.827914
	H7	H	0.274612	0.399294	0.155624
	H8	H	0.825548	0.711859	0.393415
	H9	H	0.153847	0.714943	0.591895
	H10	H	0.826202	0.285624	0.590927
	H11	H	0.154279	0.284150	0.391914
	H12	H	0.826544	0.400664	0.706284
	H13	H	0.154219	0.600284	0.707466
	H14	H	0.826074	0.599404	0.277359
	H15	H	0.154278	0.400040	0.276713
	H16	H	0.390947	0.712938	0.828073
	H17	H	0.593240	0.718513	0.154048
	H18	H	0.588034	0.284542	0.827533
	H19	H	0.389876	0.283025	0.154595
	H20	H	0.701925	0.835083	0.395121
	H21	H	0.705122	0.163180	0.592561
	H22	H	0.274794	0.835307	0.590426
	H23	H	0.274636	0.162495	0.393489
	H24	H	0.888752	0.337558	0.206751
	H25	H	0.092178	0.663606	0.209295
	H26	H	0.089582	0.337871	0.775776
	H27	H	0.892114	0.663839	0.778722
	H28	H	0.202406	0.900302	0.328691
	H29	H	0.205562	0.098610	0.657041
	H30	H	0.775977	0.096281	0.328636
	H31	H	0.776354	0.902127	0.657126
	H32	H	0.325968	0.212229	0.892893
	H33	H	0.653992	0.216153	0.093239
	H34	H	0.326892	0.784393	0.089577
	H35	H	0.654235	0.785619	0.892463
	H36	H	0.325969	0.899714	0.204339
	H37	H	0.654731	0.099274	0.207715
	H38	H	0.325747	0.097282	0.777319
	H39	H	0.654396	0.901305	0.778053
	H40	H	0.889523	0.213693	0.328626
	H41	H	0.090698	0.216938	0.656453
	H42	H	0.087465	0.783624	0.328882
	H43	H	0.891346	0.784647	0.656157
	H44	H	0.201191	0.336275	0.893897
	H45	H	0.207490	0.663458	0.093395
	H46	H	0.774650	0.337144	0.090241
	H47	H	0.777088	0.664198	0.895217
	H48	H	0.393606	0.117809	0.587106
	H49	H	0.588235	0.883767	0.575118
	H50	H	0.584221	0.114556	0.406932
	H51	H	0.395069	0.883021	0.399218
	H52	H	0.586359	0.404357	0.110658
	H53	H	0.577132	0.582792	0.878868
	H54	H	0.406603	0.579627	0.102500
	H55	H	0.392144	0.400834	0.872119
	H56	H	0.113648	0.601839	0.390331
	H57	H	0.870459	0.594454	0.589424
	H58	H	0.108968	0.406637	0.588647
	H59	H	0.874769	0.414961	0.396844
	H60	H	0.106981	0.406301	0.580232
	H61	H	0.873043	0.594271	0.581270
	H62	H	0.103484	0.596372	0.415843
	H63	H	0.870593	0.401264	0.392557
	H64	H	0.406947	0.605670	0.110021
	H65	H	0.577275	0.603903	0.873402
	H66	H	0.582678	0.413485	0.106776
	H67	H	0.393615	0.409428	0.876039
	H68	H	0.587093	0.118551	0.395771
	H69	H	0.588463	0.878554	0.594928
	H70	H	0.403647	0.114798	0.587395
	H71	H	0.396188	0.882324	0.396519
	H72	H	0.906750	0.614700	0.084437
	H73	H	0.080113	0.383469	0.088753
	H74	H	0.091943	0.619092	0.904037
	H75	H	0.895668	0.382268	0.894688
	H76	H	0.078376	0.909501	0.607224
	H77	H	0.075327	0.090756	0.378685
	H78	H	0.899040	0.085641	0.606783
	H79	H	0.902115	0.895535	0.373636
	H80	H	0.613675	0.095822	0.883892
	H81	H	0.369419	0.094424	0.091458
	H82	H	0.608826	0.904732	0.083463
	H83	H	0.372274	0.913572	0.893088
	H84	H	0.606309	0.911448	0.083117
	H85	H	0.374353	0.096338	0.076994
	H86	H	0.607558	0.104091	0.911430
	H87	H	0.368917	0.897383	0.893835
	H88	H	0.904989	0.097960	0.608874
	H89	H	0.084299	0.097411	0.374284
	H90	H	0.082674	0.902011	0.610502
	H91	H	0.883984	0.902966	0.372014
	H92	H	0.082965	0.619954	0.891375
	H93	H	0.079516	0.385899	0.081315
	H94	H	0.893550	0.616356	0.078637
	H95	H	0.899085	0.384030	0.898919
	H96	H	0.398307	0.113654	0.578445
	H97	H	0.571367	0.885085	0.587535
	H98	H	0.576083	0.114663	0.398483
	H99	H	0.396989	0.882333	0.398334
	H100	H	0.576162	0.404605	0.107299
	H101	H	0.595568	0.592044	0.870834
	H102	H	0.383957	0.591095	0.112907
	H103	H	0.400178	0.403117	0.876127
	H104	H	0.104103	0.576408	0.397597
	H105	H	0.872754	0.587675	0.586100
	H106	H	0.106958	0.413395	0.584732
	H107	H	0.874901	0.403775	0.407439
	H108	H	0.896132	0.619433	0.091918
	H109	H	0.086185	0.382474	0.084441
	H110	H	0.076657	0.615076	0.904258
	H111	H	0.893793	0.382761	0.899772
	H112	H	0.087480	0.908882	0.610981
	H113	H	0.085846	0.085899	0.377319
	H114	H	0.891537	0.096320	0.611937
	H115	H	0.898723	0.914268	0.379303
	H116	H	0.601319	0.076254	0.902869
	H117	H	0.376450	0.082829	0.084038
	H118	H	0.608577	0.908936	0.088879
	H119	H	0.374868	0.905152	0.907155
	C120	C	0.368962	0.007428	0.613184
	C121	C	0.611713	0.990903	0.614563
	C122	C	0.610570	0.007686	0.371542
	C123	C	0.367200	0.990391	0.369872
	C124	C	0.610617	0.378236	0.000012
	C125	C	0.612348	0.621937	0.982567
	C126	C	0.369731	0.620059	0.000222
	C127	C	0.366749	0.376196	0.983020
	C128	C	-0.001425	0.620077	0.371753
	C129	C	0.980861	0.621400	0.614193
	C130	C	-0.001046	0.379674	0.613141
	C131	C	0.981953	0.377712	0.369823
	C132	C	0.868793	0.509214	0.113609
	C133	C	0.112280	0.491950	0.114384
	C134	C	0.111692	0.509425	0.870980
	C135	C	0.868151	0.491440	0.870026
	C136	C	0.111053	0.877405	0.501335
	C137	C	0.111988	0.121641	0.484634
	C138	C	0.868513	0.121860	0.501164
	C139	C	0.867389	0.876927	0.483900
	C140	C	0.498880	0.120024	0.870475
	C141	C	0.481992	0.121032	0.113889
	C142	C	0.499405	0.878269	0.113457
	C143	C	0.481072	0.877639	0.869819
	C144	C	0.370093	0.884522	0.668237
	C145	C	0.609884	0.114160	0.669974
	C146	C	0.608429	0.884694	0.315828
	C147	C	0.369120	0.113255	0.314645
	C148	C	0.665612	0.380519	0.876730
	C149	C	0.667770	0.620239	0.106350
	C150	C	0.314236	0.616414	0.876839
	C151	C	0.312036	0.378907	0.106338
	C152	C	0.874725	0.674768	0.373397
	C153	C	0.104763	0.677282	0.612322
	C154	C	0.875418	0.323605	0.611211
	C155	C	0.105366	0.322424	0.372139
	C156	C	0.875482	0.381073	0.668367
	C157	C	0.104999	0.620158	0.669705
	C158	C	0.875141	0.618462	0.315711
	C159	C	0.105311	0.379916	0.314631
	C160	C	0.371105	0.674875	0.876928
	C161	C	0.611910	0.679096	0.105566
	C162	C	0.608563	0.322265	0.876658
	C163	C	0.369494	0.321128	0.105858
	C164	C	0.665041	0.884347	0.374257
	C165	C	0.667293	0.114152	0.612663
	C166	C	0.312803	0.884258	0.610725
	C167	C	0.312305	0.113664	0.372851
	C168	C	0.869328	0.386223	0.168880
	C169	C	0.111467	0.614895	0.170675
	C170	C	0.109109	0.386311	0.814745
	C171	C	0.871429	0.614950	0.816289
	C172	C	0.165125	0.879800	0.377712
	C173	C	0.167758	0.119670	0.607913
	C174	C	0.813120	0.118043	0.377794
	C175	C	0.813717	0.881041	0.607963
	C176	C	0.374993	0.174458	0.872601
	C177	C	0.605298	0.176929	0.112364
	C178	C	0.375855	0.822206	0.110288
	C179	C	0.605080	0.823347	0.872386
	C180	C	0.375459	0.879668	0.167197
	C181	C	0.605454	0.119127	0.169758
	C182	C	0.374970	0.117672	0.815012
	C183	C	0.605068	0.880789	0.815505
	C184	C	0.869717	0.176214	0.377766
	C185	C	0.111039	0.178365	0.607519
	C186	C	0.107937	0.821961	0.377754
	C187	C	0.870609	0.822528	0.607409
	C188	C	0.164861	0.385615	0.873373
	C189	C	0.169264	0.614577	0.113364
	C190	C	0.812430	0.386230	0.111009
	C191	C	0.814144	0.615025	0.873881
	C192	C	0.391833	0.093257	0.590990
	C193	C	0.589307	0.904612	0.592399
	C194	C	0.588843	0.093732	0.393819
	C195	C	0.389391	0.904604	0.391680
	C196	C	0.588439	0.400876	0.085947
	C197	C	0.590034	0.599511	0.896621
	C198	C	0.392515	0.598552	0.086239
	C199	C	0.388812	0.397952	0.896886
	C200	C	0.084622	0.598082	0.394474
	C201	C	0.894523	0.598953	0.592075
	C202	C	0.085251	0.402189	0.591005
	C203	C	0.895668	0.400133	0.392227
	C204	C	0.891985	0.594689	0.091535
	C205	C	0.088808	0.406214	0.091553
	C206	C	0.090153	0.595781	0.893417
	C207	C	0.889751	0.405283	0.891506
	C208	C	0.089135	0.900049	0.587447
	C209	C	0.088691	0.098283	0.399035
	C210	C	0.891712	0.099896	0.586888
	C211	C	0.888687	0.897924	0.397299
	C212	C	0.585129	0.098281	0.892682
	C213	C	0.395770	0.097893	0.091033
	C214	C	0.585752	0.901479	0.091543
	C215	C	0.394425	0.898880	0.891772
	Zn216	Zn	0.489895	-0.000641	0.742209
	Zn217	Zn	0.489709	-0.000903	0.242136
	Zn218	Zn	0.740008	0.499778	-0.008072
	Zn219	Zn	0.240146	0.499728	-0.007951
	Zn220	Zn	-0.010279	0.748692	0.492287
	Zn221	Zn	-0.009967	0.250347	0.492215
	Zn222	Zn	-0.009718	0.500781	0.742313
	Zn223	Zn	-0.009625	0.500504	0.242595
	Zn224	Zn	0.490615	0.750328	-0.008245
	Zn225	Zn	0.489803	0.248648	-0.008495
	Zn226	Zn	0.739915	-0.000506	0.492922
	Zn227	Zn	0.239699	-0.001227	0.492679
	N228	N	0.404176	0.962103	0.669846
	N229	N	0.575941	0.036487	0.671145
	N230	N	0.575255	0.962328	0.314140
	N231	N	0.402613	0.035732	0.312662
	N232	N	0.667095	0.414665	0.954358
	N233	N	0.668310	0.585465	0.029070
	N234	N	0.313386	0.583080	0.954507
	N235	N	0.310158	0.412230	0.028756
	N236	N	0.952470	0.676128	0.407616
	N237	N	0.026743	0.678103	0.578484
	N238	N	0.953169	0.322778	0.577415
	N239	N	0.027422	0.320887	0.405688
	N240	N	0.953285	0.415249	0.669865
	N241	N	0.027022	0.586330	0.671231
	N242	N	0.953146	0.585230	0.314651
	N243	N	0.027586	0.413621	0.313294
	N244	N	0.404885	0.677354	0.954633
	N245	N	0.578016	0.680333	0.027833
	N246	N	0.574955	0.320987	0.954284
	N247	N	0.402660	0.319205	0.028150
	N248	N	0.666762	0.961971	0.408027
	N249	N	0.668439	0.036567	0.578892
	N250	N	0.312059	0.961696	0.577169
	N251	N	0.311018	0.036252	0.406456
	N252	N	0.903785	0.463668	0.170571
	N253	N	0.077057	0.537435	0.171667
	N254	N	0.076474	0.464349	0.813211
	N255	N	0.904213	0.537051	0.813770
	N256	N	0.166705	0.913891	0.455260
	N257	N	0.168464	0.085053	0.530500
	N258	N	0.812205	0.084754	0.455432
	N259	N	0.811633	0.914105	0.530133
	N260	N	0.452843	0.176072	0.906516
	N261	N	0.527372	0.178188	0.078258
	N262	N	0.453933	0.821249	0.077595
	N263	N	0.527094	0.821517	0.905614
	N264	N	0.453305	0.913803	0.169179
	N265	N	0.527444	0.085176	0.170832
	N266	N	0.452969	0.084378	0.813706
	N267	N	0.526939	0.913863	0.813627
	N268	N	0.903522	0.178490	0.455477
	N269	N	0.077079	0.179789	0.529820
	N270	N	0.075130	0.820378	0.455752
	N271	N	0.903325	0.820030	0.529375
	N272	N	0.166437	0.463130	0.907624
	N273	N	0.169822	0.537114	0.079080
	N274	N	0.811889	0.463597	0.077399
	N275	N	0.812132	0.537180	0.906631
	O276	O	0.641426	0.531552	0.446764
	H277	H	0.633476	0.538218	0.438833
	H278	H	0.647763	0.535665	0.437847
	O279	O	0.500946	0.410460	0.521476
	H280	H	0.499506	0.410690	0.525106
	H281	H	0.504730	0.404216	0.518204
	O282	O	0.450821	0.491565	0.512610
	H283	H	0.457026	0.497958	0.507973
	H284	H	0.449030	0.487077	0.519325
	O285	O	0.595513	0.430464	1.480507
	H286	H	0.593344	0.437842	1.468583
	H287	H	0.609710	0.432628	1.493325
	O288	O	0.367033	0.520394	0.414095
	H289	H	0.368393	0.510798	0.407668
	H290	H	0.368856	0.526802	0.413102
	O291	O	0.058982	0.123333	1.065365
	H292	H	0.066805	0.119881	1.064917
	H293	H	0.047454	0.133824	1.070611
	O294	O	1.060067	1.093274	1.064567
	H295	H	1.058024	1.092273	1.059973
	H296	H	1.055223	1.096153	1.066181
	O297	O	0.553127	0.424011	0.391448
	H298	H	0.545234	0.419260	0.374908
	H299	H	0.562295	0.429779	0.391767
	O300	O	0.476561	0.456686	0.503456
	H301	H	0.477103	0.457787	0.502911
	H302	H	0.483909	0.452053	0.503805
	O303	O	0.464091	0.484181	0.497537
	H304	H	0.451899	0.484768	0.497511
	H305	H	0.456764	0.483123	0.504324
	O306	O	1.470811	0.486153	0.542883
	H307	H	1.466136	0.482999	0.539778
	H308	H	1.462926	0.485834	0.539033
	O309	O	0.401461	0.584610	0.513844
	H310	H	0.410573	0.581158	0.528966
	H311	H	0.398167	0.576416	0.513964
	O312	O	0.468047	0.440928	0.446193
	H313	H	0.477813	0.436912	0.450823
	H314	H	0.466391	0.440403	0.451673
	O315	O	0.993160	0.115182	1.040462
	H316	H	0.992106	0.121528	1.037186
	H317	H	0.999189	0.113535	1.058088
	O318	O	-0.584538	-0.520407	0.479897
	H319	H	-0.585473	-0.527000	0.478673
	H320	H	-0.590868	-0.526635	0.483918
	O321	O	0.546231	0.498205	0.516538
	H322	H	0.555901	0.498242	0.514057
	H323	H	0.552697	0.497650	0.508146
	O324	O	1.052059	0.103675	0.057075
	H325	H	1.047899	0.106520	0.055415
	H326	H	1.051920	0.102608	0.054308
	O327	O	1.061648	1.100811	0.081683
	H328	H	1.073700	1.102055	0.073565
	H329	H	1.072812	1.108124	0.092476
	O330	O	0.535086	0.562237	0.464844
	H331	H	0.525305	0.556888	0.465146
	H332	H	0.541684	0.574101	0.462867
	O333	O	0.465280	0.600011	0.396527
	H334	H	0.472105	0.624028	0.398972
	H335	H	0.443089	0.596738	0.403749
