data_Molecule from HDF5

_cell_length_a		16.369001
_cell_length_b		16.321496
_cell_length_c		16.250720
_cell_angle_alpha	90.308764
_cell_angle_beta	89.774895
_cell_angle_gamma	89.632897
_symmetry_space_group_name_H-M	'P 1'
_symmetry_Int_Tables_number		1

loop_
	_symmetry_equiv_pos_as_xyz
	x,y,z

loop_
	_atom_site_label
	_atom_site_type_symbol
	_atom_site_fract_x
	_atom_site_fract_y
	_atom_site_fract_z
	H0	H	0.386668	0.827046	0.710616
	H1	H	0.588575	0.149378	0.710649
	H2	H	0.593807	0.827038	0.273301
	H3	H	0.388051	0.150290	0.275954
	H4	H	0.709905	0.384266	0.829441
	H5	H	0.709218	0.591926	0.152228
	H6	H	0.273853	0.590804	0.830306
	H7	H	0.270954	0.385118	0.151644
	H8	H	0.832071	0.709316	0.387381
	H9	H	0.151326	0.708115	0.596276
	H10	H	0.830765	0.271348	0.596373
	H11	H	0.150031	0.265419	0.387283
	H12	H	0.829995	0.388557	0.710143
	H13	H	0.152807	0.591117	0.709720
	H14	H	0.831091	0.590085	0.275156
	H15	H	0.152416	0.383666	0.273752
	H16	H	0.387708	0.706391	0.830974
	H17	H	0.594215	0.707597	0.152557
	H18	H	0.593911	0.268939	0.830089
	H19	H	0.388697	0.272888	0.153751
	H20	H	0.712104	0.828310	0.386312
	H21	H	0.709776	0.147484	0.599836
	H22	H	0.272121	0.826284	0.594178
	H23	H	0.270779	0.148935	0.390425
	H24	H	0.889165	0.327422	0.209147
	H25	H	0.094202	0.648534	0.212901
	H26	H	0.098039	0.329338	0.769179
	H27	H	0.888512	0.650043	0.775384
	H28	H	0.212986	0.879866	0.332018
	H29	H	0.207531	0.090802	0.653960
	H30	H	0.769046	0.093210	0.332571
	H31	H	0.768409	0.882153	0.652452
	H32	H	0.331135	0.210993	0.887573
	H33	H	0.651808	0.208208	0.096125
	H34	H	0.331321	0.769531	0.097174
	H35	H	0.649389	0.764991	0.884341
	H36	H	0.329993	0.887985	0.210551
	H37	H	0.651727	0.091474	0.210961
	H38	H	0.329470	0.092086	0.774852
	H39	H	0.648981	0.880569	0.768831
	H40	H	0.884470	0.208058	0.332027
	H41	H	0.092207	0.206127	0.654061
	H42	H	0.095824	0.767783	0.331415
	H43	H	0.885422	0.768437	0.652937
	H44	H	0.214311	0.328871	0.884182
	H45	H	0.210582	0.649029	0.097839
	H46	H	0.771087	0.328837	0.095886
	H47	H	0.770625	0.648381	0.886846
	H48	H	0.400320	0.103478	0.586045
	H49	H	0.575052	0.875144	0.580997
	H50	H	0.577480	0.102993	0.401991
	H51	H	0.404731	0.875310	0.405312
	H52	H	0.579550	0.389118	0.109019
	H53	H	0.579518	0.573581	0.877602
	H54	H	0.401747	0.584435	0.109805
	H55	H	0.389411	0.403292	0.873470
	H56	H	0.106003	0.575750	0.400381
	H57	H	0.880923	0.579973	0.572477
	H58	H	0.106834	0.395946	0.582939
	H59	H	0.873251	0.395954	0.392342
	H60	H	0.105799	0.394483	0.578213
	H61	H	0.878214	0.570925	0.588193
	H62	H	0.106273	0.579326	0.403851
	H63	H	0.876625	0.391604	0.408814
	H64	H	0.395912	0.575618	0.108007
	H65	H	0.579727	0.580348	0.875409
	H66	H	0.591802	0.402394	0.109532
	H67	H	0.412054	0.408341	0.882056
	H68	H	0.579653	0.102009	0.406365
	H69	H	0.582221	0.873955	0.575455
	H70	H	0.398471	0.101854	0.580085
	H71	H	0.396068	0.872540	0.402836
	H72	H	0.893280	0.604084	0.078780
	H73	H	0.084433	0.372699	0.082952
	H74	H	0.076771	0.601557	0.904287
	H75	H	0.892523	0.369007	0.897097
	H76	H	0.070864	0.899347	0.604075
	H77	H	0.088745	0.076952	0.374046
	H78	H	0.899332	0.083596	0.609514
	H79	H	0.903237	0.897974	0.378646
	H80	H	0.605638	0.079609	0.901437
	H81	H	0.375630	0.082979	0.084799
	H82	H	0.602291	0.906884	0.081675
	H83	H	0.376139	0.899052	0.901518
	H84	H	0.609283	0.893137	0.088039
	H85	H	0.377141	0.082641	0.081558
	H86	H	0.603884	0.075918	0.905478
	H87	H	0.376068	0.896021	0.903352
	H88	H	0.895972	0.075589	0.607872
	H89	H	0.077620	0.068049	0.380654
	H90	H	0.083927	0.890290	0.611107
	H91	H	0.900424	0.898268	0.377565
	H92	H	0.086293	0.603596	0.907205
	H93	H	0.079618	0.374397	0.081135
	H94	H	0.901036	0.604753	0.089762
	H95	H	0.913041	0.374900	0.894731
	H96	H	0.394261	0.104563	0.584362
	H97	H	0.582837	0.870726	0.584906
	H98	H	0.582509	0.104286	0.402316
	H99	H	0.403555	0.872961	0.396960
	H100	H	0.575210	0.405276	0.102852
	H101	H	0.584962	0.576441	0.874662
	H102	H	0.406095	0.575673	0.104034
	H103	H	0.407404	0.385842	0.873107
	H104	H	0.104844	0.574935	0.405196
	H105	H	0.872900	0.587841	0.587212
	H106	H	0.104936	0.399884	0.579735
	H107	H	0.879602	0.407893	0.403465
	H108	H	0.906452	0.599873	0.078548
	H109	H	0.083745	0.374288	0.077542
	H110	H	0.083870	0.605762	0.897347
	H111	H	0.902259	0.377672	0.913336
	H112	H	0.086051	0.906327	0.606773
	H113	H	0.074093	0.082305	0.376653
	H114	H	0.904129	0.077178	0.605077
	H115	H	0.901972	0.901329	0.378469
	H116	H	0.603173	0.073886	0.899963
	H117	H	0.376854	0.079148	0.084188
	H118	H	0.604184	0.892812	0.071779
	H119	H	0.376435	0.899163	0.904751
	C120	C	0.367575	-0.003655	0.613942
	C121	C	0.610902	0.979114	0.613385
	C122	C	0.612035	-0.002973	0.370989
	C123	C	0.369198	0.979684	0.370761
	C124	C	0.613372	0.366819	0.000402
	C125	C	0.612327	0.609045	0.982289
	C126	C	0.369991	0.609456	0.000533
	C127	C	0.370798	0.368155	0.982532
	C128	C	0.000206	0.608836	0.371485
	C129	C	0.983443	0.610440	0.613735
	C130	C	-0.000123	0.367113	0.612617
	C131	C	0.981851	0.365662	0.369658
	C132	C	0.869330	0.497178	0.113352
	C133	C	0.113247	0.479597	0.113185
	C134	C	0.114304	0.497530	0.869913
	C135	C	0.870814	0.479979	0.870565
	C136	C	0.112372	0.866363	0.501011
	C137	C	0.110816	0.108009	0.483999
	C138	C	0.868040	0.110343	0.501436
	C139	C	0.869664	0.867133	0.484035
	C140	C	0.498675	0.109408	0.870999
	C141	C	0.482794	0.111550	0.114340
	C142	C	0.499388	0.867226	0.112681
	C143	C	0.481445	0.865416	0.869866
	C144	C	0.367497	0.875086	0.671683
	C145	C	0.609907	0.100555	0.672398
	C146	C	0.613124	0.875737	0.311919
	C147	C	0.369029	0.101615	0.314417
	C148	C	0.671014	0.365589	0.878167
	C149	C	0.670311	0.610915	0.104086
	C150	C	0.312467	0.610071	0.878895
	C151	C	0.310897	0.366778	0.103749
	C152	C	0.879807	0.668654	0.369915
	C153	C	0.103433	0.668764	0.614816
	C154	C	0.878678	0.310064	0.614733
	C155	C	0.102396	0.305337	0.368416
	C156	C	0.878738	0.368521	0.671416
	C157	C	0.104258	0.610457	0.671469
	C158	C	0.879371	0.609559	0.313677
	C159	C	0.103419	0.364109	0.311788
	C160	C	0.369567	0.667269	0.879154
	C161	C	0.613156	0.668468	0.103873
	C162	C	0.613296	0.308281	0.878361
	C163	C	0.369601	0.311020	0.104757
	C164	C	0.671956	0.876211	0.368263
	C165	C	0.669621	0.099719	0.616751
	C166	C	0.310770	0.874710	0.613465
	C167	C	0.310130	0.100810	0.371027
	C168	C	0.869475	0.375886	0.170665
	C169	C	0.113305	0.600509	0.173165
	C170	C	0.116737	0.377337	0.808916
	C171	C	0.869655	0.601214	0.813086
	C172	C	0.172578	0.862958	0.380017
	C173	C	0.168783	0.109624	0.605436
	C174	C	0.808787	0.111619	0.380655
	C175	C	0.808808	0.864231	0.604327
	C176	C	0.378737	0.170105	0.869851
	C177	C	0.603565	0.169258	0.114812
	C178	C	0.378977	0.808973	0.115133
	C179	C	0.601531	0.804994	0.866528
	C180	C	0.378499	0.868070	0.171717
	C181	C	0.603495	0.111496	0.172423
	C182	C	0.377792	0.111153	0.813325
	C183	C	0.601210	0.862742	0.808946
	C184	C	0.866304	0.169015	0.380460
	C185	C	0.111171	0.166951	0.605475
	C186	C	0.114646	0.806556	0.379851
	C187	C	0.867090	0.807379	0.604634
	C188	C	0.175001	0.377302	0.865959
	C189	C	0.171453	0.600539	0.115968
	C190	C	0.810531	0.376828	0.114283
	C191	C	0.810965	0.600610	0.868925
	C192	C	0.390924	0.081052	0.590487
	C193	C	0.586986	0.895173	0.588093
	C194	C	0.587310	0.081195	0.396307
	C195	C	0.394159	0.895363	0.394692
	C196	C	0.589298	0.391757	0.085070
	C197	C	0.588368	0.584167	0.897788
	C198	C	0.394041	0.585472	0.085248
	C199	C	0.395613	0.392124	0.898186
	C200	C	0.084193	0.583895	0.396039
	C201	C	0.899089	0.586529	0.589593
	C202	C	0.084009	0.390046	0.587523
	C203	C	0.898111	0.390979	0.394427
	C204	C	0.893432	0.581019	0.089245
	C205	C	0.089612	0.395825	0.087969
	C206	C	0.089502	0.581725	0.895613
	C207	C	0.895497	0.395636	0.894801
	C208	C	0.087410	0.891293	0.585362
	C209	C	0.086903	0.083148	0.399273
	C210	C	0.892643	0.085941	0.585635
	C211	C	0.894686	0.892059	0.400080
	C212	C	0.582483	0.083843	0.895245
	C213	C	0.398540	0.088271	0.090650
	C214	C	0.583235	0.890908	0.087826
	C215	C	0.397889	0.890733	0.895863
	Zn216	Zn	0.489248	-0.012509	0.742363
	Zn217	Zn	0.491590	-0.010971	0.242063
	Zn218	Zn	0.741086	0.488781	-0.009358
	Zn219	Zn	0.242086	0.488806	-0.008477
	Zn220	Zn	-0.008576	0.738667	0.492265
	Zn221	Zn	-0.009378	0.237454	0.492156
	Zn222	Zn	-0.007986	0.488830	0.742143
	Zn223	Zn	-0.008466	0.487864	0.241811
	Zn224	Zn	0.490969	0.737569	-0.008433
	Zn225	Zn	0.491204	0.239488	-0.007776
	Zn226	Zn	0.740108	-0.012040	0.492674
	Zn227	Zn	0.239804	-0.012391	0.491989
	N228	N	0.401930	0.951740	0.672329
	N229	N	0.574161	0.024554	0.670453
	N230	N	0.576791	0.951911	0.313443
	N231	N	0.404879	0.025190	0.313949
	N232	N	0.671284	0.401176	0.955051
	N233	N	0.669922	0.574945	0.027565
	N234	N	0.312777	0.574659	0.955388
	N235	N	0.311278	0.401238	0.026723
	N236	N	0.956160	0.668541	0.404878
	N237	N	0.027142	0.668894	0.579828
	N238	N	0.954940	0.308927	0.578906
	N239	N	0.025880	0.305952	0.403652
	N240	N	0.955044	0.403114	0.670415
	N241	N	0.028329	0.574994	0.671092
	N242	N	0.955168	0.572974	0.314709
	N243	N	0.027550	0.400748	0.312331
	N244	N	0.404481	0.667287	0.955957
	N245	N	0.577672	0.667580	0.027154
	N246	N	0.578284	0.308678	0.955352
	N247	N	0.405886	0.311435	0.028323
	N248	N	0.671406	0.952728	0.404276
	N249	N	0.670626	0.023104	0.581231
	N250	N	0.310544	0.951230	0.578492
	N251	N	0.310037	0.023883	0.405048
	N252	N	0.905264	0.451785	0.170522
	N253	N	0.077721	0.524364	0.171740
	N254	N	0.079723	0.453003	0.811402
	N255	N	0.906249	0.525238	0.813964
	N256	N	0.171371	0.899537	0.456274
	N257	N	0.168468	0.073356	0.529050
	N258	N	0.809488	0.075910	0.457040
	N259	N	0.809999	0.900637	0.528358
	N260	N	0.455025	0.169165	0.904973
	N261	N	0.527428	0.169527	0.079512
	N262	N	0.455063	0.808523	0.078969
	N263	N	0.526038	0.806612	0.903690
	N264	N	0.454290	0.903812	0.170222
	N265	N	0.527396	0.076341	0.172327
	N266	N	0.453187	0.073763	0.814206
	N267	N	0.525498	0.899703	0.811039
	N268	N	0.902391	0.168380	0.456612
	N269	N	0.075671	0.165776	0.528806
	N270	N	0.077816	0.808548	0.456037
	N271	N	0.904264	0.808985	0.528728
	N272	N	0.173503	0.453154	0.903218
	N273	N	0.171525	0.524575	0.079247
	N274	N	0.810311	0.453192	0.079237
	N275	N	0.811527	0.524186	0.904067
	O276	O	0.568373	0.410647	0.463884
	H277	H	0.569295	0.410871	0.444332
	H278	H	0.581639	0.408173	0.466461
	O279	O	1.185124	0.851848	0.807369
	H280	H	1.183128	0.849682	0.796716
	H281	H	1.185996	0.838098	0.837020
	O282	O	0.846791	-0.123724	1.032128
	H283	H	0.849396	-0.112247	1.035127
	H284	H	0.855566	-0.130885	1.018996
	O285	O	0.486184	0.612570	0.417989
	H286	H	0.497681	0.628705	0.418392
	H287	H	0.471445	0.616583	0.410180
	O288	O	1.198772	1.122905	1.008934
	H289	H	1.217481	1.139135	1.012624
	H290	H	1.178280	1.119436	0.982485
	O291	O	-0.165465	0.876690	0.141728
	H292	H	-0.159974	0.866246	0.147499
	H293	H	-0.148958	0.881890	0.136666
	O294	O	0.636917	0.521616	0.417223
	H295	H	0.638340	0.537534	0.410674
	H296	H	0.643277	0.526592	0.410105
	O297	O	1.045962	0.963385	0.917122
	H298	H	1.042231	0.974485	0.926358
	H299	H	1.044511	0.975048	0.905377
	O300	O	0.478636	0.500992	0.599829
	H301	H	0.467474	0.494415	0.602871
	H302	H	0.474526	0.493219	0.593865
	O303	O	0.485950	0.633248	0.630906
	H304	H	0.486710	0.639513	0.629431
	H305	H	0.491657	0.630984	0.620085
	O306	O	0.623230	0.376710	0.446316
	H307	H	0.626423	0.379615	0.434565
	H308	H	0.608557	0.389667	0.449014
	O309	O	0.452073	0.436181	0.502876
	H310	H	0.449768	0.442124	0.497791
	H311	H	0.462709	0.433470	0.515059
	O312	O	-0.213814	0.086222	-0.133733
	H313	H	-0.200454	0.086028	-0.129981
	H314	H	-0.223583	0.098341	-0.147374
	O315	O	0.618597	0.341923	0.424422
	H316	H	0.634996	0.331488	0.423180
	H317	H	0.618263	0.347926	0.410081
	O318	O	0.108915	0.783546	0.850935
	H319	H	0.089674	0.791196	0.852663
	H320	H	0.107198	0.764968	0.843373
	O321	O	0.511994	0.667790	0.397736
	H322	H	0.506120	0.684315	0.400493
	H323	H	0.512526	0.663051	0.383363
	O324	O	-0.550417	1.437449	-0.513963
	H325	H	-0.547849	1.437324	-0.512416
	H326	H	-0.542306	1.433304	-0.512986
	O327	O	0.404544	0.480985	0.389399
	H328	H	0.407891	0.483791	0.388303
	H329	H	0.397129	0.481945	0.391876
	O330	O	0.000621	0.149178	1.167849
	H331	H	-0.007644	0.154176	1.161065
	H332	H	0.015278	0.145808	1.176685
	O333	O	-0.454728	0.474563	1.504315
	H334	H	-0.460808	0.483845	1.511114
	H335	H	-0.458923	0.476573	1.500633
	O336	O	0.406070	0.457114	0.467177
	H337	H	0.413400	0.443879	0.474872
	H338	H	0.398640	0.456893	0.453051
	O339	O	0.962476	0.195214	-0.113563
	H340	H	0.947877	0.184062	-0.102686
	H341	H	0.950803	0.212280	-0.118099
	O342	O	0.123582	-0.067265	-0.189627
	H343	H	0.142141	-0.093295	-0.196332
	H344	H	0.141745	-0.079643	-0.196425
	O345	O	1.138071	-0.065311	1.012904
	H346	H	1.122332	-0.062397	1.029502
	H347	H	1.156389	-0.050774	1.025423
	O348	O	1.060519	1.181991	-0.049361
	H349	H	1.058834	1.190063	-0.060965
	H350	H	1.064259	1.154340	-0.050418
	O351	O	0.465147	0.558529	0.579209
	H352	H	0.466692	0.557069	0.575044
	H353	H	0.466316	0.564112	0.583731
	O354	O	0.874383	-0.022985	1.002133
	H355	H	0.867753	-0.018009	1.008584
	H356	H	0.869303	-0.004487	0.992689
	O357	O	-0.090029	-0.005646	1.015296
	H358	H	-0.072405	-0.034985	1.011196
	H359	H	-0.088691	0.001974	1.025637
	O360	O	0.502722	0.546648	0.416616
	H361	H	0.501641	0.536569	0.435596
	H362	H	0.515437	0.561995	0.427386
	O363	O	0.099032	0.862703	1.057372
	H364	H	0.104638	0.882456	1.068721
	H365	H	0.109687	0.850626	1.053453
	O366	O	0.865950	0.987853	-0.110903
	H367	H	0.883153	1.004119	-0.124628
	H368	H	0.865033	1.011706	-0.113190
	O369	O	-0.197203	0.057999	0.956507
	H370	H	-0.197184	0.038899	0.971291
	H371	H	-0.201484	0.065300	0.955028
	O372	O	0.432380	0.317249	0.479283
	H373	H	0.434643	0.319411	0.482772
	H374	H	0.432995	0.323453	0.472289
	O375	O	0.575989	0.480585	0.610768
	H376	H	0.577328	0.464976	0.599904
	H377	H	0.557640	0.477964	0.607553
	O378	O	0.822681	0.953169	-0.110239
	H379	H	0.825292	0.977322	-0.124807
	H380	H	0.807079	0.944386	-0.100763
	O381	O	1.152454	0.110995	0.169429
	H382	H	1.148667	0.113872	0.145813
	H383	H	1.122979	0.102495	0.175532
	O384	O	1.336475	0.462195	0.565615
	H385	H	1.337903	0.457080	0.564170
	H386	H	1.335135	0.461245	0.579104
	O387	O	0.122587	-0.052872	0.198075
	H388	H	0.110655	-0.033678	0.204509
	H389	H	0.128682	-0.044834	0.202347
	O390	O	0.332291	1.294807	0.386533
	H391	H	0.319736	1.275121	0.383533
	H392	H	0.353389	1.307636	0.360578
	O393	O	0.918955	0.950276	1.095038
	H394	H	0.935114	0.944454	1.104231
	H395	H	0.911282	0.936618	1.089644
	O396	O	0.560869	0.644227	0.617074
	H397	H	0.545244	0.621760	0.611395
	H398	H	0.567244	0.665803	0.634765
	O399	O	-0.036973	0.881441	1.114818
	H400	H	-0.034192	0.892738	1.104161
	H401	H	-0.035790	0.868541	1.103088
	O402	O	0.484582	0.460766	0.319399
	H403	H	0.465635	0.455115	0.305991
	H404	H	0.480295	0.450449	0.318437
	O405	O	0.986245	1.151829	0.036073
	H406	H	0.978280	1.148754	0.034616
	H407	H	0.994781	1.144132	0.028092
	O408	O	0.970749	0.888709	-0.149059
	H409	H	0.970184	0.897207	-0.148755
	H410	H	0.971257	0.898917	-0.165157
	O411	O	0.862697	0.117918	0.942392
	H412	H	0.852966	0.101203	0.965454
	H413	H	0.862457	0.119226	0.943967
	O414	O	1.055517	-0.162471	0.077864
	H415	H	1.038051	-0.153982	0.078082
	H416	H	1.052537	-0.157711	0.062827
	O417	O	0.483212	0.538990	0.483091
	H418	H	0.482775	0.520095	0.472234
	H419	H	0.491333	0.530913	0.503004
