data_Molecule from HDF5

_cell_length_a		16.246698
_cell_length_b		16.189797
_cell_length_c		16.259324
_cell_angle_alpha	90.225534
_cell_angle_beta	89.734953
_cell_angle_gamma	89.854992
_symmetry_space_group_name_H-M	'P 1'
_symmetry_Int_Tables_number		1

loop_
	_symmetry_equiv_pos_as_xyz
	x,y,z

loop_
	_atom_site_label
	_atom_site_type_symbol
	_atom_site_fract_x
	_atom_site_fract_y
	_atom_site_fract_z
	H0	H	0.388898	0.832564	0.715583
	H1	H	0.587612	0.161208	0.714590
	H2	H	0.590846	0.833998	0.283758
	H3	H	0.391511	0.161792	0.288499
	H4	H	0.707504	0.395710	0.837768
	H5	H	0.704574	0.596673	0.165038
	H6	H	0.275655	0.596623	0.837913
	H7	H	0.276265	0.398170	0.164767
	H8	H	0.824651	0.709362	0.404305
	H9	H	0.153126	0.713739	0.598767
	H10	H	0.825309	0.284931	0.598651
	H11	H	0.152741	0.281911	0.401169
	H12	H	0.826950	0.399200	0.716025
	H13	H	0.154551	0.598322	0.714953
	H14	H	0.826573	0.596950	0.286376
	H15	H	0.153548	0.395961	0.285211
	H16	H	0.391789	0.711191	0.837401
	H17	H	0.588120	0.711889	0.164454
	H18	H	0.590235	0.280667	0.837676
	H19	H	0.392095	0.284524	0.165413
	H20	H	0.704117	0.832368	0.400151
	H21	H	0.704135	0.160294	0.599487
	H22	H	0.274303	0.832371	0.598924
	H23	H	0.275872	0.161235	0.403236
	H24	H	0.891871	0.332420	0.214212
	H25	H	0.088258	0.660469	0.215639
	H26	H	0.092298	0.332912	0.783619
	H27	H	0.891223	0.661103	0.788378
	H28	H	0.205791	0.896227	0.336730
	H29	H	0.203837	0.097297	0.663202
	H30	H	0.775856	0.094516	0.336170
	H31	H	0.773394	0.898217	0.663886
	H32	H	0.326621	0.212500	0.903808
	H33	H	0.654373	0.210803	0.098725
	H34	H	0.326847	0.782840	0.101190
	H35	H	0.653949	0.782386	0.900664
	H36	H	0.326700	0.899535	0.215599
	H37	H	0.653393	0.097522	0.215453
	H38	H	0.325288	0.098325	0.787045
	H39	H	0.652390	0.895042	0.783024
	H40	H	0.892117	0.209992	0.335864
	H41	H	0.087453	0.211696	0.663661
	H42	H	0.087753	0.782230	0.336248
	H43	H	0.888535	0.783384	0.663763
	H44	H	0.207265	0.332303	0.900593
	H45	H	0.203738	0.660798	0.100375
	H46	H	0.776596	0.332202	0.098849
	H47	H	0.776812	0.660798	0.903731
	H48	H	0.392686	0.113813	0.591623
	H49	H	0.576251	0.879714	0.598041
	H50	H	0.588668	0.118727	0.400511
	H51	H	0.397433	0.880848	0.412372
	H52	H	0.573991	0.411286	0.112749
	H53	H	0.583796	0.592533	0.883005
	H54	H	0.387675	0.582472	0.118743
	H55	H	0.393139	0.407980	0.883319
	H56	H	0.106712	0.590728	0.407242
	H57	H	0.871970	0.587062	0.604262
	H58	H	0.105830	0.401528	0.586413
	H59	H	0.869707	0.398305	0.403617
	H60	H	0.104801	0.411215	0.593492
	H61	H	0.870730	0.598816	0.593046
	H62	H	0.106066	0.589555	0.409925
	H63	H	0.874671	0.404477	0.413599
	H64	H	0.407095	0.586247	0.113506
	H65	H	0.588750	0.586662	0.883338
	H66	H	0.582491	0.390622	0.121775
	H67	H	0.404635	0.408962	0.887505
	H68	H	0.574196	0.113145	0.406066
	H69	H	0.578328	0.882899	0.585094
	H70	H	0.395701	0.116511	0.599082
	H71	H	0.394137	0.878114	0.405177
	H72	H	0.894768	0.614135	0.089759
	H73	H	0.085846	0.377341	0.095230
	H74	H	0.088746	0.615153	0.909293
	H75	H	0.888392	0.376749	0.909680
	H76	H	0.086379	0.904391	0.618210
	H77	H	0.086662	0.091813	0.380760
	H78	H	0.897265	0.096924	0.617815
	H79	H	0.896231	0.908915	0.384521
	H80	H	0.608797	0.086869	0.898071
	H81	H	0.368705	0.094616	0.103666
	H82	H	0.608523	0.905665	0.094853
	H83	H	0.370582	0.897185	0.907659
	H84	H	0.607967	0.902263	0.092852
	H85	H	0.373125	0.096130	0.086919
	H86	H	0.608263	0.097481	0.911748
	H87	H	0.375811	0.905749	0.914708
	H88	H	0.889885	0.088538	0.618528
	H89	H	0.084160	0.086339	0.383829
	H90	H	0.079840	0.912237	0.613322
	H91	H	0.901304	0.900434	0.383476
	H92	H	0.080828	0.614571	0.903819
	H93	H	0.081228	0.379254	0.093641
	H94	H	0.894767	0.616949	0.099541
	H95	H	0.904237	0.377343	0.896929
	H96	H	0.400733	0.111806	0.593363
	H97	H	0.587504	0.877306	0.592652
	H98	H	0.586761	0.113253	0.416749
	H99	H	0.402481	0.880141	0.404872
	H100	H	0.596640	0.409922	0.120535
	H101	H	0.581312	0.585857	0.885813
	H102	H	0.395984	0.600500	0.122205
	H103	H	0.401250	0.397701	0.883111
	H104	H	0.105630	0.587332	0.407181
	H105	H	0.877034	0.583953	0.589591
	H106	H	0.109845	0.400586	0.597549
	H107	H	0.872477	0.410466	0.403692
	H108	H	0.902752	0.612332	0.094908
	H109	H	0.085183	0.379079	0.090542
	H110	H	0.081110	0.610943	0.913480
	H111	H	0.906366	0.383612	0.916396
	H112	H	0.075806	0.902175	0.616111
	H113	H	0.079900	0.091650	0.382609
	H114	H	0.899689	0.086730	0.614949
	H115	H	0.892471	0.900973	0.381389
	H116	H	0.602260	0.080965	0.912444
	H117	H	0.375943	0.081145	0.094991
	H118	H	0.606928	0.904879	0.092159
	H119	H	0.372587	0.908163	0.903255
	C120	C	0.366826	0.005448	0.623169
	C121	C	0.610041	0.988139	0.621495
	C122	C	0.611782	0.006048	0.378576
	C123	C	0.369268	0.988645	0.379662
	C124	C	0.613118	0.374585	0.009967
	C125	C	0.612294	0.617570	0.992529
	C126	C	0.368394	0.618790	0.009951
	C127	C	0.370043	0.375970	0.992813
	C128	C	-0.002069	0.617800	0.379932
	C129	C	0.981458	0.619622	0.623443
	C130	C	-0.001554	0.376037	0.621761
	C131	C	0.980742	0.375249	0.378392
	C132	C	0.869228	0.505481	0.122477
	C133	C	0.111795	0.487479	0.122295
	C134	C	0.113272	0.505249	0.878832
	C135	C	0.870126	0.487816	0.879540
	C136	C	0.110454	0.875707	0.508527
	C137	C	0.111392	0.119004	0.490960
	C138	C	0.867312	0.118959	0.508890
	C139	C	0.867173	0.875125	0.491504
	C140	C	0.497982	0.118117	0.879738
	C141	C	0.481405	0.119043	0.123051
	C142	C	0.499193	0.875459	0.122827
	C143	C	0.481135	0.874556	0.878903
	C144	C	0.368492	0.881885	0.678213
	C145	C	0.607984	0.111877	0.676989
	C146	C	0.610270	0.882715	0.322203
	C147	C	0.371311	0.112529	0.325853
	C148	C	0.669273	0.375598	0.886627
	C149	C	0.666554	0.615826	0.116116
	C150	C	0.313525	0.616500	0.886750
	C151	C	0.314027	0.377829	0.115756
	C152	C	0.874091	0.672480	0.383344
	C153	C	0.104406	0.675823	0.620012
	C154	C	0.874741	0.321871	0.619297
	C155	C	0.103986	0.319825	0.380660
	C156	C	0.875473	0.378786	0.677663
	C157	C	0.105078	0.618355	0.677768
	C158	C	0.874823	0.616387	0.324698
	C159	C	0.104377	0.376509	0.322946
	C160	C	0.371615	0.673401	0.886448
	C161	C	0.608652	0.673196	0.115994
	C162	C	0.610901	0.318662	0.886603
	C163	C	0.371941	0.321442	0.116114
	C164	C	0.666755	0.881954	0.380200
	C165	C	0.665545	0.111629	0.619674
	C166	C	0.311711	0.881662	0.620015
	C167	C	0.313688	0.112339	0.382628
	C168	C	0.871725	0.381513	0.176815
	C169	C	0.108596	0.611496	0.177824
	C170	C	0.112308	0.381962	0.822075
	C171	C	0.871409	0.611821	0.825556
	C172	C	0.167041	0.876547	0.385514
	C173	C	0.165816	0.117112	0.614502
	C174	C	0.813198	0.115456	0.385247
	C175	C	0.811197	0.877593	0.614617
	C176	C	0.375038	0.174115	0.883210
	C177	C	0.605173	0.173320	0.119420
	C178	C	0.375863	0.820560	0.121109
	C179	C	0.604644	0.819273	0.880285
	C180	C	0.375763	0.878581	0.178083
	C181	C	0.604683	0.116987	0.177340
	C182	C	0.374603	0.117591	0.824936
	C183	C	0.604046	0.875817	0.822103
	C184	C	0.870851	0.172893	0.385049
	C185	C	0.108065	0.174384	0.614555
	C186	C	0.108317	0.820061	0.385177
	C187	C	0.868604	0.820579	0.614800
	C188	C	0.169631	0.381699	0.879786
	C189	C	0.166089	0.611702	0.120696
	C190	C	0.814570	0.381184	0.119257
	C191	C	0.814276	0.611605	0.882757
	C192	C	0.389541	0.091760	0.601266
	C193	C	0.587321	0.902121	0.598750
	C194	C	0.589629	0.092870	0.401186
	C195	C	0.391413	0.902063	0.401220
	C196	C	0.591008	0.397282	0.096026
	C197	C	0.591025	0.595089	0.906410
	C198	C	0.390483	0.596540	0.096041
	C199	C	0.392878	0.398410	0.906814
	C200	C	0.083967	0.595613	0.401660
	C201	C	0.895573	0.596620	0.601960
	C202	C	0.084654	0.397989	0.599039
	C203	C	0.894484	0.397831	0.400494
	C204	C	0.891053	0.591991	0.100938
	C205	C	0.090327	0.401131	0.099751
	C206	C	0.090327	0.591314	0.902216
	C207	C	0.892841	0.401582	0.901234
	C208	C	0.087507	0.899475	0.593902
	C209	C	0.089962	0.096513	0.404833
	C210	C	0.889022	0.097243	0.594924
	C211	C	0.890109	0.896858	0.405268
	C212	C	0.584035	0.095229	0.900970
	C213	C	0.394994	0.097083	0.101717
	C214	C	0.585547	0.897604	0.099863
	C215	C	0.395072	0.897190	0.901826
	Zn216	Zn	0.488914	-0.003335	0.751014
	Zn217	Zn	0.490555	-0.001974	0.250874
	Zn218	Zn	0.741596	0.496490	0.001153
	Zn219	Zn	0.240613	0.496343	0.001398
	Zn220	Zn	-0.011082	0.747122	0.500531
	Zn221	Zn	-0.010761	0.247073	0.499949
	Zn222	Zn	-0.008925	0.497285	0.751217
	Zn223	Zn	-0.009770	0.496569	0.250930
	Zn224	Zn	0.490250	0.746992	0.001005
	Zn225	Zn	0.490284	0.247046	0.001500
	Zn226	Zn	0.739133	-0.003581	0.500065
	Zn227	Zn	0.239893	-0.002864	0.500064
	N228	N	0.401786	0.959819	0.680340
	N229	N	0.574080	0.034031	0.678183
	N230	N	0.576775	0.960849	0.321160
	N231	N	0.405170	0.034614	0.323912
	N232	N	0.670631	0.409750	0.964221
	N233	N	0.668873	0.582087	0.038478
	N234	N	0.311380	0.583231	0.964583
	N235	N	0.312777	0.410976	0.037994
	N236	N	0.951584	0.673316	0.417114
	N237	N	0.026659	0.676783	0.587011
	N238	N	0.952498	0.320112	0.585128
	N239	N	0.026259	0.318654	0.414311
	N240	N	0.953391	0.411513	0.679342
	N241	N	0.027581	0.584236	0.680082
	N242	N	0.952746	0.583198	0.322367
	N243	N	0.026632	0.410418	0.321671
	N244	N	0.404960	0.674976	0.964056
	N245	N	0.575689	0.674659	0.038158
	N246	N	0.576720	0.317981	0.964120
	N247	N	0.406237	0.320323	0.038585
	N248	N	0.667763	0.959778	0.414499
	N249	N	0.666927	0.033790	0.585699
	N250	N	0.310354	0.959671	0.586595
	N251	N	0.312291	0.034054	0.415540
	N252	N	0.905091	0.459640	0.178735
	N253	N	0.075605	0.533284	0.179004
	N254	N	0.078137	0.459756	0.821374
	N255	N	0.905518	0.533944	0.823506
	N256	N	0.168431	0.910649	0.463246
	N257	N	0.168157	0.083542	0.536809
	N258	N	0.810774	0.082641	0.463190
	N259	N	0.810292	0.910746	0.537015
	N260	N	0.452673	0.174647	0.916460
	N261	N	0.527447	0.174688	0.086189
	N262	N	0.453707	0.818571	0.087650
	N263	N	0.527096	0.818198	0.914788
	N264	N	0.453613	0.912130	0.179135
	N265	N	0.526699	0.084002	0.179634
	N266	N	0.452082	0.083196	0.822709
	N267	N	0.526207	0.909544	0.821162
	N268	N	0.903754	0.175303	0.462875
	N269	N	0.074646	0.175391	0.536886
	N270	N	0.073951	0.819308	0.462621
	N271	N	0.902740	0.819074	0.537169
	N272	N	0.170504	0.459539	0.914255
	N273	N	0.168070	0.533773	0.086795
	N274	N	0.812676	0.459271	0.086434
	N275	N	0.813366	0.533569	0.915880
	O276	O	0.447820	0.526879	0.583358
	H277	H	0.445841	0.525152	0.579883
	H278	H	0.435189	0.525685	0.588669
	O279	O	0.519774	0.460671	0.522277
	H280	H	0.524617	0.452179	0.530931
	H281	H	0.530216	0.466659	0.523587
	O282	O	0.509986	0.563831	0.454665
	H283	H	0.512225	0.569737	0.465891
	H284	H	0.502174	0.565825	0.443275
	O285	O	0.017284	0.953792	0.942035
	H286	H	0.015294	0.955995	0.947729
	H287	H	0.012534	0.959949	0.935214
	O288	O	0.412730	0.586096	0.467627
	H289	H	0.408752	0.581675	0.463823
	H290	H	0.415117	0.585719	0.467528
	O291	O	0.043288	-0.095419	0.926270
	H292	H	0.053305	-0.095616	0.919507
	H293	H	0.050366	-0.098257	0.921705
	O294	O	1.096373	0.965686	0.882517
	H295	H	1.102205	0.966541	0.874073
	H296	H	1.092818	0.952748	0.889435
	O297	O	0.552815	0.512246	0.534304
	H298	H	0.557835	0.517841	0.534308
	H299	H	0.552139	0.511951	0.537550
	O300	O	0.468871	0.489538	0.607045
	H301	H	0.464666	0.485603	0.611695
	H302	H	0.471408	0.489448	0.609174
	O303	O	0.441293	0.481436	0.553539
	H304	H	0.445327	0.477527	0.555491
	H305	H	0.439385	0.468947	0.555650
	O306	O	1.431870	0.542551	0.469466
	H307	H	1.428615	0.548381	0.460516
	H308	H	1.442492	0.538793	0.477381
	O309	O	0.514817	0.494266	0.495482
	H310	H	0.515483	0.505537	0.505977
	H311	H	0.505445	0.501674	0.498013
	O312	O	0.479526	0.577494	0.527799
	H313	H	0.484050	0.581515	0.535577
	H314	H	0.476994	0.584267	0.517734
	O315	O	1.045493	-0.083993	0.944162
	H316	H	1.053562	-0.085481	0.946348
	H317	H	1.043283	-0.089149	0.937853
	O318	O	0.054040	0.001228	-0.109545
	H319	H	0.053136	0.000324	-0.111785
	H320	H	0.057921	-0.000516	-0.119767
	O321	O	0.477899	0.486327	0.566897
	H322	H	0.473456	0.487427	0.577353
	H323	H	0.469458	0.496662	0.566233
	O324	O	1.002962	-0.011133	-0.086596
	H325	H	1.006669	-0.016712	-0.091530
	H326	H	1.000490	-0.006325	-0.086121
	O327	O	1.060602	0.963712	-0.100615
	H328	H	1.053569	0.966784	-0.100838
	H329	H	1.053788	0.965581	-0.096032
	O330	O	0.481493	0.491446	0.454489
	H331	H	0.479283	0.485767	0.444518
	H332	H	0.473016	0.483013	0.451498
	O333	O	0.510838	0.431158	0.503886
	H334	H	0.525910	0.423202	0.492893
	H335	H	0.517843	0.432566	0.498987
