data_Molecule from HDF5

_cell_length_a		16.631167
_cell_length_b		16.606540
_cell_length_c		16.683004
_cell_angle_alpha	89.955025
_cell_angle_beta	89.991668
_cell_angle_gamma	89.967845
_symmetry_space_group_name_H-M	'P 1'
_symmetry_Int_Tables_number		1

loop_
	_symmetry_equiv_pos_as_xyz
	x,y,z

loop_
	_atom_site_label
	_atom_site_type_symbol
	_atom_site_fract_x
	_atom_site_fract_y
	_atom_site_fract_z
	H0	H	0.401218	0.820624	0.714935
	H1	H	0.613703	0.129810	0.713732
	H2	H	0.612081	0.819694	0.272593
	H3	H	0.401985	0.130361	0.270195
	H4	H	0.729119	0.370312	0.838021
	H5	H	0.728468	0.579792	0.147636
	H6	H	0.287774	0.579691	0.836217
	H7	H	0.284446	0.369215	0.145884
	H8	H	0.852604	0.695972	0.388073
	H9	H	0.162334	0.698213	0.599143
	H10	H	0.851323	0.256465	0.595105
	H11	H	0.164407	0.255939	0.389749
	H12	H	0.852266	0.370597	0.712291
	H13	H	0.161245	0.582295	0.715766
	H14	H	0.852969	0.581125	0.270610
	H15	H	0.164382	0.372131	0.273588
	H16	H	0.405214	0.694497	0.835866
	H17	H	0.611402	0.695183	0.148499
	H18	H	0.612228	0.255115	0.837439
	H19	H	0.399909	0.251637	0.145737
	H20	H	0.728750	0.819899	0.388364
	H21	H	0.726427	0.131757	0.594370
	H22	H	0.285074	0.821263	0.599344
	H23	H	0.286989	0.130705	0.387177
	H24	H	0.902459	0.319426	0.213621
	H25	H	0.112972	0.630203	0.213946
	H26	H	0.112631	0.320369	0.770903
	H27	H	0.903141	0.631162	0.772438
	H28	H	0.232466	0.867307	0.338816
	H29	H	0.229292	0.080371	0.646608
	H30	H	0.785247	0.082576	0.338207
	H31	H	0.786578	0.870285	0.646131
	H32	H	0.352759	0.196186	0.887319
	H33	H	0.664033	0.195656	0.096397
	H34	H	0.350604	0.756368	0.096104
	H35	H	0.665428	0.758417	0.892251
	H36	H	0.352547	0.870253	0.214155
	H37	H	0.664123	0.079672	0.212067
	H38	H	0.354066	0.081157	0.770287
	H39	H	0.665510	0.873862	0.775718
	H40	H	0.901949	0.198650	0.338378
	H41	H	0.111805	0.195118	0.647864
	H42	H	0.116544	0.750587	0.338587
	H43	H	0.904785	0.755133	0.647010
	H44	H	0.230106	0.320624	0.885562
	H45	H	0.226945	0.631708	0.095105
	H46	H	0.787488	0.319891	0.097312
	H47	H	0.788027	0.631205	0.888998
	H48	H	0.422105	0.084847	0.581327
	H49	H	0.599165	0.863441	0.578723
	H50	H	0.594179	0.086393	0.404364
	H51	H	0.423490	0.864287	0.401885
	H52	H	0.594556	0.386615	0.102424
	H53	H	0.593943	0.563950	0.883596
	H54	H	0.420352	0.564956	0.102549
	H55	H	0.422804	0.389740	0.884307
	H56	H	0.120903	0.563241	0.398583
	H57	H	0.897526	0.557678	0.585047
	H58	H	0.122554	0.383967	0.587080
	H59	H	0.895860	0.387829	0.400825
	H60	H	0.118833	0.382605	0.577114
	H61	H	0.893422	0.570447	0.584036
	H62	H	0.120469	0.567693	0.405604
	H63	H	0.895264	0.383856	0.402525
	H64	H	0.415470	0.568233	0.105997
	H65	H	0.597961	0.571495	0.879674
	H66	H	0.597141	0.383583	0.104340
	H67	H	0.420264	0.383753	0.880415
	H68	H	0.600344	0.088515	0.403451
	H69	H	0.601934	0.861042	0.584804
	H70	H	0.421155	0.085670	0.578733
	H71	H	0.420159	0.865320	0.408059
	H72	H	0.918789	0.585377	0.079937
	H73	H	0.095285	0.360570	0.091250
	H74	H	0.099873	0.588946	0.902438
	H75	H	0.917110	0.363186	0.899982
	H76	H	0.091832	0.886983	0.600752
	H77	H	0.095523	0.066454	0.380816
	H78	H	0.918196	0.062311	0.602359
	H79	H	0.912447	0.882861	0.377644
	H80	H	0.620080	0.066170	0.903239
	H81	H	0.395903	0.068963	0.079309
	H82	H	0.618920	0.890330	0.085330
	H83	H	0.395248	0.882721	0.901566
	H84	H	0.622529	0.880825	0.085261
	H85	H	0.399118	0.059889	0.078540
	H86	H	0.618933	0.063922	0.904776
	H87	H	0.396383	0.886437	0.903593
	H88	H	0.919414	0.067708	0.604419
	H89	H	0.099044	0.065170	0.380193
	H90	H	0.098198	0.884271	0.603492
	H91	H	0.918817	0.894366	0.382953
	H92	H	0.092835	0.586710	0.900364
	H93	H	0.089686	0.367923	0.077194
	H94	H	0.917098	0.587363	0.082706
	H95	H	0.921118	0.364375	0.903063
	H96	H	0.419784	0.086269	0.580792
	H97	H	0.595072	0.862811	0.584632
	H98	H	0.596428	0.088221	0.398178
	H99	H	0.416842	0.862436	0.402266
	H100	H	0.598580	0.388063	0.103962
	H101	H	0.602902	0.563487	0.880783
	H102	H	0.414376	0.562010	0.103744
	H103	H	0.416165	0.390150	0.881909
	H104	H	0.117889	0.559573	0.405399
	H105	H	0.898501	0.564141	0.573191
	H106	H	0.117735	0.391587	0.582075
	H107	H	0.896616	0.387295	0.404634
	H108	H	0.920640	0.587012	0.082985
	H109	H	0.105340	0.362216	0.077482
	H110	H	0.095245	0.585237	0.907747
	H111	H	0.916367	0.363409	0.905330
	H112	H	0.097423	0.891370	0.601382
	H113	H	0.096395	0.062514	0.382087
	H114	H	0.914671	0.065161	0.605716
	H115	H	0.926170	0.882586	0.381028
	H116	H	0.620262	0.063305	0.901701
	H117	H	0.394889	0.062725	0.086557
	H118	H	0.616562	0.884449	0.077431
	H119	H	0.395226	0.886390	0.899199
	C120	C	0.387570	-0.016383	0.613492
	C121	C	0.629718	0.966171	0.613826
	C122	C	0.629317	-0.015532	0.370541
	C123	C	0.387236	0.966655	0.371403
	C124	C	0.628961	0.354197	0.001093
	C125	C	0.629247	0.596948	0.984535
	C126	C	0.385960	0.596771	0.000809
	C127	C	0.385784	0.354075	0.983650
	C128	C	0.016691	0.596293	0.371044
	C129	C	0.998679	0.596828	0.613644
	C130	C	0.016338	0.354488	0.613398
	C131	C	0.999152	0.354083	0.371270
	C132	C	0.886839	0.483700	0.113918
	C133	C	0.128644	0.466894	0.113195
	C134	C	0.128606	0.484196	0.870865
	C135	C	0.886500	0.466726	0.871476
	C136	C	0.129449	0.853923	0.500506
	C137	C	0.128577	0.096127	0.483925
	C138	C	0.885815	0.097463	0.501299
	C139	C	0.887066	0.854339	0.483150
	C140	C	0.517152	0.096878	0.870744
	C141	C	0.499789	0.095880	0.113024
	C142	C	0.516206	0.853456	0.114280
	C143	C	0.499627	0.854488	0.871541
	C144	C	0.383383	0.867259	0.674956
	C145	C	0.631382	0.083590	0.673038
	C146	C	0.631084	0.866686	0.311969
	C147	C	0.384100	0.083780	0.310743
	C148	C	0.688685	0.352380	0.884434
	C149	C	0.688526	0.598467	0.101157
	C150	C	0.327373	0.598403	0.883129
	C151	C	0.324770	0.350894	0.099597
	C152	C	0.899365	0.656232	0.369373
	C153	C	0.115688	0.657595	0.617122
	C154	C	0.898565	0.295688	0.614201
	C155	C	0.117214	0.295320	0.370534
	C156	C	0.898965	0.352542	0.672444
	C157	C	0.115070	0.600258	0.675107
	C158	C	0.899589	0.599109	0.311149
	C159	C	0.117221	0.352869	0.312763
	C160	C	0.385741	0.655575	0.883095
	C161	C	0.630072	0.655674	0.101607
	C162	C	0.630580	0.295034	0.884093
	C163	C	0.382284	0.292719	0.099459
	C164	C	0.689109	0.866917	0.369273
	C165	C	0.687522	0.084455	0.614133
	C166	C	0.326027	0.867505	0.617069
	C167	C	0.326630	0.083695	0.368590
	C168	C	0.884527	0.366380	0.173749
	C169	C	0.131103	0.583805	0.173307
	C170	C	0.131066	0.367073	0.810673
	C171	C	0.884633	0.584178	0.812220
	C172	C	0.191343	0.849981	0.384804
	C173	C	0.188751	0.098474	0.600427
	C174	C	0.825938	0.100500	0.384485
	C175	C	0.827292	0.852287	0.599890
	C176	C	0.399950	0.156554	0.868668
	C177	C	0.617098	0.155538	0.114697
	C178	C	0.398183	0.795353	0.115228
	C179	C	0.618157	0.797247	0.872714
	C180	C	0.398960	0.852146	0.173747
	C181	C	0.617113	0.097624	0.172175
	C182	C	0.400376	0.099070	0.810818
	C183	C	0.618305	0.854513	0.814715
	C184	C	0.883589	0.158268	0.384785
	C185	C	0.130198	0.155411	0.601035
	C186	C	0.133988	0.791754	0.384796
	C187	C	0.885811	0.795038	0.600330
	C188	C	0.189067	0.367090	0.867973
	C189	C	0.187658	0.584667	0.114352
	C190	C	0.827209	0.366684	0.116004
	C191	C	0.827555	0.584396	0.870286
	C192	C	0.413588	0.064546	0.587563
	C193	C	0.605645	0.883975	0.589611
	C194	C	0.604279	0.066376	0.394914
	C195	C	0.412964	0.885257	0.396805
	C196	C	0.603891	0.379111	0.082405
	C197	C	0.605293	0.572988	0.902635
	C198	C	0.409846	0.572157	0.082618
	C199	C	0.412180	0.380406	0.903088
	C200	C	0.098600	0.570825	0.396175
	C201	C	0.917724	0.571393	0.588014
	C202	C	0.098285	0.379109	0.589096
	C203	C	0.917182	0.379044	0.395680
	C204	C	0.911728	0.565376	0.088926
	C205	C	0.104039	0.385007	0.088717
	C206	C	0.103177	0.565799	0.896279
	C207	C	0.911206	0.384911	0.895857
	C208	C	0.103295	0.880205	0.580923
	C209	C	0.103984	0.071636	0.402307
	C210	C	0.910450	0.072282	0.582918
	C211	C	0.912096	0.879469	0.401549
	C212	C	0.598466	0.071684	0.896176
	C213	C	0.417989	0.071158	0.088504
	C214	C	0.597977	0.878148	0.089636
	C215	C	0.417065	0.878389	0.894731
	Zn216	Zn	0.508595	-0.024838	0.741898
	Zn217	Zn	0.507803	-0.024699	0.242505
	Zn218	Zn	0.758109	0.475194	-0.007057
	Zn219	Zn	0.257174	0.475581	-0.008204
	Zn220	Zn	0.008136	0.725026	0.491750
	Zn221	Zn	0.007897	0.225517	0.492749
	Zn222	Zn	0.007327	0.475351	0.742294
	Zn223	Zn	0.007839	0.474890	0.242522
	Zn224	Zn	0.507705	0.725450	-0.007163
	Zn225	Zn	0.508032	0.225439	-0.007731
	Zn226	Zn	0.757619	-0.024313	0.491918
	Zn227	Zn	0.258489	-0.024705	0.492423
	N228	N	0.421119	0.940670	0.672898
	N229	N	0.596340	0.008795	0.673155
	N230	N	0.594906	0.940913	0.312346
	N231	N	0.420931	0.009729	0.312047
	N232	N	0.688046	0.388597	0.958326
	N233	N	0.688153	0.562570	0.027222
	N234	N	0.327112	0.562801	0.957406
	N235	N	0.326836	0.388305	0.026390
	N236	N	0.973412	0.654678	0.405714
	N237	N	0.042253	0.655785	0.579628
	N238	N	0.972694	0.296600	0.578207
	N239	N	0.042714	0.295680	0.406037
	N240	N	0.973319	0.388333	0.672258
	N241	N	0.041307	0.563269	0.673306
	N242	N	0.973745	0.562657	0.311896
	N243	N	0.042686	0.388557	0.312924
	N244	N	0.421402	0.655038	0.957370
	N245	N	0.593984	0.654841	0.027988
	N246	N	0.593944	0.296258	0.957475
	N247	N	0.419531	0.294346	0.026226
	N248	N	0.688487	0.941420	0.404706
	N249	N	0.686888	0.010324	0.578127
	N250	N	0.328366	0.940722	0.579531
	N251	N	0.328280	0.009853	0.405426
	N252	N	0.920811	0.440450	0.172777
	N253	N	0.095088	0.509551	0.172752
	N254	N	0.094208	0.440954	0.812238
	N255	N	0.920431	0.509964	0.812505
	N256	N	0.188828	0.887856	0.457715
	N257	N	0.188184	0.062358	0.526529
	N258	N	0.827208	0.063180	0.457962
	N259	N	0.827793	0.888354	0.525904
	N260	N	0.473782	0.155590	0.905104
	N261	N	0.542931	0.154834	0.078678
	N262	N	0.472263	0.795794	0.079222
	N263	N	0.543143	0.796597	0.906958
	N264	N	0.473520	0.887534	0.173541
	N265	N	0.542973	0.061360	0.171604
	N266	N	0.474492	0.062762	0.811790
	N267	N	0.543350	0.889210	0.813487
	N268	N	0.920149	0.156568	0.458389
	N269	N	0.093770	0.154419	0.527402
	N270	N	0.096102	0.793998	0.457856
	N271	N	0.922224	0.796126	0.526565
	N272	N	0.187786	0.440968	0.904647
	N273	N	0.186443	0.510766	0.077686
	N274	N	0.828126	0.440688	0.079683
	N275	N	0.828195	0.510152	0.906285
	O276	O	-0.210466	0.978221	0.027784
	H277	H	-0.219376	0.966983	0.051069
	H278	H	-0.208101	0.959409	0.035817
	O279	O	0.548315	0.655821	0.508381
	H280	H	0.535159	0.645976	0.501418
	H281	H	0.537964	0.660181	0.504845
	O282	O	1.473909	0.515689	0.331917
	H283	H	1.478203	0.529639	0.337435
	H284	H	1.491127	0.507607	0.320212
	O285	O	0.314607	0.666841	0.681472
	H286	H	0.309743	0.671791	0.684339
	H287	H	0.319362	0.633672	0.672397
	O288	O	0.009646	0.954879	1.226269
	H289	H	0.022028	0.963007	1.223795
	H290	H	0.031626	0.964052	1.218557
	O291	O	0.529119	0.584311	0.348958
	H292	H	0.529959	0.584621	0.342769
	H293	H	0.516586	0.589508	0.349740
	O294	O	1.024970	-0.037543	1.005011
	H295	H	1.028094	-0.047663	0.998651
	H296	H	1.026509	-0.028061	1.002251
	O297	O	0.474590	0.697049	0.268852
	H298	H	0.460804	0.704453	0.260792
	H299	H	0.460812	0.707667	0.259185
	O300	O	-0.026750	0.017500	0.952252
	H301	H	-0.026389	0.021777	0.945474
	H302	H	-0.033304	0.018081	0.961557
	O303	O	0.541709	0.288636	0.507709
	H304	H	0.544640	0.280851	0.505538
	H305	H	0.555730	0.291874	0.517401
	O306	O	0.451635	0.677403	0.575297
	H307	H	0.435916	0.676879	0.567274
	H308	H	0.420356	0.677450	0.577792
	O309	O	0.208980	1.106005	1.118644
	H310	H	0.210525	1.097299	1.110783
	H311	H	0.222797	1.119481	1.113511
	O312	O	0.126026	1.200123	1.027056
	H313	H	0.124691	1.211922	1.026253
	H314	H	0.124447	1.201751	1.039981
	O315	O	0.550199	0.702027	1.720191
	H316	H	0.543571	0.732722	1.753656
	H317	H	0.543850	0.694920	1.699986
	O318	O	0.719414	0.267323	0.455596
	H319	H	0.736705	0.252989	0.456842
	H320	H	0.708882	0.273084	0.452631
	O321	O	-0.198012	1.188535	0.779068
	H322	H	-0.177272	1.187062	0.809491
	H323	H	-0.198374	1.152046	0.784610
	O324	O	0.942597	0.901101	-0.012877
	H325	H	0.936084	0.902064	-0.011797
	H326	H	0.950283	0.887431	-0.019547
	O327	O	-0.088315	0.176621	1.116688
	H328	H	-0.070950	0.167795	1.117717
	H329	H	-0.075313	0.165923	1.114817
	O330	O	0.698286	0.523460	0.701623
	H331	H	0.692427	0.546830	0.699865
	H332	H	0.707078	0.521980	0.718132
	O333	O	0.785014	-0.058621	1.216226
	H334	H	0.782216	-0.054372	1.241669
	H335	H	0.783652	-0.077195	1.229744
	O336	O	0.314878	0.283965	0.297614
	H337	H	0.329272	0.300390	0.302878
	H338	H	0.332287	0.300780	0.318969
	O339	O	0.315254	0.276134	0.591144
	H340	H	0.310076	0.267800	0.582933
	H341	H	0.327422	0.266075	0.622255
	O342	O	-0.298104	0.272048	0.291223
	H343	H	-0.281934	0.264156	0.308518
	H344	H	-0.274031	0.285238	0.273822
	O345	O	0.208926	1.180126	1.199280
	H346	H	0.222385	1.184009	1.199075
	H347	H	0.229131	1.192853	1.187428
	O348	O	0.067027	-0.179432	0.207851
	H349	H	0.076478	-0.168244	0.200740
	H350	H	0.069016	-0.184995	0.210669
	O351	O	0.356319	0.598374	0.450180
	H352	H	0.345884	0.603492	0.452061
	H353	H	0.352576	0.582919	0.469484
	O354	O	-0.028861	0.180498	0.790515
	H355	H	-0.047601	0.163596	0.800759
	H356	H	-0.024312	0.199025	0.758594
	O357	O	0.233098	0.909416	0.066950
	H358	H	0.236490	0.893158	0.068003
	H359	H	0.233215	0.914894	0.065521
	O360	O	0.664198	0.443154	0.554224
	H361	H	0.656264	0.456157	0.552127
	H362	H	0.679871	0.450770	0.561919
	O363	O	-0.004437	-0.248174	0.159150
	H364	H	0.017350	-0.249289	0.153970
	H365	H	0.007400	-0.258566	0.180199
	O366	O	0.518993	0.305192	0.703764
	H367	H	0.543708	0.315435	0.700758
	H368	H	0.522095	0.295075	0.722479
	O369	O	1.216406	-0.230982	-0.213122
	H370	H	1.228360	-0.224636	-0.214280
	H371	H	1.181567	-0.240184	-0.217548
	O372	O	1.171648	0.749851	-0.006655
	H373	H	1.172442	0.759484	-0.018088
	H374	H	1.191176	0.732293	-0.014252
	O375	O	0.822899	-0.210460	-0.199163
	H376	H	0.831161	-0.204207	-0.170749
	H377	H	0.806841	-0.229039	-0.214039
	O378	O	0.326366	0.486825	0.518402
	H379	H	0.333303	0.469979	0.517882
	H380	H	0.336732	0.471240	0.527543
	O381	O	0.191945	1.144245	0.813722
	H382	H	0.173754	1.145812	0.816631
	H383	H	0.181821	1.125229	0.829837
	O384	O	0.802528	-0.228233	1.197346
	H385	H	0.791697	-0.223399	1.205853
	H386	H	0.849936	-0.231332	1.203505
	O387	O	1.455215	1.249865	-0.571153
	H388	H	1.468755	1.243160	-0.580146
	H389	H	1.458606	1.250293	-0.581578
	O390	O	0.332726	0.476819	0.274572
	H391	H	0.344237	0.469544	0.270405
	H392	H	0.338517	0.477002	0.279030
	O393	O	0.631054	0.589170	0.289566
	H394	H	0.620687	0.593959	0.305990
	H395	H	0.631418	0.577924	0.288250
	O396	O	0.165911	0.996821	1.164309
	H397	H	0.176930	1.008497	1.168308
	H398	H	0.174490	1.013191	1.162143
	O399	O	-0.402892	-0.446137	1.469059
	H400	H	-0.394066	-0.449371	1.454932
	H401	H	-0.404600	-0.454924	1.482677
	O402	O	0.236532	1.039704	-0.049544
	H403	H	0.237325	1.044340	-0.068029
	H404	H	0.235232	1.026780	-0.043051
	O405	O	1.140955	-0.199126	0.982336
	H406	H	1.153224	-0.209173	0.975907
	H407	H	1.142524	-0.195242	0.961527
	O408	O	0.224818	-0.053343	-0.221739
	H409	H	0.241728	-0.054549	-0.238765
	H410	H	0.215360	-0.069759	-0.217806
	O411	O	1.276106	1.247243	0.718366
	H412	H	1.317563	1.257675	0.717966
	H413	H	1.250405	1.225135	0.735206
	O414	O	0.346257	0.409349	0.436734
	H415	H	0.344226	0.391840	0.448810
	H416	H	0.362956	0.404181	0.435159
	O417	O	0.612368	0.495777	0.420012
	H418	H	0.605778	0.487290	0.414461
	H419	H	0.620308	0.500588	0.423975
	O420	O	0.303610	0.620657	0.294360
	H421	H	0.303169	0.621318	0.312739
	H422	H	0.317428	0.587424	0.297552
	O423	O	-0.197836	0.193905	0.947691
	H424	H	-0.222132	0.211635	0.955999
	H425	H	-0.189527	0.169604	0.955283
	O426	O	0.285625	0.457118	0.708767
	H427	H	0.282772	0.440777	0.719213
	H428	H	0.281986	0.425218	0.718742
	O429	O	0.989517	0.921305	0.866907
	H430	H	0.985909	0.925278	0.859683
	H431	H	0.996822	0.926250	0.871808
	O432	O	1.033928	-0.243307	0.786840
	H433	H	1.022253	-0.236290	0.785253
	H434	H	1.034142	-0.259615	0.768793
	O435	O	0.374884	1.344492	0.531469
	H436	H	0.395997	1.346840	0.518659
	H437	H	0.376924	1.332076	0.528789
	O438	O	0.693960	0.285166	-0.318865
	H439	H	0.704191	0.294379	-0.320569
	H440	H	0.722460	0.275913	-0.307974
	O441	O	-0.039744	-0.043858	-0.236760
	H442	H	-0.046840	-0.062778	-0.232719
	H443	H	-0.033572	-0.039695	-0.227958
	O444	O	0.726013	0.683179	0.529117
	H445	H	0.714937	0.687579	0.522971
	H446	H	0.732935	0.707155	0.526161
	O447	O	-0.190951	1.010144	0.782342
	H448	H	-0.213094	1.006427	0.768203
	H449	H	-0.183491	0.994483	0.785080
	O450	O	0.063295	1.105558	0.829738
	H451	H	0.041451	1.117263	0.828620
	H452	H	0.056131	1.106784	0.842010
	O453	O	0.722306	0.689250	0.703036
	H454	H	0.694993	0.692135	0.682511
	H455	H	0.721892	0.684071	0.701776
	O456	O	-0.213718	-0.246183	1.023103
	H457	H	-0.223296	-0.261210	1.035516
	H458	H	-0.218076	-0.252541	1.045906
	O459	O	0.899885	1.090344	0.136127
	H460	H	0.928435	1.085917	0.137929
	H461	H	0.897708	1.066633	0.135660
	O462	O	0.691445	0.499222	0.423438
	H463	H	0.693254	0.489036	0.430179
	H464	H	0.683626	0.511933	0.423579
	O465	O	0.871668	-0.073704	-0.102468
	H466	H	0.870902	-0.088392	-0.105496
	H467	H	0.866337	-0.067032	-0.094962
	O468	O	0.656003	0.474986	0.610041
	H469	H	0.657025	0.483875	0.617986
	H470	H	0.655623	0.462834	0.620970
	O471	O	0.233766	0.751726	0.217194
	H472	H	0.235825	0.748880	0.217489
	H473	H	0.226104	0.738583	0.226217
	O474	O	0.472420	0.434825	0.706069
	H475	H	0.473405	0.442185	0.693408
	H476	H	0.487914	0.427287	0.710962
	O477	O	0.521581	0.337183	1.555682
	H478	H	0.530587	0.343770	1.557748
	H479	H	0.515465	0.325976	1.567596
	O480	O	0.727334	0.440132	0.270188
	H481	H	0.727564	0.453887	0.277089
	H482	H	0.752851	0.432287	0.253466
	O483	O	0.287773	0.655951	0.494748
	H484	H	0.264126	0.664833	0.493395
	H485	H	0.280686	0.630788	0.497566
	O486	O	0.535821	0.254180	0.267862
	H487	H	0.555094	0.240232	0.250180
	H488	H	0.567794	0.249390	0.262178
	O489	O	0.995636	1.157157	0.003419
	H490	H	0.980429	1.159295	0.004019
	H491	H	1.002637	1.159482	0.012971
	O492	O	-0.039546	0.072780	0.104430
	H493	H	-0.015343	0.065249	0.107112
	H494	H	-0.045503	0.078935	0.075367
	O495	O	-0.067800	0.766865	0.945024
	H496	H	-0.050633	0.767825	0.956769
	H497	H	-0.075959	0.754047	0.960811
	O498	O	1.037279	1.196669	1.218795
	H499	H	1.050726	1.218294	1.244295
	H500	H	1.067412	1.190432	1.218188
	O501	O	0.532227	0.525258	0.615456
	H502	H	0.548471	0.520725	0.627103
	H503	H	0.532440	0.526111	0.630911
