data_Molecule from HDF5

_cell_length_a		16.238367
_cell_length_b		16.058541
_cell_length_c		16.346252
_cell_angle_alpha	89.500900
_cell_angle_beta	90.170757
_cell_angle_gamma	90.226971
_symmetry_space_group_name_H-M	'P 1'
_symmetry_Int_Tables_number		1

loop_
	_symmetry_equiv_pos_as_xyz
	x,y,z

loop_
	_atom_site_label
	_atom_site_type_symbol
	_atom_site_fract_x
	_atom_site_fract_y
	_atom_site_fract_z
	H0	H	0.402573	0.833687	0.708094
	H1	H	0.609855	0.161745	0.704562
	H2	H	0.603445	0.831974	0.276642
	H3	H	0.405119	0.161686	0.273442
	H4	H	0.720718	0.400588	0.828480
	H5	H	0.723815	0.600695	0.152647
	H6	H	0.286452	0.601816	0.828474
	H7	H	0.288694	0.395782	0.154318
	H8	H	0.841400	0.709774	0.390737
	H9	H	0.169659	0.707580	0.587743
	H10	H	0.840863	0.277973	0.588770
	H11	H	0.170952	0.286192	0.397411
	H12	H	0.842397	0.388520	0.709039
	H13	H	0.167221	0.595398	0.707425
	H14	H	0.842541	0.597775	0.272291
	H15	H	0.166850	0.393204	0.273965
	H16	H	0.409747	0.712176	0.825932
	H17	H	0.602615	0.710249	0.154693
	H18	H	0.600926	0.287403	0.826023
	H19	H	0.405964	0.279379	0.153081
	H20	H	0.718134	0.831336	0.390900
	H21	H	0.722786	0.161777	0.587876
	H22	H	0.291514	0.832223	0.589435
	H23	H	0.293067	0.162627	0.389483
	H24	H	0.903613	0.331046	0.205470
	H25	H	0.107212	0.660806	0.207074
	H26	H	0.102638	0.330190	0.780990
	H27	H	0.901814	0.659131	0.771010
	H28	H	0.220984	0.897631	0.326887
	H29	H	0.223904	0.096489	0.652145
	H30	H	0.789469	0.098671	0.327186
	H31	H	0.786740	0.891592	0.651790
	H32	H	0.340260	0.211338	0.890061
	H33	H	0.670033	0.210705	0.085891
	H34	H	0.340659	0.784525	0.086783
	H35	H	0.670181	0.788287	0.895683
	H36	H	0.342095	0.894908	0.205766
	H37	H	0.667955	0.100030	0.206673
	H38	H	0.343482	0.101326	0.769384
	H39	H	0.668004	0.897218	0.775597
	H40	H	0.909875	0.210518	0.326295
	H41	H	0.104481	0.207110	0.654156
	H42	H	0.102299	0.783094	0.326509
	H43	H	0.907444	0.778648	0.653372
	H44	H	0.217957	0.332693	0.894390
	H45	H	0.216516	0.663571	0.088282
	H46	H	0.789257	0.332706	0.090824
	H47	H	0.794295	0.663632	0.891663
	H48	H	0.415571	0.114246	0.577309
	H49	H	0.598008	0.875769	0.590003
	H50	H	0.596780	0.118825	0.385814
	H51	H	0.421072	0.878846	0.393605
	H52	H	0.593773	0.399464	0.107443
	H53	H	0.603036	0.584021	0.874664
	H54	H	0.407206	0.584094	0.105820
	H55	H	0.410071	0.409528	0.875320
	H56	H	0.125187	0.583094	0.385171
	H57	H	0.887812	0.587229	0.580536
	H58	H	0.121675	0.401643	0.584150
	H59	H	0.887248	0.399790	0.396892
	H60	H	0.121445	0.406384	0.588937
	H61	H	0.888577	0.582137	0.580239
	H62	H	0.124468	0.600516	0.400849
	H63	H	0.888436	0.402943	0.399034
	H64	H	0.417497	0.591599	0.105869
	H65	H	0.590591	0.594689	0.877184
	H66	H	0.604023	0.404949	0.108274
	H67	H	0.410537	0.405785	0.874597
	H68	H	0.587482	0.110470	0.401868
	H69	H	0.587734	0.881674	0.583425
	H70	H	0.412164	0.116736	0.581215
	H71	H	0.411239	0.880287	0.407020
	H72	H	0.909720	0.617655	0.083280
	H73	H	0.089094	0.385121	0.070316
	H74	H	0.096451	0.615662	0.895963
	H75	H	0.908862	0.378232	0.902870
	H76	H	0.090328	0.883542	0.609256
	H77	H	0.103539	0.104198	0.367815
	H78	H	0.910267	0.088805	0.608709
	H79	H	0.915335	0.903859	0.374776
	H80	H	0.620433	0.089050	0.898240
	H81	H	0.387572	0.089314	0.080632
	H82	H	0.625605	0.902461	0.091192
	H83	H	0.390251	0.911593	0.898379
	H84	H	0.623394	0.902114	0.081190
	H85	H	0.389151	0.086343	0.082973
	H86	H	0.623461	0.091940	0.891766
	H87	H	0.386773	0.906519	0.892690
	H88	H	0.910915	0.081336	0.604770
	H89	H	0.110296	0.081823	0.373036
	H90	H	0.120221	0.905789	0.611216
	H91	H	0.908359	0.899704	0.371857
	H92	H	0.092812	0.615299	0.896801
	H93	H	0.113114	0.372904	0.084252
	H94	H	0.917921	0.615823	0.088269
	H95	H	0.910541	0.376871	0.897299
	H96	H	0.417808	0.116186	0.581385
	H97	H	0.599459	0.880232	0.577027
	H98	H	0.607620	0.116362	0.403066
	H99	H	0.404587	0.874625	0.392527
	H100	H	0.594886	0.410380	0.103625
	H101	H	0.604611	0.600518	0.870920
	H102	H	0.405969	0.595866	0.109966
	H103	H	0.406789	0.407724	0.875261
	H104	H	0.117493	0.578114	0.406255
	H105	H	0.887902	0.583488	0.584891
	H106	H	0.123223	0.400198	0.589873
	H107	H	0.887454	0.403616	0.395107
	H108	H	0.917323	0.613393	0.078703
	H109	H	0.086681	0.377104	0.098896
	H110	H	0.094181	0.614993	0.899374
	H111	H	0.914259	0.378979	0.902235
	H112	H	0.087361	0.919096	0.597260
	H113	H	0.087913	0.089050	0.377800
	H114	H	0.917641	0.086176	0.605127
	H115	H	0.908953	0.908514	0.374715
	H116	H	0.623377	0.096483	0.898579
	H117	H	0.387258	0.088447	0.084776
	H118	H	0.620596	0.912542	0.086137
	H119	H	0.387922	0.903401	0.900288
	C120	C	0.384771	0.006750	0.610764
	C121	C	0.626574	0.988369	0.611467
	C122	C	0.625786	0.005828	0.368669
	C123	C	0.383672	0.987708	0.367963
	C124	C	0.625865	0.377668	-0.001123
	C125	C	0.627998	0.621340	0.981983
	C126	C	0.381709	0.620958	-0.000928
	C127	C	0.381338	0.376549	0.982551
	C128	C	0.014119	0.617031	0.367908
	C129	C	0.995953	0.615091	0.611607
	C130	C	0.013717	0.372075	0.614897
	C131	C	0.996256	0.374217	0.369748
	C132	C	0.884453	0.506235	0.112468
	C133	C	0.125596	0.487846	0.112920
	C134	C	0.123933	0.505769	0.870096
	C135	C	0.882647	0.487231	0.869695
	C136	C	0.127890	0.874063	0.498455
	C137	C	0.129088	0.118957	0.481073
	C138	C	0.884490	0.116714	0.498742
	C139	C	0.882153	0.873138	0.481196
	C140	C	0.514030	0.120940	0.866684
	C141	C	0.496673	0.117915	0.111145
	C142	C	0.514364	0.875887	0.113432
	C143	C	0.496502	0.877981	0.869053
	C144	C	0.384429	0.882896	0.668822
	C145	C	0.627912	0.112517	0.666435
	C146	C	0.623869	0.881310	0.314022
	C147	C	0.385300	0.112341	0.311531
	C148	C	0.681803	0.380671	0.876569
	C149	C	0.684649	0.619626	0.104333
	C150	C	0.325574	0.620856	0.877041
	C151	C	0.326511	0.376699	0.105258
	C152	C	0.890642	0.672696	0.370072
	C153	C	0.119837	0.670890	0.609400
	C154	C	0.890224	0.315796	0.610254
	C155	C	0.120950	0.321465	0.374753
	C156	C	0.890792	0.370885	0.669903
	C157	C	0.118784	0.614725	0.668409
	C158	C	0.891182	0.616702	0.311354
	C159	C	0.119052	0.374823	0.313666
	C160	C	0.386631	0.675885	0.875593
	C161	C	0.624225	0.674260	0.105483
	C162	C	0.622165	0.324357	0.875327
	C163	C	0.384716	0.318501	0.104672
	C164	C	0.680903	0.881006	0.370772
	C165	C	0.683922	0.112559	0.608232
	C166	C	0.328924	0.882006	0.610030
	C167	C	0.329420	0.112778	0.369343
	C168	C	0.884371	0.381211	0.167981
	C169	C	0.125594	0.611745	0.168883
	C170	C	0.122433	0.380428	0.817359
	C171	C	0.883349	0.610631	0.810868
	C172	C	0.182978	0.876928	0.375708
	C173	C	0.185208	0.116091	0.603756
	C174	C	0.828261	0.117520	0.375858
	C175	C	0.825684	0.872635	0.603441
	C176	C	0.390120	0.175210	0.869088
	C177	C	0.620522	0.173565	0.107312
	C178	C	0.390220	0.821162	0.108730
	C179	C	0.620522	0.824115	0.873727
	C180	C	0.390981	0.876390	0.167844
	C181	C	0.619534	0.118509	0.167439
	C182	C	0.391521	0.120142	0.809297
	C183	C	0.619638	0.878831	0.814178
	C184	C	0.888213	0.173011	0.375402
	C185	C	0.125696	0.171204	0.604764
	C186	C	0.123792	0.820115	0.375473
	C187	C	0.885514	0.816178	0.604145
	C188	C	0.179813	0.381522	0.873885
	C189	C	0.180161	0.613168	0.109790
	C190	C	0.827482	0.381821	0.110914
	C191	C	0.829671	0.612977	0.870756
	C192	C	0.408281	0.093357	0.586996
	C193	C	0.602255	0.901667	0.590010
	C194	C	0.603826	0.092805	0.390447
	C195	C	0.405772	0.900406	0.390932
	C196	C	0.604074	0.398891	0.084243
	C197	C	0.605961	0.599630	0.896407
	C198	C	0.403776	0.597647	0.085098
	C199	C	0.402701	0.400711	0.897066
	C200	C	0.100033	0.594202	0.390673
	C201	C	0.910303	0.591423	0.588767
	C202	C	0.099790	0.395709	0.593942
	C203	C	0.910131	0.395932	0.390864
	C204	C	0.907901	0.593019	0.089878
	C205	C	0.102949	0.400848	0.091062
	C206	C	0.101196	0.592825	0.891047
	C207	C	0.904643	0.400407	0.893898
	C208	C	0.105839	0.896304	0.583859
	C209	C	0.107163	0.097774	0.395233
	C210	C	0.906302	0.092559	0.584017
	C211	C	0.904163	0.897099	0.395923
	C212	C	0.600174	0.099111	0.889435
	C213	C	0.410438	0.094769	0.089206
	C214	C	0.600756	0.898651	0.092335
	C215	C	0.410510	0.900546	0.890578
	Zn216	Zn	0.505626	-0.001985	0.739612
	Zn217	Zn	0.505202	-0.002969	0.241248
	Zn218	Zn	0.756707	0.498783	-0.008775
	Zn219	Zn	0.251878	0.498617	-0.009301
	Zn220	Zn	0.005428	0.744240	0.490296
	Zn221	Zn	0.006218	0.245837	0.491226
	Zn222	Zn	0.003590	0.494551	0.742265
	Zn223	Zn	0.005195	0.495637	0.240531
	Zn224	Zn	0.505772	0.749246	-0.009575
	Zn225	Zn	0.504559	0.247495	-0.010548
	Zn226	Zn	0.753502	-0.003647	0.489339
	Zn227	Zn	0.257238	-0.002972	0.489100
	N228	N	0.418461	0.961505	0.669418
	N229	N	0.592804	0.034211	0.668570
	N230	N	0.590383	0.959977	0.312585
	N231	N	0.418173	0.033414	0.310523
	N232	N	0.684317	0.413007	0.954317
	N233	N	0.687225	0.587501	0.026625
	N234	N	0.322596	0.587375	0.954942
	N235	N	0.324393	0.412271	0.028302
	N236	N	0.968054	0.673050	0.404500
	N237	N	0.042492	0.671368	0.574814
	N238	N	0.967902	0.316086	0.576823
	N239	N	0.043658	0.320862	0.408951
	N240	N	0.968420	0.405162	0.672628
	N241	N	0.040618	0.580893	0.670005
	N242	N	0.968963	0.582821	0.309850
	N243	N	0.040586	0.406919	0.310325
	N244	N	0.420677	0.676255	0.952809
	N245	N	0.589705	0.675666	0.028415
	N246	N	0.588029	0.322399	0.952223
	N247	N	0.417878	0.318109	0.027364
	N248	N	0.682544	0.959433	0.403788
	N249	N	0.683102	0.034292	0.574791
	N250	N	0.329202	0.959875	0.574464
	N251	N	0.328214	0.034285	0.403807
	N252	N	0.918954	0.459625	0.169240
	N253	N	0.092420	0.532657	0.170949
	N254	N	0.088262	0.458764	0.815043
	N255	N	0.915308	0.531447	0.810052
	N256	N	0.185822	0.909717	0.453165
	N257	N	0.187422	0.084184	0.525711
	N258	N	0.825724	0.083145	0.453456
	N259	N	0.823326	0.907305	0.525986
	N260	N	0.467372	0.175902	0.903949
	N261	N	0.542939	0.173415	0.073006
	N262	N	0.467911	0.820593	0.075563
	N263	N	0.543068	0.823427	0.907465
	N264	N	0.469225	0.909656	0.170828
	N265	N	0.541573	0.084472	0.169857
	N266	N	0.469676	0.087330	0.807498
	N267	N	0.541521	0.911374	0.811095
	N268	N	0.922354	0.172691	0.452618
	N269	N	0.091756	0.173197	0.527785
	N270	N	0.090278	0.818262	0.452799
	N271	N	0.919809	0.816375	0.527314
	N272	N	0.180882	0.460499	0.905932
	N273	N	0.180463	0.535204	0.075699
	N274	N	0.827133	0.460480	0.077178
	N275	N	0.828947	0.535094	0.906697
	O276	O	0.480898	0.423556	0.633811
	H277	H	0.480957	0.412774	0.629407
	H278	H	0.485180	0.422666	0.629680
	O279	O	0.450346	0.524378	0.470752
	H280	H	0.459373	0.515756	0.463148
	H281	H	0.448592	0.525635	0.468684
	O282	O	1.036192	0.985478	-0.132846
	H283	H	1.031761	0.981098	-0.141531
	H284	H	1.037859	0.978075	-0.128146
	O285	O	0.933473	-0.004209	0.982970
	H286	H	0.932556	-0.005623	0.958332
	H287	H	0.937728	-0.007800	0.989462
	O288	O	0.170423	0.807638	0.837218
	H289	H	0.182902	0.814816	0.834111
	H290	H	0.169039	0.790826	0.838673
	O291	O	0.491906	0.415691	0.557752
	H292	H	0.485243	0.401026	0.556288
	H293	H	0.503683	0.409613	0.564885
	O294	O	0.443941	0.427887	0.404698
	H295	H	0.443373	0.436766	0.407339
	H296	H	0.436025	0.425440	0.411738
	O297	O	-0.025492	0.026662	0.960547
	H298	H	-0.019859	0.029065	0.954446
	H299	H	-0.023416	0.016653	0.969760
	O300	O	0.455763	0.387617	0.525456
	H301	H	0.451976	0.374531	0.532296
	H302	H	0.456202	0.385352	0.518667
	O303	O	0.508486	0.485853	-0.379281
	H304	H	0.508810	0.496323	-0.374511
	H305	H	0.509430	0.491600	-0.381406
	O306	O	-0.021222	1.020659	1.031229
	H307	H	-0.008730	1.014821	1.030874
	H308	H	-0.026436	1.010333	1.029726
	O309	O	0.532657	0.379421	0.327964
	H310	H	0.531144	0.380497	0.330562
	H311	H	0.533366	0.387990	0.311538
	O312	O	0.000708	-0.032503	-0.059501
	H313	H	0.003886	-0.030571	-0.067673
	H314	H	0.003964	-0.033115	-0.065943
	O315	O	1.048270	-0.019262	-0.016887
	H316	H	1.054188	-0.023669	-0.005611
	H317	H	1.053262	-0.029736	-0.015734
	O318	O	1.043656	0.979949	1.042817
	H319	H	1.032832	0.972007	1.050350
	H320	H	1.046660	0.984912	1.049272
	O321	O	0.442368	0.614850	1.471722
	H322	H	0.441816	0.625458	1.487088
	H323	H	0.443919	0.597131	1.474475
	O324	O	0.569988	0.582131	0.577637
	H325	H	0.579879	0.575917	0.580734
	H326	H	0.568896	0.589887	0.574243
	O327	O	-0.049674	-0.121074	0.106233
	H328	H	-0.060165	-0.122848	0.119151
	H329	H	-0.050438	-0.121285	0.107102
	O330	O	0.540081	0.586267	0.461033
	H331	H	0.548853	0.579659	0.459986
	H332	H	0.526660	0.591349	0.454725
	O333	O	0.077437	1.010085	1.031083
	H334	H	0.076892	1.017611	1.023789
	H335	H	0.069310	1.015374	1.028775
	O336	O	-0.010703	-0.101075	-0.024475
	H337	H	-0.008805	-0.097191	-0.032480
	H338	H	-0.008692	-0.089965	-0.023984
	O339	O	0.522743	0.469215	0.432073
	H340	H	0.526965	0.468038	0.425943
	H341	H	0.522749	0.466372	0.418234
	O342	O	1.073441	1.032610	1.004548
	H343	H	1.076524	1.037549	0.997768
	H344	H	1.077736	1.031038	1.006350
	O345	O	0.973345	1.051124	-0.047540
	H346	H	0.978280	1.041673	-0.055759
	H347	H	0.961960	1.053914	-0.043365
	O348	O	0.486948	0.442150	0.463766
	H349	H	0.486435	0.442686	0.469956
	H350	H	0.494627	0.439317	0.455925
	O351	O	0.455585	0.474440	0.440327
	H352	H	0.453471	0.473724	0.433612
	H353	H	0.437820	0.477342	0.438202
	O354	O	0.532445	0.593452	0.451973
	H355	H	0.541120	0.604529	0.451869
	H356	H	0.540008	0.590035	0.449233
	O357	O	0.573992	0.555623	1.425825
	H358	H	0.576372	0.565473	1.431016
	H359	H	0.575365	0.558216	1.433028
	O360	O	0.609638	0.517597	0.424525
	H361	H	0.596069	0.517658	0.420529
	H362	H	0.622982	0.508921	0.420462
	O363	O	0.990795	1.112817	0.980322
	H364	H	0.995142	1.117290	0.976890
	H365	H	0.992931	1.116551	0.970797
	O366	O	0.949964	0.956177	0.909493
	H367	H	0.967032	0.948029	0.909395
	H368	H	0.945458	0.944094	0.907511
	O369	O	1.076409	-0.010364	1.066778
	H370	H	1.086140	-0.004886	1.070449
	H371	H	1.073270	0.006535	1.066972
	O372	O	-0.043182	0.018315	-0.046591
	H373	H	-0.034598	0.016509	-0.041113
	H374	H	-0.047264	0.012021	-0.035639
	O375	O	0.509843	-0.396480	0.483475
	H376	H	0.506069	-0.388558	0.481656
	H377	H	0.500037	-0.404771	0.491976
	O378	O	0.528757	0.439459	0.505197
	H379	H	0.531268	0.442746	0.505824
	H380	H	0.527200	0.445905	0.511685
	O381	O	0.475650	0.459723	0.565754
	H382	H	0.483555	0.453989	0.559316
	H383	H	0.473840	0.462699	0.573515
