data_Molecule from HDF5

_cell_length_a		16.573242
_cell_length_b		16.299253
_cell_length_c		16.269529
_cell_angle_alpha	90.003218
_cell_angle_beta	89.965023
_cell_angle_gamma	89.983498
_symmetry_space_group_name_H-M	'P 1'
_symmetry_Int_Tables_number		1

loop_
	_symmetry_equiv_pos_as_xyz
	x,y,z

loop_
	_atom_site_label
	_atom_site_type_symbol
	_atom_site_fract_x
	_atom_site_fract_y
	_atom_site_fract_z
	H0	H	0.394847	0.837194	0.712668
	H1	H	0.600332	0.158253	0.718377
	H2	H	0.595383	0.837478	0.278866
	H3	H	0.393853	0.161263	0.278669
	H4	H	0.718927	0.388517	0.841383
	H5	H	0.715910	0.607881	0.157750
	H6	H	0.270998	0.605755	0.839666
	H7	H	0.271955	0.391259	0.158016
	H8	H	0.838154	0.722299	0.389239
	H9	H	0.152167	0.719335	0.603504
	H10	H	0.836661	0.276588	0.601412
	H11	H	0.153080	0.278665	0.394397
	H12	H	0.836499	0.391788	0.720414
	H13	H	0.152525	0.600454	0.718731
	H14	H	0.836704	0.603168	0.276526
	H15	H	0.150852	0.390452	0.274434
	H16	H	0.390894	0.716482	0.836632
	H17	H	0.594873	0.717366	0.159815
	H18	H	0.599563	0.278410	0.838439
	H19	H	0.389089	0.277257	0.157992
	H20	H	0.717725	0.840540	0.387862
	H21	H	0.717596	0.157921	0.603660
	H22	H	0.271488	0.841469	0.605140
	H23	H	0.271686	0.158915	0.388800
	H24	H	0.891674	0.335936	0.216287
	H25	H	0.096163	0.658826	0.219518
	H26	H	0.097337	0.337181	0.780675
	H27	H	0.890294	0.658984	0.778700
	H28	H	0.214982	0.894108	0.336405
	H29	H	0.217478	0.107714	0.655422
	H30	H	0.773778	0.107881	0.337620
	H31	H	0.770581	0.889346	0.654221
	H32	H	0.336971	0.221877	0.890003
	H33	H	0.653376	0.220487	0.100408
	H34	H	0.334762	0.779273	0.102363
	H35	H	0.651799	0.777234	0.892946
	H36	H	0.336041	0.896722	0.218817
	H37	H	0.654247	0.103355	0.217135
	H38	H	0.336121	0.102794	0.775918
	H39	H	0.652665	0.894565	0.777573
	H40	H	0.894345	0.217817	0.336639
	H41	H	0.096803	0.215168	0.659218
	H42	H	0.097285	0.779906	0.335568
	H43	H	0.888810	0.777590	0.656649
	H44	H	0.217865	0.340425	0.890888
	H45	H	0.217832	0.657143	0.109654
	H46	H	0.769484	0.339827	0.106325
	H47	H	0.771957	0.658349	0.892474
	H48	H	0.403216	0.114294	0.582099
	H49	H	0.588685	0.881790	0.589786
	H50	H	0.585412	0.112941	0.409824
	H51	H	0.413482	0.888527	0.407733
	H52	H	0.582481	0.413620	0.111171
	H53	H	0.580950	0.585084	0.886048
	H54	H	0.405979	0.587469	0.112498
	H55	H	0.407614	0.415324	0.887071
	H56	H	0.108735	0.586112	0.401722
	H57	H	0.883854	0.585380	0.583984
	H58	H	0.107598	0.405118	0.589959
	H59	H	0.885535	0.414622	0.414599
	H60	H	0.107171	0.408044	0.588731
	H61	H	0.881834	0.585529	0.591201
	H62	H	0.106627	0.592810	0.414514
	H63	H	0.879750	0.409557	0.400724
	H64	H	0.402678	0.589931	0.113962
	H65	H	0.583291	0.590398	0.882874
	H66	H	0.579529	0.414239	0.111078
	H67	H	0.404846	0.407557	0.883188
	H68	H	0.585934	0.113865	0.409539
	H69	H	0.577540	0.886914	0.585266
	H70	H	0.404881	0.114645	0.586805
	H71	H	0.401000	0.888156	0.418469
	H72	H	0.902310	0.612806	0.087692
	H73	H	0.082590	0.387048	0.080802
	H74	H	0.083217	0.610965	0.915875
	H75	H	0.902213	0.384758	0.913383
	H76	H	0.083887	0.915759	0.609442
	H77	H	0.081673	0.087365	0.383368
	H78	H	0.900692	0.084397	0.612115
	H79	H	0.910940	0.906309	0.382768
	H80	H	0.604052	0.082566	0.908072
	H81	H	0.383765	0.087018	0.086112
	H82	H	0.607265	0.911891	0.092461
	H83	H	0.380491	0.909851	0.902778
	H84	H	0.608415	0.900669	0.087481
	H85	H	0.382550	0.087965	0.088553
	H86	H	0.608847	0.090729	0.902877
	H87	H	0.378950	0.904295	0.904058
	H88	H	0.907512	0.082795	0.609660
	H89	H	0.086523	0.090803	0.380266
	H90	H	0.080941	0.906578	0.611484
	H91	H	0.900563	0.910131	0.379914
	H92	H	0.086238	0.614049	0.909471
	H93	H	0.088242	0.383976	0.086290
	H94	H	0.906021	0.611341	0.087327
	H95	H	0.902305	0.383946	0.909779
	H96	H	0.407786	0.111902	0.583565
	H97	H	0.587876	0.886175	0.577952
	H98	H	0.585234	0.112883	0.408897
	H99	H	0.399293	0.882081	0.402550
	H100	H	0.580007	0.411102	0.112193
	H101	H	0.587068	0.585249	0.883946
	H102	H	0.402016	0.586079	0.113094
	H103	H	0.399358	0.413916	0.883729
	H104	H	0.102108	0.579021	0.412624
	H105	H	0.880989	0.591256	0.587205
	H106	H	0.108084	0.407320	0.591823
	H107	H	0.881166	0.399737	0.412869
	H108	H	0.903632	0.611903	0.084039
	H109	H	0.080413	0.384139	0.088589
	H110	H	0.079208	0.611443	0.909643
	H111	H	0.905316	0.385013	0.911625
	H112	H	0.090026	0.908993	0.613043
	H113	H	0.087568	0.084316	0.381741
	H114	H	0.906057	0.089465	0.612382
	H115	H	0.908145	0.917185	0.385572
	H116	H	0.605732	0.092196	0.913074
	H117	H	0.383017	0.089992	0.085898
	H118	H	0.603780	0.910322	0.080263
	H119	H	0.382150	0.907272	0.908560
	C120	C	0.373846	0.007997	0.617008
	C121	C	0.617002	0.990383	0.617542
	C122	C	0.616692	0.007649	0.376047
	C123	C	0.373147	0.991647	0.376529
	C124	C	0.614077	0.379280	0.006503
	C125	C	0.614784	0.619647	0.990192
	C126	C	0.371740	0.620042	0.007044
	C127	C	0.372302	0.378210	0.990012
	C128	C	0.002372	0.619060	0.376132
	C129	C	0.986234	0.619563	0.619831
	C130	C	0.003078	0.374819	0.621366
	C131	C	0.985948	0.376030	0.376652
	C132	C	0.872148	0.506497	0.119378
	C133	C	0.115745	0.489936	0.119840
	C134	C	0.114628	0.506343	0.879125
	C135	C	0.871712	0.490032	0.878077
	C136	C	0.116362	0.877900	0.505416
	C137	C	0.116585	0.119713	0.488059
	C138	C	0.873733	0.119164	0.505717
	C139	C	0.873672	0.877565	0.487898
	C140	C	0.502204	0.120908	0.874905
	C141	C	0.487216	0.121079	0.118759
	C142	C	0.502265	0.876967	0.119172
	C143	C	0.485524	0.875917	0.874678
	C144	C	0.374218	0.886420	0.675004
	C145	C	0.618708	0.110401	0.678222
	C146	C	0.615850	0.886298	0.317175
	C147	C	0.373287	0.112629	0.317092
	C148	C	0.676814	0.373159	0.888021
	C149	C	0.675082	0.624250	0.110210
	C150	C	0.311469	0.623279	0.887165
	C151	C	0.312509	0.374321	0.110092
	C152	C	0.884813	0.680863	0.372515
	C153	C	0.104727	0.679307	0.621846
	C154	C	0.884055	0.315982	0.621414
	C155	C	0.105324	0.317504	0.375538
	C156	C	0.883824	0.373438	0.680324
	C157	C	0.105052	0.620240	0.679435
	C158	C	0.884075	0.621564	0.316035
	C159	C	0.104411	0.373611	0.315933
	C160	C	0.370975	0.678520	0.885658
	C161	C	0.614821	0.679042	0.111146
	C162	C	0.617459	0.318225	0.886483
	C163	C	0.370623	0.317187	0.110004
	C164	C	0.676856	0.887711	0.371172
	C165	C	0.677319	0.110190	0.621208
	C166	C	0.312997	0.888467	0.621149
	C167	C	0.312836	0.111560	0.372242
	C168	C	0.871674	0.384997	0.177981
	C169	C	0.116461	0.610489	0.180811
	C170	C	0.116070	0.385639	0.819741
	C171	C	0.871047	0.610610	0.817875
	C172	C	0.175274	0.875907	0.384471
	C173	C	0.176705	0.123837	0.608366
	C174	C	0.813808	0.124319	0.385594
	C175	C	0.811552	0.872664	0.606842
	C176	C	0.384061	0.181305	0.872179
	C177	C	0.606095	0.180804	0.119589
	C178	C	0.382730	0.818408	0.121450
	C179	C	0.604491	0.816870	0.874190
	C180	C	0.383155	0.877082	0.179140
	C181	C	0.606566	0.122572	0.177848
	C182	C	0.383688	0.122187	0.815064
	C183	C	0.604965	0.875471	0.816627
	C184	C	0.873747	0.179235	0.385007
	C185	C	0.116776	0.177746	0.609906
	C186	C	0.116874	0.818840	0.384188
	C187	C	0.870897	0.817169	0.608320
	C188	C	0.176202	0.387300	0.874847
	C189	C	0.176608	0.609805	0.125574
	C190	C	0.810886	0.386811	0.123442
	C191	C	0.811985	0.610131	0.874455
	C192	C	0.398432	0.091860	0.591486
	C193	C	0.592030	0.906740	0.591684
	C194	C	0.592543	0.091507	0.401903
	C195	C	0.397617	0.908001	0.402309
	C196	C	0.587964	0.405507	0.089870
	C197	C	0.590542	0.594213	0.906126
	C198	C	0.396645	0.595195	0.091253
	C199	C	0.397046	0.404549	0.906323
	C200	C	0.084463	0.593244	0.402051
	C201	C	0.903721	0.594677	0.594541
	C202	C	0.085939	0.399639	0.597272
	C203	C	0.903543	0.400884	0.401838
	C204	C	0.896871	0.590051	0.093788
	C205	C	0.091050	0.406912	0.093020
	C206	C	0.089842	0.590322	0.904516
	C207	C	0.896292	0.406201	0.904123
	C208	C	0.091962	0.903089	0.589448
	C209	C	0.092289	0.094673	0.403913
	C210	C	0.897737	0.093065	0.589492
	C211	C	0.899213	0.903727	0.404491
	C212	C	0.584705	0.095698	0.900571
	C213	C	0.404648	0.095663	0.093942
	C214	C	0.584837	0.900827	0.094090
	C215	C	0.402225	0.900089	0.898357
	Zn216	Zn	0.494787	-0.001324	0.745290
	Zn217	Zn	0.495159	-0.000388	0.248060
	Zn218	Zn	0.743112	0.498765	-0.000785
	Zn219	Zn	0.243889	0.499157	-0.001003
	Zn220	Zn	-0.005154	0.749369	0.496803
	Zn221	Zn	-0.004588	0.246490	0.498063
	Zn222	Zn	-0.005979	0.497471	0.750411
	Zn223	Zn	-0.006051	0.497061	0.247061
	Zn224	Zn	0.492913	0.747460	-0.002245
	Zn225	Zn	0.494371	0.250683	-0.003124
	Zn226	Zn	0.745660	-0.001299	0.496040
	Zn227	Zn	0.244113	-0.000007	0.497038
	N228	N	0.411369	0.961751	0.672549
	N229	N	0.582081	0.034729	0.676238
	N230	N	0.579476	0.962052	0.319822
	N231	N	0.410104	0.037083	0.319493
	N232	N	0.674573	0.410772	0.963623
	N233	N	0.675060	0.587949	0.033869
	N234	N	0.311493	0.588175	0.963989
	N235	N	0.313487	0.411533	0.034361
	N236	N	0.959374	0.679348	0.409429
	N237	N	0.029607	0.679423	0.585942
	N238	N	0.959199	0.316609	0.585754
	N239	N	0.030858	0.318926	0.412648
	N240	N	0.958980	0.409117	0.680602
	N241	N	0.030323	0.583917	0.678405
	N242	N	0.958180	0.583835	0.318297
	N243	N	0.029148	0.409227	0.316361
	N244	N	0.407821	0.676472	0.961246
	N245	N	0.578091	0.676478	0.035499
	N246	N	0.578746	0.322312	0.961042
	N247	N	0.407170	0.319347	0.034198
	N248	N	0.677641	0.964185	0.406824
	N249	N	0.676347	0.034394	0.584213
	N250	N	0.312549	0.965217	0.585924
	N251	N	0.312767	0.035364	0.408462
	N252	N	0.908971	0.460328	0.175830
	N253	N	0.079330	0.535157	0.177347
	N254	N	0.078159	0.460504	0.822611
	N255	N	0.907233	0.534663	0.819695
	N256	N	0.175268	0.911673	0.460984
	N257	N	0.176818	0.088563	0.531681
	N258	N	0.813650	0.087716	0.461777
	N259	N	0.813195	0.909462	0.530868
	N260	N	0.458810	0.180799	0.908428
	N261	N	0.530835	0.180165	0.083837
	N262	N	0.457552	0.818005	0.084999
	N263	N	0.529140	0.817019	0.909492
	N264	N	0.458422	0.912605	0.177969
	N265	N	0.531588	0.086586	0.177744
	N266	N	0.458381	0.085396	0.816611
	N267	N	0.530028	0.911569	0.816821
	N268	N	0.910281	0.176149	0.460600
	N269	N	0.080083	0.175266	0.534161
	N270	N	0.081196	0.819640	0.460463
	N271	N	0.908648	0.819830	0.533162
	N272	N	0.175367	0.463510	0.911042
	N273	N	0.176490	0.533915	0.088611
	N274	N	0.810959	0.463434	0.088114
	N275	N	0.812212	0.534006	0.910843
	O276	O	0.609953	0.300545	0.437024
	H277	H	0.612146	0.286603	0.428740
	H278	H	0.609231	0.302320	0.444944
	O279	O	0.444250	0.287537	0.708286
	H280	H	0.415960	0.314898	0.700929
	H281	H	0.437709	0.255329	0.733358
	O282	O	0.447672	0.593742	0.403930
	H283	H	0.441268	0.601903	0.393003
	H284	H	0.454553	0.590841	0.403177
	O285	O	1.004080	0.846066	0.107873
	H286	H	1.007626	0.847718	0.099688
	H287	H	1.004295	0.844348	0.097814
	O288	O	0.695225	0.508237	0.699515
	H289	H	0.702561	0.507331	0.712646
	H290	H	0.696288	0.513997	0.706825
	O291	O	0.320192	0.352666	0.668770
	H292	H	0.309044	0.365875	0.648578
	H293	H	0.324537	0.366096	0.655920
	O294	O	0.842377	1.190245	0.999510
	H295	H	0.870507	1.194975	1.018846
	H296	H	0.834248	1.189389	1.008538
	O297	O	0.293568	0.691536	0.576732
	H298	H	0.288976	0.712659	0.559312
	H299	H	0.303412	0.666433	0.552465
	O300	O	0.624342	0.379491	0.680556
	H301	H	0.638702	0.390273	0.688209
	H302	H	0.613577	0.390818	0.681571
	O303	O	0.515259	0.467898	0.416622
	H304	H	0.536394	0.470007	0.423528
	H305	H	0.519167	0.454686	0.408059
	O306	O	0.066411	-0.200634	1.081590
	H307	H	0.054865	-0.203342	1.081416
	H308	H	0.050221	-0.207069	1.070032
	O309	O	0.810141	-0.194568	0.002424
	H310	H	0.804886	-0.178265	-0.019744
	H311	H	0.809152	-0.187959	-0.004829
	O312	O	0.327503	0.499016	0.634654
	H313	H	0.327289	0.504186	0.635569
	H314	H	0.333983	0.492158	0.633860
	O315	O	0.462194	0.387763	0.353534
	H316	H	0.442474	0.398188	0.355053
	H317	H	0.480419	0.380388	0.345271
	O318	O	-0.180775	0.008734	-0.203157
	H319	H	-0.191820	0.007246	-0.221481
	H320	H	-0.179723	0.037914	-0.200124
	O321	O	0.697492	0.330331	0.478718
	H322	H	0.696775	0.330108	0.484509
	H323	H	0.690650	0.322453	0.491323
	O324	O	1.131784	-0.115598	1.059898
	H325	H	1.102730	-0.125852	1.076112
	H326	H	1.145948	-0.136155	1.057703
	O327	O	0.396154	0.553437	0.369479
	H328	H	0.395668	0.544958	0.392566
	H329	H	0.397321	0.550493	0.366724
	O330	O	-0.018460	1.200404	1.016594
	H331	H	0.008750	1.201336	1.019643
	H332	H	-0.013098	1.202259	1.029018
	O333	O	0.188697	1.199494	0.015504
	H334	H	0.211682	1.216385	0.016593
	H335	H	0.193092	1.168287	0.013115
	O336	O	0.969033	1.200847	-0.208124
	H337	H	0.979521	1.221846	-0.215896
	H338	H	0.953767	1.212546	-0.200239
	O339	O	0.207796	1.077943	1.086240
	H340	H	0.203293	1.069485	1.089920
	H341	H	0.204201	1.052835	1.071143
	O342	O	0.301790	0.685098	0.381135
	H343	H	0.304987	0.700136	0.375946
	H344	H	0.308406	0.651634	0.361345
	O345	O	0.121727	0.069354	1.102255
	H346	H	0.122695	0.061074	1.114903
	H347	H	0.142615	0.056613	1.090320
	O348	O	0.511173	0.524188	0.449722
	H349	H	0.505915	0.527182	0.430784
	H350	H	0.507803	0.540154	0.454617
	O351	O	0.780382	0.969255	0.211204
	H352	H	0.763777	0.959477	0.237502
	H353	H	0.789678	0.956609	0.220136
	O354	O	0.909583	0.937449	0.805113
	H355	H	0.900431	0.945827	0.808674
	H356	H	0.901517	0.945382	0.804526
	O357	O	-0.189986	0.178039	-0.159960
	H358	H	-0.194078	0.192068	-0.141369
	H359	H	-0.182519	0.167243	-0.145498
	O360	O	0.472174	0.317814	0.358812
	H361	H	0.488121	0.318325	0.356402
	H362	H	0.472678	0.299965	0.335812
	O363	O	0.966469	-0.186051	-0.117416
	H364	H	0.929509	-0.174798	-0.112491
	H365	H	0.970487	-0.194917	-0.162406
	O366	O	-0.191049	-0.192685	1.158880
	H367	H	-0.182395	-0.178073	1.151395
	H368	H	-0.183581	-0.201080	1.124758
	O369	O	1.113456	0.184185	1.183144
	H370	H	1.120134	0.196400	1.157564
	H371	H	1.131299	0.141520	1.189159
	O372	O	0.602343	0.358809	0.470041
	H373	H	0.590965	0.339576	0.480919
	H374	H	0.612296	0.359744	0.478140
	O375	O	-0.001661	0.133595	1.132706
	H376	H	0.020127	0.135973	1.144091
	H377	H	0.008430	0.141127	1.145802
	O378	O	0.459769	0.599735	0.506914
	H379	H	0.447578	0.606390	0.501741
	H380	H	0.452570	0.597357	0.507518
	O381	O	0.204883	0.965790	-0.199021
	H382	H	0.198828	0.947020	-0.212057
	H383	H	0.201525	0.973550	-0.215047
	O384	O	0.545285	0.365242	0.524980
	H385	H	0.535007	0.374009	0.552710
	H386	H	0.550686	0.382623	0.525477
	O387	O	0.696561	0.492693	0.345013
	H388	H	0.712853	0.474242	0.326113
	H389	H	0.694775	0.481747	0.365185
	O390	O	0.824354	0.976139	-0.033962
	H391	H	0.819719	0.981728	-0.027496
	H392	H	0.829972	0.993566	-0.034310
	O393	O	1.056131	-0.043473	1.146456
	H394	H	1.036572	-0.054997	1.149979
	H395	H	1.056121	-0.040720	1.135569
	O396	O	0.332689	0.439981	0.473186
	H397	H	0.337823	0.463443	0.480402
	H398	H	0.346321	0.445516	0.461675
	O399	O	0.711378	0.530131	0.400381
	H400	H	0.712569	0.542430	0.409806
	H401	H	0.704798	0.537623	0.403746
	O402	O	1.053013	0.976344	-0.130156
	H403	H	1.043753	0.969184	-0.136674
	H404	H	1.048646	0.987172	-0.135108
	O405	O	0.482936	0.618491	0.394123
	H406	H	0.481654	0.621063	0.379810
	H407	H	0.481100	0.611469	0.402956
	O408	O	0.516496	0.682493	0.702093
	H409	H	0.509410	0.691962	0.709737
	H410	H	0.547901	0.677311	0.705186
	O411	O	1.187478	0.805883	0.827216
	H412	H	1.177142	0.797723	0.848947
	H413	H	1.202605	0.808682	0.811894
	O414	O	0.706784	0.705627	0.534206
	H415	H	0.724768	0.717987	0.518067
	H416	H	0.700211	0.712004	0.529421
	O417	O	0.056798	1.053959	0.891460
	H418	H	0.058024	1.041745	0.880295
	H419	H	0.037981	1.072123	0.884046
	O420	O	0.022804	0.945574	1.172130
	H421	H	0.035766	0.954834	1.156396
	H422	H	0.030180	0.939140	1.168091
	O423	O	-0.198163	0.998997	0.017075
	H424	H	-0.203327	0.999827	0.037467
	H425	H	-0.188773	1.002022	0.028926
	O426	O	0.466825	0.568759	0.343598
	H427	H	0.474523	0.550814	0.341550
	H428	H	0.460892	0.561618	0.343675
	O429	O	0.682865	0.671258	0.685572
	H430	H	0.679649	0.678942	0.659287
	H431	H	0.684145	0.652444	0.682615
	O432	O	0.301830	0.391995	0.450334
	H433	H	0.318077	0.400209	0.450951
	H434	H	0.297303	0.375384	0.462710
	O435	O	0.346935	-0.235451	0.298990
	H436	H	0.335773	-0.252740	0.285196
	H437	H	0.366587	-0.231195	0.283117
	O438	O	0.092465	0.866792	0.851373
	H439	H	0.106860	0.867516	0.843501
	H440	H	0.099574	0.859668	0.831279
	O441	O	0.427565	0.553152	0.673920
	H442	H	0.434960	0.563179	0.676820
	H443	H	0.442996	0.552905	0.661549
