data_Molecule from HDF5

_cell_length_a		16.279466
_cell_length_b		16.289369
_cell_length_c		16.225094
_cell_angle_alpha	90.009340
_cell_angle_beta	90.031939
_cell_angle_gamma	90.059045
_symmetry_space_group_name_H-M	'P 1'
_symmetry_Int_Tables_number		1

loop_
	_symmetry_equiv_pos_as_xyz
	x,y,z

loop_
	_atom_site_label
	_atom_site_type_symbol
	_atom_site_fract_x
	_atom_site_fract_y
	_atom_site_fract_z
	H0	H	0.406223	0.829836	0.707750
	H1	H	0.599994	0.158380	0.706877
	H2	H	0.600209	0.828924	0.281373
	H3	H	0.406250	0.158094	0.279799
	H4	H	0.717835	0.396217	0.829540
	H5	H	0.717464	0.591418	0.158083
	H6	H	0.291380	0.590225	0.829527
	H7	H	0.290391	0.395886	0.158373
	H8	H	0.840276	0.706680	0.396873
	H9	H	0.167476	0.708873	0.592816
	H10	H	0.840719	0.278802	0.592073
	H11	H	0.167855	0.279537	0.396516
	H12	H	0.839542	0.396025	0.707145
	H13	H	0.167653	0.591420	0.708061
	H14	H	0.839696	0.589826	0.281435
	H15	H	0.168177	0.395301	0.279434
	H16	H	0.405585	0.707691	0.829516
	H17	H	0.601913	0.707894	0.158137
	H18	H	0.601661	0.280305	0.829331
	H19	H	0.406511	0.280669	0.158508
	H20	H	0.717903	0.829861	0.396018
	H21	H	0.717802	0.157850	0.592087
	H22	H	0.290675	0.829705	0.591123
	H23	H	0.288689	0.157349	0.394916
	H24	H	0.906506	0.329917	0.207483
	H25	H	0.102125	0.658262	0.207557
	H26	H	0.100826	0.330186	0.780642
	H27	H	0.905557	0.657346	0.779758
	H28	H	0.217558	0.895500	0.329679
	H29	H	0.217938	0.092183	0.657970
	H30	H	0.790841	0.091105	0.329614
	H31	H	0.792125	0.896877	0.658803
	H32	H	0.339555	0.207896	0.896288
	H33	H	0.667836	0.207896	0.092556
	H34	H	0.339684	0.780263	0.091054
	H35	H	0.668109	0.780234	0.895177
	H36	H	0.339602	0.895803	0.207274
	H37	H	0.668037	0.091562	0.208077
	H38	H	0.338865	0.089553	0.781645
	H39	H	0.667680	0.896915	0.779907
	H40	H	0.905344	0.207895	0.329589
	H41	H	0.102387	0.208421	0.657786
	H42	H	0.102897	0.779479	0.329949
	H43	H	0.906941	0.781112	0.658365
	H44	H	0.218471	0.330457	0.895240
	H45	H	0.219564	0.657178	0.092783
	H46	H	0.790516	0.330346	0.091095
	H47	H	0.790142	0.657726	0.895357
	H48	H	0.407839	0.110148	0.583489
	H49	H	0.592753	0.879562	0.584301
	H50	H	0.593374	0.108463	0.403146
	H51	H	0.410242	0.874140	0.390101
	H52	H	0.606010	0.404945	0.112137
	H53	H	0.592908	0.591127	0.877129
	H54	H	0.408806	0.592810	0.113369
	H55	H	0.406025	0.406372	0.877496
	H56	H	0.120389	0.582906	0.397655
	H57	H	0.888165	0.581944	0.588496
	H58	H	0.119992	0.389918	0.574718
	H59	H	0.887104	0.399638	0.398705
	H60	H	0.115829	0.415603	0.585422
	H61	H	0.884482	0.591501	0.591561
	H62	H	0.123877	0.592558	0.396811
	H63	H	0.887933	0.398837	0.403070
	H64	H	0.408208	0.581655	0.110264
	H65	H	0.602306	0.589608	0.874860
	H66	H	0.590856	0.404833	0.107443
	H67	H	0.418234	0.400697	0.878942
	H68	H	0.602515	0.111778	0.403725
	H69	H	0.604551	0.875972	0.584223
	H70	H	0.406993	0.112431	0.590804
	H71	H	0.420052	0.881774	0.405952
	H72	H	0.913888	0.608705	0.085435
	H73	H	0.105526	0.374228	0.089174
	H74	H	0.100397	0.611885	0.900702
	H75	H	0.912976	0.376882	0.896940
	H76	H	0.087723	0.907879	0.605691
	H77	H	0.094333	0.080287	0.379327
	H78	H	0.908723	0.086274	0.611674
	H79	H	0.914366	0.898480	0.376576
	H80	H	0.618798	0.098495	0.917267
	H81	H	0.387421	0.087189	0.085390
	H82	H	0.621300	0.903548	0.093524
	H83	H	0.387751	0.899971	0.902611
	H84	H	0.622323	0.893942	0.086835
	H85	H	0.386656	0.086031	0.089746
	H86	H	0.615070	0.068656	0.900379
	H87	H	0.386847	0.901098	0.898542
	H88	H	0.912632	0.085372	0.609602
	H89	H	0.092444	0.093484	0.375872
	H90	H	0.095173	0.888401	0.614330
	H91	H	0.906921	0.898751	0.375411
	H92	H	0.094524	0.610803	0.898511
	H93	H	0.090644	0.377608	0.092737
	H94	H	0.906063	0.612192	0.086216
	H95	H	0.911359	0.378559	0.904619
	H96	H	0.413900	0.109928	0.588826
	H97	H	0.597796	0.875208	0.594821
	H98	H	0.598131	0.111620	0.395320
	H99	H	0.401121	0.876570	0.407390
	H100	H	0.597312	0.391228	0.113730
	H101	H	0.596793	0.582173	0.877766
	H102	H	0.417835	0.587483	0.109570
	H103	H	0.407980	0.393826	0.873835
	H104	H	0.120244	0.589533	0.406036
	H105	H	0.888364	0.589916	0.581205
	H106	H	0.126244	0.395488	0.601665
	H107	H	0.888154	0.402793	0.401599
	H108	H	0.911285	0.611870	0.092474
	H109	H	0.096018	0.380416	0.079124
	H110	H	0.096569	0.608922	0.904816
	H111	H	0.905888	0.375578	0.899692
	H112	H	0.109349	0.906119	0.612997
	H113	H	0.104550	0.087532	0.374310
	H114	H	0.911500	0.089308	0.611735
	H115	H	0.910416	0.904425	0.377390
	H116	H	0.627301	0.096489	0.884091
	H117	H	0.385772	0.090519	0.087827
	H118	H	0.618158	0.904066	0.082279
	H119	H	0.386106	0.896679	0.899551
	C120	C	0.382047	0.002263	0.615622
	C121	C	0.625856	0.985665	0.615702
	C122	C	0.625842	0.001994	0.372551
	C123	C	0.382296	0.985832	0.372693
	C124	C	0.626073	0.372167	0.002417
	C125	C	0.625514	0.615661	0.985343
	C126	C	0.383128	0.614989	0.002424
	C127	C	0.382541	0.372149	0.985370
	C128	C	0.013079	0.615699	0.372333
	C129	C	0.995256	0.616080	0.615907
	C130	C	0.012377	0.372330	0.615352
	C131	C	0.995866	0.371870	0.372018
	C132	C	0.882371	0.502554	0.116047
	C133	C	0.125943	0.485612	0.115614
	C134	C	0.125489	0.502350	0.872482
	C135	C	0.882091	0.485421	0.872153
	C136	C	0.125527	0.872587	0.502505
	C137	C	0.125221	0.115195	0.485336
	C138	C	0.882882	0.115163	0.502276
	C139	C	0.882685	0.872415	0.485330
	C140	C	0.511910	0.115492	0.872580
	C141	C	0.495450	0.115622	0.115764
	C142	C	0.511999	0.872059	0.115623
	C143	C	0.495505	0.871878	0.871983
	C144	C	0.385771	0.878752	0.669898
	C145	C	0.621602	0.109313	0.669674
	C146	C	0.621884	0.878372	0.318354
	C147	C	0.385690	0.109300	0.317772
	C148	C	0.680169	0.375399	0.878395
	C149	C	0.679988	0.612524	0.109197
	C150	C	0.328575	0.611778	0.878507
	C151	C	0.328320	0.375525	0.109370
	C152	C	0.889239	0.669539	0.375622
	C153	C	0.118636	0.670946	0.613076
	C154	C	0.889088	0.317323	0.612704
	C155	C	0.119058	0.317025	0.375075
	C156	C	0.888692	0.375609	0.669672
	C157	C	0.118813	0.612575	0.670196
	C158	C	0.888882	0.611241	0.318539
	C159	C	0.119262	0.374726	0.317336
	C160	C	0.385678	0.669618	0.878465
	C161	C	0.622890	0.670578	0.108981
	C162	C	0.622722	0.317445	0.878691
	C163	C	0.385609	0.318247	0.109593
	C164	C	0.680075	0.878782	0.375436
	C165	C	0.680083	0.109040	0.612806
	C166	C	0.328356	0.878497	0.612057
	C167	C	0.327257	0.108931	0.374836
	C168	C	0.885573	0.378939	0.170127
	C169	C	0.122946	0.609288	0.170013
	C170	C	0.122197	0.379225	0.817843
	C171	C	0.884939	0.608541	0.817297
	C172	C	0.180098	0.875128	0.378766
	C173	C	0.180012	0.112449	0.608978
	C174	C	0.828263	0.112143	0.378644
	C175	C	0.828572	0.875644	0.609242
	C176	C	0.388387	0.170092	0.875551
	C177	C	0.618777	0.170375	0.113242
	C178	C	0.388570	0.817747	0.112127
	C179	C	0.619135	0.817795	0.874962
	C180	C	0.388536	0.875471	0.169571
	C181	C	0.619113	0.112241	0.170187
	C182	C	0.387986	0.111638	0.818742
	C183	C	0.619116	0.876148	0.817963
	C184	C	0.885379	0.169993	0.378736
	C185	C	0.122619	0.169978	0.609039
	C186	C	0.122704	0.817814	0.378755
	C187	C	0.885755	0.818042	0.609136
	C188	C	0.180497	0.379289	0.874992
	C189	C	0.181455	0.608775	0.113203
	C190	C	0.827899	0.379207	0.112388
	C191	C	0.827547	0.608715	0.874709
	C192	C	0.403376	0.088629	0.594001
	C193	C	0.604645	0.899287	0.594254
	C194	C	0.604316	0.088288	0.394449
	C195	C	0.403899	0.899829	0.394815
	C196	C	0.604438	0.393917	0.088842
	C197	C	0.603868	0.593942	0.898919
	C198	C	0.405150	0.593532	0.088759
	C199	C	0.404356	0.393830	0.899051
	C200	C	0.099343	0.594733	0.393785
	C201	C	0.909350	0.594232	0.593640
	C202	C	0.098405	0.393895	0.593597
	C203	C	0.909933	0.393947	0.394376
	C204	C	0.904060	0.588766	0.094403
	C205	C	0.103912	0.399729	0.093587
	C206	C	0.103652	0.588402	0.894851
	C207	C	0.903661	0.399090	0.894047
	C208	C	0.103704	0.894322	0.588858
	C209	C	0.103404	0.093636	0.398747
	C210	C	0.904548	0.093479	0.588820
	C211	C	0.904392	0.894015	0.398783
	C212	C	0.598054	0.094209	0.894179
	C213	C	0.409048	0.094207	0.094278
	C214	C	0.598388	0.893998	0.093952
	C215	C	0.409224	0.893043	0.893787
	Zn216	Zn	0.503899	-0.006039	0.744087
	Zn217	Zn	0.504088	-0.006160	0.244003
	Zn218	Zn	0.754146	0.494414	-0.006486
	Zn219	Zn	0.254788	0.493909	-0.005837
	Zn220	Zn	0.004180	0.744579	0.493616
	Zn221	Zn	0.004149	0.243227	0.493841
	Zn222	Zn	0.003606	0.494152	0.743868
	Zn223	Zn	0.004522	0.493744	0.243925
	Zn224	Zn	0.503664	0.743754	-0.006088
	Zn225	Zn	0.503612	0.244158	-0.005535
	Zn226	Zn	0.754787	-0.005988	0.494072
	Zn227	Zn	0.253261	-0.006009	0.493951
	N228	N	0.418497	0.956718	0.672044
	N229	N	0.588693	0.031611	0.671513
	N230	N	0.588896	0.956155	0.316462
	N231	N	0.418898	0.031675	0.316056
	N232	N	0.682202	0.408921	0.956204
	N233	N	0.681767	0.579168	0.031238
	N234	N	0.327361	0.578034	0.956165
	N235	N	0.326018	0.408134	0.031231
	N236	N	0.967184	0.672183	0.408442
	N237	N	0.040843	0.673040	0.579836
	N238	N	0.966840	0.315026	0.579621
	N239	N	0.041350	0.315322	0.408586
	N240	N	0.966362	0.409016	0.671471
	N241	N	0.041196	0.579274	0.672054
	N242	N	0.966678	0.578398	0.316415
	N243	N	0.041733	0.408059	0.315390
	N244	N	0.418826	0.671831	0.956589
	N245	N	0.589561	0.672562	0.031117
	N246	N	0.589730	0.315518	0.956802
	N247	N	0.418727	0.316064	0.031689
	N248	N	0.682743	0.956622	0.408265
	N249	N	0.682790	0.031236	0.579751
	N250	N	0.325862	0.956247	0.579094
	N251	N	0.325128	0.031211	0.408263
	N252	N	0.918607	0.456576	0.172421
	N253	N	0.089334	0.531700	0.171757
	N254	N	0.088711	0.456630	0.816210
	N255	N	0.918326	0.530840	0.815830
	N256	N	0.181871	0.908484	0.456681
	N257	N	0.181666	0.079166	0.531013
	N258	N	0.826688	0.078844	0.456533
	N259	N	0.826373	0.908660	0.531188
	N260	N	0.466306	0.172522	0.908430
	N261	N	0.540995	0.172376	0.079944
	N262	N	0.466415	0.815603	0.079287
	N263	N	0.541274	0.815209	0.907952
	N264	N	0.466298	0.908655	0.171799
	N265	N	0.541483	0.078847	0.171663
	N266	N	0.465722	0.078347	0.816531
	N267	N	0.541225	0.908779	0.815818
	N268	N	0.918421	0.171895	0.456827
	N269	N	0.089218	0.171623	0.531215
	N270	N	0.089627	0.816013	0.456643
	N271	N	0.918584	0.815727	0.531131
	N272	N	0.182445	0.456937	0.908369
	N273	N	0.183381	0.531031	0.079999
	N274	N	0.825698	0.457116	0.079517
	N275	N	0.825927	0.531240	0.908191
	O276	O	0.959462	-0.052623	1.004558
	H277	H	0.954617	-0.063179	0.993197
	H278	H	0.963793	-0.052559	1.002163
	O279	O	-0.014505	0.967751	1.038966
	H280	H	-0.011822	0.963186	1.046885
	H281	H	-0.019402	0.973633	1.042939
	O282	O	0.978396	0.960990	-0.008308
	H283	H	0.976611	0.953154	-0.009498
	H284	H	0.983990	0.970342	-0.006150
	O285	O	-0.023304	0.997448	1.026992
	H286	H	-0.025664	1.000505	1.029448
	H287	H	-0.022166	1.000311	1.031213
