data_Molecule from HDF5

_cell_length_a		16.243123
_cell_length_b		16.044815
_cell_length_c		16.389167
_cell_angle_alpha	90.229644
_cell_angle_beta	90.171371
_cell_angle_gamma	90.922235
_symmetry_space_group_name_H-M	'P 1'
_symmetry_Int_Tables_number		1

loop_
	_symmetry_equiv_pos_as_xyz
	x,y,z

loop_
	_atom_site_label
	_atom_site_type_symbol
	_atom_site_fract_x
	_atom_site_fract_y
	_atom_site_fract_z
	H0	H	0.387658	0.822144	0.727396
	H1	H	0.599240	0.150261	0.728384
	H2	H	0.593040	0.823076	0.295046
	H3	H	0.395132	0.150614	0.296550
	H4	H	0.708203	0.385854	0.848193
	H5	H	0.716093	0.589447	0.171345
	H6	H	0.276411	0.586077	0.850106
	H7	H	0.275566	0.381687	0.172986
	H8	H	0.828171	0.694260	0.411047
	H9	H	0.157352	0.704623	0.607648
	H10	H	0.829877	0.270835	0.602462
	H11	H	0.159713	0.276244	0.411587
	H12	H	0.830942	0.377985	0.727362
	H13	H	0.155592	0.594208	0.730571
	H14	H	0.833917	0.586150	0.288250
	H15	H	0.158357	0.385324	0.291563
	H16	H	0.396279	0.700932	0.848818
	H17	H	0.596425	0.701950	0.174507
	H18	H	0.590373	0.272003	0.848296
	H19	H	0.397531	0.272580	0.175371
	H20	H	0.702879	0.821232	0.410278
	H21	H	0.713049	0.150250	0.612024
	H22	H	0.274967	0.822572	0.610678
	H23	H	0.284437	0.152412	0.413459
	H24	H	0.893271	0.320552	0.223226
	H25	H	0.099849	0.650582	0.224272
	H26	H	0.093957	0.321903	0.792289
	H27	H	0.891596	0.648898	0.793473
	H28	H	0.206731	0.889254	0.347806
	H29	H	0.212324	0.092485	0.672601
	H30	H	0.776715	0.084175	0.347828
	H31	H	0.774239	0.881772	0.670834
	H32	H	0.328988	0.194619	0.917492
	H33	H	0.660200	0.202239	0.110087
	H34	H	0.332015	0.766824	0.110046
	H35	H	0.660803	0.777121	0.914141
	H36	H	0.331129	0.881513	0.227774
	H37	H	0.657026	0.092112	0.232027
	H38	H	0.332438	0.087860	0.792998
	H39	H	0.655952	0.883348	0.790661
	H40	H	0.898670	0.197356	0.344900
	H41	H	0.093183	0.205146	0.672286
	H42	H	0.086172	0.776494	0.345582
	H43	H	0.890564	0.766826	0.671127
	H44	H	0.206341	0.320460	0.910191
	H45	H	0.214027	0.648997	0.112112
	H46	H	0.778051	0.321042	0.107687
	H47	H	0.784327	0.650553	0.910263
	H48	H	0.422145	0.099036	0.604606
	H49	H	0.578963	0.871383	0.596042
	H50	H	0.592935	0.110337	0.412297
	H51	H	0.396393	0.867285	0.418816
	H52	H	0.601678	0.395500	0.131011
	H53	H	0.590235	0.579285	0.895441
	H54	H	0.402088	0.575510	0.126866
	H55	H	0.404426	0.392886	0.896893
	H56	H	0.109808	0.582866	0.421261
	H57	H	0.875339	0.581006	0.601104
	H58	H	0.105697	0.404316	0.594345
	H59	H	0.877048	0.388287	0.414283
	H60	H	0.111032	0.405683	0.612906
	H61	H	0.881418	0.568651	0.597305
	H62	H	0.110867	0.576276	0.414714
	H63	H	0.879750	0.396280	0.417820
	H64	H	0.406602	0.572323	0.124302
	H65	H	0.589307	0.581195	0.895144
	H66	H	0.584576	0.408123	0.121345
	H67	H	0.397782	0.386995	0.893881
	H68	H	0.575493	0.101893	0.419142
	H69	H	0.587207	0.866405	0.603118
	H70	H	0.396712	0.102979	0.589988
	H71	H	0.398693	0.866809	0.416732
	H72	H	0.909788	0.601590	0.096462
	H73	H	0.076738	0.371588	0.093092
	H74	H	0.089678	0.606101	0.914488
	H75	H	0.893796	0.363708	0.914506
	H76	H	0.080571	0.895052	0.625339
	H77	H	0.084060	0.079105	0.397009
	H78	H	0.901556	0.073617	0.622848
	H79	H	0.906479	0.898599	0.399359
	H80	H	0.612501	0.082636	0.919782
	H81	H	0.380726	0.074248	0.101192
	H82	H	0.603991	0.910061	0.097588
	H83	H	0.378607	0.891119	0.919398
	H84	H	0.615294	0.902016	0.122419
	H85	H	0.377639	0.073937	0.112294
	H86	H	0.608686	0.076259	0.922587
	H87	H	0.380413	0.894261	0.920929
	H88	H	0.907354	0.078950	0.622966
	H89	H	0.090406	0.086175	0.392446
	H90	H	0.088151	0.894131	0.627651
	H91	H	0.898727	0.878555	0.390022
	H92	H	0.080744	0.601398	0.920162
	H93	H	0.096605	0.363450	0.100181
	H94	H	0.902698	0.604601	0.100877
	H95	H	0.908122	0.368410	0.912921
	H96	H	0.398333	0.111409	0.618915
	H97	H	0.576829	0.868877	0.606856
	H98	H	0.591644	0.103648	0.431881
	H99	H	0.399727	0.867942	0.418854
	H100	H	0.580842	0.385635	0.128010
	H101	H	0.591485	0.581299	0.894185
	H102	H	0.407351	0.578014	0.125215
	H103	H	0.395999	0.395030	0.896370
	H104	H	0.113603	0.586476	0.414107
	H105	H	0.876424	0.571174	0.610154
	H106	H	0.113886	0.389151	0.603029
	H107	H	0.877584	0.395344	0.409569
	H108	H	0.910069	0.604501	0.105433
	H109	H	0.079722	0.364316	0.114215
	H110	H	0.090416	0.602474	0.926226
	H111	H	0.902140	0.369478	0.925853
	H112	H	0.085155	0.901517	0.624263
	H113	H	0.094420	0.076952	0.393707
	H114	H	0.899927	0.081592	0.626506
	H115	H	0.885496	0.897302	0.391834
	H116	H	0.611017	0.076084	0.915717
	H117	H	0.376058	0.082813	0.105964
	H118	H	0.614578	0.883001	0.101126
	H119	H	0.378239	0.895301	0.917826
	C120	C	0.372955	-0.004378	0.633284
	C121	C	0.614846	0.977105	0.632627
	C122	C	0.613909	-0.004053	0.391169
	C123	C	0.372065	0.977234	0.390302
	C124	C	0.616320	0.366064	0.019372
	C125	C	0.620230	0.610369	1.002165
	C126	C	0.374742	0.606017	0.019164
	C127	C	0.371182	0.362507	1.003289
	C128	C	0.003146	0.608259	0.386813
	C129	C	0.985224	0.607446	0.632742
	C130	C	0.002275	0.366711	0.630865
	C131	C	0.986668	0.365238	0.386071
	C132	C	0.875026	0.494828	0.130167
	C133	C	0.115983	0.475781	0.131769
	C134	C	0.114972	0.494205	0.890063
	C135	C	0.873062	0.476265	0.888516
	C136	C	0.112847	0.867590	0.518320
	C137	C	0.118889	0.111720	0.501327
	C138	C	0.873191	0.106867	0.516990
	C139	C	0.867764	0.861523	0.500776
	C140	C	0.503052	0.107178	0.890570
	C141	C	0.486442	0.108303	0.135164
	C142	C	0.503313	0.865783	0.134580
	C143	C	0.486810	0.864940	0.889937
	C144	C	0.369940	0.871636	0.689365
	C145	C	0.617444	0.101034	0.689568
	C146	C	0.612006	0.872006	0.333920
	C147	C	0.375267	0.101595	0.334820
	C148	C	0.670641	0.366294	0.896921
	C149	C	0.677796	0.609737	0.123279
	C150	C	0.316048	0.605684	0.898216
	C151	C	0.314806	0.363151	0.124965
	C152	C	0.878551	0.659350	0.389736
	C153	C	0.108058	0.666354	0.629576
	C154	C	0.878846	0.308636	0.625476
	C155	C	0.110425	0.312200	0.390050
	C156	C	0.879548	0.361888	0.687496
	C157	C	0.107218	0.611028	0.690441
	C158	C	0.881462	0.605681	0.328480
	C159	C	0.109599	0.366684	0.330409
	C160	C	0.375709	0.662789	0.897485
	C161	C	0.618134	0.665915	0.124822
	C162	C	0.612217	0.309466	0.897055
	C163	C	0.375277	0.308528	0.126091
	C164	C	0.666681	0.871038	0.391219
	C165	C	0.674373	0.100995	0.632040
	C166	C	0.313773	0.871780	0.631108
	C167	C	0.320306	0.102586	0.393134
	C168	C	0.874096	0.370321	0.185470
	C169	C	0.118237	0.600705	0.187346
	C170	C	0.113141	0.370697	0.831836
	C171	C	0.873776	0.599944	0.832329
	C172	C	0.168379	0.869293	0.396086
	C173	C	0.174566	0.111878	0.623750
	C174	C	0.816139	0.104407	0.395708
	C175	C	0.812366	0.862332	0.622414
	C176	C	0.378866	0.159585	0.894842
	C177	C	0.610235	0.165329	0.131773
	C178	C	0.380640	0.806359	0.130992
	C179	C	0.610663	0.812132	0.892800
	C180	C	0.380212	0.863452	0.189653
	C181	C	0.608705	0.110229	0.192312
	C182	C	0.380538	0.106002	0.833177
	C183	C	0.608424	0.865444	0.831552
	C184	C	0.876336	0.161178	0.394360
	C185	C	0.115150	0.167909	0.623594
	C186	C	0.108383	0.813161	0.394959
	C187	C	0.870276	0.805070	0.622640
	C188	C	0.169189	0.369841	0.890505
	C189	C	0.175027	0.600144	0.131410
	C190	C	0.817091	0.370330	0.127684
	C191	C	0.819925	0.600661	0.890345
	C192	C	0.398444	0.082129	0.611158
	C193	C	0.588771	0.891118	0.608846
	C194	C	0.592934	0.082632	0.414336
	C195	C	0.392278	0.889923	0.411900
	C196	C	0.595210	0.389520	0.104738
	C197	C	0.596992	0.587253	0.917032
	C198	C	0.398509	0.582255	0.103607
	C199	C	0.392826	0.385043	0.917875
	C200	C	0.089164	0.587819	0.409789
	C201	C	0.899740	0.581276	0.609662
	C202	C	0.087980	0.392238	0.609861
	C203	C	0.900441	0.386947	0.407498
	C204	C	0.900024	0.581195	0.107394
	C205	C	0.091491	0.389033	0.109133
	C206	C	0.093251	0.580720	0.913539
	C207	C	0.894930	0.389520	0.911229
	C208	C	0.090931	0.890191	0.603522
	C209	C	0.096353	0.087860	0.416480
	C210	C	0.896150	0.084614	0.602108
	C211	C	0.890063	0.884641	0.415702
	C212	C	0.588664	0.084925	0.912959
	C213	C	0.400248	0.083978	0.112915
	C214	C	0.589120	0.891140	0.113110
	C215	C	0.401310	0.887138	0.912686
	Zn216	Zn	0.494333	-0.014173	0.761020
	Zn217	Zn	0.493855	-0.013340	0.264533
	Zn218	Zn	0.747076	0.486548	0.008681
	Zn219	Zn	0.242848	0.484508	0.011873
	Zn220	Zn	-0.007863	0.735882	0.509573
	Zn221	Zn	-0.004542	0.238476	0.508428
	Zn222	Zn	-0.007452	0.486050	0.762318
	Zn223	Zn	-0.003319	0.485952	0.258475
	Zn224	Zn	0.496520	0.737464	0.011342
	Zn225	Zn	0.494630	0.236125	0.012288
	Zn226	Zn	0.740944	-0.014858	0.509766
	Zn227	Zn	0.245222	-0.012304	0.511361
	N228	N	0.406089	0.949710	0.690567
	N229	N	0.581390	0.023025	0.690200
	N230	N	0.580045	0.950650	0.333420
	N231	N	0.406645	0.022560	0.332777
	N232	N	0.673300	0.400830	0.973930
	N233	N	0.679244	0.576001	0.045976
	N234	N	0.315488	0.571062	0.974847
	N235	N	0.312159	0.396023	0.047489
	N236	N	0.955256	0.661090	0.425516
	N237	N	0.030986	0.664290	0.594460
	N238	N	0.956106	0.311262	0.591154
	N239	N	0.032987	0.311089	0.423938
	N240	N	0.957237	0.397599	0.690805
	N241	N	0.029472	0.575503	0.692629
	N242	N	0.959976	0.574620	0.326708
	N243	N	0.031554	0.398779	0.327776
	N244	N	0.411508	0.662956	0.973675
	N245	N	0.583137	0.666258	0.048398
	N246	N	0.579222	0.309129	0.974160
	N247	N	0.409492	0.307987	0.049455
	N248	N	0.667833	0.949084	0.426494
	N249	N	0.672958	0.022848	0.597174
	N250	N	0.315369	0.950011	0.596972
	N251	N	0.318138	0.024223	0.426913
	N252	N	0.909603	0.448595	0.186890
	N253	N	0.082407	0.522453	0.187690
	N254	N	0.080477	0.449338	0.831142
	N255	N	0.906094	0.521485	0.831136
	N256	N	0.171245	0.902451	0.473720
	N257	N	0.177072	0.077782	0.546595
	N258	N	0.814181	0.071439	0.473064
	N259	N	0.810534	0.896474	0.545566
	N260	N	0.456088	0.160525	0.929868
	N261	N	0.533032	0.164183	0.096827
	N262	N	0.458240	0.807644	0.097592
	N263	N	0.534000	0.811624	0.928347
	N264	N	0.457614	0.899709	0.192030
	N265	N	0.530693	0.075695	0.194540
	N266	N	0.458721	0.074226	0.830316
	N267	N	0.530342	0.897259	0.829402
	N268	N	0.911296	0.162655	0.470882
	N269	N	0.081338	0.168084	0.546588
	N270	N	0.074558	0.811860	0.471882
	N271	N	0.903751	0.804081	0.545847
	N272	N	0.170575	0.447721	0.925942
	N273	N	0.173865	0.521610	0.097461
	N274	N	0.817395	0.448893	0.094026
	N275	N	0.819261	0.522529	0.924521
	O276	O	1.029324	-0.062358	0.992673
	H277	H	1.030375	-0.065945	0.995701
	H278	H	1.023505	-0.058905	0.985950
	O279	O	0.420200	0.465153	0.450740
	H280	H	0.409775	0.464748	0.449701
	H281	H	0.414204	0.469693	0.450965
	O282	O	0.564131	0.574500	0.607512
	H283	H	0.565913	0.581412	0.609004
	H284	H	0.570430	0.556305	0.599087
	O285	O	0.533087	0.600254	0.426803
	H286	H	0.529734	0.597918	0.435185
	H287	H	0.533894	0.607568	0.431808
	O288	O	0.520343	0.413070	0.448041
	H289	H	0.529688	0.413307	0.449411
	H290	H	0.510900	0.409697	0.458798
	O291	O	0.072811	0.099688	1.045881
	H292	H	0.083921	0.093858	1.051938
	H293	H	0.057199	0.085458	1.048879
	O294	O	1.081172	1.013542	-0.105839
	H295	H	1.086387	1.023300	-0.108466
	H296	H	1.065101	1.034251	-0.109968
	O297	O	0.945551	1.032007	0.155294
	H298	H	0.938955	1.033785	0.172645
	H299	H	0.945516	1.012409	0.151888
	O300	O	0.475723	0.508649	0.649099
	H301	H	0.482833	0.509361	0.646520
	H302	H	0.470184	0.516307	0.648136
	O303	O	0.480989	0.574000	0.518116
	H304	H	0.483241	0.576510	0.523596
	H305	H	0.485663	0.583122	0.523082
	O306	O	0.518688	0.509901	0.602269
	H307	H	0.521850	0.509803	0.611397
	H308	H	0.514882	0.509557	0.594358
	O309	O	0.600852	0.436050	0.399938
	H310	H	0.607283	0.436024	0.387108
	H311	H	0.594548	0.431129	0.403694
	O312	O	0.943048	0.947121	0.836439
	H313	H	0.942479	0.947283	0.834798
	H314	H	0.946998	0.957859	0.833188
	O315	O	1.042841	0.900745	0.029305
	H316	H	1.047094	0.892528	0.018665
	H317	H	1.030804	0.887941	0.012384
	O318	O	0.490584	0.477342	0.658245
	H319	H	0.501398	0.482934	0.666887
	H320	H	0.480485	0.487646	0.661113
	O321	O	1.161845	0.863804	-0.031817
	H322	H	1.155302	0.883747	-0.043608
	H323	H	1.168860	0.859560	-0.048629
	O324	O	-0.528900	1.399411	0.564964
	H325	H	-0.530713	1.401438	0.557919
	H326	H	-0.537719	1.389178	0.568593
	O327	O	-0.627251	1.420041	1.592798
	H328	H	-0.627647	1.415971	1.597781
	H329	H	-0.636244	1.414224	1.599717
	O330	O	-0.055463	-0.100779	-0.098714
	H331	H	-0.043874	-0.109215	-0.109837
	H332	H	-0.049849	-0.096134	-0.095028
	O333	O	1.091727	0.967895	-0.049900
	H334	H	1.087585	0.970184	-0.040797
	H335	H	1.087629	0.983908	-0.048696
	O336	O	0.062851	-0.041786	0.005977
	H337	H	0.061734	-0.041336	0.008403
	H338	H	0.057195	-0.040539	0.008769
	O339	O	-0.055839	-0.063472	0.036903
	H340	H	-0.052851	-0.051181	0.035796
	H341	H	-0.067403	-0.068347	0.034196
	O342	O	0.594836	0.444935	0.504642
	H343	H	0.597892	0.437494	0.494011
	H344	H	0.586644	0.442959	0.507135
	O345	O	0.057937	1.117633	0.992514
	H346	H	0.045319	1.101945	1.002292
	H347	H	0.066716	1.120770	1.006764
	O348	O	0.513217	0.430309	0.526497
	H349	H	0.511498	0.421412	0.512379
	H350	H	0.523475	0.434971	0.525418
	O351	O	0.478610	0.484497	0.656468
	H352	H	0.480423	0.476849	0.662380
	H353	H	0.461562	0.479019	0.653839
	O354	O	0.031334	1.006120	-0.063070
	H355	H	0.013625	1.006847	-0.060095
	H356	H	0.028062	1.004318	-0.059401
	O357	O	0.498251	0.483945	0.362522
	H358	H	0.488731	0.489921	0.359908
	H359	H	0.502277	0.503290	0.358581
	O360	O	0.494009	0.535981	0.488768
	H361	H	0.508485	0.534541	0.492142
	H362	H	0.482448	0.532787	0.482599
	O363	O	0.515738	0.583635	0.395943
	H364	H	0.505260	0.590017	0.394653
	H365	H	0.517401	0.580377	0.401665
	O366	O	0.923731	0.995796	0.033986
	H367	H	0.932172	1.000681	0.033417
	H368	H	0.933457	0.995668	0.037628
	O369	O	0.919476	-0.115659	0.055264
	H370	H	0.933582	-0.120507	0.048938
	H371	H	0.914365	-0.130402	0.041293
	O372	O	0.364232	0.387713	0.446793
	H373	H	0.359433	0.389530	0.449108
	H374	H	0.375932	0.389050	0.451928
	O375	O	1.061701	-0.046578	0.994448
	H376	H	1.062773	-0.037340	1.006917
	H377	H	1.060053	-0.039504	0.992785
	O378	O	-0.074968	1.062900	-0.017311
	H379	H	-0.068147	1.056019	-0.017115
	H380	H	-0.063532	1.066496	-0.015015
	O381	O	0.610958	0.540325	0.548740
	H382	H	0.621236	0.536521	0.550637
	H383	H	0.595212	0.529652	0.542413
	O384	O	0.982195	1.093782	0.087712
	H385	H	0.978022	1.082636	0.094046
	H386	H	0.983544	1.092443	0.090233
	O387	O	0.934919	-0.081151	1.132310
	H388	H	0.924572	-0.090675	1.137583
	H389	H	0.928791	-0.082493	1.135007
	O390	O	0.840114	1.121310	-0.049585
	H391	H	0.839489	1.126800	-0.040947
	H392	H	0.834415	1.120619	-0.044404
	O393	O	0.510657	0.484480	0.597503
	H394	H	0.518040	0.489807	0.610729
	H395	H	0.509818	0.473820	0.597181
