data_Molecule from HDF5

_cell_length_a		16.244019
_cell_length_b		16.271794
_cell_length_c		16.303600
_cell_angle_alpha	90.002003
_cell_angle_beta	90.029802
_cell_angle_gamma	89.993394
_symmetry_space_group_name_H-M	'P 1'
_symmetry_Int_Tables_number		1

loop_
	_symmetry_equiv_pos_as_xyz
	x,y,z

loop_
	_atom_site_label
	_atom_site_type_symbol
	_atom_site_fract_x
	_atom_site_fract_y
	_atom_site_fract_z
	H0	H	0.401808	0.836307	0.714098
	H1	H	0.598707	0.163563	0.714089
	H2	H	0.598992	0.836035	0.285531
	H3	H	0.401547	0.163471	0.286362
	H4	H	0.712461	0.403410	0.835062
	H5	H	0.713348	0.597662	0.163773
	H6	H	0.285082	0.597526	0.836714
	H7	H	0.285642	0.402396	0.163559
	H8	H	0.836623	0.714530	0.402547
	H9	H	0.164964	0.712545	0.597803
	H10	H	0.835099	0.287672	0.596707
	H11	H	0.164948	0.287245	0.403157
	H12	H	0.836022	0.401699	0.713932
	H13	H	0.164057	0.598198	0.715363
	H14	H	0.836037	0.598382	0.286394
	H15	H	0.163796	0.401682	0.285575
	H16	H	0.402421	0.713122	0.836032
	H17	H	0.597849	0.714873	0.163137
	H18	H	0.597998	0.284649	0.836224
	H19	H	0.401680	0.285986	0.163228
	H20	H	0.714127	0.835885	0.402598
	H21	H	0.714092	0.163533	0.598378
	H22	H	0.287621	0.835156	0.596762
	H23	H	0.285683	0.163718	0.401900
	H24	H	0.901246	0.336860	0.214603
	H25	H	0.097765	0.663695	0.213372
	H26	H	0.098223	0.335748	0.785878
	H27	H	0.901712	0.663966	0.785805
	H28	H	0.212137	0.903808	0.335808
	H29	H	0.213978	0.096943	0.663937
	H30	H	0.786092	0.097225	0.337141
	H31	H	0.787165	0.903097	0.664981
	H32	H	0.335571	0.213521	0.901827
	H33	H	0.663162	0.214785	0.099076
	H34	H	0.336210	0.785933	0.097558
	H35	H	0.664996	0.787086	0.902667
	H36	H	0.336068	0.901146	0.214152
	H37	H	0.663085	0.098924	0.214935
	H38	H	0.336433	0.098562	0.785211
	H39	H	0.664383	0.902854	0.786003
	H40	H	0.902443	0.213871	0.336244
	H41	H	0.097902	0.213858	0.664488
	H42	H	0.098610	0.785451	0.336916
	H43	H	0.902530	0.784806	0.663899
	H44	H	0.214163	0.335823	0.902440
	H45	H	0.213409	0.663996	0.097293
	H46	H	0.786282	0.336723	0.097242
	H47	H	0.786774	0.664444	0.902246
	H48	H	0.407422	0.114325	0.586065
	H49	H	0.587399	0.883355	0.598090
	H50	H	0.593911	0.116929	0.405274
	H51	H	0.407807	0.883689	0.408415
	H52	H	0.598930	0.404418	0.117825
	H53	H	0.591980	0.600224	0.881446
	H54	H	0.406622	0.589880	0.115550
	H55	H	0.398382	0.407652	0.881073
	H56	H	0.117655	0.592752	0.405372
	H57	H	0.887919	0.588340	0.583066
	H58	H	0.113553	0.413318	0.589114
	H59	H	0.884712	0.405400	0.413006
	H60	H	0.118662	0.407360	0.601990
	H61	H	0.882378	0.586435	0.603669
	H62	H	0.117890	0.593383	0.407150
	H63	H	0.884261	0.412711	0.403603
	H64	H	0.409583	0.595249	0.116286
	H65	H	0.599294	0.591468	0.882290
	H66	H	0.591949	0.414076	0.113722
	H67	H	0.411255	0.413320	0.886936
	H68	H	0.590641	0.115411	0.407447
	H69	H	0.593551	0.885335	0.585912
	H70	H	0.400402	0.118963	0.595362
	H71	H	0.403617	0.882551	0.406036
	H72	H	0.911808	0.616464	0.094517
	H73	H	0.092164	0.383893	0.090789
	H74	H	0.099902	0.615460	0.915990
	H75	H	0.906579	0.380987	0.900479
	H76	H	0.096471	0.908542	0.616895
	H77	H	0.092721	0.102314	0.382362
	H78	H	0.908101	0.098687	0.617673
	H79	H	0.904221	0.912763	0.385034
	H80	H	0.619451	0.095739	0.898885
	H81	H	0.381013	0.096214	0.094323
	H82	H	0.618195	0.906907	0.096250
	H83	H	0.385471	0.905321	0.914757
	H84	H	0.617595	0.904592	0.092203
	H85	H	0.383620	0.092571	0.090265
	H86	H	0.617131	0.098650	0.912944
	H87	H	0.384698	0.915093	0.903336
	H88	H	0.902262	0.092901	0.617784
	H89	H	0.101323	0.091074	0.382684
	H90	H	0.090576	0.906281	0.616048
	H91	H	0.912798	0.907444	0.386193
	H92	H	0.098172	0.621240	0.896662
	H93	H	0.096063	0.382199	0.093742
	H94	H	0.905032	0.616338	0.089255
	H95	H	0.910588	0.385343	0.908840
	H96	H	0.412496	0.116759	0.597897
	H97	H	0.600473	0.879981	0.597073
	H98	H	0.594055	0.115947	0.408958
	H99	H	0.408104	0.882520	0.403516
	H100	H	0.586595	0.402546	0.115419
	H101	H	0.588280	0.589731	0.885456
	H102	H	0.403409	0.595179	0.118435
	H103	H	0.410677	0.399124	0.882093
	H104	H	0.117521	0.592251	0.406482
	H105	H	0.879657	0.604547	0.593414
	H106	H	0.118777	0.399566	0.589645
	H107	H	0.879942	0.401275	0.402355
	H108	H	0.904114	0.619734	0.097305
	H109	H	0.091040	0.383172	0.096006
	H110	H	0.082316	0.613600	0.906595
	H111	H	0.900884	0.382724	0.908708
	H112	H	0.094656	0.902534	0.618266
	H113	H	0.087381	0.089700	0.386277
	H114	H	0.909898	0.091575	0.615817
	H115	H	0.904689	0.902254	0.382465
	H116	H	0.614476	0.085425	0.908319
	H117	H	0.382861	0.090285	0.096068
	H118	H	0.616590	0.908941	0.092239
	H119	H	0.379689	0.900798	0.901380
	C120	C	0.378782	0.008227	0.621261
	C121	C	0.621510	0.991477	0.621625
	C122	C	0.621662	0.008120	0.378345
	C123	C	0.378273	0.991333	0.377930
	C124	C	0.621357	0.377969	0.007788
	C125	C	0.621401	0.622119	0.991384
	C126	C	0.378001	0.621667	0.008562
	C127	C	0.378034	0.378416	0.991358
	C128	C	0.008697	0.621449	0.378414
	C129	C	0.991828	0.621187	0.621726
	C130	C	0.008494	0.378400	0.621513
	C131	C	0.991540	0.378374	0.378203
	C132	C	0.878569	0.509078	0.121543
	C133	C	0.121275	0.491503	0.121268
	C134	C	0.121285	0.508019	0.878576
	C135	C	0.878174	0.491968	0.878168
	C136	C	0.121836	0.877981	0.508660
	C137	C	0.121961	0.121884	0.491992
	C138	C	0.878405	0.122083	0.508880
	C139	C	0.878588	0.878447	0.492404
	C140	C	0.508488	0.121460	0.878196
	C141	C	0.491043	0.121305	0.121445
	C142	C	0.508796	0.878609	0.121553
	C143	C	0.491949	0.879026	0.878334
	C144	C	0.381269	0.885170	0.676498
	C145	C	0.618856	0.114898	0.676280
	C146	C	0.619736	0.885105	0.323033
	C147	C	0.380859	0.114660	0.323632
	C148	C	0.675389	0.381817	0.884343
	C149	C	0.676192	0.619007	0.114657
	C150	C	0.323206	0.618428	0.885411
	C151	C	0.323333	0.381312	0.114511
	C152	C	0.885296	0.676369	0.381820
	C153	C	0.115886	0.674915	0.618158
	C154	C	0.884423	0.324673	0.617647
	C155	C	0.115439	0.324215	0.381645
	C156	C	0.884771	0.381104	0.676030
	C157	C	0.115436	0.618196	0.676521
	C158	C	0.885039	0.618945	0.324129
	C159	C	0.115032	0.381140	0.323422
	C160	C	0.381217	0.676120	0.885186
	C161	C	0.618609	0.676861	0.114620
	C162	C	0.618592	0.322929	0.884704
	C163	C	0.381008	0.323603	0.114629
	C164	C	0.676911	0.884949	0.381237
	C165	C	0.675940	0.114988	0.618712
	C166	C	0.324536	0.884476	0.618003
	C167	C	0.323331	0.114525	0.381183
	C168	C	0.880744	0.385737	0.176548
	C169	C	0.118204	0.615184	0.175495
	C170	C	0.118572	0.384634	0.823802
	C171	C	0.881370	0.615083	0.823665
	C172	C	0.175158	0.882093	0.385010
	C173	C	0.176468	0.118076	0.615450
	C174	C	0.823777	0.118614	0.385603
	C175	C	0.824207	0.881585	0.615884
	C176	C	0.384632	0.175768	0.881195
	C177	C	0.614415	0.176435	0.119035
	C178	C	0.385044	0.823606	0.118545
	C179	C	0.615764	0.824606	0.881570
	C180	C	0.385038	0.880962	0.176282
	C181	C	0.614290	0.119106	0.176843
	C182	C	0.385143	0.118977	0.823163
	C183	C	0.615583	0.881969	0.823791
	C184	C	0.881663	0.176234	0.385288
	C185	C	0.119055	0.176420	0.615439
	C186	C	0.118953	0.823162	0.385478
	C187	C	0.881791	0.823311	0.615548
	C188	C	0.176144	0.384695	0.881562
	C189	C	0.175761	0.615037	0.118248
	C190	C	0.823777	0.385600	0.118165
	C191	C	0.824387	0.615445	0.881787
	C192	C	0.400446	0.094401	0.599478
	C193	C	0.600053	0.905151	0.600114
	C194	C	0.599373	0.094119	0.400637
	C195	C	0.400187	0.905113	0.399600
	C196	C	0.599095	0.400355	0.093495
	C197	C	0.599561	0.600288	0.905433
	C198	C	0.399893	0.599915	0.094535
	C199	C	0.400245	0.400263	0.905543
	C200	C	0.095351	0.599275	0.399928
	C201	C	0.905358	0.599445	0.599914
	C202	C	0.094665	0.400301	0.599972
	C203	C	0.905392	0.400140	0.399920
	C204	C	0.900527	0.595273	0.100063
	C205	C	0.099596	0.405430	0.099919
	C206	C	0.099770	0.594429	0.900030
	C207	C	0.899638	0.405226	0.899593
	C208	C	0.100322	0.899459	0.594821
	C209	C	0.100202	0.100541	0.406004
	C210	C	0.900071	0.100638	0.594878
	C211	C	0.900576	0.900740	0.406781
	C212	C	0.594717	0.099686	0.900253
	C213	C	0.404844	0.099518	0.099825
	C214	C	0.594983	0.900461	0.100087
	C215	C	0.405634	0.900721	0.900034
	Zn216	Zn	0.500368	0.000268	0.750020
	Zn217	Zn	0.499703	-0.000182	0.249965
	Zn218	Zn	0.750142	0.500470	-0.000465
	Zn219	Zn	0.249342	0.499693	-0.000010
	Zn220	Zn	0.000651	0.749306	0.500252
	Zn221	Zn	0.000199	0.250379	0.500193
	Zn222	Zn	0.000089	0.499502	0.749882
	Zn223	Zn	-0.000015	0.500455	0.250107
	Zn224	Zn	0.499987	0.750654	-0.000049
	Zn225	Zn	0.499555	0.249422	-0.000496
	Zn226	Zn	0.749625	-0.000051	0.500677
	Zn227	Zn	0.250091	-0.000444	0.499961
	N228	N	0.414312	0.963055	0.678612
	N229	N	0.585687	0.037146	0.678151
	N230	N	0.586031	0.962679	0.321165
	N231	N	0.414382	0.037065	0.321715
	N232	N	0.677224	0.415273	0.961880
	N233	N	0.678019	0.585704	0.037067
	N234	N	0.321068	0.585584	0.963031
	N235	N	0.321657	0.414770	0.036979
	N236	N	0.963276	0.677859	0.414692
	N237	N	0.038115	0.676647	0.584584
	N238	N	0.962241	0.322908	0.584449
	N239	N	0.037814	0.322619	0.415176
	N240	N	0.962826	0.413981	0.678466
	N241	N	0.037216	0.585641	0.678920
	N242	N	0.962925	0.585517	0.322140
	N243	N	0.037067	0.414217	0.321191
	N244	N	0.414887	0.678179	0.962713
	N245	N	0.585300	0.678770	0.037085
	N246	N	0.585747	0.320433	0.962555
	N247	N	0.414193	0.321450	0.036981
	N248	N	0.678060	0.962408	0.415048
	N249	N	0.677805	0.037252	0.585510
	N250	N	0.322754	0.961943	0.584449
	N251	N	0.321624	0.036697	0.414268
	N252	N	0.914040	0.463353	0.178765
	N253	N	0.085289	0.537270	0.177847
	N254	N	0.085103	0.462385	0.821864
	N255	N	0.914231	0.537013	0.821349
	N256	N	0.177084	0.915281	0.462499
	N257	N	0.178436	0.084995	0.537783
	N258	N	0.821626	0.085691	0.463340
	N259	N	0.822247	0.915190	0.538458
	N260	N	0.462368	0.177476	0.914727
	N261	N	0.536724	0.178083	0.085419
	N262	N	0.462869	0.822090	0.085184
	N263	N	0.537970	0.822828	0.915010
	N264	N	0.462747	0.914464	0.178116
	N265	N	0.536593	0.085568	0.178427
	N266	N	0.463024	0.086026	0.821251
	N267	N	0.537775	0.915264	0.822062
	N268	N	0.914866	0.178391	0.462920
	N269	N	0.085632	0.178633	0.537838
	N270	N	0.086329	0.820585	0.463259
	N271	N	0.915039	0.821430	0.537923
	N272	N	0.177837	0.462385	0.914718
	N273	N	0.177589	0.537300	0.084895
	N274	N	0.822296	0.463308	0.084780
	N275	N	0.822303	0.537712	0.914687
