data_Molecule from HDF5

_cell_length_a		16.553567
_cell_length_b		16.504547
_cell_length_c		16.543982
_cell_angle_alpha	89.973141
_cell_angle_beta	89.929702
_cell_angle_gamma	89.966742
_symmetry_space_group_name_H-M	'P 1'
_symmetry_Int_Tables_number		1

loop_
	_symmetry_equiv_pos_as_xyz
	x,y,z

loop_
	_atom_site_label
	_atom_site_type_symbol
	_atom_site_fract_x
	_atom_site_fract_y
	_atom_site_fract_z
	H0	H	0.397016	0.859232	0.732181
	H1	H	0.607794	0.172864	0.729869
	H2	H	0.613205	0.859693	0.287417
	H3	H	0.400187	0.172531	0.287314
	H4	H	0.726909	0.408912	0.855018
	H5	H	0.727809	0.620909	0.166993
	H6	H	0.283434	0.621540	0.854698
	H7	H	0.280854	0.405829	0.166404
	H8	H	0.849106	0.737557	0.405343
	H9	H	0.162568	0.736593	0.614581
	H10	H	0.849799	0.293735	0.615957
	H11	H	0.161930	0.292109	0.404114
	H12	H	0.849871	0.411448	0.731214
	H13	H	0.162039	0.620552	0.732083
	H14	H	0.849062	0.621282	0.288781
	H15	H	0.161828	0.408096	0.287203
	H16	H	0.397674	0.738498	0.855273
	H17	H	0.612193	0.738325	0.166258
	H18	H	0.609909	0.294254	0.853540
	H19	H	0.397815	0.290158	0.167548
	H20	H	0.727201	0.858900	0.405314
	H21	H	0.724500	0.172623	0.614208
	H22	H	0.284578	0.857881	0.613415
	H23	H	0.282495	0.172365	0.402737
	H24	H	0.899875	0.357123	0.232229
	H25	H	0.110097	0.671045	0.231893
	H26	H	0.110549	0.357436	0.788911
	H27	H	0.902101	0.671597	0.790864
	H28	H	0.225878	0.911448	0.352455
	H29	H	0.226713	0.120700	0.666276
	H30	H	0.781436	0.123058	0.354419
	H31	H	0.785813	0.912947	0.667563
	H32	H	0.348109	0.236592	0.906331
	H33	H	0.661943	0.237372	0.115731
	H34	H	0.349441	0.792800	0.117252
	H35	H	0.662297	0.796144	0.907265
	H36	H	0.349127	0.909045	0.233151
	H37	H	0.661615	0.121328	0.232586
	H38	H	0.346938	0.119322	0.790558
	H39	H	0.661535	0.912036	0.790012
	H40	H	0.898329	0.238244	0.353475
	H41	H	0.107471	0.234707	0.668576
	H42	H	0.109697	0.794608	0.352745
	H43	H	0.902877	0.797443	0.668003
	H44	H	0.227343	0.357187	0.904616
	H45	H	0.227279	0.670881	0.117217
	H46	H	0.783870	0.357032	0.115873
	H47	H	0.783074	0.670427	0.905555
	H48	H	0.410724	0.129849	0.599583
	H49	H	0.596733	0.901024	0.600622
	H50	H	0.585057	0.123302	0.425318
	H51	H	0.414654	0.903411	0.421555
	H52	H	0.595933	0.428146	0.123914
	H53	H	0.592245	0.602445	0.899841
	H54	H	0.420382	0.602243	0.121555
	H55	H	0.413480	0.430316	0.900381
	H56	H	0.115605	0.600275	0.423011
	H57	H	0.892637	0.609974	0.596998
	H58	H	0.119465	0.424018	0.599206
	H59	H	0.893584	0.424910	0.424163
	H60	H	0.117515	0.427230	0.596184
	H61	H	0.895149	0.600770	0.600231
	H62	H	0.118410	0.603938	0.417395
	H63	H	0.895730	0.430032	0.423161
	H64	H	0.416562	0.605082	0.122513
	H65	H	0.594104	0.607695	0.897293
	H66	H	0.590967	0.428579	0.121230
	H67	H	0.421442	0.426061	0.900964
	H68	H	0.600542	0.128120	0.427857
	H69	H	0.592683	0.901955	0.601725
	H70	H	0.418438	0.128687	0.603399
	H71	H	0.417975	0.903629	0.420089
	H72	H	0.919722	0.624545	0.098685
	H73	H	0.087822	0.404139	0.100347
	H74	H	0.091897	0.625559	0.923376
	H75	H	0.916334	0.400648	0.920205
	H76	H	0.098019	0.927022	0.622693
	H77	H	0.098892	0.101099	0.397868
	H78	H	0.908264	0.098769	0.622911
	H79	H	0.922495	0.926399	0.399335
	H80	H	0.619630	0.105611	0.914844
	H81	H	0.393170	0.105711	0.098220
	H82	H	0.613020	0.936120	0.097377
	H83	H	0.394213	0.926128	0.927059
	H84	H	0.621283	0.925009	0.108271
	H85	H	0.395970	0.100192	0.094489
	H86	H	0.617662	0.108899	0.922231
	H87	H	0.391680	0.932092	0.917552
	H88	H	0.923330	0.100976	0.617725
	H89	H	0.089079	0.100710	0.401164
	H90	H	0.092811	0.927984	0.621455
	H91	H	0.912676	0.922254	0.395073
	H92	H	0.097199	0.626257	0.923692
	H93	H	0.093736	0.403743	0.092936
	H94	H	0.913954	0.626384	0.097100
	H95	H	0.918907	0.402629	0.922508
	H96	H	0.417192	0.125775	0.595169
	H97	H	0.594598	0.903187	0.597952
	H98	H	0.593170	0.130980	0.413291
	H99	H	0.417597	0.904794	0.423117
	H100	H	0.592498	0.423655	0.123801
	H101	H	0.598456	0.602893	0.898433
	H102	H	0.416306	0.600267	0.122175
	H103	H	0.414224	0.421452	0.897853
	H104	H	0.117676	0.607529	0.424058
	H105	H	0.890551	0.607362	0.606437
	H106	H	0.117796	0.428548	0.601209
	H107	H	0.892826	0.426600	0.419271
	H108	H	0.916105	0.628116	0.102262
	H109	H	0.096654	0.399893	0.101680
	H110	H	0.094852	0.627897	0.919361
	H111	H	0.915164	0.402071	0.923643
	H112	H	0.094654	0.923527	0.622587
	H113	H	0.092739	0.109692	0.396446
	H114	H	0.915509	0.113216	0.625804
	H115	H	0.913586	0.933453	0.398156
	H116	H	0.615707	0.100751	0.920409
	H117	H	0.394199	0.099637	0.101432
	H118	H	0.617330	0.919939	0.091823
	H119	H	0.389726	0.920842	0.917810
	C120	C	0.382992	0.024110	0.631152
	C121	C	0.625997	1.006278	0.631523
	C122	C	0.626410	0.024291	0.389227
	C123	C	0.384063	1.007676	0.388568
	C124	C	0.626236	0.393689	0.019584
	C125	C	0.627251	0.636816	1.002121
	C126	C	0.384539	0.635592	0.019125
	C127	C	0.383270	0.392446	1.002724
	C128	C	0.013920	0.636529	0.388973
	C129	C	0.996908	0.637794	0.632753
	C130	C	0.014583	0.394628	0.631077
	C131	C	0.997524	0.394070	0.389429
	C132	C	0.883880	0.522724	0.132181
	C133	C	0.126073	0.505818	0.131398
	C134	C	0.127229	0.522979	0.889306
	C135	C	0.884937	0.505891	0.890046
	C136	C	0.127000	0.893997	0.518538
	C137	C	0.126167	0.136506	0.502006
	C138	C	0.883216	0.137474	0.518634
	C139	C	0.884612	0.895472	0.501266
	C140	C	0.513582	0.136956	0.888316
	C141	C	0.497510	0.135858	0.131168
	C142	C	0.513866	0.894079	0.132021
	C143	C	0.496333	0.894797	0.889415
	C144	C	0.379928	0.906140	0.691546
	C145	C	0.626506	0.125322	0.690355
	C146	C	0.630427	0.906565	0.328194
	C147	C	0.381440	0.125433	0.327632
	C148	C	0.686782	0.390864	0.901841
	C149	C	0.687626	0.639363	0.119849
	C150	C	0.323352	0.639103	0.902025
	C151	C	0.321595	0.388287	0.119907
	C152	C	0.896092	0.697306	0.386613
	C153	C	0.115207	0.696985	0.633831
	C154	C	0.896932	0.334028	0.634206
	C155	C	0.114894	0.332625	0.386043
	C156	C	0.896672	0.392236	0.691453
	C157	C	0.114929	0.639421	0.692454
	C158	C	0.896176	0.639434	0.328710
	C159	C	0.115034	0.390451	0.328042
	C160	C	0.380572	0.697575	0.902091
	C161	C	0.630040	0.697676	0.119615
	C162	C	0.628449	0.333693	0.901444
	C163	C	0.379949	0.330826	0.120287
	C164	C	0.687379	0.906252	0.386527
	C165	C	0.684807	0.125290	0.632946
	C166	C	0.323543	0.905610	0.632720
	C167	C	0.323030	0.125461	0.385027
	C168	C	0.881656	0.404318	0.192170
	C169	C	0.129004	0.623736	0.192223
	C170	C	0.129347	0.404761	0.828767
	C171	C	0.883128	0.624465	0.830600
	C172	C	0.185948	0.892628	0.399667
	C173	C	0.185969	0.138698	0.619895
	C174	C	0.822061	0.140907	0.401152
	C175	C	0.825485	0.893834	0.620127
	C176	C	0.395012	0.196467	0.887500
	C177	C	0.614967	0.196943	0.133709
	C178	C	0.396334	0.833103	0.135171
	C179	C	0.614955	0.835840	0.888268
	C180	C	0.396229	0.891177	0.192797
	C181	C	0.614862	0.139614	0.192067
	C182	C	0.394394	0.138240	0.830005
	C183	C	0.614511	0.893285	0.829842
	C184	C	0.880313	0.198462	0.401009
	C185	C	0.127041	0.195475	0.620718
	C186	C	0.128217	0.834475	0.399952
	C187	C	0.883778	0.836546	0.620280
	C188	C	0.187295	0.404575	0.886522
	C189	C	0.187028	0.623668	0.134900
	C190	C	0.823877	0.404267	0.134409
	C191	C	0.824252	0.623934	0.887534
	C192	C	0.408146	0.106558	0.606245
	C193	C	0.601746	0.923520	0.607008
	C194	C	0.600450	0.106305	0.414781
	C195	C	0.409507	0.925283	0.414289
	C196	C	0.600532	0.419257	0.101469
	C197	C	0.601943	0.611643	0.919991
	C198	C	0.410355	0.609952	0.100780
	C199	C	0.409043	0.418438	0.920944
	C200	C	0.095893	0.611120	0.414236
	C201	C	0.914219	0.613257	0.608324
	C202	C	0.096940	0.419565	0.606064
	C203	C	0.915480	0.419924	0.414703
	C204	C	0.909213	0.605026	0.106785
	C205	C	0.100188	0.423828	0.105681
	C206	C	0.102008	0.605172	0.914750
	C207	C	0.909825	0.423237	0.914887
	C208	C	0.102372	0.918893	0.600747
	C209	C	0.100969	0.111157	0.419850
	C210	C	0.908477	0.111563	0.600600
	C211	C	0.909150	0.920436	0.418995
	C212	C	0.595961	0.112214	0.912215
	C213	C	0.415723	0.109403	0.105590
	C214	C	0.595964	0.919567	0.106560
	C215	C	0.413526	0.919106	0.913900
	Zn216	Zn	0.503823	0.015226	0.759743
	Zn217	Zn	0.506033	0.015343	0.260467
	Zn218	Zn	0.755319	0.514325	0.010441
	Zn219	Zn	0.255130	0.514377	0.011457
	Zn220	Zn	0.005501	0.765586	0.510043
	Zn221	Zn	0.005599	0.265645	0.510344
	Zn222	Zn	0.005547	0.514943	0.760452
	Zn223	Zn	0.005143	0.514604	0.260193
	Zn224	Zn	0.505495	0.765421	0.010477
	Zn225	Zn	0.505090	0.264690	0.010907
	Zn226	Zn	0.754658	0.015733	0.510028
	Zn227	Zn	0.255421	0.015795	0.509480
	N228	N	0.416285	0.980813	0.690638
	N229	N	0.590723	0.050275	0.689749
	N230	N	0.593139	0.980962	0.329913
	N231	N	0.418664	0.051072	0.329662
	N232	N	0.685358	0.427625	0.976292
	N233	N	0.685995	0.602189	0.045722
	N234	N	0.325812	0.601036	0.975748
	N235	N	0.323524	0.425890	0.045927
	N236	N	0.970323	0.695672	0.423379
	N237	N	0.040701	0.695969	0.597439
	N238	N	0.971074	0.335549	0.597357
	N239	N	0.040868	0.334808	0.423327
	N240	N	0.970988	0.429289	0.689691
	N241	N	0.040174	0.603342	0.691853
	N242	N	0.970530	0.602550	0.329770
	N243	N	0.040808	0.427852	0.329962
	N244	N	0.417971	0.695698	0.976054
	N245	N	0.593222	0.696188	0.045334
	N246	N	0.591311	0.335389	0.975627
	N247	N	0.417330	0.333094	0.046191
	N248	N	0.684986	0.980527	0.423715
	N249	N	0.684657	0.050190	0.597110
	N250	N	0.325262	0.980142	0.595822
	N251	N	0.324551	0.051048	0.421939
	N252	N	0.918127	0.479073	0.190919
	N253	N	0.091876	0.549454	0.190281
	N254	N	0.092711	0.479498	0.830171
	N255	N	0.920157	0.550151	0.832289
	N256	N	0.185390	0.928803	0.474383
	N257	N	0.185548	0.102871	0.544913
	N258	N	0.823643	0.103715	0.475487
	N259	N	0.825662	0.929736	0.545135
	N260	N	0.470054	0.196056	0.922855
	N261	N	0.540892	0.194420	0.096438
	N262	N	0.470481	0.834939	0.097867
	N263	N	0.540189	0.836420	0.924310
	N264	N	0.470414	0.928352	0.190897
	N265	N	0.540824	0.102169	0.190422
	N266	N	0.469246	0.102169	0.830107
	N267	N	0.539430	0.928695	0.830166
	N268	N	0.917557	0.196589	0.475096
	N269	N	0.090790	0.194392	0.546169
	N270	N	0.092396	0.835219	0.474849
	N271	N	0.919607	0.837056	0.545354
	N272	N	0.186392	0.479208	0.923110
	N273	N	0.185291	0.549123	0.097994
	N274	N	0.824940	0.479045	0.097942
	N275	N	0.825262	0.549104	0.923812
	O276	O	0.817567	0.894096	0.026640
	H277	H	0.822207	0.885891	0.025498
	H278	H	0.810584	0.895204	0.045358
	O279	O	-0.022369	-0.129896	0.822914
	H280	H	-0.033367	-0.107282	0.822066
	H281	H	-0.034160	-0.135459	0.821009
	O282	O	0.522467	0.686083	0.452593
	H283	H	0.517948	0.674810	0.460152
	H284	H	0.531086	0.681887	0.449423
	O285	O	0.800639	0.218284	0.803024
	H286	H	0.826224	0.227142	0.821592
	H287	H	0.775014	0.252117	0.774023
	O288	O	0.824540	0.228608	0.992136
	H289	H	0.808351	0.221886	0.992354
	H290	H	0.825255	0.232098	0.984416
	O291	O	0.498158	0.287682	0.503215
	H292	H	0.495425	0.287170	0.515846
	H293	H	0.507653	0.289640	0.487004
	O294	O	-0.108777	-0.028416	0.213370
	H295	H	-0.115032	-0.024596	0.218881
	H296	H	-0.100026	-0.015160	0.214846
	O297	O	0.970995	-0.191289	0.129702
	H298	H	0.944566	-0.187727	0.122722
	H299	H	0.979811	-0.192341	0.133228
	O300	O	0.119944	-0.024399	0.224581
	H301	H	0.127135	-0.026492	0.241688
	H302	H	0.127419	-0.002372	0.227785
	O303	O	-0.268865	-0.249198	-0.259691
	H304	H	-0.270639	-0.251179	-0.278532
	H305	H	-0.239951	-0.217849	-0.236146
	O306	O	1.126107	-0.122688	-0.108291
	H307	H	1.124489	-0.140252	-0.116154
	H308	H	1.100191	-0.122661	-0.111773
	O309	O	0.495473	0.301654	0.373719
	H310	H	0.487347	0.286083	0.357500
	H311	H	0.493871	0.317124	0.383401
	O312	O	0.284981	0.524116	0.510166
	H313	H	0.279589	0.514431	0.499481
	H314	H	0.294813	0.524768	0.507899
	O315	O	0.718912	0.729660	0.544974
	H316	H	0.715256	0.717384	0.537853
	H317	H	0.741221	0.742918	0.537857
	O318	O	1.036693	1.085786	-0.068439
	H319	H	1.047901	1.084872	-0.066171
	H320	H	1.051495	1.082064	-0.066365
	O321	O	0.296889	0.310833	0.605753
	H322	H	0.321046	0.310843	0.615697
	H323	H	0.279710	0.281352	0.614949
	O324	O	0.517127	0.532661	1.558659
	H325	H	0.525323	0.523745	1.548786
	H326	H	0.509225	0.535228	1.557809
	O327	O	0.409972	0.658969	0.581404
	H328	H	0.413705	0.658456	0.567798
	H329	H	0.422961	0.661270	0.589553
	O330	O	0.161266	1.018115	0.131501
	H331	H	0.164399	0.992601	0.122778
	H332	H	0.181887	1.014982	0.135247
	O333	O	0.287412	0.540618	0.309683
	H334	H	0.271293	0.554268	0.314340
	H335	H	0.271948	0.554840	0.294417
	O336	O	0.438355	0.484702	0.702156
	H337	H	0.446295	0.496776	0.716212
	H338	H	0.431830	0.494245	0.707370
	O339	O	0.376035	0.712172	0.488218
	H340	H	0.368974	0.725398	0.492082
	H341	H	0.384545	0.698186	0.500245
	O342	O	0.017425	0.855769	0.127677
	H343	H	0.020686	0.851783	0.126239
	H344	H	0.020736	0.851727	0.132883
	O345	O	0.448522	0.576217	0.735048
	H346	H	0.453927	0.574824	0.731374
	H347	H	0.453217	0.595025	0.732954
	O348	O	0.799591	0.101712	0.129568
	H349	H	0.794364	0.108923	0.133217
	H350	H	0.800041	0.093860	0.137311
	O351	O	0.270764	0.277210	0.742966
	H352	H	0.250795	0.256570	0.751764
	H353	H	0.260380	0.292874	0.746309
	O354	O	1.230185	-0.168592	1.200219
	H355	H	1.232120	-0.173225	1.201406
	H356	H	1.202813	-0.157587	1.186261
	O357	O	0.698344	0.326835	0.699066
	H358	H	0.688171	0.350229	0.680443
	H359	H	0.677543	0.343318	0.681147
	O360	O	0.706951	0.574876	0.721625
	H361	H	0.722591	0.573121	0.735088
	H362	H	0.700599	0.596896	0.714708
	O363	O	1.192432	0.135576	-0.110066
	H364	H	1.178427	0.116396	-0.097986
	H365	H	1.182500	0.118600	-0.112597
	O366	O	0.973376	-0.111271	0.892298
	H367	H	0.966238	-0.119769	0.906753
	H368	H	0.980064	-0.105264	0.886975
	O369	O	-0.158717	-0.179839	0.842026
	H370	H	-0.148195	-0.149702	0.846218
	H371	H	-0.149639	-0.178140	0.865822
	O372	O	-0.106895	1.005070	0.930429
	H373	H	-0.107098	1.018657	0.938395
	H374	H	-0.107378	1.009463	0.942386
	O375	O	1.211673	-0.003781	-0.197118
	H376	H	1.207572	-0.036201	-0.188649
	H377	H	1.226434	-0.016713	-0.212793
	O378	O	0.612772	0.352387	0.559092
	H379	H	0.604970	0.347849	0.569782
	H380	H	0.598751	0.347309	0.556125
	O381	O	0.031368	0.957887	-0.075929
	H382	H	0.014503	0.983538	-0.072629
	H383	H	0.029745	0.951477	-0.069130
	O384	O	0.710582	0.305503	0.410264
	H385	H	0.710175	0.288504	0.416374
	H386	H	0.704799	0.304053	0.416813
	O387	O	-0.049494	1.219471	0.827303
	H388	H	-0.059881	1.224190	0.825496
	H389	H	-0.041102	1.220440	0.828497
	O390	O	0.198641	1.209356	1.181956
	H391	H	0.200303	1.219788	1.152696
	H392	H	0.214083	1.201505	1.195352
	O393	O	0.938590	0.091784	0.151887
	H394	H	0.948029	0.084565	0.145027
	H395	H	0.952159	0.096308	0.146624
	O396	O	0.546377	0.451643	0.729083
	H397	H	0.539087	0.460185	0.728511
	H398	H	0.540419	0.461346	0.724392
	O399	O	0.649433	0.655529	0.250800
	H400	H	0.636699	0.647585	0.274819
	H401	H	0.667440	0.653125	0.260306
	O402	O	0.995417	0.185868	1.016689
	H403	H	0.989449	0.184650	1.013568
	H404	H	0.986673	0.178119	1.020556
	O405	O	0.632763	0.322182	0.316686
	H406	H	0.624913	0.329954	0.348496
	H407	H	0.611561	0.326646	0.316844
	O408	O	1.057148	1.027709	1.160870
	H409	H	1.058120	1.038198	1.151219
	H410	H	1.051743	1.047000	1.161303
	O411	O	0.837884	1.013423	-0.198555
	H412	H	0.833849	1.034549	-0.197902
	H413	H	0.814742	1.035524	-0.208805
	O414	O	0.029236	0.231145	0.213059
	H415	H	0.065099	0.226452	0.212138
	H416	H	0.026633	0.251677	0.233498
	O417	O	0.532288	0.731615	0.733494
	H418	H	0.540247	0.746835	0.747967
	H419	H	0.555132	0.738343	0.737094
	O420	O	0.707974	-0.345259	0.391425
	H421	H	0.701829	-0.369185	0.399663
	H422	H	0.698218	-0.341724	0.382406
	O423	O	1.198629	1.224463	0.020851
	H424	H	1.204004	1.203018	0.007510
	H425	H	1.212441	1.241287	0.028877
	O426	O	-0.129868	0.932584	0.089372
	H427	H	-0.129548	0.929748	0.094350
	H428	H	-0.116107	0.946518	0.092938
	O429	O	0.474627	0.297167	0.729355
	H430	H	0.451634	0.316462	0.727338
	H431	H	0.474506	0.276134	0.764034
	O432	O	0.311431	0.707652	0.650661
	H433	H	0.323592	0.697563	0.630459
	H434	H	0.317451	0.696505	0.636535
	O435	O	0.724648	0.482781	0.288832
	H436	H	0.740621	0.475643	0.270045
	H437	H	0.724328	0.459655	0.280237
	O438	O	0.281873	0.384899	0.477485
	H439	H	0.273425	0.389840	0.487555
	H440	H	0.285063	0.364741	0.487589
	O441	O	0.446364	0.538741	0.623223
	H442	H	0.457751	0.541232	0.625819
	H443	H	0.447526	0.527519	0.628961
	O444	O	0.483835	0.732652	0.292948
	H445	H	0.466162	0.733349	0.285208
	H446	H	0.469079	0.744026	0.283209
	O447	O	0.642658	0.528741	0.447736
	H448	H	0.625689	0.532239	0.435168
	H449	H	0.649178	0.531585	0.443840
	O450	O	1.140732	0.103928	0.000938
	H451	H	1.149619	0.095756	0.009643
	H452	H	1.128434	0.111960	-0.009077
	O453	O	0.313913	0.691696	0.367696
	H454	H	0.300748	0.703020	0.389361
	H455	H	0.338486	0.682043	0.377940
	O456	O	0.200811	0.874242	0.982702
	H457	H	0.219197	0.865028	0.966299
	H458	H	0.185549	0.877704	0.973279
	O459	O	0.417821	-0.616197	0.389701
	H460	H	0.429386	-0.600359	0.396727
	H461	H	0.425696	-0.608002	0.393707
	O462	O	0.452485	0.464791	0.278474
	H463	H	0.459540	0.490711	0.273895
	H464	H	0.436264	0.478125	0.273599
	O465	O	0.441833	0.572886	0.506547
	H466	H	0.443246	0.564493	0.497412
	H467	H	0.433437	0.576793	0.503012
	O468	O	-0.161712	0.964503	-0.086234
	H469	H	-0.166428	0.981459	-0.072791
	H470	H	-0.179535	0.963260	-0.087856
	O471	O	0.736797	0.499820	0.523894
	H472	H	0.736971	0.498485	0.521349
	H473	H	0.739277	0.502507	0.516457
	O474	O	0.690408	0.736193	0.256416
	H475	H	0.682712	0.766967	0.262088
	H476	H	0.706968	0.734830	0.241986
	O477	O	0.188196	-0.200385	0.993478
	H478	H	0.187439	-0.200787	0.967686
	H479	H	0.202451	-0.215190	0.987390
