data_Molecule from HDF5

_cell_length_a		16.288776
_cell_length_b		16.256635
_cell_length_c		16.252006
_cell_angle_alpha	89.977913
_cell_angle_beta	89.957236
_cell_angle_gamma	90.157950
_symmetry_space_group_name_H-M	'P 1'
_symmetry_Int_Tables_number		1

loop_
	_symmetry_equiv_pos_as_xyz
	x,y,z

loop_
	_atom_site_label
	_atom_site_type_symbol
	_atom_site_fract_x
	_atom_site_fract_y
	_atom_site_fract_z
	H0	H	0.402355	0.838275	0.710415
	H1	H	0.598868	0.167484	0.708516
	H2	H	0.597704	0.838021	0.283176
	H3	H	0.403399	0.166172	0.281818
	H4	H	0.714401	0.403537	0.831107
	H5	H	0.715409	0.600998	0.158860
	H6	H	0.287756	0.600275	0.829960
	H7	H	0.285015	0.403612	0.158883
	H8	H	0.836621	0.716283	0.395851
	H9	H	0.165180	0.716573	0.591642
	H10	H	0.836958	0.287651	0.591983
	H11	H	0.164214	0.288299	0.395042
	H12	H	0.836966	0.402963	0.708423
	H13	H	0.164223	0.601871	0.709225
	H14	H	0.836488	0.599227	0.281099
	H15	H	0.163670	0.404542	0.279011
	H16	H	0.402240	0.717608	0.831867
	H17	H	0.598660	0.715558	0.160386
	H18	H	0.598049	0.288063	0.830701
	H19	H	0.402566	0.288780	0.159978
	H20	H	0.714214	0.838744	0.398169
	H21	H	0.715615	0.166876	0.594289
	H22	H	0.285478	0.838399	0.595263
	H23	H	0.286630	0.166213	0.397275
	H24	H	0.900725	0.338453	0.208788
	H25	H	0.098831	0.665987	0.207516
	H26	H	0.097757	0.338048	0.780491
	H27	H	0.903718	0.666167	0.780238
	H28	H	0.215549	0.904538	0.332067
	H29	H	0.215083	0.101256	0.659681
	H30	H	0.787655	0.099556	0.331516
	H31	H	0.786298	0.903989	0.660015
	H32	H	0.336141	0.215526	0.898824
	H33	H	0.664789	0.216331	0.093281
	H34	H	0.336444	0.788165	0.095180
	H35	H	0.664016	0.788963	0.897557
	H36	H	0.336705	0.903903	0.210233
	H37	H	0.664640	0.099563	0.208671
	H38	H	0.336672	0.102147	0.780470
	H39	H	0.664176	0.904980	0.781132
	H40	H	0.904042	0.215019	0.330933
	H41	H	0.099735	0.217619	0.658968
	H42	H	0.099721	0.790366	0.330525
	H43	H	0.901639	0.786407	0.659043
	H44	H	0.213945	0.337814	0.895211
	H45	H	0.213204	0.666293	0.091164
	H46	H	0.785795	0.338143	0.091742
	H47	H	0.786081	0.666270	0.895457
	H48	H	0.411455	0.115418	0.581728
	H49	H	0.590946	0.885034	0.594281
	H50	H	0.594586	0.121815	0.395462
	H51	H	0.402933	0.882708	0.398704
	H52	H	0.591590	0.414854	0.110235
	H53	H	0.592396	0.605881	0.875886
	H54	H	0.408149	0.594644	0.111408
	H55	H	0.406235	0.415109	0.879843
	H56	H	0.120774	0.605404	0.397851
	H57	H	0.882262	0.596403	0.592791
	H58	H	0.115017	0.408259	0.580184
	H59	H	0.886091	0.407716	0.406672
	H60	H	0.116443	0.416226	0.590046
	H61	H	0.885466	0.598189	0.581341
	H62	H	0.114673	0.595713	0.408851
	H63	H	0.884372	0.412454	0.398343
	H64	H	0.405235	0.598149	0.112765
	H65	H	0.601010	0.589170	0.877953
	H66	H	0.588467	0.405533	0.111320
	H67	H	0.411873	0.404073	0.878974
	H68	H	0.590003	0.118110	0.404021
	H69	H	0.588969	0.889262	0.583943
	H70	H	0.400383	0.122266	0.587587
	H71	H	0.413944	0.887443	0.400844
	H72	H	0.909636	0.617508	0.086043
	H73	H	0.093200	0.386216	0.084410
	H74	H	0.085955	0.615258	0.904645
	H75	H	0.902479	0.387317	0.909753
	H76	H	0.098728	0.907426	0.614357
	H77	H	0.095438	0.100750	0.376605
	H78	H	0.913948	0.096190	0.611278
	H79	H	0.903410	0.909467	0.377274
	H80	H	0.616190	0.089798	0.896793
	H81	H	0.384101	0.090360	0.095332
	H82	H	0.617759	0.905298	0.086041
	H83	H	0.385119	0.916394	0.900480
	H84	H	0.615122	0.912511	0.087381
	H85	H	0.380621	0.102684	0.091429
	H86	H	0.620107	0.103722	0.898172
	H87	H	0.380855	0.905221	0.898087
	H88	H	0.904561	0.100938	0.615304
	H89	H	0.098632	0.092446	0.377638
	H90	H	0.091892	0.915245	0.610347
	H91	H	0.908588	0.911524	0.380550
	H92	H	0.101213	0.619498	0.905984
	H93	H	0.094568	0.383711	0.088837
	H94	H	0.903462	0.619648	0.086272
	H95	H	0.901653	0.381859	0.894844
	H96	H	0.411316	0.119560	0.594751
	H97	H	0.598873	0.885400	0.586448
	H98	H	0.600217	0.120513	0.404438
	H99	H	0.405794	0.887040	0.410076
	H100	H	0.598286	0.407887	0.114058
	H101	H	0.582709	0.591213	0.883962
	H102	H	0.403487	0.593359	0.112983
	H103	H	0.400095	0.405504	0.875674
	H104	H	0.117409	0.590186	0.393933
	H105	H	0.886900	0.588169	0.586615
	H106	H	0.120340	0.404548	0.591156
	H107	H	0.881600	0.403875	0.399034
	H108	H	0.907693	0.620915	0.090703
	H109	H	0.090064	0.385256	0.087694
	H110	H	0.093631	0.621647	0.892295
	H111	H	0.915334	0.388153	0.900186
	H112	H	0.087963	0.905100	0.612441
	H113	H	0.090445	0.094337	0.380409
	H114	H	0.904572	0.090119	0.612016
	H115	H	0.908587	0.905714	0.378099
	H116	H	0.615453	0.096770	0.910042
	H117	H	0.385987	0.094247	0.083474
	H118	H	0.618634	0.909078	0.093608
	H119	H	0.385538	0.908277	0.909250
	C120	C	0.378913	0.010721	0.617165
	C121	C	0.622039	0.994757	0.616915
	C122	C	0.622732	0.011320	0.373573
	C123	C	0.379184	0.994103	0.374646
	C124	C	0.621187	0.381288	0.003327
	C125	C	0.621215	0.624187	0.987562
	C126	C	0.377805	0.624122	0.003893
	C127	C	0.377882	0.380238	0.986785
	C128	C	0.009045	0.624436	0.372081
	C129	C	0.993006	0.623202	0.615174
	C130	C	0.009195	0.380742	0.615536
	C131	C	0.992022	0.380264	0.372501
	C132	C	0.878614	0.510988	0.115791
	C133	C	0.121158	0.493598	0.115269
	C134	C	0.122041	0.510434	0.872248
	C135	C	0.878039	0.493843	0.872610
	C136	C	0.121786	0.881250	0.503506
	C137	C	0.122999	0.124153	0.486982
	C138	C	0.879878	0.123594	0.504213
	C139	C	0.878092	0.879867	0.486924
	C140	C	0.508723	0.124447	0.873785
	C141	C	0.492292	0.123897	0.117296
	C142	C	0.508703	0.880706	0.117607
	C143	C	0.492020	0.881523	0.874265
	C144	C	0.381702	0.887315	0.672635
	C145	C	0.619730	0.118391	0.671202
	C146	C	0.618665	0.887213	0.320099
	C147	C	0.382282	0.117324	0.319575
	C148	C	0.676393	0.383352	0.879984
	C149	C	0.677238	0.621592	0.110169
	C150	C	0.324424	0.621008	0.879584
	C151	C	0.322630	0.382656	0.110154
	C152	C	0.885623	0.678851	0.375306
	C153	C	0.116308	0.678343	0.612389
	C154	C	0.885979	0.325110	0.613099
	C155	C	0.115370	0.326042	0.374752
	C156	C	0.885920	0.382710	0.670699
	C157	C	0.115714	0.621366	0.670781
	C158	C	0.885623	0.620458	0.318211
	C159	C	0.115249	0.384029	0.317393
	C160	C	0.381238	0.679510	0.880540
	C161	C	0.619103	0.678433	0.111027
	C162	C	0.618510	0.326049	0.879733
	C163	C	0.381112	0.325813	0.110640
	C164	C	0.676576	0.887647	0.377190
	C165	C	0.678012	0.117916	0.614707
	C166	C	0.323846	0.887139	0.615316
	C167	C	0.324517	0.117392	0.377054
	C168	C	0.880675	0.387246	0.170628
	C169	C	0.118802	0.617097	0.169835
	C170	C	0.118315	0.386803	0.818270
	C171	C	0.881747	0.617251	0.817618
	C172	C	0.177479	0.884094	0.380718
	C173	C	0.177368	0.121372	0.610661
	C174	C	0.825422	0.120394	0.380394
	C175	C	0.823868	0.883046	0.610898
	C176	C	0.384941	0.178160	0.877642
	C177	C	0.615750	0.178698	0.113813
	C178	C	0.385319	0.826147	0.115173
	C179	C	0.615257	0.826742	0.877066
	C180	C	0.385629	0.883233	0.172791
	C181	C	0.615762	0.120731	0.171351
	C182	C	0.385472	0.121943	0.818683
	C183	C	0.615412	0.884400	0.819442
	C184	C	0.883281	0.177608	0.380043
	C185	C	0.120232	0.179539	0.610198
	C186	C	0.119500	0.827450	0.379928
	C187	C	0.881382	0.824916	0.610440
	C188	C	0.176093	0.386878	0.875118
	C189	C	0.175802	0.617222	0.112055
	C190	C	0.823275	0.387208	0.112960
	C191	C	0.823718	0.617437	0.874931
	C192	C	0.401074	0.096678	0.594666
	C193	C	0.599680	0.908863	0.594708
	C194	C	0.601243	0.097847	0.394865
	C195	C	0.401172	0.907954	0.396680
	C196	C	0.599285	0.403142	0.089539
	C197	C	0.598552	0.602029	0.901481
	C198	C	0.399180	0.601943	0.089967
	C199	C	0.399594	0.401665	0.900535
	C200	C	0.095305	0.603206	0.393807
	C201	C	0.907099	0.600988	0.593191
	C202	C	0.095053	0.402954	0.593519
	C203	C	0.906064	0.401730	0.394564
	C204	C	0.900387	0.597021	0.094204
	C205	C	0.099089	0.407361	0.093419
	C206	C	0.100177	0.596570	0.894493
	C207	C	0.899812	0.407861	0.894986
	C208	C	0.099456	0.902844	0.590232
	C209	C	0.101266	0.102284	0.400358
	C210	C	0.901372	0.102104	0.590478
	C211	C	0.900175	0.902243	0.400916
	C212	C	0.594912	0.102893	0.895221
	C213	C	0.405926	0.102214	0.096326
	C214	C	0.594826	0.902417	0.095553
	C215	C	0.406248	0.903410	0.896050
	Zn216	Zn	0.500586	0.003313	0.745470
	Zn217	Zn	0.500570	0.002313	0.245923
	Zn218	Zn	0.749801	0.502642	-0.005231
	Zn219	Zn	0.249742	0.502019	-0.005954
	Zn220	Zn	0.000999	0.752514	0.494599
	Zn221	Zn	0.001317	0.252001	0.494655
	Zn222	Zn	0.000433	0.501958	0.744522
	Zn223	Zn	0.000252	0.502067	0.243797
	Zn224	Zn	0.499786	0.752613	-0.003977
	Zn225	Zn	0.500443	0.252480	-0.004585
	Zn226	Zn	0.750685	0.002938	0.495817
	Zn227	Zn	0.250177	0.002164	0.495975
	N228	N	0.415364	0.964936	0.673680
	N229	N	0.585745	0.040931	0.672845
	N230	N	0.585824	0.965175	0.317833
	N231	N	0.415523	0.039719	0.317986
	N232	N	0.678016	0.416962	0.957645
	N233	N	0.678614	0.588469	0.032240
	N234	N	0.322254	0.587213	0.957187
	N235	N	0.320459	0.415687	0.032226
	N236	N	0.963553	0.681590	0.408166
	N237	N	0.039017	0.679617	0.578630
	N238	N	0.963582	0.324043	0.579344
	N239	N	0.038068	0.323832	0.408600
	N240	N	0.963326	0.416496	0.672491
	N241	N	0.038023	0.587673	0.672442
	N242	N	0.963273	0.587475	0.316316
	N243	N	0.037518	0.416836	0.315811
	N244	N	0.413639	0.681735	0.958659
	N245	N	0.584755	0.679857	0.033660
	N246	N	0.584766	0.324823	0.957461
	N247	N	0.414638	0.323998	0.032930
	N248	N	0.679193	0.965728	0.409662
	N249	N	0.679603	0.039961	0.581627
	N250	N	0.321868	0.964843	0.581641
	N251	N	0.322388	0.039650	0.410443
	N252	N	0.914202	0.465110	0.172549
	N253	N	0.085380	0.539187	0.171801
	N254	N	0.085317	0.464610	0.816500
	N255	N	0.914557	0.539480	0.815831
	N256	N	0.178667	0.916984	0.458702
	N257	N	0.179195	0.087967	0.532876
	N258	N	0.823279	0.087511	0.458344
	N259	N	0.821539	0.916314	0.533042
	N260	N	0.462489	0.180115	0.910882
	N261	N	0.537795	0.180843	0.081049
	N262	N	0.462831	0.824422	0.081721
	N263	N	0.537457	0.824733	0.910487
	N264	N	0.463153	0.916997	0.174188
	N265	N	0.538134	0.087247	0.173423
	N266	N	0.463562	0.089393	0.816212
	N267	N	0.538072	0.917754	0.817414
	N268	N	0.916392	0.179679	0.457959
	N269	N	0.087367	0.181267	0.532256
	N270	N	0.085544	0.825680	0.457493
	N271	N	0.914218	0.822690	0.532437
	N272	N	0.178629	0.464919	0.907766
	N273	N	0.177193	0.539488	0.078663
	N274	N	0.821904	0.464964	0.079556
	N275	N	0.821310	0.539651	0.908353
	O276	O	-0.460962	0.537317	1.556609
	H277	H	-0.453419	0.536765	1.552770
	H278	H	-0.459855	0.521592	1.565186
	O279	O	0.487499	0.479511	0.610539
	H280	H	0.487905	0.490389	0.606504
	H281	H	0.485213	0.486349	0.622892
	O282	O	1.032928	-0.033240	0.056017
	H283	H	1.033261	-0.039981	0.056137
	H284	H	1.026474	-0.029886	0.055558
	O285	O	0.472727	0.491193	0.561239
	H286	H	0.471223	0.504102	0.570340
	H287	H	0.472182	0.490078	0.565935
	O288	O	0.524693	0.505976	0.566374
	H289	H	0.525861	0.509955	0.561876
	H290	H	0.522044	0.502744	0.561997
	O291	O	0.012447	0.989841	1.047327
	H292	H	0.017829	0.995585	1.050112
	H293	H	0.008879	0.990572	1.049732
	O294	O	0.501990	0.500172	0.590995
	H295	H	0.503832	0.486973	0.594408
	H296	H	0.496048	0.496296	0.590573
	O297	O	1.034208	-0.020572	0.058405
	H298	H	1.038654	-0.015778	0.061999
	H299	H	1.034553	-0.031025	0.062243
