data_Molecule from HDF5

_cell_length_a		16.413112
_cell_length_b		16.508584
_cell_length_c		16.516765
_cell_angle_alpha	90.009058
_cell_angle_beta	89.902804
_cell_angle_gamma	90.057830
_symmetry_space_group_name_H-M	'P 1'
_symmetry_Int_Tables_number		1

loop_
	_symmetry_equiv_pos_as_xyz
	x,y,z

loop_
	_atom_site_label
	_atom_site_type_symbol
	_atom_site_fract_x
	_atom_site_fract_y
	_atom_site_fract_z
	H0	H	0.395287	0.843183	0.715385
	H1	H	0.605946	0.158121	0.717050
	H2	H	0.603127	0.843583	0.272714
	H3	H	0.388378	0.156728	0.269448
	H4	H	0.719844	0.397963	0.838045
	H5	H	0.719539	0.606597	0.153841
	H6	H	0.275734	0.608070	0.840256
	H7	H	0.273166	0.390944	0.150532
	H8	H	0.841532	0.723505	0.387420
	H9	H	0.155614	0.723106	0.599845
	H10	H	0.840754	0.278849	0.601648
	H11	H	0.157831	0.278826	0.389312
	H12	H	0.841378	0.395200	0.718515
	H13	H	0.156696	0.606018	0.716207
	H14	H	0.841676	0.607407	0.273216
	H15	H	0.156153	0.393164	0.270987
	H16	H	0.390133	0.726656	0.841403
	H17	H	0.604774	0.724447	0.152738
	H18	H	0.605193	0.279603	0.838736
	H19	H	0.388675	0.274898	0.150499
	H20	H	0.718209	0.842272	0.390638
	H21	H	0.719232	0.158887	0.597811
	H22	H	0.277819	0.843534	0.598401
	H23	H	0.275493	0.157588	0.388424
	H24	H	0.894496	0.343896	0.215347
	H25	H	0.105161	0.658765	0.217764
	H26	H	0.106834	0.344880	0.771008
	H27	H	0.896597	0.660204	0.775630
	H28	H	0.221170	0.895117	0.337304
	H29	H	0.219580	0.105484	0.653791
	H30	H	0.779870	0.103481	0.336878
	H31	H	0.778615	0.897194	0.653632
	H32	H	0.340601	0.221703	0.890290
	H33	H	0.655846	0.220974	0.098758
	H34	H	0.340526	0.778359	0.101162
	H35	H	0.656835	0.780160	0.890002
	H36	H	0.341147	0.892653	0.219001
	H37	H	0.655606	0.105900	0.216198
	H38	H	0.338994	0.103345	0.776674
	H39	H	0.657639	0.897274	0.774800
	H40	H	0.894153	0.221585	0.338915
	H41	H	0.104813	0.223227	0.653060
	H42	H	0.104117	0.778324	0.337303
	H43	H	0.894509	0.780150	0.653286
	H44	H	0.220574	0.343928	0.890422
	H45	H	0.219063	0.659678	0.098521
	H46	H	0.780438	0.343438	0.095950
	H47	H	0.781468	0.661205	0.892908
	H48	H	0.407462	0.114762	0.584772
	H49	H	0.588931	0.887975	0.583049
	H50	H	0.589349	0.115498	0.399991
	H51	H	0.413814	0.891888	0.410030
	H52	H	0.586386	0.412434	0.107581
	H53	H	0.579306	0.595210	0.884900
	H54	H	0.411605	0.589027	0.107149
	H55	H	0.417377	0.418370	0.888299
	H56	H	0.114153	0.596555	0.406618
	H57	H	0.882938	0.590737	0.590657
	H58	H	0.111569	0.409812	0.581825
	H59	H	0.888276	0.408632	0.411080
	H60	H	0.110024	0.414499	0.582131
	H61	H	0.884495	0.593650	0.581345
	H62	H	0.107211	0.585914	0.416176
	H63	H	0.887951	0.415562	0.406315
	H64	H	0.411888	0.587133	0.107150
	H65	H	0.597046	0.600227	0.878407
	H66	H	0.588588	0.409676	0.108731
	H67	H	0.413292	0.403971	0.881308
	H68	H	0.583138	0.110521	0.405305
	H69	H	0.588798	0.887405	0.587147
	H70	H	0.409480	0.115715	0.588179
	H71	H	0.408575	0.888663	0.407719
	H72	H	0.914988	0.613016	0.084088
	H73	H	0.090508	0.388788	0.083519
	H74	H	0.082831	0.610340	0.910373
	H75	H	0.912235	0.387705	0.899076
	H76	H	0.093466	0.909733	0.609867
	H77	H	0.089283	0.096016	0.381020
	H78	H	0.905079	0.087459	0.608474
	H79	H	0.907385	0.912311	0.381911
	H80	H	0.611582	0.092624	0.909982
	H81	H	0.381237	0.091178	0.089787
	H82	H	0.610457	0.911275	0.080575
	H83	H	0.384445	0.914850	0.899056
	H84	H	0.608359	0.917401	0.081049
	H85	H	0.385432	0.093704	0.074944
	H86	H	0.611905	0.086556	0.902746
	H87	H	0.384191	0.905655	0.907489
	H88	H	0.912929	0.087081	0.606223
	H89	H	0.090783	0.083130	0.384778
	H90	H	0.085413	0.918657	0.604366
	H91	H	0.910715	0.909877	0.383153
	H92	H	0.094319	0.615092	0.907643
	H93	H	0.084063	0.388282	0.087823
	H94	H	0.906022	0.615950	0.082633
	H95	H	0.914556	0.392689	0.911545
	H96	H	0.411500	0.113317	0.585113
	H97	H	0.585300	0.888814	0.585246
	H98	H	0.591307	0.113416	0.409182
	H99	H	0.413619	0.889531	0.404050
	H100	H	0.589862	0.412990	0.108410
	H101	H	0.593591	0.581791	0.884334
	H102	H	0.413740	0.588049	0.106996
	H103	H	0.402533	0.415750	0.881292
	H104	H	0.111653	0.581887	0.401226
	H105	H	0.887139	0.584674	0.584020
	H106	H	0.112917	0.412511	0.586018
	H107	H	0.884577	0.408496	0.403237
	H108	H	0.909972	0.616080	0.091142
	H109	H	0.083930	0.391115	0.080824
	H110	H	0.085561	0.614638	0.899193
	H111	H	0.902563	0.387134	0.908392
	H112	H	0.081246	0.906510	0.606262
	H113	H	0.079198	0.089426	0.386715
	H114	H	0.910279	0.093948	0.609413
	H115	H	0.907606	0.908673	0.380905
	H116	H	0.615630	0.095393	0.901605
	H117	H	0.388659	0.080205	0.081941
	H118	H	0.611391	0.914618	0.085964
	H119	H	0.388085	0.916744	0.910844
	C120	C	0.377538	0.009927	0.616736
	C121	C	0.620259	0.992345	0.616843
	C122	C	0.619703	0.008825	0.372941
	C123	C	0.377407	0.992777	0.373669
	C124	C	0.620240	0.380057	0.004000
	C125	C	0.621198	0.624145	0.986883
	C126	C	0.378893	0.621463	0.004073
	C127	C	0.377008	0.379127	0.986701
	C128	C	0.007238	0.621175	0.374784
	C129	C	0.989651	0.622052	0.616596
	C130	C	0.007323	0.379773	0.616400
	C131	C	0.991078	0.378576	0.373933
	C132	C	0.877689	0.510658	0.117062
	C133	C	0.119998	0.493179	0.116760
	C134	C	0.120640	0.509775	0.873296
	C135	C	0.878222	0.493593	0.874212
	C136	C	0.119629	0.879237	0.502841
	C137	C	0.119916	0.122355	0.487681
	C138	C	0.877464	0.121554	0.503990
	C139	C	0.876646	0.878383	0.486387
	C140	C	0.508011	0.122820	0.873148
	C141	C	0.489091	0.121495	0.115485
	C142	C	0.506255	0.880540	0.115864
	C143	C	0.490198	0.879882	0.873753
	C144	C	0.375948	0.890668	0.675843
	C145	C	0.623393	0.110954	0.676496
	C146	C	0.621466	0.890362	0.313028
	C147	C	0.371998	0.110014	0.311045
	C148	C	0.680015	0.379134	0.885303
	C149	C	0.680382	0.625712	0.105929
	C150	C	0.316730	0.625585	0.886888
	C151	C	0.314250	0.374175	0.103947
	C152	C	0.888779	0.682326	0.370664
	C153	C	0.108623	0.682672	0.618643
	C154	C	0.888274	0.319094	0.619725
	C155	C	0.109896	0.318492	0.371077
	C156	C	0.888446	0.376766	0.677692
	C157	C	0.109056	0.624607	0.676168
	C158	C	0.888738	0.624757	0.313395
	C159	C	0.109220	0.375272	0.312054
	C160	C	0.373604	0.684555	0.887488
	C161	C	0.623137	0.684172	0.105385
	C162	C	0.622898	0.320272	0.885691
	C163	C	0.371733	0.316125	0.103654
	C164	C	0.678748	0.890001	0.371578
	C165	C	0.679941	0.111308	0.617270
	C166	C	0.317836	0.890644	0.617842
	C167	C	0.315522	0.110526	0.370185
	C168	C	0.876215	0.391373	0.175500
	C169	C	0.123465	0.611509	0.177513
	C170	C	0.123911	0.391622	0.812344
	C171	C	0.877619	0.612734	0.815225
	C172	C	0.180372	0.876956	0.384397
	C173	C	0.180043	0.124151	0.606210
	C174	C	0.818995	0.122606	0.384634
	C175	C	0.817821	0.877688	0.605992
	C176	C	0.387944	0.181521	0.871957
	C177	C	0.608322	0.181406	0.117581
	C178	C	0.387599	0.819062	0.118894
	C179	C	0.609427	0.820009	0.871615
	C180	C	0.387975	0.875630	0.177638
	C181	C	0.608222	0.123968	0.175668
	C182	C	0.387365	0.122897	0.815143
	C183	C	0.609649	0.878191	0.814356
	C184	C	0.875701	0.181534	0.385712
	C185	C	0.122909	0.182792	0.605899
	C186	C	0.122226	0.818933	0.384400
	C187	C	0.875447	0.819393	0.605693
	C188	C	0.180803	0.391299	0.871444
	C189	C	0.180213	0.611926	0.118421
	C190	C	0.819503	0.391020	0.116368
	C191	C	0.820501	0.613307	0.873786
	C192	C	0.402168	0.092755	0.592788
	C193	C	0.594919	0.909486	0.592349
	C194	C	0.594853	0.091716	0.397635
	C195	C	0.404317	0.911290	0.399985
	C196	C	0.595146	0.404505	0.086706
	C197	C	0.596859	0.599402	0.903950
	C198	C	0.405154	0.595390	0.085635
	C199	C	0.403608	0.405395	0.905058
	C200	C	0.089643	0.595484	0.400718
	C201	C	0.906463	0.596839	0.592227
	C202	C	0.089942	0.405181	0.590715
	C203	C	0.908440	0.403963	0.399626
	C204	C	0.903027	0.593533	0.092885
	C205	C	0.093874	0.410953	0.091342
	C206	C	0.094929	0.592055	0.898472
	C207	C	0.902824	0.410781	0.898851
	C208	C	0.094015	0.904533	0.585283
	C209	C	0.093860	0.096785	0.405545
	C210	C	0.902431	0.096754	0.586509
	C211	C	0.901443	0.902866	0.403679
	C212	C	0.591311	0.098545	0.897685
	C213	C	0.406509	0.095743	0.089752
	C214	C	0.588572	0.906957	0.089751
	C215	C	0.407168	0.905193	0.898824
	Zn216	Zn	0.499079	0.001241	0.745633
	Zn217	Zn	0.497728	0.000824	0.244535
	Zn218	Zn	0.749168	0.502445	-0.004721
	Zn219	Zn	0.249109	0.501006	-0.004196
	Zn220	Zn	-0.001569	0.749950	0.494857
	Zn221	Zn	-0.001297	0.250635	0.496223
	Zn222	Zn	-0.001358	0.500959	0.744845
	Zn223	Zn	-0.000826	0.501354	0.245979
	Zn224	Zn	0.498821	0.751813	-0.004264
	Zn225	Zn	0.498591	0.250981	-0.005091
	Zn226	Zn	0.748236	0.000465	0.494858
	Zn227	Zn	0.248590	0.000976	0.494870
	N228	N	0.412297	0.965628	0.675239
	N229	N	0.586841	0.036065	0.676211
	N230	N	0.585724	0.965572	0.313517
	N231	N	0.409633	0.035749	0.312951
	N232	N	0.678243	0.415888	0.959914
	N233	N	0.679314	0.589225	0.031110
	N234	N	0.319986	0.586838	0.960281
	N235	N	0.317143	0.412411	0.030152
	N236	N	0.963340	0.680237	0.408250
	N237	N	0.033435	0.681034	0.582225
	N238	N	0.963096	0.320899	0.582293
	N239	N	0.035205	0.320111	0.408520
	N240	N	0.963458	0.413688	0.675907
	N241	N	0.034101	0.587445	0.674753
	N242	N	0.963337	0.587079	0.316127
	N243	N	0.034133	0.411877	0.313558
	N244	N	0.411757	0.681796	0.961141
	N245	N	0.587284	0.683492	0.030213
	N246	N	0.586330	0.320830	0.960543
	N247	N	0.410109	0.319084	0.029743
	N248	N	0.677866	0.964762	0.408001
	N249	N	0.678059	0.036402	0.580930
	N250	N	0.318482	0.965843	0.581998
	N251	N	0.318799	0.036675	0.408410
	N252	N	0.911625	0.466940	0.176104
	N253	N	0.087080	0.536527	0.176848
	N254	N	0.087479	0.466468	0.813091
	N255	N	0.912738	0.537125	0.815243
	N256	N	0.178890	0.913726	0.459108
	N257	N	0.178282	0.087363	0.531587
	N258	N	0.819939	0.085989	0.459215
	N259	N	0.818186	0.913441	0.530772
	N260	N	0.463958	0.182046	0.906808
	N261	N	0.533114	0.180070	0.081092
	N262	N	0.462279	0.822050	0.081053
	N263	N	0.534048	0.820936	0.907924
	N264	N	0.462522	0.913256	0.175537
	N265	N	0.532998	0.087600	0.174652
	N266	N	0.463041	0.087354	0.815561
	N267	N	0.534478	0.914506	0.815460
	N268	N	0.911314	0.181054	0.460954
	N269	N	0.086497	0.181963	0.531095
	N270	N	0.085513	0.820085	0.459144
	N271	N	0.910834	0.819370	0.530245
	N272	N	0.178814	0.465671	0.908763
	N273	N	0.178436	0.537151	0.081805
	N274	N	0.820095	0.466226	0.081088
	N275	N	0.820480	0.538202	0.909481
	O276	O	0.404824	0.373817	0.328503
	H277	H	0.397473	0.387334	0.327929
	H278	H	0.408470	0.380577	0.329752
	O279	O	0.379224	0.599577	0.388775
	H280	H	0.411392	0.595390	0.390554
	H281	H	0.380056	0.575879	0.385860
	O282	O	0.472860	0.700379	0.303876
	H283	H	0.492919	0.691670	0.302065
	H284	H	0.489927	0.707919	0.313304
	O285	O	0.513826	0.532744	0.282039
	H286	H	0.528060	0.527617	0.287895
	H287	H	0.520934	0.527617	0.283895
	O288	O	-0.205454	0.016766	-0.138456
	H289	H	-0.206250	0.015167	-0.147862
	H290	H	-0.195804	0.032174	-0.134799
	O291	O	1.152750	0.819157	0.004029
	H292	H	1.156368	0.813155	-0.011890
	H293	H	1.139576	0.816155	0.002735
	O294	O	0.020115	0.811654	0.140407
	H295	H	0.029551	0.820503	0.137667
	H296	H	0.033235	0.816935	0.142904
	O297	O	0.497365	0.544821	0.438337
	H298	H	0.521533	0.540826	0.449249
	H299	H	0.470791	0.547169	0.450872
	O300	O	0.279815	0.526626	0.271527
	H301	H	0.270450	0.515974	0.260005
	H302	H	0.270515	0.545407	0.258479
	O303	O	0.480759	0.554637	0.482900
	H304	H	0.484923	0.543386	0.497466
	H305	H	0.481588	0.556990	0.490554
	O306	O	0.024801	1.212227	1.211275
	H307	H	0.056997	1.205894	1.198667
	H308	H	0.031090	1.236122	1.240611
	O309	O	0.654060	0.672974	0.571392
	H310	H	0.655885	0.650353	0.590520
	H311	H	0.654406	0.680806	0.583075
	O312	O	0.201644	1.022392	0.197386
	H313	H	0.205596	1.018626	0.204488
	H314	H	0.221818	1.010237	0.183708
	O315	O	0.009659	0.058102	0.971820
	H316	H	0.002989	0.061247	0.991806
	H317	H	0.029638	0.046719	0.957597
	O318	O	0.250995	0.817789	0.182352
	H319	H	0.247532	0.806062	0.189016
	H320	H	0.273987	0.826320	0.166488
	O321	O	0.287531	0.553836	0.554935
	H322	H	0.303289	0.551071	0.544118
	H323	H	0.282935	0.567264	0.532681
	O324	O	0.803935	0.203187	0.909104
	H325	H	0.810119	0.211653	0.926484
	H326	H	0.805906	0.176745	0.921485
	O327	O	1.146377	0.209856	0.976690
	H328	H	1.126057	0.209862	0.954539
	H329	H	1.156298	0.231233	0.971006
	O330	O	0.881589	-0.197544	0.193206
	H331	H	0.887685	-0.216610	0.200193
	H332	H	0.887286	-0.210385	0.171661
	O333	O	0.920791	0.939218	0.925970
	H334	H	0.912094	0.938554	0.940324
	H335	H	0.905514	0.947726	0.934688
	O336	O	1.090317	-0.196188	0.799909
	H337	H	1.067083	-0.208361	0.800661
	H338	H	1.097658	-0.196795	0.788542
	O339	O	0.311101	0.310451	0.688606
	H340	H	0.312901	0.351823	0.696824
	H341	H	0.309495	0.313429	0.652390
	O342	O	0.700493	0.365550	0.455784
	H343	H	0.724269	0.344379	0.444909
	H344	H	0.678631	0.365194	0.448407
	O345	O	0.356269	0.696280	0.632953
	H346	H	0.357179	0.695877	0.624180
	H347	H	0.374079	0.685063	0.623899
	O348	O	1.196465	0.061078	0.871575
	H349	H	1.214258	0.069583	0.851364
	H350	H	1.201143	0.039666	0.884467
	O351	O	0.949950	0.931026	-0.116807
	H352	H	0.948710	0.937300	-0.118642
	H353	H	0.937676	0.947095	-0.119172
	O354	O	0.538688	0.592599	0.600664
	H355	H	0.530947	0.599843	0.609478
	H356	H	0.548251	0.572861	0.603661
	O357	O	0.866803	1.236133	1.133319
	H358	H	0.880330	1.249838	1.144297
	H359	H	0.865046	1.232068	1.142050
	O360	O	0.470868	0.280186	0.713490
	H361	H	0.443918	0.278666	0.714736
	H362	H	0.470983	0.263767	0.729759
	O363	O	0.734117	0.310993	0.251449
	H364	H	0.731617	0.303091	0.247535
	H365	H	0.752952	0.305763	0.256665
	O366	O	1.055584	0.175396	0.898826
	H367	H	1.040523	0.173788	0.890208
	H368	H	1.051238	0.161512	0.888776
	O369	O	0.608198	0.603700	0.474267
	H370	H	0.611755	0.599539	0.452801
	H371	H	0.615657	0.621709	0.482128
	O372	O	0.709721	0.366779	0.506616
	H373	H	0.723477	0.352184	0.499629
	H374	H	0.709830	0.375381	0.501405
	O375	O	0.033269	1.146869	0.796157
	H376	H	0.018217	1.123730	0.797976
	H377	H	0.029298	1.159752	0.775140
	O378	O	0.605251	0.413952	0.537749
	H379	H	0.604726	0.418720	0.545247
	H380	H	0.603378	0.411216	0.537045
	O381	O	1.086245	-0.057777	0.116392
	H382	H	1.094358	-0.063150	0.116599
	H383	H	1.077732	-0.066340	0.103895
	O384	O	0.167512	0.083265	0.882804
	H385	H	0.189522	0.083301	0.873901
	H386	H	0.162572	0.086236	0.876513
	O387	O	0.003186	0.962003	0.809736
	H388	H	0.011287	0.962380	0.808534
	H389	H	0.019894	0.972388	0.808856
	O390	O	0.200472	-0.096606	0.871114
	H391	H	0.207909	-0.101966	0.856332
	H392	H	0.200572	-0.110767	0.868168
	O393	O	0.799456	0.806356	0.004530
	H394	H	0.796724	0.822283	0.012960
	H395	H	0.771941	0.799293	0.008070
	O396	O	0.710798	0.505591	0.306524
	H397	H	0.718146	0.486081	0.299502
	H398	H	0.714643	0.488784	0.304884
	O399	O	0.611654	0.653605	0.364508
	H400	H	0.600991	0.643435	0.379130
	H401	H	0.618540	0.644681	0.369267
	O402	O	-0.030936	0.027863	1.195813
	H403	H	-0.033631	0.028162	1.198255
	H404	H	-0.029579	0.030861	1.206825
	O405	O	-0.192614	-0.103721	-0.122201
	H406	H	-0.183459	-0.089068	-0.137757
	H407	H	-0.183848	-0.092054	-0.095518
	O408	O	0.641791	0.720716	0.605858
	H409	H	0.621100	0.708663	0.626880
	H410	H	0.661081	0.755731	0.620414
	O411	O	0.286082	0.714006	0.475231
	H412	H	0.266845	0.743142	0.464999
	H413	H	0.301383	0.702289	0.458783
	O414	O	0.348123	0.436833	0.376302
	H415	H	0.338445	0.448500	0.351375
	H416	H	0.353653	0.438618	0.384017
	O417	O	0.618711	0.312882	0.597367
	H418	H	0.606256	0.311625	0.599616
	H419	H	0.620146	0.316501	0.596337
	O420	O	0.520393	0.286526	0.282184
	H421	H	0.517858	0.279804	0.262651
	H422	H	0.517074	0.285992	0.286590
	O423	O	-0.142448	1.074661	0.057695
	H424	H	-0.137979	1.079622	0.064161
	H425	H	-0.132882	1.061606	0.059211
	O426	O	0.801571	1.140810	0.790319
	H427	H	0.795925	1.143894	0.804319
	H428	H	0.789558	1.124151	0.797739
	O429	O	0.459856	0.594577	0.713484
	H430	H	0.457356	0.588238	0.698046
	H431	H	0.466215	0.567812	0.724031
	O432	O	0.282728	0.284520	0.523243
	H433	H	0.259905	0.259475	0.528122
	H434	H	0.291431	0.290340	0.511653
	O435	O	0.187547	0.187999	0.187501
	H436	H	0.199610	0.156296	0.186226
	H437	H	0.182187	0.188860	0.152986
	O438	O	1.013469	-0.024274	0.142342
	H439	H	1.030693	-0.014969	0.143349
	H440	H	1.022186	-0.011005	0.157842
	O441	O	0.474695	0.310551	0.503027
	H442	H	0.476720	0.297379	0.486194
	H443	H	0.475800	0.329655	0.503240
	O444	O	0.234094	0.763322	0.783042
	H445	H	0.232474	0.759362	0.769803
	H446	H	0.229729	0.765504	0.792655
	O447	O	0.482257	0.375999	0.443216
	H448	H	0.474335	0.347801	0.439106
	H449	H	0.488144	0.375058	0.437822
	O450	O	0.528175	0.459358	0.716933
	H451	H	0.539860	0.446745	0.718697
	H452	H	0.527623	0.437896	0.720141
	O453	O	0.780829	0.725978	0.777669
	H454	H	0.768613	0.737760	0.782664
	H455	H	0.753758	0.719248	0.787548
	O456	O	0.791998	-0.098453	0.173776
	H457	H	0.787833	-0.094823	0.203956
	H458	H	0.789077	-0.125292	0.168240
	O459	O	0.706028	0.532314	0.704984
	H460	H	0.716355	0.524595	0.701105
	H461	H	0.710990	0.532574	0.712635
	O462	O	0.291190	0.473344	0.705958
	H463	H	0.282290	0.484375	0.716910
	H464	H	0.275033	0.493709	0.684229
	O465	O	0.827363	0.021375	0.132130
	H466	H	0.831461	0.026809	0.138600
	H467	H	0.836279	0.027037	0.137463
