data_Molecule from HDF5

_cell_length_a		16.079951
_cell_length_b		16.213287
_cell_length_c		16.344448
_cell_angle_alpha	89.609963
_cell_angle_beta	89.933459
_cell_angle_gamma	89.572912
_symmetry_space_group_name_H-M	'P 1'
_symmetry_Int_Tables_number		1

loop_
	_symmetry_equiv_pos_as_xyz
	x,y,z

loop_
	_atom_site_label
	_atom_site_type_symbol
	_atom_site_fract_x
	_atom_site_fract_y
	_atom_site_fract_z
	H0	H	0.402647	0.842717	0.715998
	H1	H	0.603606	0.169411	0.710046
	H2	H	0.606196	0.841195	0.281759
	H3	H	0.400312	0.167386	0.279335
	H4	H	0.720701	0.407736	0.833803
	H5	H	0.715212	0.598536	0.162981
	H6	H	0.287738	0.607636	0.835222
	H7	H	0.292941	0.408354	0.162283
	H8	H	0.838880	0.718680	0.401035
	H9	H	0.169619	0.714505	0.596306
	H10	H	0.837620	0.291125	0.597524
	H11	H	0.169427	0.289748	0.401607
	H12	H	0.839348	0.404627	0.715007
	H13	H	0.169678	0.601187	0.711340
	H14	H	0.839729	0.607108	0.284322
	H15	H	0.169298	0.402914	0.284601
	H16	H	0.404042	0.722805	0.834179
	H17	H	0.603823	0.720011	0.159949
	H18	H	0.604376	0.291911	0.832936
	H19	H	0.404236	0.287276	0.159375
	H20	H	0.719158	0.839583	0.400354
	H21	H	0.714727	0.170178	0.590445
	H22	H	0.295584	0.838278	0.594230
	H23	H	0.289191	0.168421	0.398886
	H24	H	0.904823	0.340935	0.215950
	H25	H	0.103209	0.668730	0.213675
	H26	H	0.108085	0.341012	0.783761
	H27	H	0.900591	0.667551	0.781091
	H28	H	0.218895	0.903791	0.333737
	H29	H	0.216074	0.096989	0.661004
	H30	H	0.790932	0.103384	0.333417
	H31	H	0.789405	0.905558	0.661145
	H32	H	0.339127	0.221980	0.897832
	H33	H	0.671354	0.213743	0.091145
	H34	H	0.339356	0.792334	0.095190
	H35	H	0.670466	0.792785	0.899232
	H36	H	0.339960	0.904311	0.212415
	H37	H	0.669837	0.103109	0.210113
	H38	H	0.338260	0.108889	0.781859
	H39	H	0.668901	0.906565	0.782347
	H40	H	0.902790	0.223001	0.335530
	H41	H	0.102775	0.216585	0.660387
	H42	H	0.103860	0.787389	0.334928
	H43	H	0.905179	0.789080	0.660873
	H44	H	0.219549	0.340408	0.904268
	H45	H	0.215298	0.671136	0.094415
	H46	H	0.795221	0.338841	0.094577
	H47	H	0.791505	0.669629	0.901745
	H48	H	0.405851	0.124273	0.591442
	H49	H	0.594804	0.888514	0.588667
	H50	H	0.595208	0.123195	0.396638
	H51	H	0.416387	0.885161	0.393946
	H52	H	0.602172	0.412920	0.112578
	H53	H	0.586022	0.603790	0.883858
	H54	H	0.401019	0.604915	0.118329
	H55	H	0.413775	0.411108	0.880416
	H56	H	0.122477	0.598268	0.410928
	H57	H	0.882073	0.600308	0.598613
	H58	H	0.123138	0.412867	0.599287
	H59	H	0.884616	0.422537	0.393767
	H60	H	0.124143	0.401668	0.591710
	H61	H	0.886045	0.601228	0.585786
	H62	H	0.121039	0.588929	0.404257
	H63	H	0.881458	0.399758	0.406340
	H64	H	0.411583	0.587440	0.110213
	H65	H	0.607152	0.609027	0.876280
	H66	H	0.593138	0.407160	0.112625
	H67	H	0.409050	0.416090	0.881519
	H68	H	0.592524	0.120029	0.403884
	H69	H	0.597849	0.887305	0.591810
	H70	H	0.413646	0.122128	0.591594
	H71	H	0.420304	0.890070	0.409286
	H72	H	0.902930	0.623032	0.088284
	H73	H	0.102413	0.388667	0.089561
	H74	H	0.090024	0.619227	0.909302
	H75	H	0.909603	0.386435	0.910265
	H76	H	0.097693	0.906871	0.613793
	H77	H	0.093872	0.096927	0.382384
	H78	H	0.924142	0.096182	0.610052
	H79	H	0.912728	0.915007	0.383462
	H80	H	0.622793	0.097946	0.901050
	H81	H	0.385420	0.096062	0.094141
	H82	H	0.625010	0.903420	0.084758
	H83	H	0.385029	0.913499	0.904339
	H84	H	0.619325	0.919752	0.086467
	H85	H	0.385142	0.103025	0.087458
	H86	H	0.622486	0.098199	0.902338
	H87	H	0.386035	0.914761	0.906360
	H88	H	0.903953	0.110220	0.619662
	H89	H	0.095908	0.099631	0.380312
	H90	H	0.100015	0.907414	0.614706
	H91	H	0.916904	0.908235	0.382202
	H92	H	0.101100	0.623426	0.905146
	H93	H	0.099681	0.385698	0.098164
	H94	H	0.909221	0.625006	0.102109
	H95	H	0.913326	0.384859	0.899849
	H96	H	0.409503	0.121090	0.584468
	H97	H	0.594075	0.888531	0.593377
	H98	H	0.600540	0.122494	0.403073
	H99	H	0.404264	0.884488	0.405805
	H100	H	0.602956	0.403057	0.115870
	H101	H	0.602416	0.587518	0.883053
	H102	H	0.422357	0.605830	0.113052
	H103	H	0.416283	0.416774	0.883477
	H104	H	0.125482	0.598312	0.400259
	H105	H	0.887538	0.588787	0.591827
	H106	H	0.119042	0.413546	0.585827
	H107	H	0.892042	0.420133	0.419377
	H108	H	0.917343	0.619210	0.090798
	H109	H	0.093664	0.390077	0.092082
	H110	H	0.090875	0.622941	0.897126
	H111	H	0.920105	0.389865	0.907900
	H112	H	0.099230	0.909222	0.613659
	H113	H	0.097814	0.096287	0.380066
	H114	H	0.899776	0.085056	0.613584
	H115	H	0.908355	0.908857	0.378771
	H116	H	0.622116	0.096762	0.901658
	H117	H	0.388388	0.093383	0.084987
	H118	H	0.626453	0.911712	0.100013
	H119	H	0.385751	0.916711	0.903582
	C120	C	0.382374	0.013478	0.618355
	C121	C	0.624212	0.996866	0.617955
	C122	C	0.626444	0.013455	0.373658
	C123	C	0.382880	0.995194	0.374363
	C124	C	0.627949	0.381333	0.005516
	C125	C	0.626360	0.626588	0.989245
	C126	C	0.382442	0.628772	0.006208
	C127	C	0.383875	0.384686	0.989412
	C128	C	0.013267	0.625193	0.377259
	C129	C	0.995003	0.624657	0.619735
	C130	C	0.012748	0.381212	0.621317
	C131	C	0.995272	0.383870	0.377864
	C132	C	0.882308	0.513597	0.121733
	C133	C	0.126376	0.496816	0.120978
	C134	C	0.125864	0.513704	0.876365
	C135	C	0.884067	0.496005	0.877226
	C136	C	0.127462	0.879712	0.506346
	C137	C	0.124910	0.124494	0.488766
	C138	C	0.881445	0.126676	0.506064
	C139	C	0.883004	0.882042	0.489381
	C140	C	0.512990	0.127927	0.873492
	C141	C	0.495915	0.125385	0.116876
	C142	C	0.513816	0.883451	0.118565
	C143	C	0.495221	0.885477	0.875883
	C144	C	0.384038	0.890899	0.676072
	C145	C	0.622592	0.120648	0.671825
	C146	C	0.625760	0.889783	0.319677
	C147	C	0.382488	0.118662	0.318307
	C148	C	0.683143	0.386382	0.882616
	C149	C	0.679037	0.620977	0.113211
	C150	C	0.325805	0.627629	0.883677
	C151	C	0.329514	0.386984	0.112690
	C152	C	0.888635	0.681117	0.380160
	C153	C	0.120042	0.678160	0.616684
	C154	C	0.887843	0.327581	0.618382
	C155	C	0.119970	0.327374	0.380406
	C156	C	0.888536	0.384026	0.676802
	C157	C	0.119967	0.621836	0.674120
	C158	C	0.888908	0.625394	0.322261
	C159	C	0.119843	0.383777	0.322432
	C160	C	0.383564	0.684988	0.883213
	C161	C	0.623929	0.681493	0.111824
	C162	C	0.625239	0.328789	0.881995
	C163	C	0.385128	0.327058	0.111273
	C164	C	0.681739	0.889201	0.378671
	C165	C	0.678449	0.120768	0.612750
	C166	C	0.330681	0.888576	0.615397
	C167	C	0.326656	0.119010	0.377541
	C168	C	0.884922	0.389774	0.177229
	C169	C	0.123230	0.620276	0.175329
	C170	C	0.126241	0.389885	0.822371
	C171	C	0.882922	0.618953	0.820330
	C172	C	0.181727	0.883005	0.382923
	C173	C	0.179378	0.119389	0.611832
	C174	C	0.827424	0.124608	0.382876
	C175	C	0.827541	0.884989	0.612339
	C176	C	0.388341	0.183924	0.877127
	C177	C	0.621320	0.177925	0.112713
	C178	C	0.388882	0.829678	0.115593
	C179	C	0.620599	0.830246	0.878608
	C180	C	0.389304	0.885211	0.174072
	C181	C	0.620606	0.122732	0.171766
	C182	C	0.388184	0.127861	0.819084
	C183	C	0.619675	0.886947	0.820606
	C184	C	0.883127	0.183909	0.383813
	C185	C	0.123057	0.178893	0.611629
	C186	C	0.124428	0.825110	0.383487
	C187	C	0.884903	0.826807	0.612159
	C188	C	0.181903	0.389612	0.881938
	C189	C	0.179326	0.621255	0.116292
	C190	C	0.830408	0.388586	0.117096
	C191	C	0.828587	0.620115	0.880316
	C192	C	0.403317	0.100023	0.595755
	C193	C	0.602086	0.910464	0.597520
	C194	C	0.603047	0.099425	0.394806
	C195	C	0.406700	0.908845	0.396543
	C196	C	0.605922	0.401651	0.091584
	C197	C	0.604788	0.606229	0.903180
	C198	C	0.405054	0.606204	0.091600
	C199	C	0.406432	0.407858	0.903901
	C200	C	0.100405	0.601929	0.398901
	C201	C	0.907884	0.602960	0.598525
	C202	C	0.099625	0.402907	0.599013
	C203	C	0.908574	0.407270	0.399970
	C204	C	0.903546	0.600037	0.100174
	C205	C	0.104896	0.410574	0.099713
	C206	C	0.101330	0.599553	0.897554
	C207	C	0.907507	0.409475	0.899539
	C208	C	0.105474	0.901291	0.591914
	C209	C	0.102415	0.103698	0.403090
	C210	C	0.903043	0.103881	0.592303
	C211	C	0.905679	0.904206	0.403666
	C212	C	0.600171	0.104451	0.895273
	C213	C	0.408667	0.103730	0.095235
	C214	C	0.601033	0.905116	0.096807
	C215	C	0.408059	0.908315	0.898330
	Zn216	Zn	0.503182	0.006479	0.747161
	Zn217	Zn	0.504500	0.004649	0.245660
	Zn218	Zn	0.756045	0.504396	-0.001451
	Zn219	Zn	0.254414	0.506358	-0.001569
	Zn220	Zn	0.004756	0.752124	0.498605
	Zn221	Zn	0.003464	0.254763	0.498074
	Zn222	Zn	0.004245	0.504404	0.747743
	Zn223	Zn	0.004320	0.504706	0.249767
	Zn224	Zn	0.504643	0.756966	-0.003483
	Zn225	Zn	0.504800	0.253903	-0.004136
	Zn226	Zn	0.753598	0.004346	0.496976
	Zn227	Zn	0.254918	0.002898	0.496698
	N228	N	0.415280	0.969616	0.678102
	N229	N	0.589693	0.042561	0.675277
	N230	N	0.591833	0.967883	0.316650
	N231	N	0.416510	0.040461	0.316114
	N232	N	0.684930	0.418261	0.960486
	N233	N	0.680758	0.587668	0.036081
	N234	N	0.325059	0.593371	0.960935
	N235	N	0.328796	0.422297	0.035968
	N236	N	0.966918	0.681027	0.413816
	N237	N	0.041317	0.680196	0.583545
	N238	N	0.966219	0.325737	0.584453
	N239	N	0.041644	0.327490	0.414368
	N240	N	0.967255	0.416439	0.679028
	N241	N	0.041315	0.589338	0.676139
	N242	N	0.967722	0.591518	0.320127
	N243	N	0.041233	0.418019	0.320546
	N244	N	0.417877	0.686124	0.960364
	N245	N	0.591664	0.685048	0.033729
	N246	N	0.591645	0.325535	0.959307
	N247	N	0.418154	0.325557	0.033533
	N248	N	0.682421	0.967017	0.411587
	N249	N	0.679664	0.042801	0.579915
	N250	N	0.329318	0.965996	0.580090
	N251	N	0.326831	0.041278	0.411725
	N252	N	0.916570	0.468371	0.180142
	N253	N	0.091308	0.541847	0.178629
	N254	N	0.092250	0.468076	0.818497
	N255	N	0.916684	0.540662	0.818241
	N256	N	0.183781	0.916261	0.460144
	N257	N	0.180704	0.086449	0.534518
	N258	N	0.826430	0.089720	0.459727
	N259	N	0.826192	0.918677	0.534850
	N260	N	0.466976	0.184026	0.910212
	N261	N	0.542756	0.179870	0.079313
	N262	N	0.467268	0.828080	0.082179
	N263	N	0.542034	0.829210	0.912273
	N264	N	0.468142	0.917930	0.176179
	N265	N	0.541479	0.091048	0.174534
	N266	N	0.466747	0.093546	0.817049
	N267	N	0.540764	0.920405	0.818882
	N268	N	0.915822	0.185523	0.461736
	N269	N	0.089827	0.182025	0.534162
	N270	N	0.091511	0.822873	0.461176
	N271	N	0.918587	0.824800	0.534788
	N272	N	0.181936	0.467508	0.914700
	N273	N	0.181310	0.543485	0.083094
	N274	N	0.828507	0.466485	0.083201
	N275	N	0.829240	0.542586	0.915004
	O276	O	-0.020325	0.075211	-0.073577
	H277	H	-0.020643	0.078509	-0.076018
	H278	H	-0.021102	0.077498	-0.085453
	O279	O	0.520053	0.479188	0.486126
	H280	H	0.519335	0.470282	0.484728
	H281	H	0.513513	0.479768	0.482656
	O282	O	0.541347	0.407669	0.457418
	H283	H	0.537876	0.419402	0.446552
	H284	H	0.549715	0.397288	0.467161
	O285	O	0.959855	-0.003661	0.977500
	H286	H	0.958205	-0.010712	0.969776
	H287	H	0.950647	-0.014783	0.984470
	O288	O	1.075786	-0.014072	-0.027981
	H289	H	1.069509	-0.015753	-0.021063
	H290	H	1.066606	-0.003135	-0.024622
	O291	O	0.496751	0.438057	0.469985
	H292	H	0.499740	0.434361	0.452253
	H293	H	0.502798	0.430302	0.464290
	O294	O	1.003184	0.053874	0.990348
	H295	H	0.993262	0.052642	0.979422
	H296	H	0.998143	0.051150	0.996572
	O297	O	-0.039134	-0.092914	0.026135
	H298	H	-0.038058	-0.094651	0.025041
	H299	H	-0.035406	-0.101486	0.026915
	O300	O	0.484136	0.485872	0.456972
	H301	H	0.494579	0.483978	0.469294
	H302	H	0.482440	0.490035	0.452983
	O303	O	0.405218	0.549307	0.478102
	H304	H	0.403106	0.547291	0.482892
	H305	H	0.412071	0.558242	0.484880
	O306	O	1.030680	-0.014767	0.037650
	H307	H	1.040466	-0.012937	0.036299
	H308	H	1.036291	-0.007081	0.039524
	O309	O	-0.001803	0.038321	1.035965
	H310	H	0.005666	0.037025	1.033208
	H311	H	0.009339	0.044225	1.038390
	O312	O	1.025968	1.067191	1.026563
	H313	H	1.028922	1.071919	1.026598
	H314	H	1.016770	1.062317	1.027132
	O315	O	0.506197	0.516045	0.558127
	H316	H	0.511900	0.516384	0.567571
	H317	H	0.504729	0.511231	0.551911
	O318	O	0.599493	0.464983	0.446708
	H319	H	0.600236	0.467787	0.450958
	H320	H	0.595541	0.464046	0.446815
	O321	O	0.105275	0.928489	0.984810
	H322	H	0.102401	0.943499	0.975909
	H323	H	0.115333	0.930633	0.991749
	O324	O	0.502176	0.549254	0.550422
	H325	H	0.491685	0.559074	0.551117
	H326	H	0.497569	0.543566	0.549782
	O327	O	0.551453	0.553675	0.538314
	H328	H	0.550370	0.559416	0.541589
	H329	H	0.562521	0.547401	0.538810
	O330	O	0.425745	0.509603	0.483099
	H331	H	0.432240	0.524469	0.479611
	H332	H	0.412606	0.501126	0.483580
	O333	O	0.531327	0.512403	0.508635
	H334	H	0.542565	0.513541	0.498885
	H335	H	0.525926	0.509775	0.506242
	O336	O	0.514929	0.566643	0.466718
	H337	H	0.518101	0.569657	0.456290
	H338	H	0.508691	0.566136	0.465774
	O339	O	1.013102	1.020697	0.070636
	H340	H	1.013744	1.019745	0.071826
	H341	H	1.008534	1.018545	0.076701
	O342	O	0.530832	0.417959	0.503307
	H343	H	0.527530	0.417176	0.500362
	H344	H	0.542478	0.419250	0.492746
	O345	O	0.517878	0.562948	0.485068
	H346	H	0.505571	0.570878	0.491661
	H347	H	0.520989	0.562215	0.486447
	O348	O	0.019267	0.045370	-0.055293
	H349	H	0.014902	0.051370	-0.052467
	H350	H	0.022504	0.042397	-0.055080
	O351	O	0.013795	1.032227	0.937504
	H352	H	0.015871	1.034002	0.946317
	H353	H	0.006554	1.039135	0.937267
	O354	O	0.441526	0.560826	0.482850
	H355	H	0.438576	0.554621	0.486296
	H356	H	0.436498	0.563862	0.478402
	O357	O	-0.062719	0.908878	1.020565
	H358	H	-0.056063	0.914396	1.004841
	H359	H	-0.063561	0.896592	1.018089
