data_Molecule from HDF5

_cell_length_a		16.324340
_cell_length_b		16.233325
_cell_length_c		16.230305
_cell_angle_alpha	89.751493
_cell_angle_beta	89.814328
_cell_angle_gamma	90.217707
_symmetry_space_group_name_H-M	'P 1'
_symmetry_Int_Tables_number		1

loop_
	_symmetry_equiv_pos_as_xyz
	x,y,z

loop_
	_atom_site_label
	_atom_site_type_symbol
	_atom_site_fract_x
	_atom_site_fract_y
	_atom_site_fract_z
	H0	H	0.406207	0.839961	0.710558
	H1	H	0.602607	0.169391	0.707019
	H2	H	0.601723	0.839979	0.283391
	H3	H	0.407882	0.168959	0.283058
	H4	H	0.719347	0.407310	0.832623
	H5	H	0.718491	0.604234	0.159659
	H6	H	0.291408	0.604840	0.831599
	H7	H	0.289019	0.405773	0.160624
	H8	H	0.840738	0.718766	0.398823
	H9	H	0.166749	0.720680	0.593327
	H10	H	0.839847	0.290009	0.595678
	H11	H	0.167676	0.291233	0.397152
	H12	H	0.840787	0.405069	0.712775
	H13	H	0.168027	0.603127	0.708758
	H14	H	0.840243	0.603612	0.281703
	H15	H	0.167810	0.408435	0.282222
	H16	H	0.408146	0.719619	0.831904
	H17	H	0.601459	0.718617	0.160401
	H18	H	0.602063	0.293446	0.831272
	H19	H	0.405001	0.290043	0.160085
	H20	H	0.719704	0.840904	0.396611
	H21	H	0.719397	0.168156	0.592149
	H22	H	0.287181	0.840713	0.597847
	H23	H	0.289488	0.167605	0.396384
	H24	H	0.904457	0.340742	0.210999
	H25	H	0.101598	0.670060	0.207565
	H26	H	0.101282	0.340653	0.783350
	H27	H	0.907186	0.668586	0.781214
	H28	H	0.218902	0.906548	0.331792
	H29	H	0.219952	0.104081	0.659865
	H30	H	0.792776	0.102712	0.331351
	H31	H	0.789458	0.905239	0.660051
	H32	H	0.339680	0.219017	0.897931
	H33	H	0.667216	0.219700	0.091565
	H34	H	0.341109	0.790045	0.095174
	H35	H	0.667743	0.792171	0.896998
	H36	H	0.340914	0.904702	0.211992
	H37	H	0.667933	0.103573	0.208452
	H38	H	0.340668	0.104173	0.779987
	H39	H	0.668109	0.909070	0.781367
	H40	H	0.908871	0.218284	0.332126
	H41	H	0.102216	0.217858	0.661094
	H42	H	0.102877	0.791538	0.331697
	H43	H	0.905523	0.790303	0.660557
	H44	H	0.218987	0.341620	0.896793
	H45	H	0.218523	0.669265	0.093476
	H46	H	0.786989	0.342359	0.097499
	H47	H	0.790259	0.668684	0.895595
	H48	H	0.411785	0.121969	0.590871
	H49	H	0.596804	0.884238	0.598640
	H50	H	0.593824	0.120089	0.402499
	H51	H	0.411567	0.885691	0.399548
	H52	H	0.610042	0.414437	0.116480
	H53	H	0.603980	0.602517	0.877120
	H54	H	0.413504	0.590831	0.110077
	H55	H	0.413234	0.415286	0.880508
	H56	H	0.119608	0.603742	0.409007
	H57	H	0.886921	0.596795	0.592049
	H58	H	0.117995	0.410065	0.581478
	H59	H	0.888925	0.412658	0.406232
	H60	H	0.118777	0.419269	0.591648
	H61	H	0.887823	0.598222	0.588511
	H62	H	0.117041	0.589910	0.402277
	H63	H	0.887253	0.412949	0.400871
	H64	H	0.414374	0.605224	0.113943
	H65	H	0.599098	0.593097	0.880421
	H66	H	0.589095	0.424298	0.107847
	H67	H	0.411918	0.410860	0.878695
	H68	H	0.605082	0.122114	0.405831
	H69	H	0.589278	0.891367	0.584324
	H70	H	0.415163	0.119146	0.585621
	H71	H	0.415193	0.888861	0.406604
	H72	H	0.912677	0.623299	0.094042
	H73	H	0.103396	0.386387	0.087435
	H74	H	0.098680	0.623664	0.897952
	H75	H	0.914251	0.389769	0.908767
	H76	H	0.093331	0.917462	0.610388
	H77	H	0.093520	0.085658	0.384505
	H78	H	0.915633	0.088565	0.609765
	H79	H	0.906102	0.905974	0.375997
	H80	H	0.614760	0.087739	0.907974
	H81	H	0.388941	0.094066	0.089313
	H82	H	0.623766	0.907295	0.095085
	H83	H	0.389660	0.919840	0.902220
	H84	H	0.619626	0.909037	0.082261
	H85	H	0.386478	0.098249	0.091946
	H86	H	0.624072	0.100213	0.885991
	H87	H	0.384827	0.908347	0.896489
	H88	H	0.915698	0.105496	0.614291
	H89	H	0.089416	0.109545	0.378506
	H90	H	0.093449	0.907295	0.612703
	H91	H	0.908736	0.918460	0.379941
	H92	H	0.095491	0.621305	0.904030
	H93	H	0.094796	0.386457	0.095686
	H94	H	0.915866	0.619846	0.083892
	H95	H	0.904920	0.386393	0.906352
	H96	H	0.408807	0.120816	0.584607
	H97	H	0.605293	0.886549	0.583924
	H98	H	0.601972	0.124699	0.394478
	H99	H	0.407099	0.886751	0.406529
	H100	H	0.589059	0.400044	0.114504
	H101	H	0.592787	0.602344	0.879107
	H102	H	0.402004	0.597367	0.114689
	H103	H	0.407867	0.414661	0.878383
	H104	H	0.123241	0.601837	0.394153
	H105	H	0.888990	0.594551	0.589220
	H106	H	0.122875	0.406523	0.594049
	H107	H	0.887258	0.407357	0.403569
	H108	H	0.905724	0.622599	0.085576
	H109	H	0.092271	0.391265	0.084949
	H110	H	0.102630	0.623295	0.903830
	H111	H	0.912373	0.387065	0.899531
	H112	H	0.101869	0.912825	0.614410
	H113	H	0.112175	0.099932	0.374963
	H114	H	0.900925	0.096511	0.615929
	H115	H	0.918677	0.909627	0.380265
	H116	H	0.622267	0.113580	0.909022
	H117	H	0.388071	0.099341	0.087197
	H118	H	0.618764	0.919722	0.090666
	H119	H	0.389222	0.908189	0.909833
	C120	C	0.383043	0.012467	0.617046
	C121	C	0.625776	0.995920	0.616698
	C122	C	0.627292	0.013192	0.373555
	C123	C	0.383540	0.995774	0.375338
	C124	C	0.624837	0.384459	0.004554
	C125	C	0.626460	0.627443	0.987533
	C126	C	0.382586	0.626657	0.004401
	C127	C	0.382147	0.384163	0.987553
	C128	C	0.012272	0.627008	0.373665
	C129	C	0.995686	0.625923	0.617868
	C130	C	0.012046	0.382795	0.618484
	C131	C	0.995952	0.383269	0.374601
	C132	C	0.882108	0.513795	0.117677
	C133	C	0.125414	0.496706	0.117389
	C134	C	0.126424	0.513852	0.874233
	C135	C	0.883052	0.496281	0.875515
	C136	C	0.125547	0.883610	0.503950
	C137	C	0.126394	0.126466	0.488018
	C138	C	0.883409	0.125509	0.504769
	C139	C	0.882460	0.882802	0.487700
	C140	C	0.512280	0.128341	0.872837
	C141	C	0.495661	0.126281	0.117033
	C142	C	0.512391	0.883137	0.118165
	C143	C	0.496021	0.884339	0.874411
	C144	C	0.384999	0.888987	0.673298
	C145	C	0.622877	0.120005	0.670119
	C146	C	0.623117	0.889305	0.320171
	C147	C	0.386986	0.119844	0.320487
	C148	C	0.680900	0.386821	0.881396
	C149	C	0.680784	0.624644	0.110802
	C150	C	0.328587	0.624889	0.880879
	C151	C	0.326806	0.385686	0.111349
	C152	C	0.889318	0.681513	0.377361
	C153	C	0.118497	0.681808	0.614209
	C154	C	0.889002	0.327364	0.616282
	C155	C	0.118752	0.328920	0.377064
	C156	C	0.889247	0.384409	0.674404
	C157	C	0.118971	0.623543	0.671639
	C158	C	0.889082	0.624016	0.319458
	C159	C	0.118801	0.387186	0.319675
	C160	C	0.386730	0.681856	0.880761
	C161	C	0.622567	0.681324	0.111176
	C162	C	0.622465	0.330366	0.880735
	C163	C	0.384413	0.328156	0.111314
	C164	C	0.681674	0.889743	0.376667
	C165	C	0.681271	0.119422	0.613416
	C166	C	0.326356	0.889273	0.616819
	C167	C	0.328267	0.119135	0.376941
	C168	C	0.884087	0.390128	0.173403
	C169	C	0.122464	0.620809	0.170907
	C170	C	0.122383	0.389795	0.820679
	C171	C	0.886670	0.619923	0.819508
	C172	C	0.180991	0.886098	0.380732
	C173	C	0.181753	0.124082	0.611183
	C174	C	0.829639	0.123173	0.380712
	C175	C	0.826758	0.884457	0.610791
	C176	C	0.388818	0.181971	0.876406
	C177	C	0.618643	0.181742	0.112837
	C178	C	0.389798	0.827765	0.115569
	C179	C	0.619180	0.830183	0.877127
	C180	C	0.389614	0.885153	0.173620
	C181	C	0.618961	0.124358	0.171019
	C182	C	0.389219	0.124881	0.817860
	C183	C	0.619438	0.887900	0.819720
	C184	C	0.887260	0.180322	0.380817
	C185	C	0.123224	0.180694	0.611662
	C186	C	0.122752	0.829407	0.380592
	C187	C	0.884745	0.827587	0.611217
	C188	C	0.181196	0.390379	0.876692
	C189	C	0.180600	0.620471	0.114074
	C190	C	0.825672	0.390804	0.117111
	C191	C	0.828406	0.619841	0.876137
	C192	C	0.405350	0.098301	0.593784
	C193	C	0.603612	0.909712	0.595333
	C194	C	0.606607	0.099951	0.394699
	C195	C	0.405080	0.909507	0.397539
	C196	C	0.602512	0.406404	0.090706
	C197	C	0.604959	0.605824	0.901112
	C198	C	0.403680	0.604321	0.090690
	C199	C	0.404461	0.406848	0.901688
	C200	C	0.097865	0.605112	0.395429
	C201	C	0.910095	0.603344	0.596239
	C202	C	0.097621	0.405272	0.595833
	C203	C	0.909920	0.404862	0.397055
	C204	C	0.904798	0.599735	0.094651
	C205	C	0.103357	0.410358	0.095821
	C206	C	0.105193	0.600230	0.895549
	C207	C	0.904184	0.410197	0.898260
	C208	C	0.102885	0.905892	0.590372
	C209	C	0.104749	0.104864	0.401686
	C210	C	0.904483	0.103182	0.591133
	C211	C	0.904744	0.905026	0.401015
	C212	C	0.598178	0.106945	0.894521
	C213	C	0.409964	0.103845	0.095850
	C214	C	0.598556	0.905432	0.096059
	C215	C	0.410163	0.905906	0.896337
	Zn216	Zn	0.504355	0.005000	0.745466
	Zn217	Zn	0.504603	0.004778	0.246519
	Zn218	Zn	0.754068	0.505384	-0.003803
	Zn219	Zn	0.253810	0.505023	-0.004053
	Zn220	Zn	0.003834	0.755076	0.496188
	Zn221	Zn	0.004100	0.254231	0.496632
	Zn222	Zn	0.004221	0.504378	0.747142
	Zn223	Zn	0.003662	0.505200	0.245263
	Zn224	Zn	0.504704	0.755073	-0.004048
	Zn225	Zn	0.503323	0.256116	-0.004306
	Zn226	Zn	0.754986	0.004531	0.495912
	Zn227	Zn	0.254336	0.004143	0.496120
	N228	N	0.419471	0.966444	0.673528
	N229	N	0.588872	0.042188	0.672174
	N230	N	0.590110	0.967190	0.318115
	N231	N	0.420703	0.042107	0.319489
	N232	N	0.682610	0.419777	0.959340
	N233	N	0.683491	0.591943	0.032788
	N234	N	0.325891	0.591144	0.958769
	N235	N	0.325287	0.419762	0.033688
	N236	N	0.966786	0.683535	0.410260
	N237	N	0.041093	0.683132	0.581432
	N238	N	0.966342	0.326225	0.582163
	N239	N	0.041159	0.326623	0.410687
	N240	N	0.966534	0.418265	0.675905
	N241	N	0.041586	0.589543	0.674165
	N242	N	0.966568	0.590988	0.316966
	N243	N	0.041381	0.420267	0.318074
	N244	N	0.419779	0.682801	0.958557
	N245	N	0.589472	0.682971	0.033464
	N246	N	0.588363	0.328819	0.958308
	N247	N	0.417972	0.327094	0.033518
	N248	N	0.684285	0.967829	0.409269
	N249	N	0.683198	0.041398	0.581021
	N250	N	0.324681	0.967085	0.582865
	N251	N	0.325941	0.041118	0.410134
	N252	N	0.918476	0.467704	0.173930
	N253	N	0.088728	0.543000	0.172862
	N254	N	0.089216	0.467616	0.818834
	N255	N	0.920082	0.542315	0.819170
	N256	N	0.182429	0.919295	0.458455
	N257	N	0.183894	0.091123	0.533146
	N258	N	0.827149	0.089785	0.458805
	N259	N	0.825392	0.918174	0.532919
	N260	N	0.466095	0.184316	0.909598
	N261	N	0.541021	0.183124	0.080114
	N262	N	0.467150	0.826549	0.081901
	N263	N	0.541423	0.827720	0.910457
	N264	N	0.467024	0.918853	0.175143
	N265	N	0.541644	0.090278	0.173611
	N266	N	0.467044	0.092321	0.815422
	N267	N	0.542136	0.921077	0.818190
	N268	N	0.919829	0.181985	0.458815
	N269	N	0.089580	0.182330	0.534177
	N270	N	0.089043	0.827690	0.458497
	N271	N	0.918563	0.826513	0.533452
	N272	N	0.183708	0.468376	0.909265
	N273	N	0.182607	0.542272	0.081525
	N274	N	0.824471	0.468560	0.082882
	N275	N	0.826036	0.542156	0.910287
	O276	O	-0.603749	0.435285	1.529679
	H277	H	-0.600111	0.427784	1.526000
	H278	H	-0.596147	0.440116	1.522164
	O279	O	0.432398	0.412774	0.547000
	H280	H	0.424982	0.418786	0.549508
	H281	H	0.430253	0.413032	0.550210
	O282	O	0.997139	-0.006424	0.044128
	H283	H	0.993402	-0.015206	0.054493
	H284	H	1.004520	0.003334	0.041705
	O285	O	0.438301	0.426889	0.539604
	H286	H	0.433790	0.433624	0.544220
	H287	H	0.433238	0.420828	0.545238
	O288	O	0.415806	0.413066	0.531755
	H289	H	0.418910	0.411296	0.528883
	H290	H	0.407395	0.410480	0.539218
	O291	O	-0.034071	0.980525	1.045837
	H292	H	-0.040070	0.975952	1.053659
	H293	H	-0.037956	0.979119	1.048634
	O294	O	0.387296	0.400490	0.576046
	H295	H	0.391926	0.393006	0.582061
	H296	H	0.376653	0.400169	0.570388
	O297	O	0.991087	-0.006149	0.088644
	H298	H	0.991824	-0.006522	0.086286
	H299	H	0.987886	-0.011836	0.090628
