data_Molecule from HDF5

_cell_length_a		16.323905
_cell_length_b		16.265105
_cell_length_c		16.128886
_cell_angle_alpha	89.440225
_cell_angle_beta	89.186789
_cell_angle_gamma	89.868959
_symmetry_space_group_name_H-M	'P 1'
_symmetry_Int_Tables_number		1

loop_
	_symmetry_equiv_pos_as_xyz
	x,y,z

loop_
	_atom_site_label
	_atom_site_type_symbol
	_atom_site_fract_x
	_atom_site_fract_y
	_atom_site_fract_z
	H0	H	0.396115	0.830196	0.722987
	H1	H	0.590421	0.158502	0.713724
	H2	H	0.597879	0.829706	0.292159
	H3	H	0.398876	0.157195	0.288135
	H4	H	0.717397	0.395610	0.840313
	H5	H	0.709697	0.589676	0.169940
	H6	H	0.288224	0.598128	0.838636
	H7	H	0.279161	0.390759	0.165884
	H8	H	0.834247	0.711376	0.405132
	H9	H	0.159112	0.712177	0.601514
	H10	H	0.833149	0.281952	0.606315
	H11	H	0.158440	0.275070	0.397829
	H12	H	0.835974	0.396076	0.723645
	H13	H	0.162271	0.593903	0.713294
	H14	H	0.834015	0.593795	0.290228
	H15	H	0.161413	0.396837	0.286980
	H16	H	0.403973	0.711688	0.840604
	H17	H	0.594752	0.704186	0.170845
	H18	H	0.602896	0.280715	0.839333
	H19	H	0.397048	0.277682	0.167700
	H20	H	0.715815	0.832252	0.403703
	H21	H	0.709858	0.157248	0.602776
	H22	H	0.277240	0.831810	0.610714
	H23	H	0.280489	0.156222	0.403035
	H24	H	0.899946	0.331083	0.221841
	H25	H	0.095011	0.659028	0.212146
	H26	H	0.099510	0.331245	0.788696
	H27	H	0.902390	0.658315	0.789179
	H28	H	0.217627	0.893120	0.343240
	H29	H	0.208205	0.093816	0.668964
	H30	H	0.783589	0.096090	0.339240
	H31	H	0.780777	0.895299	0.669691
	H32	H	0.337597	0.214217	0.903412
	H33	H	0.661733	0.207405	0.100845
	H34	H	0.336570	0.775037	0.111287
	H35	H	0.661684	0.779567	0.904032
	H36	H	0.335621	0.893288	0.224369
	H37	H	0.661722	0.090277	0.215670
	H38	H	0.333754	0.092129	0.794336
	H39	H	0.660734	0.895938	0.787490
	H40	H	0.896798	0.213208	0.339765
	H41	H	0.090946	0.206591	0.668835
	H42	H	0.098583	0.783952	0.339229
	H43	H	0.892216	0.775707	0.667499
	H44	H	0.219950	0.333257	0.898341
	H45	H	0.214900	0.655964	0.102007
	H46	H	0.781558	0.331340	0.108933
	H47	H	0.783239	0.657156	0.903055
	H48	H	0.406485	0.111545	0.605429
	H49	H	0.594434	0.877442	0.591575
	H50	H	0.588044	0.112225	0.401127
	H51	H	0.394508	0.872811	0.412792
	H52	H	0.596803	0.409263	0.121500
	H53	H	0.600714	0.591812	0.883459
	H54	H	0.407395	0.573972	0.118217
	H55	H	0.411482	0.400475	0.884678
	H56	H	0.115738	0.595536	0.406950
	H57	H	0.888430	0.575626	0.585600
	H58	H	0.113969	0.394228	0.589035
	H59	H	0.883366	0.404218	0.420419
	H60	H	0.112384	0.404911	0.590442
	H61	H	0.879758	0.580928	0.611445
	H62	H	0.112448	0.589075	0.410554
	H63	H	0.883008	0.409678	0.410133
	H64	H	0.410957	0.589460	0.121369
	H65	H	0.593847	0.581114	0.889587
	H66	H	0.578083	0.400971	0.117518
	H67	H	0.407441	0.406817	0.886717
	H68	H	0.584948	0.108021	0.415731
	H69	H	0.592467	0.874033	0.603220
	H70	H	0.403976	0.106386	0.589543
	H71	H	0.416745	0.879239	0.408993
	H72	H	0.906333	0.610201	0.093881
	H73	H	0.087814	0.380522	0.088904
	H74	H	0.091597	0.611977	0.906370
	H75	H	0.904483	0.378971	0.920175
	H76	H	0.089452	0.906324	0.622186
	H77	H	0.091503	0.085563	0.385781
	H78	H	0.906450	0.093392	0.622072
	H79	H	0.907833	0.901070	0.386012
	H80	H	0.617350	0.094864	0.907115
	H81	H	0.380574	0.089681	0.100739
	H82	H	0.611564	0.907925	0.095929
	H83	H	0.380793	0.895335	0.916535
	H84	H	0.618555	0.895509	0.105666
	H85	H	0.383996	0.086571	0.088767
	H86	H	0.612021	0.084970	0.914230
	H87	H	0.384325	0.903970	0.921105
	H88	H	0.892611	0.088865	0.624344
	H89	H	0.089726	0.083263	0.388063
	H90	H	0.078087	0.901951	0.620183
	H91	H	0.901944	0.905193	0.386119
	H92	H	0.095547	0.611400	0.911206
	H93	H	0.096728	0.375699	0.093743
	H94	H	0.902305	0.610988	0.092950
	H95	H	0.905386	0.375945	0.909764
	H96	H	0.391792	0.113324	0.597590
	H97	H	0.583515	0.878465	0.597242
	H98	H	0.597969	0.113015	0.411983
	H99	H	0.406918	0.882746	0.430566
	H100	H	0.594363	0.389004	0.126725
	H101	H	0.588213	0.593434	0.887505
	H102	H	0.395975	0.584400	0.124214
	H103	H	0.414664	0.405992	0.888073
	H104	H	0.114765	0.589297	0.403082
	H105	H	0.879167	0.601108	0.592543
	H106	H	0.115531	0.399559	0.599139
	H107	H	0.880313	0.399148	0.411127
	H108	H	0.903020	0.611100	0.096682
	H109	H	0.086988	0.377373	0.099441
	H110	H	0.096837	0.612918	0.905790
	H111	H	0.913393	0.380172	0.913605
	H112	H	0.086747	0.894601	0.624856
	H113	H	0.087456	0.086839	0.387020
	H114	H	0.902213	0.079216	0.618383
	H115	H	0.907505	0.908223	0.388745
	H116	H	0.616005	0.083259	0.901734
	H117	H	0.383783	0.078358	0.098544
	H118	H	0.614441	0.892640	0.089583
	H119	H	0.381514	0.904560	0.910903
	C120	C	0.372215	0.002504	0.628473
	C121	C	0.616938	0.985371	0.624355
	C122	C	0.620270	0.003036	0.381246
	C123	C	0.376609	0.985564	0.385528
	C124	C	0.620606	0.371987	0.012917
	C125	C	0.620683	0.615538	0.996246
	C126	C	0.377716	0.614832	0.012750
	C127	C	0.378668	0.373212	0.994469
	C128	C	0.006231	0.619033	0.379754
	C129	C	0.989495	0.615653	0.624278
	C130	C	0.006251	0.372083	0.625378
	C131	C	0.989340	0.374023	0.382254
	C132	C	0.875270	0.503099	0.126050
	C133	C	0.119278	0.485845	0.122711
	C134	C	0.123467	0.504144	0.879063
	C135	C	0.878867	0.486178	0.883783
	C136	C	0.116992	0.872763	0.513884
	C137	C	0.116634	0.114516	0.495665
	C138	C	0.873154	0.117444	0.512798
	C139	C	0.874975	0.873822	0.495448
	C140	C	0.507197	0.116891	0.880938
	C141	C	0.490500	0.113834	0.124135
	C142	C	0.507393	0.869747	0.128550
	C143	C	0.489952	0.872796	0.884800
	C144	C	0.375343	0.879180	0.684816
	C145	C	0.612049	0.109307	0.677425
	C146	C	0.618305	0.879310	0.328325
	C147	C	0.378637	0.108222	0.327181
	C148	C	0.678971	0.374775	0.889453
	C149	C	0.673249	0.611144	0.120519
	C150	C	0.325024	0.616447	0.888386
	C151	C	0.318984	0.372223	0.117371
	C152	C	0.883226	0.673705	0.383751
	C153	C	0.111218	0.672766	0.621212
	C154	C	0.882831	0.318289	0.626151
	C155	C	0.110426	0.315270	0.380194
	C156	C	0.884254	0.375227	0.684595
	C157	C	0.112704	0.613887	0.677127
	C158	C	0.883267	0.615322	0.326556
	C159	C	0.112070	0.376022	0.324976
	C160	C	0.382347	0.673382	0.889674
	C161	C	0.615868	0.667911	0.120978
	C162	C	0.621896	0.317657	0.889070
	C163	C	0.377602	0.315720	0.118151
	C164	C	0.677282	0.880753	0.383689
	C165	C	0.671537	0.108697	0.622297
	C166	C	0.316074	0.879967	0.629343
	C167	C	0.319512	0.107943	0.384316
	C168	C	0.878377	0.380015	0.183655
	C169	C	0.116317	0.609379	0.176183
	C170	C	0.120908	0.380586	0.824927
	C171	C	0.881436	0.609284	0.827209
	C172	C	0.177116	0.874267	0.391215
	C173	C	0.170235	0.113094	0.619725
	C174	C	0.819977	0.116306	0.388681
	C175	C	0.818151	0.874624	0.619717
	C176	C	0.385422	0.174546	0.883707
	C177	C	0.613034	0.169276	0.121150
	C178	C	0.385117	0.813502	0.129942
	C179	C	0.612820	0.817683	0.884489
	C180	C	0.384466	0.872298	0.186106
	C181	C	0.613040	0.111068	0.178518
	C182	C	0.383536	0.114149	0.829225
	C183	C	0.612287	0.875548	0.826527
	C184	C	0.876404	0.174479	0.388924
	C185	C	0.112076	0.169440	0.619560
	C186	C	0.117811	0.819831	0.389428
	C187	C	0.873880	0.815472	0.618794
	C188	C	0.180673	0.381617	0.879539
	C189	C	0.175872	0.607926	0.121315
	C190	C	0.819587	0.380205	0.127607
	C191	C	0.822274	0.608720	0.883968
	C192	C	0.394247	0.088214	0.604560
	C193	C	0.596217	0.899190	0.603394
	C194	C	0.597223	0.088989	0.402999
	C195	C	0.399444	0.900356	0.410221
	C196	C	0.596658	0.393458	0.099608
	C197	C	0.600407	0.594929	0.909286
	C198	C	0.398572	0.589924	0.098986
	C199	C	0.403924	0.397499	0.908732
	C200	C	0.092051	0.597664	0.400678
	C201	C	0.904509	0.592598	0.602861
	C202	C	0.091748	0.393351	0.600362
	C203	C	0.904181	0.397634	0.406699
	C204	C	0.897381	0.588617	0.101583
	C205	C	0.096920	0.400055	0.100460
	C206	C	0.101270	0.589787	0.901148
	C207	C	0.901274	0.400339	0.907482
	C208	C	0.092059	0.894615	0.600016
	C209	C	0.095778	0.091763	0.409337
	C210	C	0.894169	0.094014	0.599118
	C211	C	0.898790	0.897853	0.409344
	C212	C	0.592898	0.094330	0.901411
	C213	C	0.405065	0.091395	0.102277
	C214	C	0.592676	0.892131	0.104262
	C215	C	0.404506	0.894744	0.909075
	Zn216	Zn	0.496326	-0.006057	0.754038
	Zn217	Zn	0.498369	-0.006915	0.254669
	Zn218	Zn	0.747817	0.493737	0.004757
	Zn219	Zn	0.249647	0.494269	0.001938
	Zn220	Zn	-0.003395	0.745890	0.503500
	Zn221	Zn	-0.003675	0.243650	0.503818
	Zn222	Zn	0.000061	0.494484	0.753419
	Zn223	Zn	-0.001475	0.495494	0.252164
	Zn224	Zn	0.498850	0.742782	0.006304
	Zn225	Zn	0.499568	0.244087	0.003296
	Zn226	Zn	0.746433	-0.005034	0.503936
	Zn227	Zn	0.245204	-0.006551	0.506247
	N228	N	0.409124	0.956496	0.684879
	N229	N	0.578995	0.031692	0.679100
	N230	N	0.583636	0.956433	0.326648
	N231	N	0.413462	0.031245	0.327771
	N232	N	0.678296	0.407944	0.967586
	N233	N	0.676595	0.579436	0.041841
	N234	N	0.322022	0.580648	0.965950
	N235	N	0.319455	0.407269	0.039318
	N236	N	0.960759	0.676232	0.415884
	N237	N	0.033648	0.674044	0.588928
	N238	N	0.959751	0.316174	0.590062
	N239	N	0.032922	0.313939	0.415010
	N240	N	0.961985	0.407842	0.684195
	N241	N	0.036070	0.578974	0.679176
	N242	N	0.960867	0.582124	0.323693
	N243	N	0.035718	0.411788	0.326340
	N244	N	0.414301	0.672569	0.968082
	N245	N	0.584101	0.670858	0.042508
	N246	N	0.586409	0.315905	0.966811
	N247	N	0.414072	0.316310	0.040764
	N248	N	0.678553	0.958835	0.415793
	N249	N	0.674622	0.030742	0.589945
	N250	N	0.313971	0.957761	0.594912
	N251	N	0.318402	0.030730	0.420175
	N252	N	0.912440	0.457401	0.183082
	N253	N	0.081777	0.532392	0.177232
	N254	N	0.086078	0.457658	0.824384
	N255	N	0.915947	0.532151	0.827236
	N256	N	0.176776	0.906478	0.469720
	N257	N	0.173251	0.079721	0.541650
	N258	N	0.817621	0.081684	0.466654
	N259	N	0.818713	0.910168	0.542031
	N260	N	0.463453	0.176574	0.914759
	N261	N	0.535779	0.171155	0.088308
	N262	N	0.462367	0.811821	0.094831
	N263	N	0.535791	0.815885	0.920044
	N264	N	0.461532	0.906407	0.185520
	N265	N	0.535872	0.077278	0.180498
	N266	N	0.460078	0.078867	0.827347
	N267	N	0.534808	0.909146	0.826529
	N268	N	0.908783	0.175401	0.467081
	N269	N	0.079789	0.170620	0.541220
	N270	N	0.080924	0.818843	0.466642
	N271	N	0.908378	0.814637	0.540470
	N272	N	0.182606	0.459395	0.912458
	N273	N	0.177856	0.530052	0.088676
	N274	N	0.817704	0.457621	0.092565
	N275	N	0.820472	0.530969	0.918367
	O276	O	0.928385	0.028010	0.943453
	H277	H	0.935091	0.032520	0.936255
	H278	H	0.921507	0.033307	0.940298
	O279	O	0.423507	0.561498	0.576876
	H280	H	0.415915	0.558037	0.582771
	H281	H	0.423976	0.554216	0.556806
	O282	O	0.490508	0.382212	0.491105
	H283	H	0.487329	0.375473	0.482282
	H284	H	0.472385	0.382372	0.502382
	O285	O	0.487516	0.591552	0.459457
	H286	H	0.479089	0.591057	0.444093
	H287	H	0.487716	0.590757	0.463519
	O288	O	0.356750	0.449478	0.613790
	H289	H	0.339666	0.452607	0.612285
	H290	H	0.361459	0.450970	0.619164
	O291	O	-0.095528	0.037199	1.110878
	H292	H	-0.088142	0.011593	1.104256
	H293	H	-0.097449	0.026098	1.115399
	O294	O	1.093985	1.030534	0.030726
	H295	H	1.099793	1.022960	0.016538
	H296	H	1.087064	1.023572	0.035636
	O297	O	0.970104	0.940275	0.085258
	H298	H	0.969845	0.926217	0.094105
	H299	H	0.957283	0.932363	0.063019
	O300	O	0.495213	0.469337	0.447773
	H301	H	0.492945	0.469282	0.448633
	H302	H	0.501247	0.467294	0.441828
	O303	O	0.589644	0.626873	0.558019
	H304	H	0.595903	0.622955	0.566627
	H305	H	0.589619	0.636781	0.567434
	O306	O	0.538338	0.490086	0.641712
	H307	H	0.538948	0.485796	0.644589
	H308	H	0.521843	0.494037	0.643180
	O309	O	0.447077	0.505314	0.425122
	H310	H	0.430830	0.505072	0.419906
	H311	H	0.450076	0.514240	0.416820
	O312	O	1.103162	0.995188	0.887861
	H313	H	1.090947	0.993408	0.896542
	H314	H	1.099122	1.001784	0.901875
	O315	O	1.023719	1.050110	-0.137620
	H316	H	1.025865	1.055194	-0.137900
	H317	H	1.031040	1.051941	-0.151147
	O318	O	0.562986	0.419895	0.659784
	H319	H	0.570266	0.426678	0.663107
	H320	H	0.569917	0.414829	0.664697
	O321	O	0.850974	0.765639	0.305260
	H322	H	0.854523	0.773383	0.296372
	H323	H	0.840731	0.768476	0.309771
	O324	O	-0.647703	1.389047	0.511732
	H325	H	-0.637961	1.386229	0.527840
	H326	H	-0.656559	1.391170	0.512880
	O327	O	-0.620720	1.468994	1.547343
	H328	H	-0.618366	1.456587	1.552473
	H329	H	-0.618133	1.470350	1.553606
	O330	O	0.011497	-0.000346	-0.036809
	H331	H	0.007309	0.009161	-0.034836
	H332	H	0.014063	0.004823	-0.033228
	O333	O	0.435849	0.385959	0.348549
	H334	H	0.439482	0.368052	0.344689
	H335	H	0.441499	0.385951	0.361482
	O336	O	0.038510	-0.014577	0.092518
	H337	H	0.025118	-0.011911	0.098382
	H338	H	0.037243	-0.013128	0.105297
	O339	O	-0.056037	0.027982	-0.009211
	H340	H	-0.057395	0.031936	-0.011248
	H341	H	-0.067993	0.023274	-0.011794
	O342	O	0.602582	0.397556	0.459899
	H343	H	0.611030	0.382670	0.463884
	H344	H	0.611802	0.396210	0.437389
	O345	O	0.008909	0.982019	0.952054
	H346	H	0.008469	0.976816	0.949786
	H347	H	-0.003020	0.988827	0.955168
	O348	O	0.506054	0.554932	0.378776
	H349	H	0.481292	0.557309	0.378540
	H350	H	0.509535	0.560866	0.378196
	O351	O	0.455037	0.610779	0.415418
	H352	H	0.450076	0.613450	0.416595
	H353	H	0.463124	0.612884	0.416409
	O354	O	0.089903	0.988906	-0.004183
	H355	H	0.082617	0.992982	-0.017347
	H356	H	0.087477	0.995081	-0.007299
	O357	O	0.453013	0.498072	0.538899
	H358	H	0.442436	0.489541	0.524082
	H359	H	0.437639	0.497211	0.553735
	O360	O	0.959130	-0.015640	1.054013
	H361	H	0.956210	-0.033243	1.071048
	H362	H	0.972292	-0.018730	1.048579
	O363	O	0.583419	0.443207	0.502105
	H364	H	0.579553	0.443447	0.494201
	H365	H	0.577064	0.441287	0.507711
	O366	O	0.878335	0.960397	0.070951
	H367	H	0.861045	0.969017	0.066039
	H368	H	0.881664	0.944039	0.069443
	O369	O	0.939459	0.072643	-0.101702
	H370	H	0.946004	0.087260	-0.098427
	H371	H	0.930549	0.077992	-0.101284
	O372	O	0.442207	0.503675	0.555904
	H373	H	0.449948	0.497959	0.556294
	H374	H	0.435603	0.499609	0.548723
	O375	O	0.864146	-0.038791	1.089854
	H376	H	0.863833	-0.049333	1.098006
	H377	H	0.859749	-0.043941	1.083314
	O378	O	-0.101976	0.855300	0.036920
	H379	H	-0.099119	0.837717	0.053544
	H380	H	-0.120658	0.862436	0.022478
	O381	O	0.546318	0.488869	0.522093
	H382	H	0.559818	0.490693	0.521961
	H383	H	0.549643	0.470586	0.529646
	O384	O	1.087794	1.004880	0.093339
	H385	H	1.098498	1.003130	0.092630
	H386	H	1.090306	1.003536	0.110127
	O387	O	1.051651	-0.133737	0.916413
	H388	H	1.054921	-0.122319	0.905111
	H389	H	1.057918	-0.132919	0.917001
	O390	O	1.043877	1.063855	0.052717
	H391	H	1.040227	1.053296	0.057326
	H392	H	1.036684	1.064984	0.067925
	O393	O	0.660502	0.431508	0.348710
	H394	H	0.658186	0.437225	0.346297
	H395	H	0.647987	0.426558	0.347433
