data_Molecule from HDF5

_cell_length_a		16.274456
_cell_length_b		16.309390
_cell_length_c		16.221431
_cell_angle_alpha	90.175834
_cell_angle_beta	90.035064
_cell_angle_gamma	89.985650
_symmetry_space_group_name_H-M	'P 1'
_symmetry_Int_Tables_number		1

loop_
	_symmetry_equiv_pos_as_xyz
	x,y,z

loop_
	_atom_site_label
	_atom_site_type_symbol
	_atom_site_fract_x
	_atom_site_fract_y
	_atom_site_fract_z
	H0	H	0.404732	0.838827	0.713795
	H1	H	0.598858	0.166641	0.715991
	H2	H	0.597990	0.838515	0.285257
	H3	H	0.402421	0.166425	0.287537
	H4	H	0.715512	0.404751	0.836152
	H5	H	0.713914	0.601573	0.164691
	H6	H	0.286382	0.600628	0.836105
	H7	H	0.286719	0.405047	0.164095
	H8	H	0.837181	0.717221	0.402664
	H9	H	0.163518	0.719016	0.602030
	H10	H	0.837140	0.289716	0.599126
	H11	H	0.164874	0.288201	0.402283
	H12	H	0.836945	0.406328	0.714237
	H13	H	0.164834	0.600837	0.714736
	H14	H	0.836991	0.601289	0.286974
	H15	H	0.165638	0.405606	0.287246
	H16	H	0.402166	0.716248	0.835940
	H17	H	0.599008	0.717246	0.164894
	H18	H	0.599912	0.288514	0.835732
	H19	H	0.402309	0.289656	0.163923
	H20	H	0.716386	0.838888	0.400045
	H21	H	0.716171	0.166001	0.600704
	H22	H	0.286574	0.838595	0.599457
	H23	H	0.286124	0.166164	0.403900
	H24	H	0.904688	0.338386	0.213087
	H25	H	0.098882	0.666062	0.216166
	H26	H	0.097679	0.339627	0.787338
	H27	H	0.902239	0.666590	0.786893
	H28	H	0.213754	0.904910	0.337031
	H29	H	0.213949	0.101021	0.666132
	H30	H	0.786678	0.100581	0.337122
	H31	H	0.787808	0.906534	0.665837
	H32	H	0.337575	0.217118	0.901192
	H33	H	0.665069	0.217059	0.098476
	H34	H	0.337410	0.789030	0.098436
	H35	H	0.664858	0.787942	0.901401
	H36	H	0.336342	0.905792	0.212859
	H37	H	0.664458	0.100980	0.215489
	H38	H	0.336491	0.099273	0.788282
	H39	H	0.665405	0.905537	0.787241
	H40	H	0.902769	0.216051	0.336396
	H41	H	0.098687	0.217487	0.666065
	H42	H	0.099783	0.787865	0.337629
	H43	H	0.901991	0.789209	0.665193
	H44	H	0.214680	0.339721	0.902717
	H45	H	0.215396	0.666866	0.100467
	H46	H	0.786168	0.339720	0.098443
	H47	H	0.786157	0.666618	0.902633
	H48	H	0.412049	0.117309	0.594327
	H49	H	0.592688	0.887451	0.591313
	H50	H	0.602732	0.120360	0.409525
	H51	H	0.403940	0.883729	0.402390
	H52	H	0.590361	0.416532	0.114595
	H53	H	0.597665	0.593938	0.882352
	H54	H	0.414490	0.601577	0.117046
	H55	H	0.405753	0.408815	0.881823
	H56	H	0.118950	0.599068	0.405739
	H57	H	0.881582	0.601229	0.598016
	H58	H	0.122360	0.409143	0.608532
	H59	H	0.885280	0.411809	0.407369
	H60	H	0.118872	0.396618	0.584392
	H61	H	0.885034	0.597306	0.588312
	H62	H	0.116791	0.597198	0.413049
	H63	H	0.882951	0.408065	0.405354
	H64	H	0.401831	0.599755	0.120148
	H65	H	0.590334	0.594392	0.884311
	H66	H	0.589710	0.404480	0.117402
	H67	H	0.407762	0.410858	0.882955
	H68	H	0.589382	0.118809	0.400581
	H69	H	0.597827	0.886011	0.593631
	H70	H	0.403489	0.118472	0.590306
	H71	H	0.412176	0.887409	0.406124
	H72	H	0.897612	0.620280	0.088821
	H73	H	0.104810	0.385757	0.087265
	H74	H	0.095197	0.620559	0.906467
	H75	H	0.904586	0.385278	0.906442
	H76	H	0.091869	0.904196	0.618888
	H77	H	0.097683	0.105128	0.381319
	H78	H	0.907012	0.097002	0.618997
	H79	H	0.904831	0.906102	0.382332
	H80	H	0.618086	0.094641	0.905661
	H81	H	0.384500	0.102240	0.086555
	H82	H	0.618435	0.907105	0.092747
	H83	H	0.385660	0.912505	0.909266
	H84	H	0.616594	0.912149	0.090411
	H85	H	0.385786	0.089573	0.094569
	H86	H	0.618139	0.098624	0.908733
	H87	H	0.383342	0.909532	0.903513
	H88	H	0.907938	0.097094	0.617953
	H89	H	0.100066	0.087407	0.384617
	H90	H	0.100060	0.912299	0.620264
	H91	H	0.907417	0.914727	0.385204
	H92	H	0.092837	0.619687	0.908031
	H93	H	0.095516	0.383365	0.104431
	H94	H	0.907573	0.622475	0.105879
	H95	H	0.910774	0.387075	0.905592
	H96	H	0.404921	0.121448	0.600086
	H97	H	0.592966	0.885742	0.596654
	H98	H	0.588504	0.114881	0.416300
	H99	H	0.404459	0.886185	0.411866
	H100	H	0.600482	0.410941	0.118634
	H101	H	0.593840	0.600477	0.881514
	H102	H	0.409389	0.589302	0.114797
	H103	H	0.408568	0.408299	0.882958
	H104	H	0.116830	0.591922	0.407243
	H105	H	0.885443	0.590579	0.596469
	H106	H	0.111775	0.423102	0.587357
	H107	H	0.884887	0.407628	0.409552
	H108	H	0.916628	0.615514	0.089628
	H109	H	0.085102	0.390663	0.089219
	H110	H	0.095751	0.620141	0.909674
	H111	H	0.907823	0.387917	0.910748
	H112	H	0.089694	0.914944	0.616322
	H113	H	0.083280	0.095790	0.387162
	H114	H	0.907492	0.098101	0.618739
	H115	H	0.913778	0.907291	0.385528
	H116	H	0.616827	0.094754	0.910213
	H117	H	0.380719	0.102158	0.100599
	H118	H	0.617969	0.911474	0.096530
	H119	H	0.384156	0.905620	0.909186
	C120	C	0.378796	0.011135	0.623004
	C121	C	0.622805	0.994602	0.622664
	C122	C	0.622607	0.010515	0.378854
	C123	C	0.378968	0.994166	0.379222
	C124	C	0.622339	0.381920	0.008570
	C125	C	0.622053	0.624577	0.991609
	C126	C	0.379834	0.624468	0.008664
	C127	C	0.379210	0.381726	0.991486
	C128	C	0.009204	0.624291	0.380127
	C129	C	0.992352	0.624985	0.622835
	C130	C	0.009454	0.381798	0.622268
	C131	C	0.992795	0.380991	0.379016
	C132	C	0.878904	0.511282	0.122786
	C133	C	0.122963	0.494687	0.122395
	C134	C	0.122900	0.511948	0.879252
	C135	C	0.879115	0.494785	0.879199
	C136	C	0.122070	0.881772	0.509969
	C137	C	0.121911	0.124327	0.493147
	C138	C	0.879077	0.125154	0.509634
	C139	C	0.879877	0.881390	0.492845
	C140	C	0.509250	0.124207	0.879521
	C141	C	0.492192	0.125647	0.122591
	C142	C	0.509236	0.881965	0.121334
	C143	C	0.492549	0.880798	0.878744
	C144	C	0.383571	0.887375	0.676007
	C145	C	0.619571	0.117729	0.678024
	C146	C	0.619176	0.887398	0.323178
	C147	C	0.381597	0.117674	0.325117
	C148	C	0.677346	0.384519	0.884937
	C149	C	0.676783	0.622513	0.115454
	C150	C	0.324646	0.621133	0.885061
	C151	C	0.324816	0.384924	0.115248
	C152	C	0.886171	0.679091	0.382464
	C153	C	0.115167	0.680507	0.621484
	C154	C	0.886008	0.327407	0.619723
	C155	C	0.115980	0.325999	0.381411
	C156	C	0.885958	0.385350	0.676775
	C157	C	0.115883	0.621785	0.677512
	C158	C	0.885973	0.621227	0.325085
	C159	C	0.116438	0.384515	0.324582
	C160	C	0.382029	0.678738	0.884889
	C161	C	0.619505	0.679876	0.115525
	C162	C	0.620419	0.326428	0.884844
	C163	C	0.381945	0.327242	0.114976
	C164	C	0.677804	0.887483	0.380422
	C165	C	0.677648	0.117468	0.620570
	C166	C	0.324612	0.887671	0.619658
	C167	C	0.324046	0.117475	0.383103
	C168	C	0.882992	0.387716	0.176424
	C169	C	0.119552	0.617739	0.177773
	C170	C	0.118886	0.388372	0.824753
	C171	C	0.881881	0.617944	0.825038
	C172	C	0.176603	0.884186	0.386250
	C173	C	0.176714	0.121925	0.616830
	C174	C	0.824213	0.121825	0.385955
	C175	C	0.824780	0.885035	0.616650
	C176	C	0.386309	0.179487	0.881140
	C177	C	0.615939	0.179677	0.119758
	C178	C	0.386083	0.826998	0.118864
	C179	C	0.615930	0.825897	0.881263
	C180	C	0.385664	0.884804	0.175845
	C181	C	0.615671	0.121815	0.177434
	C182	C	0.385682	0.120529	0.825230
	C183	C	0.616283	0.884062	0.824502
	C184	C	0.881958	0.179149	0.385792
	C185	C	0.119039	0.179186	0.617084
	C186	C	0.119813	0.826247	0.386480
	C187	C	0.881553	0.826911	0.616326
	C188	C	0.177088	0.388482	0.882051
	C189	C	0.177391	0.617898	0.120095
	C190	C	0.824189	0.388260	0.119506
	C191	C	0.824344	0.617968	0.882698
	C192	C	0.400353	0.097082	0.601497
	C193	C	0.601111	0.908535	0.600391
	C194	C	0.600078	0.095951	0.402020
	C195	C	0.400520	0.908234	0.400468
	C196	C	0.600085	0.404108	0.094494
	C197	C	0.600350	0.602775	0.905133
	C198	C	0.402014	0.603082	0.095003
	C199	C	0.400896	0.402926	0.904932
	C200	C	0.095341	0.602534	0.402211
	C201	C	0.906359	0.602923	0.600774
	C202	C	0.095600	0.403238	0.599974
	C203	C	0.906609	0.402685	0.400897
	C204	C	0.900817	0.597389	0.101202
	C205	C	0.101531	0.408644	0.100326
	C206	C	0.101123	0.597944	0.901453
	C207	C	0.901302	0.408839	0.901016
	C208	C	0.100136	0.903927	0.596319
	C209	C	0.099990	0.102505	0.406690
	C210	C	0.900969	0.103758	0.596205
	C211	C	0.902057	0.903142	0.406545
	C212	C	0.595459	0.102381	0.901641
	C213	C	0.406058	0.104337	0.100600
	C214	C	0.595227	0.903909	0.099566
	C215	C	0.406554	0.902706	0.900777
	Zn216	Zn	0.500916	0.002740	0.751191
	Zn217	Zn	0.500065	0.002830	0.250151
	Zn218	Zn	0.750492	0.503437	0.000368
	Zn219	Zn	0.251588	0.503222	0.000592
	Zn220	Zn	0.001065	0.753049	0.501667
	Zn221	Zn	0.001004	0.253050	0.501257
	Zn222	Zn	0.001110	0.503700	0.750808
	Zn223	Zn	0.000809	0.503090	0.251371
	Zn224	Zn	0.500901	0.752876	0.000264
	Zn225	Zn	0.501001	0.253429	0.000108
	Zn226	Zn	0.751546	0.002590	0.500932
	Zn227	Zn	0.250444	0.002629	0.501451
	N228	N	0.416360	0.965117	0.678355
	N229	N	0.586114	0.040212	0.679309
	N230	N	0.585430	0.964829	0.322179
	N231	N	0.415162	0.040394	0.322860
	N232	N	0.678772	0.418171	0.962834
	N233	N	0.678525	0.588804	0.037605
	N234	N	0.323199	0.588182	0.963035
	N235	N	0.323080	0.417968	0.037523
	N236	N	0.963802	0.681168	0.415754
	N237	N	0.037531	0.682201	0.587951
	N238	N	0.963709	0.325222	0.586418
	N239	N	0.038238	0.323996	0.414774
	N240	N	0.963731	0.418608	0.678269
	N241	N	0.038455	0.588153	0.678609
	N242	N	0.963592	0.587877	0.323494
	N243	N	0.038751	0.417921	0.322928
	N244	N	0.415606	0.680841	0.962702
	N245	N	0.586243	0.681377	0.037409
	N246	N	0.586808	0.324829	0.962571
	N247	N	0.415108	0.325101	0.036934
	N248	N	0.680096	0.964948	0.414232
	N249	N	0.679368	0.040118	0.586642
	N250	N	0.321717	0.965577	0.587199
	N251	N	0.322319	0.039733	0.416006
	N252	N	0.916251	0.465278	0.178532
	N253	N	0.086297	0.540312	0.179261
	N254	N	0.085972	0.466174	0.822902
	N255	N	0.915241	0.540412	0.822865
	N256	N	0.178019	0.918137	0.463895
	N257	N	0.178512	0.088406	0.538888
	N258	N	0.822174	0.089183	0.464014
	N259	N	0.823859	0.918457	0.538757
	N260	N	0.464131	0.181808	0.914167
	N261	N	0.538180	0.182263	0.086322
	N262	N	0.463870	0.825068	0.085875
	N263	N	0.538079	0.823774	0.914236
	N264	N	0.463193	0.918310	0.177638
	N265	N	0.537591	0.089286	0.179487
	N266	N	0.463130	0.086687	0.824355
	N267	N	0.538752	0.917734	0.822848
	N268	N	0.915172	0.181427	0.463840
	N269	N	0.085647	0.180915	0.539142
	N270	N	0.086677	0.824444	0.464561
	N271	N	0.915034	0.824573	0.538570
	N272	N	0.179434	0.466101	0.915196
	N273	N	0.179621	0.540256	0.086434
	N274	N	0.821489	0.466017	0.087034
	N275	N	0.822632	0.540357	0.915680
	O276	O	-0.481078	0.456815	1.446589
	H277	H	-0.477175	0.452488	1.436334
	H278	H	-0.473615	0.460259	1.444436
	O279	O	0.559037	0.428789	0.416843
	H280	H	0.556528	0.422048	0.423729
	H281	H	0.564562	0.419668	0.410964
	O282	O	0.880690	0.102171	-0.025151
	H283	H	0.881116	0.103092	-0.026685
	H284	H	0.876635	0.107361	-0.018701
	O285	O	0.570192	0.380229	0.415697
	H286	H	0.565749	0.378414	0.416371
	H287	H	0.572541	0.377723	0.422355
	O288	O	0.537516	0.407687	0.447077
	H289	H	0.531875	0.410254	0.446345
	H290	H	0.542755	0.410573	0.450383
	O291	O	-0.091184	1.137241	0.992410
	H292	H	-0.080910	1.136383	0.989695
	H293	H	-0.093787	1.142723	0.996031
	O294	O	0.540241	0.435489	0.378987
	H295	H	0.537216	0.436703	0.383813
	H296	H	0.541034	0.435570	0.372684
	O297	O	1.015881	0.002138	0.096069
	H298	H	1.010398	0.005108	0.095995
	H299	H	1.018707	0.006838	0.105664
