data_Molecule from HDF5

_cell_length_a		16.181330
_cell_length_b		16.290179
_cell_length_c		16.299736
_cell_angle_alpha	90.029634
_cell_angle_beta	90.022970
_cell_angle_gamma	90.068362
_symmetry_space_group_name_H-M	'P 1'
_symmetry_Int_Tables_number		1

loop_
	_symmetry_equiv_pos_as_xyz
	x,y,z

loop_
	_atom_site_label
	_atom_site_type_symbol
	_atom_site_fract_x
	_atom_site_fract_y
	_atom_site_fract_z
	H0	H	0.398607	0.843349	0.717907
	H1	H	0.596961	0.170396	0.717068
	H2	H	0.596741	0.841864	0.287191
	H3	H	0.398738	0.169384	0.288115
	H4	H	0.709495	0.409765	0.837759
	H5	H	0.711648	0.603992	0.165769
	H6	H	0.285643	0.602859	0.837541
	H7	H	0.283628	0.409756	0.165518
	H8	H	0.833127	0.719093	0.404191
	H9	H	0.162484	0.718512	0.601129
	H10	H	0.832889	0.291480	0.599338
	H11	H	0.163295	0.291514	0.403939
	H12	H	0.831992	0.407029	0.715084
	H13	H	0.161992	0.602917	0.716623
	H14	H	0.832832	0.603554	0.288611
	H15	H	0.162152	0.406450	0.287318
	H16	H	0.398588	0.722123	0.839424
	H17	H	0.596852	0.720918	0.166303
	H18	H	0.595352	0.291557	0.838717
	H19	H	0.396311	0.290398	0.165539
	H20	H	0.709917	0.840713	0.405922
	H21	H	0.711538	0.170182	0.599419
	H22	H	0.285196	0.841226	0.599179
	H23	H	0.283507	0.170008	0.405498
	H24	H	0.897222	0.341899	0.217883
	H25	H	0.097553	0.669790	0.217933
	H26	H	0.095513	0.341447	0.788433
	H27	H	0.898562	0.668717	0.787223
	H28	H	0.211987	0.907401	0.339110
	H29	H	0.211197	0.102232	0.666571
	H30	H	0.784359	0.100832	0.338016
	H31	H	0.783864	0.907765	0.667087
	H32	H	0.332269	0.219501	0.904218
	H33	H	0.661447	0.220472	0.099736
	H34	H	0.332728	0.792887	0.100133
	H35	H	0.662380	0.792965	0.904347
	H36	H	0.332759	0.907661	0.216482
	H37	H	0.662431	0.104475	0.216151
	H38	H	0.332370	0.104144	0.789383
	H39	H	0.661853	0.908469	0.788239
	H40	H	0.898980	0.219689	0.338323
	H41	H	0.097183	0.220350	0.666174
	H42	H	0.097245	0.789755	0.339305
	H43	H	0.899105	0.790447	0.666261
	H44	H	0.211341	0.341920	0.904146
	H45	H	0.210656	0.670851	0.098692
	H46	H	0.783185	0.341435	0.099167
	H47	H	0.783903	0.669775	0.904909
	H48	H	0.402530	0.124785	0.601472
	H49	H	0.587580	0.889332	0.599566
	H50	H	0.597322	0.122721	0.412027
	H51	H	0.408164	0.891436	0.412112
	H52	H	0.589065	0.413243	0.118241
	H53	H	0.598259	0.598620	0.883979
	H54	H	0.402951	0.592552	0.116867
	H55	H	0.406339	0.404414	0.883331
	H56	H	0.113982	0.600864	0.416441
	H57	H	0.879493	0.599258	0.597221
	H58	H	0.114748	0.417604	0.599697
	H59	H	0.881374	0.414118	0.408260
	H60	H	0.117444	0.406214	0.598422
	H61	H	0.880550	0.598593	0.594110
	H62	H	0.112980	0.590675	0.408980
	H63	H	0.880109	0.410213	0.408272
	H64	H	0.411469	0.603720	0.118724
	H65	H	0.585425	0.595221	0.888796
	H66	H	0.589505	0.412866	0.119027
	H67	H	0.397106	0.414716	0.884042
	H68	H	0.589479	0.123375	0.402274
	H69	H	0.589316	0.890472	0.595053
	H70	H	0.409844	0.120978	0.595493
	H71	H	0.399985	0.888266	0.410336
	H72	H	0.907180	0.621571	0.096346
	H73	H	0.089833	0.390694	0.093044
	H74	H	0.087258	0.622169	0.905642
	H75	H	0.908950	0.390535	0.911210
	H76	H	0.085706	0.902441	0.620862
	H77	H	0.089608	0.092190	0.388590
	H78	H	0.907031	0.102887	0.619163
	H79	H	0.907521	0.913731	0.388451
	H80	H	0.610840	0.095186	0.917457
	H81	H	0.381424	0.089811	0.099704
	H82	H	0.614752	0.914960	0.097039
	H83	H	0.381355	0.913538	0.913011
	H84	H	0.615947	0.911353	0.097115
	H85	H	0.375626	0.106195	0.101789
	H86	H	0.615372	0.094888	0.901411
	H87	H	0.380482	0.916629	0.909323
	H88	H	0.901190	0.099408	0.619811
	H89	H	0.085173	0.101577	0.386409
	H90	H	0.100483	0.910525	0.621734
	H91	H	0.904686	0.907702	0.384901
	H92	H	0.090393	0.621529	0.911830
	H93	H	0.090931	0.389160	0.095759
	H94	H	0.903974	0.621444	0.094462
	H95	H	0.897744	0.387534	0.911298
	H96	H	0.400451	0.123063	0.592228
	H97	H	0.591819	0.888702	0.598112
	H98	H	0.586061	0.119538	0.413153
	H99	H	0.406189	0.888688	0.404510
	H100	H	0.589312	0.413341	0.117871
	H101	H	0.587708	0.607829	0.884563
	H102	H	0.397955	0.604565	0.121604
	H103	H	0.410052	0.416582	0.888372
	H104	H	0.117638	0.601378	0.404729
	H105	H	0.880508	0.596449	0.596344
	H106	H	0.112679	0.412727	0.589638
	H107	H	0.881547	0.412158	0.411469
	H108	H	0.904063	0.622815	0.097686
	H109	H	0.087684	0.390645	0.095593
	H110	H	0.094034	0.624401	0.906241
	H111	H	0.903733	0.387643	0.901599
	H112	H	0.087063	0.918711	0.616385
	H113	H	0.095265	0.100113	0.384297
	H114	H	0.906380	0.096372	0.616923
	H115	H	0.900585	0.913401	0.386325
	H116	H	0.617536	0.109035	0.910685
	H117	H	0.382444	0.100765	0.086248
	H118	H	0.614931	0.912762	0.094205
	H119	H	0.379723	0.911710	0.908469
	C120	C	0.376087	0.014520	0.624270
	C121	C	0.618583	0.998009	0.624706
	C122	C	0.618917	0.013596	0.381196
	C123	C	0.375824	0.997564	0.380975
	C124	C	0.617927	0.384582	0.010291
	C125	C	0.619101	0.628548	0.994069
	C126	C	0.376226	0.628034	0.010524
	C127	C	0.375331	0.383838	0.993643
	C128	C	0.006167	0.626248	0.381379
	C129	C	0.989021	0.625918	0.623763
	C130	C	0.005836	0.383800	0.624185
	C131	C	0.989890	0.383811	0.380826
	C132	C	0.875857	0.513748	0.124218
	C133	C	0.118623	0.498267	0.123605
	C134	C	0.118573	0.513881	0.880150
	C135	C	0.875428	0.497197	0.880418
	C136	C	0.119724	0.882826	0.511324
	C137	C	0.118808	0.126644	0.494285
	C138	C	0.875605	0.127290	0.510485
	C139	C	0.875506	0.883147	0.494824
	C140	C	0.505569	0.127839	0.881181
	C141	C	0.488400	0.127777	0.124441
	C142	C	0.506010	0.884795	0.124038
	C143	C	0.489117	0.885220	0.881355
	C144	C	0.378398	0.891637	0.679699
	C145	C	0.616978	0.121489	0.679092
	C146	C	0.616195	0.890295	0.326151
	C147	C	0.377828	0.120671	0.325995
	C148	C	0.672152	0.388418	0.886751
	C149	C	0.674098	0.625187	0.117163
	C150	C	0.322737	0.624201	0.886797
	C151	C	0.320514	0.387855	0.116792
	C152	C	0.882087	0.681477	0.383624
	C153	C	0.113260	0.680790	0.621422
	C154	C	0.881819	0.329418	0.620083
	C155	C	0.113818	0.329044	0.383368
	C156	C	0.881484	0.386526	0.677985
	C157	C	0.113077	0.623687	0.678897
	C158	C	0.882008	0.623649	0.326455
	C159	C	0.113236	0.385973	0.325264
	C160	C	0.378859	0.683289	0.887706
	C161	C	0.616796	0.683133	0.117293
	C162	C	0.615584	0.329629	0.887268
	C163	C	0.376855	0.328848	0.116741
	C164	C	0.672654	0.889715	0.384982
	C165	C	0.673849	0.121291	0.620743
	C166	C	0.322192	0.890637	0.620602
	C167	C	0.320912	0.120894	0.384455
	C168	C	0.877706	0.390633	0.179426
	C169	C	0.117087	0.621093	0.179432
	C170	C	0.116004	0.390549	0.825936
	C171	C	0.878245	0.620262	0.825590
	C172	C	0.174392	0.886338	0.387897
	C173	C	0.173379	0.123437	0.617915
	C174	C	0.821324	0.123012	0.386965
	C175	C	0.821403	0.886756	0.618209
	C176	C	0.381435	0.181838	0.884091
	C177	C	0.612563	0.182549	0.121123
	C178	C	0.381968	0.829909	0.121442
	C179	C	0.613139	0.830704	0.884079
	C180	C	0.381938	0.886995	0.179034
	C181	C	0.612801	0.125003	0.178854
	C182	C	0.381678	0.124967	0.826475
	C183	C	0.612967	0.888105	0.826412
	C184	C	0.878690	0.181482	0.387005
	C185	C	0.116971	0.182217	0.617435
	C186	C	0.117277	0.827978	0.387997
	C187	C	0.878613	0.828513	0.617736
	C188	C	0.173437	0.390616	0.883623
	C189	C	0.173439	0.621718	0.120285
	C190	C	0.820675	0.390379	0.120645
	C191	C	0.821472	0.620823	0.883957
	C192	C	0.397798	0.100862	0.602664
	C193	C	0.596300	0.911893	0.603639
	C194	C	0.597329	0.099612	0.402782
	C195	C	0.398157	0.911858	0.402583
	C196	C	0.595732	0.406632	0.096345
	C197	C	0.597193	0.607098	0.907950
	C198	C	0.397747	0.606454	0.096711
	C199	C	0.397774	0.405528	0.907447
	C200	C	0.092654	0.604105	0.403462
	C201	C	0.902480	0.604503	0.602105
	C202	C	0.092545	0.405778	0.602530
	C203	C	0.903145	0.405667	0.403081
	C204	C	0.898400	0.599689	0.102479
	C205	C	0.096084	0.412307	0.101404
	C206	C	0.096793	0.600365	0.901608
	C207	C	0.896911	0.410797	0.901912
	C208	C	0.097605	0.904168	0.597438
	C209	C	0.096506	0.104522	0.408663
	C210	C	0.897917	0.105908	0.596438
	C211	C	0.897755	0.905112	0.408953
	C212	C	0.592209	0.106047	0.903259
	C213	C	0.402132	0.105570	0.102417
	C214	C	0.592717	0.906605	0.102325
	C215	C	0.402859	0.907419	0.903593
	Zn216	Zn	0.497375	0.007012	0.753397
	Zn217	Zn	0.497408	0.005599	0.252140
	Zn218	Zn	0.746842	0.505876	0.002367
	Zn219	Zn	0.247523	0.506222	0.001706
	Zn220	Zn	-0.002088	0.754220	0.502580
	Zn221	Zn	-0.001848	0.255778	0.502201
	Zn222	Zn	-0.002995	0.505127	0.751837
	Zn223	Zn	-0.002120	0.505290	0.252924
	Zn224	Zn	0.497408	0.757143	0.003163
	Zn225	Zn	0.496719	0.255756	0.002199
	Zn226	Zn	0.747235	0.005150	0.503077
	Zn227	Zn	0.247201	0.005466	0.502926
	N228	N	0.411141	0.969634	0.682041
	N229	N	0.583165	0.043938	0.681562
	N230	N	0.583769	0.968192	0.323499
	N231	N	0.411218	0.043198	0.323610
	N232	N	0.673706	0.421756	0.964298
	N233	N	0.675679	0.591964	0.039602
	N234	N	0.321045	0.590470	0.964128
	N235	N	0.319636	0.421267	0.039246
	N236	N	0.960120	0.683027	0.417122
	N237	N	0.035309	0.682189	0.587559
	N238	N	0.960045	0.327711	0.587265
	N239	N	0.035825	0.327614	0.417183
	N240	N	0.959820	0.419578	0.680372
	N241	N	0.035058	0.590124	0.680390
	N242	N	0.960170	0.590337	0.324799
	N243	N	0.035143	0.419098	0.323641
	N244	N	0.411726	0.685547	0.965553
	N245	N	0.583375	0.685182	0.039645
	N246	N	0.582485	0.327301	0.965120
	N247	N	0.410180	0.326350	0.039109
	N248	N	0.674582	0.967437	0.418401
	N249	N	0.675071	0.043485	0.587788
	N250	N	0.320496	0.968011	0.586885
	N251	N	0.319289	0.043283	0.417758
	N252	N	0.910998	0.468394	0.181904
	N253	N	0.083569	0.543306	0.181374
	N254	N	0.082756	0.468222	0.823841
	N255	N	0.910931	0.542291	0.823176
	N256	N	0.175927	0.919680	0.465498
	N257	N	0.174468	0.089555	0.540803
	N258	N	0.819542	0.089897	0.464507
	N259	N	0.819496	0.920006	0.540727
	N260	N	0.459430	0.183751	0.917431
	N261	N	0.534377	0.184372	0.087896
	N262	N	0.459985	0.828465	0.088171
	N263	N	0.535207	0.828894	0.917671
	N264	N	0.460218	0.920292	0.180842
	N265	N	0.534638	0.091747	0.181135
	N266	N	0.460020	0.092050	0.824699
	N267	N	0.534915	0.921511	0.824773
	N268	N	0.911403	0.184488	0.464853
	N269	N	0.083643	0.184226	0.539537
	N270	N	0.084104	0.825647	0.465637
	N271	N	0.911637	0.826136	0.539958
	N272	N	0.175322	0.468425	0.916451
	N273	N	0.174626	0.544344	0.086305
	N274	N	0.819264	0.467989	0.087187
	N275	N	0.819675	0.543280	0.917482
	O276	O	-0.032665	0.017450	1.079054
	H277	H	-0.032003	0.016284	1.074677
	H278	H	-0.044177	0.017264	1.088585
	O279	O	0.549820	0.473124	0.394880
	H280	H	0.552333	0.465305	0.390826
	H281	H	0.555240	0.465543	0.399565
	O282	O	0.929317	-0.000115	0.065529
	H283	H	0.932036	-0.003779	0.066061
	H284	H	0.935779	0.002480	0.056206
	O285	O	0.553063	0.502277	0.415788
	H286	H	0.551463	0.501441	0.411386
	H287	H	0.551989	0.510432	0.411802
	O288	O	0.561011	0.452412	0.424540
	H289	H	0.551710	0.453639	0.422436
	H290	H	0.566698	0.453860	0.425857
	O291	O	-0.049424	1.008923	1.099239
	H292	H	-0.049681	0.995089	1.095418
	H293	H	-0.063904	1.015661	1.108808
	O294	O	0.568682	0.473983	0.392610
	H295	H	0.587940	0.474032	0.389246
	H296	H	0.559880	0.476596	0.386720
	O297	O	0.980027	0.017065	0.046090
	H298	H	0.997686	0.027259	0.048575
	H299	H	0.975016	0.017106	0.051087
