data_Molecule from HDF5

_cell_length_a		16.237007
_cell_length_b		16.220725
_cell_length_c		16.252574
_cell_angle_alpha	90.048486
_cell_angle_beta	90.012333
_cell_angle_gamma	89.776675
_symmetry_space_group_name_H-M	'P 1'
_symmetry_Int_Tables_number		1

loop_
	_symmetry_equiv_pos_as_xyz
	x,y,z

loop_
	_atom_site_label
	_atom_site_type_symbol
	_atom_site_fract_x
	_atom_site_fract_y
	_atom_site_fract_z
	H0	H	0.399126	0.821207	0.716940
	H1	H	0.595661	0.149656	0.715546
	H2	H	0.597006	0.822858	0.286293
	H3	H	0.397662	0.150110	0.289213
	H4	H	0.711926	0.386353	0.837741
	H5	H	0.711149	0.584633	0.165223
	H6	H	0.281914	0.585102	0.837487
	H7	H	0.283889	0.388127	0.165932
	H8	H	0.833021	0.700772	0.403440
	H9	H	0.161756	0.698462	0.599496
	H10	H	0.832238	0.272685	0.599544
	H11	H	0.160568	0.270215	0.402097
	H12	H	0.832674	0.386788	0.716179
	H13	H	0.160938	0.583428	0.715636
	H14	H	0.832828	0.585643	0.286630
	H15	H	0.160797	0.386193	0.286698
	H16	H	0.398287	0.701529	0.837617
	H17	H	0.594240	0.700015	0.165723
	H18	H	0.595885	0.271190	0.837373
	H19	H	0.397678	0.272197	0.165316
	H20	H	0.711645	0.822311	0.402912
	H21	H	0.710985	0.149398	0.601354
	H22	H	0.283945	0.820483	0.600354
	H23	H	0.281950	0.148939	0.403884
	H24	H	0.898167	0.321815	0.215604
	H25	H	0.094119	0.650213	0.215288
	H26	H	0.096392	0.321096	0.787187
	H27	H	0.897030	0.650704	0.787301
	H28	H	0.212628	0.884403	0.337734
	H29	H	0.211176	0.082804	0.665981
	H30	H	0.780987	0.085166	0.338649
	H31	H	0.783407	0.887120	0.664993
	H32	H	0.332847	0.200976	0.902537
	H33	H	0.661661	0.200288	0.100160
	H34	H	0.333542	0.772976	0.100396
	H35	H	0.661659	0.772071	0.903479
	H36	H	0.333493	0.888898	0.216103
	H37	H	0.661047	0.085942	0.217052
	H38	H	0.333870	0.085399	0.786645
	H39	H	0.661737	0.886891	0.788284
	H40	H	0.897625	0.199270	0.337260
	H41	H	0.095469	0.199597	0.665332
	H42	H	0.096070	0.770405	0.337440
	H43	H	0.898741	0.771947	0.665026
	H44	H	0.212317	0.321688	0.902875
	H45	H	0.209986	0.650313	0.100397
	H46	H	0.784069	0.321251	0.098190
	H47	H	0.781899	0.650071	0.902284
	H48	H	0.397174	0.102157	0.589306
	H49	H	0.601137	0.866789	0.587032
	H50	H	0.589050	0.106910	0.400728
	H51	H	0.402903	0.864904	0.399004
	H52	H	0.582791	0.396056	0.115116
	H53	H	0.599839	0.579161	0.881280
	H54	H	0.404513	0.588856	0.121001
	H55	H	0.409835	0.394910	0.886137
	H56	H	0.113273	0.571865	0.405004
	H57	H	0.879099	0.582358	0.593864
	H58	H	0.113102	0.398050	0.597081
	H59	H	0.881280	0.393897	0.412882
	H60	H	0.116045	0.388305	0.597759
	H61	H	0.880930	0.577221	0.592459
	H62	H	0.116770	0.582959	0.403399
	H63	H	0.880578	0.397829	0.404140
	H64	H	0.395951	0.575905	0.118944
	H65	H	0.584712	0.570460	0.888508
	H66	H	0.591514	0.384759	0.120961
	H67	H	0.402083	0.388376	0.882807
	H68	H	0.581901	0.099816	0.413388
	H69	H	0.592723	0.864163	0.607736
	H70	H	0.403954	0.104657	0.601689
	H71	H	0.414445	0.870784	0.410120
	H72	H	0.894037	0.606062	0.094394
	H73	H	0.095953	0.366354	0.094993
	H74	H	0.090723	0.602396	0.912335
	H75	H	0.910216	0.368146	0.900491
	H76	H	0.093315	0.887676	0.620196
	H77	H	0.100206	0.077568	0.382244
	H78	H	0.903750	0.091857	0.621500
	H79	H	0.908766	0.884166	0.382328
	H80	H	0.613637	0.072250	0.904473
	H81	H	0.380617	0.078338	0.097671
	H82	H	0.613679	0.900196	0.096987
	H83	H	0.376585	0.892853	0.896894
	H84	H	0.617315	0.887873	0.097968
	H85	H	0.379104	0.082432	0.095322
	H86	H	0.617819	0.085773	0.904488
	H87	H	0.380270	0.885650	0.916684
	H88	H	0.893458	0.072415	0.619910
	H89	H	0.086188	0.069448	0.389042
	H90	H	0.093650	0.896364	0.617608
	H91	H	0.894792	0.895615	0.382873
	H92	H	0.091816	0.604578	0.904851
	H93	H	0.086119	0.369464	0.098305
	H94	H	0.908930	0.604730	0.102215
	H95	H	0.907612	0.372956	0.916132
	H96	H	0.411648	0.098570	0.589931
	H97	H	0.579425	0.872879	0.590980
	H98	H	0.597307	0.104563	0.414512
	H99	H	0.398421	0.868147	0.414845
	H100	H	0.597005	0.398499	0.118737
	H101	H	0.583750	0.588303	0.883139
	H102	H	0.410660	0.575693	0.114962
	H103	H	0.400949	0.398110	0.884683
	H104	H	0.112234	0.579980	0.413551
	H105	H	0.879866	0.577857	0.597457
	H106	H	0.111428	0.391900	0.588240
	H107	H	0.877836	0.389771	0.405308
	H108	H	0.907005	0.599460	0.085896
	H109	H	0.088271	0.370268	0.088224
	H110	H	0.084447	0.601545	0.907708
	H111	H	0.895469	0.366060	0.907504
	H112	H	0.086061	0.891242	0.617264
	H113	H	0.084653	0.086499	0.383373
	H114	H	0.914565	0.074297	0.614210
	H115	H	0.910779	0.900700	0.388490
	H116	H	0.611723	0.079499	0.916684
	H117	H	0.381237	0.078503	0.092695
	H118	H	0.612612	0.893044	0.087216
	H119	H	0.384702	0.906325	0.911855
	C120	C	0.375883	-0.006409	0.623100
	C121	C	0.619357	0.976544	0.623619
	C122	C	0.618713	-0.004806	0.380631
	C123	C	0.375978	0.976469	0.379983
	C124	C	0.618912	0.364179	0.010108
	C125	C	0.617955	0.607641	0.992717
	C126	C	0.374799	0.608719	0.010054
	C127	C	0.375667	0.365047	0.992877
	C128	C	0.005633	0.607478	0.378988
	C129	C	0.988791	0.607358	0.622861
	C130	C	0.005164	0.364351	0.622971
	C131	C	0.987982	0.364204	0.379085
	C132	C	0.875210	0.494665	0.122555
	C133	C	0.118476	0.477194	0.122813
	C134	C	0.118652	0.494183	0.879688
	C135	C	0.875315	0.477614	0.879391
	C136	C	0.119509	0.863033	0.509813
	C137	C	0.119034	0.106576	0.493192
	C138	C	0.875275	0.107674	0.510040
	C139	C	0.876119	0.864754	0.492683
	C140	C	0.505937	0.107934	0.879823
	C141	C	0.488747	0.108348	0.123679
	C142	C	0.506023	0.865475	0.123195
	C143	C	0.489037	0.865426	0.879919
	C144	C	0.378578	0.870018	0.678754
	C145	C	0.616291	0.100468	0.678230
	C146	C	0.617076	0.871801	0.324702
	C147	C	0.377488	0.100749	0.326550
	C148	C	0.673718	0.366308	0.886523
	C149	C	0.672835	0.604853	0.116474
	C150	C	0.319663	0.605809	0.886449
	C151	C	0.320948	0.367701	0.116648
	C152	C	0.882054	0.663196	0.382223
	C153	C	0.112426	0.661591	0.620215
	C154	C	0.881358	0.310010	0.620049
	C155	C	0.111653	0.308494	0.381878
	C156	C	0.881501	0.366871	0.678028
	C157	C	0.111972	0.604306	0.677905
	C158	C	0.881914	0.605962	0.324422
	C159	C	0.111721	0.365879	0.324272
	C160	C	0.377375	0.663710	0.886456
	C161	C	0.615078	0.662275	0.116628
	C162	C	0.616330	0.308861	0.886565
	C163	C	0.377882	0.310305	0.116433
	C164	C	0.674029	0.871547	0.382398
	C165	C	0.673603	0.100330	0.621512
	C166	C	0.321374	0.869734	0.621029
	C167	C	0.320112	0.100088	0.383368
	C168	C	0.877916	0.370628	0.177361
	C169	C	0.115080	0.600896	0.177795
	C170	C	0.116628	0.370501	0.824743
	C171	C	0.877022	0.601259	0.824426
	C172	C	0.174495	0.864971	0.386666
	C173	C	0.173895	0.103822	0.616763
	C174	C	0.819368	0.105344	0.387311
	C175	C	0.821458	0.867162	0.616196
	C176	C	0.382205	0.163176	0.882185
	C177	C	0.612411	0.162723	0.120654
	C178	C	0.382320	0.810912	0.120585
	C179	C	0.612605	0.810245	0.883266
	C180	C	0.382393	0.868385	0.178179
	C181	C	0.612116	0.105852	0.178915
	C182	C	0.382714	0.106152	0.824058
	C183	C	0.612568	0.866938	0.825496
	C184	C	0.877221	0.162357	0.386691
	C185	C	0.116286	0.161897	0.616364
	C186	C	0.116912	0.807984	0.386424
	C187	C	0.878688	0.809737	0.615960
	C188	C	0.174361	0.370776	0.882306
	C189	C	0.172922	0.600886	0.120963
	C190	C	0.821093	0.370445	0.119379
	C191	C	0.819907	0.601210	0.881957
	C192	C	0.397894	0.079482	0.600429
	C193	C	0.597613	0.890199	0.601604
	C194	C	0.596157	0.081307	0.402941
	C195	C	0.398526	0.890300	0.401539
	C196	C	0.597124	0.386586	0.095942
	C197	C	0.596147	0.585879	0.906598
	C198	C	0.397177	0.586666	0.096204
	C199	C	0.397750	0.387194	0.906841
	C200	C	0.091850	0.584955	0.400856
	C201	C	0.902324	0.585505	0.600833
	C202	C	0.091344	0.386283	0.600830
	C203	C	0.902094	0.387010	0.401012
	C204	C	0.896851	0.580978	0.100769
	C205	C	0.096496	0.390880	0.100278
	C206	C	0.095774	0.580564	0.901791
	C207	C	0.897690	0.391402	0.901623
	C208	C	0.097382	0.885059	0.596199
	C209	C	0.096985	0.084362	0.407033
	C210	C	0.897295	0.085993	0.596340
	C211	C	0.898137	0.887060	0.406676
	C212	C	0.592046	0.085691	0.901949
	C213	C	0.402563	0.086181	0.101729
	C214	C	0.592373	0.887338	0.100881
	C215	C	0.402645	0.888165	0.902036
	Zn216	Zn	0.497866	-0.014235	0.751157
	Zn217	Zn	0.497496	-0.013339	0.252085
	Zn218	Zn	0.747117	0.486160	0.001147
	Zn219	Zn	0.247232	0.486122	0.001702
	Zn220	Zn	-0.002585	0.736020	0.501221
	Zn221	Zn	-0.003162	0.235920	0.501395
	Zn222	Zn	-0.003727	0.485592	0.751110
	Zn223	Zn	-0.003487	0.485630	0.250756
	Zn224	Zn	0.497370	0.737326	0.001303
	Zn225	Zn	0.496829	0.236617	0.001801
	Zn226	Zn	0.746954	-0.013981	0.502199
	Zn227	Zn	0.247810	-0.015773	0.501747
	N228	N	0.411804	0.947971	0.680048
	N229	N	0.583112	0.022650	0.679512
	N230	N	0.583345	0.949631	0.323489
	N231	N	0.411519	0.023037	0.324033
	N232	N	0.675565	0.400170	0.964157
	N233	N	0.674754	0.571591	0.038597
	N234	N	0.318042	0.572458	0.964277
	N235	N	0.319623	0.401217	0.038911
	N236	N	0.959875	0.664030	0.415789
	N237	N	0.034575	0.663610	0.586654
	N238	N	0.959274	0.308255	0.586608
	N239	N	0.033948	0.307350	0.415386
	N240	N	0.959445	0.399713	0.680080
	N241	N	0.034053	0.571443	0.679551
	N242	N	0.959746	0.572196	0.322296
	N243	N	0.033992	0.400004	0.322587
	N244	N	0.410865	0.665731	0.964283
	N245	N	0.581664	0.663967	0.038875
	N246	N	0.582792	0.307635	0.964301
	N247	N	0.411246	0.308425	0.038551
	N248	N	0.675380	0.949206	0.416442
	N249	N	0.675690	0.022391	0.588127
	N250	N	0.319398	0.947512	0.587444
	N251	N	0.318787	0.021792	0.415959
	N252	N	0.910589	0.448697	0.179451
	N253	N	0.081935	0.522828	0.179045
	N254	N	0.082585	0.448367	0.823153
	N255	N	0.910877	0.523318	0.822687
	N256	N	0.176044	0.898608	0.464513
	N257	N	0.175767	0.070251	0.539070
	N258	N	0.818084	0.072022	0.465045
	N259	N	0.819892	0.900923	0.538583
	N260	N	0.459783	0.164627	0.915866
	N261	N	0.534599	0.164394	0.087086
	N262	N	0.460204	0.808929	0.087124
	N263	N	0.534556	0.809118	0.916395
	N264	N	0.460313	0.901420	0.179705
	N265	N	0.534232	0.072812	0.180885
	N266	N	0.460654	0.072409	0.822385
	N267	N	0.534713	0.900545	0.823424
	N268	N	0.911223	0.163873	0.464183
	N269	N	0.082609	0.163550	0.538593
	N270	N	0.083569	0.806618	0.464080
	N271	N	0.912203	0.808224	0.538151
	N272	N	0.175775	0.448817	0.915602
	N273	N	0.175060	0.523037	0.087359
	N274	N	0.819464	0.448430	0.085724
	N275	N	0.818681	0.523395	0.915424
	O276	O	1.007795	0.944913	0.053385
	H277	H	1.011550	0.938066	0.049993
	H278	H	1.007206	0.946693	0.046723
	O279	O	0.057250	-0.045146	-0.044838
	H280	H	0.056428	-0.040370	-0.049063
	H281	H	0.063496	-0.043736	-0.048503
	O282	O	0.000123	-0.081036	0.936281
	H283	H	-0.001202	-0.074394	0.938552
	H284	H	0.001388	-0.082660	0.934427
	O285	O	1.505062	1.420491	0.523207
	H286	H	1.510884	1.423405	0.522250
	H287	H	1.501763	1.415718	0.534747
	O288	O	0.048947	0.985228	0.055011
	H289	H	0.058022	0.978644	0.051772
	H290	H	0.045873	0.984980	0.057151
	O291	O	0.497944	0.400031	0.533667
	H292	H	0.499468	0.402423	0.536176
	H293	H	0.501559	0.407508	0.531066
	O294	O	-0.040289	-0.047794	0.047376
	H295	H	-0.045201	-0.050204	0.050239
	H296	H	-0.043449	-0.058401	0.048707
	O297	O	0.057939	0.983715	1.010415
	H298	H	0.066516	0.987465	1.008357
	H299	H	0.058271	0.984789	1.003635
	O300	O	0.000157	1.034744	0.991627
	H301	H	-0.002342	1.036409	0.993263
	H302	H	0.003285	1.038340	0.984957
	O303	O	0.461971	0.416352	0.550941
	H304	H	0.453135	0.407008	0.548111
	H305	H	0.456144	0.413601	0.559257
	O306	O	0.038441	-0.010561	1.030317
	H307	H	0.027959	-0.012159	1.039325
	H308	H	0.045036	-0.009603	1.033545
	O309	O	0.994607	0.976006	0.950031
	H310	H	0.996198	0.979370	0.951975
	H311	H	0.996111	0.973707	0.953263
	O312	O	0.450788	0.382890	0.541278
	H313	H	0.442630	0.374982	0.544713
	H314	H	0.445436	0.385670	0.544727
	O315	O	0.493878	0.458654	0.548635
	H316	H	0.497505	0.456293	0.543503
	H317	H	0.505439	0.455790	0.545590
	O318	O	0.493569	1.447395	-0.441591
	H319	H	0.488311	1.448447	-0.445447
	H320	H	0.494687	1.445673	-0.442733
	O321	O	1.029007	1.004368	-0.055831
	H322	H	1.023077	1.004663	-0.051166
	H323	H	1.025574	1.000296	-0.056237
