data_Molecule from HDF5

_cell_length_a		16.295936
_cell_length_b		16.291673
_cell_length_c		16.446930
_cell_angle_alpha	89.942115
_cell_angle_beta	89.888422
_cell_angle_gamma	89.930438
_symmetry_space_group_name_H-M	'P 1'
_symmetry_Int_Tables_number		1

loop_
	_symmetry_equiv_pos_as_xyz
	x,y,z

loop_
	_atom_site_label
	_atom_site_type_symbol
	_atom_site_fract_x
	_atom_site_fract_y
	_atom_site_fract_z
	H0	H	0.377596	0.845359	0.715664
	H1	H	0.593593	0.163008	0.713777
	H2	H	0.593679	0.843127	0.270650
	H3	H	0.384288	0.163384	0.271898
	H4	H	0.706938	0.399248	0.832715
	H5	H	0.704486	0.606387	0.151977
	H6	H	0.264465	0.607332	0.832290
	H7	H	0.263381	0.395992	0.150295
	H8	H	0.824612	0.724592	0.389020
	H9	H	0.145838	0.723461	0.596576
	H10	H	0.823381	0.285432	0.594343
	H11	H	0.146043	0.285691	0.389970
	H12	H	0.823303	0.400462	0.710936
	H13	H	0.143762	0.610020	0.714485
	H14	H	0.824281	0.609740	0.272207
	H15	H	0.143411	0.395101	0.268351
	H16	H	0.379534	0.725957	0.833862
	H17	H	0.590206	0.723767	0.151532
	H18	H	0.589911	0.283278	0.832141
	H19	H	0.382306	0.282913	0.151041
	H20	H	0.707327	0.843695	0.387904
	H21	H	0.700770	0.166988	0.590816
	H22	H	0.263558	0.844604	0.598426
	H23	H	0.268345	0.164242	0.387074
	H24	H	0.880513	0.343672	0.211736
	H25	H	0.089749	0.663678	0.212129
	H26	H	0.088350	0.343928	0.771386
	H27	H	0.877762	0.665210	0.773008
	H28	H	0.207595	0.898473	0.332580
	H29	H	0.208161	0.108118	0.650031
	H30	H	0.767964	0.108574	0.331735
	H31	H	0.763758	0.899863	0.650622
	H32	H	0.325460	0.222177	0.887659
	H33	H	0.646703	0.219156	0.092074
	H34	H	0.324022	0.787400	0.093380
	H35	H	0.647159	0.782950	0.889542
	H36	H	0.327107	0.896657	0.213711
	H37	H	0.646599	0.105411	0.208206
	H38	H	0.326819	0.108319	0.771001
	H39	H	0.645766	0.894130	0.768612
	H40	H	0.883724	0.223980	0.332959
	H41	H	0.089430	0.222895	0.651792
	H42	H	0.091618	0.781894	0.333598
	H43	H	0.880093	0.782991	0.651475
	H44	H	0.203422	0.342277	0.888256
	H45	H	0.204298	0.663551	0.094704
	H46	H	0.768551	0.342269	0.093641
	H47	H	0.766583	0.666331	0.892585
	H48	H	0.400774	0.114633	0.575050
	H49	H	0.572248	0.889837	0.581187
	H50	H	0.576813	0.121192	0.392055
	H51	H	0.403172	0.889158	0.397369
	H52	H	0.570221	0.411024	0.103790
	H53	H	0.580982	0.589210	0.877742
	H54	H	0.392023	0.587599	0.104332
	H55	H	0.389002	0.411586	0.875160
	H56	H	0.098113	0.586806	0.399000
	H57	H	0.867961	0.599650	0.583914
	H58	H	0.099441	0.414845	0.583439
	H59	H	0.869651	0.414625	0.400380
	H60	H	0.099420	0.414888	0.582599
	H61	H	0.872374	0.592451	0.576873
	H62	H	0.100802	0.595549	0.400462
	H63	H	0.870159	0.412990	0.403235
	H64	H	0.400158	0.594910	0.104914
	H65	H	0.568960	0.586984	0.883221
	H66	H	0.578785	0.405456	0.108875
	H67	H	0.396171	0.419133	0.880955
	H68	H	0.571970	0.116671	0.400244
	H69	H	0.574681	0.890785	0.578398
	H70	H	0.394267	0.119271	0.581195
	H71	H	0.398325	0.890581	0.408550
	H72	H	0.888451	0.623081	0.086495
	H73	H	0.079944	0.387742	0.077428
	H74	H	0.071089	0.618989	0.897146
	H75	H	0.898385	0.391934	0.907665
	H76	H	0.071515	0.915529	0.603946
	H77	H	0.074704	0.101714	0.376051
	H78	H	0.898299	0.094485	0.605853
	H79	H	0.903151	0.916511	0.380928
	H80	H	0.604752	0.097504	0.894048
	H81	H	0.372398	0.084250	0.081720
	H82	H	0.597906	0.919647	0.080252
	H83	H	0.370966	0.913463	0.900971
	H84	H	0.604358	0.912160	0.087748
	H85	H	0.366785	0.094564	0.089112
	H86	H	0.599690	0.096161	0.910485
	H87	H	0.374364	0.914994	0.906977
	H88	H	0.892394	0.097480	0.607644
	H89	H	0.083629	0.091067	0.376905
	H90	H	0.076205	0.912890	0.605897
	H91	H	0.896099	0.907761	0.376952
	H92	H	0.069507	0.614271	0.908079
	H93	H	0.072410	0.386438	0.089510
	H94	H	0.901317	0.618223	0.087177
	H95	H	0.888696	0.387149	0.900709
	H96	H	0.403453	0.116521	0.584601
	H97	H	0.575579	0.888815	0.581351
	H98	H	0.582138	0.121146	0.401011
	H99	H	0.392174	0.885818	0.399594
	H100	H	0.579738	0.416274	0.105818
	H101	H	0.572038	0.598788	0.877954
	H102	H	0.390493	0.598091	0.108016
	H103	H	0.399700	0.408132	0.877745
	H104	H	0.097335	0.590811	0.406952
	H105	H	0.869984	0.589156	0.586993
	H106	H	0.099173	0.415524	0.582943
	H107	H	0.870650	0.416661	0.402887
	H108	H	0.893897	0.617627	0.075327
	H109	H	0.066843	0.391963	0.077772
	H110	H	0.079714	0.619670	0.904316
	H111	H	0.899964	0.389387	0.895427
	H112	H	0.076407	0.918456	0.604704
	H113	H	0.070839	0.089952	0.381546
	H114	H	0.892609	0.090944	0.605562
	H115	H	0.891953	0.918971	0.378633
	H116	H	0.597960	0.082469	0.900252
	H117	H	0.370839	0.097041	0.076052
	H118	H	0.601632	0.908482	0.075996
	H119	H	0.374040	0.920194	0.902091
	C120	C	0.365105	0.012068	0.613435
	C121	C	0.606265	0.996029	0.611919
	C122	C	0.608751	0.012890	0.367811
	C123	C	0.366103	0.994599	0.370204
	C124	C	0.607876	0.380246	0.000424
	C125	C	0.605862	0.623713	0.984649
	C126	C	0.362846	0.625224	0.000510
	C127	C	0.363058	0.380596	0.982835
	C128	C	-0.006730	0.624523	0.370798
	C129	C	0.976063	0.625901	0.614186
	C130	C	-0.007107	0.383196	0.613875
	C131	C	0.976270	0.382696	0.370580
	C132	C	0.863601	0.513181	0.113906
	C133	C	0.105739	0.494497	0.113398
	C134	C	0.105593	0.512036	0.870787
	C135	C	0.863248	0.496080	0.871082
	C136	C	0.107645	0.882748	0.500393
	C137	C	0.108304	0.125888	0.483173
	C138	C	0.864142	0.125880	0.500614
	C139	C	0.864275	0.882460	0.483640
	C140	C	0.494996	0.124236	0.869872
	C141	C	0.476628	0.123162	0.112212
	C142	C	0.495100	0.881663	0.113370
	C143	C	0.478359	0.882282	0.870613
	C144	C	0.360761	0.892935	0.674737
	C145	C	0.609671	0.115978	0.672231
	C146	C	0.611480	0.891642	0.309808
	C147	C	0.365245	0.115385	0.311336
	C148	C	0.667321	0.380084	0.880507
	C149	C	0.664728	0.624804	0.104500
	C150	C	0.303727	0.626409	0.880502
	C151	C	0.303462	0.378094	0.102619
	C152	C	0.872784	0.685181	0.369830
	C153	C	0.097352	0.684421	0.615292
	C154	C	0.871873	0.324384	0.614015
	C155	C	0.097358	0.323828	0.369655
	C156	C	0.871639	0.381671	0.671947
	C157	C	0.096274	0.627944	0.674079
	C158	C	0.872608	0.627881	0.311665
	C159	C	0.095952	0.378788	0.309430
	C160	C	0.361138	0.685359	0.881149
	C161	C	0.608043	0.683711	0.103967
	C162	C	0.608969	0.322280	0.880281
	C163	C	0.362772	0.321716	0.103051
	C164	C	0.668019	0.891718	0.368304
	C165	C	0.663626	0.117838	0.611425
	C166	C	0.303777	0.892633	0.616270
	C167	C	0.307730	0.115990	0.368901
	C168	C	0.862275	0.391707	0.172244
	C169	C	0.107972	0.615241	0.172645
	C170	C	0.107132	0.391511	0.811168
	C171	C	0.860435	0.617181	0.812544
	C172	C	0.167972	0.880161	0.380584
	C173	C	0.168165	0.127319	0.602663
	C174	C	0.806760	0.126974	0.380003
	C175	C	0.803623	0.880780	0.602990
	C176	C	0.373997	0.183202	0.868581
	C177	C	0.598166	0.180844	0.111595
	C178	C	0.373131	0.824772	0.113408
	C179	C	0.598700	0.821863	0.869509
	C180	C	0.374705	0.879378	0.173331
	C181	C	0.598209	0.124109	0.169454
	C182	C	0.374686	0.126452	0.810406
	C183	C	0.598072	0.877569	0.809527
	C184	C	0.864531	0.184449	0.380548
	C185	C	0.108989	0.184454	0.603456
	C186	C	0.109785	0.822454	0.380820
	C187	C	0.861574	0.822580	0.603422
	C188	C	0.164287	0.390771	0.869353
	C189	C	0.165288	0.615354	0.114447
	C190	C	0.806738	0.390820	0.113363
	C191	C	0.804900	0.617645	0.872308
	C192	C	0.391843	0.095391	0.587443
	C193	C	0.581357	0.911841	0.587422
	C194	C	0.584052	0.097384	0.391022
	C195	C	0.390797	0.910400	0.394905
	C196	C	0.583325	0.403949	0.084206
	C197	C	0.581028	0.598888	0.901244
	C198	C	0.387330	0.600514	0.084004
	C199	C	0.387699	0.405786	0.899678
	C200	C	0.077047	0.598598	0.395289
	C201	C	0.891904	0.601043	0.589633
	C202	C	0.077326	0.407831	0.589874
	C203	C	0.892077	0.407714	0.395135
	C204	C	0.887395	0.597550	0.089999
	C205	C	0.080629	0.410595	0.088626
	C206	C	0.080632	0.595731	0.895858
	C207	C	0.888306	0.411504	0.894553
	C208	C	0.082073	0.908313	0.583124
	C209	C	0.083640	0.101265	0.399887
	C210	C	0.887754	0.101394	0.584670
	C211	C	0.889669	0.907128	0.400564
	C212	C	0.578902	0.099256	0.894634
	C213	C	0.392118	0.099013	0.089066
	C214	C	0.579375	0.906159	0.088655
	C215	C	0.394806	0.908774	0.895885
	Zn216	Zn	0.487271	0.003577	0.741441
	Zn217	Zn	0.486652	0.002689	0.240724
	Zn218	Zn	0.735683	0.503657	-0.007337
	Zn219	Zn	0.234147	0.502565	-0.008147
	Zn220	Zn	-0.013941	0.753121	0.492304
	Zn221	Zn	-0.014502	0.254656	0.492746
	Zn222	Zn	-0.016089	0.504470	0.742121
	Zn223	Zn	-0.015589	0.504023	0.241950
	Zn224	Zn	0.485850	0.753765	-0.007492
	Zn225	Zn	0.485269	0.251837	-0.008167
	Zn226	Zn	0.734973	0.004760	0.491193
	Zn227	Zn	0.237254	0.004010	0.490867
	N228	N	0.398255	0.968406	0.673106
	N229	N	0.574986	0.039046	0.672797
	N230	N	0.575401	0.967952	0.309295
	N231	N	0.400785	0.038800	0.311951
	N232	N	0.666784	0.415329	0.956318
	N233	N	0.663210	0.588000	0.029375
	N234	N	0.304599	0.589701	0.955980
	N235	N	0.303491	0.414015	0.026993
	N236	N	0.948901	0.683244	0.405842
	N237	N	0.021695	0.683075	0.578778
	N238	N	0.948439	0.325246	0.578763
	N239	N	0.021975	0.326056	0.407020
	N240	N	0.947960	0.417533	0.672018
	N241	N	0.019872	0.592275	0.673415
	N242	N	0.948533	0.591044	0.311979
	N243	N	0.019420	0.414429	0.309748
	N244	N	0.397051	0.684667	0.956524
	N245	N	0.571777	0.682713	0.028534
	N246	N	0.572913	0.322114	0.955911
	N247	N	0.399086	0.323061	0.027549
	N248	N	0.666717	0.968134	0.403370
	N249	N	0.661542	0.042188	0.574554
	N250	N	0.306580	0.967909	0.578685
	N251	N	0.308106	0.039687	0.404745
	N252	N	0.896713	0.468578	0.172843
	N253	N	0.071916	0.538904	0.172208
	N254	N	0.071401	0.467900	0.811799
	N255	N	0.896105	0.540546	0.811726
	N256	N	0.166868	0.916718	0.455996
	N257	N	0.168070	0.092158	0.526847
	N258	N	0.806410	0.091111	0.455739
	N259	N	0.804912	0.917122	0.527648
	N260	N	0.449746	0.182066	0.904910
	N261	N	0.521515	0.180473	0.076745
	N262	N	0.448950	0.826049	0.076824
	N263	N	0.523003	0.824518	0.906531
	N264	N	0.451765	0.913622	0.173667
	N265	N	0.521713	0.088870	0.169985
	N266	N	0.450995	0.090500	0.811206
	N267	N	0.522039	0.914180	0.810023
	N268	N	0.899542	0.183757	0.456496
	N269	N	0.072464	0.183647	0.528053
	N270	N	0.073410	0.823505	0.456215
	N271	N	0.898529	0.823461	0.528235
	N272	N	0.163534	0.466646	0.905525
	N273	N	0.163993	0.539301	0.078451
	N274	N	0.807301	0.467182	0.077629
	N275	N	0.806352	0.541044	0.907442
	O276	O	1.043385	-0.038516	-0.166263
	H277	H	1.026441	-0.034241	-0.156805
	H278	H	1.056649	-0.026961	-0.164965
	O279	O	0.670461	0.446175	0.339477
	H280	H	0.658528	0.437712	0.335338
	H281	H	0.676260	0.450247	0.331823
	O282	O	0.487955	0.342433	0.627281
	H283	H	0.481123	0.338869	0.618062
	H284	H	0.496797	0.351844	0.634523
	O285	O	0.966575	0.119829	-0.191894
	H286	H	0.986396	0.110056	-0.200970
	H287	H	0.983446	0.128033	-0.187079
	O288	O	-0.074109	0.123709	0.924301
	H289	H	-0.061592	0.137254	0.903959
	H290	H	-0.087392	0.136544	0.913804
	O291	O	0.591040	0.390389	0.537713
	H292	H	0.591136	0.379034	0.524533
	H293	H	0.612705	0.407579	0.558575
	O294	O	0.429718	0.703570	0.565620
	H295	H	0.434386	0.690366	0.566969
	H296	H	0.419125	0.697056	0.553383
	O297	O	0.846843	0.885574	1.029694
	H298	H	0.843415	0.898137	1.014450
	H299	H	0.872158	0.872365	1.025192
	O300	O	-0.084853	0.078208	0.060352
	H301	H	-0.088179	0.073419	0.070060
	H302	H	-0.066816	0.075529	0.064120
	O303	O	0.640871	0.439791	0.471070
	H304	H	0.640510	0.423608	0.466144
	H305	H	0.627802	0.438233	0.459164
	O306	O	0.804299	0.104226	0.079628
	H307	H	0.803288	0.101111	0.082871
	H308	H	0.809369	0.101495	0.064456
	O309	O	0.664285	0.675879	0.652828
	H310	H	0.671384	0.663087	0.635752
	H311	H	0.630365	0.687354	0.663453
	O312	O	0.862837	0.996115	0.112469
	H313	H	0.857090	1.011861	0.124425
	H314	H	0.876252	0.978974	0.091901
	O315	O	1.050677	0.069248	-0.091309
	H316	H	1.053974	0.073271	-0.077517
	H317	H	1.071311	0.076266	-0.104937
	O318	O	0.275050	0.717184	0.471909
	H319	H	0.276607	0.720077	0.443341
	H320	H	0.268765	0.746191	0.477751
	O321	O	1.007511	0.020896	1.151505
	H322	H	1.012458	0.024326	1.142142
	H323	H	0.994667	0.007142	1.158139
	O324	O	0.025965	-0.203193	0.788137
	H325	H	0.029521	-0.219077	0.773136
	H326	H	0.034551	-0.193678	0.779150
	O327	O	0.659470	0.455260	0.580749
	H328	H	0.667686	0.461294	0.585836
	H329	H	0.661493	0.463317	0.573397
	O330	O	0.323617	0.496752	0.525102
	H331	H	0.320223	0.498099	0.520725
	H332	H	0.324855	0.503055	0.517793
	O333	O	1.305739	1.271047	0.712036
	H334	H	1.327674	1.273893	0.717080
	H335	H	1.291407	1.292690	0.731149
	O336	O	0.277884	0.518840	0.294224
	H337	H	0.279590	0.532577	0.288121
	H338	H	0.261951	0.506226	0.285982
	O339	O	1.060442	-0.043044	1.038884
	H340	H	1.041799	-0.041338	1.039736
	H341	H	1.058359	-0.057896	1.054054
	O342	O	-0.203271	0.959036	0.957424
	H343	H	-0.212852	0.954521	0.962575
	H344	H	-0.205680	0.966606	0.950077
	O345	O	0.472235	0.522034	1.649023
	H346	H	0.483272	0.529616	1.647058
	H347	H	0.473853	0.518772	1.643033
	O348	O	0.526596	0.325986	0.383205
	H349	H	0.530638	0.328099	0.369759
	H350	H	0.527736	0.321810	0.385327
	O351	O	-0.129223	0.125227	-0.160237
	H352	H	-0.135049	0.110205	-0.140145
	H353	H	-0.135263	0.131140	-0.158752
	O354	O	0.920167	0.969698	-0.083600
	H355	H	0.932411	0.974081	-0.090304
	H356	H	0.920678	0.971222	-0.089956
	O357	O	-0.111936	1.010701	-0.087174
	H358	H	-0.112093	0.989717	-0.079746
	H359	H	-0.110433	1.012030	-0.091335
	O360	O	0.502087	0.703166	0.349145
	H361	H	0.517819	0.704151	0.364918
	H362	H	0.504547	0.706287	0.347890
	O363	O	0.458325	0.527695	0.500214
	H364	H	0.472915	0.521107	0.509613
	H365	H	0.438718	0.532236	0.498119
	O366	O	0.302768	0.681341	0.312129
	H367	H	0.292964	0.654635	0.325882
	H368	H	0.354483	0.691498	0.299756
	O369	O	0.523711	0.488655	0.313283
	H370	H	0.514912	0.507037	0.313449
	H371	H	0.515246	0.484521	0.332600
	O372	O	0.537717	0.447144	0.452749
	H373	H	0.537243	0.448755	0.458006
	H374	H	0.532678	0.437357	0.446937
	O375	O	0.303963	0.345296	0.516680
	H376	H	0.312982	0.353216	0.545935
	H377	H	0.286068	0.320248	0.519493
	O378	O	0.530554	0.323077	0.435096
	H379	H	0.520745	0.311551	0.447832
	H380	H	0.523306	0.331452	0.440101
	O381	O	0.506747	0.706266	0.698722
	H382	H	0.507862	0.722207	0.723908
	H383	H	0.491790	0.706730	0.677681
	O384	O	-0.017793	0.980392	1.082278
	H385	H	-0.005657	0.985195	1.088954
	H386	H	-0.008472	0.979645	1.082416
	O387	O	1.144190	1.006888	0.190337
	H388	H	1.142569	0.992731	0.195834
	H389	H	1.142140	1.003803	0.200138
	O390	O	0.426527	0.435777	0.491247
	H391	H	0.419577	0.420739	0.476511
	H392	H	0.416993	0.429259	0.502317
	O393	O	0.951588	0.148177	0.968056
	H394	H	0.946987	0.161689	0.949737
	H395	H	0.930272	0.129459	0.961212
	O396	O	0.100648	0.911471	1.061740
	H397	H	0.111827	0.903814	1.061431
	H398	H	0.095846	0.923044	1.066841
	O399	O	0.382043	0.494329	1.574704
	H400	H	0.387946	0.498183	1.575822
	H401	H	0.394270	0.499441	1.557776
	O402	O	0.893728	-0.018212	1.139204
	H403	H	0.885335	-0.022447	1.135129
	H404	H	0.875531	0.002338	1.137698
	O405	O	0.169167	0.114902	0.070741
	H406	H	0.166727	0.129438	0.083304
	H407	H	0.156634	0.115056	0.087593
	O408	O	1.067049	1.036426	1.047365
	H409	H	1.074190	1.046384	1.058857
	H410	H	1.061411	1.033910	1.065459
	O411	O	1.072093	1.155210	-0.089506
	H412	H	1.069017	1.152644	-0.073765
	H413	H	1.071934	1.158768	-0.099932
	O414	O	0.691250	-0.344052	1.503279
	H415	H	0.696637	-0.352722	1.512597
	H416	H	0.704892	-0.339009	1.494390
	O417	O	0.285594	0.457123	0.694227
	H418	H	0.273955	0.475997	0.700814
	H419	H	0.295235	0.470969	0.693223
	O420	O	0.176757	0.839622	-0.185311
	H421	H	0.191179	0.872416	-0.188950
	H422	H	0.161677	0.838150	-0.171564
	O423	O	1.156001	-0.185768	0.000784
	H424	H	1.163811	-0.204643	-0.003900
	H425	H	1.148449	-0.185203	-0.018218
	O426	O	0.573843	0.602461	1.383906
	H427	H	0.577854	0.588896	1.376143
	H428	H	0.564407	0.603408	1.396521
	O429	O	0.501732	0.514966	0.307582
	H430	H	0.509804	0.525208	0.297619
	H431	H	0.508035	0.517219	0.316934
