data_Molecule from HDF5

_cell_length_a		16.620375
_cell_length_b		16.298644
_cell_length_c		16.370919
_cell_angle_alpha	89.984217
_cell_angle_beta	90.032417
_cell_angle_gamma	89.962053
_symmetry_space_group_name_H-M	'P 1'
_symmetry_Int_Tables_number		1

loop_
	_symmetry_equiv_pos_as_xyz
	x,y,z

loop_
	_atom_site_label
	_atom_site_type_symbol
	_atom_site_fract_x
	_atom_site_fract_y
	_atom_site_fract_z
	H0	H	0.392071	0.851325	0.733808
	H1	H	0.599909	0.170934	0.734286
	H2	H	0.600558	0.852379	0.293864
	H3	H	0.390972	0.171351	0.294288
	H4	H	0.721963	0.397048	0.859135
	H5	H	0.719436	0.620852	0.170009
	H6	H	0.272732	0.620685	0.853782
	H7	H	0.273514	0.407186	0.170235
	H8	H	0.840901	0.738453	0.403293
	H9	H	0.154072	0.731208	0.616550
	H10	H	0.839590	0.287363	0.620852
	H11	H	0.152320	0.291038	0.410224
	H12	H	0.840086	0.402915	0.738306
	H13	H	0.150958	0.619799	0.737045
	H14	H	0.838583	0.619856	0.289430
	H15	H	0.152769	0.409112	0.293199
	H16	H	0.394324	0.730025	0.852537
	H17	H	0.599937	0.732033	0.172027
	H18	H	0.598217	0.291416	0.853790
	H19	H	0.392573	0.293945	0.172891
	H20	H	0.720595	0.854996	0.404017
	H21	H	0.720956	0.168510	0.625197
	H22	H	0.270540	0.854929	0.625684
	H23	H	0.274837	0.170413	0.409108
	H24	H	0.889960	0.351202	0.233631
	H25	H	0.098552	0.671363	0.231589
	H26	H	0.093647	0.350814	0.795985
	H27	H	0.885356	0.670578	0.789137
	H28	H	0.221341	0.904766	0.357964
	H29	H	0.216669	0.120520	0.672181
	H30	H	0.770586	0.123404	0.357162
	H31	H	0.772790	0.901531	0.671568
	H32	H	0.337640	0.229786	0.912162
	H33	H	0.652228	0.236392	0.121216
	H34	H	0.338439	0.791799	0.115457
	H35	H	0.651556	0.785461	0.903977
	H36	H	0.338776	0.908011	0.234466
	H37	H	0.651767	0.122580	0.240289
	H38	H	0.339690	0.116797	0.791634
	H39	H	0.652939	0.903465	0.789076
	H40	H	0.891860	0.231656	0.354180
	H41	H	0.093754	0.228869	0.674248
	H42	H	0.100889	0.792703	0.353913
	H43	H	0.894261	0.791590	0.673399
	H44	H	0.215609	0.352889	0.905605
	H45	H	0.218221	0.669785	0.119701
	H46	H	0.771432	0.353551	0.122356
	H47	H	0.767858	0.668449	0.902727
	H48	H	0.403427	0.126490	0.601972
	H49	H	0.584306	0.896812	0.604659
	H50	H	0.586932	0.125942	0.429812
	H51	H	0.407805	0.896697	0.426902
	H52	H	0.583032	0.429147	0.124447
	H53	H	0.587852	0.601105	0.897229
	H54	H	0.403931	0.602174	0.127561
	H55	H	0.402433	0.422515	0.897108
	H56	H	0.110025	0.603263	0.414107
	H57	H	0.884948	0.601280	0.598218
	H58	H	0.104542	0.422766	0.597056
	H59	H	0.884741	0.423348	0.427572
	H60	H	0.105281	0.427571	0.604064
	H61	H	0.884706	0.598232	0.599613
	H62	H	0.108170	0.606543	0.426299
	H63	H	0.882630	0.426029	0.419333
	H64	H	0.402046	0.598949	0.127356
	H65	H	0.585171	0.589386	0.902560
	H66	H	0.579996	0.424474	0.125856
	H67	H	0.404745	0.424439	0.898242
	H68	H	0.584439	0.127249	0.425591
	H69	H	0.581463	0.899997	0.598099
	H70	H	0.406746	0.126584	0.604409
	H71	H	0.406802	0.898612	0.428059
	H72	H	0.906799	0.622252	0.093897
	H73	H	0.087910	0.395578	0.104377
	H74	H	0.083402	0.626231	0.925246
	H75	H	0.902566	0.398882	0.931770
	H76	H	0.088266	0.918537	0.630317
	H77	H	0.085834	0.104944	0.398013
	H78	H	0.909149	0.095407	0.624936
	H79	H	0.902147	0.922818	0.397711
	H80	H	0.607021	0.102317	0.929527
	H81	H	0.382412	0.109270	0.102426
	H82	H	0.607302	0.923533	0.102296
	H83	H	0.385511	0.924088	0.924667
	H84	H	0.607419	0.924146	0.104012
	H85	H	0.388364	0.096790	0.099174
	H86	H	0.606644	0.095153	0.923705
	H87	H	0.384886	0.923060	0.922501
	H88	H	0.907809	0.103355	0.628086
	H89	H	0.091871	0.098594	0.398723
	H90	H	0.088732	0.928459	0.626745
	H91	H	0.905123	0.933648	0.403502
	H92	H	0.086180	0.627013	0.925507
	H93	H	0.081272	0.397544	0.101668
	H94	H	0.902467	0.625934	0.099996
	H95	H	0.908615	0.397628	0.920833
	H96	H	0.407088	0.125346	0.600873
	H97	H	0.588936	0.897253	0.598525
	H98	H	0.581828	0.124880	0.429369
	H99	H	0.405863	0.897779	0.427222
	H100	H	0.585126	0.424756	0.127591
	H101	H	0.575849	0.597755	0.902254
	H102	H	0.405063	0.599386	0.125395
	H103	H	0.405044	0.421303	0.897722
	H104	H	0.104463	0.595013	0.422205
	H105	H	0.883592	0.601444	0.600951
	H106	H	0.108071	0.419612	0.603961
	H107	H	0.881151	0.417763	0.422136
	H108	H	0.910590	0.624177	0.101531
	H109	H	0.087250	0.397251	0.097139
	H110	H	0.084457	0.627506	0.922858
	H111	H	0.913681	0.403671	0.930164
	H112	H	0.079788	0.923030	0.625974
	H113	H	0.083662	0.097327	0.401671
	H114	H	0.901684	0.097299	0.628439
	H115	H	0.913532	0.924337	0.402663
	H116	H	0.610565	0.103784	0.921155
	H117	H	0.382458	0.099221	0.111767
	H118	H	0.608251	0.922564	0.103486
	H119	H	0.385204	0.921483	0.924191
	C120	C	0.373828	0.020757	0.635645
	C121	C	0.617337	1.003036	0.634436
	C122	C	0.617285	0.021111	0.393781
	C123	C	0.374831	1.003091	0.394240
	C124	C	0.616201	0.390548	0.022347
	C125	C	0.616403	0.631368	1.004688
	C126	C	0.372406	0.633325	0.021403
	C127	C	0.373405	0.391036	1.003418
	C128	C	0.004259	0.635180	0.388933
	C129	C	0.987444	0.633743	0.633582
	C130	C	0.002995	0.390213	0.634822
	C131	C	0.986592	0.390174	0.391181
	C132	C	0.873455	0.519524	0.133270
	C133	C	0.116519	0.502694	0.132855
	C134	C	0.115707	0.521025	0.891811
	C135	C	0.873050	0.503418	0.892116
	C136	C	0.118064	0.891078	0.522879
	C137	C	0.116490	0.132293	0.505387
	C138	C	0.874100	0.132716	0.522451
	C139	C	0.874813	0.891654	0.505539
	C140	C	0.504414	0.132753	0.892366
	C141	C	0.487840	0.134826	0.137072
	C142	C	0.503912	0.891060	0.134673
	C143	C	0.487929	0.889041	0.890546
	C144	C	0.372562	0.900412	0.695666
	C145	C	0.619377	0.122722	0.695301
	C146	C	0.619438	0.901089	0.332741
	C147	C	0.372850	0.123120	0.333980
	C148	C	0.679302	0.382675	0.905040
	C149	C	0.677912	0.636735	0.123062
	C150	C	0.313007	0.637345	0.901611
	C151	C	0.313630	0.388703	0.123000
	C152	C	0.887592	0.697728	0.385828
	C153	C	0.106236	0.692414	0.635488
	C154	C	0.886049	0.328619	0.638235
	C155	C	0.105141	0.330897	0.390544
	C156	C	0.886279	0.386201	0.696834
	C157	C	0.104301	0.636931	0.695868
	C158	C	0.886304	0.638444	0.328863
	C159	C	0.105295	0.389366	0.332378
	C160	C	0.373471	0.692087	0.900758
	C161	C	0.618521	0.692553	0.124067
	C162	C	0.617858	0.329797	0.902616
	C163	C	0.373096	0.332750	0.124123
	C164	C	0.679087	0.902132	0.387942
	C165	C	0.679334	0.121530	0.640431
	C166	C	0.312161	0.901999	0.641342
	C167	C	0.314805	0.122718	0.391049
	C168	C	0.871313	0.399860	0.194493
	C169	C	0.117234	0.623476	0.192049
	C170	C	0.114762	0.399561	0.833757
	C171	C	0.867867	0.622345	0.829402
	C172	C	0.179991	0.887425	0.404427
	C173	C	0.175416	0.136204	0.625101
	C174	C	0.812371	0.138057	0.403857
	C175	C	0.814015	0.885655	0.624336
	C176	C	0.385452	0.191364	0.891929
	C177	C	0.605189	0.196295	0.139461
	C178	C	0.385675	0.831695	0.134974
	C179	C	0.605220	0.826709	0.886835
	C180	C	0.385760	0.889315	0.194408
	C181	C	0.605009	0.139022	0.198550
	C182	C	0.386384	0.134944	0.832192
	C183	C	0.605676	0.885657	0.829493
	C184	C	0.872492	0.192670	0.402420
	C185	C	0.114478	0.190303	0.626223
	C186	C	0.119938	0.832138	0.402291
	C187	C	0.874598	0.830687	0.625183
	C188	C	0.175067	0.400502	0.888483
	C189	C	0.176671	0.622612	0.136149
	C190	C	0.812275	0.400714	0.138782
	C191	C	0.809526	0.621598	0.886382
	C192	C	0.398589	0.104408	0.609838
	C193	C	0.592074	0.919786	0.608064
	C194	C	0.591815	0.104170	0.420507
	C195	C	0.399685	0.919468	0.420065
	C196	C	0.590259	0.418263	0.104499
	C197	C	0.590415	0.603972	0.922038
	C198	C	0.396472	0.607764	0.104661
	C199	C	0.397149	0.415435	0.919576
	C200	C	0.086225	0.609139	0.413731
	C201	C	0.905708	0.607852	0.607209
	C202	C	0.084887	0.416211	0.608900
	C203	C	0.904167	0.415337	0.415691
	C204	C	0.899197	0.602379	0.106221
	C205	C	0.092470	0.418784	0.108175
	C206	C	0.091622	0.604914	0.917183
	C207	C	0.900273	0.421382	0.919705
	C208	C	0.092532	0.915874	0.606069
	C209	C	0.093552	0.107437	0.421341
	C210	C	0.899073	0.106375	0.605344
	C211	C	0.899834	0.918957	0.422878
	C212	C	0.586653	0.107698	0.917448
	C213	C	0.405832	0.109064	0.111801
	C214	C	0.586221	0.916071	0.110145
	C215	C	0.406537	0.915222	0.916669
	Zn216	Zn	0.496381	0.011387	0.762273
	Zn217	Zn	0.496194	0.012113	0.266186
	Zn218	Zn	0.744490	0.510775	0.013319
	Zn219	Zn	0.244699	0.511811	0.011377
	Zn220	Zn	-0.003442	0.763111	0.512811
	Zn221	Zn	-0.004671	0.260755	0.513811
	Zn222	Zn	-0.005641	0.512219	0.763624
	Zn223	Zn	-0.005203	0.511598	0.261095
	Zn224	Zn	0.495825	0.759750	0.012686
	Zn225	Zn	0.495393	0.263096	0.013487
	Zn226	Zn	0.745609	0.012016	0.514083
	Zn227	Zn	0.245938	0.012463	0.515416
	N228	N	0.410164	0.975466	0.692414
	N229	N	0.581596	0.048037	0.691775
	N230	N	0.581927	0.976276	0.336078
	N231	N	0.409359	0.047543	0.335902
	N232	N	0.678414	0.419767	0.980470
	N233	N	0.676699	0.599848	0.047651
	N234	N	0.311967	0.601801	0.977625
	N235	N	0.313662	0.424217	0.046711
	N236	N	0.962114	0.696040	0.422353
	N237	N	0.032455	0.690580	0.597563
	N238	N	0.959741	0.331200	0.600299
	N239	N	0.030143	0.330929	0.425981
	N240	N	0.959855	0.424135	0.694315
	N241	N	0.029175	0.601485	0.695214
	N242	N	0.959870	0.600291	0.330692
	N243	N	0.030440	0.425287	0.332649
	N244	N	0.409757	0.689775	0.976197
	N245	N	0.581189	0.689410	0.049206
	N246	N	0.579513	0.334276	0.976685
	N247	N	0.409349	0.334044	0.048857
	N248	N	0.677859	0.977663	0.425172
	N249	N	0.678422	0.045764	0.603685
	N250	N	0.312761	0.978054	0.605069
	N251	N	0.315823	0.046975	0.427882
	N252	N	0.908957	0.474851	0.191169
	N253	N	0.080522	0.547986	0.190212
	N254	N	0.078757	0.475445	0.835586
	N255	N	0.906767	0.548140	0.832872
	N256	N	0.179163	0.922940	0.480492
	N257	N	0.176815	0.101011	0.548917
	N258	N	0.813090	0.101544	0.479688
	N259	N	0.813930	0.922630	0.548922
	N260	N	0.459713	0.190081	0.928669
	N261	N	0.531205	0.193713	0.101982
	N262	N	0.460227	0.832224	0.099029
	N263	N	0.531118	0.828682	0.924165
	N264	N	0.460425	0.925358	0.194354
	N265	N	0.530958	0.101354	0.197296
	N266	N	0.461448	0.099390	0.832150
	N267	N	0.531949	0.923574	0.831627
	N268	N	0.910376	0.189326	0.476875
	N269	N	0.078732	0.188167	0.550578
	N270	N	0.082285	0.834085	0.476890
	N271	N	0.911476	0.834036	0.549990
	N272	N	0.175818	0.477028	0.923726
	N273	N	0.176169	0.546644	0.099802
	N274	N	0.813498	0.476159	0.101563
	N275	N	0.812400	0.546545	0.924460
	O276	O	0.189348	-0.115738	-0.178815
	H277	H	0.200204	-0.131629	-0.150966
	H278	H	0.157792	-0.132041	-0.190121
	O279	O	0.776042	-0.006783	1.231752
	H280	H	0.772061	-0.035204	1.227816
	H281	H	0.754396	-0.030575	1.253177
	O282	O	0.330992	0.431651	0.540244
	H283	H	0.343063	0.438359	0.551389
	H284	H	0.321712	0.416436	0.556775
	O285	O	0.427804	0.527900	0.598239
	H286	H	0.413212	0.518577	0.606070
	H287	H	0.415883	0.531974	0.605091
	O288	O	0.845143	1.111006	-0.158343
	H289	H	0.850152	1.110003	-0.144303
	H290	H	0.835851	1.130452	-0.151767
	O291	O	0.305091	0.317840	0.703530
	H292	H	0.313816	0.299336	0.702207
	H293	H	0.324819	0.311252	0.712772
	O294	O	0.200326	-0.195019	0.942229
	H295	H	0.162264	-0.201344	0.951164
	H296	H	0.217429	-0.226068	0.956380
	O297	O	0.480073	0.496389	0.305756
	H298	H	0.457405	0.502709	0.306327
	H299	H	0.496191	0.525793	0.304361
	O300	O	0.417186	0.559294	0.675869
	H301	H	0.428980	0.547029	0.671114
	H302	H	0.422919	0.540614	0.685653
	O303	O	0.565233	0.321902	0.601230
	H304	H	0.554473	0.330200	0.596964
	H305	H	0.598354	0.308558	0.575072
	O306	O	1.205717	1.029933	0.216559
	H307	H	1.229972	1.050635	0.234937
	H308	H	1.217870	1.026042	0.186675
	O309	O	0.298267	0.702808	0.312604
	H310	H	0.288512	0.681650	0.324153
	H311	H	0.278146	0.722045	0.317463
	O312	O	0.068537	1.038697	1.024228
	H313	H	0.076173	1.056235	1.023034
	H314	H	0.059780	1.033768	1.039034
	O315	O	0.646522	0.434178	0.577782
	H316	H	0.658235	0.445809	0.566269
	H317	H	0.646370	0.437381	0.569093
	O318	O	0.968090	-0.196535	0.223917
	H319	H	0.980924	-0.171050	0.240216
	H320	H	0.976041	-0.207114	0.255108
	O321	O	0.088297	0.129366	-0.005473
	H322	H	0.100531	0.137521	-0.019027
	H323	H	0.091233	0.114770	-0.021820
	O324	O	0.909818	0.092612	0.206076
	H325	H	0.884866	0.083849	0.197303
	H326	H	0.906413	0.107483	0.211694
	O327	O	0.713086	0.730542	0.528357
	H328	H	0.735224	0.761959	0.531950
	H329	H	0.695082	0.718896	0.543175
	O330	O	0.673821	1.674672	-0.503194
	H331	H	0.649009	1.687742	-0.483034
	H332	H	0.685841	1.700599	-0.523806
	O333	O	0.545817	0.471567	0.712060
	H334	H	0.566967	0.462667	0.712501
	H335	H	0.563638	0.460850	0.712096
	O336	O	0.034987	-0.029610	0.232934
	H337	H	0.020165	-0.004326	0.226409
	H338	H	0.057110	-0.008063	0.232732
	O339	O	-0.034539	1.152139	0.930295
	H340	H	-0.036904	1.145926	0.934724
	H341	H	-0.038771	1.156276	0.931469
	O342	O	0.043356	0.878276	0.832718
	H343	H	0.042081	0.859727	0.816436
	H344	H	0.019494	0.877720	0.845582
	O345	O	0.533514	0.323048	-0.671821
	H346	H	0.519486	0.308717	-0.692558
	H347	H	0.527797	0.353569	-0.678439
	O348	O	0.275531	0.427525	0.665416
	H349	H	0.270274	0.425076	0.687482
	H350	H	0.275619	0.393385	0.670694
	O351	O	0.162942	1.166036	0.899837
	H352	H	0.143839	1.153826	0.905610
	H353	H	0.162176	1.149973	0.907093
	O354	O	-0.220824	1.144001	0.037101
	H355	H	-0.235342	1.147721	0.055011
	H356	H	-0.220788	1.148625	0.045879
	O357	O	-0.221155	-0.202609	1.036275
	H358	H	-0.235691	-0.178246	1.016817
	H359	H	-0.244780	-0.217279	1.027219
	O360	O	0.464965	0.308494	0.639978
	H361	H	0.478726	0.303348	0.631718
	H362	H	0.487783	0.297035	0.631615
	O363	O	0.008359	0.161938	0.910818
	H364	H	0.010856	0.163076	0.916105
	H365	H	0.025028	0.150950	0.905279
	O366	O	0.011009	0.063147	0.990690
	H367	H	0.005718	0.065831	0.991110
	H368	H	0.010200	0.070666	0.985255
	O369	O	0.289732	0.546091	0.520525
	H370	H	0.289973	0.565230	0.534033
	H371	H	0.287812	0.540473	0.541769
	O372	O	0.980330	-0.173955	0.986853
	H373	H	0.978248	-0.171226	1.002409
	H374	H	0.964079	-0.166680	0.998574
	O375	O	0.378600	0.542743	0.654107
	H376	H	0.388543	0.524463	0.665249
	H377	H	0.361747	0.514204	0.664102
	O378	O	0.605383	0.478097	0.546291
	H379	H	0.610556	0.462032	0.537542
	H380	H	0.606973	0.469888	0.556932
	O381	O	0.807478	-0.169957	0.199133
	H382	H	0.823372	-0.182665	0.172803
	H383	H	0.829024	-0.177344	0.181959
	O384	O	0.535358	0.600687	0.355889
	H385	H	0.536729	0.606669	0.374597
	H386	H	0.527166	0.614296	0.338595
	O387	O	0.315150	-0.462129	0.316078
	H388	H	0.297338	-0.450970	0.329294
	H389	H	0.308968	-0.463565	0.323559
	O390	O	0.020347	-0.037858	-0.199458
	H391	H	0.020397	-0.047756	-0.193576
	H392	H	0.015035	-0.061764	-0.211769
	O393	O	1.116661	0.868229	1.064962
	H394	H	1.114571	0.874536	1.068158
	H395	H	1.109551	0.867123	1.052247
	O396	O	1.327849	0.352114	0.353682
	H397	H	1.331903	0.365091	0.376757
	H398	H	1.337393	0.372823	0.364424
	O399	O	1.024102	0.217188	1.224998
	H400	H	1.018277	0.218259	1.233229
	H401	H	1.039359	0.230736	1.238596
	O402	O	1.453548	0.653086	0.631816
	H403	H	1.440624	0.667726	0.659543
	H404	H	1.440247	0.624969	0.631241
	O405	O	0.779726	1.036446	-0.196772
	H406	H	0.778598	1.050092	-0.212147
	H407	H	0.768040	1.062447	-0.212430
	O408	O	1.044909	0.204589	-0.006885
	H409	H	1.053426	0.209948	0.012253
	H410	H	1.064355	0.194465	0.001012
	O411	O	1.189023	1.205331	0.206879
	H412	H	1.214565	1.212301	0.233370
	H413	H	1.169792	1.207097	0.193158
	O414	O	0.487385	0.697080	0.493901
	H415	H	0.481848	0.701090	0.480402
	H416	H	0.486439	0.693224	0.501456
	O417	O	0.464880	0.730306	0.296425
	H418	H	0.455352	0.743613	0.275212
	H419	H	0.429530	0.733861	0.290635
	O420	O	0.704246	0.520104	0.727304
	H421	H	0.715031	0.546223	0.722512
	H422	H	0.723877	0.538586	0.734426
	O423	O	0.485680	0.368368	0.466510
	H424	H	0.488217	0.381986	0.472714
	H425	H	0.476750	0.366193	0.453825
	O426	O	0.713164	0.298444	0.495635
	H427	H	0.747138	0.269822	0.488910
	H428	H	0.693418	0.307914	0.453228
	O429	O	0.669467	0.402698	0.375519
	H430	H	0.677336	0.430039	0.367585
	H431	H	0.641025	0.405812	0.365780
	O432	O	0.277741	0.721193	0.485734
	H433	H	0.282554	0.735722	0.500802
	H434	H	0.273441	0.737947	0.486656
	O435	O	-0.148625	1.201335	0.023670
	H436	H	-0.144402	1.196289	0.029972
	H437	H	-0.143243	1.211607	0.037646
	O438	O	-0.198365	-0.036867	-0.035104
	H439	H	-0.203819	-0.008706	-0.050006
	H440	H	-0.185133	-0.019016	-0.038777
	O441	O	0.922349	-0.131225	-0.078612
	H442	H	0.927871	-0.136674	-0.053665
	H443	H	0.905626	-0.113390	-0.075764
	O444	O	0.173035	0.866592	1.178648
	H445	H	0.150627	0.881485	1.163848
	H446	H	0.173449	0.896808	1.171259
	O447	O	0.684174	0.622178	0.579152
	H448	H	0.680289	0.592309	0.577560
	H449	H	0.654396	0.636800	0.588657
	O450	O	0.703068	0.454923	0.309032
	H451	H	0.711493	0.467688	0.313080
	H452	H	0.707665	0.485935	0.302712
	O453	O	0.208541	-0.056587	0.867216
	H454	H	0.227290	-0.077733	0.864710
	H455	H	0.205313	-0.077226	0.866062
