data_Molecule from HDF5

_cell_length_a		16.634906
_cell_length_b		16.634396
_cell_length_c		16.472538
_cell_angle_alpha	90.136799
_cell_angle_beta	89.873006
_cell_angle_gamma	90.048525
_symmetry_space_group_name_H-M	'P 1'
_symmetry_Int_Tables_number		1

loop_
	_symmetry_equiv_pos_as_xyz
	x,y,z

loop_
	_atom_site_label
	_atom_site_type_symbol
	_atom_site_fract_x
	_atom_site_fract_y
	_atom_site_fract_z
	H0	H	0.403077	0.845525	0.713628
	H1	H	0.609661	0.159996	0.717394
	H2	H	0.608091	0.847779	0.274654
	H3	H	0.400864	0.161340	0.276465
	H4	H	0.722032	0.403184	0.837663
	H5	H	0.726990	0.610468	0.153187
	H6	H	0.285137	0.609174	0.839681
	H7	H	0.283591	0.398964	0.152926
	H8	H	0.851888	0.730191	0.385363
	H9	H	0.158696	0.728611	0.603868
	H10	H	0.848811	0.284218	0.599332
	H11	H	0.160048	0.280177	0.387111
	H12	H	0.847286	0.403691	0.713592
	H13	H	0.159638	0.609664	0.717769
	H14	H	0.849156	0.609436	0.273856
	H15	H	0.160223	0.396840	0.271207
	H16	H	0.400464	0.725233	0.839973
	H17	H	0.611861	0.726233	0.153270
	H18	H	0.605833	0.287710	0.837120
	H19	H	0.400343	0.284813	0.154219
	H20	H	0.727832	0.849337	0.387564
	H21	H	0.726664	0.160178	0.600297
	H22	H	0.283843	0.847644	0.600396
	H23	H	0.281052	0.158722	0.389057
	H24	H	0.902545	0.348252	0.215447
	H25	H	0.110205	0.660569	0.218567
	H26	H	0.109518	0.349092	0.773940
	H27	H	0.900818	0.660500	0.775856
	H28	H	0.228032	0.896420	0.340046
	H29	H	0.225202	0.109692	0.652985
	H30	H	0.786023	0.107897	0.338010
	H31	H	0.783293	0.899356	0.652040
	H32	H	0.348132	0.224155	0.890412
	H33	H	0.661369	0.223775	0.098567
	H34	H	0.351456	0.778738	0.105793
	H35	H	0.661878	0.783549	0.892093
	H36	H	0.348514	0.898393	0.218040
	H37	H	0.662025	0.106378	0.214278
	H38	H	0.348563	0.105828	0.775443
	H39	H	0.662615	0.901899	0.777624
	H40	H	0.900943	0.224952	0.338929
	H41	H	0.109145	0.224974	0.652782
	H42	H	0.111555	0.781322	0.340136
	H43	H	0.896950	0.782207	0.651914
	H44	H	0.228927	0.351410	0.886394
	H45	H	0.228244	0.659896	0.102995
	H46	H	0.783837	0.348712	0.100568
	H47	H	0.781537	0.658814	0.889425
	H48	H	0.417640	0.114990	0.587279
	H49	H	0.595922	0.890042	0.590501
	H50	H	0.593725	0.116597	0.403511
	H51	H	0.413611	0.891757	0.404262
	H52	H	0.600524	0.414711	0.110673
	H53	H	0.593325	0.591120	0.884963
	H54	H	0.424058	0.589121	0.105175
	H55	H	0.416118	0.409696	0.882165
	H56	H	0.114617	0.591646	0.407537
	H57	H	0.894305	0.592809	0.581686
	H58	H	0.119189	0.411685	0.588806
	H59	H	0.892018	0.411082	0.404686
	H60	H	0.116703	0.411541	0.581007
	H61	H	0.892779	0.592973	0.586091
	H62	H	0.115121	0.592808	0.409553
	H63	H	0.896036	0.413085	0.413131
	H64	H	0.417548	0.596193	0.111178
	H65	H	0.592437	0.593473	0.884806
	H66	H	0.591706	0.418161	0.108537
	H67	H	0.411395	0.415618	0.882250
	H68	H	0.593693	0.114742	0.408874
	H69	H	0.589609	0.894874	0.581814
	H70	H	0.415897	0.114039	0.582204
	H71	H	0.418900	0.893663	0.406645
	H72	H	0.915736	0.615212	0.082264
	H73	H	0.092727	0.393494	0.084136
	H74	H	0.097201	0.616250	0.911444
	H75	H	0.914210	0.393027	0.907124
	H76	H	0.095152	0.924368	0.606512
	H77	H	0.087585	0.087983	0.386657
	H78	H	0.911543	0.091149	0.609838
	H79	H	0.923428	0.917604	0.386051
	H80	H	0.619537	0.102165	0.904243
	H81	H	0.390379	0.098389	0.088559
	H82	H	0.615768	0.920336	0.088826
	H83	H	0.393376	0.912172	0.908030
	H84	H	0.618243	0.909717	0.085230
	H85	H	0.393982	0.095598	0.080380
	H86	H	0.614181	0.094848	0.913676
	H87	H	0.394210	0.914882	0.908578
	H88	H	0.918994	0.092767	0.605889
	H89	H	0.092588	0.098876	0.381041
	H90	H	0.084523	0.913736	0.606422
	H91	H	0.915866	0.911061	0.381125
	H92	H	0.095510	0.618080	0.904578
	H93	H	0.093904	0.394313	0.082395
	H94	H	0.914105	0.616690	0.084836
	H95	H	0.912209	0.391021	0.904864
	H96	H	0.412297	0.116175	0.585784
	H97	H	0.601262	0.892570	0.580193
	H98	H	0.598486	0.116813	0.407081
	H99	H	0.414353	0.893364	0.410427
	H100	H	0.592901	0.408921	0.111765
	H101	H	0.594581	0.592713	0.883336
	H102	H	0.413727	0.586028	0.107714
	H103	H	0.418894	0.416371	0.884237
	H104	H	0.114538	0.590454	0.410121
	H105	H	0.892269	0.596703	0.583375
	H106	H	0.116312	0.417982	0.585106
	H107	H	0.895848	0.419499	0.405777
	H108	H	0.917103	0.615923	0.084899
	H109	H	0.094969	0.393373	0.083676
	H110	H	0.090539	0.614246	0.908385
	H111	H	0.915516	0.392290	0.903699
	H112	H	0.098700	0.910774	0.612345
	H113	H	0.100259	0.088155	0.382723
	H114	H	0.915294	0.099125	0.610736
	H115	H	0.913725	0.921078	0.383545
	H116	H	0.616623	0.089948	0.901449
	H117	H	0.393731	0.089334	0.087604
	H118	H	0.612943	0.917542	0.077762
	H119	H	0.393338	0.913504	0.905451
	C120	C	0.384236	0.011410	0.616698
	C121	C	0.627267	0.995686	0.616689
	C122	C	0.626822	0.012879	0.374147
	C123	C	0.382889	0.995715	0.374581
	C124	C	0.625554	0.383364	0.005363
	C125	C	0.626712	0.625524	0.987851
	C126	C	0.385782	0.623893	0.004736
	C127	C	0.383067	0.382165	0.986940
	C128	C	0.012745	0.625072	0.375346
	C129	C	0.995711	0.626441	0.617082
	C130	C	0.013515	0.383003	0.616769
	C131	C	0.997029	0.381972	0.374164
	C132	C	0.883656	0.512937	0.116489
	C133	C	0.126396	0.496584	0.116808
	C134	C	0.126480	0.513767	0.874637
	C135	C	0.882666	0.495626	0.874046
	C136	C	0.125631	0.883327	0.504755
	C137	C	0.125677	0.124511	0.487298
	C138	C	0.883727	0.125694	0.504612
	C139	C	0.884227	0.883299	0.486724
	C140	C	0.513434	0.126568	0.873583
	C141	C	0.496375	0.125404	0.116905
	C142	C	0.513406	0.882609	0.117579
	C143	C	0.497079	0.882512	0.875878
	C144	C	0.383758	0.893223	0.674891
	C145	C	0.628372	0.113295	0.676789
	C146	C	0.627720	0.895114	0.314131
	C147	C	0.381334	0.113675	0.315199
	C148	C	0.683027	0.383580	0.885267
	C149	C	0.686807	0.628254	0.105938
	C150	C	0.325280	0.627007	0.886830
	C151	C	0.323302	0.380408	0.105661
	C152	C	0.897401	0.687900	0.369598
	C153	C	0.112340	0.687807	0.621109
	C154	C	0.895530	0.324233	0.617956
	C155	C	0.113461	0.320810	0.369679
	C156	C	0.894754	0.383584	0.674559
	C157	C	0.112774	0.628894	0.677751
	C158	C	0.896164	0.627937	0.313806
	C159	C	0.113584	0.378928	0.312046
	C160	C	0.382737	0.684622	0.886781
	C161	C	0.629579	0.685925	0.106119
	C162	C	0.625258	0.326266	0.885101
	C163	C	0.381462	0.323625	0.106223
	C164	C	0.687001	0.895829	0.370503
	C165	C	0.686709	0.113236	0.619089
	C166	C	0.324452	0.894124	0.618558
	C167	C	0.321876	0.112602	0.371475
	C168	C	0.882473	0.395170	0.176029
	C169	C	0.128710	0.613863	0.177988
	C170	C	0.128456	0.396384	0.813663
	C171	C	0.881439	0.613458	0.815259
	C172	C	0.186931	0.879375	0.386905
	C173	C	0.185612	0.127603	0.605493
	C174	C	0.825220	0.126995	0.385502
	C175	C	0.823348	0.880779	0.604745
	C176	C	0.395393	0.184638	0.871881
	C177	C	0.614499	0.184126	0.117714
	C178	C	0.397176	0.820400	0.122230
	C179	C	0.615102	0.823636	0.874008
	C180	C	0.396112	0.879679	0.178504
	C181	C	0.614727	0.125872	0.175217
	C182	C	0.395665	0.126112	0.814520
	C183	C	0.615528	0.882734	0.817343
	C184	C	0.882293	0.185017	0.385906
	C185	C	0.127822	0.184847	0.605580
	C186	C	0.129305	0.821880	0.387071
	C187	C	0.880039	0.822600	0.604828
	C188	C	0.187468	0.397283	0.870161
	C189	C	0.187410	0.613389	0.120688
	C190	C	0.823678	0.395515	0.119102
	C191	C	0.822333	0.612509	0.871806
	C192	C	0.408416	0.093721	0.592118
	C193	C	0.602626	0.913618	0.591240
	C194	C	0.602341	0.094662	0.399341
	C195	C	0.408398	0.914276	0.399864
	C196	C	0.601953	0.407102	0.088604
	C197	C	0.600880	0.599849	0.905763
	C198	C	0.411293	0.597899	0.086636
	C199	C	0.408078	0.406764	0.904408
	C200	C	0.093733	0.599048	0.401622
	C201	C	0.914376	0.601223	0.591212
	C202	C	0.095906	0.406912	0.592107
	C203	C	0.915674	0.407449	0.400388
	C204	C	0.908685	0.594756	0.091226
	C205	C	0.101041	0.414940	0.090673
	C206	C	0.101573	0.595098	0.900793
	C207	C	0.906987	0.413467	0.898443
	C208	C	0.100102	0.908981	0.586976
	C209	C	0.100627	0.098919	0.404929
	C210	C	0.908241	0.101463	0.587268
	C211	C	0.910305	0.908977	0.404826
	C212	C	0.595454	0.102687	0.899131
	C213	C	0.414210	0.101167	0.092397
	C214	C	0.594521	0.908342	0.091361
	C215	C	0.415051	0.906396	0.900448
	Zn216	Zn	0.505551	0.003231	0.745669
	Zn217	Zn	0.504466	0.004485	0.246052
	Zn218	Zn	0.754124	0.503976	-0.003807
	Zn219	Zn	0.255889	0.504810	-0.003768
	Zn220	Zn	0.004663	0.755235	0.496044
	Zn221	Zn	0.005233	0.253135	0.495758
	Zn222	Zn	0.004680	0.504870	0.745856
	Zn223	Zn	0.005131	0.504191	0.245645
	Zn224	Zn	0.505543	0.753224	-0.003012
	Zn225	Zn	0.504480	0.255095	-0.003866
	Zn226	Zn	0.756135	0.004153	0.495111
	Zn227	Zn	0.254288	0.003800	0.496273
	N228	N	0.420367	0.967301	0.673827
	N229	N	0.592308	0.039055	0.675487
	N230	N	0.590992	0.968927	0.316052
	N231	N	0.418408	0.039885	0.316734
	N232	N	0.683492	0.418402	0.960926
	N233	N	0.685489	0.591695	0.031252
	N234	N	0.327120	0.589960	0.961125
	N235	N	0.323920	0.415993	0.030385
	N236	N	0.970842	0.686240	0.407187
	N237	N	0.038487	0.686559	0.584372
	N238	N	0.970520	0.323618	0.582853
	N239	N	0.039918	0.322498	0.407735
	N240	N	0.969256	0.419306	0.674089
	N241	N	0.039104	0.591473	0.675674
	N242	N	0.968924	0.589395	0.317221
	N243	N	0.040103	0.416247	0.314556
	N244	N	0.419668	0.682897	0.961293
	N245	N	0.592941	0.684442	0.031509
	N246	N	0.590332	0.325819	0.960703
	N247	N	0.417839	0.324398	0.031335
	N248	N	0.686674	0.970088	0.407062
	N249	N	0.686384	0.038818	0.582740
	N250	N	0.324313	0.968848	0.583370
	N251	N	0.322486	0.038243	0.407390
	N252	N	0.918970	0.469219	0.174647
	N253	N	0.091770	0.539992	0.175940
	N254	N	0.091084	0.469871	0.816155
	N255	N	0.918254	0.539682	0.816431
	N256	N	0.184800	0.916917	0.461098
	N257	N	0.184416	0.090639	0.530829
	N258	N	0.825913	0.090891	0.460335
	N259	N	0.825675	0.917793	0.530486
	N260	N	0.469833	0.185339	0.907762
	N261	N	0.539774	0.184435	0.082452
	N262	N	0.471254	0.821806	0.085349
	N263	N	0.540396	0.823149	0.909491
	N264	N	0.469307	0.917800	0.175868
	N265	N	0.540246	0.090202	0.174939
	N266	N	0.470282	0.090891	0.815261
	N267	N	0.541084	0.918301	0.817843
	N268	N	0.917769	0.184600	0.461082
	N269	N	0.091364	0.183223	0.530943
	N270	N	0.091764	0.824324	0.461332
	N271	N	0.917052	0.823799	0.530189
	N272	N	0.186661	0.471130	0.907307
	N273	N	0.186109	0.539443	0.083509
	N274	N	0.824144	0.469877	0.083070
	N275	N	0.822904	0.538145	0.907625
	O276	O	-0.192522	0.800636	0.201833
	H277	H	-0.179074	0.802430	0.193642
	H278	H	-0.185868	0.816644	0.186859
	O279	O	0.535166	0.424835	0.302497
	H280	H	0.559366	0.428703	0.299916
	H281	H	0.507555	0.434824	0.292270
	O282	O	1.054417	0.180727	1.012143
	H283	H	1.062703	0.177956	1.006482
	H284	H	1.051635	0.181533	1.010364
	O285	O	0.619257	0.295194	0.608793
	H286	H	0.645041	0.280527	0.594301
	H287	H	0.608391	0.298306	0.602407
	O288	O	0.313959	0.684339	0.673057
	H289	H	0.341104	0.679828	0.671515
	H290	H	0.303571	0.653815	0.645946
	O291	O	0.722952	0.342164	0.483969
	H292	H	0.736235	0.326831	0.487832
	H293	H	0.723337	0.332182	0.449150
	O294	O	0.872259	-0.044944	0.822254
	H295	H	0.856671	-0.057169	0.814739
	H296	H	0.882900	-0.056638	0.833955
	O297	O	0.479989	0.715276	0.285832
	H298	H	0.469743	0.736691	0.267891
	H299	H	0.465941	0.714365	0.294910
	O300	O	-0.028787	0.217657	0.774997
	H301	H	-0.025637	0.231337	0.762176
	H302	H	-0.016636	0.217948	0.776013
	O303	O	0.302900	0.708637	0.451095
	H304	H	0.294995	0.701401	0.454220
	H305	H	0.291597	0.717494	0.441438
	O306	O	0.709356	0.708967	0.692232
	H307	H	0.695374	0.718152	0.658250
	H308	H	0.715033	0.654622	0.701316
	O309	O	0.539484	0.504603	0.512520
	H310	H	0.531623	0.496585	0.500855
	H311	H	0.534316	0.501018	0.520761
	O312	O	0.726949	0.722076	0.519836
	H313	H	0.756676	0.749031	0.517684
	H314	H	0.703139	0.714528	0.511843
	O315	O	1.009396	1.029837	0.782131
	H316	H	1.008131	1.030627	0.793528
	H317	H	0.994601	1.028547	0.777956
	O318	O	0.379569	0.524874	0.606531
	H319	H	0.371138	0.511869	0.600710
	H320	H	0.371248	0.534890	0.606133
	O321	O	0.196880	0.968676	0.790196
	H322	H	0.211261	0.954963	0.781510
	H323	H	0.196522	0.957725	0.787100
	O324	O	0.964549	0.790062	0.134502
	H325	H	0.977775	0.789326	0.131725
	H326	H	0.972003	0.793215	0.153155
	O327	O	0.171641	0.069058	0.880582
	H328	H	0.189464	0.072342	0.863934
	H329	H	0.167718	0.073688	0.884558
	O330	O	0.811145	0.200389	0.189496
	H331	H	0.838096	0.182713	0.179485
	H332	H	0.820077	0.182560	0.160641
	O333	O	0.297812	0.296439	0.696980
	H334	H	0.295595	0.301132	0.652141
	H335	H	0.340822	0.297132	0.697277
	O336	O	0.286927	0.477651	0.696651
	H337	H	0.275197	0.453717	0.693651
	H338	H	0.280889	0.468586	0.704942
	O339	O	1.223192	0.043888	1.105651
	H340	H	1.218751	0.038192	1.082928
	H341	H	1.238121	0.061850	1.125216
	O342	O	0.166518	-0.148473	0.148200
	H343	H	0.162686	-0.135041	0.137123
	H344	H	0.155002	-0.133771	0.137371
	O345	O	-0.037526	1.029223	1.025821
	H346	H	-0.044052	1.021631	1.034709
	H347	H	-0.037477	1.042526	1.032693
	O348	O	0.226125	-0.047345	0.050777
	H349	H	0.233953	-0.027676	0.038271
	H350	H	0.221973	-0.036304	0.037405
	O351	O	0.652903	0.563014	0.398753
	H352	H	0.646767	0.560707	0.396597
	H353	H	0.663319	0.562070	0.410169
	O354	O	0.028917	0.212525	1.201856
	H355	H	0.033790	0.217016	1.187842
	H356	H	0.044014	0.222039	1.214304
	O357	O	0.710909	0.294692	0.350127
	H358	H	0.734106	0.272847	0.320155
	H359	H	0.718780	0.325154	0.333457
	O360	O	0.166393	0.116732	0.810489
	H361	H	0.176939	0.112844	0.797151
	H362	H	0.154680	0.100171	0.805269
	O363	O	-0.198134	-0.087372	0.094572
	H364	H	-0.215549	-0.092818	0.090885
	H365	H	-0.180736	-0.086073	0.087015
	O366	O	0.600428	0.350660	0.655547
	H367	H	0.581785	0.348229	0.643779
	H368	H	0.594952	0.375961	0.638946
	O369	O	0.900457	0.191326	0.056821
	H370	H	0.918963	0.196113	0.048369
	H371	H	0.887587	0.193360	0.038583
	O372	O	0.947990	0.941662	0.041407
	H373	H	0.932270	0.954641	0.019551
	H374	H	0.938499	0.926574	0.040860
	O375	O	0.789328	0.222275	-0.041279
	H376	H	0.789515	0.214967	-0.069679
	H377	H	0.768687	0.234556	-0.036976
	O378	O	0.540513	0.726994	0.721185
	H379	H	0.574994	0.725220	0.728543
	H380	H	0.537301	0.740419	0.749574
	O381	O	0.210513	0.796932	0.790136
	H382	H	0.214844	0.786999	0.772808
	H383	H	0.200623	0.791946	0.802305
	O384	O	0.795720	0.212543	0.789092
	H385	H	0.826528	0.217863	0.803280
	H386	H	0.780674	0.211955	0.770234
	O387	O	1.221460	0.789395	-0.025806
	H388	H	1.251904	0.761431	-0.030573
	H389	H	1.219587	0.812612	-0.028359
	O390	O	0.591419	0.286833	0.284714
	H391	H	0.598788	0.301607	0.264357
	H392	H	0.629142	0.277964	0.270145
	O393	O	0.299516	0.560905	0.545423
	H394	H	0.301655	0.549189	0.543941
	H395	H	0.303053	0.549905	0.538924
	O396	O	-0.147973	0.843562	0.872340
	H397	H	-0.138339	0.840479	0.874741
	H398	H	-0.155562	0.825677	0.856201
	O399	O	0.072664	0.226299	0.929139
	H400	H	0.090547	0.224699	0.937806
	H401	H	0.077270	0.223541	0.910625
	O402	O	0.395897	0.300727	0.518738
	H403	H	0.389383	0.290206	0.505230
	H404	H	0.400002	0.308770	0.502982
	O405	O	1.000107	-0.116950	1.014966
	H406	H	1.005112	-0.108942	1.012406
	H407	H	0.986145	-0.123316	1.002947
	O408	O	-0.003781	-0.103725	-0.056579
	H409	H	-0.005602	-0.105542	-0.056648
	H410	H	0.004196	-0.100466	-0.071530
	O411	O	0.471836	0.679324	0.550322
	H412	H	0.484469	0.688097	0.571118
	H413	H	0.459568	0.668711	0.555267
	O414	O	0.523193	0.441587	0.595564
	H415	H	0.515175	0.439890	0.585346
	H416	H	0.512074	0.443882	0.596480
	O417	O	0.646621	0.546377	0.706315
	H418	H	0.655018	0.526124	0.703374
	H419	H	0.640115	0.527059	0.715552
	O420	O	0.631325	0.701274	0.368629
	H421	H	0.610740	0.704218	0.391250
	H422	H	0.650094	0.723625	0.353236
	O423	O	-0.191415	0.048865	0.793714
	H424	H	-0.198856	0.048355	0.794056
	H425	H	-0.193936	0.053959	0.775117
	O426	O	0.605731	0.510627	0.500451
	H427	H	0.607167	0.511311	0.505629
	H428	H	0.612215	0.527861	0.503184
	O429	O	1.220295	1.190880	0.994878
	H430	H	1.221142	1.199909	0.990735
	H431	H	1.222360	1.204122	0.983400
	O432	O	0.488507	0.598627	0.443683
	H433	H	0.480939	0.592485	0.456725
	H434	H	0.484355	0.607699	0.452876
	O435	O	-0.132826	0.777196	0.026361
	H436	H	-0.144928	0.760597	0.040152
	H437	H	-0.131324	0.781058	0.030458
	O438	O	-0.102565	-0.016588	0.138800
	H439	H	-0.108142	-0.036189	0.126334
	H440	H	-0.108110	-0.019550	0.148983
	O441	O	0.139149	-0.017111	0.221821
	H442	H	0.158143	-0.015870	0.239380
	H443	H	0.121629	-0.018308	0.222164
	O444	O	0.368478	0.313126	0.352032
	H445	H	0.369593	0.324120	0.346549
	H446	H	0.372922	0.308672	0.343804
	O447	O	0.028464	0.787499	0.781334
	H448	H	0.038454	0.794511	0.790139
	H449	H	0.028177	0.769748	0.762146
	O450	O	-0.141930	0.943287	1.100098
	H451	H	-0.134922	0.936461	1.095133
	H452	H	-0.151201	0.940083	1.105177
	O453	O	0.457418	0.291027	0.710963
	H454	H	0.480243	0.291329	0.692236
	H455	H	0.463008	0.264908	0.733905
	O456	O	0.199406	0.191253	1.181325
	H457	H	0.196097	0.181711	1.163884
	H458	H	0.211194	0.178747	1.181980
	O459	O	0.589283	0.670857	0.463775
	H460	H	0.587579	0.678872	0.459931
	H461	H	0.575333	0.674390	0.470323
	O462	O	0.663041	0.528847	0.366667
	H463	H	0.669782	0.537974	0.350683
	H464	H	0.655204	0.551735	0.367947
	O465	O	0.930584	-0.096015	-0.023706
	H466	H	0.911607	-0.102677	-0.033432
	H467	H	0.925067	-0.101816	-0.034668
	O468	O	0.511435	0.445861	0.272848
	H469	H	0.504348	0.432792	0.265377
	H470	H	0.533173	0.459408	0.280731
	O471	O	0.455898	0.486725	0.403367
	H472	H	0.458765	0.507116	0.401106
	H473	H	0.458525	0.471558	0.396921
	O474	O	0.280858	0.532473	0.280936
	H475	H	0.264759	0.535281	0.259458
	H476	H	0.290052	0.543520	0.276498
	O477	O	0.277385	0.392374	1.475724
	H478	H	0.282891	0.381698	1.476362
	H479	H	0.279757	0.396705	1.447550
	O480	O	0.478161	0.312984	0.526726
	H481	H	0.494467	0.311296	0.492247
	H482	H	0.473710	0.311185	0.540058
	O483	O	0.718437	0.466830	0.589773
	H484	H	0.719661	0.456528	0.572799
	H485	H	0.733757	0.460303	0.584636
	O486	O	0.301520	0.704576	0.296934
	H487	H	0.295355	0.689672	0.321540
	H488	H	0.295911	0.724621	0.272835
	O489	O	0.949324	1.059796	0.214519
	H490	H	0.962140	1.059229	0.203466
	H491	H	0.940851	1.069113	0.209619
