data_Molecule from HDF5

_cell_length_a		16.298095
_cell_length_b		16.105596
_cell_length_c		16.261686
_cell_angle_alpha	89.938705
_cell_angle_beta	89.850699
_cell_angle_gamma	90.044220
_symmetry_space_group_name_H-M	'P 1'
_symmetry_Int_Tables_number		1

loop_
	_symmetry_equiv_pos_as_xyz
	x,y,z

loop_
	_atom_site_label
	_atom_site_type_symbol
	_atom_site_fract_x
	_atom_site_fract_y
	_atom_site_fract_z
	H0	H	0.393650	0.831408	0.712939
	H1	H	0.589782	0.162569	0.711051
	H2	H	0.589057	0.830125	0.288189
	H3	H	0.394599	0.161572	0.286848
	H4	H	0.704038	0.397294	0.834257
	H5	H	0.705913	0.595608	0.161583
	H6	H	0.277162	0.596939	0.834109
	H7	H	0.273752	0.395327	0.160947
	H8	H	0.826192	0.710639	0.401178
	H9	H	0.155583	0.709038	0.592372
	H10	H	0.826367	0.284232	0.594322
	H11	H	0.154879	0.285290	0.400450
	H12	H	0.827861	0.396871	0.712963
	H13	H	0.154575	0.596335	0.712181
	H14	H	0.826289	0.597522	0.282605
	H15	H	0.152819	0.397124	0.280990
	H16	H	0.394277	0.711809	0.834194
	H17	H	0.587011	0.707822	0.163543
	H18	H	0.587420	0.283528	0.834572
	H19	H	0.393317	0.283005	0.163421
	H20	H	0.705042	0.830858	0.401085
	H21	H	0.706112	0.161280	0.597608
	H22	H	0.276468	0.831873	0.599247
	H23	H	0.279308	0.162356	0.401298
	H24	H	0.890868	0.331531	0.211184
	H25	H	0.087775	0.662748	0.210655
	H26	H	0.088663	0.331247	0.785384
	H27	H	0.893262	0.661281	0.785971
	H28	H	0.208068	0.896562	0.335742
	H29	H	0.203545	0.095417	0.662586
	H30	H	0.775509	0.097285	0.335549
	H31	H	0.777292	0.897357	0.662906
	H32	H	0.326952	0.208147	0.903992
	H33	H	0.655710	0.210426	0.096671
	H34	H	0.325877	0.783115	0.096940
	H35	H	0.655869	0.785426	0.903333
	H36	H	0.327312	0.896603	0.216117
	H37	H	0.655601	0.095352	0.214553
	H38	H	0.328790	0.097265	0.783741
	H39	H	0.654952	0.897541	0.783775
	H40	H	0.894655	0.209625	0.333926
	H41	H	0.086780	0.209616	0.663064
	H42	H	0.088513	0.784334	0.333421
	H43	H	0.894317	0.783222	0.663124
	H44	H	0.204845	0.331598	0.899033
	H45	H	0.204771	0.661706	0.096543
	H46	H	0.777105	0.331265	0.095689
	H47	H	0.776821	0.660559	0.897916
	H48	H	0.398662	0.114441	0.590597
	H49	H	0.579154	0.879169	0.594687
	H50	H	0.590190	0.117071	0.402583
	H51	H	0.390883	0.877237	0.411363
	H52	H	0.579426	0.395963	0.116903
	H53	H	0.581295	0.591412	0.881579
	H54	H	0.397673	0.586054	0.114555
	H55	H	0.395318	0.404608	0.880847
	H56	H	0.110216	0.595428	0.396811
	H57	H	0.876023	0.583323	0.590041
	H58	H	0.103274	0.414988	0.588070
	H59	H	0.869320	0.399893	0.393241
	H60	H	0.112037	0.402288	0.603498
	H61	H	0.872272	0.590543	0.600154
	H62	H	0.104792	0.591332	0.413099
	H63	H	0.874053	0.396452	0.413332
	H64	H	0.398410	0.588814	0.114608
	H65	H	0.588444	0.592196	0.879441
	H66	H	0.593334	0.403624	0.118986
	H67	H	0.400029	0.403949	0.882206
	H68	H	0.576262	0.112597	0.404300
	H69	H	0.585935	0.879393	0.586505
	H70	H	0.395987	0.115242	0.592022
	H71	H	0.399263	0.876080	0.400636
	H72	H	0.900934	0.616539	0.098002
	H73	H	0.075231	0.381582	0.089220
	H74	H	0.083556	0.613422	0.908264
	H75	H	0.889651	0.374099	0.900307
	H76	H	0.085487	0.899812	0.616753
	H77	H	0.077660	0.085453	0.384655
	H78	H	0.902053	0.094370	0.615650
	H79	H	0.892526	0.902466	0.379642
	H80	H	0.611806	0.102061	0.907612
	H81	H	0.371532	0.094653	0.100664
	H82	H	0.610289	0.899530	0.099319
	H83	H	0.373529	0.904226	0.903508
	H84	H	0.607199	0.898432	0.089331
	H85	H	0.377726	0.090701	0.084992
	H86	H	0.603994	0.082163	0.913534
	H87	H	0.375317	0.903248	0.907557
	H88	H	0.890467	0.092761	0.618657
	H89	H	0.086874	0.100485	0.378273
	H90	H	0.086366	0.906432	0.615390
	H91	H	0.897032	0.909280	0.383492
	H92	H	0.087903	0.616240	0.904435
	H93	H	0.086449	0.379696	0.083744
	H94	H	0.902178	0.611570	0.083919
	H95	H	0.904229	0.377229	0.900194
	H96	H	0.399032	0.115164	0.593525
	H97	H	0.588857	0.876404	0.596394
	H98	H	0.586023	0.112507	0.414591
	H99	H	0.403900	0.881538	0.412604
	H100	H	0.580916	0.411755	0.112181
	H101	H	0.586231	0.586314	0.882578
	H102	H	0.395318	0.587917	0.115038
	H103	H	0.397321	0.400010	0.880625
	H104	H	0.104387	0.579602	0.399785
	H105	H	0.873202	0.596013	0.588518
	H106	H	0.109288	0.393994	0.584530
	H107	H	0.876754	0.415192	0.405400
	H108	H	0.889809	0.616455	0.088580
	H109	H	0.085459	0.375832	0.096014
	H110	H	0.082402	0.615556	0.901698
	H111	H	0.896523	0.379994	0.912982
	H112	H	0.080329	0.903074	0.614825
	H113	H	0.095911	0.084672	0.380010
	H114	H	0.897270	0.083751	0.614181
	H115	H	0.900781	0.901796	0.381662
	H116	H	0.610874	0.085558	0.892670
	H117	H	0.377707	0.078311	0.097059
	H118	H	0.605580	0.908727	0.094825
	H119	H	0.375292	0.906934	0.905641
	C120	C	0.369794	0.005632	0.620997
	C121	C	0.612997	0.987774	0.620424
	C122	C	0.612580	0.004517	0.379021
	C123	C	0.370284	0.987657	0.379360
	C124	C	0.612363	0.375044	0.007457
	C125	C	0.613299	0.618408	0.989740
	C126	C	0.369236	0.617492	0.006446
	C127	C	0.368944	0.374389	0.989841
	C128	C	-0.001701	0.618304	0.375382
	C129	C	0.982460	0.618433	0.620037
	C130	C	-0.000415	0.375287	0.619828
	C131	C	0.981522	0.375200	0.375422
	C132	C	0.868982	0.505601	0.118484
	C133	C	0.111117	0.488277	0.118789
	C134	C	0.112498	0.505706	0.876481
	C135	C	0.869447	0.486909	0.876561
	C136	C	0.113006	0.874706	0.507353
	C137	C	0.113543	0.118928	0.489495
	C138	C	0.868847	0.118501	0.507255
	C139	C	0.869022	0.875392	0.490336
	C140	C	0.500040	0.118277	0.877263
	C141	C	0.483535	0.117352	0.122109
	C142	C	0.499345	0.873429	0.122707
	C143	C	0.483157	0.875844	0.877460
	C144	C	0.372564	0.881071	0.675931
	C145	C	0.610167	0.112717	0.674200
	C146	C	0.609818	0.879934	0.324927
	C147	C	0.373272	0.112097	0.324010
	C148	C	0.666616	0.377276	0.883448
	C149	C	0.668123	0.615874	0.112880
	C150	C	0.314524	0.616908	0.883087
	C151	C	0.312550	0.375584	0.112647
	C152	C	0.874977	0.673242	0.379710
	C153	C	0.106211	0.672428	0.614898
	C154	C	0.875800	0.321225	0.615602
	C155	C	0.105423	0.321831	0.379272
	C156	C	0.876456	0.377242	0.674653
	C157	C	0.105745	0.616199	0.674170
	C158	C	0.874973	0.616905	0.320852
	C159	C	0.104392	0.377505	0.319744
	C160	C	0.372879	0.673989	0.883178
	C161	C	0.608810	0.671639	0.113932
	C162	C	0.608740	0.320496	0.883679
	C163	C	0.371765	0.319683	0.113949
	C164	C	0.667330	0.880160	0.381190
	C165	C	0.667699	0.112355	0.617549
	C166	C	0.314365	0.881270	0.619367
	C167	C	0.316290	0.112554	0.381043
	C168	C	0.870686	0.380968	0.173723
	C169	C	0.108474	0.612981	0.173394
	C170	C	0.109604	0.380823	0.822113
	C171	C	0.872630	0.611576	0.822224
	C172	C	0.169125	0.877045	0.384159
	C173	C	0.166725	0.116308	0.613494
	C174	C	0.814085	0.116498	0.384066
	C175	C	0.815023	0.877377	0.613900
	C176	C	0.376367	0.171547	0.882009
	C177	C	0.606885	0.172351	0.117923
	C178	C	0.375483	0.819215	0.119023
	C179	C	0.606668	0.821858	0.881639
	C180	C	0.376250	0.876049	0.178111
	C181	C	0.606727	0.115148	0.176401
	C182	C	0.377470	0.116453	0.822092
	C183	C	0.606196	0.877724	0.822311
	C184	C	0.873306	0.172309	0.383232
	C185	C	0.108723	0.172952	0.613673
	C186	C	0.109749	0.821098	0.382954
	C187	C	0.873308	0.820895	0.614140
	C188	C	0.167256	0.380886	0.878612
	C189	C	0.166771	0.612489	0.116828
	C190	C	0.814453	0.380655	0.116279
	C191	C	0.814901	0.611410	0.878284
	C192	C	0.391535	0.092549	0.598635
	C193	C	0.591086	0.900652	0.598896
	C194	C	0.590696	0.091731	0.400929
	C195	C	0.391575	0.900762	0.401645
	C196	C	0.590957	0.397332	0.093625
	C197	C	0.591729	0.596602	0.903482
	C198	C	0.390876	0.594396	0.092469
	C199	C	0.391159	0.396353	0.903573
	C200	C	0.084118	0.595428	0.396748
	C201	C	0.896052	0.596374	0.599255
	C202	C	0.085961	0.397062	0.598228
	C203	C	0.895489	0.397419	0.397487
	C204	C	0.891046	0.592475	0.096557
	C205	C	0.088912	0.401499	0.096255
	C206	C	0.091025	0.592593	0.898399
	C207	C	0.890509	0.399791	0.898156
	C208	C	0.090715	0.896786	0.593298
	C209	C	0.092791	0.096784	0.403266
	C210	C	0.890128	0.096479	0.593775
	C211	C	0.890510	0.897805	0.403932
	C212	C	0.586585	0.096321	0.898446
	C213	C	0.397772	0.094701	0.100545
	C214	C	0.585357	0.895584	0.100903
	C215	C	0.396961	0.898100	0.899262
	Zn216	Zn	0.491953	-0.003138	0.748409
	Zn217	Zn	0.491900	-0.004310	0.251628
	Zn218	Zn	0.741537	0.495905	-0.002224
	Zn219	Zn	0.240397	0.496483	-0.002633
	Zn220	Zn	-0.009539	0.746654	0.497539
	Zn221	Zn	-0.009071	0.246468	0.498137
	Zn222	Zn	-0.009108	0.496526	0.749061
	Zn223	Zn	-0.010689	0.497021	0.246205
	Zn224	Zn	0.490794	0.746209	-0.001076
	Zn225	Zn	0.491384	0.246582	-0.000513
	Zn226	Zn	0.740311	-0.003421	0.498860
	Zn227	Zn	0.241753	-0.002981	0.499268
	N228	N	0.406196	0.959463	0.677139
	N229	N	0.576772	0.034143	0.676084
	N230	N	0.576488	0.958297	0.323488
	N231	N	0.406032	0.033500	0.322718
	N232	N	0.669098	0.410491	0.961487
	N233	N	0.670903	0.583506	0.034767
	N234	N	0.312326	0.582640	0.960639
	N235	N	0.310678	0.408836	0.034532
	N236	N	0.952543	0.674224	0.412882
	N237	N	0.028622	0.673893	0.581895
	N238	N	0.953379	0.320010	0.581957
	N239	N	0.028032	0.320226	0.413139
	N240	N	0.954425	0.410114	0.677290
	N241	N	0.027573	0.583517	0.677578
	N242	N	0.952775	0.583668	0.317779
	N243	N	0.026309	0.409971	0.317120
	N244	N	0.406188	0.674419	0.960930
	N245	N	0.575377	0.673434	0.036238
	N246	N	0.575901	0.318875	0.961678
	N247	N	0.405962	0.318828	0.036573
	N248	N	0.669113	0.958865	0.414061
	N249	N	0.669571	0.033703	0.584878
	N250	N	0.312573	0.959698	0.585862
	N251	N	0.314134	0.034073	0.414614
	N252	N	0.904084	0.459429	0.175191
	N253	N	0.074866	0.534668	0.174788
	N254	N	0.076451	0.459246	0.820574
	N255	N	0.905823	0.533086	0.820883
	N256	N	0.171426	0.909664	0.462331
	N257	N	0.169900	0.083401	0.535451
	N258	N	0.811326	0.083706	0.462316
	N259	N	0.812553	0.910986	0.536054
	N260	N	0.453769	0.172915	0.915330
	N261	N	0.529253	0.173920	0.084929
	N262	N	0.452980	0.817664	0.085080
	N263	N	0.529021	0.820700	0.915363
	N264	N	0.454219	0.908828	0.180572
	N265	N	0.529004	0.081688	0.179186
	N266	N	0.455600	0.083976	0.819120
	N267	N	0.528276	0.910530	0.819704
	N268	N	0.906759	0.173527	0.460753
	N269	N	0.076444	0.174917	0.535597
	N270	N	0.075694	0.819475	0.460420
	N271	N	0.906231	0.819587	0.536208
	N272	N	0.169260	0.459534	0.911755
	N273	N	0.168548	0.533908	0.083574
	N274	N	0.813227	0.459123	0.082661
	N275	N	0.812685	0.533111	0.911527
	O276	O	0.477850	0.503502	0.480087
	H277	H	0.479236	0.503872	0.487176
	H278	H	0.477686	0.506940	0.474490
	O279	O	0.433628	0.514286	0.523271
	H280	H	0.422816	0.510536	0.532454
	H281	H	0.445879	0.508182	0.535729
	O282	O	0.472403	0.529273	0.465092
	H283	H	0.472531	0.529384	0.468994
	H284	H	0.476798	0.518574	0.466175
	O285	O	0.029398	0.975193	1.018878
	H286	H	0.028668	0.978427	1.022823
	H287	H	0.033320	0.984625	1.022802
	O288	O	0.427935	0.560296	0.444466
	H289	H	0.429071	0.562922	0.436220
	H290	H	0.416180	0.552643	0.447188
	O291	O	0.024190	-0.023590	1.037416
	H292	H	0.024636	-0.018786	1.048128
	H293	H	0.029664	-0.010860	1.035826
	O294	O	1.050232	0.969311	1.008807
	H295	H	1.048978	0.966086	1.009088
	H296	H	1.050851	0.966633	1.004043
	O297	O	0.507930	0.541977	0.507973
	H298	H	0.505154	0.538695	0.499740
	H299	H	0.500650	0.544052	0.499711
	O300	O	0.467467	0.456879	0.472930
	H301	H	0.463338	0.454280	0.470200
	H302	H	0.451131	0.459370	0.475663
	O303	O	0.436471	0.473174	0.495503
	H304	H	0.444996	0.474757	0.491668
	H305	H	0.432929	0.468168	0.499853
	O306	O	1.455284	0.491124	0.482321
	H307	H	1.452775	0.506552	0.489041
	H308	H	1.454338	0.490003	0.483976
	O309	O	0.464950	0.544821	0.509634
	H310	H	0.465440	0.548522	0.507215
	H311	H	0.473086	0.545981	0.504743
	O312	O	0.477571	0.462498	0.489072
	H313	H	0.483047	0.469285	0.491815
	H314	H	0.471844	0.460893	0.494833
	O315	O	1.012255	0.011617	0.995941
	H316	H	1.011068	0.010800	1.000564
	H317	H	1.014115	0.007158	0.998789
	O318	O	0.075554	-0.044680	-0.019040
	H319	H	0.079993	-0.045553	-0.024321
	H320	H	0.078423	-0.042850	-0.015545
	O321	O	0.576991	0.521482	0.504833
	H322	H	0.573071	0.525097	0.499614
	H323	H	0.579609	0.521196	0.486363
	O324	O	1.068907	-0.036412	0.012432
	H325	H	1.065630	-0.047645	0.010023
	H326	H	1.067839	-0.038946	0.006582
	O327	O	1.037860	1.012468	0.049714
	H328	H	1.047831	1.004882	0.045582
	H329	H	1.045677	1.007403	0.059068
	O330	O	0.486276	0.485419	0.492191
	H331	H	0.493279	0.498822	0.485352
	H332	H	0.479340	0.485838	0.496018
	O333	O	0.444275	0.448253	0.490342
	H334	H	0.446058	0.440838	0.500453
	H335	H	0.452054	0.450182	0.492953
