data_Molecule from HDF5

_cell_length_a		16.286322
_cell_length_b		16.226159
_cell_length_c		16.282747
_cell_angle_alpha	90.160363
_cell_angle_beta	89.876273
_cell_angle_gamma	89.877978
_symmetry_space_group_name_H-M	'P 1'
_symmetry_Int_Tables_number		1

loop_
	_symmetry_equiv_pos_as_xyz
	x,y,z

loop_
	_atom_site_label
	_atom_site_type_symbol
	_atom_site_fract_x
	_atom_site_fract_y
	_atom_site_fract_z
	H0	H	0.404141	0.828560	0.709192
	H1	H	0.598702	0.157409	0.709596
	H2	H	0.601747	0.829469	0.280652
	H3	H	0.403605	0.157191	0.282589
	H4	H	0.715309	0.394968	0.831446
	H5	H	0.715185	0.592154	0.158606
	H6	H	0.288358	0.590573	0.831058
	H7	H	0.286102	0.394680	0.158648
	H8	H	0.838026	0.707145	0.397621
	H9	H	0.166714	0.705736	0.591929
	H10	H	0.837924	0.280700	0.592365
	H11	H	0.164976	0.278158	0.396647
	H12	H	0.838352	0.395508	0.709541
	H13	H	0.165709	0.591478	0.709806
	H14	H	0.838420	0.590792	0.282480
	H15	H	0.165441	0.394158	0.279951
	H16	H	0.404144	0.706618	0.831320
	H17	H	0.598184	0.706356	0.159049
	H18	H	0.600062	0.277403	0.832075
	H19	H	0.403113	0.278913	0.159698
	H20	H	0.716742	0.829855	0.397340
	H21	H	0.714552	0.157887	0.594086
	H22	H	0.288308	0.828657	0.593135
	H23	H	0.287460	0.157163	0.397325
	H24	H	0.903118	0.329708	0.209547
	H25	H	0.099826	0.658028	0.209239
	H26	H	0.101668	0.328990	0.780120
	H27	H	0.903538	0.657805	0.782557
	H28	H	0.217099	0.893887	0.332019
	H29	H	0.214325	0.091806	0.658795
	H30	H	0.788135	0.091542	0.331287
	H31	H	0.788558	0.895852	0.659187
	H32	H	0.338476	0.206698	0.899295
	H33	H	0.666000	0.206868	0.093801
	H34	H	0.337466	0.780255	0.091866
	H35	H	0.666200	0.778192	0.896980
	H36	H	0.338315	0.895466	0.210233
	H37	H	0.665147	0.092051	0.210569
	H38	H	0.338375	0.092848	0.781744
	H39	H	0.665529	0.893375	0.779313
	H40	H	0.902971	0.207558	0.331495
	H41	H	0.097122	0.206211	0.658898
	H42	H	0.100345	0.778941	0.330760
	H43	H	0.904461	0.780064	0.658407
	H44	H	0.216848	0.329216	0.895421
	H45	H	0.215147	0.657706	0.092493
	H46	H	0.788272	0.329595	0.093269
	H47	H	0.787930	0.657249	0.897836
	H48	H	0.405922	0.110462	0.588090
	H49	H	0.596387	0.874368	0.590275
	H50	H	0.580796	0.108296	0.395929
	H51	H	0.408278	0.876414	0.405801
	H52	H	0.593357	0.396163	0.112587
	H53	H	0.590601	0.586281	0.879563
	H54	H	0.406296	0.600949	0.116008
	H55	H	0.413848	0.392305	0.878575
	H56	H	0.115567	0.578453	0.407053
	H57	H	0.887508	0.581621	0.587244
	H58	H	0.119928	0.404841	0.595887
	H59	H	0.882464	0.403659	0.389691
	H60	H	0.121134	0.391502	0.588197
	H61	H	0.883392	0.587679	0.596495
	H62	H	0.122249	0.584627	0.391768
	H63	H	0.882723	0.389056	0.406083
	H64	H	0.395153	0.579324	0.113820
	H65	H	0.598454	0.588873	0.876085
	H66	H	0.599340	0.400103	0.113678
	H67	H	0.402023	0.398310	0.876739
	H68	H	0.597064	0.106862	0.417955
	H69	H	0.593321	0.876905	0.587892
	H70	H	0.407201	0.110869	0.592020
	H71	H	0.406658	0.874635	0.399597
	H72	H	0.917212	0.610268	0.096645
	H73	H	0.090336	0.375057	0.098086
	H74	H	0.085959	0.605070	0.907063
	H75	H	0.905770	0.375589	0.903717
	H76	H	0.095181	0.902797	0.611084
	H77	H	0.095342	0.101115	0.373588
	H78	H	0.900099	0.091982	0.616145
	H79	H	0.901103	0.905561	0.377705
	H80	H	0.616144	0.080655	0.907387
	H81	H	0.383788	0.089077	0.090089
	H82	H	0.619090	0.898847	0.089767
	H83	H	0.385858	0.903987	0.899008
	H84	H	0.618590	0.898414	0.087902
	H85	H	0.386212	0.085034	0.087464
	H86	H	0.619157	0.081633	0.895095
	H87	H	0.384192	0.894724	0.900411
	H88	H	0.906320	0.078222	0.609405
	H89	H	0.109285	0.077239	0.376104
	H90	H	0.092089	0.899172	0.611710
	H91	H	0.916575	0.902204	0.381491
	H92	H	0.104365	0.611236	0.907881
	H93	H	0.086614	0.381352	0.079072
	H94	H	0.910512	0.607127	0.077346
	H95	H	0.908542	0.374632	0.897571
	H96	H	0.409949	0.109494	0.589149
	H97	H	0.596859	0.875961	0.586302
	H98	H	0.606746	0.117337	0.393917
	H99	H	0.412676	0.876088	0.400856
	H100	H	0.593291	0.403198	0.110609
	H101	H	0.597508	0.580270	0.879130
	H102	H	0.419429	0.581861	0.107489
	H103	H	0.411988	0.405314	0.881767
	H104	H	0.120186	0.594981	0.405618
	H105	H	0.884376	0.592981	0.586001
	H106	H	0.115157	0.404152	0.580962
	H107	H	0.890047	0.409741	0.409479
	H108	H	0.897929	0.614798	0.091570
	H109	H	0.105052	0.374622	0.083489
	H110	H	0.094786	0.613475	0.891174
	H111	H	0.911801	0.376533	0.901694
	H112	H	0.097063	0.899051	0.612145
	H113	H	0.082536	0.078822	0.383778
	H114	H	0.915388	0.091771	0.610726
	H115	H	0.906899	0.890419	0.375374
	H116	H	0.620368	0.091880	0.903208
	H117	H	0.385117	0.084800	0.092177
	H118	H	0.618582	0.900231	0.088777
	H119	H	0.386858	0.900556	0.907267
	C120	C	0.379855	0.001383	0.617490
	C121	C	0.623343	0.984577	0.617247
	C122	C	0.623662	0.002175	0.373707
	C123	C	0.380686	0.984538	0.374002
	C124	C	0.624010	0.370927	0.004240
	C125	C	0.623027	0.613975	0.986748
	C126	C	0.379566	0.614679	0.003545
	C127	C	0.380659	0.371213	0.987102
	C128	C	0.010694	0.614537	0.373924
	C129	C	0.993741	0.615263	0.617512
	C130	C	0.010459	0.372086	0.616516
	C131	C	0.992945	0.371706	0.372883
	C132	C	0.880296	0.502170	0.116559
	C133	C	0.122817	0.485366	0.116023
	C134	C	0.123672	0.501572	0.873145
	C135	C	0.880539	0.484561	0.873656
	C136	C	0.123504	0.871374	0.503270
	C137	C	0.123136	0.114392	0.486238
	C138	C	0.879494	0.115258	0.503715
	C139	C	0.880239	0.871688	0.486598
	C140	C	0.510418	0.113754	0.874333
	C141	C	0.493254	0.114698	0.117631
	C142	C	0.510384	0.871447	0.116716
	C143	C	0.493753	0.870714	0.873200
	C144	C	0.383391	0.877669	0.671637
	C145	C	0.619297	0.108415	0.671851
	C146	C	0.621723	0.878604	0.318671
	C147	C	0.382943	0.108190	0.319904
	C148	C	0.678016	0.373917	0.880422
	C149	C	0.677574	0.612180	0.109958
	C150	C	0.325628	0.611411	0.880063
	C151	C	0.324619	0.374004	0.110097
	C152	C	0.887009	0.669197	0.377446
	C153	C	0.117276	0.669043	0.613408
	C154	C	0.886899	0.318021	0.613089
	C155	C	0.116461	0.316411	0.375758
	C156	C	0.886986	0.375327	0.671102
	C157	C	0.117196	0.611733	0.671473
	C158	C	0.887095	0.611721	0.320090
	C159	C	0.116520	0.374019	0.317838
	C160	C	0.382961	0.669251	0.880277
	C161	C	0.619143	0.668709	0.110243
	C162	C	0.620489	0.315731	0.880648
	C163	C	0.382973	0.316770	0.110709
	C164	C	0.678845	0.878703	0.376402
	C165	C	0.677132	0.108536	0.614573
	C166	C	0.325800	0.877699	0.613904
	C167	C	0.325653	0.108052	0.377323
	C168	C	0.883043	0.378573	0.171310
	C169	C	0.120429	0.608839	0.171324
	C170	C	0.121788	0.378083	0.817777
	C171	C	0.883058	0.608378	0.819455
	C172	C	0.178896	0.873456	0.380367
	C173	C	0.176839	0.111959	0.609749
	C174	C	0.825206	0.112380	0.380360
	C175	C	0.826022	0.875312	0.610003
	C176	C	0.387143	0.168800	0.878316
	C177	C	0.616824	0.169398	0.114455
	C178	C	0.386449	0.817739	0.113113
	C179	C	0.617144	0.815664	0.876042
	C180	C	0.386921	0.874701	0.171980
	C181	C	0.616524	0.112345	0.172336
	C182	C	0.387118	0.112047	0.819926
	C183	C	0.616786	0.872898	0.817740
	C184	C	0.882636	0.169916	0.380329
	C185	C	0.119023	0.169092	0.609689
	C186	C	0.120681	0.816483	0.379936
	C187	C	0.883523	0.817612	0.609674
	C188	C	0.179323	0.378158	0.874821
	C189	C	0.177712	0.608688	0.113322
	C190	C	0.825646	0.378593	0.113905
	C191	C	0.825488	0.608276	0.876786
	C192	C	0.401193	0.087992	0.596044
	C193	C	0.601792	0.897862	0.594804
	C194	C	0.601458	0.088514	0.395886
	C195	C	0.402736	0.897996	0.395660
	C196	C	0.602084	0.393293	0.090108
	C197	C	0.601896	0.591544	0.900508
	C198	C	0.400727	0.593528	0.090156
	C199	C	0.402770	0.392543	0.901221
	C200	C	0.096894	0.592616	0.395195
	C201	C	0.907254	0.593630	0.596228
	C202	C	0.096458	0.393707	0.594712
	C203	C	0.907206	0.394215	0.395109
	C204	C	0.902067	0.588450	0.094965
	C205	C	0.100432	0.399153	0.093781
	C206	C	0.101480	0.587690	0.895471
	C207	C	0.902235	0.398055	0.894926
	C208	C	0.101450	0.893854	0.589342
	C209	C	0.101904	0.092285	0.400072
	C210	C	0.900951	0.093689	0.589885
	C211	C	0.901661	0.893150	0.400442
	C212	C	0.596423	0.091431	0.895667
	C213	C	0.407279	0.092664	0.096313
	C214	C	0.596406	0.892887	0.095187
	C215	C	0.407729	0.893112	0.895672
	Zn216	Zn	0.501620	-0.007001	0.745304
	Zn217	Zn	0.502223	-0.006636	0.245912
	Zn218	Zn	0.751973	0.493160	-0.004877
	Zn219	Zn	0.251645	0.492775	-0.005476
	Zn220	Zn	0.002058	0.742966	0.494895
	Zn221	Zn	0.001624	0.243049	0.494533
	Zn222	Zn	0.002004	0.493088	0.745538
	Zn223	Zn	0.001504	0.494119	0.244863
	Zn224	Zn	0.502020	0.742381	-0.005013
	Zn225	Zn	0.502251	0.242353	-0.003840
	Zn226	Zn	0.751392	-0.005922	0.495414
	Zn227	Zn	0.251928	-0.007186	0.495350
	N228	N	0.416235	0.955654	0.673852
	N229	N	0.586658	0.030170	0.673362
	N230	N	0.587965	0.956374	0.317133
	N231	N	0.416962	0.030591	0.318221
	N232	N	0.680470	0.407310	0.957986
	N233	N	0.679847	0.578690	0.032046
	N234	N	0.323191	0.578622	0.957951
	N235	N	0.323084	0.407168	0.032446
	N236	N	0.964884	0.671145	0.410052
	N237	N	0.039473	0.671263	0.580611
	N238	N	0.964567	0.315980	0.579705
	N239	N	0.038835	0.314850	0.409193
	N240	N	0.964827	0.408078	0.673444
	N241	N	0.039202	0.579449	0.674371
	N242	N	0.964773	0.578394	0.317889
	N243	N	0.038843	0.407576	0.315905
	N244	N	0.415946	0.671002	0.957923
	N245	N	0.586088	0.669847	0.032658
	N246	N	0.587583	0.313934	0.958499
	N247	N	0.416957	0.314822	0.033273
	N248	N	0.680203	0.956446	0.409845
	N249	N	0.679822	0.030495	0.581532
	N250	N	0.323649	0.955660	0.580888
	N251	N	0.324198	0.030080	0.410328
	N252	N	0.916095	0.456512	0.173278
	N253	N	0.086917	0.531156	0.172886
	N254	N	0.087955	0.455810	0.816506
	N255	N	0.916658	0.530463	0.817512
	N256	N	0.180836	0.906625	0.458050
	N257	N	0.179752	0.078796	0.531942
	N258	N	0.823299	0.079122	0.457983
	N259	N	0.823749	0.908278	0.532234
	N260	N	0.464679	0.169846	0.911392
	N261	N	0.539260	0.171091	0.081505
	N262	N	0.464032	0.815553	0.079663
	N263	N	0.539568	0.814228	0.909716
	N264	N	0.464810	0.907417	0.174428
	N265	N	0.538831	0.079107	0.174685
	N266	N	0.464929	0.078529	0.817316
	N267	N	0.539173	0.906389	0.815884
	N268	N	0.915745	0.171808	0.458078
	N269	N	0.086244	0.170667	0.531962
	N270	N	0.086578	0.815427	0.457360
	N271	N	0.916645	0.815489	0.532113
	N272	N	0.180451	0.455853	0.908671
	N273	N	0.179359	0.530729	0.079745
	N274	N	0.824171	0.456054	0.080184
	N275	N	0.823699	0.530392	0.909770
	O276	O	1.052847	-0.004090	0.961331
	H277	H	1.054126	-0.004925	0.962781
	H278	H	1.053671	-0.011327	0.964033
	O279	O	0.067122	0.997393	0.970969
	H280	H	0.075686	0.997349	0.965791
	H281	H	0.067011	1.001971	0.966640
	O282	O	1.063595	1.012000	-0.047132
	H283	H	1.057551	1.010143	-0.047742
	H284	H	1.066554	1.013771	-0.049786
	O285	O	0.051058	0.990043	0.983477
	H286	H	0.052480	0.990272	0.987035
	H287	H	0.051793	0.990180	0.984958
