data_Molecule from HDF5

_cell_length_a		16.084825
_cell_length_b		16.338121
_cell_length_c		16.363919
_cell_angle_alpha	90.156288
_cell_angle_beta	90.254179
_cell_angle_gamma	90.020644
_symmetry_space_group_name_H-M	'P 1'
_symmetry_Int_Tables_number		1

loop_
	_symmetry_equiv_pos_as_xyz
	x,y,z

loop_
	_atom_site_label
	_atom_site_type_symbol
	_atom_site_fract_x
	_atom_site_fract_y
	_atom_site_fract_z
	H0	H	0.396701	0.833107	0.711668
	H1	H	0.600299	0.157188	0.714479
	H2	H	0.601900	0.834879	0.275014
	H3	H	0.394355	0.156902	0.279101
	H4	H	0.708414	0.396620	0.832909
	H5	H	0.711660	0.597022	0.157362
	H6	H	0.277598	0.593511	0.832274
	H7	H	0.280494	0.397154	0.158365
	H8	H	0.832582	0.710233	0.396420
	H9	H	0.161485	0.708796	0.598818
	H10	H	0.832333	0.277114	0.596117
	H11	H	0.161178	0.279121	0.396629
	H12	H	0.830679	0.392551	0.710802
	H13	H	0.159728	0.594718	0.715204
	H14	H	0.831526	0.594837	0.280236
	H15	H	0.159881	0.390759	0.278627
	H16	H	0.389731	0.713773	0.833602
	H17	H	0.598689	0.715809	0.155657
	H18	H	0.597499	0.277626	0.833998
	H19	H	0.390728	0.276068	0.155419
	H20	H	0.711145	0.832148	0.398613
	H21	H	0.714818	0.157959	0.596773
	H22	H	0.284809	0.830991	0.592670
	H23	H	0.280696	0.156610	0.396816
	H24	H	0.892051	0.331227	0.211986
	H25	H	0.097532	0.655167	0.215729
	H26	H	0.097556	0.333074	0.778193
	H27	H	0.889951	0.654366	0.776092
	H28	H	0.211644	0.893594	0.333290
	H29	H	0.214172	0.091950	0.658815
	H30	H	0.781444	0.094903	0.334713
	H31	H	0.783341	0.896189	0.658624
	H32	H	0.330908	0.209330	0.893888
	H33	H	0.659524	0.212560	0.096471
	H34	H	0.330466	0.781703	0.094733
	H35	H	0.657914	0.778246	0.893961
	H36	H	0.333137	0.893935	0.212977
	H37	H	0.661055	0.097437	0.211321
	H38	H	0.333136	0.097317	0.776292
	H39	H	0.660850	0.896488	0.782079
	H40	H	0.892687	0.213069	0.336163
	H41	H	0.104007	0.214383	0.656562
	H42	H	0.102174	0.772402	0.336579
	H43	H	0.895599	0.776616	0.657273
	H44	H	0.208677	0.332738	0.897254
	H45	H	0.209275	0.657861	0.095402
	H46	H	0.777914	0.331352	0.093810
	H47	H	0.779455	0.656706	0.897191
	H48	H	0.409195	0.109421	0.586158
	H49	H	0.595699	0.879818	0.582301
	H50	H	0.596208	0.112164	0.407012
	H51	H	0.410782	0.880728	0.402754
	H52	H	0.585079	0.398677	0.112288
	H53	H	0.589035	0.588484	0.878432
	H54	H	0.404387	0.591743	0.110077
	H55	H	0.399115	0.399689	0.878632
	H56	H	0.115687	0.586682	0.402204
	H57	H	0.880027	0.588596	0.580120
	H58	H	0.113614	0.403705	0.590544
	H59	H	0.881057	0.403935	0.408349
	H60	H	0.113522	0.401936	0.588104
	H61	H	0.881574	0.578758	0.586886
	H62	H	0.111896	0.585347	0.411616
	H63	H	0.878576	0.404830	0.400687
	H64	H	0.401723	0.587879	0.110827
	H65	H	0.584509	0.584267	0.881830
	H66	H	0.588140	0.408123	0.109890
	H67	H	0.401443	0.405638	0.880244
	H68	H	0.588335	0.113260	0.395923
	H69	H	0.591435	0.876846	0.597288
	H70	H	0.404495	0.110782	0.586295
	H71	H	0.404560	0.878814	0.404341
	H72	H	0.907784	0.611057	0.098711
	H73	H	0.080816	0.378528	0.093644
	H74	H	0.089853	0.610337	0.908775
	H75	H	0.896470	0.376494	0.903833
	H76	H	0.087397	0.912577	0.607799
	H77	H	0.089561	0.086026	0.381285
	H78	H	0.915400	0.083784	0.608530
	H79	H	0.910057	0.898790	0.380670
	H80	H	0.611854	0.083058	0.907876
	H81	H	0.380158	0.084033	0.083233
	H82	H	0.614967	0.898611	0.085756
	H83	H	0.381419	0.913235	0.904686
	H84	H	0.609373	0.908329	0.076685
	H85	H	0.378471	0.084129	0.092403
	H86	H	0.615535	0.087165	0.899473
	H87	H	0.374486	0.904344	0.893809
	H88	H	0.907609	0.092559	0.614099
	H89	H	0.086845	0.083724	0.382133
	H90	H	0.080727	0.892663	0.611228
	H91	H	0.903492	0.898029	0.379428
	H92	H	0.086442	0.613055	0.897710
	H93	H	0.084714	0.381444	0.080958
	H94	H	0.908872	0.605212	0.083312
	H95	H	0.905797	0.377365	0.896833
	H96	H	0.406927	0.110101	0.590022
	H97	H	0.581286	0.883441	0.588110
	H98	H	0.582983	0.108435	0.407177
	H99	H	0.406478	0.877981	0.398389
	H100	H	0.578507	0.405422	0.107729
	H101	H	0.582234	0.590402	0.879802
	H102	H	0.405774	0.587860	0.109255
	H103	H	0.405173	0.400338	0.879621
	H104	H	0.111381	0.577430	0.405168
	H105	H	0.876174	0.589445	0.591961
	H106	H	0.112739	0.404854	0.588051
	H107	H	0.877450	0.398057	0.404858
	H108	H	0.894856	0.611701	0.088350
	H109	H	0.093873	0.376301	0.089906
	H110	H	0.077545	0.608174	0.905645
	H111	H	0.906744	0.380930	0.908494
	H112	H	0.101029	0.898141	0.615712
	H113	H	0.085978	0.087393	0.381374
	H114	H	0.903495	0.080426	0.611623
	H115	H	0.905041	0.904334	0.381120
	H116	H	0.614129	0.092404	0.907690
	H117	H	0.377751	0.092224	0.087431
	H118	H	0.612291	0.912060	0.090418
	H119	H	0.377429	0.898702	0.907745
	C120	C	0.376799	0.003128	0.616712
	C121	C	0.620031	0.987017	0.618720
	C122	C	0.619304	0.004146	0.373839
	C123	C	0.375896	0.986048	0.373237
	C124	C	0.614782	0.374306	0.003506
	C125	C	0.616256	0.618011	0.986585
	C126	C	0.373070	0.617704	0.003213
	C127	C	0.371800	0.372429	0.986488
	C128	C	0.004788	0.614254	0.375642
	C129	C	0.987869	0.615024	0.617597
	C130	C	0.004599	0.372726	0.617951
	C131	C	0.987521	0.372086	0.374792
	C132	C	0.872665	0.502267	0.119002
	C133	C	0.116619	0.485917	0.118122
	C134	C	0.114838	0.503394	0.874705
	C135	C	0.872907	0.485468	0.873623
	C136	C	0.119917	0.871072	0.504947
	C137	C	0.119360	0.115900	0.487852
	C138	C	0.877310	0.115705	0.504943
	C139	C	0.876192	0.871699	0.487529
	C140	C	0.504867	0.116756	0.874266
	C141	C	0.487137	0.117508	0.117329
	C142	C	0.504392	0.875546	0.115524
	C143	C	0.486186	0.875269	0.873138
	C144	C	0.377356	0.881341	0.673201
	C145	C	0.619637	0.108945	0.675367
	C146	C	0.620023	0.882859	0.315363
	C147	C	0.375366	0.108261	0.317612
	C148	C	0.671048	0.376183	0.881697
	C149	C	0.673169	0.616765	0.108700
	C150	C	0.315735	0.614978	0.880946
	C151	C	0.316953	0.375790	0.108997
	C152	C	0.881473	0.671582	0.376357
	C153	C	0.111959	0.670859	0.617978
	C154	C	0.881320	0.315277	0.616396
	C155	C	0.111470	0.316262	0.376221
	C156	C	0.880376	0.373255	0.673091
	C157	C	0.111113	0.614118	0.675792
	C158	C	0.881107	0.614125	0.318724
	C159	C	0.110856	0.371951	0.317669
	C160	C	0.371452	0.674624	0.881641
	C161	C	0.617133	0.676452	0.107667
	C162	C	0.615753	0.316833	0.882237
	C163	C	0.372201	0.315568	0.107601
	C164	C	0.674631	0.881468	0.376564
	C165	C	0.676451	0.109235	0.616720
	C166	C	0.321953	0.880113	0.613799
	C167	C	0.318873	0.108117	0.376219
	C168	C	0.872835	0.379997	0.174124
	C169	C	0.116746	0.607272	0.176308
	C170	C	0.115657	0.381430	0.817685
	C171	C	0.871768	0.606566	0.815849
	C172	C	0.175213	0.872654	0.382579
	C173	C	0.176217	0.113168	0.610098
	C174	C	0.819728	0.114736	0.383234
	C175	C	0.820729	0.874757	0.609870
	C176	C	0.380548	0.171841	0.874592
	C177	C	0.610605	0.174199	0.116071
	C178	C	0.380281	0.819239	0.114923
	C179	C	0.609521	0.817523	0.874673
	C180	C	0.381599	0.875298	0.173524
	C181	C	0.611301	0.117297	0.173552
	C182	C	0.381816	0.116526	0.815577
	C183	C	0.610657	0.875993	0.818810
	C184	C	0.875019	0.173750	0.384020
	C185	C	0.121482	0.174170	0.608827
	C186	C	0.120322	0.812565	0.384030
	C187	C	0.876619	0.815417	0.609212
	C188	C	0.171281	0.381251	0.876591
	C189	C	0.171917	0.608745	0.116155
	C190	C	0.815822	0.380212	0.115503
	C191	C	0.816995	0.607824	0.876186
	C192	C	0.400013	0.088085	0.594002
	C193	C	0.596436	0.902095	0.596018
	C194	C	0.595979	0.089223	0.396806
	C195	C	0.400146	0.901139	0.395268
	C196	C	0.590968	0.397447	0.088192
	C197	C	0.592291	0.594554	0.901855
	C198	C	0.396996	0.595574	0.087829
	C199	C	0.394985	0.395206	0.901516
	C200	C	0.090826	0.590162	0.399447
	C201	C	0.901593	0.592187	0.593436
	C202	C	0.090853	0.396565	0.595550
	C203	C	0.901313	0.395435	0.397989
	C204	C	0.896728	0.587299	0.096895
	C205	C	0.093314	0.400877	0.095004
	C206	C	0.091469	0.588529	0.897436
	C207	C	0.896202	0.400260	0.896334
	C208	C	0.096716	0.894320	0.589618
	C209	C	0.094511	0.092535	0.403474
	C210	C	0.901718	0.092418	0.589409
	C211	C	0.899328	0.893994	0.402484
	C212	C	0.591347	0.094178	0.898126
	C213	C	0.400996	0.093585	0.094694
	C214	C	0.590035	0.899349	0.091469
	C215	C	0.399988	0.898510	0.895519
	Zn216	Zn	0.496887	-0.003722	0.746027
	Zn217	Zn	0.497196	-0.003641	0.244552
	Zn218	Zn	0.744458	0.494491	-0.004037
	Zn219	Zn	0.244154	0.495838	-0.004643
	Zn220	Zn	-0.002215	0.742550	0.496517
	Zn221	Zn	-0.002770	0.244988	0.496174
	Zn222	Zn	-0.005324	0.494028	0.745689
	Zn223	Zn	-0.004421	0.492732	0.247447
	Zn224	Zn	0.493855	0.747315	-0.005595
	Zn225	Zn	0.495005	0.244648	-0.004961
	Zn226	Zn	0.748724	-0.004942	0.496201
	Zn227	Zn	0.248189	-0.006758	0.495566
	N228	N	0.410695	0.958889	0.675169
	N229	N	0.585397	0.031995	0.676827
	N230	N	0.586432	0.960195	0.313455
	N231	N	0.410062	0.031364	0.315658
	N232	N	0.670485	0.411418	0.958144
	N233	N	0.672928	0.581468	0.032432
	N234	N	0.316446	0.580393	0.957411
	N235	N	0.316534	0.410376	0.032493
	N236	N	0.959409	0.671409	0.411152
	N237	N	0.034267	0.671701	0.582642
	N238	N	0.959540	0.314848	0.582933
	N239	N	0.033682	0.316296	0.410945
	N240	N	0.958222	0.408193	0.674139
	N241	N	0.032864	0.580136	0.675564
	N242	N	0.958990	0.579407	0.318004
	N243	N	0.032610	0.405850	0.316616
	N244	N	0.406290	0.676579	0.958553
	N245	N	0.582280	0.677198	0.030802
	N246	N	0.581473	0.315556	0.959042
	N247	N	0.405310	0.313131	0.030270
	N248	N	0.674435	0.957836	0.412031
	N249	N	0.676986	0.032314	0.582248
	N250	N	0.321456	0.956724	0.579434
	N251	N	0.319010	0.031037	0.409968
	N252	N	0.907195	0.457092	0.176682
	N253	N	0.083287	0.529754	0.177888
	N254	N	0.081429	0.458449	0.816464
	N255	N	0.905639	0.529385	0.814200
	N256	N	0.174982	0.908440	0.458750
	N257	N	0.175047	0.077530	0.534010
	N258	N	0.820876	0.079308	0.459405
	N259	N	0.820279	0.909088	0.533212
	N260	N	0.458179	0.172160	0.910214
	N261	N	0.532335	0.174596	0.082066
	N262	N	0.457664	0.819208	0.079497
	N263	N	0.531137	0.816921	0.907835
	N264	N	0.459706	0.909638	0.173944
	N265	N	0.533425	0.082655	0.174461
	N266	N	0.460274	0.083195	0.815182
	N267	N	0.533059	0.911172	0.817719
	N268	N	0.910061	0.174404	0.460638
	N269	N	0.086872	0.176080	0.531752
	N270	N	0.086638	0.811334	0.461012
	N271	N	0.910446	0.813503	0.532164
	N272	N	0.170991	0.458029	0.911418
	N273	N	0.172035	0.532239	0.080957
	N274	N	0.815630	0.457317	0.082003
	N275	N	0.817355	0.531411	0.911297
	O276	O	0.079574	-0.122834	-0.015593
	H277	H	0.082198	-0.132779	-0.027882
	H278	H	0.070090	-0.114324	-0.018685
	O279	O	0.997422	-0.065013	0.885890
	H280	H	0.992001	-0.055082	0.888055
	H281	H	1.005400	-0.059685	0.892720
	O282	O	0.831587	-0.073356	0.141505
	H283	H	0.826840	-0.058821	0.152903
	H284	H	0.829648	-0.073844	0.146685
	O285	O	-0.022645	0.944023	-0.019815
	H286	H	-0.036752	0.937318	-0.017717
	H287	H	-0.024770	0.957067	-0.031837
	O288	O	0.313466	0.615757	0.339279
	H289	H	0.298146	0.621046	0.340184
	H290	H	0.316103	0.627116	0.331322
	O291	O	0.466437	0.369549	0.343837
	H292	H	0.455391	0.376408	0.326565
	H293	H	0.486886	0.371504	0.361579
	O294	O	1.065084	1.176193	1.071678
	H295	H	1.086399	1.165367	1.083697
	H296	H	1.066647	1.180772	1.056417
	O297	O	0.016917	-0.035996	0.057477
	H298	H	0.017127	-0.035089	0.049825
	H299	H	0.019501	-0.048713	0.048193
	O300	O	0.528480	0.430202	0.627818
	H301	H	0.533390	0.429961	0.619219
	H302	H	0.528749	0.426448	0.623828
	O303	O	-0.039775	0.899064	1.009746
	H304	H	-0.032201	0.902291	1.003300
	H305	H	-0.028402	0.902812	1.017776
	O306	O	0.585503	0.502955	0.530364
	H307	H	0.592623	0.499064	0.534633
	H308	H	0.577534	0.497223	0.529584
	O309	O	1.047307	-0.133795	-0.010368
	H310	H	1.054616	-0.127884	-0.016549
	H311	H	1.041959	-0.121370	-0.008973
	O312	O	0.039650	0.065257	1.085526
	H313	H	0.042704	0.073831	1.091201
	H314	H	0.042464	0.051939	1.079706
	O315	O	0.442141	0.373259	0.417640
	H316	H	0.436052	0.361937	0.421115
	H317	H	0.439618	0.375543	0.395453
	O318	O	0.540527	0.544751	0.468447
	H319	H	0.550691	0.526228	0.455911
	H320	H	0.526533	0.544106	0.450036
	O321	O	0.529806	0.336342	0.428600
	H322	H	0.528453	0.339965	0.435307
	H323	H	0.548036	0.319707	0.425871
	O324	O	0.430187	0.538140	0.576015
	H325	H	0.428589	0.535732	0.580887
	H326	H	0.432828	0.537061	0.574479
	O327	O	0.079588	1.021176	1.104397
	H328	H	0.078253	1.024623	1.105708
	H329	H	0.080066	1.005107	1.090169
	O330	O	0.489494	0.512232	0.599102
	H331	H	0.488147	0.524419	0.608919
	H332	H	0.479686	0.512812	0.597669
	O333	O	-0.154638	1.050927	0.851768
	H334	H	-0.164878	1.037266	0.856028
	H335	H	-0.155995	1.063643	0.860959
	O336	O	1.028064	1.070104	1.123457
	H337	H	1.033627	1.060861	1.133940
	H338	H	1.025393	1.069326	1.118827
	O339	O	0.567461	0.614797	0.436275
	H340	H	0.565845	0.621190	0.435716
	H341	H	0.565934	0.619902	0.439289
	O342	O	0.948801	-0.007891	-0.134774
	H343	H	0.953100	0.000217	-0.132480
	H344	H	0.957229	0.000061	-0.129688
	O345	O	0.487422	0.427950	0.659824
	H346	H	0.471547	0.428866	0.660187
	H347	H	0.481449	0.425302	0.666871
	O348	O	0.949508	0.938331	1.121819
	H349	H	0.947766	0.926722	1.118148
	H350	H	0.945635	0.948447	1.136673
	O351	O	0.928521	1.067729	-0.141945
	H352	H	0.932981	1.057606	-0.134979
	H353	H	0.921820	1.074743	-0.149448
	O354	O	0.552237	0.614554	0.622327
	H355	H	0.550123	0.604136	0.603831
	H356	H	0.558975	0.602972	0.617987
	O357	O	0.525240	0.610945	0.500024
	H358	H	0.527733	0.611553	0.497726
	H359	H	0.529456	0.627408	0.507470
	O360	O	0.095127	0.170873	-0.067418
	H361	H	0.107670	0.182836	-0.066352
	H362	H	0.092349	0.154372	-0.051790
	O363	O	0.432520	0.386136	0.582551
	H364	H	0.430068	0.393616	0.605043
	H365	H	0.430158	0.382403	0.588000
	O366	O	0.420978	0.575650	0.473083
	H367	H	0.420922	0.583928	0.469241
	H368	H	0.414030	0.576687	0.474086
	O369	O	0.408466	0.681792	0.445839
	H370	H	0.398822	0.676648	0.453179
	H371	H	0.410957	0.690152	0.445050
	O372	O	0.500009	0.552651	0.327803
	H373	H	0.514497	0.564757	0.323212
	H374	H	0.496616	0.537107	0.329630
	O375	O	0.623240	0.460450	0.511140
	H376	H	0.605773	0.454730	0.500213
	H377	H	0.614424	0.463720	0.535136
	O378	O	0.666744	0.418774	0.434287
	H379	H	0.658701	0.406601	0.434293
	H380	H	0.683495	0.421526	0.426444
	O381	O	0.497064	0.532718	0.525825
	H382	H	0.504687	0.537270	0.530737
	H383	H	0.498547	0.534851	0.523392
	O384	O	-0.012486	0.931515	-0.001469
	H385	H	-0.021748	0.922109	0.008186
	H386	H	-0.013614	0.940239	-0.011462
	O387	O	1.114396	-0.029019	0.870628
	H388	H	1.109384	-0.036765	0.868144
	H389	H	1.107016	-0.030988	0.876448
	O390	O	-0.117141	0.996063	0.120953
	H391	H	-0.112671	0.999260	0.107956
	H392	H	-0.102506	0.994973	0.129748
	O393	O	0.930306	1.113957	-0.123902
	H394	H	0.916535	1.114531	-0.124492
	H395	H	0.920267	1.110467	-0.123875
	O396	O	0.391194	0.527984	0.401848
	H397	H	0.399964	0.530823	0.398277
	H398	H	0.386484	0.531355	0.392256
	O399	O	0.130993	0.982482	0.897138
	H400	H	0.117552	0.982442	0.890332
	H401	H	0.120118	0.966287	0.894181
	O402	O	0.972902	0.928152	1.174723
	H403	H	0.987097	0.922396	1.162379
	H404	H	0.966106	0.932644	1.184899
	O405	O	0.542775	1.347996	0.483468
	H406	H	0.544134	1.344310	0.481366
	H407	H	0.534423	1.352391	0.498637
