data_Molecule from HDF5

_cell_length_a		16.272803
_cell_length_b		16.120432
_cell_length_c		16.343400
_cell_angle_alpha	89.919221
_cell_angle_beta	89.854745
_cell_angle_gamma	89.993665
_symmetry_space_group_name_H-M	'P 1'
_symmetry_Int_Tables_number		1

loop_
	_symmetry_equiv_pos_as_xyz
	x,y,z

loop_
	_atom_site_label
	_atom_site_type_symbol
	_atom_site_fract_x
	_atom_site_fract_y
	_atom_site_fract_z
	H0	H	0.394463	0.830043	0.717984
	H1	H	0.592390	0.160002	0.716182
	H2	H	0.594292	0.830331	0.287659
	H3	H	0.394613	0.159194	0.288080
	H4	H	0.709562	0.394921	0.839161
	H5	H	0.709648	0.595202	0.164695
	H6	H	0.277672	0.594511	0.838905
	H7	H	0.277538	0.394510	0.165072
	H8	H	0.829700	0.707974	0.406767
	H9	H	0.158601	0.707362	0.599066
	H10	H	0.829415	0.281325	0.600150
	H11	H	0.158203	0.282079	0.403836
	H12	H	0.830267	0.393406	0.719703
	H13	H	0.156410	0.595705	0.719710
	H14	H	0.831536	0.597596	0.286036
	H15	H	0.156761	0.394850	0.286485
	H16	H	0.396072	0.710248	0.838881
	H17	H	0.588978	0.706498	0.167353
	H18	H	0.591560	0.281135	0.838835
	H19	H	0.394710	0.280552	0.165779
	H20	H	0.707099	0.829774	0.404830
	H21	H	0.707614	0.159567	0.601493
	H22	H	0.280480	0.828683	0.601017
	H23	H	0.281892	0.160571	0.405059
	H24	H	0.893775	0.329900	0.217942
	H25	H	0.092788	0.659083	0.215817
	H26	H	0.093821	0.330040	0.787870
	H27	H	0.893645	0.659067	0.788271
	H28	H	0.210320	0.893837	0.339910
	H29	H	0.208791	0.094474	0.665148
	H30	H	0.777536	0.095141	0.339473
	H31	H	0.776735	0.894084	0.664964
	H32	H	0.329082	0.208496	0.905866
	H33	H	0.658437	0.208464	0.098544
	H34	H	0.328757	0.782456	0.100181
	H35	H	0.659077	0.783845	0.907200
	H36	H	0.330262	0.894754	0.219264
	H37	H	0.656845	0.095386	0.218425
	H38	H	0.330557	0.096864	0.786434
	H39	H	0.656931	0.893900	0.785204
	H40	H	0.896091	0.209622	0.338415
	H41	H	0.090073	0.208157	0.666134
	H42	H	0.090368	0.782319	0.338677
	H43	H	0.895988	0.781362	0.666822
	H44	H	0.208233	0.329968	0.903008
	H45	H	0.206401	0.659380	0.100270
	H46	H	0.779457	0.329669	0.101175
	H47	H	0.781501	0.660786	0.905113
	H48	H	0.401368	0.112613	0.597124
	H49	H	0.588362	0.879920	0.584244
	H50	H	0.585417	0.112332	0.411401
	H51	H	0.401847	0.878003	0.413942
	H52	H	0.601543	0.405625	0.120968
	H53	H	0.587099	0.583738	0.887981
	H54	H	0.414494	0.581842	0.111798
	H55	H	0.405124	0.415515	0.891077
	H56	H	0.111476	0.590105	0.407667
	H57	H	0.875754	0.591620	0.598302
	H58	H	0.108754	0.409096	0.601514
	H59	H	0.875075	0.395073	0.409613
	H60	H	0.112700	0.395915	0.598448
	H61	H	0.878226	0.586789	0.592812
	H62	H	0.110624	0.587399	0.409182
	H63	H	0.880558	0.407516	0.416475
	H64	H	0.396595	0.606181	0.123816
	H65	H	0.583842	0.592776	0.886460
	H66	H	0.577829	0.414995	0.111922
	H67	H	0.408824	0.391549	0.885597
	H68	H	0.585894	0.113190	0.409176
	H69	H	0.594129	0.872620	0.602575
	H70	H	0.402655	0.111197	0.594066
	H71	H	0.397734	0.874558	0.408675
	H72	H	0.905500	0.615120	0.107221
	H73	H	0.082007	0.374841	0.104681
	H74	H	0.088636	0.613086	0.911246
	H75	H	0.911684	0.378623	0.905950
	H76	H	0.085596	0.903342	0.617432
	H77	H	0.083137	0.080199	0.389968
	H78	H	0.902386	0.093652	0.618955
	H79	H	0.901379	0.904142	0.387851
	H80	H	0.607990	0.087170	0.916402
	H81	H	0.375458	0.095718	0.094548
	H82	H	0.609631	0.908131	0.100649
	H83	H	0.375371	0.890760	0.914027
	H84	H	0.613432	0.895718	0.100378
	H85	H	0.380415	0.081984	0.090859
	H86	H	0.609064	0.079349	0.904536
	H87	H	0.383048	0.912715	0.917485
	H88	H	0.892691	0.086136	0.619495
	H89	H	0.083738	0.096825	0.383944
	H90	H	0.087741	0.899808	0.619722
	H91	H	0.900344	0.899919	0.386481
	H92	H	0.083640	0.613112	0.906959
	H93	H	0.079413	0.379988	0.088314
	H94	H	0.909494	0.606534	0.086639
	H95	H	0.899624	0.379480	0.922003
	H96	H	0.399259	0.112624	0.594759
	H97	H	0.574081	0.878624	0.599609
	H98	H	0.583334	0.111915	0.410600
	H99	H	0.404549	0.876719	0.406563
	H100	H	0.580194	0.389576	0.120359
	H101	H	0.593167	0.590447	0.884402
	H102	H	0.383611	0.576222	0.119870
	H103	H	0.386925	0.402037	0.882260
	H104	H	0.111155	0.587350	0.405989
	H105	H	0.877654	0.584575	0.599618
	H106	H	0.108101	0.404492	0.588598
	H107	H	0.877062	0.407925	0.401738
	H108	H	0.889039	0.615053	0.091475
	H109	H	0.094640	0.374326	0.092421
	H110	H	0.083072	0.610174	0.912547
	H111	H	0.892648	0.372346	0.904016
	H112	H	0.089965	0.903274	0.619507
	H113	H	0.097202	0.086722	0.383405
	H114	H	0.903899	0.081716	0.615050
	H115	H	0.897102	0.903557	0.385327
	H116	H	0.613146	0.093670	0.904987
	H117	H	0.375249	0.084660	0.105071
	H118	H	0.608910	0.901457	0.089903
	H119	H	0.374521	0.907070	0.896664
	C120	C	0.372121	0.002948	0.624189
	C121	C	0.614280	0.986040	0.623751
	C122	C	0.614491	0.003643	0.381240
	C123	C	0.372588	0.985862	0.381312
	C124	C	0.615279	0.373765	0.010249
	C125	C	0.615485	0.616935	0.994216
	C126	C	0.370462	0.617640	0.010551
	C127	C	0.371169	0.373639	0.993898
	C128	C	0.002700	0.617367	0.380155
	C129	C	0.985319	0.616642	0.624999
	C130	C	0.002011	0.373404	0.624838
	C131	C	0.985567	0.374240	0.380711
	C132	C	0.871843	0.503226	0.124414
	C133	C	0.114085	0.485418	0.123267
	C134	C	0.114765	0.503360	0.881018
	C135	C	0.872514	0.486150	0.881959
	C136	C	0.116009	0.873299	0.511082
	C137	C	0.115852	0.116653	0.493693
	C138	C	0.870996	0.116902	0.510356
	C139	C	0.871475	0.873618	0.494465
	C140	C	0.501957	0.116329	0.880610
	C141	C	0.485341	0.116471	0.124633
	C142	C	0.502045	0.873446	0.125126
	C143	C	0.485952	0.874199	0.880955
	C144	C	0.374094	0.878883	0.679772
	C145	C	0.612818	0.110421	0.678908
	C146	C	0.613654	0.879321	0.325891
	C147	C	0.374614	0.110160	0.326103
	C148	C	0.671295	0.375260	0.887871
	C149	C	0.670856	0.614981	0.116706
	C150	C	0.315666	0.615151	0.887784
	C151	C	0.315505	0.374673	0.116488
	C152	C	0.878946	0.671209	0.384970
	C153	C	0.109332	0.670351	0.620661
	C154	C	0.878559	0.318527	0.621241
	C155	C	0.108865	0.319446	0.383543
	C156	C	0.878976	0.374333	0.680722
	C157	C	0.108183	0.614793	0.680501
	C158	C	0.879874	0.616283	0.324831
	C159	C	0.108246	0.375269	0.324808
	C160	C	0.374536	0.672501	0.887508
	C161	C	0.610844	0.670141	0.117916
	C162	C	0.612557	0.318557	0.887613
	C163	C	0.374056	0.318038	0.116818
	C164	C	0.669594	0.879083	0.384144
	C165	C	0.669725	0.110456	0.621789
	C166	C	0.317351	0.878540	0.621671
	C167	C	0.318186	0.110602	0.384038
	C168	C	0.873332	0.379413	0.180248
	C169	C	0.112084	0.609956	0.177684
	C170	C	0.113026	0.379292	0.825829
	C171	C	0.874383	0.610102	0.826631
	C172	C	0.171674	0.874493	0.388517
	C173	C	0.170691	0.114469	0.616459
	C174	C	0.815817	0.115143	0.387893
	C175	C	0.815738	0.874888	0.616704
	C176	C	0.378438	0.171592	0.884225
	C177	C	0.609104	0.171486	0.120642
	C178	C	0.378062	0.819197	0.121481
	C179	C	0.609558	0.820114	0.885082
	C180	C	0.378740	0.874856	0.180760
	C181	C	0.608339	0.115426	0.180338
	C182	C	0.379094	0.115558	0.825027
	C183	C	0.608665	0.875315	0.824816
	C184	C	0.874858	0.172018	0.387426
	C185	C	0.111924	0.171156	0.617007
	C186	C	0.112115	0.819059	0.387735
	C187	C	0.875040	0.818748	0.617683
	C188	C	0.170116	0.379211	0.882911
	C189	C	0.168814	0.610068	0.120434
	C190	C	0.816410	0.379191	0.122252
	C191	C	0.818366	0.610977	0.884539
	C192	C	0.394403	0.089535	0.601954
	C193	C	0.592059	0.899484	0.601925
	C194	C	0.591466	0.090059	0.403722
	C195	C	0.394920	0.898945	0.403204
	C196	C	0.593083	0.396644	0.095732
	C197	C	0.594385	0.595308	0.908511
	C198	C	0.391882	0.594871	0.096270
	C199	C	0.393675	0.396380	0.908457
	C200	C	0.088835	0.595083	0.401436
	C201	C	0.899405	0.594270	0.603348
	C202	C	0.087882	0.396346	0.602612
	C203	C	0.899491	0.396924	0.402618
	C204	C	0.894621	0.589851	0.101834
	C205	C	0.091867	0.398816	0.101465
	C206	C	0.091960	0.589764	0.903544
	C207	C	0.894866	0.399205	0.904221
	C208	C	0.094108	0.895620	0.596870
	C209	C	0.094319	0.094709	0.407897
	C210	C	0.893096	0.093987	0.595837
	C211	C	0.893193	0.895886	0.408766
	C212	C	0.587925	0.093558	0.902343
	C213	C	0.399413	0.093986	0.103363
	C214	C	0.588222	0.895510	0.103527
	C215	C	0.399748	0.897000	0.902841
	Zn216	Zn	0.493986	-0.004923	0.751975
	Zn217	Zn	0.493775	-0.005497	0.253604
	Zn218	Zn	0.744641	0.495443	0.002059
	Zn219	Zn	0.241693	0.494560	0.002498
	Zn220	Zn	-0.005808	0.745361	0.502678
	Zn221	Zn	-0.005991	0.245594	0.502167
	Zn222	Zn	-0.006690	0.494823	0.753743
	Zn223	Zn	-0.005988	0.495083	0.251867
	Zn224	Zn	0.493781	0.745971	0.003029
	Zn225	Zn	0.493580	0.245140	0.002557
	Zn226	Zn	0.741609	-0.004749	0.502437
	Zn227	Zn	0.244458	-0.005156	0.502150
	N228	N	0.407284	0.957251	0.681553
	N229	N	0.578842	0.032210	0.680111
	N230	N	0.580026	0.957625	0.324167
	N231	N	0.407860	0.031674	0.324388
	N232	N	0.672977	0.409027	0.965288
	N233	N	0.673836	0.582430	0.038884
	N234	N	0.312853	0.581958	0.965334
	N235	N	0.313700	0.408645	0.039231
	N236	N	0.956236	0.672112	0.418664
	N237	N	0.031979	0.671694	0.586889
	N238	N	0.956057	0.317888	0.587163
	N239	N	0.031543	0.318866	0.417855
	N240	N	0.956734	0.407731	0.683139
	N241	N	0.029973	0.582261	0.683408
	N242	N	0.957812	0.583090	0.322047
	N243	N	0.030431	0.408752	0.323039
	N244	N	0.407781	0.674145	0.964886
	N245	N	0.577083	0.671571	0.040915
	N246	N	0.578324	0.317719	0.964502
	N247	N	0.408118	0.317225	0.039639
	N248	N	0.670388	0.957393	0.417688
	N249	N	0.670883	0.032248	0.588325
	N250	N	0.316155	0.956775	0.587712
	N251	N	0.316904	0.032319	0.417604
	N252	N	0.906873	0.457742	0.181877
	N253	N	0.078872	0.531551	0.179712
	N254	N	0.079291	0.457556	0.824507
	N255	N	0.907252	0.531500	0.824882
	N256	N	0.174202	0.907424	0.466129
	N257	N	0.173062	0.081342	0.538867
	N258	N	0.813511	0.081664	0.465425
	N259	N	0.813405	0.908290	0.539157
	N260	N	0.455716	0.172087	0.918149
	N261	N	0.531891	0.172044	0.086626
	N262	N	0.455650	0.818021	0.087857
	N263	N	0.532071	0.819202	0.919066
	N264	N	0.456780	0.908070	0.182891
	N265	N	0.530527	0.082007	0.182956
	N266	N	0.456875	0.081985	0.822688
	N267	N	0.530690	0.908146	0.822372
	N268	N	0.908485	0.173244	0.464529
	N269	N	0.078359	0.172524	0.539768
	N270	N	0.078111	0.818287	0.464924
	N271	N	0.909205	0.817830	0.540662
	N272	N	0.171148	0.457298	0.916646
	N273	N	0.169812	0.531766	0.086981
	N274	N	0.815474	0.457302	0.088215
	N275	N	0.817176	0.532747	0.918252
	O276	O	0.963416	0.983901	0.000430
	H277	H	0.962462	0.985082	0.002237
	H278	H	0.955318	0.989911	-0.004512
	O279	O	0.026942	0.020479	-0.041342
	H280	H	0.028583	0.022529	-0.040791
	H281	H	0.023114	0.021373	-0.038246
	O282	O	-0.026180	-0.008231	0.965981
	H283	H	-0.026952	-0.010568	0.959499
	H284	H	-0.025377	-0.011144	0.970345
	O285	O	1.506836	1.498013	0.460005
	H286	H	1.510181	1.499477	0.463360
	H287	H	1.515337	1.502632	0.445047
	O288	O	0.489833	0.467798	0.404757
	H289	H	0.486886	0.469593	0.397546
	H290	H	0.494863	0.470600	0.397601
	O291	O	0.517216	0.477331	0.495514
	H292	H	0.511962	0.463674	0.499813
	H293	H	0.509812	0.475002	0.495470
	O294	O	0.004941	-0.075592	-0.052848
	H295	H	0.010107	-0.082087	-0.054265
	H296	H	0.005675	-0.082630	-0.060015
	O297	O	0.518904	0.445182	0.485955
	H298	H	0.520017	0.441858	0.481905
	H299	H	0.514279	0.446860	0.485613
	O300	O	0.036046	0.894945	0.970705
	H301	H	0.034366	0.892177	0.970238
	H302	H	0.033971	0.894589	0.971226
	O303	O	0.488685	0.462025	0.464345
	H304	H	0.496022	0.454544	0.473603
	H305	H	0.489807	0.468090	0.456274
	O306	O	0.063502	-0.072383	0.982631
	H307	H	0.071982	-0.079826	0.980601
	H308	H	0.071251	-0.058085	0.974859
	O309	O	0.988651	0.900873	1.034964
	H310	H	0.992397	0.895771	1.040131
	H311	H	0.986179	0.897065	1.039578
	O312	O	0.479697	0.465769	0.485405
	H313	H	0.475064	0.467543	0.484631
	H314	H	0.481266	0.461497	0.487715
	O315	O	0.542428	0.441868	0.476794
	H316	H	0.548743	0.443415	0.477310
	H317	H	0.543813	0.441673	0.479227
	O318	O	0.019504	0.998633	0.008864
	H319	H	0.015082	0.996845	0.004934
	H320	H	0.015325	0.999766	0.009103
	O321	O	1.018363	0.994482	-0.081674
	H322	H	1.019487	1.001501	-0.080760
	H323	H	1.028990	0.987344	-0.089972
