data_Molecule from HDF5

_cell_length_a		16.113665
_cell_length_b		16.092494
_cell_length_c		16.429542
_cell_angle_alpha	89.573885
_cell_angle_beta	89.558259
_cell_angle_gamma	90.248923
_symmetry_space_group_name_H-M	'P 1'
_symmetry_Int_Tables_number		1

loop_
	_symmetry_equiv_pos_as_xyz
	x,y,z

loop_
	_atom_site_label
	_atom_site_type_symbol
	_atom_site_fract_x
	_atom_site_fract_y
	_atom_site_fract_z
	H0	H	0.384866	0.840294	0.720279
	H1	H	0.591115	0.167069	0.714063
	H2	H	0.593182	0.838589	0.285540
	H3	H	0.389380	0.166193	0.283870
	H4	H	0.707187	0.405082	0.838028
	H5	H	0.706330	0.601215	0.162927
	H6	H	0.277732	0.602286	0.838223
	H7	H	0.271881	0.400107	0.161969
	H8	H	0.824920	0.716379	0.403140
	H9	H	0.156818	0.714930	0.593139
	H10	H	0.825681	0.290005	0.600324
	H11	H	0.157757	0.294191	0.404725
	H12	H	0.828850	0.397166	0.720617
	H13	H	0.155734	0.604273	0.714305
	H14	H	0.827061	0.606624	0.283097
	H15	H	0.154401	0.402646	0.283289
	H16	H	0.393619	0.719720	0.838729
	H17	H	0.588141	0.716259	0.164193
	H18	H	0.590907	0.289529	0.837881
	H19	H	0.388298	0.284632	0.162243
	H20	H	0.703423	0.836749	0.403761
	H21	H	0.702022	0.168782	0.595814
	H22	H	0.275923	0.838057	0.600317
	H23	H	0.281867	0.169362	0.404067
	H24	H	0.886208	0.339705	0.220163
	H25	H	0.092677	0.667375	0.212906
	H26	H	0.092720	0.338057	0.785974
	H27	H	0.890449	0.666398	0.784415
	H28	H	0.208666	0.907011	0.339019
	H29	H	0.204468	0.100510	0.664923
	H30	H	0.777296	0.103948	0.338073
	H31	H	0.773968	0.902221	0.662836
	H32	H	0.324333	0.213647	0.905536
	H33	H	0.656501	0.214976	0.094796
	H34	H	0.325565	0.789017	0.100507
	H35	H	0.657858	0.795932	0.906595
	H36	H	0.327553	0.897620	0.220521
	H37	H	0.655073	0.103869	0.214345
	H38	H	0.326135	0.103872	0.785951
	H39	H	0.654019	0.901945	0.783367
	H40	H	0.895136	0.220766	0.339069
	H41	H	0.087336	0.216359	0.665420
	H42	H	0.091554	0.790115	0.337696
	H43	H	0.889373	0.785282	0.661795
	H44	H	0.203452	0.336574	0.903855
	H45	H	0.203536	0.668595	0.094021
	H46	H	0.777811	0.336504	0.099081
	H47	H	0.781270	0.668076	0.903516
	H48	H	0.393971	0.126852	0.603838
	H49	H	0.580350	0.885668	0.591193
	H50	H	0.581228	0.120683	0.405521
	H51	H	0.407724	0.888093	0.412861
	H52	H	0.578974	0.403887	0.117350
	H53	H	0.588390	0.590605	0.886574
	H54	H	0.393182	0.593533	0.116889
	H55	H	0.400112	0.414612	0.886771
	H56	H	0.110397	0.601009	0.405840
	H57	H	0.874199	0.586890	0.597170
	H58	H	0.109312	0.414749	0.593828
	H59	H	0.873444	0.412649	0.413055
	H60	H	0.110607	0.412260	0.596855
	H61	H	0.870045	0.597410	0.598994
	H62	H	0.106675	0.592322	0.408328
	H63	H	0.874751	0.416408	0.408499
	H64	H	0.398965	0.591379	0.114852
	H65	H	0.578978	0.602215	0.886783
	H66	H	0.589161	0.409055	0.118499
	H67	H	0.401432	0.405234	0.884502
	H68	H	0.583926	0.120367	0.407840
	H69	H	0.582995	0.882972	0.596633
	H70	H	0.411978	0.118652	0.595241
	H71	H	0.392131	0.884934	0.417076
	H72	H	0.907603	0.618176	0.091099
	H73	H	0.083193	0.384102	0.090433
	H74	H	0.094275	0.623371	0.905792
	H75	H	0.900764	0.383475	0.906427
	H76	H	0.077479	0.898664	0.617533
	H77	H	0.081494	0.107974	0.385314
	H78	H	0.901821	0.099609	0.616683
	H79	H	0.897580	0.912319	0.384333
	H80	H	0.606620	0.092986	0.910316
	H81	H	0.372571	0.094523	0.092983
	H82	H	0.608940	0.915475	0.097726
	H83	H	0.374057	0.912431	0.913693
	H84	H	0.611279	0.907264	0.097456
	H85	H	0.373323	0.088868	0.094378
	H86	H	0.609522	0.092305	0.899402
	H87	H	0.371711	0.914409	0.905250
	H88	H	0.889853	0.100155	0.619444
	H89	H	0.096487	0.101167	0.382883
	H90	H	0.092972	0.910522	0.618654
	H91	H	0.898466	0.910930	0.384705
	H92	H	0.079253	0.622626	0.896630
	H93	H	0.081937	0.383046	0.098765
	H94	H	0.894942	0.621107	0.087642
	H95	H	0.900822	0.384620	0.910669
	H96	H	0.393551	0.120847	0.583442
	H97	H	0.576562	0.884190	0.595821
	H98	H	0.583586	0.121812	0.405150
	H99	H	0.397948	0.881395	0.401904
	H100	H	0.580435	0.415121	0.112432
	H101	H	0.593556	0.604998	0.881643
	H102	H	0.397972	0.597640	0.117067
	H103	H	0.392923	0.410277	0.882431
	H104	H	0.109497	0.593427	0.399227
	H105	H	0.874444	0.593740	0.587925
	H106	H	0.110150	0.409995	0.593583
	H107	H	0.871628	0.409883	0.407127
	H108	H	0.897937	0.623825	0.099851
	H109	H	0.075478	0.386779	0.094119
	H110	H	0.079248	0.617457	0.913133
	H111	H	0.896192	0.382687	0.908556
	H112	H	0.076452	0.917709	0.612141
	H113	H	0.083619	0.091688	0.389580
	H114	H	0.893968	0.089963	0.615148
	H115	H	0.896955	0.910836	0.384269
	H116	H	0.610878	0.101302	0.904355
	H117	H	0.371372	0.092565	0.098607
	H118	H	0.608349	0.911562	0.091075
	H119	H	0.370025	0.906628	0.907714
	C120	C	0.369193	0.012850	0.623362
	C121	C	0.610091	0.993692	0.621609
	C122	C	0.612610	0.011457	0.378501
	C123	C	0.370452	0.993967	0.380899
	C124	C	0.612558	0.381277	0.008751
	C125	C	0.614652	0.626306	0.992421
	C126	C	0.369031	0.624255	0.008939
	C127	C	0.367574	0.379564	0.991666
	C128	C	-0.000477	0.625270	0.377003
	C129	C	0.981990	0.622957	0.621519
	C130	C	0.000605	0.382040	0.623551
	C131	C	0.982338	0.383581	0.380325
	C132	C	0.869579	0.511862	0.122673
	C133	C	0.110651	0.494018	0.121292
	C134	C	0.112736	0.511427	0.878042
	C135	C	0.870762	0.492929	0.879701
	C136	C	0.112839	0.881556	0.509045
	C137	C	0.114334	0.127082	0.493816
	C138	C	0.868058	0.126198	0.509436
	C139	C	0.867989	0.881114	0.491795
	C140	C	0.499727	0.124418	0.877746
	C141	C	0.481591	0.122704	0.122376
	C142	C	0.500325	0.880809	0.124647
	C143	C	0.481560	0.882764	0.880243
	C144	C	0.367316	0.888982	0.680733
	C145	C	0.609802	0.118113	0.675922
	C146	C	0.611839	0.887563	0.323636
	C147	C	0.371052	0.117491	0.323216
	C148	C	0.668846	0.384746	0.886727
	C149	C	0.668688	0.622224	0.114598
	C150	C	0.315169	0.622717	0.886743
	C151	C	0.310681	0.380446	0.113673
	C152	C	0.874755	0.679842	0.381533
	C153	C	0.107026	0.678204	0.615938
	C154	C	0.875865	0.326656	0.621151
	C155	C	0.107313	0.329856	0.383245
	C156	C	0.877441	0.380112	0.681219
	C157	C	0.106304	0.623304	0.676135
	C158	C	0.875603	0.624972	0.322061
	C159	C	0.105793	0.383917	0.323018
	C160	C	0.372618	0.681527	0.887385
	C161	C	0.609889	0.679486	0.115184
	C162	C	0.610856	0.327003	0.886635
	C163	C	0.368375	0.322649	0.113552
	C164	C	0.666921	0.886771	0.382458
	C165	C	0.664934	0.118856	0.616960
	C166	C	0.312818	0.887941	0.621198
	C167	C	0.317450	0.119119	0.383053
	C168	C	0.868647	0.388057	0.180272
	C169	C	0.110963	0.618354	0.175018
	C170	C	0.111543	0.387248	0.824037
	C171	C	0.871642	0.617388	0.823163
	C172	C	0.169879	0.885703	0.387004
	C173	C	0.167742	0.122466	0.616309
	C174	C	0.814599	0.124266	0.386944
	C175	C	0.811831	0.882167	0.613992
	C176	C	0.374323	0.177799	0.883271
	C177	C	0.606568	0.177897	0.116776
	C178	C	0.375612	0.825452	0.121719
	C179	C	0.607344	0.830520	0.883997
	C180	C	0.376434	0.879776	0.181420
	C181	C	0.606088	0.122716	0.176272
	C182	C	0.375216	0.123082	0.823956
	C183	C	0.605423	0.883521	0.822978
	C184	C	0.873090	0.182480	0.387392
	C185	C	0.109236	0.179772	0.616604
	C186	C	0.111479	0.827942	0.386342
	C187	C	0.869360	0.824063	0.613659
	C188	C	0.166671	0.386507	0.882584
	C189	C	0.166035	0.618928	0.116006
	C190	C	0.814373	0.386687	0.120292
	C191	C	0.817494	0.618318	0.882594
	C192	C	0.392836	0.099541	0.600898
	C193	C	0.586796	0.906837	0.600625
	C194	C	0.589774	0.098516	0.399851
	C195	C	0.392669	0.907168	0.403831
	C196	C	0.589708	0.402968	0.094083
	C197	C	0.593318	0.605518	0.906993
	C198	C	0.390323	0.600903	0.094193
	C199	C	0.391121	0.403253	0.906567
	C200	C	0.086237	0.602349	0.398165
	C201	C	0.895287	0.599608	0.600728
	C202	C	0.087506	0.405399	0.601245
	C203	C	0.895686	0.406475	0.402881
	C204	C	0.893270	0.598303	0.099712
	C205	C	0.087077	0.407205	0.100512
	C206	C	0.090724	0.598500	0.899045
	C207	C	0.892696	0.406112	0.901906
	C208	C	0.089183	0.902771	0.594124
	C209	C	0.093569	0.106387	0.408045
	C210	C	0.889030	0.103426	0.594926
	C211	C	0.891080	0.904495	0.406456
	C212	C	0.586554	0.102208	0.898644
	C213	C	0.394954	0.098991	0.101563
	C214	C	0.587096	0.904505	0.102202
	C215	C	0.394612	0.904738	0.902333
	Zn216	Zn	0.490144	0.003036	0.751047
	Zn217	Zn	0.490711	0.002079	0.251787
	Zn218	Zn	0.743148	0.502571	0.000808
	Zn219	Zn	0.239205	0.501909	0.000178
	Zn220	Zn	-0.009711	0.751618	0.499372
	Zn221	Zn	-0.008189	0.256082	0.502210
	Zn222	Zn	-0.008590	0.502175	0.751116
	Zn223	Zn	-0.009412	0.503575	0.250515
	Zn224	Zn	0.491456	0.755243	0.001313
	Zn225	Zn	0.490208	0.251197	0.000085
	Zn226	Zn	0.738583	0.002574	0.500604
	Zn227	Zn	0.242837	0.004074	0.502003
	N228	N	0.401580	0.967441	0.682203
	N229	N	0.576385	0.039259	0.679039
	N230	N	0.578890	0.966394	0.320952
	N231	N	0.403238	0.038659	0.321525
	N232	N	0.669931	0.417810	0.963801
	N233	N	0.671808	0.589971	0.037347
	N234	N	0.312850	0.587749	0.963345
	N235	N	0.309813	0.414950	0.036700
	N236	N	0.952862	0.680198	0.414914
	N237	N	0.029079	0.678005	0.582550
	N238	N	0.953561	0.327902	0.585867
	N239	N	0.029400	0.329384	0.418129
	N240	N	0.955985	0.413951	0.682667
	N241	N	0.027514	0.589636	0.679775
	N242	N	0.954090	0.591749	0.319207
	N243	N	0.026943	0.416668	0.321248
	N244	N	0.405341	0.682530	0.964471
	N245	N	0.577200	0.682318	0.038138
	N246	N	0.576500	0.324629	0.963496
	N247	N	0.403114	0.322152	0.036730
	N248	N	0.667350	0.964861	0.415957
	N249	N	0.665317	0.040534	0.583939
	N250	N	0.313799	0.965899	0.586327
	N251	N	0.316829	0.041357	0.418354
	N252	N	0.901994	0.466966	0.182057
	N253	N	0.077038	0.539711	0.178255
	N254	N	0.078905	0.465964	0.821039
	N255	N	0.904232	0.538448	0.821345
	N256	N	0.170822	0.918385	0.464204
	N257	N	0.170841	0.090388	0.538952
	N258	N	0.811340	0.090120	0.463977
	N259	N	0.811058	0.916815	0.537283
	N260	N	0.452655	0.178788	0.916075
	N261	N	0.528275	0.177854	0.083941
	N262	N	0.453721	0.825692	0.087267
	N263	N	0.529365	0.829787	0.918894
	N264	N	0.455169	0.913392	0.183325
	N265	N	0.527427	0.088994	0.179957
	N266	N	0.454182	0.090731	0.820250
	N267	N	0.526130	0.915060	0.820480
	N268	N	0.905539	0.183768	0.464623
	N269	N	0.076927	0.182936	0.539253
	N270	N	0.076753	0.825214	0.463100
	N271	N	0.903441	0.823149	0.536543
	N272	N	0.167768	0.464960	0.915503
	N273	N	0.166203	0.540466	0.083292
	N274	N	0.814915	0.464562	0.085212
	N275	N	0.816711	0.540000	0.916886
	O276	O	0.005840	-0.015237	0.006152
	H277	H	-0.001506	-0.013862	0.006900
	H278	H	0.019913	-0.002480	0.014684
	O279	O	0.469923	0.427587	0.637713
	H280	H	0.460254	0.427691	0.631310
	H281	H	0.470999	0.431983	0.634669
	O282	O	0.458966	0.545517	0.521234
	H283	H	0.460321	0.525961	0.526613
	H284	H	0.471867	0.562907	0.515700
	O285	O	0.039744	1.014393	1.039600
	H286	H	0.056695	1.013365	1.038438
	H287	H	0.043024	1.011702	1.045378
	O288	O	0.480396	0.472602	0.539001
	H289	H	0.487735	0.490391	0.527602
	H290	H	0.485038	0.475613	0.549345
	O291	O	0.985070	0.936158	0.943621
	H292	H	0.978522	0.923723	0.941300
	H293	H	0.981160	0.945353	0.945615
	O294	O	1.365751	0.491039	0.604854
	H295	H	1.377473	0.480077	0.603149
	H296	H	1.366231	0.485370	0.604267
	O297	O	1.000047	0.021179	0.998694
	H298	H	0.999338	0.023149	0.996299
	H299	H	1.001480	0.019485	0.999972
	O300	O	0.441707	0.455780	0.412334
	H301	H	0.450006	0.449899	0.414408
	H302	H	0.443224	0.451979	0.422004
	O303	O	0.990911	-0.023271	0.008735
	H304	H	0.983200	-0.026818	0.007816
	H305	H	0.995191	-0.018509	-0.003506
	O306	O	0.005557	1.036660	1.001621
	H307	H	0.007002	1.022639	1.001822
	H308	H	-0.001314	1.032325	0.996543
	O309	O	0.511838	0.580166	0.554273
	H310	H	0.507603	0.574172	0.553578
	H311	H	0.511451	0.581858	0.551685
	O312	O	1.066416	-0.088081	0.967868
	H313	H	1.063346	-0.090184	0.975009
	H314	H	1.059370	-0.090486	0.966466
	O315	O	0.560918	0.403398	0.460240
	H316	H	0.563147	0.404733	0.466765
	H317	H	0.558046	0.403734	0.458113
	O318	O	0.560625	0.461688	0.451521
	H319	H	0.564411	0.451753	0.442393
	H320	H	0.559589	0.467464	0.456190
	O321	O	0.927123	0.943774	0.999837
	H322	H	0.927184	0.934004	1.002497
	H323	H	0.932532	0.946295	1.008255
	O324	O	0.521117	0.438602	0.409319
	H325	H	0.525107	0.437428	0.413962
	H326	H	0.522235	0.436083	0.401243
	O327	O	0.503264	0.503092	0.445124
	H328	H	0.499638	0.490080	0.454962
	H329	H	0.489346	0.505528	0.457242
	O330	O	0.952493	0.041199	1.017463
	H331	H	0.950358	0.044761	1.026758
	H332	H	0.952957	0.042460	1.015666
	O333	O	1.446740	1.451851	-0.451214
	H334	H	1.451140	1.449480	-0.441642
	H335	H	1.453236	1.448621	-0.453370
	O336	O	0.518748	0.643408	0.443175
	H337	H	0.532832	0.643867	0.438910
	H338	H	0.507587	0.651578	0.444111
	O339	O	0.510959	0.513770	0.636314
	H340	H	0.510419	0.524810	0.640373
	H341	H	0.516684	0.516811	0.640010
	O342	O	-0.063635	0.974629	0.080873
	H343	H	-0.060775	0.981263	0.071024
	H344	H	-0.063487	0.978531	0.090361
	O345	O	-0.060309	-0.085449	0.055684
	H346	H	-0.063670	-0.078605	0.064926
	H347	H	-0.059480	-0.087078	0.057993
	O348	O	0.493219	0.446986	0.431521
	H349	H	0.486104	0.445742	0.438239
	H350	H	0.491042	0.441838	0.431034
	O351	O	0.535174	0.485968	0.513933
	H352	H	0.533094	0.480962	0.521229
	H353	H	0.526463	0.496152	0.513015
	O354	O	0.556672	0.510900	0.372741
	H355	H	0.561167	0.507373	0.368924
	H356	H	0.554198	0.503891	0.362234
	O357	O	0.442155	0.573355	0.569155
	H358	H	0.433682	0.564582	0.572237
	H359	H	0.441272	0.586014	0.562783
	O360	O	0.022827	0.023333	0.033711
	H361	H	0.028664	0.021644	0.029823
	H362	H	0.018053	0.019880	0.034331
	O363	O	0.500435	0.580510	0.497938
	H364	H	0.499891	0.585243	0.494459
	H365	H	0.495215	0.584397	0.495300
	O366	O	0.090024	0.043341	1.012835
	H367	H	0.091909	0.046528	1.005538
	H368	H	0.081463	0.030425	1.017941
	O369	O	0.521455	0.563569	0.527424
	H370	H	0.535259	0.567151	0.523302
	H371	H	0.512812	0.571359	0.533156
