data_Molecule from HDF5

_cell_length_a		16.354296
_cell_length_b		16.405058
_cell_length_c		16.375032
_cell_angle_alpha	90.200624
_cell_angle_beta	90.167444
_cell_angle_gamma	89.980709
_symmetry_space_group_name_H-M	'P 1'
_symmetry_Int_Tables_number		1

loop_
	_symmetry_equiv_pos_as_xyz
	x,y,z

loop_
	_atom_site_label
	_atom_site_type_symbol
	_atom_site_fract_x
	_atom_site_fract_y
	_atom_site_fract_z
	H0	H	0.380584	0.838398	0.716066
	H1	H	0.593651	0.155382	0.715956
	H2	H	0.597113	0.838749	0.270814
	H3	H	0.389608	0.157061	0.278740
	H4	H	0.708838	0.393601	0.836767
	H5	H	0.709399	0.603767	0.155644
	H6	H	0.266849	0.601158	0.835823
	H7	H	0.273444	0.397532	0.156687
	H8	H	0.828599	0.717898	0.392813
	H9	H	0.149338	0.717159	0.602251
	H10	H	0.830248	0.276462	0.602551
	H11	H	0.147403	0.278903	0.394349
	H12	H	0.827611	0.397370	0.713480
	H13	H	0.148292	0.602087	0.717906
	H14	H	0.829109	0.603472	0.275306
	H15	H	0.147855	0.394734	0.277952
	H16	H	0.381552	0.717946	0.835149
	H17	H	0.594905	0.721776	0.153112
	H18	H	0.593860	0.276886	0.836276
	H19	H	0.387684	0.279122	0.154984
	H20	H	0.712562	0.838247	0.387196
	H21	H	0.709741	0.155781	0.599908
	H22	H	0.268351	0.836879	0.597601
	H23	H	0.269871	0.155855	0.391770
	H24	H	0.883529	0.338176	0.216929
	H25	H	0.091739	0.656957	0.217735
	H26	H	0.092139	0.338685	0.775764
	H27	H	0.881037	0.656505	0.775437
	H28	H	0.204524	0.894453	0.334093
	H29	H	0.210151	0.100589	0.655164
	H30	H	0.767205	0.103286	0.336272
	H31	H	0.766936	0.892457	0.653960
	H32	H	0.329310	0.215662	0.891453
	H33	H	0.648287	0.219113	0.101901
	H34	H	0.329107	0.778192	0.096984
	H35	H	0.647090	0.774078	0.885941
	H36	H	0.330226	0.891873	0.215130
	H37	H	0.648875	0.102980	0.216996
	H38	H	0.328844	0.100206	0.775281
	H39	H	0.646936	0.889749	0.770932
	H40	H	0.882398	0.220305	0.337640
	H41	H	0.094128	0.217288	0.656347
	H42	H	0.092322	0.775370	0.337433
	H43	H	0.884774	0.778970	0.655941
	H44	H	0.207348	0.337495	0.893044
	H45	H	0.209864	0.656569	0.102540
	H46	H	0.768248	0.338236	0.100730
	H47	H	0.764131	0.655709	0.890030
	H48	H	0.399128	0.108479	0.579008
	H49	H	0.574359	0.885445	0.579057
	H50	H	0.581980	0.113790	0.397570
	H51	H	0.397720	0.882343	0.406033
	H52	H	0.576895	0.407018	0.109699
	H53	H	0.575734	0.584610	0.882616
	H54	H	0.401231	0.589438	0.108485
	H55	H	0.391587	0.408998	0.879252
	H56	H	0.101706	0.587459	0.408297
	H57	H	0.874103	0.585644	0.590212
	H58	H	0.104531	0.408060	0.589858
	H59	H	0.876868	0.415406	0.409888
	H60	H	0.103323	0.406953	0.584180
	H61	H	0.872824	0.593841	0.587179
	H62	H	0.101721	0.586799	0.410124
	H63	H	0.871074	0.407872	0.399584
	H64	H	0.399159	0.588568	0.109251
	H65	H	0.576382	0.583516	0.882495
	H66	H	0.579128	0.407771	0.110764
	H67	H	0.402400	0.408892	0.882626
	H68	H	0.568921	0.106312	0.405793
	H69	H	0.580635	0.883589	0.580359
	H70	H	0.396712	0.111315	0.586551
	H71	H	0.395166	0.880976	0.400954
	H72	H	0.902093	0.609753	0.083874
	H73	H	0.078526	0.381807	0.092539
	H74	H	0.081630	0.613289	0.907436
	H75	H	0.888045	0.377421	0.896605
	H76	H	0.080584	0.903001	0.612841
	H77	H	0.082514	0.088026	0.379299
	H78	H	0.896895	0.084162	0.608851
	H79	H	0.902098	0.911308	0.384115
	H80	H	0.604786	0.089358	0.905046
	H81	H	0.376035	0.085717	0.084795
	H82	H	0.601278	0.915065	0.083197
	H83	H	0.372536	0.905184	0.900569
	H84	H	0.604244	0.905768	0.084339
	H85	H	0.374459	0.088294	0.087371
	H86	H	0.601910	0.084228	0.907256
	H87	H	0.375925	0.906683	0.909927
	H88	H	0.904161	0.084287	0.607116
	H89	H	0.076373	0.085672	0.383271
	H90	H	0.084936	0.912379	0.610560
	H91	H	0.903651	0.904628	0.381957
	H92	H	0.075829	0.611746	0.905210
	H93	H	0.076056	0.385240	0.084493
	H94	H	0.897583	0.611258	0.084940
	H95	H	0.914770	0.388029	0.899845
	H96	H	0.404046	0.109178	0.585544
	H97	H	0.575719	0.882921	0.584901
	H98	H	0.583168	0.109119	0.414034
	H99	H	0.400688	0.880937	0.401173
	H100	H	0.577937	0.409068	0.110327
	H101	H	0.575622	0.583585	0.883492
	H102	H	0.400302	0.586650	0.107996
	H103	H	0.397612	0.399449	0.878662
	H104	H	0.101952	0.585422	0.408464
	H105	H	0.876678	0.587921	0.581965
	H106	H	0.101752	0.412026	0.586349
	H107	H	0.872856	0.402960	0.412286
	H108	H	0.900962	0.610915	0.088021
	H109	H	0.084454	0.382239	0.085749
	H110	H	0.077371	0.610249	0.910921
	H111	H	0.896228	0.388568	0.922320
	H112	H	0.074999	0.910272	0.607753
	H113	H	0.076286	0.093406	0.381122
	H114	H	0.900584	0.090060	0.609547
	H115	H	0.897406	0.907248	0.380613
	H116	H	0.603636	0.084450	0.901554
	H117	H	0.375362	0.089097	0.083429
	H118	H	0.601169	0.908988	0.075564
	H119	H	0.376185	0.914025	0.903219
	C120	C	0.367625	0.004739	0.615364
	C121	C	0.609433	0.988733	0.614722
	C122	C	0.611837	0.005281	0.372428
	C123	C	0.367592	0.987434	0.372406
	C124	C	0.609907	0.375821	0.004933
	C125	C	0.609467	0.618371	0.987468
	C126	C	0.367127	0.619644	0.003413
	C127	C	0.367541	0.375621	0.986530
	C128	C	-0.003611	0.618624	0.376387
	C129	C	0.980056	0.620644	0.618988
	C130	C	-0.002687	0.377401	0.618178
	C131	C	0.979399	0.377327	0.376051
	C132	C	0.867287	0.505903	0.117764
	C133	C	0.111262	0.488572	0.119270
	C134	C	0.109580	0.506201	0.875697
	C135	C	0.866499	0.489548	0.874771
	C136	C	0.110420	0.875811	0.504533
	C137	C	0.111061	0.120232	0.487099
	C138	C	0.867192	0.119188	0.504194
	C139	C	0.868397	0.876452	0.487345
	C140	C	0.497527	0.117567	0.873404
	C141	C	0.481025	0.119219	0.116859
	C142	C	0.497468	0.876868	0.114079
	C143	C	0.479771	0.875302	0.871803
	C144	C	0.364063	0.885694	0.675360
	C145	C	0.611777	0.107959	0.675547
	C146	C	0.614712	0.885748	0.311424
	C147	C	0.368908	0.108595	0.316049
	C148	C	0.669481	0.374527	0.884787
	C149	C	0.669461	0.621746	0.107379
	C150	C	0.306513	0.620238	0.883762
	C151	C	0.311651	0.376937	0.108089
	C152	C	0.876613	0.678508	0.374214
	C153	C	0.100946	0.678401	0.620769
	C154	C	0.877526	0.317264	0.620129
	C155	C	0.099945	0.318708	0.375607
	C156	C	0.876002	0.377337	0.675440
	C157	C	0.100216	0.621580	0.678860
	C158	C	0.876752	0.621572	0.315592
	C159	C	0.099841	0.375978	0.317458
	C160	C	0.363932	0.678402	0.883238
	C161	C	0.612502	0.680589	0.106221
	C162	C	0.612158	0.316462	0.884417
	C163	C	0.368518	0.318079	0.107239
	C164	C	0.672248	0.885873	0.369246
	C165	C	0.669578	0.108113	0.617749
	C166	C	0.307897	0.884998	0.616337
	C167	C	0.309502	0.107917	0.372419
	C168	C	0.865012	0.385996	0.177276
	C169	C	0.111833	0.608887	0.178823
	C170	C	0.111111	0.386359	0.815646
	C171	C	0.863274	0.608954	0.815023
	C172	C	0.166525	0.875009	0.382878
	C173	C	0.170668	0.120010	0.607257
	C174	C	0.806877	0.121628	0.384286
	C175	C	0.807805	0.874755	0.606838
	C176	C	0.377447	0.176696	0.872250
	C177	C	0.600709	0.179067	0.119519
	C178	C	0.377098	0.817258	0.116070
	C179	C	0.599343	0.814325	0.868302
	C180	C	0.377666	0.874094	0.174547
	C181	C	0.601000	0.120969	0.176694
	C182	C	0.377130	0.119089	0.814294
	C183	C	0.599464	0.871858	0.810882
	C184	C	0.864433	0.179909	0.385129
	C185	C	0.113049	0.178311	0.607779
	C186	C	0.111019	0.815437	0.384765
	C187	C	0.866340	0.818135	0.607802
	C188	C	0.168282	0.385734	0.874191
	C189	C	0.170186	0.608662	0.121235
	C190	C	0.807833	0.385855	0.119080
	C191	C	0.805099	0.608496	0.872256
	C192	C	0.392836	0.088183	0.590724
	C193	C	0.584177	0.905505	0.588722
	C194	C	0.585570	0.088057	0.398139
	C195	C	0.391222	0.903224	0.395804
	C196	C	0.585048	0.400644	0.088464
	C197	C	0.583302	0.591678	0.904513
	C198	C	0.392980	0.595252	0.086830
	C199	C	0.390555	0.399072	0.902178
	C200	C	0.080033	0.593685	0.401779
	C201	C	0.896396	0.596182	0.593712
	C202	C	0.081288	0.402037	0.594077
	C203	C	0.895448	0.401706	0.400483
	C204	C	0.892753	0.588972	0.092807
	C205	C	0.086775	0.404883	0.094682
	C206	C	0.085198	0.589895	0.900608
	C207	C	0.892152	0.406355	0.899298
	C208	C	0.086836	0.901214	0.588563
	C209	C	0.085723	0.095974	0.403100
	C210	C	0.892934	0.093368	0.587015
	C211	C	0.893660	0.900787	0.404009
	C212	C	0.581604	0.093099	0.897578
	C213	C	0.396962	0.094620	0.092246
	C214	C	0.580473	0.902505	0.088537
	C215	C	0.396744	0.901211	0.897261
	Zn216	Zn	0.488677	-0.003470	0.744338
	Zn217	Zn	0.490307	-0.003340	0.244160
	Zn218	Zn	0.738453	0.497352	-0.003197
	Zn219	Zn	0.238965	0.497460	-0.003696
	Zn220	Zn	-0.010754	0.748132	0.497215
	Zn221	Zn	-0.011579	0.248487	0.497348
	Zn222	Zn	-0.011711	0.498559	0.746440
	Zn223	Zn	-0.012219	0.498083	0.246878
	Zn224	Zn	0.488843	0.748153	-0.006236
	Zn225	Zn	0.489655	0.246650	-0.004914
	Zn226	Zn	0.739017	-0.003333	0.494603
	Zn227	Zn	0.238645	-0.003611	0.494335
	N228	N	0.400823	0.961166	0.674639
	N229	N	0.575067	0.032674	0.673835
	N230	N	0.577704	0.960947	0.313416
	N231	N	0.404079	0.032372	0.315684
	N232	N	0.668588	0.410407	0.960741
	N233	N	0.667601	0.583998	0.032464
	N234	N	0.308280	0.584598	0.959677
	N235	N	0.310653	0.411670	0.031986
	N236	N	0.952121	0.676764	0.411412
	N237	N	0.025267	0.678008	0.584397
	N238	N	0.953899	0.317256	0.585357
	N239	N	0.023826	0.319128	0.411019
	N240	N	0.951587	0.413898	0.674319
	N241	N	0.024086	0.586274	0.677866
	N242	N	0.952146	0.584813	0.317176
	N243	N	0.023894	0.411579	0.317726
	N244	N	0.401021	0.678090	0.958600
	N245	N	0.576182	0.678730	0.030351
	N246	N	0.576043	0.317270	0.960069
	N247	N	0.402208	0.316916	0.030485
	N248	N	0.670491	0.961127	0.406191
	N249	N	0.668227	0.032762	0.580883
	N250	N	0.309994	0.960150	0.579658
	N251	N	0.308401	0.031517	0.406435
	N252	N	0.901241	0.461509	0.176548
	N253	N	0.076027	0.533037	0.177879
	N254	N	0.075323	0.462198	0.816599
	N255	N	0.900668	0.533827	0.816201
	N256	N	0.166164	0.911891	0.458288
	N257	N	0.169809	0.084764	0.530866
	N258	N	0.808225	0.084753	0.459512
	N259	N	0.808945	0.910412	0.530993
	N260	N	0.453383	0.176007	0.908206
	N261	N	0.525155	0.177475	0.082593
	N262	N	0.452457	0.819105	0.079242
	N263	N	0.524002	0.816160	0.905149
	N264	N	0.453427	0.910440	0.173613
	N265	N	0.525430	0.084520	0.175227
	N266	N	0.453055	0.083174	0.814887
	N267	N	0.524097	0.908824	0.812685
	N268	N	0.901066	0.178589	0.460685
	N269	N	0.076697	0.178420	0.532004
	N270	N	0.077137	0.815828	0.461511
	N271	N	0.903176	0.818909	0.532577
	N272	N	0.167345	0.461264	0.910939
	N273	N	0.170168	0.532759	0.085370
	N274	N	0.809094	0.461328	0.082846
	N275	N	0.806997	0.533276	0.908620
	O276	O	0.675934	0.535408	0.487896
	H277	H	0.692660	0.536787	0.494263
	H278	H	0.679038	0.518162	0.497053
	O279	O	0.322753	0.551723	0.411936
	H280	H	0.322113	0.551873	0.426750
	H281	H	0.327116	0.547515	0.401668
	O282	O	0.530659	0.374440	0.311882
	H283	H	0.546136	0.394778	0.302034
	H284	H	0.521419	0.385992	0.324908
	O285	O	0.983211	1.019546	0.062059
	H286	H	0.978042	1.012512	0.064493
	H287	H	0.996898	1.020079	0.056663
	O288	O	0.464090	0.510828	0.324466
	H289	H	0.451104	0.524829	0.313897
	H290	H	0.457080	0.521610	0.346245
	O291	O	0.349284	0.399342	0.681383
	H292	H	0.351684	0.411758	0.689169
	H293	H	0.343969	0.410396	0.677728
	O294	O	0.915394	0.996496	0.866825
	H295	H	0.923852	0.981527	0.864008
	H296	H	0.916596	1.000393	0.857799
	O297	O	0.524387	0.471120	0.501587
	H298	H	0.539791	0.482699	0.491094
	H299	H	0.525160	0.472876	0.500580
	O300	O	0.802720	0.176473	0.837440
	H301	H	0.799666	0.173850	0.874871
	H302	H	0.813728	0.152164	0.835491
	O303	O	0.464549	0.291326	0.678103
	H304	H	0.459733	0.261486	0.700291
	H305	H	0.435259	0.305406	0.669350
	O306	O	0.163534	-0.103182	0.963937
	H307	H	0.157059	-0.099860	0.936961
	H308	H	0.176469	-0.104137	0.968582
	O309	O	1.019041	0.178062	0.074380
	H310	H	1.016451	0.192986	0.083245
	H311	H	1.002556	0.176164	0.070185
	O312	O	0.512117	0.705122	0.579426
	H313	H	0.516550	0.712570	0.564190
	H314	H	0.524872	0.696990	0.573719
	O315	O	0.398657	0.536291	0.665010
	H316	H	0.412258	0.551399	0.673796
	H317	H	0.416150	0.553722	0.658688
	O318	O	-0.184290	-0.149435	0.143609
	H319	H	-0.151710	-0.147323	0.143138
	H320	H	-0.188055	-0.118017	0.164235
	O321	O	0.646833	0.600866	0.666645
	H322	H	0.653072	0.590850	0.657346
	H323	H	0.632107	0.573999	0.677349
	O324	O	1.177214	-0.034461	0.819926
	H325	H	1.165959	-0.017159	0.820599
	H326	H	1.177930	-0.020528	0.818863
	O327	O	0.355821	0.317343	0.431662
	H328	H	0.366641	0.326504	0.430560
	H329	H	0.361920	0.326360	0.444903
	O330	O	0.040724	0.875282	0.825435
	H331	H	0.052935	0.874852	0.851195
	H332	H	0.045693	0.887759	0.827603
	O333	O	-0.008994	1.202190	0.054419
	H334	H	-0.014240	1.210282	0.042577
	H335	H	0.009141	1.220450	0.059969
	O336	O	0.938472	1.193243	-0.209336
	H337	H	0.943966	1.204139	-0.226459
	H338	H	0.909523	1.190253	-0.194938
	O339	O	0.180217	1.152250	1.003106
	H340	H	0.181800	1.158007	1.001655
	H341	H	0.191677	1.152716	1.010956
	O342	O	0.535297	0.372158	0.662777
	H343	H	0.529873	0.351650	0.674036
	H344	H	0.538431	0.363129	0.666014
	O345	O	-0.215109	-0.032572	0.954325
	H346	H	-0.223682	-0.054069	0.948329
	H347	H	-0.208106	-0.029254	0.971921
	O348	O	0.374939	0.634860	0.349546
	H349	H	0.381757	0.638271	0.361625
	H350	H	0.381435	0.627708	0.352033
	O351	O	0.832072	0.976146	0.197409
	H352	H	0.832605	0.985615	0.199124
	H353	H	0.828783	0.992848	0.216152
	O354	O	1.105278	1.154780	1.182891
	H355	H	1.113555	1.152161	1.195295
	H356	H	1.116047	1.174743	1.187255
	O357	O	-0.215983	0.099384	-0.025903
	H358	H	-0.215121	0.084056	-0.019215
	H359	H	-0.229277	0.090838	-0.022578
	O360	O	0.376061	0.689022	0.304030
	H361	H	0.370907	0.700216	0.306103
	H362	H	0.379065	0.700393	0.310217
	O363	O	0.952991	-0.063420	-0.096849
	H364	H	0.948635	-0.063615	-0.080100
	H365	H	0.972761	-0.061446	-0.085639
	O366	O	0.111383	-0.173650	1.095886
	H367	H	0.100695	-0.172342	1.094335
	H368	H	0.109743	-0.156808	1.095979
	O369	O	1.110227	0.039266	1.202661
	H370	H	1.141662	0.033470	1.215192
	H371	H	1.097644	0.038155	1.193384
	O372	O	0.560999	0.324900	0.466361
	H373	H	0.553965	0.316572	0.471744
	H374	H	0.557964	0.338581	0.461879
	O375	O	0.360345	0.266080	1.267654
	H376	H	0.379305	0.298907	1.277548
	H377	H	0.355649	0.271433	1.252238
	O378	O	0.351217	0.330364	0.614393
	H379	H	0.347826	0.351731	0.615414
	H380	H	0.338012	0.320304	0.602169
	O381	O	0.016759	0.834705	0.099904
	H382	H	0.017481	0.841301	0.098495
	H383	H	0.022361	0.828819	0.098629
	O384	O	0.392108	0.607937	0.558615
	H385	H	0.402547	0.584216	0.577435
	H386	H	0.391428	0.617893	0.567905
	O387	O	0.574683	0.493130	0.373258
	H388	H	0.565433	0.486105	0.364024
	H389	H	0.575767	0.496095	0.373227
	O390	O	0.994145	1.080110	-0.090854
	H391	H	0.993083	1.075834	-0.102797
	H392	H	0.989815	1.080364	-0.090984
	O393	O	0.987519	-0.003518	1.069071
	H394	H	0.988999	0.001180	1.082472
	H395	H	0.988947	-0.002919	1.062799
	O396	O	0.285609	0.363362	0.419340
	H397	H	0.289082	0.366433	0.411894
	H398	H	0.281646	0.367387	0.421661
	O399	O	0.847480	1.063286	0.154728
	H400	H	0.850077	1.069479	0.150343
	H401	H	0.856842	1.068265	0.137549
	O402	O	0.973911	0.818984	-0.110879
	H403	H	0.956017	0.809026	-0.117727
	H404	H	0.968361	0.809931	-0.098653
	O405	O	0.677830	0.498243	0.646863
	H406	H	0.676605	0.471092	0.651643
	H407	H	0.673970	0.483779	0.642233
	O408	O	0.341474	0.626845	0.438006
	H409	H	0.348041	0.634745	0.445090
	H410	H	0.349842	0.645341	0.425643
	O411	O	1.142375	0.987925	1.018555
	H412	H	1.134875	0.999549	1.008248
	H413	H	1.139933	0.997736	1.012140
	O414	O	0.657685	0.644847	0.497658
	H415	H	0.671422	0.635640	0.501167
	H416	H	0.672215	0.624925	0.504626
	O417	O	0.135634	1.107360	0.886315
	H418	H	0.123508	1.118534	0.877326
	H419	H	0.133912	1.096157	0.904524
	O420	O	0.115045	0.874618	1.012056
	H421	H	0.101287	0.862645	1.016283
	H422	H	0.118206	0.870697	1.016653
	O423	O	-0.220517	0.786071	0.047915
	H424	H	-0.235357	0.768555	0.068305
	H425	H	-0.218109	0.785785	0.069245
	O426	O	0.374890	0.531218	0.484154
	H427	H	0.375695	0.527101	0.481463
	H428	H	0.373617	0.531901	0.498035
	O429	O	0.639462	0.369348	0.400487
	H430	H	0.637872	0.371385	0.397878
	H431	H	0.628237	0.351197	0.408129
	O432	O	0.473355	0.539720	0.388575
	H433	H	0.475307	0.549874	0.376831
	H434	H	0.471668	0.544626	0.402457
	O435	O	0.677547	-0.551502	0.402242
	H436	H	0.666625	-0.560708	0.413662
	H437	H	0.675388	-0.567734	0.406515
	O438	O	-0.084421	0.886749	0.782535
	H439	H	-0.080782	0.861760	0.772411
	H440	H	-0.071267	0.878254	0.777541
	O441	O	0.555575	0.658433	0.698811
	H442	H	0.553003	0.664341	0.689308
	H443	H	0.572409	0.671563	0.710420
