data_Molecule from HDF5

_cell_length_a		15.998926
_cell_length_b		16.237768
_cell_length_c		16.362439
_cell_angle_alpha	90.268990
_cell_angle_beta	89.860526
_cell_angle_gamma	89.651332
_symmetry_space_group_name_H-M	'P 1'
_symmetry_Int_Tables_number		1

loop_
	_symmetry_equiv_pos_as_xyz
	x,y,z

loop_
	_atom_site_label
	_atom_site_type_symbol
	_atom_site_fract_x
	_atom_site_fract_y
	_atom_site_fract_z
	H0	H	0.406866	0.850172	0.716245
	H1	H	0.609748	0.176399	0.720691
	H2	H	0.610997	0.850816	0.283907
	H3	H	0.404493	0.176666	0.285100
	H4	H	0.720571	0.414841	0.836401
	H5	H	0.716480	0.608102	0.165808
	H6	H	0.291930	0.608754	0.838103
	H7	H	0.293621	0.417699	0.165111
	H8	H	0.841233	0.727766	0.403622
	H9	H	0.174336	0.725023	0.598502
	H10	H	0.840278	0.303562	0.597499
	H11	H	0.174439	0.301962	0.402563
	H12	H	0.840662	0.416216	0.714817
	H13	H	0.171863	0.614535	0.718413
	H14	H	0.840979	0.613306	0.289076
	H15	H	0.171950	0.412665	0.284800
	H16	H	0.403857	0.728867	0.838736
	H17	H	0.605709	0.729460	0.162878
	H18	H	0.608159	0.293851	0.838323
	H19	H	0.406010	0.298559	0.164454
	H20	H	0.721023	0.849040	0.403517
	H21	H	0.715924	0.180618	0.595660
	H22	H	0.295320	0.849005	0.596260
	H23	H	0.295881	0.178944	0.407092
	H24	H	0.907168	0.349110	0.216624
	H25	H	0.106684	0.676550	0.217887
	H26	H	0.111256	0.351195	0.782416
	H27	H	0.901273	0.675786	0.786119
	H28	H	0.222418	0.916758	0.337254
	H29	H	0.218969	0.110897	0.664638
	H30	H	0.795470	0.109779	0.335652
	H31	H	0.793838	0.920181	0.664729
	H32	H	0.339536	0.224821	0.905009
	H33	H	0.672844	0.225269	0.099470
	H34	H	0.339391	0.802322	0.098007
	H35	H	0.672304	0.796839	0.900834
	H36	H	0.342178	0.912874	0.217530
	H37	H	0.673484	0.111746	0.214433
	H38	H	0.341499	0.113351	0.788213
	H39	H	0.672923	0.911490	0.786527
	H40	H	0.908304	0.229729	0.336937
	H41	H	0.106304	0.229534	0.663535
	H42	H	0.111481	0.794509	0.338999
	H43	H	0.906215	0.799073	0.663854
	H44	H	0.218894	0.347816	0.904672
	H45	H	0.218272	0.677707	0.097909
	H46	H	0.797013	0.346788	0.095976
	H47	H	0.794938	0.677802	0.908919
	H48	H	0.417209	0.129874	0.596239
	H49	H	0.605446	0.897242	0.587584
	H50	H	0.595456	0.131543	0.402896
	H51	H	0.411863	0.897404	0.416145
	H52	H	0.599890	0.423281	0.115407
	H53	H	0.599867	0.610092	0.882590
	H54	H	0.403490	0.612749	0.121493
	H55	H	0.406189	0.425822	0.884462
	H56	H	0.126795	0.604136	0.408625
	H57	H	0.889184	0.602281	0.597879
	H58	H	0.123118	0.432022	0.591739
	H59	H	0.884225	0.416574	0.399135
	H60	H	0.130779	0.418656	0.604029
	H61	H	0.885328	0.610962	0.597423
	H62	H	0.126607	0.603216	0.408299
	H63	H	0.888195	0.417010	0.417906
	H64	H	0.413773	0.597245	0.114699
	H65	H	0.603945	0.602343	0.883952
	H66	H	0.594754	0.412258	0.116885
	H67	H	0.425128	0.419492	0.887979
	H68	H	0.598421	0.129820	0.410422
	H69	H	0.603193	0.893908	0.601979
	H70	H	0.412470	0.131388	0.595212
	H71	H	0.411556	0.892940	0.398430
	H72	H	0.915146	0.631398	0.102398
	H73	H	0.097821	0.395820	0.096758
	H74	H	0.100521	0.631968	0.908743
	H75	H	0.913647	0.396986	0.913739
	H76	H	0.090878	0.917503	0.615499
	H77	H	0.108882	0.116462	0.379189
	H78	H	0.912929	0.108682	0.616407
	H79	H	0.913160	0.923668	0.384615
	H80	H	0.625696	0.110532	0.917770
	H81	H	0.388058	0.105091	0.094844
	H82	H	0.624111	0.927352	0.095205
	H83	H	0.385450	0.920787	0.899599
	H84	H	0.628736	0.914451	0.097307
	H85	H	0.387720	0.105825	0.094732
	H86	H	0.621236	0.092233	0.913314
	H87	H	0.385724	0.913724	0.910507
	H88	H	0.914496	0.112737	0.617187
	H89	H	0.104559	0.098191	0.385759
	H90	H	0.105984	0.913396	0.619982
	H91	H	0.920813	0.920266	0.386237
	H92	H	0.095021	0.630021	0.906838
	H93	H	0.098986	0.395616	0.094860
	H94	H	0.913487	0.629278	0.093536
	H95	H	0.910688	0.391713	0.900479
	H96	H	0.414150	0.132246	0.600114
	H97	H	0.591757	0.899984	0.593641
	H98	H	0.603273	0.134329	0.404059
	H99	H	0.426747	0.899062	0.405563
	H100	H	0.606744	0.414567	0.119686
	H101	H	0.595620	0.603351	0.885936
	H102	H	0.422686	0.615404	0.117315
	H103	H	0.411244	0.406747	0.881220
	H104	H	0.126986	0.604781	0.407676
	H105	H	0.889682	0.607327	0.589551
	H106	H	0.126500	0.413792	0.585869
	H107	H	0.890884	0.432873	0.406998
	H108	H	0.905197	0.632257	0.099130
	H109	H	0.099932	0.395190	0.096681
	H110	H	0.096058	0.629438	0.911490
	H111	H	0.923472	0.396294	0.903898
	H112	H	0.102553	0.929470	0.615265
	H113	H	0.090034	0.111728	0.386047
	H114	H	0.910161	0.111337	0.617405
	H115	H	0.914791	0.914887	0.383288
	H116	H	0.629925	0.104507	0.899247
	H117	H	0.388176	0.105002	0.094331
	H118	H	0.624001	0.918138	0.084936
	H119	H	0.389892	0.925858	0.910011
	C120	C	0.385589	0.022538	0.623974
	C121	C	0.628726	1.005483	0.623222
	C122	C	0.629131	0.023107	0.377725
	C123	C	0.386767	1.004907	0.379612
	C124	C	0.629526	0.388337	0.009216
	C125	C	0.627714	0.633924	0.992436
	C126	C	0.383677	0.635677	0.009710
	C127	C	0.385032	0.390577	0.992973
	C128	C	0.016546	0.634184	0.379984
	C129	C	0.997853	0.635572	0.623628
	C130	C	0.016242	0.393944	0.621703
	C131	C	0.997912	0.393061	0.379371
	C132	C	0.884250	0.521488	0.124828
	C133	C	0.127391	0.504126	0.123888
	C134	C	0.127395	0.521925	0.879804
	C135	C	0.885458	0.503867	0.879476
	C136	C	0.129736	0.891398	0.509237
	C137	C	0.129229	0.136395	0.492050
	C138	C	0.884623	0.138027	0.508707
	C139	C	0.885945	0.892158	0.492637
	C140	C	0.515710	0.132578	0.881549
	C141	C	0.497804	0.133929	0.123074
	C142	C	0.515696	0.892020	0.121577
	C143	C	0.497175	0.890478	0.878495
	C144	C	0.387282	0.898880	0.677873
	C145	C	0.628083	0.128158	0.680600
	C146	C	0.629652	0.899424	0.322255
	C147	C	0.386292	0.128063	0.324108
	C148	C	0.683990	0.392622	0.885804
	C149	C	0.680358	0.629907	0.116134
	C150	C	0.329085	0.630688	0.886982
	C151	C	0.330432	0.395536	0.116279
	C152	C	0.890901	0.689798	0.383244
	C153	C	0.124011	0.688757	0.620026
	C154	C	0.890148	0.340509	0.618382
	C155	C	0.124004	0.338642	0.381897
	C156	C	0.890471	0.396290	0.676816
	C157	C	0.122734	0.633685	0.679312
	C158	C	0.890829	0.633322	0.326039
	C159	C	0.122898	0.393723	0.323579
	C160	C	0.384697	0.690438	0.887380
	C161	C	0.625462	0.690263	0.114724
	C162	C	0.627682	0.332903	0.886414
	C163	C	0.386719	0.336608	0.115946
	C164	C	0.684260	0.898572	0.381906
	C165	C	0.681350	0.130135	0.618762
	C166	C	0.331754	0.898435	0.618433
	C167	C	0.331916	0.129267	0.384224
	C168	C	0.887184	0.397907	0.178755
	C169	C	0.126259	0.627663	0.179536
	C170	C	0.128570	0.399345	0.822432
	C171	C	0.884056	0.627112	0.824929
	C172	C	0.185541	0.894715	0.386501
	C173	C	0.182555	0.132375	0.615444
	C174	C	0.831624	0.132375	0.385013
	C175	C	0.830997	0.897675	0.615541
	C176	C	0.389823	0.188213	0.884011
	C177	C	0.623157	0.188350	0.120086
	C178	C	0.389479	0.838858	0.118800
	C179	C	0.622772	0.835036	0.880945
	C180	C	0.391085	0.893954	0.178075
	C181	C	0.623289	0.131850	0.177400
	C182	C	0.390789	0.132441	0.826011
	C183	C	0.622892	0.891932	0.824037
	C184	C	0.887971	0.191674	0.385625
	C185	C	0.126627	0.191579	0.614844
	C186	C	0.129960	0.834264	0.387207
	C187	C	0.887019	0.837659	0.615214
	C188	C	0.182395	0.397558	0.882890
	C189	C	0.181630	0.628416	0.119802
	C190	C	0.832561	0.396580	0.118560
	C191	C	0.830932	0.628205	0.886004
	C192	C	0.407912	0.108879	0.603471
	C193	C	0.606648	0.919262	0.600981
	C194	C	0.605954	0.109420	0.399285
	C195	C	0.409889	0.918844	0.400532
	C196	C	0.607030	0.410147	0.095072
	C197	C	0.606014	0.611887	0.906470
	C198	C	0.406485	0.614533	0.095579
	C199	C	0.407560	0.411381	0.906861
	C200	C	0.104136	0.610995	0.401663
	C201	C	0.910648	0.613562	0.601342
	C202	C	0.103908	0.415118	0.600349
	C203	C	0.910450	0.415699	0.401459
	C204	C	0.905137	0.608363	0.104538
	C205	C	0.105468	0.417968	0.102402
	C206	C	0.104066	0.607936	0.902358
	C207	C	0.908909	0.417343	0.899905
	C208	C	0.106343	0.913611	0.594864
	C209	C	0.107678	0.115052	0.405844
	C210	C	0.906069	0.117198	0.594892
	C211	C	0.909274	0.913322	0.406680
	C212	C	0.602912	0.109387	0.903630
	C213	C	0.410655	0.111702	0.101197
	C214	C	0.602921	0.913534	0.099107
	C215	C	0.409642	0.913337	0.900287
	Zn216	Zn	0.507632	0.013210	0.753095
	Zn217	Zn	0.507599	0.013388	0.249759
	Zn218	Zn	0.757446	0.511764	0.001697
	Zn219	Zn	0.255747	0.512385	0.001310
	Zn220	Zn	0.007738	0.761561	0.500791
	Zn221	Zn	0.007420	0.266318	0.500207
	Zn222	Zn	0.006691	0.513826	0.751104
	Zn223	Zn	0.006532	0.513287	0.252633
	Zn224	Zn	0.506001	0.764209	0.000314
	Zn225	Zn	0.505854	0.260338	0.001410
	Zn226	Zn	0.756352	0.014866	0.500122
	Zn227	Zn	0.258296	0.014385	0.501318
	N228	N	0.420220	0.976816	0.681231
	N229	N	0.596424	0.049553	0.683656
	N230	N	0.595985	0.977634	0.319772
	N231	N	0.419706	0.049826	0.320834
	N232	N	0.685265	0.426319	0.963158
	N233	N	0.682148	0.595696	0.038974
	N234	N	0.328222	0.597446	0.964270
	N235	N	0.329307	0.428478	0.038908
	N236	N	0.970079	0.690513	0.415994
	N237	N	0.045344	0.690001	0.586057
	N238	N	0.969282	0.338591	0.584850
	N239	N	0.045285	0.338138	0.416083
	N240	N	0.969646	0.428908	0.678723
	N241	N	0.043304	0.601600	0.681771
	N242	N	0.969887	0.599464	0.323878
	N243	N	0.043556	0.426953	0.322016
	N244	N	0.417761	0.693674	0.964871
	N245	N	0.593476	0.692860	0.036591
	N246	N	0.594567	0.330089	0.964173
	N247	N	0.420127	0.333627	0.038323
	N248	N	0.684210	0.976417	0.415681
	N249	N	0.682256	0.052839	0.583805
	N250	N	0.330383	0.976443	0.585752
	N251	N	0.332180	0.051870	0.418194
	N252	N	0.918563	0.476653	0.182729
	N253	N	0.093247	0.549651	0.181924
	N254	N	0.095173	0.477664	0.820470
	N255	N	0.917406	0.548792	0.820845
	N256	N	0.185411	0.929558	0.463292
	N257	N	0.184339	0.098932	0.537959
	N258	N	0.829555	0.099496	0.462562
	N259	N	0.830273	0.930840	0.538194
	N260	N	0.468392	0.188242	0.917927
	N261	N	0.544123	0.189922	0.087030
	N262	N	0.467923	0.837565	0.084171
	N263	N	0.543581	0.833912	0.913975
	N264	N	0.470344	0.926319	0.179916
	N265	N	0.544337	0.098680	0.179430
	N266	N	0.469987	0.098788	0.824218
	N267	N	0.543938	0.925845	0.822463
	N268	N	0.919851	0.195462	0.463569
	N269	N	0.094428	0.194654	0.536909
	N270	N	0.096130	0.832021	0.464721
	N271	N	0.920575	0.834227	0.537591
	N272	N	0.181701	0.474640	0.918296
	N273	N	0.182567	0.550605	0.085881
	N274	N	0.830699	0.474302	0.085622
	N275	N	0.831352	0.550405	0.919210
	O276	O	-0.015426	-0.029290	-0.002816
	H277	H	-0.014323	-0.046550	-0.000660
	H278	H	-0.012206	-0.035755	-0.005255
	O279	O	0.552735	0.533986	0.498771
	H280	H	0.550208	0.527543	0.493830
	H281	H	0.543422	0.537284	0.504889
	O282	O	0.512596	0.524669	0.598989
	H283	H	0.522845	0.527960	0.599979
	H284	H	0.518010	0.528215	0.601405
	O285	O	1.047749	0.083622	1.022818
	H286	H	1.030835	0.090722	1.026942
	H287	H	1.045791	0.087969	1.016808
	O288	O	1.013695	-0.016003	-0.156274
	H289	H	1.022132	-0.008350	-0.155830
	H290	H	1.007669	-0.008518	-0.156668
	O291	O	0.459795	0.583562	0.507886
	H292	H	0.451758	0.581992	0.516825
	H293	H	0.455027	0.576466	0.513005
	O294	O	1.074206	-0.120369	0.933704
	H295	H	1.069867	-0.095412	0.938546
	H296	H	1.080034	-0.130984	0.931673
	O297	O	-0.090240	-0.009024	-0.009539
	H298	H	-0.089441	-0.014742	-0.010382
	H299	H	-0.088666	-0.015396	-0.008394
	O300	O	0.566447	0.570668	0.537962
	H301	H	0.566466	0.577111	0.520376
	H302	H	0.570260	0.564731	0.535510
	O303	O	1.046990	-0.046495	0.029200
	H304	H	1.042034	-0.046010	0.025545
	H305	H	1.038654	-0.040566	0.018126
	O306	O	1.004444	0.050491	0.046870
	H307	H	1.001808	0.043947	0.038662
	H308	H	1.005858	0.045787	0.050033
	O309	O	0.036907	0.078706	1.056320
	H310	H	0.030000	0.083761	1.059946
	H311	H	0.039920	0.073858	1.057444
	O312	O	0.959714	1.000734	1.022987
	H313	H	0.954209	1.008109	1.018172
	H314	H	0.959888	0.990977	1.032121
	O315	O	0.516957	0.486970	0.438173
	H316	H	0.520182	0.487768	0.441410
	H317	H	0.507811	0.486896	0.428757
	O318	O	0.531337	0.525842	0.467528
	H319	H	0.541118	0.522032	0.473777
	H320	H	0.538193	0.520553	0.469425
	O321	O	-0.063470	1.121562	1.000177
	H322	H	-0.066511	1.123118	0.989432
	H323	H	-0.076562	1.123993	0.995481
	O324	O	-0.042547	-0.010095	-0.003434
	H325	H	-0.041725	-0.008816	-0.005735
	H326	H	-0.040772	-0.006145	0.005581
	O327	O	-0.049177	-0.062562	1.110028
	H328	H	-0.040439	-0.059288	1.113695
	H329	H	-0.048618	-0.057733	1.117013
	O330	O	0.527902	0.465489	0.425517
	H331	H	0.532500	0.471323	0.424791
	H332	H	0.532500	0.460007	0.423351
	O333	O	0.536325	0.518019	0.452422
	H334	H	0.529577	0.514157	0.447038
	H335	H	0.526928	0.521277	0.455305
	O336	O	0.515765	0.538673	0.502525
	H337	H	0.514179	0.553781	0.499428
	H338	H	0.516716	0.534493	0.511419
	O339	O	1.054954	0.977968	-0.065557
	H340	H	1.053702	0.974524	-0.067049
	H341	H	1.060782	0.979428	-0.064954
	O342	O	0.521007	0.541061	0.502944
	H343	H	0.526415	0.544812	0.502571
	H344	H	0.509749	0.545607	0.492212
	O345	O	0.506893	0.471314	0.543251
	H346	H	0.511591	0.465391	0.539356
	H347	H	0.513811	0.472047	0.551008
	O348	O	-0.040903	-0.047406	-0.152033
	H349	H	-0.036692	-0.053536	-0.137781
	H350	H	-0.031343	-0.059104	-0.161460
	O351	O	0.003301	1.050501	1.019707
	H352	H	0.007135	1.046280	1.025755
	H353	H	-0.008144	1.054338	1.012377
	O354	O	0.529912	0.516383	0.443849
	H355	H	0.530709	0.518827	0.455072
	H356	H	0.522332	0.520172	0.441903
	O357	O	0.088226	1.002579	1.004789
	H358	H	0.100178	0.987856	1.011499
	H359	H	0.091251	1.011041	1.007111
