data_Molecule from HDF5

_cell_length_a		16.323812
_cell_length_b		16.271746
_cell_length_c		16.290830
_cell_angle_alpha	89.989919
_cell_angle_beta	90.121269
_cell_angle_gamma	90.108444
_symmetry_space_group_name_H-M	'P 1'
_symmetry_Int_Tables_number		1

loop_
	_symmetry_equiv_pos_as_xyz
	x,y,z

loop_
	_atom_site_label
	_atom_site_type_symbol
	_atom_site_fract_x
	_atom_site_fract_y
	_atom_site_fract_z
	H0	H	0.406687	0.842161	0.712165
	H1	H	0.603278	0.170028	0.713019
	H2	H	0.599770	0.842337	0.285499
	H3	H	0.406342	0.169624	0.285522
	H4	H	0.716331	0.407191	0.834334
	H5	H	0.718386	0.604964	0.161833
	H6	H	0.287661	0.604862	0.835443
	H7	H	0.288740	0.407640	0.161823
	H8	H	0.839935	0.719385	0.399860
	H9	H	0.166687	0.720755	0.596623
	H10	H	0.840828	0.289903	0.595198
	H11	H	0.167137	0.290991	0.399736
	H12	H	0.840136	0.405149	0.711704
	H13	H	0.166171	0.604487	0.713495
	H14	H	0.839602	0.602802	0.283325
	H15	H	0.167064	0.407307	0.283293
	H16	H	0.404248	0.719369	0.835257
	H17	H	0.602188	0.720824	0.162202
	H18	H	0.600647	0.291596	0.835437
	H19	H	0.406780	0.293141	0.163558
	H20	H	0.717145	0.842117	0.400262
	H21	H	0.719581	0.169046	0.598458
	H22	H	0.289974	0.841604	0.597187
	H23	H	0.289373	0.169110	0.399967
	H24	H	0.904807	0.341223	0.211512
	H25	H	0.100230	0.668982	0.211184
	H26	H	0.100188	0.341031	0.784683
	H27	H	0.904594	0.669091	0.782577
	H28	H	0.217880	0.907489	0.335263
	H29	H	0.219472	0.104594	0.662188
	H30	H	0.788986	0.103239	0.335185
	H31	H	0.789220	0.906940	0.661973
	H32	H	0.339575	0.218773	0.901312
	H33	H	0.666904	0.219655	0.096752
	H34	H	0.339370	0.791327	0.095514
	H35	H	0.666478	0.790203	0.900528
	H36	H	0.339940	0.906802	0.213378
	H37	H	0.666546	0.103631	0.212666
	H38	H	0.341373	0.104408	0.782980
	H39	H	0.667165	0.907547	0.784447
	H40	H	0.906779	0.217789	0.334251
	H41	H	0.102496	0.220134	0.662190
	H42	H	0.101066	0.792221	0.334585
	H43	H	0.906789	0.791464	0.662654
	H44	H	0.218809	0.342758	0.898515
	H45	H	0.216098	0.669505	0.095422
	H46	H	0.789114	0.341494	0.094725
	H47	H	0.788415	0.669350	0.899376
	H48	H	0.414122	0.123796	0.599078
	H49	H	0.601377	0.890256	0.585489
	H50	H	0.597861	0.124521	0.399436
	H51	H	0.415750	0.890448	0.405096
	H52	H	0.601240	0.415668	0.115725
	H53	H	0.595276	0.603049	0.881344
	H54	H	0.409857	0.603158	0.116854
	H55	H	0.413996	0.417755	0.884801
	H56	H	0.121611	0.603954	0.403088
	H57	H	0.888176	0.596957	0.588617
	H58	H	0.121566	0.411158	0.595432
	H59	H	0.888836	0.415573	0.403352
	H60	H	0.119347	0.409688	0.586819
	H61	H	0.886806	0.597037	0.590985
	H62	H	0.117386	0.597894	0.409686
	H63	H	0.884880	0.408928	0.399794
	H64	H	0.405273	0.596712	0.116447
	H65	H	0.599873	0.596323	0.881971
	H66	H	0.592748	0.414203	0.113273
	H67	H	0.412904	0.405385	0.881432
	H68	H	0.592780	0.121121	0.408250
	H69	H	0.599271	0.886831	0.598939
	H70	H	0.416743	0.118700	0.584830
	H71	H	0.407878	0.889565	0.410835
	H72	H	0.917924	0.618387	0.085789
	H73	H	0.096444	0.388124	0.090725
	H74	H	0.094022	0.620696	0.906611
	H75	H	0.910116	0.387527	0.897550
	H76	H	0.095014	0.907056	0.615609
	H77	H	0.091169	0.096858	0.384943
	H78	H	0.914125	0.091076	0.611716
	H79	H	0.905904	0.911290	0.380898
	H80	H	0.618323	0.095428	0.907059
	H81	H	0.387711	0.103118	0.084769
	H82	H	0.616638	0.913019	0.084580
	H83	H	0.386769	0.909859	0.904319
	H84	H	0.617771	0.919439	0.094747
	H85	H	0.388235	0.091607	0.093858
	H86	H	0.621642	0.100814	0.900075
	H87	H	0.389045	0.913478	0.906977
	H88	H	0.916344	0.104224	0.615369
	H89	H	0.099145	0.105537	0.379514
	H90	H	0.104195	0.913246	0.616833
	H91	H	0.910372	0.916777	0.383936
	H92	H	0.097357	0.622106	0.906039
	H93	H	0.095552	0.388427	0.092239
	H94	H	0.900524	0.623182	0.087002
	H95	H	0.913705	0.391788	0.908322
	H96	H	0.403263	0.124388	0.588918
	H97	H	0.588856	0.891848	0.590772
	H98	H	0.603197	0.123727	0.408859
	H99	H	0.407294	0.887401	0.401691
	H100	H	0.597585	0.408008	0.116067
	H101	H	0.591608	0.596075	0.884713
	H102	H	0.412944	0.596186	0.113937
	H103	H	0.402452	0.413757	0.880508
	H104	H	0.118902	0.594351	0.400806
	H105	H	0.887995	0.599273	0.589280
	H106	H	0.118307	0.417592	0.590740
	H107	H	0.887720	0.408958	0.407567
	H108	H	0.911124	0.625051	0.101213
	H109	H	0.094616	0.389345	0.090166
	H110	H	0.094625	0.622190	0.903223
	H111	H	0.903105	0.387782	0.906702
	H112	H	0.094781	0.917935	0.612828
	H113	H	0.103270	0.093630	0.381633
	H114	H	0.903921	0.098771	0.616976
	H115	H	0.912537	0.909786	0.382779
	H116	H	0.621066	0.104809	0.909369
	H117	H	0.384002	0.104755	0.098355
	H118	H	0.621518	0.907692	0.094507
	H119	H	0.387346	0.914722	0.902441
	C120	C	0.383194	0.014011	0.619452
	C121	C	0.625448	0.997927	0.620587
	C122	C	0.625163	0.014540	0.377309
	C123	C	0.382301	0.997181	0.377421
	C124	C	0.625052	0.384304	0.007112
	C125	C	0.624443	0.627258	0.990494
	C126	C	0.381224	0.626669	0.007222
	C127	C	0.381340	0.383852	0.990457
	C128	C	0.011473	0.626879	0.376183
	C129	C	0.995175	0.626640	0.618844
	C130	C	0.012002	0.383717	0.619237
	C131	C	0.995475	0.383730	0.375954
	C132	C	0.881748	0.513715	0.119181
	C133	C	0.124089	0.496674	0.119488
	C134	C	0.124008	0.513789	0.876651
	C135	C	0.880587	0.497383	0.875483
	C136	C	0.125585	0.884116	0.507087
	C137	C	0.126174	0.127551	0.490204
	C138	C	0.882749	0.126586	0.506747
	C139	C	0.881511	0.883682	0.490358
	C140	C	0.512176	0.127908	0.877331
	C141	C	0.494666	0.127873	0.120780
	C142	C	0.511321	0.884390	0.119986
	C143	C	0.495578	0.884292	0.876780
	C144	C	0.386013	0.890937	0.674548
	C145	C	0.623623	0.120877	0.675647
	C146	C	0.621353	0.891296	0.322549
	C147	C	0.385483	0.120733	0.323014
	C148	C	0.678903	0.387231	0.883495
	C149	C	0.680135	0.625131	0.113185
	C150	C	0.325685	0.624839	0.884083
	C151	C	0.326388	0.386549	0.113207
	C152	C	0.888568	0.681705	0.378728
	C153	C	0.118042	0.682377	0.617046
	C154	C	0.889303	0.327907	0.616208
	C155	C	0.118510	0.328792	0.378924
	C156	C	0.889213	0.385077	0.674152
	C157	C	0.117660	0.624920	0.675150
	C158	C	0.888417	0.623541	0.321290
	C159	C	0.118565	0.386860	0.321320
	C160	C	0.383794	0.681713	0.884017
	C161	C	0.622531	0.682746	0.113438
	C162	C	0.621473	0.329498	0.883909
	C163	C	0.385328	0.330009	0.114074
	C164	C	0.679382	0.891141	0.380122
	C165	C	0.681163	0.120465	0.618253
	C166	C	0.328261	0.890652	0.617091
	C167	C	0.327294	0.120302	0.379654
	C168	C	0.884145	0.390242	0.173695
	C169	C	0.121266	0.620313	0.173651
	C170	C	0.121436	0.390415	0.821806
	C171	C	0.883754	0.620378	0.820554
	C172	C	0.180006	0.886904	0.383871
	C173	C	0.181529	0.125080	0.613390
	C174	C	0.827029	0.123971	0.383806
	C175	C	0.827207	0.886398	0.613468
	C176	C	0.388716	0.181560	0.880336
	C177	C	0.617990	0.182239	0.117463
	C178	C	0.388151	0.829331	0.116663
	C179	C	0.618009	0.828671	0.880020
	C180	C	0.388370	0.886700	0.174964
	C181	C	0.617921	0.124704	0.175202
	C182	C	0.389602	0.124832	0.821569
	C183	C	0.618519	0.886897	0.822459
	C184	C	0.885700	0.180568	0.383280
	C185	C	0.123061	0.182113	0.613449
	C186	C	0.122373	0.829410	0.383758
	C187	C	0.885741	0.829209	0.613644
	C188	C	0.179964	0.391107	0.878635
	C189	C	0.179000	0.620329	0.116535
	C190	C	0.826880	0.390349	0.115763
	C191	C	0.825832	0.620235	0.878376
	C192	C	0.405099	0.100157	0.597456
	C193	C	0.602830	0.911596	0.598238
	C194	C	0.604038	0.100804	0.399105
	C195	C	0.403965	0.911288	0.399275
	C196	C	0.603661	0.406162	0.092868
	C197	C	0.601924	0.605131	0.904854
	C198	C	0.402981	0.605026	0.093420
	C199	C	0.403218	0.405872	0.904461
	C200	C	0.097148	0.605212	0.398029
	C201	C	0.909623	0.604248	0.596292
	C202	C	0.097817	0.406092	0.597363
	C203	C	0.909407	0.404874	0.397451
	C204	C	0.903440	0.599931	0.097623
	C205	C	0.102142	0.410803	0.097578
	C206	C	0.101658	0.599541	0.898633
	C207	C	0.902481	0.411115	0.897574
	C208	C	0.104279	0.906246	0.592932
	C209	C	0.104337	0.105270	0.404125
	C210	C	0.905064	0.104689	0.592639
	C211	C	0.903236	0.906097	0.404604
	C212	C	0.598199	0.106756	0.899153
	C213	C	0.408737	0.106117	0.098959
	C214	C	0.596709	0.906829	0.097758
	C215	C	0.409763	0.906391	0.898233
	Zn216	Zn	0.504414	0.006356	0.748481
	Zn217	Zn	0.503207	0.006288	0.248638
	Zn218	Zn	0.753055	0.505766	-0.001701
	Zn219	Zn	0.252537	0.505536	-0.001586
	Zn220	Zn	0.003951	0.755471	0.497982
	Zn221	Zn	0.004075	0.255183	0.498083
	Zn222	Zn	0.002819	0.505221	0.747635
	Zn223	Zn	0.003004	0.505042	0.247428
	Zn224	Zn	0.502524	0.755272	-0.001085
	Zn225	Zn	0.503227	0.256117	-0.000891
	Zn226	Zn	0.753521	0.005965	0.499087
	Zn227	Zn	0.254128	0.005465	0.498897
	N228	N	0.419774	0.968622	0.676006
	N229	N	0.589563	0.043501	0.677015
	N230	N	0.588338	0.968953	0.320796
	N231	N	0.418869	0.043170	0.321285
	N232	N	0.681046	0.420643	0.960974
	N233	N	0.681498	0.591346	0.035891
	N234	N	0.323934	0.591189	0.961604
	N235	N	0.323868	0.419344	0.035391
	N236	N	0.965949	0.683927	0.412265
	N237	N	0.040984	0.683300	0.582781
	N238	N	0.966742	0.326921	0.582914
	N239	N	0.041078	0.326749	0.412255
	N240	N	0.966359	0.419345	0.675905
	N241	N	0.040417	0.590927	0.676551
	N242	N	0.965804	0.590211	0.319528
	N243	N	0.041074	0.420069	0.319371
	N244	N	0.417771	0.682840	0.961398
	N245	N	0.588532	0.684220	0.036102
	N246	N	0.588435	0.327585	0.961606
	N247	N	0.418571	0.328138	0.036578
	N248	N	0.681620	0.968753	0.413551
	N249	N	0.682355	0.042864	0.584884
	N250	N	0.326371	0.968171	0.583672
	N251	N	0.325245	0.042686	0.412851
	N252	N	0.917531	0.467994	0.175824
	N253	N	0.087928	0.542745	0.175633
	N254	N	0.087178	0.467614	0.820628
	N255	N	0.916861	0.542598	0.818433
	N256	N	0.182033	0.920436	0.461390
	N257	N	0.183494	0.091825	0.535684
	N258	N	0.825310	0.090946	0.461613
	N259	N	0.824313	0.919333	0.535829
	N260	N	0.465850	0.183438	0.914360
	N261	N	0.540451	0.184173	0.084264
	N262	N	0.465403	0.827914	0.083161
	N263	N	0.540384	0.826582	0.912745
	N264	N	0.465856	0.920130	0.177250
	N265	N	0.540332	0.091635	0.177155
	N266	N	0.467250	0.092036	0.819732
	N267	N	0.541378	0.920688	0.820447
	N268	N	0.919508	0.182248	0.460690
	N269	N	0.089352	0.183555	0.536074
	N270	N	0.089180	0.827561	0.461276
	N271	N	0.918806	0.827400	0.536037
	N272	N	0.181580	0.468745	0.912075
	N273	N	0.180758	0.542416	0.083332
	N274	N	0.825207	0.468201	0.082695
	N275	N	0.824031	0.542764	0.911777
	O276	O	0.468294	-0.454081	0.591409
	H277	H	0.468970	-0.453951	0.594312
	H278	H	0.458492	-0.448073	0.581959
	O279	O	0.491708	0.516137	0.592320
	H280	H	0.505244	0.505407	0.599348
	H281	H	0.492423	0.518022	0.597783
	O282	O	0.500546	0.533595	0.586088
	H283	H	0.500089	0.540083	0.585726
	H284	H	0.493633	0.534243	0.585418
	O285	O	0.532047	0.504393	0.626782
	H286	H	0.532436	0.502289	0.632190
	H287	H	0.531169	0.505703	0.630967
