data_Molecule from HDF5

_cell_length_a		16.283339
_cell_length_b		16.202990
_cell_length_c		16.382492
_cell_angle_alpha	89.826793
_cell_angle_beta	90.041435
_cell_angle_gamma	90.156485
_symmetry_space_group_name_H-M	'P 1'
_symmetry_Int_Tables_number		1

loop_
	_symmetry_equiv_pos_as_xyz
	x,y,z

loop_
	_atom_site_label
	_atom_site_type_symbol
	_atom_site_fract_x
	_atom_site_fract_y
	_atom_site_fract_z
	H0	H	0.401404	0.845095	0.711388
	H1	H	0.601980	0.173065	0.710000
	H2	H	0.598783	0.845061	0.282337
	H3	H	0.401854	0.172725	0.279845
	H4	H	0.715363	0.413314	0.832396
	H5	H	0.716002	0.605635	0.159189
	H6	H	0.285270	0.610197	0.833512
	H7	H	0.285730	0.409320	0.158552
	H8	H	0.836720	0.720856	0.399045
	H9	H	0.165602	0.722163	0.591405
	H10	H	0.837408	0.294758	0.592268
	H11	H	0.165782	0.294900	0.398224
	H12	H	0.838418	0.406948	0.711149
	H13	H	0.163818	0.609873	0.711263
	H14	H	0.838190	0.607843	0.280149
	H15	H	0.165033	0.409380	0.279990
	H16	H	0.404779	0.723146	0.832724
	H17	H	0.599343	0.722206	0.159717
	H18	H	0.599223	0.296645	0.831720
	H19	H	0.404648	0.294926	0.159071
	H20	H	0.712373	0.844189	0.400430
	H21	H	0.715581	0.173423	0.592889
	H22	H	0.287401	0.844078	0.594067
	H23	H	0.287300	0.172563	0.396568
	H24	H	0.902360	0.345184	0.210710
	H25	H	0.101367	0.673311	0.210487
	H26	H	0.099734	0.344450	0.780746
	H27	H	0.901895	0.672639	0.779228
	H28	H	0.216364	0.910288	0.332574
	H29	H	0.217213	0.106634	0.658032
	H30	H	0.786682	0.108096	0.332863
	H31	H	0.786017	0.909060	0.658054
	H32	H	0.336871	0.222625	0.898387
	H33	H	0.666433	0.222191	0.091413
	H34	H	0.336837	0.795127	0.092329
	H35	H	0.666251	0.798726	0.901576
	H36	H	0.336933	0.909951	0.209939
	H37	H	0.665029	0.108217	0.210462
	H38	H	0.337991	0.108784	0.779640
	H39	H	0.664020	0.909078	0.780217
	H40	H	0.904414	0.222842	0.332649
	H41	H	0.099273	0.221868	0.658895
	H42	H	0.097454	0.796473	0.331583
	H43	H	0.904533	0.794273	0.658322
	H44	H	0.213774	0.344271	0.899168
	H45	H	0.215081	0.674294	0.092203
	H46	H	0.788507	0.344162	0.092704
	H47	H	0.789602	0.674241	0.898488
	H48	H	0.416721	0.125094	0.591905
	H49	H	0.597495	0.888941	0.593571
	H50	H	0.590752	0.125247	0.403821
	H51	H	0.399409	0.888968	0.402877
	H52	H	0.583846	0.418366	0.107475
	H53	H	0.599966	0.603111	0.879578
	H54	H	0.410259	0.609270	0.112675
	H55	H	0.409619	0.410799	0.878958
	H56	H	0.120984	0.609196	0.397423
	H57	H	0.884172	0.597915	0.592818
	H58	H	0.119590	0.412285	0.587732
	H59	H	0.884596	0.416665	0.396966
	H60	H	0.115827	0.420580	0.585684
	H61	H	0.882788	0.605305	0.588229
	H62	H	0.115839	0.603166	0.409252
	H63	H	0.884587	0.411232	0.403827
	H64	H	0.399933	0.600046	0.113145
	H65	H	0.593102	0.601367	0.881361
	H66	H	0.597858	0.403177	0.115537
	H67	H	0.401366	0.419605	0.879341
	H68	H	0.598275	0.127369	0.403091
	H69	H	0.588231	0.892865	0.591231
	H70	H	0.409967	0.122627	0.580066
	H71	H	0.411986	0.890648	0.394134
	H72	H	0.905471	0.627568	0.088602
	H73	H	0.101157	0.391341	0.085170
	H74	H	0.099024	0.627975	0.902189
	H75	H	0.903734	0.388536	0.896523
	H76	H	0.097439	0.912564	0.613180
	H77	H	0.103969	0.102313	0.376858
	H78	H	0.894713	0.100502	0.615634
	H79	H	0.904685	0.921527	0.380668
	H80	H	0.621774	0.112682	0.897998
	H81	H	0.387743	0.099916	0.081917
	H82	H	0.616086	0.919369	0.087981
	H83	H	0.384032	0.916176	0.900994
	H84	H	0.618289	0.916920	0.095119
	H85	H	0.385580	0.096460	0.094160
	H86	H	0.614160	0.101750	0.910862
	H87	H	0.384325	0.915668	0.902974
	H88	H	0.914727	0.090534	0.605395
	H89	H	0.091995	0.095991	0.382811
	H90	H	0.095871	0.920218	0.609960
	H91	H	0.911742	0.913367	0.380035
	H92	H	0.089214	0.626361	0.896660
	H93	H	0.092337	0.390072	0.097479
	H94	H	0.908998	0.628059	0.092159
	H95	H	0.916078	0.394152	0.901567
	H96	H	0.402852	0.128333	0.590696
	H97	H	0.595570	0.893035	0.584024
	H98	H	0.593233	0.127604	0.397665
	H99	H	0.412720	0.894382	0.408967
	H100	H	0.605078	0.423990	0.111528
	H101	H	0.594332	0.607732	0.878909
	H102	H	0.412162	0.596055	0.108972
	H103	H	0.412316	0.422076	0.882981
	H104	H	0.117409	0.595025	0.397442
	H105	H	0.887089	0.597925	0.584499
	H106	H	0.118804	0.418477	0.593911
	H107	H	0.887746	0.419822	0.404740
	H108	H	0.910016	0.625358	0.087968
	H109	H	0.086078	0.395644	0.084890
	H110	H	0.090610	0.623124	0.907844
	H111	H	0.904031	0.392879	0.910039
	H112	H	0.090478	0.914326	0.609323
	H113	H	0.091323	0.110111	0.378099
	H114	H	0.915019	0.113505	0.612780
	H115	H	0.901515	0.911878	0.376691
	H116	H	0.617594	0.095556	0.894727
	H117	H	0.382561	0.107872	0.089821
	H118	H	0.618725	0.911719	0.088812
	H119	H	0.385238	0.917741	0.901826
	C120	C	0.380655	0.016926	0.616475
	C121	C	0.622547	1.000557	0.617385
	C122	C	0.622020	0.017693	0.374307
	C123	C	0.379778	1.000047	0.373740
	C124	C	0.623615	0.387701	0.003698
	C125	C	0.623945	0.631596	0.987963
	C126	C	0.379426	0.630961	0.004139
	C127	C	0.379821	0.388037	0.988017
	C128	C	0.009713	0.630376	0.373477
	C129	C	0.992860	0.629709	0.616702
	C130	C	0.009679	0.387972	0.616977
	C131	C	0.993739	0.387329	0.373855
	C132	C	0.880266	0.517656	0.117339
	C133	C	0.122312	0.501079	0.117042
	C134	C	0.122003	0.517213	0.873929
	C135	C	0.879884	0.500473	0.874018
	C136	C	0.122848	0.887494	0.503419
	C137	C	0.124099	0.131070	0.486767
	C138	C	0.879658	0.130408	0.503980
	C139	C	0.878498	0.886721	0.487082
	C140	C	0.509579	0.131767	0.872713
	C141	C	0.493701	0.130252	0.116671
	C142	C	0.509048	0.887369	0.118102
	C143	C	0.492928	0.888454	0.874730
	C144	C	0.381664	0.893820	0.672516
	C145	C	0.621225	0.124091	0.672063
	C146	C	0.619295	0.893959	0.320219
	C147	C	0.382180	0.123759	0.318300
	C148	C	0.678312	0.391570	0.881057
	C149	C	0.678445	0.627306	0.110716
	C150	C	0.324145	0.629516	0.881818
	C151	C	0.324398	0.389850	0.110315
	C152	C	0.885986	0.684188	0.377257
	C153	C	0.116280	0.685025	0.613168
	C154	C	0.886598	0.332080	0.613560
	C155	C	0.116974	0.332788	0.377582
	C156	C	0.886994	0.387842	0.672793
	C157	C	0.115395	0.629179	0.672513
	C158	C	0.886721	0.628023	0.318357
	C159	C	0.116480	0.389470	0.318731
	C160	C	0.383455	0.685713	0.881313
	C161	C	0.620285	0.684858	0.110890
	C162	C	0.620117	0.334093	0.880568
	C163	C	0.382967	0.332440	0.110574
	C164	C	0.675611	0.893505	0.378775
	C165	C	0.677570	0.124343	0.613667
	C166	C	0.325228	0.893285	0.614058
	C167	C	0.325640	0.124026	0.376553
	C168	C	0.882313	0.393926	0.172386
	C169	C	0.121060	0.624648	0.171984
	C170	C	0.119923	0.393720	0.818707
	C171	C	0.881950	0.623934	0.817927
	C172	C	0.177812	0.890229	0.380752
	C173	C	0.179150	0.127809	0.609633
	C174	C	0.824803	0.128288	0.381355
	C175	C	0.824219	0.888989	0.609592
	C176	C	0.386012	0.185635	0.876879
	C177	C	0.617194	0.184842	0.112900
	C178	C	0.385531	0.833088	0.113724
	C179	C	0.616772	0.834697	0.879205
	C180	C	0.385841	0.889705	0.172373
	C181	C	0.616547	0.128208	0.171903
	C182	C	0.386758	0.129324	0.817703
	C183	C	0.615899	0.890285	0.819594
	C184	C	0.883519	0.185063	0.381281
	C185	C	0.120682	0.185156	0.609926
	C186	C	0.119089	0.833521	0.380480
	C187	C	0.882976	0.831781	0.609582
	C188	C	0.176532	0.393407	0.877598
	C189	C	0.177179	0.625130	0.113107
	C190	C	0.825971	0.393453	0.113587
	C191	C	0.826242	0.624842	0.877066
	C192	C	0.403163	0.103043	0.594090
	C193	C	0.600211	0.913878	0.595899
	C194	C	0.600550	0.104364	0.395567
	C195	C	0.401471	0.913565	0.395512
	C196	C	0.601968	0.408911	0.089362
	C197	C	0.602344	0.610284	0.902112
	C198	C	0.401077	0.608416	0.089567
	C199	C	0.401468	0.410694	0.902462
	C200	C	0.095824	0.608749	0.394942
	C201	C	0.906943	0.607081	0.595029
	C202	C	0.095731	0.410552	0.595444
	C203	C	0.907710	0.409537	0.395472
	C204	C	0.901820	0.604581	0.095951
	C205	C	0.099879	0.414695	0.095459
	C206	C	0.099615	0.603435	0.895795
	C207	C	0.901601	0.414188	0.896053
	C208	C	0.101121	0.909223	0.588921
	C209	C	0.102305	0.109451	0.401455
	C210	C	0.901401	0.107917	0.589184
	C211	C	0.899700	0.909153	0.401179
	C212	C	0.595749	0.109804	0.894702
	C213	C	0.407537	0.107889	0.095091
	C214	C	0.595433	0.909588	0.096784
	C215	C	0.406725	0.910209	0.895894
	Zn216	Zn	0.501259	0.009046	0.745072
	Zn217	Zn	0.500994	0.009354	0.245974
	Zn218	Zn	0.752455	0.509689	-0.004270
	Zn219	Zn	0.250137	0.509133	-0.004255
	Zn220	Zn	0.001085	0.758108	0.494722
	Zn221	Zn	0.001555	0.259211	0.495846
	Zn222	Zn	0.000649	0.508412	0.745523
	Zn223	Zn	0.001440	0.509080	0.245256
	Zn224	Zn	0.501379	0.759868	-0.003774
	Zn225	Zn	0.501419	0.259461	-0.004799
	Zn226	Zn	0.750052	0.008927	0.495859
	Zn227	Zn	0.252379	0.008632	0.495287
	N228	N	0.415463	0.971661	0.674056
	N229	N	0.587731	0.045940	0.674387
	N230	N	0.586776	0.972148	0.317272
	N231	N	0.415211	0.045555	0.316462
	N232	N	0.680362	0.424474	0.958510
	N233	N	0.680619	0.594823	0.033256
	N234	N	0.321535	0.596132	0.959082
	N235	N	0.322540	0.423801	0.033155
	N236	N	0.963337	0.685679	0.410840
	N237	N	0.039011	0.685348	0.578979
	N238	N	0.963847	0.332027	0.579530
	N239	N	0.039695	0.331480	0.411198
	N240	N	0.964458	0.422006	0.674840
	N241	N	0.037696	0.595428	0.674602
	N242	N	0.964586	0.595253	0.316035
	N243	N	0.038726	0.422635	0.316316
	N244	N	0.417409	0.686542	0.958412
	N245	N	0.587178	0.687696	0.033615
	N246	N	0.586938	0.331620	0.957676
	N247	N	0.416678	0.331324	0.033464
	N248	N	0.677400	0.971573	0.411710
	N249	N	0.678689	0.046553	0.580513
	N250	N	0.324513	0.970905	0.579765
	N251	N	0.324000	0.046251	0.410223
	N252	N	0.915302	0.472082	0.174466
	N253	N	0.087570	0.546583	0.174397
	N254	N	0.086823	0.471807	0.816295
	N255	N	0.914529	0.545728	0.816062
	N256	N	0.180389	0.922984	0.458186
	N257	N	0.181553	0.095131	0.532204
	N258	N	0.822328	0.094747	0.458621
	N259	N	0.821436	0.922431	0.532380
	N260	N	0.463551	0.187466	0.910271
	N261	N	0.539838	0.186065	0.079111
	N262	N	0.463204	0.831487	0.080886
	N263	N	0.539338	0.833380	0.912718
	N264	N	0.463857	0.922677	0.175142
	N265	N	0.538705	0.094975	0.174220
	N266	N	0.464764	0.096754	0.815070
	N267	N	0.537879	0.922824	0.816501
	N268	N	0.916850	0.186528	0.458382
	N269	N	0.087190	0.187090	0.532891
	N270	N	0.085421	0.831747	0.457451
	N271	N	0.915915	0.830304	0.532226
	N272	N	0.178011	0.471223	0.911011
	N273	N	0.178058	0.547240	0.079685
	N274	N	0.824524	0.471532	0.080124
	N275	N	0.824705	0.547247	0.911321
	O276	O	-0.490420	-0.535750	1.528831
	H277	H	-0.488994	-0.537343	1.532239
	H278	H	-0.487734	-0.534628	1.536215
	O279	O	0.439200	0.414302	0.608423
	H280	H	0.430679	0.408357	0.599097
	H281	H	0.432523	0.414100	0.620476
	O282	O	0.423091	0.416548	0.538461
	H283	H	0.419532	0.412262	0.531286
	H284	H	0.434693	0.416322	0.531823
	O285	O	0.506873	0.441471	0.504767
	H286	H	0.505890	0.439971	0.509435
	H287	H	0.505416	0.434703	0.506083
	O288	O	0.501618	0.535724	0.550151
	H289	H	0.498344	0.537244	0.550946
	H290	H	0.508352	0.538221	0.542299
	O291	O	0.107603	1.230622	1.164608
	H292	H	0.096263	1.233760	1.161771
	H293	H	0.113674	1.229099	1.169708
	O294	O	0.503289	0.483924	0.496803
	H295	H	0.509010	0.488045	0.498531
	H296	H	0.510488	0.482206	0.497146
	O297	O	1.473198	-0.551992	-0.417568
	H298	H	1.456957	-0.549360	-0.418039
	H299	H	1.469294	-0.557043	-0.414685
