data_Molecule from HDF5

_cell_length_a		16.494024
_cell_length_b		16.371969
_cell_length_c		16.455155
_cell_angle_alpha	90.198447
_cell_angle_beta	90.179630
_cell_angle_gamma	90.017908
_symmetry_space_group_name_H-M	'P 1'
_symmetry_Int_Tables_number		1

loop_
	_symmetry_equiv_pos_as_xyz
	x,y,z

loop_
	_atom_site_label
	_atom_site_type_symbol
	_atom_site_fract_x
	_atom_site_fract_y
	_atom_site_fract_z
	H0	H	0.395179	0.857831	0.729760
	H1	H	0.615013	0.171057	0.731128
	H2	H	0.610852	0.857284	0.281437
	H3	H	0.393822	0.171367	0.281565
	H4	H	0.728291	0.406778	0.848238
	H5	H	0.729089	0.625421	0.161079
	H6	H	0.278009	0.624134	0.848472
	H7	H	0.280576	0.405673	0.161210
	H8	H	0.845153	0.735801	0.400250
	H9	H	0.158745	0.741978	0.615758
	H10	H	0.846628	0.290047	0.614455
	H11	H	0.160696	0.292031	0.399333
	H12	H	0.847001	0.406763	0.730280
	H13	H	0.159656	0.626074	0.730958
	H14	H	0.846673	0.621295	0.282248
	H15	H	0.160820	0.407253	0.283850
	H16	H	0.396375	0.737031	0.846937
	H17	H	0.610643	0.736826	0.162367
	H18	H	0.612889	0.290338	0.848985
	H19	H	0.399278	0.293605	0.162718
	H20	H	0.726150	0.857199	0.395979
	H21	H	0.726318	0.172028	0.612804
	H22	H	0.280302	0.857179	0.613001
	H23	H	0.277164	0.169950	0.395332
	H24	H	0.897116	0.356946	0.226998
	H25	H	0.111559	0.672641	0.228809
	H26	H	0.113430	0.359361	0.778536
	H27	H	0.895783	0.672077	0.781649
	H28	H	0.229989	0.900538	0.350854
	H29	H	0.229413	0.124751	0.660135
	H30	H	0.779364	0.120736	0.347734
	H31	H	0.776977	0.905161	0.661376
	H32	H	0.348362	0.240371	0.896533
	H33	H	0.661929	0.238061	0.113730
	H34	H	0.347053	0.791760	0.109380
	H35	H	0.660771	0.789048	0.896041
	H36	H	0.346926	0.907342	0.226667
	H37	H	0.660090	0.122397	0.230025
	H38	H	0.349531	0.124765	0.779088
	H39	H	0.660133	0.904075	0.779744
	H40	H	0.894798	0.236420	0.347636
	H41	H	0.109428	0.237048	0.662135
	H42	H	0.107676	0.791395	0.349132
	H43	H	0.893710	0.791490	0.662648
	H44	H	0.226680	0.357305	0.895564
	H45	H	0.228041	0.671814	0.113709
	H46	H	0.779201	0.359290	0.114246
	H47	H	0.781204	0.673119	0.896477
	H48	H	0.416279	0.126697	0.590381
	H49	H	0.588390	0.901954	0.590640
	H50	H	0.592584	0.127874	0.419008
	H51	H	0.421814	0.904589	0.417143
	H52	H	0.596978	0.432557	0.117320
	H53	H	0.595756	0.600796	0.891177
	H54	H	0.418973	0.608656	0.117773
	H55	H	0.412525	0.422064	0.889757
	H56	H	0.118659	0.603253	0.409914
	H57	H	0.891667	0.605557	0.589307
	H58	H	0.117723	0.422793	0.595875
	H59	H	0.891593	0.427148	0.418269
	H60	H	0.112550	0.426503	0.585683
	H61	H	0.893791	0.597849	0.592908
	H62	H	0.117041	0.610449	0.422319
	H63	H	0.891197	0.427743	0.413228
	H64	H	0.410036	0.601191	0.118346
	H65	H	0.591712	0.598944	0.893043
	H66	H	0.588110	0.430446	0.115343
	H67	H	0.412940	0.435937	0.893074
	H68	H	0.589209	0.128353	0.416233
	H69	H	0.592124	0.901409	0.590458
	H70	H	0.417344	0.126831	0.592255
	H71	H	0.412457	0.901266	0.421797
	H72	H	0.925896	0.624714	0.092719
	H73	H	0.096734	0.399780	0.093777
	H74	H	0.089236	0.623728	0.928195
	H75	H	0.920599	0.403707	0.919345
	H76	H	0.096812	0.930568	0.619016
	H77	H	0.081528	0.104425	0.394129
	H78	H	0.915180	0.102857	0.617608
	H79	H	0.915268	0.927600	0.394031
	H80	H	0.615639	0.101628	0.921673
	H81	H	0.392326	0.104669	0.090294
	H82	H	0.617429	0.923880	0.093905
	H83	H	0.390318	0.927230	0.909842
	H84	H	0.615669	0.928185	0.091970
	H85	H	0.392294	0.101241	0.093410
	H86	H	0.615382	0.099020	0.917187
	H87	H	0.392462	0.921540	0.921809
	H88	H	0.914077	0.102226	0.618235
	H89	H	0.098419	0.106313	0.387766
	H90	H	0.088299	0.934158	0.614717
	H91	H	0.914369	0.925251	0.392634
	H92	H	0.099309	0.631218	0.917430
	H93	H	0.090352	0.400375	0.097309
	H94	H	0.912525	0.628362	0.086722
	H95	H	0.916250	0.403253	0.921549
	H96	H	0.418348	0.126064	0.590757
	H97	H	0.590341	0.901913	0.594124
	H98	H	0.589093	0.125645	0.420217
	H99	H	0.414320	0.899052	0.411522
	H100	H	0.593658	0.423983	0.119685
	H101	H	0.591729	0.604359	0.891766
	H102	H	0.420676	0.597606	0.113996
	H103	H	0.423877	0.427818	0.895201
	H104	H	0.112510	0.597323	0.421359
	H105	H	0.889564	0.603513	0.597693
	H106	H	0.112424	0.433776	0.595087
	H107	H	0.889806	0.423356	0.415533
	H108	H	0.915728	0.631701	0.101403
	H109	H	0.091017	0.403179	0.090586
	H110	H	0.083656	0.627731	0.912982
	H111	H	0.916688	0.401898	0.916507
	H112	H	0.088794	0.925059	0.618988
	H113	H	0.092706	0.090499	0.395253
	H114	H	0.914599	0.101230	0.617001
	H115	H	0.912954	0.927429	0.392956
	H116	H	0.617490	0.103235	0.917468
	H117	H	0.391061	0.105303	0.094280
	H118	H	0.617327	0.927766	0.096487
	H119	H	0.396343	0.933695	0.920250
	C120	C	0.383257	0.022935	0.625813
	C121	C	0.624818	1.005586	0.626124
	C122	C	0.623720	0.022943	0.384379
	C123	C	0.381440	1.005170	0.383082
	C124	C	0.626706	0.394250	0.014347
	C125	C	0.626663	0.636254	0.995718
	C126	C	0.382495	0.636026	0.013031
	C127	C	0.383290	0.394218	0.996273
	C128	C	0.012011	0.636128	0.384735
	C129	C	0.994373	0.637738	0.627853
	C130	C	0.011231	0.393460	0.626564
	C131	C	0.994515	0.392335	0.383005
	C132	C	0.884020	0.523993	0.126603
	C133	C	0.126202	0.505566	0.127393
	C134	C	0.125083	0.523744	0.884230
	C135	C	0.883719	0.506792	0.884936
	C136	C	0.124518	0.894035	0.514414
	C137	C	0.124671	0.134996	0.495981
	C138	C	0.880864	0.135606	0.513751
	C139	C	0.880620	0.893175	0.496918
	C140	C	0.513169	0.136010	0.883949
	C141	C	0.495379	0.136973	0.126955
	C142	C	0.512760	0.893089	0.126496
	C143	C	0.496187	0.892775	0.883357
	C144	C	0.378320	0.905069	0.688469
	C145	C	0.630785	0.123835	0.689340
	C146	C	0.627655	0.904607	0.322289
	C147	C	0.376417	0.123565	0.321307
	C148	C	0.687920	0.389456	0.895649
	C149	C	0.688506	0.641744	0.113940
	C150	C	0.319366	0.640884	0.895505
	C151	C	0.321343	0.388959	0.114135
	C152	C	0.892758	0.695856	0.382099
	C153	C	0.111681	0.701276	0.633087
	C154	C	0.893741	0.330996	0.631505
	C155	C	0.113125	0.331903	0.381120
	C156	C	0.894025	0.389217	0.689277
	C157	C	0.112132	0.643203	0.690463
	C158	C	0.893707	0.638800	0.323230
	C159	C	0.113201	0.389327	0.323460
	C160	C	0.378795	0.697003	0.894461
	C161	C	0.629230	0.697411	0.114584
	C162	C	0.630298	0.331612	0.895943
	C163	C	0.380571	0.333199	0.114906
	C164	C	0.685232	0.904309	0.379609
	C165	C	0.686617	0.124299	0.630514
	C166	C	0.321062	0.904518	0.630218
	C167	C	0.318217	0.122862	0.378144
	C168	C	0.879594	0.405262	0.187570
	C169	C	0.129678	0.624655	0.188752
	C170	C	0.130300	0.406149	0.820116
	C171	C	0.878833	0.625083	0.822442
	C172	C	0.187606	0.885885	0.397435
	C173	C	0.187833	0.141039	0.613426
	C174	C	0.819359	0.138946	0.395216
	C175	C	0.818124	0.888641	0.614506
	C176	C	0.395689	0.199038	0.879011
	C177	C	0.614137	0.197717	0.130908
	C178	C	0.394171	0.831949	0.128245
	C179	C	0.613662	0.830091	0.879058
	C180	C	0.394306	0.889519	0.186601
	C181	C	0.613348	0.140212	0.189022
	C182	C	0.396134	0.141362	0.820414
	C183	C	0.613421	0.887504	0.820941
	C184	C	0.877109	0.196459	0.395132
	C185	C	0.127986	0.196802	0.614401
	C186	C	0.127080	0.831075	0.396637
	C187	C	0.876590	0.831870	0.615212
	C188	C	0.186603	0.405055	0.878888
	C189	C	0.187266	0.624506	0.130973
	C190	C	0.821036	0.405980	0.130998
	C191	C	0.821607	0.625360	0.879784
	C192	C	0.409785	0.105137	0.598916
	C193	C	0.597931	0.923364	0.599274
	C194	C	0.597834	0.105749	0.410909
	C195	C	0.408473	0.922890	0.409353
	C196	C	0.600644	0.421399	0.095885
	C197	C	0.600637	0.609337	0.913578
	C198	C	0.408954	0.610000	0.095326
	C199	C	0.409242	0.420760	0.914101
	C200	C	0.094668	0.610857	0.410421
	C201	C	0.912851	0.610243	0.600915
	C202	C	0.092688	0.420038	0.599862
	C203	C	0.912322	0.418410	0.408521
	C204	C	0.910397	0.606646	0.100933
	C205	C	0.100293	0.422696	0.101364
	C206	C	0.098404	0.606058	0.911706
	C207	C	0.910220	0.424502	0.911637
	C208	C	0.098680	0.922032	0.596318
	C209	C	0.098364	0.108132	0.413944
	C210	C	0.906981	0.109586	0.596015
	C211	C	0.906862	0.919194	0.414798
	C212	C	0.594865	0.109020	0.910982
	C213	C	0.413287	0.111254	0.100428
	C214	C	0.595121	0.918901	0.101252
	C215	C	0.414393	0.919726	0.909636
	Zn216	Zn	0.504984	0.014450	0.754391
	Zn217	Zn	0.503118	0.015060	0.255569
	Zn218	Zn	0.755541	0.515506	0.005086
	Zn219	Zn	0.254034	0.514452	0.004748
	Zn220	Zn	0.002264	0.765503	0.505776
	Zn221	Zn	0.002690	0.263966	0.504672
	Zn222	Zn	0.003680	0.515716	0.756182
	Zn223	Zn	0.004581	0.514821	0.255732
	Zn224	Zn	0.504448	0.764139	0.004527
	Zn225	Zn	0.505047	0.265727	0.005398
	Zn226	Zn	0.752500	0.014136	0.504761
	Zn227	Zn	0.254145	0.014216	0.504810
	N228	N	0.416158	0.979784	0.685972
	N229	N	0.593288	0.048895	0.686971
	N230	N	0.589834	0.979452	0.325329
	N231	N	0.414953	0.049078	0.324084
	N232	N	0.686110	0.427509	0.970192
	N233	N	0.687234	0.604626	0.038928
	N234	N	0.321448	0.603882	0.970452
	N235	N	0.322640	0.426035	0.039248
	N236	N	0.967351	0.694369	0.419585
	N237	N	0.037507	0.698119	0.595089
	N238	N	0.967637	0.333295	0.593263
	N239	N	0.038003	0.333263	0.417375
	N240	N	0.968161	0.427496	0.686455
	N241	N	0.038180	0.604363	0.687543
	N242	N	0.968908	0.602594	0.324705
	N243	N	0.038353	0.425895	0.324255
	N244	N	0.417380	0.694175	0.968628
	N245	N	0.591595	0.694446	0.040071
	N246	N	0.592995	0.334150	0.970543
	N247	N	0.418171	0.336133	0.040587
	N248	N	0.682679	0.978805	0.417723
	N249	N	0.683237	0.049790	0.591956
	N250	N	0.323931	0.978962	0.592008
	N251	N	0.321156	0.048234	0.415571
	N252	N	0.918251	0.479680	0.184759
	N253	N	0.092470	0.549600	0.186739
	N254	N	0.092976	0.481094	0.823215
	N255	N	0.916643	0.550374	0.825214
	N256	N	0.186389	0.924058	0.471886
	N257	N	0.186075	0.103353	0.538726
	N258	N	0.821459	0.102114	0.470131
	N259	N	0.820507	0.926022	0.539983
	N260	N	0.469614	0.196044	0.917562
	N261	N	0.539825	0.195770	0.092984
	N262	N	0.468835	0.833965	0.091682
	N263	N	0.539703	0.833297	0.917267
	N264	N	0.469111	0.926522	0.185814
	N265	N	0.538469	0.103364	0.186970
	N266	N	0.470277	0.103093	0.823225
	N267	N	0.539347	0.925715	0.823407
	N268	N	0.914627	0.194796	0.469876
	N269	N	0.089636	0.193443	0.540236
	N270	N	0.088599	0.835880	0.470483
	N271	N	0.914894	0.834625	0.541254
	N272	N	0.183407	0.479266	0.918141
	N273	N	0.185576	0.549294	0.093836
	N274	N	0.823574	0.480867	0.093649
	N275	N	0.824393	0.550847	0.917923
	O276	O	0.289981	0.541267	0.290212
	H277	H	0.293699	0.546613	0.272163
	H278	H	0.283753	0.533697	0.271543
	O279	O	0.794511	0.090939	1.071384
	H280	H	0.795078	0.117076	1.065996
	H281	H	0.807264	0.074900	1.062792
	O282	O	0.530722	0.518247	0.496980
	H283	H	0.534672	0.515005	0.510342
	H284	H	0.537847	0.512473	0.492837
	O285	O	0.322875	0.702054	0.321792
	H286	H	0.316156	0.683073	0.338167
	H287	H	0.310453	0.702414	0.340037
	O288	O	0.824824	1.193001	-0.169705
	H289	H	0.816914	1.163151	-0.165198
	H290	H	0.873390	1.202881	-0.178861
	O291	O	0.636831	0.466888	0.590749
	H292	H	0.632699	0.479607	0.588784
	H293	H	0.635740	0.461545	0.610825
	O294	O	-0.181859	-0.082189	0.983403
	H295	H	-0.190054	-0.057330	0.990047
	H296	H	-0.170610	-0.111472	0.983279
	O297	O	1.219647	-0.032379	0.052747
	H298	H	1.224508	-0.048179	0.074598
	H299	H	1.219661	-0.059512	0.067321
	O300	O	0.980794	1.225599	-0.206316
	H301	H	0.988674	1.239996	-0.228536
	H302	H	1.000439	1.210250	-0.205738
	O303	O	0.333403	0.333693	0.685375
	H304	H	0.317330	0.346191	0.657382
	H305	H	0.326687	0.356660	0.682594
	O306	O	0.699043	0.720209	0.518665
	H307	H	0.701395	0.746618	0.509381
	H308	H	0.689646	0.720067	0.496927
	O309	O	0.354859	0.657449	0.592614
	H310	H	0.364128	0.658365	0.587189
	H311	H	0.361813	0.637610	0.580770
	O312	O	-0.020505	1.218621	1.029909
	H313	H	0.001574	1.224777	1.017725
	H314	H	-0.037310	1.223763	1.016004
	O315	O	0.620930	0.416121	0.603717
	H316	H	0.624326	0.430746	0.617351
	H317	H	0.616159	0.400540	0.619606
	O318	O	0.946634	-0.064389	-0.196495
	H319	H	0.950263	-0.046229	-0.187954
	H320	H	0.926122	-0.043963	-0.185890
	O321	O	-0.209820	0.227217	-0.011794
	H322	H	-0.220488	0.237558	-0.005160
	H323	H	-0.218850	0.235824	-0.043995
	O324	O	0.615365	0.561957	0.419326
	H325	H	0.610134	0.566262	0.420979
	H326	H	0.611612	0.547849	0.413702
	O327	O	0.527768	0.295088	0.285331
	H328	H	0.572800	0.300004	0.289961
	H329	H	0.541090	0.265148	0.256428
	O330	O	-0.209299	1.033602	-0.210151
	H331	H	-0.210103	1.041516	-0.210114
	H332	H	-0.233739	1.027524	-0.214745
	O333	O	0.560971	0.600719	0.693474
	H334	H	0.531019	0.588072	0.684539
	H335	H	0.583543	0.577054	0.696696
	O336	O	0.027420	0.225540	0.222104
	H337	H	0.017148	0.244153	0.223846
	H338	H	0.011453	0.234891	0.228176
	O339	O	-0.018557	1.014616	1.024269
	H340	H	-0.005957	1.011037	1.025497
	H341	H	-0.016836	1.029538	1.028281
	O342	O	0.020286	0.972999	0.975859
	H343	H	0.005434	0.971891	0.991094
	H344	H	0.038421	0.969097	0.980387
	O345	O	1.185921	0.835798	-0.166680
	H346	H	1.134473	0.823721	-0.180593
	H347	H	1.195361	0.888068	-0.181816
	O348	O	0.525100	0.675152	0.532841
	H349	H	0.504819	0.666733	0.541139
	H350	H	0.514945	0.683742	0.503817
	O351	O	0.224098	1.079430	0.935395
	H352	H	0.227890	1.060946	0.971494
	H353	H	0.225391	1.110643	0.962100
	O354	O	-0.525501	0.331144	0.475724
	H355	H	-0.514161	0.334319	0.503071
	H356	H	-0.501600	0.328303	0.468442
	O357	O	-0.582704	-0.538232	0.479960
	H358	H	-0.557172	-0.539226	0.461862
	H359	H	-0.557687	-0.544402	0.496350
	O360	O	0.715810	0.303626	0.484244
	H361	H	0.735357	0.283379	0.493754
	H362	H	0.720948	0.316300	0.507959
	O363	O	-0.336186	-0.301447	1.275308
	H364	H	-0.344910	-0.282326	1.256650
	H365	H	-0.342204	-0.310728	1.286727
	O366	O	0.915075	0.034499	1.142327
	H367	H	0.903691	0.043889	1.132667
	H368	H	0.916331	0.037551	1.134446
	O369	O	0.405759	0.434744	0.641877
	H370	H	0.398580	0.447375	0.614301
	H371	H	0.380962	0.431033	0.653994
	O372	O	1.212959	-0.009125	0.788653
	H373	H	1.248108	-0.003487	0.768153
	H374	H	1.227573	0.013684	0.821040
	O375	O	0.193770	0.197635	0.184649
	H376	H	0.146953	0.208680	0.197600
	H377	H	0.205040	0.157776	0.197809
	O378	O	0.637953	0.703225	0.693777
	H379	H	0.644600	0.718161	0.670858
	H380	H	0.613070	0.706505	0.697483
	O381	O	0.479140	0.732234	0.285188
	H382	H	0.452806	0.735913	0.283065
	H383	H	0.459726	0.751912	0.264046
	O384	O	0.443785	0.456112	0.325912
	H385	H	0.466072	0.423440	0.312433
	H386	H	0.461974	0.461743	0.338616
	O387	O	-0.170926	0.014018	1.211616
	H388	H	-0.179033	0.009386	1.224353
	H389	H	-0.176989	0.018130	1.180406
	O390	O	-0.131430	-0.043844	0.156831
	H391	H	-0.134847	-0.026066	0.164076
	H392	H	-0.138966	-0.049331	0.113539
	O393	O	0.789640	0.804203	1.029214
	H394	H	0.812210	0.814376	1.006359
	H395	H	0.762155	0.766734	1.027398
	O396	O	0.999717	-0.129866	0.178560
	H397	H	0.987196	-0.136201	0.185370
	H398	H	0.991881	-0.134044	0.180252
	O399	O	1.040214	0.188071	0.936835
	H400	H	1.062915	0.195111	0.942916
	H401	H	1.046046	0.182749	0.922186
	O402	O	1.025712	0.800697	0.793065
	H403	H	1.017181	0.789333	0.767843
	H404	H	1.007140	0.818561	0.775908
	O405	O	1.108744	0.814623	0.106906
	H406	H	1.136399	0.815591	0.089827
	H407	H	1.093638	0.822497	0.119656
	O408	O	1.063936	-0.043300	0.209933
	H409	H	1.047599	-0.046345	0.206045
	H410	H	1.037634	-0.045383	0.205183
	O411	O	1.219458	1.228754	0.034083
	H412	H	1.227636	1.238590	0.068997
	H413	H	1.234091	1.242485	0.053673
	O414	O	0.288862	0.303152	0.528452
	H415	H	0.301011	0.295184	0.520841
	H416	H	0.278897	0.285288	0.517221
	O417	O	0.555985	0.605344	0.695243
	H418	H	0.531625	0.591817	0.713402
	H419	H	0.542591	0.613623	0.707283
	O420	O	0.215226	-0.196407	-0.007098
	H421	H	0.247459	-0.230051	-0.023648
	H422	H	0.192533	-0.187945	-0.048267
	O423	O	0.304073	0.474577	0.454936
	H424	H	0.308263	0.465675	0.435228
	H425	H	0.310053	0.466527	0.438415
	O426	O	0.316375	0.547481	0.630969
	H427	H	0.316862	0.559083	0.611614
	H428	H	0.301784	0.546417	0.630739
	O429	O	0.298297	0.723241	0.482743
	H430	H	0.304372	0.748125	0.492142
	H431	H	0.305348	0.722011	0.491313
	O432	O	0.714574	0.528558	0.703183
	H433	H	0.724697	0.552498	0.718282
	H434	H	0.710076	0.534258	0.710697
	O435	O	0.671914	0.496894	0.300540
	H436	H	0.680059	0.504614	0.290820
	H437	H	0.657260	0.515296	0.298560
	O438	O	-0.036035	-0.199620	0.025565
	H439	H	-0.031470	-0.201907	-0.010001
	H440	H	-0.011479	-0.206112	0.051007
	O441	O	1.219136	0.029455	0.218844
	H442	H	1.213037	0.016079	0.240811
	H443	H	1.217919	0.022634	0.240773
	O444	O	0.076082	1.082934	0.796731
	H445	H	0.092773	1.066797	0.817599
	H446	H	0.080723	1.066580	0.797241
	O447	O	0.547510	0.601082	0.476985
	H448	H	0.535193	0.595565	0.486456
	H449	H	0.550700	0.595864	0.479130
	O450	O	0.487564	0.292947	0.724136
	H451	H	0.451452	0.287843	0.731996
	H452	H	0.470710	0.273679	0.732817
	O453	O	0.683662	0.337576	0.323652
	H454	H	0.693756	0.384495	0.321581
	H455	H	0.696206	0.331923	0.371800
