data_Molecule from HDF5

_cell_length_a		16.193235
_cell_length_b		16.251017
_cell_length_c		16.305821
_cell_angle_alpha	89.890184
_cell_angle_beta	89.620817
_cell_angle_gamma	89.723256
_symmetry_space_group_name_H-M	'P 1'
_symmetry_Int_Tables_number		1

loop_
	_symmetry_equiv_pos_as_xyz
	x,y,z

loop_
	_atom_site_label
	_atom_site_type_symbol
	_atom_site_fract_x
	_atom_site_fract_y
	_atom_site_fract_z
	H0	H	0.403593	0.846216	0.714713
	H1	H	0.602843	0.173675	0.711634
	H2	H	0.608030	0.846473	0.278885
	H3	H	0.403735	0.172440	0.283051
	H4	H	0.722340	0.408118	0.834250
	H5	H	0.718562	0.606730	0.161066
	H6	H	0.291046	0.609337	0.833957
	H7	H	0.289353	0.410476	0.160199
	H8	H	0.841432	0.724674	0.398309
	H9	H	0.169208	0.722370	0.594616
	H10	H	0.840305	0.295475	0.597742
	H11	H	0.168275	0.294125	0.397062
	H12	H	0.841655	0.408214	0.716285
	H13	H	0.170277	0.606006	0.708671
	H14	H	0.841505	0.609959	0.282212
	H15	H	0.168056	0.406410	0.279723
	H16	H	0.404345	0.727186	0.835483
	H17	H	0.604874	0.726363	0.160124
	H18	H	0.607084	0.292177	0.834880
	H19	H	0.404886	0.295238	0.160256
	H20	H	0.722262	0.845518	0.396462
	H21	H	0.717772	0.173699	0.593578
	H22	H	0.290187	0.845362	0.596239
	H23	H	0.289359	0.172123	0.398005
	H24	H	0.903329	0.346130	0.214916
	H25	H	0.104505	0.671984	0.211958
	H26	H	0.107568	0.345903	0.780431
	H27	H	0.904774	0.672168	0.781825
	H28	H	0.221973	0.909446	0.333388
	H29	H	0.216602	0.106039	0.660807
	H30	H	0.790667	0.110038	0.333379
	H31	H	0.789016	0.910841	0.660054
	H32	H	0.340266	0.225256	0.899986
	H33	H	0.668328	0.223538	0.095454
	H34	H	0.340269	0.795776	0.098183
	H35	H	0.667317	0.792660	0.895019
	H36	H	0.340210	0.910458	0.214180
	H37	H	0.667237	0.110043	0.213234
	H38	H	0.340039	0.111190	0.783101
	H39	H	0.667545	0.908075	0.780013
	H40	H	0.903890	0.227681	0.334448
	H41	H	0.103248	0.224462	0.660265
	H42	H	0.107294	0.792057	0.333752
	H43	H	0.903573	0.793338	0.660412
	H44	H	0.221749	0.345000	0.898235
	H45	H	0.216941	0.673304	0.093252
	H46	H	0.791210	0.345009	0.096082
	H47	H	0.790005	0.672040	0.897427
	H48	H	0.407204	0.126683	0.591092
	H49	H	0.605578	0.891686	0.585484
	H50	H	0.607952	0.129912	0.399251
	H51	H	0.414173	0.893711	0.408091
	H52	H	0.607274	0.419558	0.115026
	H53	H	0.592327	0.602763	0.883982
	H54	H	0.409678	0.592258	0.111413
	H55	H	0.413083	0.414251	0.880301
	H56	H	0.122863	0.601751	0.403363
	H57	H	0.889749	0.599005	0.588800
	H58	H	0.121561	0.411176	0.584719
	H59	H	0.889446	0.420893	0.408914
	H60	H	0.119382	0.421453	0.587406
	H61	H	0.887011	0.599716	0.593481
	H62	H	0.121648	0.598789	0.405142
	H63	H	0.887093	0.419862	0.401203
	H64	H	0.420119	0.606821	0.111882
	H65	H	0.600398	0.605561	0.879972
	H66	H	0.589764	0.422559	0.110012
	H67	H	0.412560	0.418800	0.881424
	H68	H	0.585839	0.124445	0.396562
	H69	H	0.594768	0.890821	0.598995
	H70	H	0.411888	0.126946	0.593604
	H71	H	0.410917	0.891008	0.404599
	H72	H	0.918520	0.621313	0.082079
	H73	H	0.102291	0.388777	0.096186
	H74	H	0.094238	0.625833	0.896980
	H75	H	0.908546	0.391790	0.910540
	H76	H	0.091856	0.923020	0.607756
	H77	H	0.098366	0.091415	0.384666
	H78	H	0.914755	0.109851	0.614111
	H79	H	0.914871	0.917847	0.381872
	H80	H	0.621825	0.098186	0.899753
	H81	H	0.388813	0.106150	0.081529
	H82	H	0.620671	0.911262	0.081040
	H83	H	0.386289	0.912960	0.908258
	H84	H	0.617048	0.926874	0.086781
	H85	H	0.388746	0.093495	0.094058
	H86	H	0.623158	0.105361	0.902752
	H87	H	0.390096	0.923384	0.911053
	H88	H	0.902884	0.100103	0.614870
	H89	H	0.088477	0.110226	0.380661
	H90	H	0.091683	0.906738	0.613617
	H91	H	0.915206	0.914539	0.381036
	H92	H	0.096631	0.624626	0.908040
	H93	H	0.088770	0.394458	0.089968
	H94	H	0.902319	0.627888	0.088001
	H95	H	0.914604	0.389973	0.897544
	H96	H	0.411498	0.125603	0.588650
	H97	H	0.588822	0.897533	0.583439
	H98	H	0.595837	0.121572	0.416249
	H99	H	0.415739	0.892007	0.402883
	H100	H	0.595029	0.405699	0.115481
	H101	H	0.599642	0.596377	0.883098
	H102	H	0.402839	0.608498	0.117760
	H103	H	0.416820	0.416994	0.881443
	H104	H	0.122578	0.598721	0.401488
	H105	H	0.887351	0.603978	0.589812
	H106	H	0.123804	0.415247	0.594679
	H107	H	0.886367	0.413897	0.406737
	H108	H	0.916151	0.627393	0.099806
	H109	H	0.101831	0.393458	0.081246
	H110	H	0.103935	0.628110	0.900729
	H111	H	0.922045	0.395675	0.908116
	H112	H	0.105828	0.916281	0.615172
	H113	H	0.108819	0.107851	0.376242
	H114	H	0.916202	0.094771	0.608335
	H115	H	0.911821	0.917076	0.380452
	H116	H	0.619663	0.100093	0.906914
	H117	H	0.382779	0.110206	0.097447
	H118	H	0.623913	0.915343	0.096755
	H119	H	0.386218	0.921030	0.900628
	C120	C	0.381742	0.018071	0.620234
	C121	C	0.625344	1.001519	0.617879
	C122	C	0.627288	0.017491	0.374186
	C123	C	0.383951	1.000405	0.376278
	C124	C	0.627334	0.386541	0.005756
	C125	C	0.626577	0.631203	0.989504
	C126	C	0.382809	0.631745	0.006160
	C127	C	0.384176	0.388129	0.988745
	C128	C	0.014078	0.629993	0.375058
	C129	C	0.996609	0.629449	0.618436
	C130	C	0.013242	0.387418	0.619137
	C131	C	0.995956	0.387911	0.375612
	C132	C	0.883561	0.517446	0.119168
	C133	C	0.126218	0.500259	0.117938
	C134	C	0.127944	0.517771	0.874187
	C135	C	0.884882	0.500172	0.875904
	C136	C	0.126791	0.886497	0.504813
	C137	C	0.125962	0.131027	0.488538
	C138	C	0.882632	0.131668	0.504937
	C139	C	0.883598	0.887165	0.488860
	C140	C	0.512852	0.130880	0.875784
	C141	C	0.495209	0.131409	0.119136
	C142	C	0.512662	0.888503	0.118849
	C143	C	0.495501	0.888463	0.875814
	C144	C	0.383859	0.895085	0.676333
	C145	C	0.623298	0.124659	0.673524
	C146	C	0.626889	0.894976	0.317968
	C147	C	0.384504	0.123439	0.320750
	C148	C	0.683873	0.388379	0.883195
	C149	C	0.681426	0.628279	0.111942
	C150	C	0.328704	0.629617	0.882907
	C151	C	0.327735	0.390347	0.111516
	C152	C	0.890487	0.686259	0.377935
	C153	C	0.120374	0.684358	0.615087
	C154	C	0.889626	0.332419	0.618477
	C155	C	0.119330	0.332032	0.377149
	C156	C	0.890439	0.388364	0.677313
	C157	C	0.120652	0.626888	0.672251
	C158	C	0.890510	0.629203	0.320324
	C159	C	0.119063	0.387917	0.318504
	C160	C	0.384713	0.688418	0.883813
	C161	C	0.624733	0.687600	0.111534
	C162	C	0.626835	0.330132	0.883690
	C163	C	0.385149	0.332962	0.111611
	C164	C	0.684496	0.894776	0.375869
	C165	C	0.680344	0.124810	0.614830
	C166	C	0.327632	0.894414	0.617103
	C167	C	0.327700	0.123436	0.378211
	C168	C	0.884417	0.394768	0.175952
	C169	C	0.124241	0.623236	0.173652
	C170	C	0.127411	0.394538	0.818746
	C171	C	0.885408	0.623202	0.819820
	C172	C	0.183624	0.888849	0.382158
	C173	C	0.179757	0.127342	0.611776
	C174	C	0.827592	0.130397	0.382488
	C175	C	0.827468	0.890245	0.611481
	C176	C	0.389286	0.187095	0.879433
	C177	C	0.619128	0.185864	0.116304
	C178	C	0.389283	0.832966	0.118464
	C179	C	0.618573	0.831313	0.875908
	C180	C	0.389341	0.890330	0.175843
	C181	C	0.618684	0.129555	0.174669
	C182	C	0.389070	0.130153	0.821417
	C183	C	0.618530	0.888519	0.818323
	C184	C	0.884000	0.188950	0.383153
	C185	C	0.122863	0.185847	0.611497
	C186	C	0.126567	0.830433	0.382373
	C187	C	0.884223	0.831511	0.611422
	C188	C	0.184593	0.394450	0.876776
	C189	C	0.179996	0.623939	0.114339
	C190	C	0.828274	0.394144	0.117086
	C191	C	0.827921	0.623121	0.877163
	C192	C	0.403607	0.104041	0.597720
	C193	C	0.602997	0.915431	0.595807
	C194	C	0.603445	0.103276	0.397198
	C195	C	0.406971	0.914456	0.398500
	C196	C	0.604138	0.409202	0.091405
	C197	C	0.604048	0.608261	0.904242
	C198	C	0.404562	0.609230	0.091432
	C199	C	0.407364	0.410318	0.903029
	C200	C	0.100005	0.606737	0.396810
	C201	C	0.910572	0.607388	0.596997
	C202	C	0.099306	0.409497	0.595746
	C203	C	0.909892	0.411371	0.398774
	C204	C	0.905857	0.603260	0.096580
	C205	C	0.104086	0.414316	0.095681
	C206	C	0.105167	0.603825	0.895667
	C207	C	0.908285	0.414682	0.898719
	C208	C	0.103254	0.908693	0.590252
	C209	C	0.104697	0.109577	0.402810
	C210	C	0.904818	0.108244	0.590285
	C211	C	0.907187	0.909858	0.403194
	C212	C	0.599211	0.107951	0.897009
	C213	C	0.409097	0.109608	0.097471
	C214	C	0.598405	0.911052	0.095028
	C215	C	0.409722	0.912170	0.899663
	Zn216	Zn	0.503775	0.009796	0.747722
	Zn217	Zn	0.504041	0.009368	0.247068
	Zn218	Zn	0.755698	0.508571	-0.002621
	Zn219	Zn	0.255457	0.509296	-0.003183
	Zn220	Zn	0.005293	0.757583	0.497054
	Zn221	Zn	0.003969	0.260112	0.496965
	Zn222	Zn	0.005403	0.508598	0.746836
	Zn223	Zn	0.004820	0.508778	0.247007
	Zn224	Zn	0.504193	0.760767	-0.002279
	Zn225	Zn	0.504735	0.259064	-0.002350
	Zn226	Zn	0.754862	0.009499	0.496353
	Zn227	Zn	0.255044	0.008912	0.496700
	N228	N	0.416927	0.972908	0.678177
	N229	N	0.589851	0.046938	0.675563
	N230	N	0.592344	0.972449	0.316626
	N231	N	0.418778	0.045903	0.319364
	N232	N	0.684483	0.422739	0.960325
	N233	N	0.682625	0.594002	0.034981
	N234	N	0.327301	0.594916	0.959751
	N235	N	0.327096	0.424039	0.034095
	N236	N	0.968268	0.686906	0.411332
	N237	N	0.042461	0.686111	0.582439
	N238	N	0.966810	0.331789	0.582895
	N239	N	0.041736	0.331883	0.412008
	N240	N	0.968443	0.421697	0.677945
	N241	N	0.042579	0.593372	0.674468
	N242	N	0.968275	0.594910	0.318362
	N243	N	0.041225	0.422057	0.317584
	N244	N	0.417704	0.689846	0.961304
	N245	N	0.591321	0.689591	0.034205
	N246	N	0.592455	0.328992	0.960962
	N247	N	0.419626	0.331487	0.034195
	N248	N	0.684565	0.972030	0.410304
	N249	N	0.681721	0.047236	0.581020
	N250	N	0.325958	0.971886	0.583101
	N251	N	0.327318	0.045871	0.412135
	N252	N	0.917973	0.472422	0.177247
	N253	N	0.091652	0.545174	0.176186
	N254	N	0.093268	0.472128	0.816737
	N255	N	0.919774	0.545709	0.818646
	N256	N	0.183850	0.923237	0.459242
	N257	N	0.182039	0.093994	0.534317
	N258	N	0.826728	0.095263	0.459290
	N259	N	0.826856	0.924006	0.534146
	N260	N	0.467302	0.187847	0.912268
	N261	N	0.541657	0.187034	0.082509
	N262	N	0.466954	0.832045	0.083440
	N263	N	0.541025	0.831043	0.910750
	N264	N	0.467083	0.923942	0.176139
	N265	N	0.540638	0.096363	0.176608
	N266	N	0.466905	0.095938	0.819147
	N267	N	0.541050	0.923592	0.818464
	N268	N	0.917679	0.189734	0.460271
	N269	N	0.090204	0.188418	0.533885
	N270	N	0.092018	0.828885	0.459635
	N271	N	0.918684	0.829778	0.533970
	N272	N	0.185173	0.472144	0.910504
	N273	N	0.181325	0.546438	0.080373
	N274	N	0.827575	0.471467	0.082410
	N275	N	0.827547	0.545797	0.911772
	O276	O	0.549456	0.506034	0.452117
	H277	H	0.535715	0.504220	0.461012
	H278	H	0.548769	0.508765	0.444708
	O279	O	0.396869	0.518574	0.503953
	H280	H	0.388590	0.525068	0.510902
	H281	H	0.390651	0.524112	0.508595
	O282	O	1.052992	0.915216	-0.060981
	H283	H	1.038881	0.925150	-0.071871
	H284	H	1.050187	0.913431	-0.062544
	O285	O	1.079927	0.140303	1.005550
	H286	H	1.078962	0.146638	1.015876
	H287	H	1.074581	0.136495	0.996805
	O288	O	0.393952	0.375622	0.589706
	H289	H	0.406932	0.367303	0.603724
	H290	H	0.398791	0.381269	0.587080
	O291	O	0.606027	0.568141	0.458857
	H292	H	0.593314	0.570967	0.455189
	H293	H	0.596712	0.580301	0.457577
	O294	O	0.659335	0.513151	0.531098
	H295	H	0.665302	0.517118	0.527168
	H296	H	0.657988	0.511381	0.519726
	O297	O	-0.447052	-0.509611	1.487811
	H298	H	-0.436276	-0.493509	1.478908
	H299	H	-0.447596	-0.510311	1.487483
	O300	O	-0.031598	0.041699	-0.074192
	H301	H	-0.021259	0.040925	-0.071142
	H302	H	-0.021259	0.053364	-0.066112
	O303	O	0.974268	0.916683	-0.021351
	H304	H	0.965960	0.923172	-0.018284
	H305	H	0.981981	0.918707	-0.034135
	O306	O	0.012173	0.994582	0.987267
	H307	H	0.012066	0.986021	0.982627
	H308	H	0.011685	0.988914	0.972906
	O309	O	0.409278	0.539526	0.462786
	H310	H	0.394476	0.543817	0.465303
	H311	H	0.411543	0.529967	0.457795
	O312	O	0.046701	0.071718	0.124486
	H313	H	0.046671	0.078713	0.108623
	H314	H	0.057408	0.068970	0.128146
	O315	O	0.997513	-0.056390	-0.029214
	H316	H	1.005133	-0.058871	-0.024630
	H317	H	0.996169	-0.061018	-0.029071
	O318	O	0.931145	1.056897	1.001662
	H319	H	0.925970	1.056901	0.994374
	H320	H	0.941631	1.063656	0.998850
	O321	O	0.505205	-0.430971	1.453440
	H322	H	0.494443	-0.439287	1.448402
	H323	H	0.504879	-0.428136	1.461434
	O324	O	0.474433	0.526687	0.499299
	H325	H	0.473573	0.540588	0.513238
	H326	H	0.486135	0.521358	0.491943
	O327	O	-0.042145	-0.108313	0.038616
	H328	H	-0.053605	-0.119672	0.053723
	H329	H	-0.043127	-0.107754	0.045355
	O330	O	0.536389	0.532877	0.497078
	H331	H	0.542269	0.524703	0.497563
	H332	H	0.541693	0.539067	0.494057
	O333	O	-0.042950	0.965043	0.993032
	H334	H	-0.037581	0.969765	0.986924
	H335	H	-0.052159	0.966798	1.002117
	O336	O	-0.078906	0.099375	0.026617
	H337	H	-0.076529	0.095316	0.025834
	H338	H	-0.087486	0.109276	0.033836
	O339	O	0.420756	0.605745	0.397627
	H340	H	0.417103	0.600678	0.404565
	H341	H	0.407675	0.606769	0.385809
	O342	O	0.918600	1.048778	1.037548
	H343	H	0.925947	1.051515	1.033423
	H344	H	0.914467	1.057565	1.045969
	O345	O	0.927079	0.941530	0.106268
	H346	H	0.929522	0.946672	0.107437
	H347	H	0.922587	0.939090	0.115876
	O348	O	0.472993	0.470449	0.573606
	H349	H	0.479189	0.465168	0.580193
	H350	H	0.461028	0.468023	0.564774
	O351	O	0.555771	0.547736	0.525892
	H352	H	0.546993	0.550484	0.521973
	H353	H	0.564509	0.548196	0.531176
	O354	O	0.990350	0.003720	0.975727
	H355	H	0.983015	-0.005907	0.976155
	H356	H	0.973868	0.004038	0.989047
	O357	O	1.032177	-0.011680	0.944758
	H358	H	1.028456	-0.018700	0.941263
	H359	H	1.036139	-0.008189	0.950353
	O360	O	0.440403	0.508626	0.559678
	H361	H	0.451849	0.499745	0.555304
	H362	H	0.437174	0.511557	0.566203
	O363	O	0.586726	0.468269	0.522543
	H364	H	0.597752	0.457730	0.515835
	H365	H	0.592050	0.452515	0.523936
	O366	O	0.469806	1.477268	0.471747
	H367	H	0.473519	1.491039	0.479465
	H368	H	0.473265	1.473867	0.475843
	O369	O	1.088205	-0.056127	0.898185
	H370	H	1.083484	-0.062597	0.901337
	H371	H	1.088804	-0.059427	0.891117
	O372	O	-0.001706	0.058341	-0.000036
	H373	H	-0.007753	0.055313	-0.005918
	H374	H	-0.004362	0.059951	0.002061
	O375	O	0.947806	0.021671	-0.071082
	H376	H	0.950957	0.020198	-0.081505
	H377	H	0.953625	0.022918	-0.081106
	O378	O	0.467564	0.475370	0.487205
	H379	H	0.468417	0.486593	0.499959
	H380	H	0.463352	0.477648	0.485526
	O381	O	0.572886	0.490611	0.497704
	H382	H	0.561068	0.495310	0.496494
	H383	H	0.575873	0.479269	0.497272
