data_Molecule from HDF5

_cell_length_a		16.282162
_cell_length_b		16.242415
_cell_length_c		16.203956
_cell_angle_alpha	89.913647
_cell_angle_beta	90.044787
_cell_angle_gamma	89.906660
_symmetry_space_group_name_H-M	'P 1'
_symmetry_Int_Tables_number		1

loop_
	_symmetry_equiv_pos_as_xyz
	x,y,z

loop_
	_atom_site_label
	_atom_site_type_symbol
	_atom_site_fract_x
	_atom_site_fract_y
	_atom_site_fract_z
	H0	H	0.409400	0.846190	0.704230
	H1	H	0.607002	0.173640	0.703559
	H2	H	0.606505	0.846251	0.275957
	H3	H	0.410367	0.174309	0.276333
	H4	H	0.722745	0.410076	0.825381
	H5	H	0.722504	0.608686	0.154087
	H6	H	0.291465	0.609632	0.825932
	H7	H	0.294004	0.410860	0.154012
	H8	H	0.845537	0.725202	0.389430
	H9	H	0.172988	0.723413	0.588935
	H10	H	0.845345	0.294199	0.589507
	H11	H	0.172354	0.296066	0.391968
	H12	H	0.844609	0.411373	0.703719
	H13	H	0.173051	0.606334	0.704226
	H14	H	0.844731	0.608692	0.275436
	H15	H	0.171653	0.410902	0.275305
	H16	H	0.407965	0.724889	0.824824
	H17	H	0.604517	0.722295	0.154829
	H18	H	0.606190	0.296250	0.824995
	H19	H	0.410425	0.295991	0.153872
	H20	H	0.723430	0.846315	0.388772
	H21	H	0.722960	0.173512	0.587666
	H22	H	0.294425	0.845818	0.588716
	H23	H	0.295034	0.173559	0.390748
	H24	H	0.910537	0.345868	0.204821
	H25	H	0.106552	0.673186	0.204519
	H26	H	0.106497	0.345163	0.777310
	H27	H	0.909229	0.672940	0.776056
	H28	H	0.223381	0.910575	0.324544
	H29	H	0.223643	0.107723	0.652821
	H30	H	0.794319	0.108573	0.324651
	H31	H	0.793358	0.908519	0.652771
	H32	H	0.344396	0.225080	0.890372
	H33	H	0.672114	0.224741	0.088903
	H34	H	0.344560	0.795638	0.087518
	H35	H	0.671035	0.793883	0.889960
	H36	H	0.344171	0.913027	0.202742
	H37	H	0.672025	0.108461	0.203909
	H38	H	0.344816	0.110015	0.773840
	H39	H	0.671593	0.909815	0.774425
	H40	H	0.910280	0.224365	0.325381
	H41	H	0.105368	0.221453	0.654507
	H42	H	0.107206	0.794984	0.324263
	H43	H	0.911588	0.794994	0.653472
	H44	H	0.223008	0.346302	0.890746
	H45	H	0.223172	0.673169	0.090804
	H46	H	0.793351	0.346142	0.090129
	H47	H	0.793613	0.673274	0.890142
	H48	H	0.419761	0.123726	0.577207
	H49	H	0.594984	0.893982	0.583800
	H50	H	0.605740	0.128641	0.394979
	H51	H	0.418315	0.892654	0.395978
	H52	H	0.590354	0.419943	0.101855
	H53	H	0.605438	0.595743	0.873776
	H54	H	0.414705	0.606720	0.107259
	H55	H	0.417356	0.417506	0.873142
	H56	H	0.122359	0.601449	0.405889
	H57	H	0.893702	0.601364	0.583374
	H58	H	0.126490	0.424022	0.594514
	H59	H	0.890521	0.413219	0.395312
	H60	H	0.130746	0.402059	0.585736
	H61	H	0.891350	0.603628	0.584508
	H62	H	0.125376	0.594626	0.391374
	H63	H	0.893491	0.416600	0.402944
	H64	H	0.411163	0.602435	0.107470
	H65	H	0.593450	0.601854	0.874983
	H66	H	0.602471	0.404378	0.111592
	H67	H	0.412540	0.416685	0.871516
	H68	H	0.598931	0.126873	0.393557
	H69	H	0.603101	0.894462	0.575535
	H70	H	0.411138	0.127215	0.578587
	H71	H	0.413430	0.892536	0.398497
	H72	H	0.912744	0.625492	0.076894
	H73	H	0.105463	0.391144	0.085426
	H74	H	0.110237	0.629717	0.897056
	H75	H	0.917933	0.390831	0.891479
	H76	H	0.102542	0.909047	0.607878
	H77	H	0.094150	0.106530	0.372959
	H78	H	0.918017	0.096130	0.603993
	H79	H	0.915405	0.914579	0.371532
	H80	H	0.625312	0.102526	0.892400
	H81	H	0.397039	0.095762	0.073357
	H82	H	0.625210	0.914499	0.080749
	H83	H	0.389868	0.912299	0.895787
	H84	H	0.624450	0.918600	0.083469
	H85	H	0.389056	0.099892	0.096006
	H86	H	0.625195	0.106955	0.899210
	H87	H	0.394676	0.919472	0.903635
	H88	H	0.918318	0.106573	0.607247
	H89	H	0.109255	0.109182	0.367552
	H90	H	0.108051	0.919559	0.606639
	H91	H	0.913324	0.917947	0.371147
	H92	H	0.093842	0.626457	0.888884
	H93	H	0.096850	0.393503	0.086047
	H94	H	0.910992	0.628431	0.085756
	H95	H	0.918021	0.394157	0.902902
	H96	H	0.417541	0.127752	0.586745
	H97	H	0.605543	0.890530	0.586262
	H98	H	0.601711	0.126314	0.400500
	H99	H	0.414323	0.891494	0.393375
	H100	H	0.611191	0.424065	0.107744
	H101	H	0.604016	0.608775	0.869564
	H102	H	0.416367	0.600763	0.106279
	H103	H	0.414518	0.420809	0.873030
	H104	H	0.128242	0.610731	0.393517
	H105	H	0.892223	0.603916	0.581330
	H106	H	0.119890	0.419866	0.571549
	H107	H	0.892613	0.421968	0.395665
	H108	H	0.920128	0.625930	0.083465
	H109	H	0.101304	0.393754	0.077720
	H110	H	0.096426	0.622782	0.907532
	H111	H	0.907993	0.390630	0.898146
	H112	H	0.096741	0.918764	0.603468
	H113	H	0.104664	0.094810	0.373154
	H114	H	0.909270	0.101040	0.607654
	H115	H	0.917692	0.917927	0.371957
	H116	H	0.623301	0.099503	0.899319
	H117	H	0.388032	0.117138	0.080203
	H118	H	0.626344	0.914542	0.085160
	H119	H	0.391900	0.923376	0.892308
	C120	C	0.387140	0.018322	0.610585
	C121	C	0.630038	1.001287	0.610573
	C122	C	0.630469	0.018829	0.367528
	C123	C	0.387350	1.000905	0.367507
	C124	C	0.629800	0.388006	-0.001864
	C125	C	0.629318	0.631018	0.981367
	C126	C	0.385464	0.631977	-0.001768
	C127	C	0.386604	0.388989	0.980953
	C128	C	0.017167	0.631145	0.367814
	C129	C	1.000492	0.631197	0.611929
	C130	C	0.017290	0.387357	0.612100
	C131	C	0.999956	0.388236	0.368513
	C132	C	0.886648	0.518057	0.111193
	C133	C	0.129811	0.500831	0.112044
	C134	C	0.129342	0.518051	0.868993
	C135	C	0.886280	0.500659	0.868395
	C136	C	0.130713	0.887624	0.497288
	C137	C	0.130670	0.131164	0.480171
	C138	C	0.886527	0.130962	0.498083
	C139	C	0.887115	0.887534	0.480295
	C140	C	0.516673	0.132162	0.867544
	C141	C	0.499960	0.132174	0.111426
	C142	C	0.516808	0.888274	0.111478
	C143	C	0.499973	0.888740	0.868230
	C144	C	0.389757	0.894867	0.666044
	C145	C	0.627238	0.124740	0.665510
	C146	C	0.627221	0.895211	0.313133
	C147	C	0.389996	0.124842	0.313095
	C148	C	0.684684	0.390439	0.874495
	C149	C	0.684459	0.628755	0.104948
	C150	C	0.329867	0.629989	0.874696
	C151	C	0.332172	0.391054	0.104937
	C152	C	0.894212	0.686969	0.369648
	C153	C	0.124081	0.685366	0.609062
	C154	C	0.893887	0.332353	0.609718
	C155	C	0.123396	0.333473	0.371264
	C156	C	0.893583	0.390620	0.666233
	C157	C	0.124072	0.627527	0.666645
	C158	C	0.893786	0.628991	0.312968
	C159	C	0.123053	0.390598	0.313221
	C160	C	0.387670	0.687314	0.874310
	C161	C	0.625828	0.685066	0.105481
	C162	C	0.626641	0.333600	0.874202
	C163	C	0.389758	0.333728	0.104696
	C164	C	0.685483	0.895292	0.369064
	C165	C	0.685310	0.124473	0.608010
	C166	C	0.332349	0.894898	0.608684
	C167	C	0.332376	0.124589	0.369879
	C168	C	0.890256	0.394622	0.166408
	C169	C	0.126795	0.624533	0.166388
	C170	C	0.126803	0.394467	0.814311
	C171	C	0.888749	0.623721	0.813235
	C172	C	0.185527	0.890259	0.373489
	C173	C	0.185421	0.127946	0.604123
	C174	C	0.832143	0.128836	0.373881
	C175	C	0.832034	0.889158	0.603840
	C176	C	0.393365	0.187533	0.869621
	C177	C	0.623450	0.186462	0.108490
	C178	C	0.393506	0.833515	0.108543
	C179	C	0.622508	0.832234	0.869692
	C180	C	0.393433	0.891790	0.165764
	C181	C	0.623213	0.128961	0.165945
	C182	C	0.393615	0.130397	0.811700
	C183	C	0.622775	0.889869	0.812297
	C184	C	0.889256	0.186789	0.374476
	C185	C	0.126630	0.184553	0.604730
	C186	C	0.128015	0.832516	0.373434
	C187	C	0.890661	0.832728	0.604336
	C188	C	0.184904	0.394903	0.870848
	C189	C	0.184834	0.624267	0.109960
	C190	C	0.831709	0.394934	0.109812
	C191	C	0.831451	0.623984	0.870242
	C192	C	0.409479	0.104020	0.587743
	C193	C	0.607699	0.915257	0.588410
	C194	C	0.608531	0.104935	0.389738
	C195	C	0.408972	0.914559	0.389413
	C196	C	0.607917	0.409889	0.084790
	C197	C	0.607273	0.608785	0.894931
	C198	C	0.407626	0.609870	0.084714
	C199	C	0.408351	0.411761	0.894714
	C200	C	0.103040	0.608750	0.390259
	C201	C	0.914731	0.609369	0.589811
	C202	C	0.103294	0.408975	0.590256
	C203	C	0.914370	0.410546	0.391177
	C204	C	0.908352	0.604356	0.088625
	C205	C	0.107806	0.415026	0.089554
	C206	C	0.106824	0.604216	0.891417
	C207	C	0.908179	0.414244	0.890962
	C208	C	0.109083	0.909422	0.583724
	C209	C	0.109135	0.109758	0.393553
	C210	C	0.908527	0.107926	0.584124
	C211	C	0.908997	0.910178	0.394084
	C212	C	0.602450	0.109577	0.890239
	C213	C	0.413704	0.110559	0.089749
	C214	C	0.603092	0.909592	0.089717
	C215	C	0.414156	0.911823	0.890550
	Zn216	Zn	0.508243	0.010094	0.739508
	Zn217	Zn	0.508850	0.010205	0.240022
	Zn218	Zn	0.757701	0.509593	-0.010330
	Zn219	Zn	0.257536	0.509728	-0.009809
	Zn220	Zn	0.009058	0.759613	0.489022
	Zn221	Zn	0.008513	0.259172	0.490125
	Zn222	Zn	0.008386	0.509018	0.740592
	Zn223	Zn	0.008338	0.510139	0.239806
	Zn224	Zn	0.508348	0.759379	-0.010600
	Zn225	Zn	0.508138	0.260441	-0.010584
	Zn226	Zn	0.758598	0.009065	0.488513
	Zn227	Zn	0.259123	0.009295	0.488697
	N228	N	0.423058	0.972674	0.667351
	N229	N	0.593569	0.047165	0.667173
	N230	N	0.593536	0.972869	0.312059
	N231	N	0.423562	0.047043	0.311587
	N232	N	0.686856	0.423480	0.952673
	N233	N	0.686613	0.595792	0.026728
	N234	N	0.328349	0.596439	0.952668
	N235	N	0.330113	0.424675	0.027053
	N236	N	0.971967	0.688495	0.402965
	N237	N	0.046160	0.688075	0.575880
	N238	N	0.971739	0.330144	0.576749
	N239	N	0.045978	0.331835	0.404907
	N240	N	0.971286	0.424036	0.667912
	N241	N	0.046303	0.594726	0.668612
	N242	N	0.971214	0.594918	0.311719
	N243	N	0.045222	0.424060	0.311583
	N244	N	0.421824	0.688649	0.952186
	N245	N	0.592301	0.686522	0.027505
	N246	N	0.593080	0.332156	0.952040
	N247	N	0.423337	0.332624	0.026730
	N248	N	0.687392	0.973166	0.402390
	N249	N	0.687226	0.046618	0.574713
	N250	N	0.330627	0.972559	0.574782
	N251	N	0.330557	0.046605	0.403050
	N252	N	0.923648	0.472476	0.167439
	N253	N	0.093213	0.547065	0.167801
	N254	N	0.093073	0.472212	0.813189
	N255	N	0.922548	0.546074	0.812301
	N256	N	0.187388	0.923622	0.451483
	N257	N	0.187972	0.095508	0.525785
	N258	N	0.830169	0.094830	0.451632
	N259	N	0.829829	0.922344	0.525731
	N260	N	0.470812	0.188685	0.903722
	N261	N	0.545608	0.188553	0.075129
	N262	N	0.471088	0.831365	0.075303
	N263	N	0.545248	0.831415	0.903909
	N264	N	0.471125	0.925211	0.167440
	N265	N	0.545512	0.096010	0.167895
	N266	N	0.471197	0.096785	0.810305
	N267	N	0.545542	0.924385	0.811420
	N268	N	0.922347	0.188346	0.452627
	N269	N	0.093219	0.186509	0.526810
	N270	N	0.094450	0.830966	0.451284
	N271	N	0.924325	0.831689	0.526432
	N272	N	0.186405	0.472692	0.904286
	N273	N	0.186905	0.546333	0.076851
	N274	N	0.829327	0.472652	0.076200
	N275	N	0.829533	0.546101	0.903628
	O276	O	0.984450	1.001731	0.005944
	H277	H	0.978342	1.007439	0.006230
	H278	H	0.982532	0.997781	-0.003145
	O279	O	-0.037470	-0.017600	0.925275
	H280	H	-0.035433	-0.013287	0.927604
	H281	H	-0.037876	-0.016673	0.925502
	O282	O	0.559048	-0.514311	0.523085
	H283	H	0.557762	-0.524170	0.519675
	H284	H	0.553232	-0.515364	0.519413
	O285	O	0.487926	0.467261	0.523490
	H286	H	0.483042	0.465741	0.522788
	H287	H	0.490479	0.471376	0.522291
	O288	O	0.003623	-0.019356	-0.035966
	H289	H	0.002671	-0.021712	-0.046176
	H290	H	-0.000881	-0.013389	-0.031189
	O291	O	0.036193	0.912800	-0.051836
	H292	H	0.046286	0.921141	-0.053519
	H293	H	0.027165	0.904938	-0.055329
	O294	O	-0.472957	0.538813	-0.490432
	H295	H	-0.473731	0.535490	-0.486883
	H296	H	-0.478111	0.544162	-0.489026
	O297	O	0.437071	0.614170	0.516644
	H298	H	0.441915	0.619234	0.516554
	H299	H	0.439563	0.599474	0.515208
	O300	O	0.541986	0.517629	0.487294
	H301	H	0.534939	0.520376	0.481594
	H302	H	0.542819	0.514114	0.486058
	O303	O	1.004294	-0.075702	0.946948
	H304	H	1.006402	-0.082605	0.935517
	H305	H	1.005708	-0.076024	0.951269
	O306	O	-0.016868	1.008066	0.963056
	H307	H	-0.025756	1.009281	0.963541
	H308	H	-0.017493	1.001605	0.972045
	O309	O	-0.507133	0.575134	1.454912
	H310	H	-0.494156	0.568535	1.458186
	H311	H	-0.506102	0.574889	1.458237
	O312	O	0.012634	0.046154	0.961361
	H313	H	0.013117	0.040304	0.967911
	H314	H	0.017218	0.045027	0.962441
	O315	O	0.492395	0.420079	0.495115
	H316	H	0.483399	0.419143	0.498703
	H317	H	0.496463	0.432639	0.495831
	O318	O	-0.004739	-0.005809	0.963184
	H319	H	-0.008683	-0.005502	0.956633
	H320	H	-0.006484	-0.011773	0.962191
	O321	O	0.999936	0.990260	0.924303
	H322	H	1.002503	0.992319	0.934342
	H323	H	1.012837	0.989282	0.921368
	O324	O	-0.037486	-0.944599	0.960629
	H325	H	-0.034054	-0.945916	0.963690
	H326	H	-0.029862	-0.937925	0.961988
	O327	O	1.067353	1.028743	0.990507
	H328	H	1.074089	1.018122	0.986424
	H329	H	1.070069	1.033281	0.985284
	O330	O	0.537749	0.482864	0.525580
	H331	H	0.534031	0.486689	0.525104
	H332	H	0.542699	0.484843	0.521156
	O333	O	0.493597	0.547840	0.492515
	H334	H	0.499297	0.545804	0.491479
	H335	H	0.490001	0.544822	0.494072
	O336	O	0.562300	0.595211	0.529214
	H337	H	0.559659	0.590130	0.528126
	H338	H	0.569827	0.603007	0.530051
	O339	O	0.512899	0.509282	0.512746
	H340	H	0.518510	0.508746	0.520085
	H341	H	0.511359	0.512193	0.515966
	O342	O	0.560161	0.545979	0.478663
	H343	H	0.563060	0.548503	0.480954
	H344	H	0.564468	0.558127	0.481632
	O345	O	0.534793	0.470599	0.573477
	H346	H	0.535686	0.460178	0.578027
	H347	H	0.538877	0.468091	0.566269
