data_Molecule from HDF5

_cell_length_a		16.156737
_cell_length_b		16.330354
_cell_length_c		16.283315
_cell_angle_alpha	90.127480
_cell_angle_beta	89.914378
_cell_angle_gamma	90.203809
_symmetry_space_group_name_H-M	'P 1'
_symmetry_Int_Tables_number		1

loop_
	_symmetry_equiv_pos_as_xyz
	x,y,z

loop_
	_atom_site_label
	_atom_site_type_symbol
	_atom_site_fract_x
	_atom_site_fract_y
	_atom_site_fract_z
	H0	H	0.406075	0.847931	0.705842
	H1	H	0.607268	0.174087	0.706054
	H2	H	0.606616	0.848235	0.273868
	H3	H	0.405363	0.173237	0.273148
	H4	H	0.720125	0.415096	0.825476
	H5	H	0.720662	0.610492	0.153160
	H6	H	0.296776	0.606241	0.824586
	H7	H	0.292211	0.413974	0.152606
	H8	H	0.842528	0.726194	0.392505
	H9	H	0.171621	0.728602	0.589384
	H10	H	0.843364	0.297331	0.590269
	H11	H	0.171580	0.298258	0.388901
	H12	H	0.842972	0.413613	0.704171
	H13	H	0.173009	0.611656	0.702724
	H14	H	0.842915	0.612821	0.276019
	H15	H	0.172173	0.415410	0.275367
	H16	H	0.409209	0.725642	0.826152
	H17	H	0.608270	0.728152	0.152217
	H18	H	0.607229	0.295511	0.826737
	H19	H	0.403042	0.295043	0.152099
	H20	H	0.721161	0.847625	0.392460
	H21	H	0.721721	0.174617	0.590024
	H22	H	0.289611	0.847498	0.588778
	H23	H	0.293927	0.175116	0.392960
	H24	H	0.905813	0.349706	0.205867
	H25	H	0.106848	0.676428	0.204189
	H26	H	0.107043	0.349910	0.773531
	H27	H	0.910413	0.676248	0.775705
	H28	H	0.219931	0.913964	0.326860
	H29	H	0.221214	0.110846	0.653841
	H30	H	0.794048	0.110032	0.325733
	H31	H	0.794432	0.916207	0.655037
	H32	H	0.341561	0.224731	0.890835
	H33	H	0.669896	0.228033	0.089906
	H34	H	0.342954	0.796707	0.088259
	H35	H	0.671890	0.797590	0.889224
	H36	H	0.342522	0.911746	0.204249
	H37	H	0.671211	0.112217	0.204439
	H38	H	0.342128	0.108882	0.775365
	H39	H	0.671995	0.914003	0.776011
	H40	H	0.907980	0.227999	0.326426
	H41	H	0.107499	0.228750	0.653438
	H42	H	0.107726	0.795999	0.327957
	H43	H	0.905023	0.796913	0.653495
	H44	H	0.219650	0.348214	0.891976
	H45	H	0.222370	0.676186	0.086269
	H46	H	0.791549	0.349205	0.087595
	H47	H	0.794026	0.676068	0.892097
	H48	H	0.419929	0.124312	0.580588
	H49	H	0.593750	0.894566	0.587493
	H50	H	0.603948	0.130315	0.391148
	H51	H	0.414909	0.894375	0.392924
	H52	H	0.585049	0.420682	0.101367
	H53	H	0.598791	0.602931	0.873296
	H54	H	0.417073	0.605781	0.105423
	H55	H	0.411033	0.421287	0.872466
	H56	H	0.126970	0.609772	0.394305
	H57	H	0.889863	0.602797	0.586738
	H58	H	0.125829	0.422208	0.584489
	H59	H	0.886437	0.408792	0.397387
	H60	H	0.125155	0.417669	0.580467
	H61	H	0.888776	0.608490	0.583615
	H62	H	0.122991	0.607010	0.404158
	H63	H	0.894923	0.424101	0.408801
	H64	H	0.413296	0.606453	0.107226
	H65	H	0.598495	0.610425	0.871429
	H66	H	0.601254	0.409689	0.109965
	H67	H	0.419232	0.416975	0.873477
	H68	H	0.591344	0.124809	0.395128
	H69	H	0.599571	0.897434	0.577049
	H70	H	0.408778	0.127921	0.580635
	H71	H	0.416979	0.896514	0.399893
	H72	H	0.915321	0.628575	0.084278
	H73	H	0.092520	0.399560	0.081022
	H74	H	0.097929	0.627829	0.898230
	H75	H	0.917543	0.397646	0.896172
	H76	H	0.097415	0.921147	0.606508
	H77	H	0.105850	0.102975	0.372818
	H78	H	0.902019	0.106322	0.610577
	H79	H	0.920316	0.914701	0.374653
	H80	H	0.624984	0.106408	0.898616
	H81	H	0.387863	0.108002	0.082933
	H82	H	0.629243	0.904666	0.080920
	H83	H	0.389645	0.925012	0.890489
	H84	H	0.618180	0.927427	0.069462
	H85	H	0.391367	0.101175	0.077458
	H86	H	0.622486	0.104178	0.899718
	H87	H	0.386280	0.908233	0.895097
	H88	H	0.920326	0.096853	0.601417
	H89	H	0.094063	0.103719	0.375941
	H90	H	0.097084	0.919964	0.607182
	H91	H	0.908643	0.916449	0.371506
	H92	H	0.105631	0.629508	0.897948
	H93	H	0.103527	0.396550	0.078854
	H94	H	0.915388	0.628454	0.083108
	H95	H	0.912496	0.395911	0.897771
	H96	H	0.415525	0.127493	0.589724
	H97	H	0.605954	0.892484	0.585907
	H98	H	0.602213	0.125501	0.405216
	H99	H	0.409884	0.895063	0.398430
	H100	H	0.604445	0.430238	0.104034
	H101	H	0.604935	0.606607	0.870731
	H102	H	0.414505	0.602846	0.106322
	H103	H	0.411396	0.411560	0.870558
	H104	H	0.123284	0.599126	0.396202
	H105	H	0.891388	0.602989	0.579975
	H106	H	0.123710	0.423788	0.579077
	H107	H	0.889408	0.428063	0.388345
	H108	H	0.914004	0.628851	0.083453
	H109	H	0.099767	0.394533	0.089766
	H110	H	0.101546	0.630594	0.891682
	H111	H	0.913411	0.396171	0.892766
	H112	H	0.097919	0.920000	0.607457
	H113	H	0.099832	0.113010	0.371567
	H114	H	0.921061	0.118727	0.608510
	H115	H	0.915097	0.924801	0.376086
	H116	H	0.624245	0.104292	0.896905
	H117	H	0.388868	0.099540	0.086633
	H118	H	0.626426	0.927761	0.095381
	H119	H	0.392839	0.919250	0.906904
	C120	C	0.384913	0.019039	0.612221
	C121	C	0.628631	1.002805	0.612114
	C122	C	0.628645	0.019365	0.368181
	C123	C	0.384746	1.002754	0.368384
	C124	C	0.627120	0.390894	-0.002571
	C125	C	0.629408	0.634621	0.980424
	C126	C	0.386029	0.633078	-0.001828
	C127	C	0.384389	0.388939	0.980334
	C128	C	0.015773	0.634093	0.369387
	C129	C	0.998949	0.634096	0.611694
	C130	C	0.016218	0.391604	0.610705
	C131	C	0.998969	0.391751	0.368679
	C132	C	0.884729	0.521072	0.112549
	C133	C	0.128558	0.504653	0.111349
	C134	C	0.129485	0.521029	0.867555
	C135	C	0.886178	0.504411	0.867669
	C136	C	0.127043	0.891209	0.499103
	C137	C	0.129135	0.135022	0.481636
	C138	C	0.885366	0.135296	0.498457
	C139	C	0.885581	0.890953	0.482486
	C140	C	0.515020	0.132489	0.869251
	C141	C	0.497623	0.133207	0.111854
	C142	C	0.515840	0.890436	0.110714
	C143	C	0.498593	0.889883	0.868562
	C144	C	0.386087	0.896353	0.667492
	C145	C	0.626809	0.125433	0.667747
	C146	C	0.626842	0.896832	0.312454
	C147	C	0.386047	0.124901	0.311990
	C148	C	0.682839	0.393661	0.874651
	C149	C	0.683847	0.631522	0.103932
	C150	C	0.332580	0.628572	0.874212
	C151	C	0.329182	0.392705	0.103709
	C152	C	0.891702	0.688757	0.371496
	C153	C	0.122704	0.690176	0.609509
	C154	C	0.892362	0.335887	0.609309
	C155	C	0.122443	0.336504	0.369645
	C156	C	0.892120	0.393539	0.666231
	C157	C	0.123541	0.631892	0.665774
	C158	C	0.892066	0.632523	0.313719
	C159	C	0.122789	0.394679	0.313129
	C160	C	0.388807	0.687659	0.874850
	C161	C	0.627803	0.690079	0.103441
	C162	C	0.626521	0.334420	0.875201
	C163	C	0.384666	0.333884	0.103392
	C164	C	0.683949	0.896593	0.371215
	C165	C	0.684230	0.125611	0.610320
	C166	C	0.328428	0.896291	0.609251
	C167	C	0.330636	0.125943	0.371777
	C168	C	0.885980	0.398600	0.167941
	C169	C	0.127279	0.627520	0.166298
	C170	C	0.126736	0.398257	0.812167
	C171	C	0.889377	0.627449	0.813244
	C172	C	0.182571	0.893342	0.375854
	C173	C	0.183928	0.131928	0.604744
	C174	C	0.830938	0.131443	0.374975
	C175	C	0.831126	0.895043	0.605868
	C176	C	0.390819	0.186998	0.870976
	C177	C	0.620883	0.189968	0.110242
	C178	C	0.392090	0.834579	0.108848
	C179	C	0.622729	0.835576	0.870118
	C180	C	0.391724	0.891799	0.166238
	C181	C	0.621477	0.132231	0.167211
	C182	C	0.391089	0.129369	0.813697
	C183	C	0.622664	0.892977	0.813330
	C184	C	0.887850	0.189724	0.375102
	C185	C	0.127404	0.190672	0.604488
	C186	C	0.126853	0.834522	0.376505
	C187	C	0.885820	0.835205	0.604931
	C188	C	0.182578	0.397327	0.871061
	C189	C	0.184693	0.627369	0.107797
	C190	C	0.829299	0.398132	0.108950
	C191	C	0.831979	0.627471	0.871532
	C192	C	0.407901	0.104505	0.590108
	C193	C	0.606262	0.916986	0.590139
	C194	C	0.605927	0.104774	0.390614
	C195	C	0.407281	0.917425	0.390600
	C196	C	0.603642	0.413592	0.083095
	C197	C	0.607446	0.612993	0.894171
	C198	C	0.408361	0.611382	0.084032
	C199	C	0.407086	0.410399	0.894439
	C200	C	0.102006	0.611921	0.391619
	C201	C	0.912448	0.611401	0.590027
	C202	C	0.102610	0.414442	0.588029
	C203	C	0.912596	0.413923	0.391542
	C204	C	0.907884	0.606517	0.090093
	C205	C	0.105381	0.419014	0.089608
	C206	C	0.107967	0.607011	0.889325
	C207	C	0.907896	0.418735	0.889309
	C208	C	0.104155	0.913837	0.584835
	C209	C	0.106461	0.113074	0.395652
	C210	C	0.907646	0.113738	0.584361
	C211	C	0.908330	0.912304	0.396154
	C212	C	0.601488	0.111189	0.891821
	C213	C	0.411553	0.109806	0.089003
	C214	C	0.602176	0.913225	0.088495
	C215	C	0.412053	0.911162	0.890870
	Zn216	Zn	0.507113	0.011076	0.740872
	Zn217	Zn	0.506870	0.011284	0.239131
	Zn218	Zn	0.756661	0.512404	-0.010702
	Zn219	Zn	0.257620	0.511518	-0.010953
	Zn220	Zn	0.006619	0.762083	0.490610
	Zn221	Zn	0.007515	0.263834	0.489650
	Zn222	Zn	0.007875	0.512741	0.738921
	Zn223	Zn	0.007003	0.513448	0.241143
	Zn224	Zn	0.507642	0.762224	-0.010247
	Zn225	Zn	0.505617	0.261544	-0.009919
	Zn226	Zn	0.757341	0.012216	0.490486
	Zn227	Zn	0.255811	0.011764	0.490119
	N228	N	0.420460	0.973596	0.669635
	N229	N	0.592922	0.047989	0.668902
	N230	N	0.593411	0.974228	0.310366
	N231	N	0.419199	0.047289	0.309908
	N232	N	0.683272	0.428069	0.951780
	N233	N	0.684948	0.597849	0.026491
	N234	N	0.330915	0.595280	0.951785
	N235	N	0.328809	0.426280	0.026277
	N236	N	0.969453	0.689851	0.405498
	N237	N	0.044497	0.691428	0.576528
	N238	N	0.970496	0.334696	0.575516
	N239	N	0.044383	0.334463	0.403393
	N240	N	0.970124	0.427768	0.667078
	N241	N	0.045548	0.597588	0.667310
	N242	N	0.970090	0.599034	0.312290
	N243	N	0.044880	0.428317	0.312563
	N244	N	0.421416	0.690540	0.952938
	N245	N	0.594832	0.692279	0.025520
	N246	N	0.592614	0.332608	0.952865
	N247	N	0.417928	0.331084	0.025682
	N248	N	0.685271	0.973963	0.405210
	N249	N	0.685309	0.048489	0.576142
	N250	N	0.327699	0.973567	0.575516
	N251	N	0.329555	0.049091	0.406056
	N252	N	0.919960	0.476057	0.170087
	N253	N	0.093082	0.550338	0.168458
	N254	N	0.094408	0.476168	0.809758
	N255	N	0.922397	0.550038	0.810731
	N256	N	0.182797	0.927790	0.452924
	N257	N	0.184991	0.098145	0.527322
	N258	N	0.829049	0.098433	0.452773
	N259	N	0.830780	0.928880	0.528590
	N260	N	0.468887	0.189107	0.904784
	N261	N	0.542785	0.190959	0.076649
	N262	N	0.470157	0.833716	0.075030
	N263	N	0.544509	0.833295	0.903746
	N264	N	0.469726	0.925691	0.167577
	N265	N	0.543682	0.097810	0.168482
	N266	N	0.469201	0.096171	0.812623
	N267	N	0.544611	0.926212	0.812545
	N268	N	0.920812	0.192409	0.452829
	N269	N	0.094168	0.192902	0.526690
	N270	N	0.092748	0.833294	0.454122
	N271	N	0.919197	0.832704	0.527087
	N272	N	0.184397	0.474577	0.904728
	N273	N	0.185692	0.549876	0.074404
	N274	N	0.828295	0.475341	0.075466
	N275	N	0.830125	0.550016	0.904817
	O276	O	1.014839	1.076353	0.042184
	H277	H	1.015775	1.076266	0.039034
	H278	H	1.016560	1.079135	0.033751
	O279	O	-0.001768	-0.060645	1.023971
	H280	H	0.000443	-0.060974	1.028337
	H281	H	-0.006179	-0.070760	1.017029
	O282	O	0.475249	-0.534148	0.483937
	H283	H	0.471607	-0.531805	0.484259
	H284	H	0.478327	-0.538828	0.491488
	O285	O	0.562500	0.397076	0.339463
	H286	H	0.552982	0.391292	0.333674
	H287	H	0.582215	0.390737	0.335362
	O288	O	0.055132	0.079480	0.077081
	H289	H	0.045068	0.088260	0.077734
	H290	H	0.055672	0.082957	0.082011
	O291	O	-0.003125	1.033952	-0.021155
	H292	H	-0.004582	1.036094	-0.016570
	H293	H	-0.009180	1.033025	-0.026006
	O294	O	-0.473271	0.488716	-0.540822
	H295	H	-0.480930	0.480073	-0.546432
	H296	H	-0.457821	0.493219	-0.544883
	O297	O	0.521316	0.393209	0.419997
	H298	H	0.522206	0.390266	0.410577
	H299	H	0.521589	0.389682	0.418445
	O300	O	0.457841	0.481065	0.457028
	H301	H	0.459268	0.482227	0.458790
	H302	H	0.466075	0.469639	0.454538
	O303	O	1.061922	0.064165	0.960467
	H304	H	1.063948	0.062327	0.969539
	H305	H	1.054367	0.057617	0.959313
	O306	O	0.013223	1.024960	1.003962
	H307	H	0.016230	1.025414	1.009002
	H308	H	0.019903	1.023013	1.003852
	O309	O	-0.455586	0.586464	1.433248
	H310	H	-0.453566	0.584799	1.419990
	H311	H	-0.459025	0.576032	1.422797
	O312	O	-0.050621	0.067393	0.978685
	H313	H	-0.056826	0.071245	0.968592
	H314	H	-0.045428	0.070819	0.977511
	O315	O	0.511559	0.451362	0.537461
	H316	H	0.530382	0.449663	0.542626
	H317	H	0.502542	0.459997	0.556600
	O318	O	0.040123	0.027539	1.086887
	H319	H	0.046043	0.032617	1.092362
	H320	H	0.033586	0.030646	1.079063
	O321	O	0.969933	0.975442	1.031584
	H322	H	0.957430	0.968249	1.032963
	H323	H	0.974144	0.971745	1.041872
	O324	O	0.093974	-1.011353	0.976662
	H325	H	0.094201	-1.001677	0.983463
	H326	H	0.096255	-1.014060	0.976820
	O327	O	0.953794	0.962336	0.958467
	H328	H	0.957025	0.962547	0.947640
	H329	H	0.955549	0.958119	0.963584
	O330	O	0.507505	0.471655	0.427989
	H331	H	0.506263	0.477727	0.427775
	H332	H	0.497069	0.473746	0.430478
	O333	O	0.568601	0.485932	0.445760
	H334	H	0.570921	0.496089	0.436872
	H335	H	0.566528	0.485459	0.456513
	O336	O	0.540250	0.425779	0.538028
	H337	H	0.522847	0.420183	0.551464
	H338	H	0.539161	0.417903	0.546146
	O339	O	0.545629	0.536176	0.545308
	H340	H	0.540158	0.541710	0.540731
	H341	H	0.543316	0.539904	0.539612
	O342	O	0.538373	0.467460	0.424537
	H343	H	0.542946	0.464824	0.424309
	H344	H	0.539322	0.463455	0.417233
	O345	O	0.521025	0.428385	0.491626
	H346	H	0.515166	0.420795	0.492791
	H347	H	0.526709	0.437438	0.483223
