data_Molecule from HDF5

_cell_length_a		16.238371
_cell_length_b		16.274198
_cell_length_c		16.275483
_cell_angle_alpha	89.910605
_cell_angle_beta	89.588677
_cell_angle_gamma	89.595530
_symmetry_space_group_name_H-M	'P 1'
_symmetry_Int_Tables_number		1

loop_
	_symmetry_equiv_pos_as_xyz
	x,y,z

loop_
	_atom_site_label
	_atom_site_type_symbol
	_atom_site_fract_x
	_atom_site_fract_y
	_atom_site_fract_z
	H0	H	0.392856	0.837667	0.715719
	H1	H	0.591093	0.163790	0.715550
	H2	H	0.597614	0.839787	0.282086
	H3	H	0.391240	0.164161	0.281206
	H4	H	0.716270	0.398111	0.838555
	H5	H	0.706521	0.597802	0.164462
	H6	H	0.280418	0.600747	0.837130
	H7	H	0.277570	0.397362	0.161844
	H8	H	0.831535	0.720284	0.401406
	H9	H	0.158587	0.717477	0.597568
	H10	H	0.830484	0.289223	0.604426
	H11	H	0.155704	0.285110	0.398666
	H12	H	0.831641	0.405240	0.717893
	H13	H	0.158055	0.604697	0.715547
	H14	H	0.831792	0.606589	0.284458
	H15	H	0.156479	0.400766	0.283301
	H16	H	0.392420	0.718271	0.837994
	H17	H	0.596563	0.718280	0.161148
	H18	H	0.599149	0.284945	0.835833
	H19	H	0.396165	0.283610	0.161948
	H20	H	0.714641	0.841266	0.395152
	H21	H	0.705748	0.166070	0.598509
	H22	H	0.276979	0.839006	0.600336
	H23	H	0.276151	0.164980	0.398725
	H24	H	0.894700	0.340050	0.219362
	H25	H	0.094379	0.665796	0.214198
	H26	H	0.099237	0.340958	0.779427
	H27	H	0.894006	0.666341	0.786303
	H28	H	0.212110	0.901800	0.336926
	H29	H	0.208750	0.103489	0.662866
	H30	H	0.778182	0.105063	0.335735
	H31	H	0.778495	0.904799	0.662345
	H32	H	0.333638	0.218997	0.898420
	H33	H	0.659561	0.212098	0.097602
	H34	H	0.331493	0.784077	0.102460
	H35	H	0.657390	0.783114	0.897229
	H36	H	0.332118	0.899470	0.218786
	H37	H	0.656842	0.101379	0.215175
	H38	H	0.330652	0.100946	0.786647
	H39	H	0.656646	0.898175	0.781177
	H40	H	0.890544	0.224106	0.338235
	H41	H	0.091095	0.218746	0.663321
	H42	H	0.096692	0.787448	0.337351
	H43	H	0.892794	0.788166	0.662041
	H44	H	0.213054	0.338495	0.897056
	H45	H	0.212222	0.663626	0.100139
	H46	H	0.781396	0.337436	0.101270
	H47	H	0.777036	0.664044	0.902061
	H48	H	0.398027	0.118409	0.592368
	H49	H	0.592189	0.885268	0.585696
	H50	H	0.581145	0.119129	0.400195
	H51	H	0.399721	0.887425	0.415327
	H52	H	0.590304	0.406652	0.116548
	H53	H	0.582953	0.586492	0.886999
	H54	H	0.397838	0.584540	0.115401
	H55	H	0.395697	0.414538	0.881768
	H56	H	0.112792	0.588441	0.395901
	H57	H	0.880377	0.595097	0.589973
	H58	H	0.111226	0.410767	0.591897
	H59	H	0.883182	0.424498	0.419734
	H60	H	0.109422	0.409090	0.586446
	H61	H	0.877802	0.594704	0.598733
	H62	H	0.115559	0.608582	0.406939
	H63	H	0.874173	0.418241	0.396427
	H64	H	0.411488	0.590143	0.112670
	H65	H	0.584520	0.596242	0.883216
	H66	H	0.584901	0.405245	0.116133
	H67	H	0.413715	0.413465	0.887306
	H68	H	0.580188	0.115706	0.411722
	H69	H	0.587463	0.883073	0.596695
	H70	H	0.401501	0.117433	0.595383
	H71	H	0.400039	0.883627	0.402990
	H72	H	0.903108	0.615021	0.085316
	H73	H	0.087005	0.384360	0.094387
	H74	H	0.094286	0.619666	0.908680
	H75	H	0.910866	0.387997	0.907871
	H76	H	0.085071	0.916172	0.614228
	H77	H	0.079267	0.094171	0.386010
	H78	H	0.906356	0.102038	0.615112
	H79	H	0.901849	0.910934	0.381875
	H80	H	0.614974	0.095138	0.899513
	H81	H	0.376609	0.093452	0.096687
	H82	H	0.610556	0.910605	0.095069
	H83	H	0.378750	0.915128	0.904783
	H84	H	0.611963	0.902382	0.088150
	H85	H	0.378920	0.097786	0.084232
	H86	H	0.611530	0.094443	0.910705
	H87	H	0.375056	0.902438	0.905502
	H88	H	0.889545	0.100328	0.620142
	H89	H	0.085915	0.098431	0.383554
	H90	H	0.080744	0.907106	0.615870
	H91	H	0.903258	0.914413	0.383972
	H92	H	0.083154	0.619231	0.901700
	H93	H	0.083306	0.386950	0.092707
	H94	H	0.891969	0.620649	0.093496
	H95	H	0.904756	0.385844	0.912272
	H96	H	0.402065	0.116255	0.591200
	H97	H	0.580349	0.888387	0.588304
	H98	H	0.590675	0.119863	0.407198
	H99	H	0.410489	0.888506	0.408377
	H100	H	0.588715	0.401707	0.118064
	H101	H	0.592435	0.588989	0.882873
	H102	H	0.400517	0.598691	0.119150
	H103	H	0.404653	0.398169	0.880312
	H104	H	0.106231	0.589682	0.417692
	H105	H	0.876466	0.602310	0.593710
	H106	H	0.108148	0.414689	0.588359
	H107	H	0.875424	0.401537	0.415004
	H108	H	0.905562	0.618124	0.098894
	H109	H	0.086578	0.386642	0.090297
	H110	H	0.082924	0.614443	0.913956
	H111	H	0.904247	0.385084	0.905002
	H112	H	0.090851	0.908722	0.618742
	H113	H	0.086561	0.090359	0.385637
	H114	H	0.898645	0.086896	0.612024
	H115	H	0.905825	0.910968	0.383338
	H116	H	0.610650	0.084834	0.903629
	H117	H	0.381980	0.085933	0.087559
	H118	H	0.607274	0.912032	0.085322
	H119	H	0.380331	0.908414	0.916243
	C120	C	0.371248	0.009623	0.622089
	C121	C	0.614549	0.993409	0.619806
	C122	C	0.615805	0.011216	0.376601
	C123	C	0.372295	0.993738	0.377991
	C124	C	0.618840	0.376299	0.008902
	C125	C	0.615535	0.620401	0.991707
	C126	C	0.373402	0.621701	0.008500
	C127	C	0.374175	0.378094	0.990617
	C128	C	0.003687	0.625841	0.378181
	C129	C	0.986230	0.625932	0.622064
	C130	C	0.002286	0.382319	0.621221
	C131	C	0.984895	0.383000	0.379271
	C132	C	0.871704	0.510554	0.123217
	C133	C	0.115635	0.493580	0.121410
	C134	C	0.117444	0.510668	0.877162
	C135	C	0.874904	0.493935	0.879696
	C136	C	0.116512	0.881211	0.508510
	C137	C	0.113607	0.124054	0.492067
	C138	C	0.869629	0.126816	0.508317
	C139	C	0.873223	0.882703	0.490645
	C140	C	0.504278	0.121921	0.876549
	C141	C	0.486804	0.121442	0.119609
	C142	C	0.502778	0.878894	0.120936
	C143	C	0.485537	0.878075	0.877742
	C144	C	0.372951	0.886877	0.677791
	C145	C	0.611769	0.115592	0.677121
	C146	C	0.616557	0.888439	0.320278
	C147	C	0.371817	0.115835	0.320197
	C148	C	0.676739	0.378194	0.886645
	C149	C	0.669883	0.618406	0.114799
	C150	C	0.317890	0.620778	0.885998
	C151	C	0.316467	0.378123	0.113167
	C152	C	0.880595	0.682592	0.380409
	C153	C	0.109470	0.680542	0.618700
	C154	C	0.879629	0.327073	0.622606
	C155	C	0.107040	0.324147	0.379006
	C156	C	0.880200	0.384495	0.679538
	C157	C	0.109411	0.623688	0.677046
	C158	C	0.880554	0.625910	0.322531
	C159	C	0.107655	0.381975	0.322045
	C160	C	0.373740	0.679341	0.886529
	C161	C	0.614875	0.678261	0.113320
	C162	C	0.618311	0.321992	0.885367
	C163	C	0.375541	0.321533	0.113113
	C164	C	0.675025	0.889519	0.376428
	C165	C	0.668536	0.116686	0.618599
	C166	C	0.315470	0.887295	0.620149
	C167	C	0.314686	0.116284	0.378796
	C168	C	0.874086	0.388319	0.180720
	C169	C	0.114357	0.616675	0.176509
	C170	C	0.118214	0.389100	0.818580
	C171	C	0.874473	0.616901	0.824090
	C172	C	0.173790	0.882397	0.385870
	C173	C	0.169994	0.123236	0.614275
	C174	C	0.814798	0.125678	0.385309
	C175	C	0.816456	0.884389	0.613414
	C176	C	0.381901	0.179977	0.878644
	C177	C	0.609792	0.175988	0.118059
	C178	C	0.380437	0.822304	0.121565
	C179	C	0.608365	0.821294	0.877646
	C180	C	0.380418	0.880132	0.179158
	C181	C	0.608448	0.120693	0.176656
	C182	C	0.380385	0.121047	0.823023
	C183	C	0.607959	0.878540	0.819781
	C184	C	0.870759	0.184885	0.386384
	C185	C	0.111417	0.180405	0.614647
	C186	C	0.116259	0.825447	0.386040
	C187	C	0.873484	0.826373	0.613186
	C188	C	0.174908	0.388038	0.877031
	C189	C	0.173001	0.615449	0.119782
	C190	C	0.818177	0.386821	0.121740
	C191	C	0.816166	0.615892	0.881562
	C192	C	0.393792	0.095301	0.599371
	C193	C	0.592948	0.907570	0.596880
	C194	C	0.591204	0.096159	0.399483
	C195	C	0.396247	0.908727	0.402002
	C196	C	0.594987	0.398258	0.094522
	C197	C	0.593000	0.597283	0.906400
	C198	C	0.396432	0.597993	0.093629
	C199	C	0.397530	0.401798	0.905393
	C200	C	0.089187	0.602452	0.400188
	C201	C	0.900499	0.603892	0.600551
	C202	C	0.087787	0.404925	0.596178
	C203	C	0.899501	0.407623	0.403295
	C204	C	0.893707	0.595787	0.099521
	C205	C	0.092416	0.408297	0.099148
	C206	C	0.093658	0.595742	0.901142
	C207	C	0.899484	0.408573	0.901984
	C208	C	0.092574	0.903991	0.594039
	C209	C	0.090785	0.100992	0.407129
	C210	C	0.891795	0.103494	0.593774
	C211	C	0.896644	0.905579	0.405064
	C212	C	0.590110	0.098308	0.898182
	C213	C	0.401203	0.098924	0.096311
	C214	C	0.587974	0.901610	0.096594
	C215	C	0.400129	0.901731	0.901867
	Zn216	Zn	0.493523	0.000101	0.749852
	Zn217	Zn	0.494350	0.001494	0.248780
	Zn218	Zn	0.744763	0.500063	0.000770
	Zn219	Zn	0.244873	0.500384	0.000018
	Zn220	Zn	-0.005124	0.753938	0.499419
	Zn221	Zn	-0.007655	0.254125	0.500145
	Zn222	Zn	-0.004764	0.503370	0.749487
	Zn223	Zn	-0.005678	0.503749	0.250798
	Zn224	Zn	0.494794	0.749899	-0.000475
	Zn225	Zn	0.496524	0.249224	-0.001161
	Zn226	Zn	0.743144	0.003351	0.498578
	Zn227	Zn	0.243401	0.002344	0.500114
	N228	N	0.406916	0.964074	0.679154
	N229	N	0.578902	0.037899	0.678008
	N230	N	0.580246	0.965111	0.320186
	N231	N	0.407040	0.038696	0.319723
	N232	N	0.677359	0.411160	0.964279
	N233	N	0.670218	0.582819	0.038108
	N234	N	0.317569	0.585361	0.962701
	N235	N	0.315337	0.412509	0.035931
	N236	N	0.958133	0.682799	0.414074
	N237	N	0.032022	0.682057	0.585105
	N238	N	0.956516	0.325904	0.586858
	N239	N	0.029708	0.324734	0.414031
	N240	N	0.957662	0.418251	0.678807
	N241	N	0.031737	0.590505	0.679272
	N242	N	0.958109	0.591224	0.320835
	N243	N	0.030650	0.417776	0.322066
	N244	N	0.407717	0.680053	0.963773
	N245	N	0.581905	0.679695	0.035620
	N246	N	0.582862	0.320744	0.962503
	N247	N	0.410551	0.321313	0.035959
	N248	N	0.674569	0.966604	0.410835
	N249	N	0.670372	0.039706	0.583730
	N250	N	0.314328	0.964715	0.586208
	N251	N	0.314865	0.039348	0.413876
	N252	N	0.906710	0.466273	0.181944
	N253	N	0.079529	0.539860	0.177778
	N254	N	0.083287	0.466299	0.818541
	N255	N	0.910427	0.540080	0.822954
	N256	N	0.173774	0.916636	0.463132
	N257	N	0.171502	0.088814	0.537211
	N258	N	0.814186	0.090018	0.462095
	N259	N	0.816091	0.918787	0.535977
	N260	N	0.459985	0.180855	0.910944
	N261	N	0.532993	0.176331	0.082921
	N262	N	0.457486	0.821602	0.085948
	N263	N	0.531148	0.820875	0.912743
	N264	N	0.457553	0.914663	0.178982
	N265	N	0.530946	0.087106	0.177460
	N266	N	0.457404	0.085486	0.821773
	N267	N	0.530489	0.913174	0.819658
	N268	N	0.904069	0.185747	0.463782
	N269	N	0.077073	0.181113	0.537654
	N270	N	0.081512	0.824589	0.463304
	N271	N	0.907865	0.825075	0.535837
	N272	N	0.174557	0.464604	0.912948
	N273	N	0.173764	0.537985	0.086152
	N274	N	0.816575	0.463868	0.086816
	N275	N	0.816254	0.538398	0.915299
	O276	O	1.047119	-0.075176	1.016101
	H277	H	1.049893	-0.062024	1.004805
	H278	H	1.051601	-0.084429	1.004638
	O279	O	0.511940	0.400420	0.570804
	H280	H	0.506856	0.405689	0.574021
	H281	H	0.513905	0.400261	0.578964
	O282	O	0.524640	0.594378	0.565192
	H283	H	0.523973	0.589883	0.560748
	H284	H	0.519865	0.599347	0.568679
	O285	O	0.590408	0.395504	0.413081
	H286	H	0.594053	0.394918	0.405678
	H287	H	0.614029	0.394264	0.404799
	O288	O	0.443052	0.436794	0.480174
	H289	H	0.436252	0.426234	0.475925
	H290	H	0.438164	0.438458	0.480447
	O291	O	0.086570	0.037608	1.122006
	H292	H	0.092505	0.023725	1.104690
	H293	H	0.089036	0.032005	1.122080
	O294	O	1.040528	1.101493	0.012792
	H295	H	1.043359	1.097093	0.012423
	H296	H	1.028592	1.099552	0.029448
	O297	O	0.914681	0.987397	0.049425
	H298	H	0.913773	0.987499	0.044283
	H299	H	0.905119	0.992963	0.047648
	O300	O	0.464683	0.484457	0.402660
	H301	H	0.476774	0.476454	0.401528
	H302	H	0.475340	0.487329	0.412048
	O303	O	0.474631	0.479630	0.648646
	H304	H	0.474268	0.478626	0.645174
	H305	H	0.471619	0.478986	0.645786
	O306	O	0.407848	0.426382	0.599062
	H307	H	0.410191	0.422263	0.602424
	H308	H	0.416515	0.424929	0.598654
	O309	O	0.525825	0.516926	0.402691
	H310	H	0.523971	0.522670	0.392050
	H311	H	0.531943	0.521347	0.407726
	O312	O	1.002150	1.070296	1.028433
	H313	H	1.000161	1.069143	1.024158
	H314	H	1.008177	1.080954	1.018989
	O315	O	1.088266	1.012949	0.119633
	H316	H	1.094659	1.009338	0.119054
	H317	H	1.092007	1.002865	0.116250
	O318	O	0.375352	0.434666	0.636041
	H319	H	0.369624	0.438784	0.634225
	H320	H	0.377843	0.442448	0.638532
	O321	O	0.575775	0.378010	0.592276
	H322	H	0.571620	0.370774	0.585634
	H323	H	0.577836	0.383630	0.594831
	O324	O	0.044168	0.855561	0.991174
	H325	H	0.029341	0.846494	0.991858
	H326	H	0.052664	0.850936	0.985462
	O327	O	-0.077669	1.023412	0.996915
	H328	H	-0.065463	1.019295	1.004277
	H329	H	-0.093322	1.013723	1.003418
	O330	O	-0.056846	-0.138904	0.011598
	H331	H	-0.069155	-0.126912	-0.000658
	H332	H	-0.071314	-0.154373	0.034405
	O333	O	0.526909	0.520513	0.547385
	H334	H	0.514482	0.533958	0.548651
	H335	H	0.540879	0.510828	0.540852
	O336	O	0.000099	0.124962	0.006304
	H337	H	-0.007557	0.124853	0.007702
	H338	H	0.000647	0.110285	0.024119
	O339	O	-0.064508	0.028909	0.145821
	H340	H	-0.065636	0.030874	0.152366
	H341	H	-0.053025	0.024232	0.149142
	O342	O	0.643841	0.667086	0.579257
	H343	H	0.658917	0.670982	0.584483
	H344	H	0.633289	0.670973	0.580228
	O345	O	-0.087033	0.995505	0.910764
	H346	H	-0.078035	1.002479	0.909746
	H347	H	-0.073149	1.009099	0.907783
	O348	O	0.420038	0.597282	0.435713
	H349	H	0.413254	0.594650	0.435159
	H350	H	0.423876	0.610417	0.422487
	O351	O	0.430082	0.420188	0.421300
	H352	H	0.437920	0.420558	0.418780
	H353	H	0.433024	0.417261	0.436185
	O354	O	0.097976	1.021871	-0.135511
	H355	H	0.096726	1.032040	-0.138313
	H356	H	0.110959	1.016066	-0.117944
	O357	O	0.564885	0.592222	0.497790
	H358	H	0.566114	0.604172	0.504138
	H359	H	0.555327	0.588871	0.509257
	O360	O	1.086028	0.065758	1.131241
	H361	H	1.076643	0.055506	1.133837
	H362	H	1.085199	0.066063	1.140618
	O363	O	0.336667	0.577235	0.371808
	H364	H	0.324628	0.571420	0.366593
	H365	H	0.341574	0.577408	0.384710
	O366	O	0.550138	0.376119	0.386969
	H367	H	0.548125	0.375162	0.382249
	H368	H	0.547957	0.374663	0.394787
	O369	O	1.049122	-0.034239	-0.052538
	H370	H	1.050906	-0.034232	-0.053377
	H371	H	1.053222	-0.036464	-0.052686
	O372	O	0.493923	0.608103	0.448905
	H373	H	0.506057	0.612805	0.449722
	H374	H	0.502089	0.585996	0.453587
	O375	O	0.944887	0.096037	0.933375
	H376	H	0.945002	0.102486	0.939541
	H377	H	0.949811	0.097182	0.933450
	O378	O	-0.105537	1.005317	-0.000056
	H379	H	-0.108165	1.017418	0.013759
	H380	H	-0.098181	1.007664	-0.009881
	O381	O	0.601225	0.586805	0.629678
	H382	H	0.593471	0.579705	0.633455
	H383	H	0.595404	0.588828	0.630656
	O384	O	0.946100	0.952088	-0.068442
	H385	H	0.940956	0.951108	-0.071462
	H386	H	0.948131	0.959340	-0.068974
	O387	O	1.063392	0.007344	0.985470
	H388	H	1.061175	0.005546	0.978528
	H389	H	1.055755	0.021793	0.992800
	O390	O	1.022311	0.933913	-0.108743
	H391	H	1.028858	0.947350	-0.118024
	H392	H	1.027044	0.931853	-0.109354
	O393	O	0.509099	0.542787	0.366184
	H394	H	0.487762	0.537660	0.363835
	H395	H	0.507667	0.547518	0.361240
