data_Molecule from HDF5

_cell_length_a		16.231916
_cell_length_b		16.231503
_cell_length_c		16.291264
_cell_angle_alpha	90.332032
_cell_angle_beta	89.846991
_cell_angle_gamma	90.098287
_symmetry_space_group_name_H-M	'P 1'
_symmetry_Int_Tables_number		1

loop_
	_symmetry_equiv_pos_as_xyz
	x,y,z

loop_
	_atom_site_label
	_atom_site_type_symbol
	_atom_site_fract_x
	_atom_site_fract_y
	_atom_site_fract_z
	H0	H	0.405796	0.836778	0.706271
	H1	H	0.605083	0.163944	0.709750
	H2	H	0.605235	0.837305	0.277450
	H3	H	0.406390	0.164423	0.278738
	H4	H	0.719793	0.401982	0.828356
	H5	H	0.721057	0.600982	0.155880
	H6	H	0.292858	0.598411	0.828803
	H7	H	0.289332	0.402934	0.155780
	H8	H	0.840860	0.714177	0.395655
	H9	H	0.169210	0.716760	0.591116
	H10	H	0.841631	0.289119	0.589824
	H11	H	0.169786	0.286461	0.391551
	H12	H	0.841943	0.403581	0.706428
	H13	H	0.169538	0.601998	0.706777
	H14	H	0.841603	0.600124	0.278296
	H15	H	0.169412	0.402511	0.276225
	H16	H	0.408981	0.713553	0.829001
	H17	H	0.604547	0.716700	0.155943
	H18	H	0.604232	0.285469	0.829131
	H19	H	0.406361	0.287783	0.157145
	H20	H	0.719686	0.837363	0.394667
	H21	H	0.717972	0.165867	0.592031
	H22	H	0.289827	0.837183	0.591183
	H23	H	0.292625	0.165632	0.396071
	H24	H	0.905260	0.337306	0.206377
	H25	H	0.104446	0.665171	0.207225
	H26	H	0.105255	0.337515	0.776190
	H27	H	0.908097	0.665568	0.779921
	H28	H	0.220656	0.901753	0.329955
	H29	H	0.219041	0.101122	0.656601
	H30	H	0.790697	0.098848	0.329172
	H31	H	0.790192	0.904022	0.656945
	H32	H	0.341283	0.214157	0.896127
	H33	H	0.669804	0.215212	0.090450
	H34	H	0.341164	0.788544	0.090114
	H35	H	0.669920	0.787698	0.894605
	H36	H	0.341694	0.901301	0.207586
	H37	H	0.669884	0.100108	0.206145
	H38	H	0.341449	0.098666	0.779664
	H39	H	0.669190	0.900669	0.776832
	H40	H	0.906087	0.215362	0.329302
	H41	H	0.103962	0.218174	0.655475
	H42	H	0.104449	0.785844	0.329389
	H43	H	0.906147	0.787594	0.656502
	H44	H	0.219410	0.337453	0.892887
	H45	H	0.218584	0.665515	0.090934
	H46	H	0.791596	0.336418	0.089179
	H47	H	0.793187	0.665366	0.896250
	H48	H	0.405640	0.118092	0.579602
	H49	H	0.610055	0.880278	0.584940
	H50	H	0.591238	0.115175	0.405524
	H51	H	0.415143	0.883505	0.395861
	H52	H	0.594045	0.402535	0.109204
	H53	H	0.597549	0.602266	0.874011
	H54	H	0.420943	0.592414	0.105981
	H55	H	0.416160	0.399409	0.874976
	H56	H	0.125001	0.591062	0.387593
	H57	H	0.888208	0.592300	0.589206
	H58	H	0.124407	0.407807	0.587530
	H59	H	0.887975	0.414654	0.387889
	H60	H	0.122617	0.408141	0.580451
	H61	H	0.887114	0.596732	0.587755
	H62	H	0.123716	0.604526	0.404297
	H63	H	0.885198	0.395883	0.399131
	H64	H	0.410603	0.604608	0.112895
	H65	H	0.608909	0.592241	0.874179
	H66	H	0.606524	0.408508	0.111621
	H67	H	0.404812	0.408082	0.874877
	H68	H	0.605874	0.120118	0.402742
	H69	H	0.592099	0.882700	0.595081
	H70	H	0.409558	0.121620	0.596908
	H71	H	0.414112	0.885605	0.403592
	H72	H	0.910045	0.619196	0.084671
	H73	H	0.095867	0.382734	0.090323
	H74	H	0.102424	0.617874	0.904477
	H75	H	0.903002	0.380852	0.897612
	H76	H	0.099240	0.905663	0.611194
	H77	H	0.107127	0.081612	0.377138
	H78	H	0.906138	0.098627	0.611907
	H79	H	0.912144	0.908789	0.376554
	H80	H	0.622942	0.091573	0.897254
	H81	H	0.387606	0.090970	0.091728
	H82	H	0.625190	0.904221	0.088522
	H83	H	0.387953	0.904925	0.901301
	H84	H	0.621535	0.907024	0.079589
	H85	H	0.386975	0.098872	0.087563
	H86	H	0.622549	0.096240	0.901388
	H87	H	0.389516	0.910247	0.900079
	H88	H	0.912656	0.090587	0.607577
	H89	H	0.085601	0.094949	0.379497
	H90	H	0.100322	0.912856	0.609589
	H91	H	0.913197	0.908327	0.377201
	H92	H	0.102555	0.620669	0.894706
	H93	H	0.092914	0.387152	0.079752
	H94	H	0.913564	0.619150	0.090100
	H95	H	0.919835	0.382331	0.889489
	H96	H	0.422579	0.115048	0.586685
	H97	H	0.593563	0.887583	0.575100
	H98	H	0.595687	0.119913	0.392037
	H99	H	0.408594	0.883058	0.398785
	H100	H	0.595449	0.416197	0.106233
	H101	H	0.595629	0.588179	0.878673
	H102	H	0.403958	0.588435	0.110030
	H103	H	0.417196	0.412560	0.879174
	H104	H	0.116988	0.584679	0.406283
	H105	H	0.888540	0.594207	0.584932
	H106	H	0.121992	0.414475	0.584072
	H107	H	0.893433	0.413478	0.409421
	H108	H	0.915631	0.616291	0.085077
	H109	H	0.104052	0.383178	0.081901
	H110	H	0.093355	0.617683	0.898589
	H111	H	0.917325	0.387830	0.907772
	H112	H	0.093372	0.909653	0.608692
	H113	H	0.106999	0.106068	0.370167
	H114	H	0.916503	0.100389	0.609161
	H115	H	0.912718	0.906847	0.376738
	H116	H	0.620801	0.090859	0.902942
	H117	H	0.389805	0.092010	0.082745
	H118	H	0.621033	0.914496	0.086747
	H119	H	0.387114	0.906629	0.896198
	C120	C	0.384083	0.009442	0.614804
	C121	C	0.627063	0.992033	0.614488
	C122	C	0.626871	0.010142	0.371328
	C123	C	0.384295	0.992547	0.371521
	C124	C	0.627389	0.379719	0.000879
	C125	C	0.628366	0.622920	0.983886
	C126	C	0.384175	0.622696	0.001272
	C127	C	0.383590	0.378753	0.984443
	C128	C	0.013619	0.622141	0.371265
	C129	C	0.996605	0.623511	0.614973
	C130	C	0.014653	0.381150	0.612905
	C131	C	0.997094	0.379068	0.369544
	C132	C	0.884029	0.509549	0.114165
	C133	C	0.126638	0.492614	0.113429
	C134	C	0.127605	0.510085	0.870360
	C135	C	0.885000	0.492561	0.870855
	C136	C	0.126869	0.879754	0.501614
	C137	C	0.127909	0.123421	0.483831
	C138	C	0.883308	0.124004	0.501367
	C139	C	0.883611	0.879715	0.484848
	C140	C	0.513824	0.121826	0.871883
	C141	C	0.496795	0.123234	0.115339
	C142	C	0.514305	0.879585	0.113926
	C143	C	0.496605	0.878619	0.870534
	C144	C	0.385695	0.885811	0.669167
	C145	C	0.624973	0.115350	0.670972
	C146	C	0.625403	0.886389	0.315552
	C147	C	0.386604	0.115769	0.316735
	C148	C	0.682115	0.381521	0.877453
	C149	C	0.682920	0.620827	0.107060
	C150	C	0.330251	0.619239	0.877868
	C151	C	0.327700	0.382095	0.107076
	C152	C	0.890076	0.676940	0.374601
	C153	C	0.120281	0.678676	0.611399
	C154	C	0.890621	0.326886	0.610223
	C155	C	0.120588	0.324081	0.371288
	C156	C	0.891016	0.383399	0.668327
	C157	C	0.120541	0.621869	0.669162
	C158	C	0.890458	0.620252	0.316186
	C159	C	0.120502	0.381596	0.313720
	C160	C	0.387856	0.676511	0.877966
	C161	C	0.624729	0.678108	0.107301
	C162	C	0.624910	0.323630	0.877912
	C163	C	0.385854	0.324834	0.107776
	C164	C	0.682273	0.886540	0.373655
	C165	C	0.681040	0.116399	0.612492
	C166	C	0.328224	0.886139	0.611695
	C167	C	0.329860	0.116341	0.375147
	C168	C	0.885591	0.386145	0.168608
	C169	C	0.124547	0.616131	0.169381
	C170	C	0.125519	0.386470	0.814548
	C171	C	0.887997	0.616441	0.817537
	C172	C	0.182630	0.881647	0.378734
	C173	C	0.181872	0.121587	0.607461
	C174	C	0.828209	0.120396	0.378176
	C175	C	0.828012	0.883050	0.607860
	C176	C	0.390284	0.176442	0.875506
	C177	C	0.620301	0.178570	0.112313
	C178	C	0.390647	0.825184	0.111223
	C179	C	0.620571	0.824395	0.873457
	C180	C	0.390756	0.881692	0.169359
	C181	C	0.620579	0.120681	0.169293
	C182	C	0.390492	0.119158	0.817373
	C183	C	0.620160	0.880706	0.815192
	C184	C	0.886205	0.177591	0.377972
	C185	C	0.124572	0.179371	0.606914
	C186	C	0.124761	0.824116	0.378488
	C187	C	0.885651	0.825222	0.607699
	C188	C	0.182475	0.386531	0.872458
	C189	C	0.181507	0.616314	0.111622
	C190	C	0.829033	0.385679	0.110488
	C191	C	0.830713	0.616337	0.875250
	C192	C	0.406231	0.095841	0.594040
	C193	C	0.604992	0.905682	0.591786
	C194	C	0.604150	0.096085	0.393588
	C195	C	0.406188	0.906307	0.393149
	C196	C	0.605340	0.402410	0.086867
	C197	C	0.606914	0.600766	0.897863
	C198	C	0.405551	0.601570	0.087434
	C199	C	0.406065	0.400203	0.898508
	C200	C	0.099595	0.600005	0.392900
	C201	C	0.910393	0.600969	0.593746
	C202	C	0.100743	0.403498	0.590618
	C203	C	0.911078	0.401447	0.392008
	C204	C	0.906477	0.595897	0.092840
	C205	C	0.104105	0.406627	0.090627
	C206	C	0.105797	0.596347	0.892623
	C207	C	0.906818	0.406071	0.891978
	C208	C	0.104286	0.902687	0.587659
	C209	C	0.106329	0.100837	0.398002
	C210	C	0.905317	0.102746	0.587252
	C211	C	0.906028	0.901578	0.398967
	C212	C	0.599915	0.099494	0.894009
	C213	C	0.410493	0.100711	0.093667
	C214	C	0.600561	0.901998	0.091456
	C215	C	0.410403	0.900494	0.892770
	Zn216	Zn	0.505754	-0.000013	0.742809
	Zn217	Zn	0.505613	0.000562	0.242788
	Zn218	Zn	0.756767	0.500401	-0.007931
	Zn219	Zn	0.255205	0.501533	-0.007674
	Zn220	Zn	0.005081	0.750650	0.492963
	Zn221	Zn	0.005875	0.251808	0.492233
	Zn222	Zn	0.006353	0.501610	0.742364
	Zn223	Zn	0.005246	0.501021	0.241592
	Zn224	Zn	0.505370	0.751232	-0.007403
	Zn225	Zn	0.505810	0.250801	-0.007019
	Zn226	Zn	0.754931	0.001724	0.493181
	Zn227	Zn	0.255507	0.001364	0.493505
	N228	N	0.419652	0.963592	0.671258
	N229	N	0.592035	0.037129	0.672243
	N230	N	0.591826	0.964112	0.313826
	N231	N	0.419657	0.037851	0.314590
	N232	N	0.683900	0.415688	0.954995
	N233	N	0.685263	0.587300	0.029294
	N234	N	0.327854	0.586367	0.955640
	N235	N	0.326215	0.414909	0.029434
	N236	N	0.967735	0.678311	0.408166
	N237	N	0.042349	0.679720	0.578450
	N238	N	0.968404	0.325220	0.576318
	N239	N	0.042961	0.322341	0.405285
	N240	N	0.969033	0.416600	0.670053
	N241	N	0.042667	0.588158	0.671519
	N242	N	0.968124	0.586648	0.314195
	N243	N	0.042687	0.415012	0.312591
	N244	N	0.420646	0.678701	0.955647
	N245	N	0.591254	0.679486	0.029800
	N246	N	0.591404	0.322460	0.955557
	N247	N	0.420139	0.322812	0.030487
	N248	N	0.683277	0.964407	0.407652
	N249	N	0.682584	0.038657	0.578253
	N250	N	0.327107	0.963905	0.578520
	N251	N	0.328130	0.038574	0.408482
	N252	N	0.919063	0.464065	0.170909
	N253	N	0.091093	0.538283	0.170548
	N254	N	0.092228	0.464212	0.813093
	N255	N	0.921033	0.538487	0.814669
	N256	N	0.183860	0.915638	0.456455
	N257	N	0.183900	0.087411	0.530015
	N258	N	0.826373	0.087652	0.455725
	N259	N	0.826735	0.916436	0.530395
	N260	N	0.468012	0.177950	0.908804
	N261	N	0.542355	0.180070	0.079253
	N262	N	0.468325	0.823887	0.077295
	N263	N	0.542742	0.822926	0.907252
	N264	N	0.468799	0.914827	0.171140
	N265	N	0.542629	0.087091	0.171541
	N266	N	0.468241	0.085756	0.815209
	N267	N	0.542250	0.913802	0.813287
	N268	N	0.919551	0.180269	0.455649
	N269	N	0.091873	0.180944	0.529094
	N270	N	0.090997	0.822716	0.455939
	N271	N	0.919628	0.823142	0.530198
	N272	N	0.183736	0.464303	0.906526
	N273	N	0.183006	0.538568	0.077522
	N274	N	0.827920	0.463427	0.077484
	N275	N	0.828602	0.538161	0.907380
	O276	O	1.040870	1.070084	0.030792
	H277	H	1.040763	1.068879	0.038247
	H278	H	1.034856	1.068736	0.031948
	O279	O	0.019531	-0.001385	0.953377
	H280	H	0.020989	0.001199	0.940780
	H281	H	0.015500	-0.002931	0.950224
	O282	O	-0.035366	0.028201	0.062449
	H283	H	-0.024625	0.028650	0.058446
	H284	H	-0.028199	0.037353	0.064286
	O285	O	0.550394	0.533419	0.499586
	H286	H	0.556532	0.531146	0.496677
	H287	H	0.558216	0.529156	0.503607
	O288	O	-0.049695	-0.059539	-0.031889
	H289	H	-0.055679	-0.062708	-0.028273
	H290	H	-0.058089	-0.058035	-0.032502
	O291	O	0.008474	1.034624	0.047008
	H292	H	0.002892	1.033145	0.047669
	H293	H	0.009925	1.028047	0.052218
	O294	O	0.039040	1.011784	-0.040068
	H295	H	0.034465	1.019926	-0.037635
	H296	H	0.042804	1.009555	-0.036171
	O297	O	0.515048	0.461809	0.509326
	H298	H	0.513284	0.455663	0.503280
	H299	H	0.516187	0.454554	0.513165
	O300	O	0.520474	0.500554	0.460202
	H301	H	0.521264	0.511734	0.457241
	H302	H	0.516951	0.497891	0.454149
	O303	O	0.970522	-0.029769	0.951833
	H304	H	0.972085	-0.036370	0.960902
	H305	H	0.967474	-0.027826	0.951527
	O306	O	0.025332	0.998439	0.973755
	H307	H	0.035652	1.001329	0.975161
	H308	H	0.027434	0.998366	0.970075
	O309	O	0.022949	0.992119	1.018852
	H310	H	0.022584	0.986790	1.024210
	H311	H	0.025651	0.991840	1.012338
	O312	O	-0.045591	-0.021847	1.017567
	H313	H	-0.046169	-0.022504	1.023377
	H314	H	-0.046274	-0.019560	1.022277
	O315	O	0.497114	0.463034	0.484930
	H316	H	0.496298	0.457055	0.482322
	H317	H	0.493120	0.466075	0.487345
	O318	O	-0.002251	0.001664	1.017217
	H319	H	-0.001529	0.003109	1.011581
	H320	H	-0.002193	0.001971	1.027866
	O321	O	0.575348	0.550229	0.464036
	H322	H	0.579687	0.547072	0.467268
	H323	H	0.561600	0.548439	0.464339
	O324	O	0.611089	-0.417444	1.431025
	H325	H	0.609078	-0.414042	1.439956
	H326	H	0.603816	-0.429633	1.434497
	O327	O	1.000423	1.020600	0.965604
	H328	H	1.005415	1.017370	0.971714
	H329	H	0.996730	1.015215	0.949777
	O330	O	0.514445	0.438120	0.424388
	H331	H	0.514149	0.434402	0.428428
	H332	H	0.516521	0.437272	0.414192
	O333	O	0.471836	0.479209	0.503969
	H334	H	0.469854	0.478609	0.507942
	H335	H	0.469269	0.477899	0.502019
	O336	O	0.430483	0.502533	0.445702
	H337	H	0.424184	0.502249	0.445771
	H338	H	0.424583	0.508685	0.456636
	O339	O	0.485750	0.539750	0.494797
	H340	H	0.503224	0.547703	0.492682
	H341	H	0.487395	0.540129	0.499955
	O342	O	0.484065	0.397640	0.492458
	H343	H	0.484072	0.391846	0.493827
	H344	H	0.487205	0.405766	0.484976
	O345	O	0.527682	0.492184	0.531513
	H346	H	0.532900	0.487925	0.521637
	H347	H	0.524664	0.493229	0.535554
