data_Molecule from HDF5

_cell_length_a		16.330543
_cell_length_b		16.296397
_cell_length_c		16.248070
_cell_angle_alpha	90.029144
_cell_angle_beta	89.873411
_cell_angle_gamma	90.158826
_symmetry_space_group_name_H-M	'P 1'
_symmetry_Int_Tables_number		1

loop_
	_symmetry_equiv_pos_as_xyz
	x,y,z

loop_
	_atom_site_label
	_atom_site_type_symbol
	_atom_site_fract_x
	_atom_site_fract_y
	_atom_site_fract_z
	H0	H	0.404347	0.842406	0.712659
	H1	H	0.599813	0.170219	0.712923
	H2	H	0.597515	0.841957	0.286796
	H3	H	0.404640	0.169694	0.285800
	H4	H	0.716782	0.407096	0.835429
	H5	H	0.715713	0.603753	0.164289
	H6	H	0.290310	0.602837	0.835000
	H7	H	0.286553	0.406763	0.163745
	H8	H	0.838916	0.719710	0.401323
	H9	H	0.164698	0.722300	0.598242
	H10	H	0.838644	0.290895	0.598062
	H11	H	0.166282	0.292260	0.400607
	H12	H	0.839125	0.406706	0.715576
	H13	H	0.166094	0.604914	0.713369
	H14	H	0.838352	0.602980	0.285822
	H15	H	0.165543	0.408214	0.284515
	H16	H	0.407423	0.717929	0.834699
	H17	H	0.601288	0.720887	0.163973
	H18	H	0.599945	0.292725	0.835115
	H19	H	0.403918	0.292023	0.163931
	H20	H	0.715903	0.842217	0.399757
	H21	H	0.717615	0.169639	0.598383
	H22	H	0.286456	0.842929	0.598488
	H23	H	0.288399	0.169736	0.401231
	H24	H	0.905193	0.341410	0.212768
	H25	H	0.100316	0.670026	0.212944
	H26	H	0.100454	0.341968	0.785639
	H27	H	0.906722	0.669908	0.786653
	H28	H	0.214975	0.909987	0.335361
	H29	H	0.216782	0.105861	0.662932
	H30	H	0.788785	0.103086	0.335329
	H31	H	0.787564	0.908477	0.663986
	H32	H	0.338832	0.220419	0.901685
	H33	H	0.665898	0.220494	0.096762
	H34	H	0.339011	0.790838	0.097474
	H35	H	0.666555	0.793024	0.902056
	H36	H	0.338041	0.908252	0.212997
	H37	H	0.665266	0.104315	0.213763
	H38	H	0.337701	0.102323	0.786500
	H39	H	0.666031	0.909651	0.784924
	H40	H	0.904753	0.219347	0.334762
	H41	H	0.099620	0.219992	0.663830
	H42	H	0.099054	0.793193	0.335324
	H43	H	0.902558	0.791464	0.663314
	H44	H	0.217014	0.342116	0.900580
	H45	H	0.217665	0.669334	0.098068
	H46	H	0.786397	0.342230	0.099270
	H47	H	0.787715	0.669575	0.900140
	H48	H	0.414072	0.122258	0.596598
	H49	H	0.587359	0.893227	0.589195
	H50	H	0.593677	0.120474	0.409498
	H51	H	0.407346	0.889576	0.408609
	H52	H	0.594579	0.410513	0.117436
	H53	H	0.594962	0.593466	0.885671
	H54	H	0.407238	0.598565	0.117113
	H55	H	0.418160	0.407868	0.884549
	H56	H	0.117873	0.606765	0.415278
	H57	H	0.887665	0.589981	0.600306
	H58	H	0.118398	0.412119	0.590636
	H59	H	0.886701	0.413383	0.405012
	H60	H	0.117456	0.414360	0.591747
	H61	H	0.882922	0.607400	0.595858
	H62	H	0.114829	0.589740	0.406788
	H63	H	0.884956	0.410233	0.405586
	H64	H	0.409115	0.597942	0.116535
	H65	H	0.591934	0.604338	0.883765
	H66	H	0.597743	0.413750	0.116483
	H67	H	0.401622	0.408687	0.879808
	H68	H	0.598726	0.122698	0.407488
	H69	H	0.600848	0.889574	0.586802
	H70	H	0.408090	0.120953	0.586149
	H71	H	0.406001	0.888695	0.405152
	H72	H	0.907685	0.622429	0.092743
	H73	H	0.109822	0.386454	0.089790
	H74	H	0.100240	0.624829	0.900539
	H75	H	0.913823	0.388636	0.897937
	H76	H	0.089429	0.918087	0.614260
	H77	H	0.090516	0.103651	0.382645
	H78	H	0.901834	0.095186	0.617217
	H79	H	0.905567	0.911173	0.381551
	H80	H	0.616937	0.097803	0.905933
	H81	H	0.384881	0.104374	0.092390
	H82	H	0.621496	0.912116	0.104430
	H83	H	0.383379	0.901167	0.906402
	H84	H	0.619180	0.903904	0.085401
	H85	H	0.387696	0.097137	0.088848
	H86	H	0.618934	0.100659	0.902882
	H87	H	0.390241	0.915707	0.914169
	H88	H	0.914965	0.094088	0.612810
	H89	H	0.101517	0.102150	0.380345
	H90	H	0.093119	0.907531	0.617788
	H91	H	0.908201	0.915239	0.383569
	H92	H	0.090894	0.620940	0.906250
	H93	H	0.090291	0.386894	0.105810
	H94	H	0.908816	0.622500	0.093912
	H95	H	0.914889	0.394412	0.916187
	H96	H	0.402220	0.125705	0.595414
	H97	H	0.595281	0.888410	0.599615
	H98	H	0.593610	0.122866	0.404309
	H99	H	0.409522	0.889779	0.405002
	H100	H	0.593442	0.414266	0.115048
	H101	H	0.601677	0.600256	0.880594
	H102	H	0.409380	0.599784	0.116663
	H103	H	0.409440	0.422656	0.885460
	H104	H	0.122502	0.604892	0.396292
	H105	H	0.889972	0.596598	0.582703
	H106	H	0.118282	0.412909	0.593546
	H107	H	0.886442	0.411432	0.407873
	H108	H	0.909168	0.621853	0.092018
	H109	H	0.087296	0.395139	0.081186
	H110	H	0.101110	0.621791	0.912418
	H111	H	0.898678	0.386784	0.909592
	H112	H	0.100635	0.916286	0.617658
	H113	H	0.095493	0.093291	0.384463
	H114	H	0.910235	0.106628	0.618070
	H115	H	0.910545	0.911113	0.382490
	H116	H	0.618338	0.101789	0.906928
	H117	H	0.385395	0.097045	0.097270
	H118	H	0.613729	0.923727	0.088276
	H119	H	0.385679	0.916284	0.897095
	C120	C	0.379962	0.014539	0.620841
	C121	C	0.623530	0.998336	0.620420
	C122	C	0.623460	0.014160	0.377792
	C123	C	0.380240	0.997778	0.378295
	C124	C	0.623716	0.384449	0.007713
	C125	C	0.624510	0.627970	0.991985
	C126	C	0.381416	0.626737	0.007819
	C127	C	0.380682	0.384714	0.991548
	C128	C	0.010400	0.628276	0.377510
	C129	C	0.994152	0.627589	0.621340
	C130	C	0.010295	0.384390	0.621009
	C131	C	0.994031	0.384070	0.377713
	C132	C	0.880405	0.514003	0.121632
	C133	C	0.123843	0.497933	0.120636
	C134	C	0.125009	0.514122	0.877834
	C135	C	0.881010	0.497972	0.878677
	C136	C	0.122777	0.885483	0.508104
	C137	C	0.123836	0.128240	0.491007
	C138	C	0.880967	0.126895	0.507323
	C139	C	0.879305	0.883917	0.490892
	C140	C	0.510151	0.127989	0.877278
	C141	C	0.493846	0.127909	0.121196
	C142	C	0.510293	0.884628	0.121022
	C143	C	0.494366	0.883830	0.877569
	C144	C	0.383233	0.891210	0.675358
	C145	C	0.620556	0.121466	0.675007
	C146	C	0.619467	0.890914	0.323601
	C147	C	0.383715	0.120849	0.323480
	C148	C	0.679068	0.386731	0.884311
	C149	C	0.678470	0.624651	0.115149
	C150	C	0.327729	0.623601	0.884100
	C151	C	0.324896	0.386623	0.114931
	C152	C	0.887455	0.682408	0.380158
	C153	C	0.116401	0.683844	0.618674
	C154	C	0.887340	0.328775	0.619029
	C155	C	0.117264	0.329696	0.380294
	C156	C	0.887678	0.386299	0.677224
	C157	C	0.117019	0.625684	0.676102
	C158	C	0.887291	0.624069	0.323083
	C159	C	0.117042	0.387519	0.322705
	C160	C	0.385955	0.680705	0.883925
	C161	C	0.621647	0.682974	0.115044
	C162	C	0.620977	0.329788	0.884202
	C163	C	0.383055	0.329561	0.115030
	C164	C	0.678798	0.891299	0.379551
	C165	C	0.679365	0.121035	0.618422
	C166	C	0.324676	0.891562	0.618587
	C167	C	0.325980	0.120970	0.380525
	C168	C	0.883927	0.390493	0.175763
	C169	C	0.120883	0.621208	0.175223
	C170	C	0.121054	0.390842	0.823313
	C171	C	0.884851	0.621073	0.824263
	C172	C	0.177790	0.888407	0.384444
	C173	C	0.178969	0.126122	0.614116
	C174	C	0.826266	0.124011	0.384002
	C175	C	0.824445	0.887014	0.614505
	C176	C	0.387282	0.182557	0.880697
	C177	C	0.617164	0.182437	0.117689
	C178	C	0.387242	0.829473	0.117984
	C179	C	0.617706	0.830193	0.880908
	C180	C	0.386993	0.887583	0.175352
	C181	C	0.616821	0.124790	0.175704
	C182	C	0.386620	0.123817	0.823757
	C183	C	0.617510	0.888270	0.822823
	C184	C	0.884007	0.181703	0.383817
	C185	C	0.120516	0.182777	0.614522
	C186	C	0.119614	0.831089	0.384223
	C187	C	0.881878	0.829225	0.614405
	C188	C	0.179239	0.390950	0.880196
	C189	C	0.179449	0.620748	0.118268
	C190	C	0.824904	0.390876	0.119373
	C191	C	0.826128	0.620803	0.880789
	C192	C	0.401759	0.100610	0.599253
	C193	C	0.600986	0.912527	0.598333
	C194	C	0.601667	0.099931	0.400482
	C195	C	0.401283	0.911701	0.400040
	C196	C	0.601781	0.406309	0.093931
	C197	C	0.602621	0.605911	0.905389
	C198	C	0.402421	0.605341	0.094367
	C199	C	0.403050	0.406705	0.905743
	C200	C	0.096110	0.606802	0.399504
	C201	C	0.908792	0.604567	0.599408
	C202	C	0.095955	0.406609	0.598634
	C203	C	0.908259	0.405328	0.399813
	C204	C	0.902200	0.600035	0.099560
	C205	C	0.101881	0.411745	0.098893
	C206	C	0.103553	0.600222	0.899774
	C207	C	0.902807	0.412022	0.901128
	C208	C	0.100747	0.907381	0.594283
	C209	C	0.102175	0.106226	0.404742
	C210	C	0.902717	0.104974	0.593678
	C211	C	0.901778	0.905996	0.404890
	C212	C	0.595947	0.106505	0.898973
	C213	C	0.407991	0.105868	0.099293
	C214	C	0.595946	0.906797	0.099093
	C215	C	0.408525	0.904841	0.899426
	Zn216	Zn	0.501613	0.006452	0.748904
	Zn217	Zn	0.501799	0.005942	0.250007
	Zn218	Zn	0.752242	0.505945	-0.000070
	Zn219	Zn	0.252572	0.505749	-0.000657
	Zn220	Zn	0.001505	0.756400	0.499513
	Zn221	Zn	0.002291	0.255585	0.499364
	Zn222	Zn	0.002716	0.506178	0.750361
	Zn223	Zn	0.002218	0.505949	0.249672
	Zn224	Zn	0.502409	0.755627	0.000224
	Zn225	Zn	0.502220	0.256439	-0.000394
	Zn226	Zn	0.752028	0.006141	0.499455
	Zn227	Zn	0.251843	0.006328	0.499582
	N228	N	0.416948	0.968618	0.676753
	N229	N	0.586627	0.044111	0.676491
	N230	N	0.585898	0.968034	0.322536
	N231	N	0.416813	0.043323	0.321887
	N232	N	0.680773	0.420143	0.962086
	N233	N	0.680331	0.591264	0.037406
	N234	N	0.324858	0.590722	0.962054
	N235	N	0.323359	0.420212	0.037187
	N236	N	0.964671	0.684776	0.413494
	N237	N	0.038955	0.685182	0.585444
	N238	N	0.964533	0.327480	0.584836
	N239	N	0.039757	0.327589	0.414025
	N240	N	0.965061	0.420230	0.678599
	N241	N	0.040075	0.591136	0.677659
	N242	N	0.964928	0.591224	0.321211
	N243	N	0.039718	0.420657	0.321060
	N244	N	0.418152	0.683099	0.962090
	N245	N	0.588568	0.684748	0.037267
	N246	N	0.587209	0.328244	0.961880
	N247	N	0.417130	0.328330	0.037518
	N248	N	0.681309	0.969251	0.412734
	N249	N	0.680902	0.043577	0.584868
	N250	N	0.322720	0.969287	0.585424
	N251	N	0.323757	0.043483	0.413961
	N252	N	0.917561	0.467961	0.177242
	N253	N	0.086984	0.543852	0.176644
	N254	N	0.088008	0.468512	0.821691
	N255	N	0.918201	0.543706	0.822956
	N256	N	0.179831	0.921507	0.462260
	N257	N	0.180998	0.092781	0.536272
	N258	N	0.824410	0.090738	0.461737
	N259	N	0.822697	0.920230	0.536757
	N260	N	0.464972	0.185121	0.913420
	N261	N	0.539668	0.184524	0.084632
	N262	N	0.464693	0.827638	0.084904
	N263	N	0.540189	0.827320	0.914121
	N264	N	0.464364	0.921316	0.177194
	N265	N	0.539251	0.091884	0.178001
	N266	N	0.464022	0.090814	0.821539
	N267	N	0.539967	0.920835	0.820761
	N268	N	0.917251	0.183588	0.461586
	N269	N	0.087118	0.184172	0.536915
	N270	N	0.086150	0.829194	0.462081
	N271	N	0.915197	0.827187	0.536556
	N272	N	0.181661	0.468520	0.913396
	N273	N	0.181341	0.543074	0.085074
	N274	N	0.822609	0.468682	0.086406
	N275	N	0.823671	0.543127	0.913921
	O276	O	0.539219	-0.504175	0.562645
	H277	H	0.527704	-0.508170	0.575319
	H278	H	0.545683	-0.498578	0.566583
	O279	O	0.553523	0.521701	0.542531
	H280	H	0.550933	0.514608	0.538495
	H281	H	0.566368	0.527362	0.536206
	O282	O	0.529987	0.513029	0.581980
	H283	H	0.529242	0.514928	0.583605
	H284	H	0.533487	0.517179	0.576598
	O285	O	0.560641	0.501927	0.529403
	H286	H	0.559870	0.503723	0.542422
	H287	H	0.557713	0.495499	0.522565
