data_Molecule from HDF5

_cell_length_a		16.155878
_cell_length_b		16.271299
_cell_length_c		16.386765
_cell_angle_alpha	89.965005
_cell_angle_beta	90.170081
_cell_angle_gamma	89.741763
_symmetry_space_group_name_H-M	'P 1'
_symmetry_Int_Tables_number		1

loop_
	_symmetry_equiv_pos_as_xyz
	x,y,z

loop_
	_atom_site_label
	_atom_site_type_symbol
	_atom_site_fract_x
	_atom_site_fract_y
	_atom_site_fract_z
	H0	H	0.399068	0.834430	0.718984
	H1	H	0.599095	0.160371	0.718713
	H2	H	0.599008	0.834379	0.287024
	H3	H	0.396414	0.161089	0.287811
	H4	H	0.712511	0.399392	0.839205
	H5	H	0.712981	0.595427	0.165757
	H6	H	0.280812	0.596636	0.839310
	H7	H	0.284978	0.401265	0.166025
	H8	H	0.833944	0.711277	0.402976
	H9	H	0.163901	0.708133	0.599471
	H10	H	0.833887	0.283438	0.600829
	H11	H	0.164376	0.283725	0.406588
	H12	H	0.833603	0.398135	0.715885
	H13	H	0.162026	0.596336	0.718016
	H14	H	0.834163	0.597869	0.286510
	H15	H	0.162493	0.395632	0.287002
	H16	H	0.397281	0.713748	0.839634
	H17	H	0.597251	0.712534	0.165195
	H18	H	0.597105	0.281849	0.839833
	H19	H	0.399290	0.282630	0.165325
	H20	H	0.711284	0.832635	0.407249
	H21	H	0.711578	0.161816	0.599028
	H22	H	0.288223	0.832283	0.598732
	H23	H	0.285403	0.161752	0.408068
	H24	H	0.897484	0.333815	0.218777
	H25	H	0.099290	0.658755	0.219750
	H26	H	0.098649	0.334116	0.787018
	H27	H	0.894190	0.659694	0.784001
	H28	H	0.213371	0.899591	0.338881
	H29	H	0.212575	0.093356	0.665916
	H30	H	0.783563	0.095470	0.339243
	H31	H	0.786235	0.898808	0.665180
	H32	H	0.332727	0.211044	0.905385
	H33	H	0.663744	0.209432	0.099633
	H34	H	0.332613	0.786298	0.099995
	H35	H	0.662512	0.783226	0.905773
	H36	H	0.333041	0.900676	0.216679
	H37	H	0.663216	0.096446	0.217210
	H38	H	0.334224	0.099107	0.786704
	H39	H	0.663278	0.897191	0.789696
	H40	H	0.900083	0.211786	0.339348
	H41	H	0.098043	0.211198	0.665157
	H42	H	0.098390	0.780674	0.338540
	H43	H	0.901249	0.780915	0.663928
	H44	H	0.211279	0.332476	0.905590
	H45	H	0.210423	0.661254	0.100117
	H46	H	0.785889	0.332539	0.098166
	H47	H	0.782569	0.661541	0.903736
	H48	H	0.407078	0.116710	0.606020
	H49	H	0.600042	0.877107	0.601176
	H50	H	0.590361	0.113292	0.410723
	H51	H	0.406890	0.877688	0.399784
	H52	H	0.583506	0.406196	0.114975
	H53	H	0.595376	0.588739	0.886106
	H54	H	0.383706	0.599298	0.125631
	H55	H	0.408232	0.408668	0.888721
	H56	H	0.112138	0.581873	0.415497
	H57	H	0.885229	0.583698	0.584646
	H58	H	0.114847	0.412355	0.600431
	H59	H	0.881317	0.407924	0.408945
	H60	H	0.119418	0.396634	0.602374
	H61	H	0.879818	0.582842	0.604311
	H62	H	0.117060	0.584902	0.402480
	H63	H	0.880589	0.402939	0.408339
	H64	H	0.406362	0.572051	0.111198
	H65	H	0.584921	0.587661	0.889889
	H66	H	0.593959	0.395195	0.120602
	H67	H	0.406423	0.397841	0.884780
	H68	H	0.592044	0.115184	0.407796
	H69	H	0.585028	0.881337	0.602467
	H70	H	0.415008	0.109839	0.591784
	H71	H	0.414629	0.883934	0.411318
	H72	H	0.912698	0.612619	0.099465
	H73	H	0.105387	0.376230	0.094782
	H74	H	0.084916	0.610613	0.914776
	H75	H	0.905084	0.381402	0.909892
	H76	H	0.095626	0.899912	0.618939
	H77	H	0.095105	0.093206	0.385160
	H78	H	0.905042	0.104074	0.622119
	H79	H	0.898595	0.906035	0.384658
	H80	H	0.612148	0.078619	0.909849
	H81	H	0.382390	0.083275	0.098221
	H82	H	0.613597	0.908079	0.092685
	H83	H	0.380247	0.909385	0.905152
	H84	H	0.616503	0.906699	0.100635
	H85	H	0.377557	0.097095	0.101867
	H86	H	0.620199	0.094855	0.901420
	H87	H	0.379409	0.902158	0.910006
	H88	H	0.894541	0.082622	0.619043
	H89	H	0.092901	0.085967	0.387292
	H90	H	0.093289	0.904170	0.616827
	H91	H	0.911594	0.908188	0.388902
	H92	H	0.095502	0.614919	0.909311
	H93	H	0.086027	0.377562	0.108535
	H94	H	0.906500	0.610617	0.088688
	H95	H	0.904922	0.380472	0.907497
	H96	H	0.397746	0.115025	0.590944
	H97	H	0.591979	0.883060	0.589041
	H98	H	0.589128	0.113998	0.407026
	H99	H	0.400414	0.880139	0.412939
	H100	H	0.598782	0.410199	0.118161
	H101	H	0.587985	0.597439	0.885788
	H102	H	0.420136	0.607297	0.117469
	H103	H	0.398110	0.405369	0.885957
	H104	H	0.117838	0.595282	0.412104
	H105	H	0.877601	0.600352	0.594313
	H106	H	0.113918	0.401878	0.587877
	H107	H	0.882631	0.404202	0.412090
	H108	H	0.899756	0.616374	0.099109
	H109	H	0.084499	0.384762	0.086490
	H110	H	0.084885	0.614510	0.902651
	H111	H	0.907248	0.381286	0.908638
	H112	H	0.091068	0.900819	0.617246
	H113	H	0.087387	0.091793	0.387393
	H114	H	0.918147	0.085703	0.613255
	H115	H	0.907376	0.895446	0.384123
	H116	H	0.613761	0.095620	0.919956
	H117	H	0.381445	0.093675	0.088077
	H118	H	0.615784	0.900195	0.095378
	H119	H	0.382796	0.909911	0.913281
	C120	C	0.378134	0.005613	0.624294
	C121	C	0.620711	0.989059	0.625165
	C122	C	0.619593	0.005591	0.380887
	C123	C	0.377369	0.989018	0.380782
	C124	C	0.620300	0.375283	0.010561
	C125	C	0.619186	0.619363	0.994812
	C126	C	0.374323	0.620879	0.010581
	C127	C	0.376246	0.375861	0.993973
	C128	C	0.006894	0.617379	0.380671
	C129	C	0.989781	0.617685	0.623397
	C130	C	0.006915	0.375387	0.624373
	C131	C	0.990284	0.375433	0.381419
	C132	C	0.877186	0.505377	0.123735
	C133	C	0.119550	0.488307	0.124454
	C134	C	0.118419	0.505067	0.880832
	C135	C	0.875970	0.489028	0.879981
	C136	C	0.121782	0.873301	0.510059
	C137	C	0.120187	0.118114	0.494230
	C138	C	0.876837	0.119541	0.510651
	C139	C	0.878021	0.875053	0.493334
	C140	C	0.506510	0.118902	0.881752
	C141	C	0.489864	0.119273	0.124027
	C142	C	0.506428	0.877077	0.124519
	C143	C	0.489684	0.877450	0.881743
	C144	C	0.380042	0.882549	0.679830
	C145	C	0.618929	0.111878	0.680264
	C146	C	0.618734	0.883011	0.325417
	C147	C	0.377455	0.112189	0.326020
	C148	C	0.674730	0.378391	0.887834
	C149	C	0.674866	0.615825	0.117065
	C150	C	0.318893	0.617618	0.887979
	C151	C	0.322607	0.380002	0.117411
	C152	C	0.883265	0.673838	0.382315
	C153	C	0.114215	0.671444	0.620566
	C154	C	0.883140	0.320696	0.621108
	C155	C	0.114621	0.320663	0.384877
	C156	C	0.882833	0.377777	0.678528
	C157	C	0.113198	0.616191	0.679686
	C158	C	0.883299	0.616827	0.324930
	C159	C	0.113756	0.376179	0.325756
	C160	C	0.376402	0.675998	0.888180
	C161	C	0.617307	0.674198	0.116946
	C162	C	0.617732	0.319901	0.888300
	C163	C	0.379214	0.321007	0.116849
	C164	C	0.674064	0.881859	0.385322
	C165	C	0.674844	0.112517	0.620826
	C166	C	0.324601	0.881666	0.620351
	C167	C	0.322023	0.112608	0.385457
	C168	C	0.878123	0.382229	0.179606
	C169	C	0.117960	0.610656	0.180524
	C170	C	0.117466	0.382357	0.825887
	C171	C	0.875438	0.611286	0.823090
	C172	C	0.176166	0.877448	0.387550
	C173	C	0.175155	0.114697	0.617024
	C174	C	0.821854	0.116328	0.387855
	C175	C	0.823702	0.878097	0.616399
	C176	C	0.382366	0.173974	0.884428
	C177	C	0.614402	0.172670	0.120479
	C178	C	0.381725	0.823509	0.120885
	C179	C	0.613560	0.821217	0.884897
	C180	C	0.382175	0.880258	0.178931
	C181	C	0.614068	0.116276	0.179086
	C182	C	0.382984	0.117901	0.825763
	C183	C	0.613804	0.878011	0.827341
	C184	C	0.879233	0.174608	0.388017
	C185	C	0.118094	0.173190	0.616719
	C186	C	0.119206	0.818309	0.387662
	C187	C	0.880666	0.819438	0.615730
	C188	C	0.173537	0.381718	0.884732
	C189	C	0.173232	0.611989	0.120844
	C190	C	0.822708	0.381808	0.119975
	C191	C	0.819943	0.612344	0.882573
	C192	C	0.399952	0.091448	0.602573
	C193	C	0.598766	0.902709	0.603850
	C194	C	0.597249	0.091846	0.402383
	C195	C	0.400471	0.902971	0.401780
	C196	C	0.598476	0.397243	0.095938
	C197	C	0.596168	0.597586	0.909327
	C198	C	0.396828	0.599272	0.096023
	C199	C	0.397790	0.397567	0.908697
	C200	C	0.093200	0.594104	0.403459
	C201	C	0.903272	0.595723	0.601057
	C202	C	0.093777	0.397243	0.603147
	C203	C	0.903800	0.398273	0.403312
	C204	C	0.899712	0.590901	0.102056
	C205	C	0.098218	0.401849	0.102805
	C206	C	0.095320	0.591102	0.902655
	C207	C	0.899077	0.403361	0.902131
	C208	C	0.099814	0.895159	0.595583
	C209	C	0.098154	0.096739	0.408693
	C210	C	0.899316	0.097367	0.595865
	C211	C	0.899452	0.896828	0.408102
	C212	C	0.593187	0.096331	0.903818
	C213	C	0.402978	0.097865	0.102526
	C214	C	0.592708	0.898541	0.102686
	C215	C	0.403258	0.900391	0.903078
	Zn216	Zn	0.498637	-0.002154	0.753406
	Zn217	Zn	0.498289	-0.002028	0.251945
	Zn218	Zn	0.748422	0.497393	0.001968
	Zn219	Zn	0.246976	0.497378	0.002122
	Zn220	Zn	-0.001110	0.744793	0.501504
	Zn221	Zn	-0.000873	0.247991	0.502529
	Zn222	Zn	-0.002189	0.497241	0.751823
	Zn223	Zn	-0.001847	0.496246	0.252885
	Zn224	Zn	0.497486	0.749216	0.002675
	Zn225	Zn	0.498369	0.247162	0.002660
	Zn226	Zn	0.748519	-0.003018	0.502462
	Zn227	Zn	0.249705	-0.003539	0.502740
	N228	N	0.412376	0.960594	0.682563
	N229	N	0.586111	0.034060	0.683015
	N230	N	0.585346	0.961003	0.322881
	N231	N	0.411278	0.034473	0.323131
	N232	N	0.676496	0.412151	0.964708
	N233	N	0.676178	0.582676	0.039808
	N234	N	0.317548	0.584114	0.965131
	N235	N	0.320682	0.413642	0.040251
	N236	N	0.961203	0.674111	0.416298
	N237	N	0.036412	0.672456	0.586200
	N238	N	0.961187	0.319416	0.587988
	N239	N	0.036910	0.320068	0.418759
	N240	N	0.961025	0.411023	0.680968
	N241	N	0.034808	0.583498	0.681678
	N242	N	0.961289	0.582481	0.323702
	N243	N	0.035262	0.409427	0.323422
	N244	N	0.409959	0.678492	0.965445
	N245	N	0.583244	0.676310	0.040013
	N246	N	0.584682	0.317984	0.965581
	N247	N	0.411739	0.318193	0.039339
	N248	N	0.674641	0.959196	0.419170
	N249	N	0.676299	0.035009	0.587336
	N250	N	0.323192	0.959092	0.586576
	N251	N	0.321823	0.035080	0.418858
	N252	N	0.911352	0.459909	0.182233
	N253	N	0.085375	0.532661	0.182805
	N254	N	0.083764	0.460065	0.823379
	N255	N	0.909788	0.533734	0.821410
	N256	N	0.178023	0.910705	0.464596
	N257	N	0.176619	0.081126	0.539931
	N258	N	0.820181	0.082742	0.464877
	N259	N	0.821895	0.912123	0.539444
	N260	N	0.460173	0.174574	0.918626
	N261	N	0.536304	0.174734	0.087063
	N262	N	0.459912	0.821181	0.087618
	N263	N	0.535585	0.820796	0.918139
	N264	N	0.460480	0.912830	0.181103
	N265	N	0.535502	0.083930	0.181422
	N266	N	0.461344	0.084203	0.824028
	N267	N	0.535719	0.912191	0.825087
	N268	N	0.912655	0.176879	0.465320
	N269	N	0.084750	0.175573	0.539498
	N270	N	0.086014	0.815692	0.465025
	N271	N	0.914011	0.817666	0.538629
	N272	N	0.174238	0.459263	0.918103
	N273	N	0.174473	0.534755	0.086792
	N274	N	0.821905	0.459102	0.085926
	N275	N	0.820297	0.535430	0.917260
	O276	O	1.006168	1.035709	-0.001771
	H277	H	1.008550	1.033738	-0.011362
	H278	H	0.997808	1.034255	-0.001080
	O279	O	-0.003717	-0.010403	-0.055587
	H280	H	-0.002660	-0.012986	-0.058709
	H281	H	-0.019172	-0.013317	-0.057895
	O282	O	-0.005933	-0.011608	1.011376
	H283	H	-0.006125	-0.012700	1.009235
	H284	H	-0.003502	-0.000373	1.015141
	O285	O	0.634441	0.783528	0.703830
	H286	H	0.630410	0.779747	0.694396
	H287	H	0.643962	0.781934	0.705402
	O288	O	0.509825	0.538745	0.449954
	H289	H	0.520005	0.548446	0.452255
	H290	H	0.517722	0.540989	0.443744
	O291	O	0.527580	0.519147	0.464062
	H292	H	0.525976	0.514347	0.464802
	H293	H	0.531871	0.523460	0.468596
	O294	O	0.021696	-0.012528	0.004807
	H295	H	0.023545	-0.014420	-0.012523
	H296	H	0.023930	-0.014987	0.005715
	O297	O	0.570617	0.507110	0.461045
	H298	H	0.569287	0.505998	0.460763
	H299	H	0.574411	0.503001	0.465927
	O300	O	0.042761	0.945986	1.001503
	H301	H	0.041528	0.939815	0.997944
	H302	H	0.041009	0.934099	1.005566
	O303	O	0.529658	0.460615	0.464090
	H304	H	0.529541	0.458789	0.459359
	H305	H	0.517727	0.462635	0.467782
	O306	O	-0.021138	-0.019685	0.969550
	H307	H	-0.028614	-0.021752	0.968485
	H308	H	-0.025538	-0.023596	0.978397
	O309	O	0.993962	1.041417	0.949727
	H310	H	0.999729	1.046096	0.941720
	H311	H	0.997847	1.049127	0.955233
	O312	O	0.615886	0.353904	0.287071
	H313	H	0.607096	0.362082	0.282561
	H314	H	0.615051	0.353938	0.281445
	O315	O	0.540856	0.498583	0.455053
	H316	H	0.540374	0.489878	0.446899
	H317	H	0.547253	0.500739	0.460423
	O318	O	-0.057246	0.993033	-0.096395
	H319	H	-0.047993	0.996315	-0.091952
	H320	H	-0.066524	1.004012	-0.101847
	O321	O	1.007924	0.944052	0.009028
	H322	H	1.015078	0.943032	0.015081
	H323	H	1.003893	0.946616	0.007620
