data_Molecule from HDF5

_cell_length_a		16.157296
_cell_length_b		16.319976
_cell_length_c		16.261305
_cell_angle_alpha	89.993295
_cell_angle_beta	89.884192
_cell_angle_gamma	90.281209
_symmetry_space_group_name_H-M	'P 1'
_symmetry_Int_Tables_number		1

loop_
	_symmetry_equiv_pos_as_xyz
	x,y,z

loop_
	_atom_site_label
	_atom_site_type_symbol
	_atom_site_fract_x
	_atom_site_fract_y
	_atom_site_fract_z
	H0	H	0.400753	0.846151	0.719290
	H1	H	0.604218	0.170770	0.717137
	H2	H	0.600136	0.844864	0.286284
	H3	H	0.403351	0.172500	0.287083
	H4	H	0.716768	0.411686	0.837245
	H5	H	0.716942	0.607000	0.164775
	H6	H	0.289992	0.607386	0.837452
	H7	H	0.286693	0.409287	0.163816
	H8	H	0.837588	0.721134	0.401352
	H9	H	0.166519	0.723923	0.599951
	H10	H	0.838626	0.292378	0.600632
	H11	H	0.166658	0.293145	0.398990
	H12	H	0.839006	0.407249	0.715477
	H13	H	0.167412	0.608229	0.714256
	H14	H	0.837241	0.603666	0.287708
	H15	H	0.166956	0.409808	0.285539
	H16	H	0.401876	0.725280	0.838640
	H17	H	0.602650	0.724580	0.164771
	H18	H	0.605501	0.292058	0.839083
	H19	H	0.400810	0.293466	0.164017
	H20	H	0.715308	0.843300	0.404516
	H21	H	0.719349	0.171080	0.600153
	H22	H	0.286657	0.844987	0.601226
	H23	H	0.288455	0.171994	0.403709
	H24	H	0.901389	0.344599	0.215236
	H25	H	0.104745	0.670344	0.217601
	H26	H	0.103752	0.345473	0.783477
	H27	H	0.903771	0.670964	0.783188
	H28	H	0.216431	0.911002	0.337905
	H29	H	0.217472	0.107914	0.665341
	H30	H	0.789863	0.104378	0.337469
	H31	H	0.788859	0.907280	0.665203
	H32	H	0.338749	0.223392	0.900864
	H33	H	0.666679	0.226366	0.102666
	H34	H	0.338485	0.791203	0.103158
	H35	H	0.666561	0.794392	0.901483
	H36	H	0.337430	0.908842	0.216469
	H37	H	0.667455	0.108369	0.215903
	H38	H	0.339619	0.108927	0.785439
	H39	H	0.666981	0.908553	0.786817
	H40	H	0.901605	0.223519	0.338449
	H41	H	0.106528	0.228261	0.663215
	H42	H	0.102679	0.793354	0.338210
	H43	H	0.899553	0.789507	0.663344
	H44	H	0.219523	0.345753	0.900076
	H45	H	0.218481	0.671696	0.098781
	H46	H	0.785925	0.345661	0.099564
	H47	H	0.788990	0.672126	0.901100
	H48	H	0.413156	0.120669	0.586290
	H49	H	0.592272	0.893943	0.591974
	H50	H	0.595270	0.126487	0.398619
	H51	H	0.413052	0.890611	0.397910
	H52	H	0.582840	0.419665	0.113115
	H53	H	0.596311	0.607802	0.882856
	H54	H	0.406921	0.601268	0.118631
	H55	H	0.406732	0.418222	0.883887
	H56	H	0.119837	0.610345	0.418614
	H57	H	0.887021	0.598665	0.587428
	H58	H	0.117921	0.423998	0.591478
	H59	H	0.883658	0.407806	0.411184
	H60	H	0.121397	0.415098	0.595264
	H61	H	0.885633	0.595101	0.596494
	H62	H	0.115302	0.588684	0.409555
	H63	H	0.888025	0.418818	0.411163
	H64	H	0.411750	0.597025	0.116572
	H65	H	0.599194	0.600400	0.883727
	H66	H	0.596199	0.404696	0.122463
	H67	H	0.415257	0.417809	0.885734
	H68	H	0.588941	0.119971	0.414152
	H69	H	0.601194	0.890206	0.595199
	H70	H	0.403177	0.126673	0.596038
	H71	H	0.416883	0.896402	0.416398
	H72	H	0.912756	0.622436	0.089728
	H73	H	0.086818	0.393050	0.097077
	H74	H	0.092024	0.624219	0.901703
	H75	H	0.915502	0.392967	0.903221
	H76	H	0.090121	0.911720	0.617303
	H77	H	0.102725	0.104770	0.381508
	H78	H	0.918080	0.096926	0.615770
	H79	H	0.911961	0.908571	0.382774
	H80	H	0.617822	0.102220	0.917282
	H81	H	0.386829	0.100689	0.089293
	H82	H	0.616254	0.920853	0.088756
	H83	H	0.382350	0.902069	0.913827
	H84	H	0.620585	0.920522	0.099588
	H85	H	0.384992	0.097576	0.098146
	H86	H	0.620154	0.095006	0.906369
	H87	H	0.391185	0.925120	0.921089
	H88	H	0.913125	0.107533	0.620218
	H89	H	0.095115	0.093054	0.387633
	H90	H	0.098043	0.912741	0.621028
	H91	H	0.904397	0.915298	0.382684
	H92	H	0.094853	0.622290	0.912036
	H93	H	0.093943	0.394961	0.083516
	H94	H	0.904526	0.626380	0.094436
	H95	H	0.912041	0.395668	0.914647
	H96	H	0.418349	0.123954	0.601016
	H97	H	0.593591	0.889709	0.600799
	H98	H	0.607665	0.125747	0.413039
	H99	H	0.398513	0.889787	0.411591
	H100	H	0.603007	0.424930	0.118166
	H101	H	0.590826	0.601597	0.885943
	H102	H	0.414016	0.604167	0.117944
	H103	H	0.411818	0.410419	0.882290
	H104	H	0.125497	0.605453	0.395667
	H105	H	0.883283	0.604466	0.594316
	H106	H	0.119358	0.415335	0.585274
	H107	H	0.882860	0.415168	0.401203
	H108	H	0.914345	0.625458	0.099074
	H109	H	0.102628	0.389318	0.095393
	H110	H	0.102599	0.626516	0.905738
	H111	H	0.903725	0.389500	0.907207
	H112	H	0.093959	0.919800	0.617131
	H113	H	0.088190	0.105987	0.386128
	H114	H	0.905904	0.097333	0.618776
	H115	H	0.913463	0.918027	0.387241
	H116	H	0.622888	0.107766	0.907163
	H117	H	0.383206	0.106795	0.096168
	H118	H	0.621026	0.909870	0.092535
	H119	H	0.382432	0.922118	0.896864
	C120	C	0.381352	0.016593	0.623806
	C121	C	0.625665	0.999131	0.624309
	C122	C	0.625212	0.016081	0.379632
	C123	C	0.380937	1.000357	0.380132
	C124	C	0.624005	0.387553	0.009894
	C125	C	0.624650	0.631555	0.992533
	C126	C	0.382174	0.629999	0.009813
	C127	C	0.380990	0.386517	0.992043
	C128	C	0.010971	0.629266	0.379391
	C129	C	0.993885	0.629315	0.621828
	C130	C	0.011490	0.387500	0.620779
	C131	C	0.993548	0.385540	0.378176
	C132	C	0.880419	0.517007	0.123301
	C133	C	0.124273	0.499951	0.121443
	C134	C	0.125881	0.516833	0.877343
	C135	C	0.881412	0.500305	0.878691
	C136	C	0.123239	0.886973	0.510138
	C137	C	0.125080	0.130907	0.492688
	C138	C	0.882721	0.128651	0.509962
	C139	C	0.880891	0.884757	0.492365
	C140	C	0.511757	0.130339	0.880512
	C141	C	0.494061	0.130806	0.123338
	C142	C	0.510745	0.887152	0.123135
	C143	C	0.493688	0.887123	0.880753
	C144	C	0.381503	0.894429	0.680445
	C145	C	0.624248	0.121872	0.679240
	C146	C	0.621159	0.893470	0.324204
	C147	C	0.383457	0.123667	0.325440
	C148	C	0.679523	0.390661	0.886474
	C149	C	0.679159	0.628095	0.115850
	C150	C	0.327285	0.627767	0.886326
	C151	C	0.324722	0.388818	0.115056
	C152	C	0.886960	0.683408	0.381545
	C153	C	0.117594	0.685775	0.620133
	C154	C	0.888004	0.330290	0.620236
	C155	C	0.117403	0.330777	0.379410
	C156	C	0.888064	0.387476	0.677544
	C157	C	0.117942	0.628159	0.676882
	C158	C	0.886586	0.625162	0.325036
	C159	C	0.117660	0.388769	0.322971
	C160	C	0.382914	0.686506	0.887097
	C161	C	0.622433	0.686547	0.115766
	C162	C	0.623984	0.331086	0.887327
	C163	C	0.381459	0.331248	0.115145
	C164	C	0.678381	0.892706	0.383172
	C165	C	0.681734	0.121997	0.621173
	C166	C	0.324764	0.893865	0.621724
	C167	C	0.326431	0.123368	0.383440
	C168	C	0.881722	0.393877	0.177674
	C169	C	0.123820	0.622012	0.178457
	C170	C	0.124230	0.394315	0.821276
	C171	C	0.883623	0.622518	0.822087
	C172	C	0.178686	0.890045	0.386984
	C173	C	0.180482	0.128996	0.616028
	C174	C	0.827232	0.125257	0.386592
	C175	C	0.826241	0.887309	0.616067
	C176	C	0.388266	0.186025	0.881034
	C177	C	0.617706	0.187382	0.121880
	C178	C	0.387476	0.829903	0.122668
	C179	C	0.617474	0.831800	0.881685
	C180	C	0.386768	0.888603	0.178867
	C181	C	0.618061	0.128956	0.178452
	C182	C	0.388632	0.128836	0.823585
	C183	C	0.617530	0.889149	0.824755
	C184	C	0.882869	0.184359	0.387037
	C185	C	0.124932	0.188605	0.614914
	C186	C	0.122086	0.831477	0.387098
	C187	C	0.881254	0.828309	0.615021
	C188	C	0.181593	0.394473	0.879596
	C189	C	0.180559	0.622696	0.119591
	C190	C	0.824161	0.394297	0.120188
	C191	C	0.826601	0.623104	0.880860
	C192	C	0.404713	0.101681	0.600995
	C193	C	0.602543	0.913475	0.602511
	C194	C	0.603571	0.102069	0.401878
	C195	C	0.403045	0.914490	0.402100
	C196	C	0.600855	0.409815	0.095751
	C197	C	0.602183	0.609679	0.906399
	C198	C	0.404298	0.607524	0.095505
	C199	C	0.404357	0.408827	0.906206
	C200	C	0.097639	0.607816	0.401481
	C201	C	0.907706	0.606172	0.599350
	C202	C	0.097231	0.411126	0.597436
	C203	C	0.907247	0.407468	0.401222
	C204	C	0.903854	0.602609	0.100969
	C205	C	0.101210	0.414785	0.098538
	C206	C	0.103151	0.602124	0.899837
	C207	C	0.903877	0.414787	0.901527
	C208	C	0.100525	0.908403	0.596197
	C209	C	0.102078	0.107957	0.407265
	C210	C	0.905686	0.107007	0.595906
	C211	C	0.903471	0.907187	0.406594
	C212	C	0.597942	0.107956	0.903556
	C213	C	0.407488	0.108318	0.101142
	C214	C	0.596935	0.910268	0.100241
	C215	C	0.407636	0.909785	0.903964
	Zn216	Zn	0.503102	0.008184	0.752771
	Zn217	Zn	0.502141	0.009170	0.250947
	Zn218	Zn	0.752710	0.509224	0.000961
	Zn219	Zn	0.254143	0.508749	0.000169
	Zn220	Zn	0.002228	0.757432	0.500965
	Zn221	Zn	0.003013	0.258469	0.500597
	Zn222	Zn	0.003448	0.508115	0.749307
	Zn223	Zn	0.002836	0.507598	0.251144
	Zn224	Zn	0.502448	0.759496	0.001462
	Zn225	Zn	0.502541	0.259019	0.001320
	Zn226	Zn	0.754443	0.006763	0.502084
	Zn227	Zn	0.252497	0.008400	0.502143
	N228	N	0.415844	0.971675	0.682018
	N229	N	0.590177	0.044461	0.681341
	N230	N	0.588975	0.971428	0.321746
	N231	N	0.416443	0.046095	0.323105
	N232	N	0.679572	0.425289	0.963736
	N233	N	0.680820	0.594765	0.038187
	N234	N	0.326675	0.593236	0.963550
	N235	N	0.324281	0.422525	0.037387
	N236	N	0.965392	0.686231	0.414308
	N237	N	0.039505	0.686598	0.586554
	N238	N	0.965800	0.330248	0.585572
	N239	N	0.039220	0.328530	0.412880
	N240	N	0.965653	0.422439	0.677912
	N241	N	0.040068	0.593635	0.677821
	N242	N	0.964774	0.592146	0.323335
	N243	N	0.039461	0.421805	0.321719
	N244	N	0.416174	0.688171	0.964868
	N245	N	0.589494	0.688811	0.037974
	N246	N	0.590147	0.329269	0.964950
	N247	N	0.415574	0.329646	0.037599
	N248	N	0.681156	0.970037	0.416595
	N249	N	0.682690	0.044565	0.587714
	N250	N	0.324566	0.970845	0.587271
	N251	N	0.324597	0.045627	0.416532
	N252	N	0.916111	0.471208	0.179660
	N253	N	0.089471	0.544809	0.179710
	N254	N	0.090255	0.471496	0.819805
	N255	N	0.916847	0.545101	0.820617
	N256	N	0.179666	0.923657	0.464562
	N257	N	0.180755	0.093935	0.539077
	N258	N	0.827040	0.091207	0.464098
	N259	N	0.825898	0.921784	0.538925
	N260	N	0.465874	0.187223	0.915663
	N261	N	0.539516	0.188803	0.088380
	N262	N	0.465550	0.828962	0.088692
	N263	N	0.539624	0.830469	0.915789
	N264	N	0.464479	0.923487	0.179344
	N265	N	0.540205	0.094483	0.179313
	N266	N	0.466490	0.094809	0.823172
	N267	N	0.539587	0.922954	0.824165
	N268	N	0.916739	0.186500	0.464547
	N269	N	0.091099	0.189799	0.537273
	N270	N	0.088385	0.829366	0.464830
	N271	N	0.914347	0.826352	0.537030
	N272	N	0.182843	0.471554	0.913585
	N273	N	0.181050	0.545866	0.084786
	N274	N	0.823197	0.471862	0.087156
	N275	N	0.825298	0.546060	0.915459
	O276	O	0.446376	0.578937	0.438405
	H277	H	0.446091	0.579519	0.440916
	H278	H	0.451299	0.584217	0.436694
	O279	O	0.503874	0.457699	0.501401
	H280	H	0.495248	0.445415	0.499864
	H281	H	0.497296	0.464122	0.509771
	O282	O	1.030401	0.894473	0.062869
	H283	H	1.030459	0.899180	0.060646
	H284	H	1.028919	0.895095	0.054962
	O285	O	1.040817	-0.019735	1.056801
	H286	H	1.030129	-0.019050	1.059565
	H287	H	1.046030	-0.021238	1.067153
	O288	O	0.524559	0.548844	0.492296
	H289	H	0.521557	0.547954	0.501019
	H290	H	0.524497	0.552874	0.496441
	O291	O	0.565929	0.569922	0.594955
	H292	H	0.569113	0.573588	0.595995
	H293	H	0.551318	0.575630	0.586222
	O294	O	0.494981	0.474486	0.473137
	H295	H	0.499632	0.473550	0.471452
	H296	H	0.497585	0.481019	0.479204
	O297	O	-0.486070	-0.559816	1.480169
	H298	H	-0.494621	-0.561996	1.469465
	H299	H	-0.491471	-0.570364	1.482273
	O300	O	-0.032700	-0.105898	0.101233
	H301	H	-0.033426	-0.113971	0.106289
	H302	H	-0.038772	-0.108615	0.105718
	O303	O	1.009754	1.041822	0.101402
	H304	H	1.005116	1.041987	0.097286
	H305	H	1.008824	1.034594	0.092792
	O306	O	-0.092732	1.022422	0.957148
	H307	H	-0.095419	1.021466	0.953504
	H308	H	-0.083939	1.018195	0.949789
	O309	O	0.525503	0.480685	0.461547
	H310	H	0.519220	0.479580	0.460921
	H311	H	0.525732	0.477019	0.465671
	O312	O	0.005985	0.075485	-0.019075
	H313	H	0.011205	0.077700	-0.016568
	H314	H	0.010985	0.080144	-0.012277
	O315	O	0.911975	0.105939	-0.034353
	H316	H	0.908582	0.116869	-0.027944
	H317	H	0.905040	0.101859	-0.033604
	O318	O	1.065270	1.040516	0.915101
	H319	H	1.073849	1.036798	0.911165
	H320	H	1.059590	1.035480	0.908242
	O321	O	0.142679	-1.023668	0.985703
	H322	H	0.144439	-1.029736	0.982662
	H323	H	0.140382	-1.016625	0.985167
	O324	O	0.567560	0.488197	0.539792
	H325	H	0.574572	0.487267	0.529697
	H326	H	0.567439	0.479472	0.539418
	O327	O	-0.156507	-0.016620	0.128901
	H328	H	-0.168447	-0.027940	0.126860
	H329	H	-0.157039	-0.018412	0.139210
	O330	O	0.501630	0.431120	0.527369
	H331	H	0.504900	0.437162	0.529941
	H332	H	0.502343	0.432545	0.522538
	O333	O	-0.035286	0.977209	0.955325
	H334	H	-0.042763	0.971513	0.957351
	H335	H	-0.031920	0.967317	0.952379
	O336	O	-0.038121	0.026189	-0.028406
	H337	H	-0.046214	0.023429	-0.026637
	H338	H	-0.035612	0.035925	-0.024022
	O339	O	0.430693	0.451780	0.567628
	H340	H	0.422397	0.450977	0.564736
	H341	H	0.438502	0.462222	0.580030
	O342	O	1.117536	1.112942	1.064682
	H343	H	1.107465	1.113444	1.058188
	H344	H	1.111751	1.116218	1.069907
	O345	O	0.975561	0.982479	-0.020743
	H346	H	0.973682	0.985881	-0.013631
	H347	H	0.971510	0.968868	-0.024439
	O348	O	0.514389	0.511135	0.495582
	H349	H	0.515175	0.514991	0.489614
	H350	H	0.514162	0.504080	0.492536
	O351	O	0.465335	0.449297	0.439909
	H352	H	0.460379	0.440342	0.434913
	H353	H	0.470991	0.447329	0.448134
	O354	O	1.003194	0.024508	0.971521
	H355	H	1.002532	0.032348	0.969996
	H356	H	1.012029	0.032354	0.964839
	O357	O	1.004007	0.026507	1.032489
	H358	H	1.013116	0.020569	1.030001
	H359	H	1.004446	0.026247	1.037251
	O360	O	1.030661	1.068607	0.080934
	H361	H	1.027191	1.067492	0.081189
	H362	H	1.019517	1.060452	0.095448
	O363	O	0.477531	0.515980	0.543149
	H364	H	0.477441	0.513762	0.547975
	H365	H	0.485755	0.520939	0.551755
	O366	O	0.569607	1.546940	0.483210
	H367	H	0.577229	1.557148	0.492703
	H368	H	0.579894	1.546836	0.485176
	O369	O	1.001209	0.005872	0.848469
	H370	H	1.009710	0.014261	0.844521
	H371	H	1.004000	0.020296	0.854192
	O372	O	0.078918	0.028457	-0.024739
	H373	H	0.080992	0.027535	-0.026205
	H374	H	0.083678	0.027247	-0.004293
	O375	O	0.981484	-0.082084	0.019676
	H376	H	0.985803	-0.097276	0.014927
	H377	H	0.996119	-0.077089	0.021637
	O378	O	0.496285	0.605453	0.496277
	H379	H	0.489259	0.596696	0.491586
	H380	H	0.497106	0.602750	0.491457
	O381	O	0.524012	0.624532	0.555185
	H382	H	0.530642	0.620712	0.564704
	H383	H	0.531261	0.620671	0.557140
