data_Molecule from HDF5

_cell_length_a		16.649148
_cell_length_b		16.643652
_cell_length_c		16.630355
_cell_angle_alpha	89.873413
_cell_angle_beta	89.945371
_cell_angle_gamma	89.972966
_symmetry_space_group_name_H-M	'P 1'
_symmetry_Int_Tables_number		1

loop_
	_symmetry_equiv_pos_as_xyz
	x,y,z

loop_
	_atom_site_label
	_atom_site_type_symbol
	_atom_site_fract_x
	_atom_site_fract_y
	_atom_site_fract_z
	H0	H	0.391929	0.838023	0.734514
	H1	H	0.601869	0.147788	0.732711
	H2	H	0.604581	0.837804	0.291160
	H3	H	0.392132	0.145971	0.288365
	H4	H	0.720457	0.388121	0.856781
	H5	H	0.717740	0.595537	0.168746
	H6	H	0.280414	0.594578	0.854024
	H7	H	0.276335	0.384042	0.166562
	H8	H	0.842177	0.711607	0.408962
	H9	H	0.155553	0.712190	0.613722
	H10	H	0.845885	0.268410	0.621931
	H11	H	0.153413	0.270296	0.405745
	H12	H	0.844469	0.385881	0.736113
	H13	H	0.155917	0.596542	0.730903
	H14	H	0.843551	0.597281	0.291012
	H15	H	0.154452	0.387377	0.290320
	H16	H	0.396407	0.710573	0.854121
	H17	H	0.602239	0.712802	0.166756
	H18	H	0.603423	0.273318	0.855533
	H19	H	0.389649	0.266259	0.164642
	H20	H	0.720108	0.837789	0.407706
	H21	H	0.719571	0.148010	0.617387
	H22	H	0.276071	0.837804	0.618045
	H23	H	0.274215	0.145531	0.403020
	H24	H	0.899344	0.334905	0.229211
	H25	H	0.103736	0.648392	0.231746
	H26	H	0.104484	0.338527	0.789582
	H27	H	0.893799	0.648992	0.791541
	H28	H	0.221660	0.886653	0.356730
	H29	H	0.224469	0.100874	0.665234
	H30	H	0.774952	0.102174	0.358992
	H31	H	0.781372	0.891447	0.669558
	H32	H	0.346764	0.217697	0.903098
	H33	H	0.654005	0.214788	0.118388
	H34	H	0.342621	0.771044	0.117232
	H35	H	0.653700	0.771569	0.907505
	H36	H	0.343355	0.887188	0.233492
	H37	H	0.653473	0.099016	0.234575
	H38	H	0.344527	0.098980	0.789256
	H39	H	0.653514	0.887730	0.791059
	H40	H	0.892129	0.217457	0.359084
	H41	H	0.108546	0.217390	0.665631
	H42	H	0.104189	0.772004	0.355973
	H43	H	0.895410	0.773091	0.668047
	H44	H	0.219581	0.337391	0.906995
	H45	H	0.220483	0.647855	0.116318
	H46	H	0.781178	0.335631	0.115332
	H47	H	0.777444	0.648457	0.907379
	H48	H	0.419355	0.101416	0.602981
	H49	H	0.584974	0.882162	0.600688
	H50	H	0.587068	0.103913	0.423431
	H51	H	0.403907	0.878711	0.423447
	H52	H	0.591303	0.399211	0.125167
	H53	H	0.588227	0.581085	0.900196
	H54	H	0.409966	0.585318	0.124388
	H55	H	0.415033	0.400425	0.900757
	H56	H	0.111211	0.583867	0.422410
	H57	H	0.888370	0.580173	0.601730
	H58	H	0.107458	0.408783	0.597989
	H59	H	0.892708	0.411615	0.428186
	H60	H	0.109364	0.406831	0.601801
	H61	H	0.886082	0.583514	0.605159
	H62	H	0.109739	0.581881	0.422995
	H63	H	0.886505	0.407049	0.416509
	H64	H	0.404843	0.579597	0.123974
	H65	H	0.589557	0.581890	0.899860
	H66	H	0.590019	0.405215	0.123335
	H67	H	0.405825	0.404259	0.898733
	H68	H	0.586293	0.103189	0.423088
	H69	H	0.593604	0.880147	0.598864
	H70	H	0.410022	0.099049	0.589846
	H71	H	0.414810	0.881050	0.418422
	H72	H	0.909722	0.604341	0.102081
	H73	H	0.087294	0.380933	0.101590
	H74	H	0.085003	0.600767	0.928363
	H75	H	0.913743	0.383738	0.924485
	H76	H	0.088478	0.897360	0.625094
	H77	H	0.081789	0.072707	0.406339
	H78	H	0.904632	0.080248	0.625297
	H79	H	0.911462	0.907784	0.402270
	H80	H	0.608920	0.079942	0.925920
	H81	H	0.391859	0.075151	0.094867
	H82	H	0.610648	0.904754	0.105468
	H83	H	0.384706	0.897188	0.924135
	H84	H	0.611794	0.896507	0.100597
	H85	H	0.387769	0.077597	0.104342
	H86	H	0.609599	0.077928	0.921276
	H87	H	0.388018	0.904623	0.923611
	H88	H	0.913128	0.076701	0.620982
	H89	H	0.080459	0.087104	0.402168
	H90	H	0.092746	0.907222	0.623149
	H91	H	0.911281	0.896494	0.398300
	H92	H	0.094410	0.605349	0.924005
	H93	H	0.089426	0.380274	0.101149
	H94	H	0.904401	0.606037	0.101374
	H95	H	0.909886	0.382725	0.926439
	H96	H	0.404158	0.106921	0.602901
	H97	H	0.590268	0.878782	0.607649
	H98	H	0.586584	0.103638	0.424099
	H99	H	0.412565	0.884051	0.430396
	H100	H	0.585336	0.401112	0.123566
	H101	H	0.589575	0.580429	0.899552
	H102	H	0.411943	0.578868	0.121025
	H103	H	0.412118	0.409771	0.904070
	H104	H	0.110916	0.581941	0.420758
	H105	H	0.886825	0.585557	0.600094
	H106	H	0.109608	0.404409	0.597546
	H107	H	0.887674	0.398822	0.427469
	H108	H	0.907271	0.606391	0.106060
	H109	H	0.088967	0.380929	0.103490
	H110	H	0.085193	0.605502	0.917176
	H111	H	0.910585	0.381081	0.921847
	H112	H	0.082607	0.905148	0.620630
	H113	H	0.093306	0.079762	0.399258
	H114	H	0.912310	0.086228	0.625170
	H115	H	0.901733	0.903520	0.397355
	H116	H	0.611107	0.082617	0.922181
	H117	H	0.387645	0.084699	0.097115
	H118	H	0.607509	0.903689	0.096393
	H119	H	0.384507	0.901334	0.917106
	C120	C	0.377899	0.000660	0.632246
	C121	C	0.620278	0.983812	0.633773
	C122	C	0.619787	0.001256	0.391343
	C123	C	0.377376	0.983525	0.390584
	C124	C	0.620033	0.370842	0.020638
	C125	C	0.620243	0.613079	1.003218
	C126	C	0.377531	0.612863	0.019766
	C127	C	0.377559	0.370489	1.003207
	C128	C	0.007375	0.614077	0.390659
	C129	C	0.990626	0.614325	0.632872
	C130	C	0.007084	0.372959	0.632997
	C131	C	0.991160	0.372380	0.391188
	C132	C	0.877487	0.501290	0.133779
	C133	C	0.120916	0.483692	0.133744
	C134	C	0.120232	0.501254	0.890702
	C135	C	0.878199	0.484861	0.891323
	C136	C	0.119966	0.871759	0.519960
	C137	C	0.119929	0.113742	0.504030
	C138	C	0.876973	0.114959	0.522022
	C139	C	0.877416	0.871798	0.503393
	C140	C	0.507617	0.113280	0.890265
	C141	C	0.491036	0.112817	0.132250
	C142	C	0.506805	0.870131	0.133184
	C143	C	0.489205	0.870168	0.890214
	C144	C	0.374299	0.884328	0.693646
	C145	C	0.620799	0.101211	0.692875
	C146	C	0.622543	0.884387	0.331319
	C147	C	0.374306	0.099777	0.329074
	C148	C	0.680047	0.369818	0.903408
	C149	C	0.678615	0.614690	0.121156
	C150	C	0.319745	0.613519	0.901182
	C151	C	0.316435	0.366405	0.119706
	C152	C	0.889455	0.672772	0.389716
	C153	C	0.108688	0.672686	0.633078
	C154	C	0.891737	0.310177	0.638173
	C155	C	0.107168	0.311205	0.388085
	C156	C	0.891036	0.368758	0.694994
	C157	C	0.108842	0.615000	0.691061
	C158	C	0.889906	0.615733	0.331344
	C159	C	0.107790	0.369293	0.330639
	C160	C	0.377473	0.671127	0.901250
	C161	C	0.621163	0.672736	0.120458
	C162	C	0.621955	0.312540	0.902851
	C163	C	0.373434	0.308149	0.118801
	C164	C	0.679939	0.884441	0.389278
	C165	C	0.679069	0.101377	0.635569
	C166	C	0.316605	0.884161	0.635937
	C167	C	0.315905	0.099681	0.386066
	C168	C	0.878829	0.382493	0.190898
	C169	C	0.122570	0.601083	0.192605
	C170	C	0.122982	0.384784	0.829906
	C171	C	0.875361	0.602093	0.831257
	C172	C	0.180783	0.869058	0.403125
	C173	C	0.182938	0.118272	0.619241
	C174	C	0.815631	0.119673	0.405561
	C175	C	0.820012	0.871768	0.621929
	C176	C	0.392043	0.175629	0.886172
	C177	C	0.607142	0.174228	0.136190
	C178	C	0.389687	0.810696	0.135789
	C179	C	0.606748	0.811172	0.888767
	C180	C	0.390010	0.868410	0.193492
	C181	C	0.606912	0.116815	0.194268
	C182	C	0.391184	0.117203	0.829369
	C183	C	0.606675	0.868938	0.831035
	C184	C	0.873607	0.176987	0.405583
	C185	C	0.125414	0.176181	0.619449
	C186	C	0.122598	0.811805	0.402990
	C187	C	0.876587	0.812894	0.621351
	C188	C	0.179792	0.384055	0.888413
	C189	C	0.180723	0.600968	0.135249
	C190	C	0.820311	0.382839	0.134055
	C191	C	0.817396	0.601556	0.888756
	C192	C	0.403715	0.081456	0.605835
	C193	C	0.596356	0.901622	0.609254
	C194	C	0.594150	0.082525	0.416474
	C195	C	0.403013	0.902341	0.416814
	C196	C	0.595664	0.394730	0.102665
	C197	C	0.596099	0.588314	0.921069
	C198	C	0.401794	0.588277	0.101693
	C199	C	0.403359	0.397216	0.922197
	C200	C	0.089344	0.589462	0.415014
	C201	C	0.908596	0.590162	0.609148
	C202	C	0.087792	0.399139	0.606625
	C203	C	0.909916	0.398432	0.416803
	C204	C	0.900428	0.584046	0.110008
	C205	C	0.095960	0.401846	0.109049
	C206	C	0.095239	0.582766	0.916150
	C207	C	0.904233	0.403776	0.916808
	C208	C	0.094957	0.896466	0.601819
	C209	C	0.092958	0.087218	0.423587
	C210	C	0.902844	0.088690	0.602713
	C211	C	0.901413	0.895815	0.420825
	C212	C	0.588785	0.087441	0.915868
	C213	C	0.410162	0.086682	0.106050
	C214	C	0.588573	0.894664	0.108080
	C215	C	0.407010	0.894026	0.914613
	Zn216	Zn	0.497908	-0.007909	0.762252
	Zn217	Zn	0.499012	-0.008189	0.261801
	Zn218	Zn	0.749068	0.492269	0.012567
	Zn219	Zn	0.248864	0.492021	0.011443
	Zn220	Zn	-0.001054	0.743076	0.511326
	Zn221	Zn	-0.000581	0.242765	0.512393
	Zn222	Zn	-0.001145	0.493491	0.762257
	Zn223	Zn	-0.000887	0.492825	0.261794
	Zn224	Zn	0.498107	0.741521	0.011650
	Zn225	Zn	0.499064	0.241936	0.011358
	Zn226	Zn	0.749063	-0.006859	0.512185
	Zn227	Zn	0.248546	-0.007189	0.511780
	N228	N	0.411683	0.957556	0.691446
	N229	N	0.584952	0.026940	0.691944
	N230	N	0.585780	0.958080	0.332315
	N231	N	0.412170	0.026591	0.332004
	N232	N	0.679413	0.405332	0.977773
	N233	N	0.678382	0.578606	0.047064
	N234	N	0.319377	0.578070	0.975884
	N235	N	0.318615	0.404541	0.046530
	N236	N	0.963628	0.672017	0.425757
	N237	N	0.034157	0.672613	0.597869
	N238	N	0.964961	0.312506	0.600192
	N239	N	0.033537	0.312912	0.425052
	N240	N	0.964014	0.406996	0.692109
	N241	N	0.034302	0.579643	0.691352
	N242	N	0.964414	0.580130	0.331437
	N243	N	0.034477	0.406834	0.332529
	N244	N	0.412403	0.671182	0.976130
	N245	N	0.585614	0.672062	0.045934
	N246	N	0.585480	0.312894	0.976809
	N247	N	0.410753	0.310604	0.045314
	N248	N	0.678608	0.958238	0.425750
	N249	N	0.678935	0.027192	0.599657
	N250	N	0.318692	0.957514	0.598078
	N251	N	0.317823	0.026314	0.423755
	N252	N	0.913338	0.457461	0.191292
	N253	N	0.086464	0.526948	0.192016
	N254	N	0.086783	0.458815	0.830944
	N255	N	0.912488	0.528456	0.832641
	N256	N	0.179623	0.905314	0.477149
	N257	N	0.179680	0.080296	0.546247
	N258	N	0.817339	0.081945	0.478946
	N259	N	0.820308	0.907451	0.547471
	N260	N	0.465569	0.173471	0.923271
	N261	N	0.533787	0.172142	0.098524
	N262	N	0.463604	0.811237	0.099184
	N263	N	0.532582	0.811707	0.924777
	N264	N	0.464124	0.904454	0.192293
	N265	N	0.533476	0.079402	0.192168
	N266	N	0.464229	0.079288	0.831632
	N267	N	0.532390	0.904746	0.831568
	N268	N	0.910876	0.174552	0.479133
	N269	N	0.086772	0.173388	0.546814
	N270	N	0.085435	0.813307	0.476707
	N271	N	0.911566	0.812466	0.546464
	N272	N	0.178319	0.457556	0.925480
	N273	N	0.180171	0.526707	0.099547
	N274	N	0.818906	0.457945	0.099718
	N275	N	0.818926	0.527600	0.925509
	O276	O	-0.667904	1.706691	-0.565319
	H277	H	-0.689063	1.714243	-0.551339
	H278	H	-0.665742	1.708227	-0.554274
	O279	O	-0.222850	-0.226297	0.051388
	H280	H	-0.237115	-0.238490	0.048231
	H281	H	-0.219598	-0.229538	0.053651
	O282	O	1.061922	0.001557	1.184508
	H283	H	1.053348	-0.002611	1.186999
	H284	H	1.054128	-0.000372	1.174033
	O285	O	0.688445	0.681062	0.323095
	H286	H	0.663095	0.665552	0.339424
	H287	H	0.675535	0.662966	0.345863
	O288	O	0.446195	0.665126	0.551851
	H289	H	0.450988	0.661040	0.549371
	H290	H	0.439570	0.677789	0.551256
	O291	O	0.537438	0.342901	0.402473
	H292	H	0.534091	0.351237	0.392381
	H293	H	0.523033	0.358213	0.408525
	O294	O	1.209106	0.202390	1.229988
	H295	H	1.200262	0.192584	1.200243
	H296	H	1.173015	0.187990	1.229435
	O297	O	0.601392	0.452079	0.717220
	H298	H	0.604550	0.471676	0.715339
	H299	H	0.591075	0.462813	0.712272
	O300	O	-0.067611	0.060085	1.245789
	H301	H	-0.082658	0.049746	1.248419
	H302	H	-0.067905	0.030185	1.245319
	O303	O	0.709549	0.283637	0.302600
	H304	H	0.692691	0.289478	0.328639
	H305	H	0.686006	0.304123	0.299785
	O306	O	1.288758	-0.302323	0.305580
	H307	H	1.282324	-0.349981	0.296005
	H308	H	1.280967	-0.294469	0.333929
	O309	O	0.264782	0.444496	0.445454
	H310	H	0.263045	0.427013	0.433177
	H311	H	0.270077	0.422285	0.437524
	O312	O	0.295494	0.293683	0.708147
	H313	H	0.336017	0.296994	0.716261
	H314	H	0.282315	0.267610	0.737248
	O315	O	1.193432	1.184630	0.821677
	H316	H	1.173298	1.173788	0.837154
	H317	H	1.173631	1.171365	0.834711
	O318	O	1.053775	1.131340	-0.099094
	H319	H	1.048131	1.124486	-0.099485
	H320	H	1.049883	1.126059	-0.090943
	O321	O	0.719230	0.715623	0.551138
	H322	H	0.730489	0.711728	0.539321
	H323	H	0.732384	0.722647	0.566432
	O324	O	0.969386	1.208949	-0.199552
	H325	H	0.939686	1.219959	-0.205278
	H326	H	0.962229	1.212280	-0.208124
	O327	O	-0.195039	0.205441	0.832039
	H328	H	-0.196840	0.174328	0.817828
	H329	H	-0.224664	0.223680	0.808526
	O330	O	0.868749	-0.040293	0.081455
	H331	H	0.861088	-0.042515	0.090463
	H332	H	0.876188	-0.028443	0.082058
	O333	O	0.445845	0.581865	0.682666
	H334	H	0.441869	0.582313	0.679087
	H335	H	0.426345	0.583249	0.678592
	O336	O	0.691917	0.515143	0.728343
	H337	H	0.698755	0.541334	0.738576
	H338	H	0.691381	0.538792	0.739936
	O339	O	0.968698	-0.220897	1.231555
	H340	H	0.952025	-0.226500	1.229243
	H341	H	0.969657	-0.236082	1.232587
	O342	O	0.165303	-0.001932	-0.111008
	H343	H	0.181519	-0.008766	-0.125015
	H344	H	0.168039	0.004553	-0.090256
	O345	O	0.197725	0.785874	0.811605
	H346	H	0.217485	0.781298	0.811314
	H347	H	0.208234	0.813415	0.795928
	O348	O	0.002152	0.038642	-0.024251
	H349	H	-0.007960	0.029706	-0.022382
	H350	H	-0.000074	0.043165	-0.014439
	O351	O	0.427462	0.439291	0.281070
	H352	H	0.441141	0.424756	0.284915
	H353	H	0.415443	0.429815	0.287978
	O354	O	-0.077615	0.205172	1.069876
	H355	H	-0.073930	0.208541	1.065863
	H356	H	-0.103839	0.212549	1.057566
	O357	O	0.078232	0.952708	0.794149
	H358	H	0.085078	0.934362	0.790978
	H359	H	0.073895	0.973371	0.790242
	O360	O	0.484566	0.466867	0.577170
	H361	H	0.473373	0.467716	0.569273
	H362	H	0.479100	0.455304	0.578668
	O363	O	-0.439932	0.677005	-0.518481
	H364	H	-0.435691	0.683545	-0.518729
	H365	H	-0.442275	0.678637	-0.520872
	O366	O	0.434951	0.696462	0.590570
	H367	H	0.446869	0.687776	0.597526
	H368	H	0.454776	0.694440	0.573849
	O369	O	0.458720	0.278258	0.723022
	H370	H	0.478802	0.268013	0.731770
	H371	H	0.481253	0.272797	0.715685
	O372	O	1.038629	1.200004	0.227180
	H373	H	1.016534	1.202834	0.228590
	H374	H	1.022879	1.192165	0.230317
	O375	O	1.278319	0.531476	0.291268
	H376	H	1.286762	0.510173	0.287567
	H377	H	1.259300	0.517780	0.275634
	O378	O	0.149276	-0.013317	0.238024
	H379	H	0.150182	-0.018498	0.250150
	H380	H	0.153526	-0.016130	0.242889
	O381	O	0.034268	1.140153	0.944357
	H382	H	0.031858	1.149314	0.942355
	H383	H	0.030221	1.138734	0.943060
	O384	O	0.847219	-0.052213	0.872354
	H385	H	0.840561	-0.044992	0.872065
	H386	H	0.840460	-0.034771	0.901362
	O387	O	1.033563	0.763254	-0.216651
	H388	H	1.046348	0.735893	-0.244305
	H389	H	1.066368	0.768063	-0.216104
	O390	O	0.473266	0.482662	0.480136
	H391	H	0.460341	0.482730	0.479396
	H392	H	0.481408	0.485234	0.487112
	O393	O	0.279653	0.272553	0.532951
	H394	H	0.258814	0.252150	0.546173
	H395	H	0.282122	0.276355	0.574754
	O396	O	-0.228046	1.000448	1.153252
	H397	H	-0.236134	1.007722	1.167335
	H398	H	-0.228428	0.987509	1.166678
	O399	O	-0.159758	-0.042645	1.148418
	H400	H	-0.152619	-0.062395	1.154076
	H401	H	-0.169749	-0.050268	1.159170
	O402	O	0.525836	0.718796	0.712298
	H403	H	0.533508	0.708345	0.719370
	H404	H	0.536511	0.736483	0.733314
	O405	O	0.888006	-0.072311	0.916996
	H406	H	0.890882	-0.069518	0.924851
	H407	H	0.884112	-0.079482	0.932889
	O408	O	0.524799	0.316380	-0.704024
	H409	H	0.513468	0.301763	-0.702882
	H410	H	0.525380	0.312545	-0.707550
	O411	O	0.740212	0.432120	0.559723
	H412	H	0.736220	0.430543	0.575321
	H413	H	0.743699	0.430461	0.569178
	O414	O	0.582121	0.444432	0.436799
	H415	H	0.591728	0.451144	0.422692
	H416	H	0.571286	0.457771	0.423356
	O417	O	0.716169	0.559182	0.508869
	H418	H	0.714745	0.545017	0.507672
	H419	H	0.707086	0.554933	0.517002
	O420	O	0.401905	0.583018	0.708210
	H421	H	0.400860	0.574512	0.702015
	H422	H	0.431834	0.585271	0.698711
	O423	O	0.089203	-0.044108	1.012297
	H424	H	0.081219	-0.042294	1.011771
	H425	H	0.096271	-0.045625	1.009607
	O426	O	0.431767	0.264517	0.456325
	H427	H	0.430929	0.267135	0.476022
	H428	H	0.410144	0.265230	0.457949
	O429	O	0.788455	0.781568	1.224672
	H430	H	0.758813	0.751000	1.247318
	H431	H	0.800720	0.776901	1.206297
	O432	O	0.806493	0.804760	0.823526
	H433	H	0.819117	0.820060	0.853316
	H434	H	0.824089	0.823390	0.832329
	O435	O	0.069496	1.000256	0.122717
	H436	H	0.061220	1.003666	0.127425
	H437	H	0.073587	0.997635	0.121404
	O438	O	0.219722	0.205602	0.038087
	H439	H	0.224694	0.219896	0.037927
	H440	H	0.217658	0.207877	0.043791
	O441	O	-0.216891	0.208054	-0.009339
	H442	H	-0.238521	0.234618	-0.005651
	H443	H	-0.219968	0.210232	-0.049904
	O444	O	0.279919	0.460589	0.728495
	H445	H	0.260752	0.450040	0.738132
	H446	H	0.266174	0.441896	0.726333
	O447	O	0.226334	0.937023	1.084197
	H448	H	0.234538	0.930181	1.105480
	H449	H	0.215128	0.945049	1.082388
	O450	O	-0.279472	0.272948	1.489265
	H451	H	-0.279869	0.288667	1.474165
	H452	H	-0.252083	0.249386	1.484983
	O453	O	0.579391	0.556206	0.307202
	H454	H	0.570928	0.534555	0.304032
	H455	H	0.561285	0.587931	0.306333
	O456	O	0.355797	0.581587	0.495971
	H457	H	0.351825	0.596599	0.488313
	H458	H	0.343397	0.580041	0.481979
	O459	O	1.197165	1.011372	-0.043960
	H460	H	1.197852	1.010988	-0.031125
	H461	H	1.197377	1.018461	-0.033309
	O462	O	1.222075	-0.234858	-0.022245
	H463	H	1.246719	-0.255207	-0.031572
	H464	H	1.225016	-0.232860	-0.037464
	O465	O	1.048508	0.009372	-0.096437
	H466	H	1.034454	0.015451	-0.086830
	H467	H	1.040444	0.009061	-0.109777
	O468	O	0.700725	0.691832	0.714678
	H469	H	0.726694	0.721815	0.733349
	H470	H	0.686180	0.689552	0.695488
	O471	O	0.330817	0.518474	0.623737
	H472	H	0.312009	0.502071	0.653846
	H473	H	0.329292	0.498073	0.596908
	O474	O	0.311090	0.305213	0.322295
	H475	H	0.322629	0.291274	0.324801
	H476	H	0.288545	0.275436	0.312633
	O477	O	0.556470	0.275988	1.589767
	H478	H	0.579964	0.277722	1.574527
	H479	H	0.542392	0.286928	1.574573
	O480	O	0.001373	0.792177	-0.031560
	H481	H	0.025387	0.790991	-0.046339
	H482	H	-0.003342	0.804255	-0.036849
	O483	O	0.726145	0.451748	0.289608
	H484	H	0.733889	0.455632	0.273109
	H485	H	0.736228	0.452256	0.280506
	O486	O	0.486228	0.689118	0.295718
	H487	H	0.471367	0.724574	0.267732
	H488	H	0.452346	0.678147	0.314463
	O489	O	0.961841	0.782827	-0.008463
	H490	H	0.966403	0.779633	-0.021669
	H491	H	0.958551	0.784225	-0.011580
	O492	O	-0.189675	0.180013	0.202467
	H493	H	-0.184708	0.177831	0.204562
	H494	H	-0.206237	0.188033	0.227236
	O495	O	0.178273	0.809088	1.190883
	H496	H	0.150180	0.808136	1.176773
	H497	H	0.191000	0.796032	1.196316
	O498	O	0.777950	1.032410	0.795822
	H499	H	0.771809	1.014668	0.796777
	H500	H	0.777473	1.023184	0.788482
	O501	O	0.712300	0.274193	0.722944
	H502	H	0.685161	0.299054	0.707370
	H503	H	0.700130	0.270399	0.704664
