data_Molecule from HDF5

_cell_length_a		16.268968
_cell_length_b		16.271370
_cell_length_c		16.306569
_cell_angle_alpha	90.150207
_cell_angle_beta	89.934616
_cell_angle_gamma	89.889905
_symmetry_space_group_name_H-M	'P 1'
_symmetry_Int_Tables_number		1

loop_
	_symmetry_equiv_pos_as_xyz
	x,y,z

loop_
	_atom_site_label
	_atom_site_type_symbol
	_atom_site_fract_x
	_atom_site_fract_y
	_atom_site_fract_z
	H0	H	0.395410	0.847560	0.717606
	H1	H	0.591838	0.175069	0.718526
	H2	H	0.592099	0.847800	0.289705
	H3	H	0.394629	0.174759	0.290384
	H4	H	0.708674	0.410226	0.839467
	H5	H	0.706993	0.607709	0.166964
	H6	H	0.279681	0.609311	0.839012
	H7	H	0.278031	0.413063	0.165934
	H8	H	0.829406	0.724761	0.406250
	H9	H	0.157233	0.725153	0.601558
	H10	H	0.829454	0.297799	0.600154
	H11	H	0.156683	0.296858	0.403255
	H12	H	0.829836	0.412092	0.717257
	H13	H	0.156206	0.611464	0.719255
	H14	H	0.829156	0.609706	0.289919
	H15	H	0.156325	0.410705	0.286497
	H16	H	0.394277	0.726768	0.840686
	H17	H	0.591234	0.725270	0.167498
	H18	H	0.592635	0.293763	0.840385
	H19	H	0.394812	0.297462	0.167186
	H20	H	0.707905	0.847734	0.405636
	H21	H	0.708220	0.175498	0.603164
	H22	H	0.279189	0.847791	0.602788
	H23	H	0.279241	0.174520	0.405648
	H24	H	0.894969	0.347472	0.216928
	H25	H	0.092125	0.675433	0.217088
	H26	H	0.092506	0.348229	0.786703
	H27	H	0.893713	0.674784	0.789142
	H28	H	0.209142	0.912633	0.339410
	H29	H	0.206825	0.110311	0.666538
	H30	H	0.778782	0.109293	0.340196
	H31	H	0.779094	0.913680	0.667017
	H32	H	0.329308	0.224448	0.905956
	H33	H	0.657162	0.224555	0.101746
	H34	H	0.328892	0.798088	0.101745
	H35	H	0.657366	0.796416	0.905142
	H36	H	0.329800	0.913455	0.218735
	H37	H	0.657041	0.108725	0.217447
	H38	H	0.329889	0.109901	0.789014
	H39	H	0.656903	0.910874	0.787979
	H40	H	0.894442	0.225394	0.339559
	H41	H	0.090987	0.226669	0.665197
	H42	H	0.092668	0.796343	0.339483
	H43	H	0.895498	0.796936	0.667142
	H44	H	0.208801	0.348028	0.902578
	H45	H	0.207311	0.674750	0.100090
	H46	H	0.779908	0.346562	0.100112
	H47	H	0.778024	0.674440	0.905268
	H48	H	0.406290	0.128557	0.602959
	H49	H	0.574249	0.898378	0.597134
	H50	H	0.600798	0.131945	0.412285
	H51	H	0.402087	0.894474	0.410376
	H52	H	0.581851	0.414536	0.118924
	H53	H	0.588502	0.608060	0.885339
	H54	H	0.397992	0.613790	0.122697
	H55	H	0.403316	0.412724	0.886171
	H56	H	0.112947	0.608651	0.403331
	H57	H	0.874813	0.609482	0.596434
	H58	H	0.112727	0.407500	0.593270
	H59	H	0.877018	0.420817	0.408182
	H60	H	0.105223	0.426227	0.587199
	H61	H	0.878738	0.602799	0.590582
	H62	H	0.109288	0.606858	0.416883
	H63	H	0.875426	0.416250	0.406970
	H64	H	0.392574	0.598543	0.120216
	H65	H	0.587265	0.598799	0.888041
	H66	H	0.591226	0.415284	0.121086
	H67	H	0.396043	0.417854	0.885169
	H68	H	0.580539	0.130187	0.398686
	H69	H	0.593603	0.896330	0.584824
	H70	H	0.402080	0.125252	0.589563
	H71	H	0.401787	0.894474	0.411561
	H72	H	0.907738	0.622531	0.089813
	H73	H	0.091962	0.393585	0.093540
	H74	H	0.083918	0.625290	0.915950
	H75	H	0.898896	0.392834	0.904463
	H76	H	0.087244	0.922196	0.618315
	H77	H	0.092387	0.109746	0.382818
	H78	H	0.899289	0.104120	0.619311
	H79	H	0.902912	0.911243	0.385840
	H80	H	0.610711	0.105819	0.911688
	H81	H	0.379269	0.105396	0.087684
	H82	H	0.609053	0.922525	0.100049
	H83	H	0.378842	0.920500	0.915113
	H84	H	0.612171	0.912751	0.099215
	H85	H	0.378106	0.095564	0.103045
	H86	H	0.608464	0.100202	0.913409
	H87	H	0.376959	0.922013	0.906229
	H88	H	0.903195	0.103249	0.618494
	H89	H	0.090228	0.095785	0.387842
	H90	H	0.083850	0.914874	0.619518
	H91	H	0.893705	0.918013	0.385909
	H92	H	0.092110	0.630001	0.909856
	H93	H	0.082609	0.394317	0.100298
	H94	H	0.889458	0.629792	0.092032
	H95	H	0.906310	0.396746	0.910293
	H96	H	0.392677	0.129695	0.599470
	H97	H	0.593412	0.890421	0.607105
	H98	H	0.580275	0.123203	0.421674
	H99	H	0.399879	0.894376	0.411070
	H100	H	0.586675	0.423579	0.117761
	H101	H	0.579503	0.604651	0.888162
	H102	H	0.407571	0.602217	0.117010
	H103	H	0.403830	0.420924	0.888433
	H104	H	0.108491	0.595852	0.407653
	H105	H	0.876827	0.600294	0.600335
	H106	H	0.112213	0.423577	0.606356
	H107	H	0.876410	0.417754	0.411371
	H108	H	0.901912	0.630111	0.107399
	H109	H	0.082137	0.397461	0.089348
	H110	H	0.081761	0.628188	0.904850
	H111	H	0.897345	0.394425	0.914145
	H112	H	0.091170	0.915799	0.621374
	H113	H	0.079378	0.106205	0.387442
	H114	H	0.902807	0.107250	0.620527
	H115	H	0.903846	0.922219	0.389427
	H116	H	0.610025	0.101358	0.907725
	H117	H	0.372654	0.113275	0.103053
	H118	H	0.608558	0.917593	0.091287
	H119	H	0.374999	0.913431	0.909419
	C120	C	0.371736	0.019773	0.625765
	C121	C	0.615448	1.003400	0.625106
	C122	C	0.615374	0.020105	0.382203
	C123	C	0.372601	1.002440	0.382924
	C124	C	0.615193	0.388770	0.011465
	C125	C	0.614172	0.632091	0.995188
	C126	C	0.371420	0.633034	0.011602
	C127	C	0.372462	0.389614	0.994936
	C128	C	0.001959	0.632660	0.381171
	C129	C	0.985191	0.632704	0.624418
	C130	C	0.001594	0.390512	0.623698
	C131	C	0.984761	0.389766	0.380622
	C132	C	0.871237	0.519366	0.124560
	C133	C	0.114633	0.502847	0.123781
	C134	C	0.114875	0.519870	0.880652
	C135	C	0.871578	0.502662	0.881264
	C136	C	0.115789	0.889357	0.511590
	C137	C	0.115215	0.132961	0.494077
	C138	C	0.872504	0.133004	0.511247
	C139	C	0.871716	0.889172	0.495006
	C140	C	0.501522	0.131562	0.882488
	C141	C	0.484957	0.133001	0.126031
	C142	C	0.501554	0.889668	0.125500
	C143	C	0.485091	0.889584	0.881965
	C144	C	0.374990	0.896362	0.679898
	C145	C	0.612699	0.126269	0.680713
	C146	C	0.612905	0.896818	0.327223
	C147	C	0.374848	0.126022	0.328478
	C148	C	0.670483	0.390360	0.888324
	C149	C	0.668990	0.628787	0.118416
	C150	C	0.316859	0.630102	0.888245
	C151	C	0.316432	0.392660	0.117454
	C152	C	0.878342	0.687251	0.385199
	C153	C	0.108275	0.687611	0.622049
	C154	C	0.878517	0.335365	0.620918
	C155	C	0.107882	0.334582	0.382956
	C156	C	0.878616	0.392506	0.679063
	C157	C	0.107571	0.631248	0.680575
	C158	C	0.878303	0.630278	0.326949
	C159	C	0.107562	0.391041	0.324742
	C160	C	0.373673	0.688552	0.888957
	C161	C	0.611863	0.687327	0.118464
	C162	C	0.612786	0.332473	0.888694
	C163	C	0.374326	0.335123	0.118112
	C164	C	0.670360	0.896669	0.384835
	C165	C	0.670482	0.126420	0.623293
	C166	C	0.316888	0.896648	0.623058
	C167	C	0.317321	0.125937	0.385636
	C168	C	0.874379	0.396120	0.179060
	C169	C	0.112437	0.626185	0.179369
	C170	C	0.113011	0.396882	0.824957
	C171	C	0.873404	0.625660	0.826594
	C172	C	0.171038	0.892161	0.388215
	C173	C	0.169605	0.130811	0.617339
	C174	C	0.816675	0.129933	0.388864
	C175	C	0.817210	0.892704	0.618426
	C176	C	0.378292	0.186775	0.885312
	C177	C	0.608187	0.187308	0.122669
	C178	C	0.377973	0.835644	0.122379
	C179	C	0.608479	0.834413	0.884729
	C180	C	0.378541	0.892405	0.180975
	C181	C	0.608091	0.130121	0.180496
	C182	C	0.378629	0.129855	0.827392
	C183	C	0.608142	0.891113	0.826388
	C184	C	0.874424	0.187379	0.388333
	C185	C	0.112174	0.188814	0.616850
	C186	C	0.113163	0.834422	0.388225
	C187	C	0.874834	0.834848	0.618254
	C188	C	0.170657	0.396876	0.882346
	C189	C	0.169440	0.625929	0.121146
	C190	C	0.817038	0.395799	0.121103
	C191	C	0.815800	0.625635	0.884127
	C192	C	0.393899	0.105789	0.604023
	C193	C	0.593468	0.917283	0.602874
	C194	C	0.593560	0.106135	0.404388
	C195	C	0.394770	0.916675	0.404651
	C196	C	0.593202	0.411115	0.097083
	C197	C	0.591630	0.610261	0.909515
	C198	C	0.392994	0.611251	0.097545
	C199	C	0.394535	0.410924	0.908780
	C200	C	0.088074	0.610316	0.402817
	C201	C	0.899044	0.610499	0.602199
	C202	C	0.087830	0.412682	0.601880
	C203	C	0.898535	0.411782	0.402565
	C204	C	0.893184	0.605284	0.102817
	C205	C	0.092058	0.417229	0.101199
	C206	C	0.092526	0.605627	0.903467
	C207	C	0.894262	0.416784	0.903273
	C208	C	0.093893	0.911171	0.597362
	C209	C	0.093541	0.110489	0.408173
	C210	C	0.895238	0.111280	0.597278
	C211	C	0.893618	0.910714	0.409314
	C212	C	0.587635	0.109009	0.904652
	C213	C	0.398631	0.111102	0.104372
	C214	C	0.587776	0.911316	0.103366
	C215	C	0.399207	0.911941	0.903868
	Zn216	Zn	0.493437	0.011141	0.753757
	Zn217	Zn	0.493371	0.011483	0.254294
	Zn218	Zn	0.743301	0.510765	0.002969
	Zn219	Zn	0.243558	0.510882	0.002249
	Zn220	Zn	-0.006263	0.760913	0.503124
	Zn221	Zn	-0.006619	0.261967	0.501926
	Zn222	Zn	-0.006780	0.511741	0.752758
	Zn223	Zn	-0.006929	0.511332	0.252610
	Zn224	Zn	0.492893	0.761604	0.003679
	Zn225	Zn	0.493116	0.260079	0.003517
	Zn226	Zn	0.743727	0.011718	0.503668
	Zn227	Zn	0.244092	0.011153	0.503530
	N228	N	0.408235	0.974129	0.681928
	N229	N	0.579072	0.048678	0.681993
	N230	N	0.579514	0.974552	0.325550
	N231	N	0.408667	0.048479	0.326720
	N232	N	0.671812	0.424888	0.965352
	N233	N	0.670742	0.595414	0.040831
	N234	N	0.315442	0.596206	0.965501
	N235	N	0.315245	0.425837	0.039853
	N236	N	0.956409	0.689169	0.417919
	N237	N	0.030974	0.688875	0.588157
	N238	N	0.955984	0.334110	0.587059
	N239	N	0.030477	0.333744	0.417024
	N240	N	0.956207	0.425989	0.680915
	N241	N	0.029930	0.597942	0.682219
	N242	N	0.955965	0.596891	0.324578
	N243	N	0.030083	0.424999	0.323333
	N244	N	0.406929	0.690383	0.966389
	N245	N	0.578292	0.689441	0.040974
	N246	N	0.579148	0.331268	0.966162
	N247	N	0.408481	0.333098	0.040871
	N248	N	0.671881	0.974205	0.418560
	N249	N	0.672165	0.048890	0.589440
	N250	N	0.314994	0.974262	0.589879
	N251	N	0.315813	0.048178	0.418765
	N252	N	0.907320	0.473943	0.181339
	N253	N	0.078739	0.548571	0.180884
	N254	N	0.079016	0.474314	0.823900
	N255	N	0.907488	0.548202	0.824857
	N256	N	0.172625	0.925662	0.465769
	N257	N	0.171639	0.096806	0.539968
	N258	N	0.815472	0.096912	0.466430
	N259	N	0.815110	0.925806	0.540861
	N260	N	0.455849	0.187714	0.918979
	N261	N	0.530426	0.189257	0.089621
	N262	N	0.455565	0.833814	0.088763
	N263	N	0.530996	0.833135	0.918347
	N264	N	0.456383	0.925207	0.183046
	N265	N	0.530306	0.097205	0.182592
	N266	N	0.456232	0.096244	0.825499
	N267	N	0.530542	0.924897	0.824571
	N268	N	0.908251	0.189383	0.465638
	N269	N	0.079124	0.190281	0.539239
	N270	N	0.079663	0.832433	0.465744
	N271	N	0.908059	0.832622	0.540743
	N272	N	0.172100	0.474288	0.916309
	N273	N	0.170804	0.548467	0.087214
	N274	N	0.815183	0.473344	0.087928
	N275	N	0.814796	0.548173	0.917537
	O276	O	0.498227	0.535977	0.493595
	H277	H	0.499584	0.530049	0.497510
	H278	H	0.495269	0.544054	0.490139
	O279	O	-0.073381	-0.006572	-0.034832
	H280	H	-0.077446	-0.003400	-0.030011
	H281	H	-0.083166	-0.006583	-0.035303
	O282	O	0.999141	-0.052126	0.973958
	H283	H	0.998282	-0.051446	0.969240
	H284	H	0.990682	-0.055497	0.967334
	O285	O	0.929871	-0.012756	0.997410
	H286	H	0.926311	-0.012183	1.005526
	H287	H	0.945335	-0.025752	0.993376
	O288	O	1.480217	0.536749	-0.522183
	H289	H	1.482723	0.541981	-0.520297
	H290	H	1.475315	0.540377	-0.525011
	O291	O	-0.498169	0.485576	-0.463159
	H292	H	-0.497103	0.490738	-0.472708
	H293	H	-0.493011	0.481829	-0.470105
	O294	O	0.486084	0.534822	0.490372
	H295	H	0.481612	0.533447	0.494204
	H296	H	0.488579	0.533032	0.495310
	O297	O	0.514485	0.552684	-0.491519
	H298	H	0.511136	0.553657	-0.493590
	H299	H	0.516418	0.555465	-0.487906
	O300	O	0.983454	-0.040928	0.988317
	H301	H	0.990465	-0.038298	0.986397
	H302	H	0.984860	-0.042991	0.990208
	O303	O	0.561649	0.523928	0.490054
	H304	H	0.564577	0.530078	0.492494
	H305	H	0.570279	0.517008	0.494875
	O306	O	-0.039763	1.041204	0.998302
	H307	H	-0.035148	1.045465	0.999689
	H308	H	-0.044889	1.042822	1.000243
	O309	O	0.517801	0.580990	0.547340
	H310	H	0.509528	0.571543	0.551171
	H311	H	0.512200	0.578861	0.551107
