data_Molecule from HDF5

_cell_length_a		16.527281
_cell_length_b		16.445569
_cell_length_c		16.656877
_cell_angle_alpha	89.935121
_cell_angle_beta	89.979533
_cell_angle_gamma	89.947047
_symmetry_space_group_name_H-M	'P 1'
_symmetry_Int_Tables_number		1

loop_
	_symmetry_equiv_pos_as_xyz
	x,y,z

loop_
	_atom_site_label
	_atom_site_type_symbol
	_atom_site_fract_x
	_atom_site_fract_y
	_atom_site_fract_z
	H0	H	0.412391	0.830620	0.742581
	H1	H	0.621882	0.145419	0.742656
	H2	H	0.622488	0.828731	0.300929
	H3	H	0.413487	0.145240	0.302084
	H4	H	0.737787	0.384164	0.866881
	H5	H	0.737774	0.595188	0.179192
	H6	H	0.297584	0.589577	0.864820
	H7	H	0.296432	0.383950	0.179507
	H8	H	0.858068	0.709552	0.418545
	H9	H	0.174838	0.703331	0.622008
	H10	H	0.857686	0.267755	0.626291
	H11	H	0.174014	0.270425	0.421553
	H12	H	0.858750	0.381591	0.745081
	H13	H	0.174039	0.589449	0.740568
	H14	H	0.859546	0.597639	0.298904
	H15	H	0.171933	0.383074	0.301676
	H16	H	0.415535	0.705254	0.864525
	H17	H	0.619985	0.709584	0.179865
	H18	H	0.619584	0.268150	0.865997
	H19	H	0.412501	0.267098	0.178668
	H20	H	0.737817	0.829608	0.416927
	H21	H	0.736903	0.145476	0.625108
	H22	H	0.299713	0.828831	0.622156
	H23	H	0.300553	0.147651	0.421814
	H24	H	0.907487	0.332233	0.247168
	H25	H	0.122121	0.644435	0.245118
	H26	H	0.118697	0.329852	0.804221
	H27	H	0.909717	0.645316	0.801337
	H28	H	0.238085	0.881977	0.367288
	H29	H	0.235614	0.089728	0.679848
	H30	H	0.792597	0.095406	0.366902
	H31	H	0.790235	0.879229	0.676420
	H32	H	0.359311	0.207803	0.918583
	H33	H	0.673170	0.210226	0.127826
	H34	H	0.357082	0.770876	0.122983
	H35	H	0.672136	0.764204	0.916099
	H36	H	0.359361	0.881957	0.243187
	H37	H	0.671784	0.096250	0.246279
	H38	H	0.359927	0.092668	0.801329
	H39	H	0.670845	0.879480	0.798017
	H40	H	0.910173	0.210882	0.367106
	H41	H	0.116833	0.205206	0.680051
	H42	H	0.122246	0.764504	0.368451
	H43	H	0.911265	0.766423	0.679112
	H44	H	0.232357	0.328421	0.923210
	H45	H	0.233504	0.646042	0.125229
	H46	H	0.792999	0.331753	0.129758
	H47	H	0.794083	0.645754	0.917588
	H48	H	0.423814	0.102433	0.611540
	H49	H	0.604889	0.872791	0.615271
	H50	H	0.609282	0.101687	0.430674
	H51	H	0.423997	0.871896	0.429544
	H52	H	0.605538	0.399449	0.134220
	H53	H	0.602579	0.569187	0.916114
	H54	H	0.416420	0.578588	0.137277
	H55	H	0.427394	0.399270	0.911727
	H56	H	0.129479	0.579578	0.429569
	H57	H	0.902255	0.578755	0.612626
	H58	H	0.129934	0.392119	0.611853
	H59	H	0.901451	0.394110	0.436780
	H60	H	0.125347	0.402306	0.611890
	H61	H	0.902544	0.574991	0.612687
	H62	H	0.125781	0.577898	0.437907
	H63	H	0.906691	0.405403	0.439841
	H64	H	0.426783	0.572206	0.132550
	H65	H	0.599253	0.582816	0.911952
	H66	H	0.603137	0.401637	0.132939
	H67	H	0.423654	0.393942	0.909230
	H68	H	0.597229	0.098246	0.429213
	H69	H	0.596021	0.878617	0.610164
	H70	H	0.426034	0.103173	0.615296
	H71	H	0.429777	0.873876	0.429658
	H72	H	0.926258	0.602984	0.114796
	H73	H	0.103360	0.373473	0.114800
	H74	H	0.108155	0.601965	0.933639
	H75	H	0.931025	0.375850	0.933070
	H76	H	0.107417	0.890557	0.637500
	H77	H	0.107772	0.084521	0.408476
	H78	H	0.925106	0.074490	0.633408
	H79	H	0.930343	0.897496	0.411722
	H80	H	0.626615	0.071729	0.935387
	H81	H	0.407016	0.072453	0.108850
	H82	H	0.629139	0.894612	0.107900
	H83	H	0.407084	0.906068	0.933590
	H84	H	0.626154	0.904202	0.108960
	H85	H	0.404136	0.074675	0.116161
	H86	H	0.631072	0.075506	0.926201
	H87	H	0.400399	0.897904	0.924735
	H88	H	0.927542	0.075027	0.632146
	H89	H	0.112510	0.076415	0.409042
	H90	H	0.111951	0.902511	0.634882
	H91	H	0.924687	0.898458	0.411204
	H92	H	0.108931	0.604173	0.927685
	H93	H	0.102867	0.375620	0.111980
	H94	H	0.935200	0.597938	0.112017
	H95	H	0.927681	0.376994	0.938290
	H96	H	0.427630	0.101440	0.612002
	H97	H	0.606083	0.876537	0.604346
	H98	H	0.602993	0.097003	0.439995
	H99	H	0.426854	0.874163	0.434855
	H100	H	0.602234	0.398364	0.133658
	H101	H	0.613020	0.577565	0.908540
	H102	H	0.427654	0.585324	0.136100
	H103	H	0.421032	0.400494	0.909560
	H104	H	0.126399	0.571368	0.431312
	H105	H	0.901866	0.576473	0.616074
	H106	H	0.130074	0.398223	0.620544
	H107	H	0.902040	0.403448	0.428152
	H108	H	0.926971	0.598315	0.105080
	H109	H	0.105966	0.373904	0.112285
	H110	H	0.103087	0.601803	0.929897
	H111	H	0.924697	0.373949	0.932962
	H112	H	0.100227	0.899768	0.631958
	H113	H	0.103552	0.076795	0.412213
	H114	H	0.926646	0.076809	0.633510
	H115	H	0.927857	0.902663	0.413010
	H116	H	0.629983	0.081963	0.935011
	H117	H	0.404358	0.080595	0.109837
	H118	H	0.630493	0.899244	0.116816
	H119	H	0.403277	0.893810	0.937173
	C120	C	0.395110	-0.003009	0.643518
	C121	C	0.636098	0.979770	0.642089
	C122	C	0.636422	-0.005010	0.400868
	C123	C	0.395548	0.978698	0.401019
	C124	C	0.637015	0.367226	0.031020
	C125	C	0.637301	0.609799	1.015135
	C126	C	0.393625	0.609335	0.031247
	C127	C	0.393416	0.366179	1.013869
	C128	C	0.023590	0.609825	0.400896
	C129	C	1.006998	0.607538	0.643922
	C130	C	0.024145	0.365761	0.645731
	C131	C	1.007198	0.368257	0.402912
	C132	C	0.894955	0.496837	0.144385
	C133	C	0.135951	0.478916	0.144353
	C134	C	0.136875	0.496996	0.901479
	C135	C	0.894808	0.479730	0.901966
	C136	C	0.137999	0.865878	0.531500
	C137	C	0.138119	0.109461	0.514190
	C138	C	0.894035	0.108951	0.530386
	C139	C	0.894180	0.866089	0.514332
	C140	C	0.525215	0.108528	0.900880
	C141	C	0.508268	0.109137	0.143926
	C142	C	0.524474	0.867159	0.142833
	C143	C	0.507172	0.866176	0.900142
	C144	C	0.393846	0.877774	0.702392
	C145	C	0.639729	0.098201	0.702358
	C146	C	0.640158	0.876364	0.340915
	C147	C	0.394551	0.098071	0.342283
	C148	C	0.697500	0.365219	0.913682
	C149	C	0.697524	0.612768	0.132463
	C150	C	0.336617	0.608944	0.912255
	C151	C	0.335451	0.364868	0.132132
	C152	C	0.905585	0.670189	0.399468
	C153	C	0.126916	0.664857	0.642328
	C154	C	0.905293	0.306525	0.646258
	C155	C	0.126116	0.309053	0.402001
	C156	C	0.905837	0.363219	0.705119
	C157	C	0.126519	0.608090	0.701123
	C158	C	0.906201	0.614091	0.340126
	C159	C	0.125227	0.365426	0.342804
	C160	C	0.395035	0.666654	0.912135
	C161	C	0.638556	0.669650	0.132685
	C162	C	0.638715	0.307749	0.913090
	C163	C	0.393389	0.306989	0.131772
	C164	C	0.697508	0.876591	0.398874
	C165	C	0.696923	0.098188	0.644035
	C166	C	0.337773	0.876830	0.643002
	C167	C	0.338278	0.099085	0.401544
	C168	C	0.890430	0.379139	0.206279
	C169	C	0.139076	0.597321	0.204335
	C170	C	0.137448	0.377048	0.844084
	C171	C	0.891770	0.598032	0.841471
	C172	C	0.197994	0.863479	0.414220
	C173	C	0.195933	0.109245	0.632702
	C174	C	0.833122	0.112940	0.413759
	C175	C	0.831931	0.862229	0.630675
	C176	C	0.406748	0.168240	0.899739
	C177	C	0.625727	0.170149	0.146396
	C178	C	0.405064	0.809221	0.142683
	C179	C	0.625207	0.805012	0.897875
	C180	C	0.406293	0.864409	0.202675
	C181	C	0.625402	0.113262	0.205357
	C182	C	0.406994	0.111319	0.841111
	C183	C	0.624524	0.861949	0.838953
	C184	C	0.891417	0.170632	0.413766
	C185	C	0.136933	0.166455	0.633038
	C186	C	0.140301	0.805263	0.414584
	C187	C	0.891975	0.806114	0.631940
	C188	C	0.194054	0.376599	0.902880
	C189	C	0.194786	0.598211	0.144952
	C190	C	0.833695	0.378794	0.147681
	C191	C	0.834545	0.598421	0.899709
	C192	C	0.419129	0.080623	0.619827
	C193	C	0.609855	0.897473	0.616881
	C194	C	0.610559	0.077356	0.426132
	C195	C	0.419660	0.895109	0.424560
	C196	C	0.611164	0.392664	0.112184
	C197	C	0.612290	0.584008	0.933552
	C198	C	0.416856	0.585617	0.113767
	C199	C	0.417182	0.390732	0.931596
	C200	C	0.105752	0.583725	0.425856
	C201	C	0.923965	0.583581	0.620621
	C202	C	0.106856	0.390597	0.621635
	C203	C	0.924802	0.393724	0.427708
	C204	C	0.921746	0.578473	0.118036
	C205	C	0.111098	0.395918	0.120100
	C206	C	0.113303	0.580732	0.923969
	C207	C	0.920351	0.397095	0.927410
	C208	C	0.113508	0.890597	0.613581
	C209	C	0.114695	0.086066	0.431498
	C210	C	0.919215	0.082854	0.611992
	C211	C	0.920039	0.892074	0.433001
	C212	C	0.607719	0.083347	0.924996
	C213	C	0.426375	0.083091	0.118841
	C214	C	0.607101	0.892235	0.118264
	C215	C	0.424808	0.891819	0.924841
	Zn216	Zn	0.516419	-0.011827	0.771981
	Zn217	Zn	0.516728	-0.013042	0.272260
	Zn218	Zn	0.766571	0.488690	0.023508
	Zn219	Zn	0.264375	0.487813	0.023508
	Zn220	Zn	0.015661	0.737047	0.523295
	Zn221	Zn	0.015218	0.238376	0.523008
	Zn222	Zn	0.015213	0.487525	0.773324
	Zn223	Zn	0.015383	0.488212	0.273002
	Zn224	Zn	0.515833	0.738644	0.022545
	Zn225	Zn	0.515940	0.237736	0.022137
	Zn226	Zn	0.765216	-0.012749	0.521557
	Zn227	Zn	0.267158	-0.012399	0.522242
	N228	N	0.428378	0.953627	0.702957
	N229	N	0.602640	0.023515	0.701382
	N230	N	0.602992	0.951146	0.342054
	N231	N	0.429049	0.022036	0.341451
	N232	N	0.696869	0.401132	0.988038
	N233	N	0.696877	0.576320	0.058249
	N234	N	0.335227	0.574371	0.987374
	N235	N	0.335110	0.400883	0.057695
	N236	N	0.979818	0.667835	0.436454
	N237	N	0.051480	0.664869	0.607610
	N238	N	0.979992	0.307898	0.610079
	N239	N	0.051570	0.310608	0.438668
	N240	N	0.980699	0.399107	0.705070
	N241	N	0.050928	0.573415	0.702366
	N242	N	0.980870	0.577580	0.340663
	N243	N	0.050249	0.401404	0.343153
	N244	N	0.429557	0.667342	0.987137
	N245	N	0.602201	0.668300	0.058474
	N246	N	0.602069	0.308591	0.987119
	N247	N	0.428663	0.307652	0.057165
	N248	N	0.695480	0.951405	0.435264
	N249	N	0.694890	0.023473	0.607360
	N250	N	0.338281	0.952191	0.607318
	N251	N	0.338642	0.023624	0.437169
	N252	N	0.927699	0.453681	0.204340
	N253	N	0.103321	0.522118	0.204114
	N254	N	0.102820	0.453002	0.842648
	N255	N	0.928652	0.523086	0.842914
	N256	N	0.196741	0.900458	0.487990
	N257	N	0.197225	0.075110	0.557609
	N258	N	0.834766	0.075154	0.487237
	N259	N	0.833253	0.898600	0.556353
	N260	N	0.481291	0.166811	0.936103
	N261	N	0.551915	0.167661	0.108708
	N262	N	0.479632	0.810671	0.106154
	N263	N	0.551211	0.807508	0.935297
	N264	N	0.481538	0.899765	0.202676
	N265	N	0.551266	0.075643	0.203834
	N266	N	0.481745	0.074994	0.841737
	N267	N	0.550219	0.899396	0.840389
	N268	N	0.928672	0.168159	0.487424
	N269	N	0.101967	0.166968	0.558114
	N270	N	0.103610	0.806529	0.488613
	N271	N	0.930026	0.808498	0.558734
	N272	N	0.194126	0.452297	0.937454
	N273	N	0.193014	0.523585	0.108104
	N274	N	0.836269	0.452979	0.109865
	N275	N	0.836283	0.523786	0.936603
	O276	O	0.927684	0.890052	-0.183511
	H277	H	0.953021	0.890802	-0.187974
	H278	H	0.954227	0.886200	-0.174058
	O279	O	0.325161	0.680297	0.481874
	H280	H	0.313628	0.682841	0.493193
	H281	H	0.332110	0.679359	0.489190
	O282	O	1.040339	0.199271	0.236155
	H283	H	1.056328	0.186791	0.234594
	H284	H	1.036636	0.221034	0.251648
	O285	O	-0.185117	1.014087	0.075650
	H286	H	-0.191405	1.022811	0.080520
	H287	H	-0.184332	1.020374	0.088187
	O288	O	1.207960	0.114219	1.152868
	H289	H	1.229153	0.135879	1.166869
	H290	H	1.205837	0.084075	1.159244
	O291	O	0.216011	0.019632	-0.035398
	H292	H	0.219487	0.030671	-0.021153
	H293	H	0.217281	-0.001306	-0.014811
	O294	O	-0.020534	-0.198698	-0.021771
	H295	H	-0.026075	-0.198016	-0.030288
	H296	H	-0.005021	-0.204305	-0.017513
	O297	O	0.627143	0.541783	0.458270
	H298	H	0.610092	0.535375	0.463072
	H299	H	0.635712	0.541109	0.471736
	O300	O	-0.042947	0.196744	0.063889
	H301	H	-0.043158	0.194201	0.049420
	H302	H	-0.047518	0.183258	0.081939
	O303	O	0.212445	0.199232	0.053327
	H304	H	0.188052	0.203650	0.068523
	H305	H	0.233768	0.224419	0.061544
	O306	O	0.323547	0.508802	-0.622452
	H307	H	0.327338	0.497409	-0.619043
	H308	H	0.317960	0.516057	-0.615219
	O309	O	1.123540	-0.040681	-0.089942
	H310	H	1.124174	-0.038287	-0.083690
	H311	H	1.101189	-0.048223	-0.087863
	O312	O	0.542809	0.449875	0.701412
	H313	H	0.530412	0.442213	0.688354
	H314	H	0.547012	0.463944	0.699535
	O315	O	0.602310	0.284990	0.517022
	H316	H	0.589278	0.283451	0.520759
	H317	H	0.619056	0.284021	0.527889
	O318	O	1.157142	0.973542	0.251851
	H319	H	1.156863	0.996646	0.243364
	H320	H	1.170556	0.985512	0.272785
	O321	O	-0.011696	0.773526	1.239877
	H322	H	0.001379	0.778680	1.236118
	H323	H	-0.004486	0.755350	1.260069
	O324	O	1.231258	-0.033628	0.828862
	H325	H	1.238269	-0.026234	0.816265
	H326	H	1.231768	-0.010391	0.847820
	O327	O	0.519993	0.332337	0.316467
	H328	H	0.521736	0.334355	0.313435
	H329	H	0.521078	0.331225	0.323696
	O330	O	-0.516995	1.278710	0.737037
	H331	H	-0.527835	1.274168	0.736127
	H332	H	-0.519709	1.268371	0.746501
	O333	O	0.050416	0.767325	0.803724
	H334	H	0.070828	0.753263	0.795455
	H335	H	0.079378	0.753927	0.792398
	O336	O	-0.098760	1.195159	-0.182085
	H337	H	-0.096816	1.185367	-0.188576
	H338	H	-0.107903	1.189373	-0.174413
	O339	O	-0.188289	0.851805	-0.111941
	H340	H	-0.179701	0.856400	-0.111146
	H341	H	-0.178793	0.879399	-0.106307
	O342	O	-0.184826	0.788640	0.030498
	H343	H	-0.206362	0.781585	0.020160
	H344	H	-0.174153	0.771397	0.021663
	O345	O	0.687671	0.285039	0.316647
	H346	H	0.684607	0.309418	0.311834
	H347	H	0.685548	0.273597	0.315943
	O348	O	0.561762	0.635087	0.409937
	H349	H	0.557770	0.627246	0.408777
	H350	H	0.549017	0.629191	0.402282
	O351	O	0.034774	0.028316	0.847407
	H352	H	0.040529	0.025789	0.848894
	H353	H	0.034893	0.035333	0.868129
	O354	O	0.975973	0.121582	1.066655
	H355	H	0.988027	0.117693	1.068591
	H356	H	0.966846	0.107124	1.064127
	O357	O	-0.332216	0.466273	-0.312431
	H358	H	-0.330351	0.457436	-0.304184
	H359	H	-0.326218	0.485051	-0.311563
	O360	O	0.199306	-0.106118	1.081393
	H361	H	0.191691	-0.102931	1.067953
	H362	H	0.203401	-0.128704	1.065301
	O363	O	0.617761	0.689596	0.673845
	H364	H	0.642226	0.693970	0.688787
	H365	H	0.635427	0.690830	0.646714
	O366	O	0.802926	0.056002	0.897088
	H367	H	0.792995	0.060944	0.888971
	H368	H	0.806402	0.046902	0.910408
	O369	O	0.024626	-0.010657	1.015773
	H370	H	0.010847	-0.009454	1.012667
	H371	H	0.013410	-0.019554	1.023697
	O372	O	0.223784	0.776842	0.811895
	H373	H	0.258392	0.749191	0.777489
	H374	H	0.230936	0.832554	0.803630
	O375	O	0.594093	0.456109	-0.516634
	H376	H	0.605022	0.452521	-0.503615
	H377	H	0.585606	0.469129	-0.515718
	O378	O	0.313714	0.685494	0.311781
	H379	H	0.290015	0.694035	0.307596
	H380	H	0.319028	0.670211	0.329892
	O381	O	0.085037	1.112956	0.139851
	H382	H	0.082422	1.108702	0.117976
	H383	H	0.067812	1.115260	0.152152
	O384	O	1.287430	1.192234	0.294521
	H385	H	1.307449	1.188521	0.290857
	H386	H	1.280989	1.182920	0.277051
	O387	O	-0.150693	1.077304	1.169139
	H388	H	-0.157189	1.084805	1.185426
	H389	H	-0.153423	1.074898	1.168086
	O390	O	0.205305	1.176194	0.832551
	H391	H	0.182520	1.168508	0.857050
	H392	H	0.191344	1.149613	0.848389
	O393	O	0.863059	0.163847	-0.052661
	H394	H	0.846887	0.182673	-0.055366
	H395	H	0.863004	0.161190	-0.053637
	O396	O	0.473008	0.354075	0.436020
	H397	H	0.489332	0.341384	0.431385
	H398	H	0.472285	0.376389	0.440953
	O399	O	0.530411	0.652779	0.329101
	H400	H	0.513761	0.658454	0.322755
	H401	H	0.510370	0.660489	0.319945
	O402	O	1.593475	0.421195	1.527515
	H403	H	1.611860	0.407267	1.537361
	H404	H	1.588621	0.451030	1.524958
	O405	O	0.674485	0.574261	0.739158
	H406	H	0.682454	0.584136	0.754435
	H407	H	0.678158	0.583916	0.753325
	O408	O	0.906399	0.093186	0.107193
	H409	H	0.891192	0.098601	0.106595
	H410	H	0.901888	0.086509	0.115818
	O411	O	0.331318	1.678994	-0.290308
	H412	H	0.357628	1.667391	-0.307524
	H413	H	0.343737	1.650556	-0.305711
	O414	O	0.027632	0.201777	-0.115476
	H415	H	0.015302	0.198468	-0.104130
	H416	H	0.016633	0.216481	-0.120755
	O417	O	0.710421	0.645315	0.606196
	H418	H	0.711763	0.652949	0.586497
	H419	H	0.707135	0.655865	0.604494
	O420	O	1.704591	-0.637040	0.422323
	H421	H	1.704049	-0.630715	0.413878
	H422	H	1.715183	-0.642546	0.420906
	O423	O	1.238572	0.766661	-0.017667
	H424	H	1.239133	0.762081	-0.053778
	H425	H	1.264973	0.742546	-0.033530
	O426	O	0.310401	0.452334	0.508480
	H427	H	0.312504	0.425970	0.501532
	H428	H	0.305408	0.435020	0.509531
	O429	O	0.593411	0.445593	0.483779
	H430	H	0.595414	0.450354	0.478611
	H431	H	0.585866	0.451551	0.477499
	O432	O	1.494267	0.646050	1.576338
	H433	H	1.498720	0.650493	1.578287
	H434	H	1.495491	0.632966	1.586104
	O435	O	-0.162356	-0.014519	0.235756
	H436	H	-0.177839	-0.021496	0.256308
	H437	H	-0.160176	-0.052918	0.234390
	O438	O	0.297414	0.271769	0.562989
	H439	H	0.289235	0.251814	0.575689
	H440	H	0.298709	0.258708	0.570439
	O441	O	0.726931	0.471716	0.412350
	H442	H	0.728382	0.491196	0.425107
	H443	H	0.745018	0.466918	0.396953
	O444	O	0.563178	0.498977	0.496121
	H445	H	0.558818	0.511906	0.489054
	H446	H	0.568843	0.502459	0.510493
	O447	O	0.446951	0.508434	0.311924
	H448	H	0.464336	0.516710	0.304831
	H449	H	0.445470	0.516386	0.315573
	O450	O	0.802913	0.012936	-0.188242
	H451	H	0.814062	-0.002939	-0.199920
	H452	H	0.799164	0.014969	-0.195065
	O453	O	0.355967	0.528799	0.638287
	H454	H	0.344445	0.516381	0.633688
	H455	H	0.361877	0.506852	0.638286
	O456	O	0.021195	0.987842	1.249022
	H457	H	0.017845	0.998627	1.248587
	H458	H	0.022046	0.997794	1.251194
	O459	O	0.566841	0.475324	0.531607
	H460	H	0.556056	0.478449	0.546377
	H461	H	0.583890	0.476426	0.534004
	O462	O	0.299449	0.449582	0.741744
	H463	H	0.291499	0.440722	0.747757
	H464	H	0.289001	0.431838	0.755217
	O465	O	0.308551	0.279450	0.731235
	H466	H	0.286320	0.254970	0.735262
	H467	H	0.315257	0.281813	0.746722
	O468	O	0.820457	1.799589	0.197400
	H469	H	0.807709	1.784283	0.160620
	H470	H	0.855890	1.786973	0.212963
	O471	O	0.538073	0.588646	0.719130
	H472	H	0.548068	0.601898	0.738776
	H473	H	0.544495	0.574503	0.716969
	O474	O	1.186435	0.810724	0.202639
	H475	H	1.184990	0.823936	0.195845
	H476	H	1.176991	0.825086	0.197731
	O477	O	0.044651	-0.187798	1.053592
	H478	H	0.048896	-0.188893	1.056938
	H479	H	0.065818	-0.194363	1.048338
