data_Molecule from HDF5

_cell_length_a		16.218228
_cell_length_b		16.321223
_cell_length_c		16.412621
_cell_angle_alpha	89.945324
_cell_angle_beta	89.956771
_cell_angle_gamma	90.222659
_symmetry_space_group_name_H-M	'P 1'
_symmetry_Int_Tables_number		1

loop_
	_symmetry_equiv_pos_as_xyz
	x,y,z

loop_
	_atom_site_label
	_atom_site_type_symbol
	_atom_site_fract_x
	_atom_site_fract_y
	_atom_site_fract_z
	H0	H	0.393859	0.837209	0.726791
	H1	H	0.604518	0.158451	0.724665
	H2	H	0.603248	0.836718	0.285336
	H3	H	0.395290	0.157181	0.284885
	H4	H	0.716191	0.397480	0.845011
	H5	H	0.716553	0.596448	0.168123
	H6	H	0.280548	0.599200	0.846755
	H7	H	0.284039	0.396856	0.168910
	H8	H	0.837167	0.712293	0.404873
	H9	H	0.161643	0.713875	0.608597
	H10	H	0.836826	0.277999	0.607506
	H11	H	0.161614	0.280468	0.405600
	H12	H	0.836836	0.391452	0.725153
	H13	H	0.160252	0.600741	0.726337
	H14	H	0.837992	0.596499	0.288809
	H15	H	0.161350	0.392060	0.289366
	H16	H	0.397152	0.715870	0.846114
	H17	H	0.603227	0.715668	0.166969
	H18	H	0.602206	0.279486	0.844837
	H19	H	0.396120	0.276781	0.166042
	H20	H	0.715196	0.835124	0.404668
	H21	H	0.716905	0.159886	0.604441
	H22	H	0.280721	0.835585	0.609643
	H23	H	0.281603	0.158080	0.403334
	H24	H	0.893984	0.334065	0.226523
	H25	H	0.103840	0.655808	0.227350
	H26	H	0.103681	0.335184	0.788614
	H27	H	0.892865	0.655424	0.787102
	H28	H	0.218779	0.893527	0.346444
	H29	H	0.219676	0.100198	0.665958
	H30	H	0.782031	0.097181	0.344272
	H31	H	0.782318	0.897005	0.667653
	H32	H	0.336911	0.213686	0.904404
	H33	H	0.662614	0.214051	0.104943
	H34	H	0.338335	0.776759	0.110375
	H35	H	0.662051	0.781236	0.903865
	H36	H	0.338257	0.891701	0.225609
	H37	H	0.661413	0.101702	0.223754
	H38	H	0.337662	0.102526	0.786782
	H39	H	0.662478	0.898629	0.790074
	H40	H	0.896159	0.214869	0.345033
	H41	H	0.106076	0.218052	0.664954
	H42	H	0.103016	0.776496	0.347238
	H43	H	0.894864	0.777055	0.666661
	H44	H	0.214662	0.333752	0.909702
	H45	H	0.216728	0.658466	0.109752
	H46	H	0.780223	0.334153	0.107870
	H47	H	0.784345	0.657813	0.907428
	H48	H	0.410229	0.113976	0.603094
	H49	H	0.591230	0.882275	0.597122
	H50	H	0.589432	0.109765	0.421549
	H51	H	0.397960	0.876088	0.407370
	H52	H	0.583580	0.394918	0.122204
	H53	H	0.590039	0.599403	0.889250
	H54	H	0.397281	0.592305	0.125998
	H55	H	0.408451	0.398305	0.889352
	H56	H	0.115852	0.590091	0.418587
	H57	H	0.883360	0.587914	0.595207
	H58	H	0.113571	0.408193	0.595761
	H59	H	0.883006	0.404116	0.415995
	H60	H	0.114456	0.407957	0.600269
	H61	H	0.885641	0.581527	0.594729
	H62	H	0.113317	0.582738	0.419692
	H63	H	0.883748	0.405036	0.417452
	H64	H	0.411660	0.575852	0.115765
	H65	H	0.599790	0.584384	0.890854
	H66	H	0.600701	0.405538	0.123630
	H67	H	0.399608	0.409286	0.890686
	H68	H	0.597156	0.115534	0.411367
	H69	H	0.590489	0.881632	0.601509
	H70	H	0.417087	0.108209	0.594400
	H71	H	0.426166	0.885727	0.408790
	H72	H	0.908948	0.611945	0.102636
	H73	H	0.087777	0.383675	0.091275
	H74	H	0.085521	0.610606	0.914934
	H75	H	0.916226	0.380672	0.907778
	H76	H	0.093055	0.906463	0.621358
	H77	H	0.085300	0.088776	0.393965
	H78	H	0.916393	0.090111	0.617719
	H79	H	0.909635	0.904789	0.393003
	H80	H	0.615576	0.086984	0.911755
	H81	H	0.384446	0.083944	0.099088
	H82	H	0.615685	0.910744	0.101199
	H83	H	0.385306	0.908983	0.920441
	H84	H	0.617293	0.901759	0.095251
	H85	H	0.383810	0.089622	0.096210
	H86	H	0.616512	0.092260	0.913518
	H87	H	0.384427	0.911022	0.912017
	H88	H	0.903407	0.090137	0.622799
	H89	H	0.092911	0.090500	0.389821
	H90	H	0.087128	0.908933	0.618538
	H91	H	0.908425	0.900916	0.390433
	H92	H	0.089992	0.609716	0.919950
	H93	H	0.098996	0.378138	0.100688
	H94	H	0.913928	0.609257	0.098370
	H95	H	0.911727	0.383810	0.926551
	H96	H	0.405096	0.111796	0.592081
	H97	H	0.587472	0.883292	0.598596
	H98	H	0.583701	0.111988	0.408482
	H99	H	0.408497	0.887218	0.432536
	H100	H	0.584191	0.414609	0.115618
	H101	H	0.582909	0.584287	0.896050
	H102	H	0.420558	0.597170	0.121173
	H103	H	0.412893	0.410248	0.894638
	H104	H	0.116172	0.584778	0.412892
	H105	H	0.882754	0.583667	0.600627
	H106	H	0.115685	0.404187	0.597345
	H107	H	0.883139	0.406396	0.416019
	H108	H	0.907363	0.609880	0.096036
	H109	H	0.084024	0.380623	0.106212
	H110	H	0.092414	0.612772	0.913743
	H111	H	0.897658	0.376469	0.913863
	H112	H	0.087222	0.902143	0.621755
	H113	H	0.091319	0.082491	0.393493
	H114	H	0.908233	0.079236	0.617348
	H115	H	0.905258	0.904254	0.390801
	H116	H	0.614195	0.088174	0.917289
	H117	H	0.385240	0.085430	0.092577
	H118	H	0.612316	0.910797	0.091036
	H119	H	0.382075	0.902196	0.914683
	C120	C	0.378338	0.005430	0.628087
	C121	C	0.620832	0.989570	0.627918
	C122	C	0.620556	0.005686	0.383763
	C123	C	0.378660	0.988740	0.384542
	C124	C	0.620484	0.375450	0.014402
	C125	C	0.622011	0.619578	0.998243
	C126	C	0.378139	0.619187	0.015178
	C127	C	0.376961	0.374848	0.997940
	C128	C	0.008197	0.616403	0.385983
	C129	C	0.990463	0.616695	0.628317
	C130	C	0.007676	0.374681	0.628312
	C131	C	0.990566	0.374571	0.385720
	C132	C	0.878063	0.503856	0.129478
	C133	C	0.121247	0.487193	0.130044
	C134	C	0.120297	0.504307	0.886271
	C135	C	0.878076	0.486796	0.885945
	C136	C	0.120842	0.874876	0.514861
	C137	C	0.121662	0.118695	0.497584
	C138	C	0.878103	0.117910	0.513479
	C139	C	0.876582	0.873450	0.497638
	C140	C	0.507972	0.119566	0.883977
	C141	C	0.491416	0.117960	0.126108
	C142	C	0.508061	0.876081	0.127312
	C143	C	0.491164	0.877068	0.885056
	C144	C	0.375698	0.885116	0.687509
	C145	C	0.622123	0.110710	0.684928
	C146	C	0.621420	0.884605	0.325311
	C147	C	0.376696	0.109237	0.324925
	C148	C	0.677836	0.376901	0.893171
	C149	C	0.678674	0.617447	0.119581
	C150	C	0.319671	0.618820	0.894595
	C151	C	0.321266	0.376183	0.119867
	C152	C	0.885783	0.673477	0.385778
	C153	C	0.112551	0.675223	0.628481
	C154	C	0.885812	0.316024	0.627882
	C155	C	0.112949	0.318082	0.385860
	C156	C	0.885864	0.372375	0.686681
	C157	C	0.112114	0.618632	0.686896
	C158	C	0.886260	0.616192	0.327690
	C159	C	0.112676	0.373532	0.328125
	C160	C	0.377569	0.676842	0.894475
	C161	C	0.622482	0.676963	0.118881
	C162	C	0.620867	0.318539	0.893027
	C163	C	0.377361	0.316679	0.118549
	C164	C	0.677179	0.883920	0.384516
	C165	C	0.678499	0.111123	0.625494
	C166	C	0.319337	0.884369	0.628808
	C167	C	0.320011	0.109583	0.383908
	C168	C	0.875992	0.382487	0.187363
	C169	C	0.122515	0.608026	0.188150
	C170	C	0.121725	0.383432	0.828402
	C171	C	0.875914	0.607692	0.827170
	C172	C	0.179544	0.874557	0.394536
	C173	C	0.180294	0.119295	0.617991
	C174	C	0.820637	0.117274	0.392461
	C175	C	0.819859	0.876005	0.618863
	C176	C	0.385635	0.176173	0.884242
	C177	C	0.613698	0.175807	0.125072
	C178	C	0.386634	0.816504	0.128987
	C179	C	0.613487	0.820032	0.885090
	C180	C	0.386612	0.873924	0.186182
	C181	C	0.613152	0.119862	0.184199
	C182	C	0.386204	0.120539	0.825938
	C183	C	0.613487	0.878060	0.828067
	C184	C	0.877758	0.175976	0.393018
	C185	C	0.123576	0.178034	0.617309
	C186	C	0.121987	0.816124	0.394784
	C187	C	0.876392	0.816709	0.618770
	C188	C	0.177509	0.382779	0.888386
	C189	C	0.178630	0.609326	0.129296
	C190	C	0.818949	0.382584	0.128677
	C191	C	0.821658	0.609031	0.886985
	C192	C	0.403577	0.089589	0.603496
	C193	C	0.596658	0.904605	0.605719
	C194	C	0.596903	0.090295	0.407072
	C195	C	0.403697	0.904808	0.409151
	C196	C	0.596445	0.398389	0.098547
	C197	C	0.597998	0.596320	0.913996
	C198	C	0.402717	0.595226	0.099304
	C199	C	0.400233	0.398790	0.913493
	C200	C	0.092935	0.592908	0.410154
	C201	C	0.905966	0.591700	0.604100
	C202	C	0.092538	0.399598	0.604818
	C203	C	0.905474	0.398167	0.409409
	C204	C	0.902915	0.588245	0.105938
	C205	C	0.097186	0.402564	0.106306
	C206	C	0.096274	0.589133	0.909488
	C207	C	0.901647	0.402272	0.909321
	C208	C	0.096444	0.898953	0.598688
	C209	C	0.096949	0.094384	0.413934
	C210	C	0.902240	0.093607	0.597424
	C211	C	0.900713	0.896516	0.413152
	C212	C	0.593219	0.096015	0.907434
	C213	C	0.406350	0.093505	0.102639
	C214	C	0.592938	0.900635	0.102813
	C215	C	0.406079	0.900398	0.908926
	Zn216	Zn	0.498945	-0.001691	0.756966
	Zn217	Zn	0.499722	-0.002534	0.254991
	Zn218	Zn	0.749867	0.496360	0.006672
	Zn219	Zn	0.249260	0.497031	0.007983
	Zn220	Zn	-0.000986	0.745525	0.507042
	Zn221	Zn	-0.000412	0.247273	0.505513
	Zn222	Zn	-0.001247	0.496038	0.757303
	Zn223	Zn	0.000041	0.494646	0.258183
	Zn224	Zn	0.499783	0.748277	0.006417
	Zn225	Zn	0.498707	0.246646	0.004824
	Zn226	Zn	0.748777	-0.003412	0.505021
	Zn227	Zn	0.250157	-0.003186	0.506778
	N228	N	0.411741	0.961440	0.687004
	N229	N	0.587104	0.033958	0.686588
	N230	N	0.587322	0.961591	0.324385
	N231	N	0.412144	0.032960	0.324978
	N232	N	0.677749	0.411514	0.969493
	N233	N	0.678395	0.582508	0.043552
	N234	N	0.319926	0.583793	0.970873
	N235	N	0.320794	0.411439	0.043776
	N236	N	0.962685	0.673822	0.421226
	N237	N	0.035904	0.674365	0.592936
	N238	N	0.962742	0.317069	0.592449
	N239	N	0.036031	0.318523	0.420850
	N240	N	0.962789	0.408021	0.687271
	N241	N	0.035096	0.583123	0.687034
	N242	N	0.963326	0.581693	0.327564
	N243	N	0.035455	0.407931	0.327688
	N244	N	0.413155	0.677168	0.970506
	N245	N	0.588018	0.678426	0.042340
	N246	N	0.585758	0.317549	0.969272
	N247	N	0.411195	0.315867	0.041667
	N248	N	0.676773	0.960094	0.420222
	N249	N	0.677863	0.034627	0.590798
	N250	N	0.320793	0.960370	0.592726
	N251	N	0.321102	0.033606	0.420314
	N252	N	0.912153	0.458803	0.187777
	N253	N	0.087664	0.531246	0.188663
	N254	N	0.086967	0.460183	0.826864
	N255	N	0.910482	0.530854	0.826571
	N256	N	0.178704	0.910446	0.470256
	N257	N	0.179454	0.083165	0.542493
	N258	N	0.820886	0.081813	0.468294
	N259	N	0.819997	0.910444	0.542297
	N260	N	0.462307	0.175723	0.919539
	N261	N	0.536981	0.174741	0.089546
	N262	N	0.463186	0.817877	0.092862
	N263	N	0.536253	0.819134	0.919905
	N264	N	0.463181	0.910342	0.185062
	N265	N	0.536138	0.084485	0.184788
	N266	N	0.463415	0.086004	0.825642
	N267	N	0.536465	0.912849	0.828069
	N268	N	0.912805	0.176254	0.469353
	N269	N	0.087846	0.177765	0.541407
	N270	N	0.086382	0.815982	0.470769
	N271	N	0.910734	0.814707	0.542209
	N272	N	0.176719	0.459126	0.923625
	N273	N	0.177966	0.533029	0.093765
	N274	N	0.819832	0.459130	0.093507
	N275	N	0.822775	0.532961	0.922946
	O276	O	0.401246	0.646973	0.596993
	H277	H	0.412292	0.657929	0.593067
	H278	H	0.391334	0.646411	0.575792
	O279	O	0.602324	0.632780	0.579618
	H280	H	0.606655	0.648597	0.574337
	H281	H	0.605103	0.629223	0.590484
	O282	O	1.098887	-0.113233	0.919287
	H283	H	1.095520	-0.098273	0.937455
	H284	H	1.112311	-0.122169	0.932918
	O285	O	0.486740	0.455709	0.412017
	H286	H	0.485019	0.457750	0.414116
	H287	H	0.493963	0.461419	0.422453
	O288	O	0.947968	1.000233	0.879657
	H289	H	0.936431	0.991651	0.870190
	H290	H	0.973248	0.997689	0.885826
	O291	O	-0.604165	0.394714	0.673401
	H292	H	-0.605634	0.400185	0.680923
	H293	H	-0.601344	0.392246	0.663728
	O294	O	0.581591	0.429278	0.351361
	H295	H	0.587499	0.417370	0.344572
	H296	H	0.576680	0.422272	0.344906
	O297	O	0.416708	0.379760	0.575913
	H298	H	0.419359	0.389444	0.586411
	H299	H	0.413097	0.373597	0.586868
	O300	O	0.479364	0.557851	0.694263
	H301	H	0.478617	0.558205	0.692042
	H302	H	0.486096	0.568177	0.688464
	O303	O	1.121546	-0.122109	0.021245
	H304	H	1.130988	-0.119096	0.023301
	H305	H	1.132016	-0.121229	0.025384
	O306	O	0.567338	0.355129	0.575907
	H307	H	0.565724	0.349895	0.561952
	H308	H	0.562539	0.343951	0.574835
	O309	O	0.346870	0.516099	0.336430
	H310	H	0.342012	0.516023	0.328167
	H311	H	0.347992	0.515862	0.342173
	O312	O	-0.017156	-0.177411	0.032908
	H313	H	-0.002369	-0.162134	0.029956
	H314	H	-0.015090	-0.184095	0.021388
	O315	O	0.547864	0.392868	0.553336
	H316	H	0.547281	0.395611	0.541164
	H317	H	0.542965	0.396595	0.556930
	O318	O	-0.038534	1.006131	0.945093
	H319	H	-0.027607	0.995686	0.933529
	H320	H	-0.049078	1.012477	0.936435
	O321	O	0.616005	0.387991	0.338958
	H322	H	0.623680	0.395637	0.350487
	H323	H	0.619524	0.374212	0.334536
	O324	O	-0.099985	1.106548	-0.109964
	H325	H	-0.124105	1.094948	-0.098506
	H326	H	-0.092173	1.120605	-0.118371
	O327	O	1.084233	1.088451	0.052158
	H328	H	1.079413	1.094017	0.047347
	H329	H	1.095943	1.082392	0.059542
	O330	O	-0.170042	-0.177289	0.972697
	H331	H	-0.182057	-0.179878	0.987255
	H332	H	-0.151902	-0.187644	0.971217
	O333	O	-0.001703	0.027298	0.970253
	H334	H	-0.014061	0.030521	0.962261
	H335	H	0.008868	0.029937	0.969755
	O336	O	0.536593	0.370826	0.622267
	H337	H	0.533215	0.382527	0.633310
	H338	H	0.532261	0.360954	0.625879
	O339	O	1.150282	0.173645	0.169647
	H340	H	1.146145	0.179624	0.163940
	H341	H	1.152163	0.159514	0.171851
	O342	O	0.033069	-0.118107	0.126887
	H343	H	0.038716	-0.122445	0.144115
	H344	H	0.040008	-0.105153	0.100228
	O345	O	0.897331	0.167531	0.907530
	H346	H	0.882933	0.147869	0.901186
	H347	H	0.886357	0.163523	0.912155
	O348	O	0.841456	1.009106	0.192124
	H349	H	0.834177	1.005669	0.214754
	H350	H	0.850827	0.998893	0.178869
	O351	O	0.399519	0.456895	0.432522
	H352	H	0.398332	0.457074	0.442366
	H353	H	0.405212	0.449299	0.447222
	O354	O	1.038564	0.058010	0.860306
	H355	H	1.031590	0.060666	0.846399
	H356	H	1.043125	0.050887	0.856000
	O357	O	0.349483	0.546678	0.541242
	H358	H	0.346483	0.555492	0.537146
	H359	H	0.338325	0.565016	0.537305
	O360	O	0.446260	0.616470	0.608858
	H361	H	0.442703	0.634178	0.601236
	H362	H	0.450275	0.613220	0.602149
	O363	O	0.071968	1.065904	0.851755
	H364	H	0.049416	1.077032	0.838549
	H365	H	0.064974	1.077172	0.866790
	O366	O	0.542436	0.506882	0.411407
	H367	H	0.535513	0.507720	0.421437
	H368	H	0.533946	0.495781	0.404830
	O369	O	-0.263916	0.780666	0.321419
	H370	H	-0.228898	0.780160	0.323738
	H371	H	-0.263459	0.777329	0.322120
	O372	O	0.420850	0.539415	0.455379
	H373	H	0.412929	0.557671	0.452410
	H374	H	0.426843	0.546308	0.439233
	O375	O	0.589307	0.540673	0.438784
	H376	H	0.605690	0.536414	0.432998
	H377	H	0.595730	0.531806	0.445006
	O378	O	1.017646	1.084408	0.074423
	H379	H	1.025297	1.077640	0.070137
	H380	H	1.024983	1.073174	0.084971
	O381	O	0.881364	0.050597	0.104813
	H382	H	0.876156	0.060254	0.109282
	H383	H	0.879007	0.059217	0.098501
	O384	O	0.600375	1.677798	-0.326865
	H385	H	0.587369	1.677586	-0.322219
	H386	H	0.596865	1.680473	-0.319242
	O387	O	0.039244	-0.080427	-0.069578
	H388	H	0.035687	-0.074785	-0.054255
	H389	H	0.055400	-0.076982	-0.075312
	O390	O	-0.026723	0.968558	-0.059310
	H391	H	-0.012387	0.970642	-0.055372
	H392	H	-0.030618	0.980078	-0.046713
	O393	O	1.419446	0.351010	0.447547
	H394	H	1.424299	0.356641	0.451454
	H395	H	1.418095	0.343979	0.456085
	O396	O	0.673378	0.425193	0.537126
	H397	H	0.661162	0.421284	0.536586
	H398	H	0.678380	0.437914	0.559241
	O399	O	-0.005572	1.004118	1.108168
	H400	H	-0.008411	1.011459	1.104153
	H401	H	0.010882	1.009276	1.100638
	O402	O	0.460828	0.506062	0.479822
	H403	H	0.461056	0.521779	0.472230
	H404	H	0.459896	0.492380	0.480573
	O405	O	1.026970	0.966616	-0.089272
	H406	H	1.035216	0.964743	-0.076605
	H407	H	1.029341	0.976614	-0.095243
	O408	O	0.882954	0.999389	0.022081
	H409	H	0.881533	1.020349	0.010847
	H410	H	0.880665	0.995305	0.009684
	O411	O	1.134906	-0.040908	1.173752
	H412	H	1.133791	-0.042211	1.180274
	H413	H	1.133501	-0.036173	1.168548
	O414	O	0.162696	-0.062447	1.001033
	H415	H	0.154002	-0.052388	0.993969
	H416	H	0.166769	-0.062093	1.002294
	O417	O	0.555206	0.696230	0.427688
	H418	H	0.584605	0.713635	0.428345
	H419	H	0.558041	0.676955	0.438653
