data_Molecule from HDF5

_cell_length_a		16.312574
_cell_length_b		16.281960
_cell_length_c		16.276743
_cell_angle_alpha	90.060460
_cell_angle_beta	89.911928
_cell_angle_gamma	89.927400
_symmetry_space_group_name_H-M	'P 1'
_symmetry_Int_Tables_number		1

loop_
	_symmetry_equiv_pos_as_xyz
	x,y,z

loop_
	_atom_site_label
	_atom_site_type_symbol
	_atom_site_fract_x
	_atom_site_fract_y
	_atom_site_fract_z
	H0	H	0.401909	0.841159	0.709519
	H1	H	0.599134	0.168397	0.711077
	H2	H	0.600518	0.841756	0.279776
	H3	H	0.401132	0.168382	0.281070
	H4	H	0.713320	0.406122	0.833179
	H5	H	0.712772	0.603890	0.159953
	H6	H	0.283204	0.603304	0.833412
	H7	H	0.282724	0.405410	0.160018
	H8	H	0.835469	0.720108	0.399095
	H9	H	0.163225	0.717973	0.595508
	H10	H	0.836691	0.288764	0.595496
	H11	H	0.163002	0.290168	0.396697
	H12	H	0.835158	0.405573	0.711311
	H13	H	0.162049	0.602405	0.712243
	H14	H	0.834118	0.602599	0.283019
	H15	H	0.161511	0.404772	0.279151
	H16	H	0.399991	0.718430	0.832473
	H17	H	0.596082	0.718991	0.160129
	H18	H	0.597188	0.291148	0.832183
	H19	H	0.399925	0.290425	0.160066
	H20	H	0.715080	0.841315	0.396815
	H21	H	0.714935	0.168152	0.595958
	H22	H	0.284110	0.841996	0.596104
	H23	H	0.283189	0.167583	0.395491
	H24	H	0.899983	0.341267	0.210479
	H25	H	0.096002	0.668335	0.210434
	H26	H	0.095359	0.340916	0.783170
	H27	H	0.899262	0.668470	0.782531
	H28	H	0.215088	0.905448	0.332714
	H29	H	0.215043	0.103621	0.659124
	H30	H	0.785134	0.102992	0.333068
	H31	H	0.784045	0.904888	0.659650
	H32	H	0.336077	0.219971	0.897521
	H33	H	0.662584	0.220145	0.093376
	H34	H	0.335148	0.791807	0.093868
	H35	H	0.662032	0.788791	0.897209
	H36	H	0.336740	0.905082	0.213144
	H37	H	0.663625	0.103186	0.209736
	H38	H	0.335924	0.102686	0.781895
	H39	H	0.662805	0.906422	0.782070
	H40	H	0.901304	0.219264	0.332849
	H41	H	0.098538	0.219526	0.659969
	H42	H	0.097932	0.790085	0.332556
	H43	H	0.902539	0.791763	0.661009
	H44	H	0.213415	0.341926	0.897327
	H45	H	0.211556	0.669090	0.095442
	H46	H	0.784160	0.340880	0.094937
	H47	H	0.783691	0.668181	0.897998
	H48	H	0.395408	0.125207	0.592074
	H49	H	0.596318	0.886131	0.591502
	H50	H	0.587453	0.119640	0.403669
	H51	H	0.399832	0.888017	0.408622
	H52	H	0.589948	0.429247	0.106824
	H53	H	0.587558	0.589299	0.883171
	H54	H	0.404916	0.593785	0.111646
	H55	H	0.410909	0.413938	0.882491
	H56	H	0.116116	0.608053	0.409032
	H57	H	0.881275	0.594608	0.597984
	H58	H	0.118402	0.407571	0.596591
	H59	H	0.882094	0.404358	0.404766
	H60	H	0.113538	0.408080	0.581591
	H61	H	0.881313	0.606990	0.587208
	H62	H	0.109144	0.586268	0.409821
	H63	H	0.885640	0.414378	0.409220
	H64	H	0.408721	0.600412	0.112795
	H65	H	0.585815	0.604737	0.879308
	H66	H	0.576569	0.402204	0.111693
	H67	H	0.404456	0.407072	0.878156
	H68	H	0.595700	0.120979	0.407906
	H69	H	0.588568	0.889185	0.590303
	H70	H	0.415400	0.121581	0.597242
	H71	H	0.408209	0.886675	0.394961
	H72	H	0.898454	0.621374	0.084493
	H73	H	0.085057	0.389800	0.090079
	H74	H	0.084957	0.621656	0.898555
	H75	H	0.907736	0.387924	0.900321
	H76	H	0.087573	0.894812	0.616150
	H77	H	0.090222	0.102094	0.379323
	H78	H	0.903950	0.101712	0.614967
	H79	H	0.918364	0.915122	0.384907
	H80	H	0.617767	0.096943	0.893173
	H81	H	0.384095	0.096506	0.089075
	H82	H	0.613633	0.917816	0.088482
	H83	H	0.380479	0.908869	0.896882
	H84	H	0.616955	0.908856	0.092512
	H85	H	0.383411	0.097317	0.090191
	H86	H	0.616713	0.106993	0.907917
	H87	H	0.383539	0.908848	0.907696
	H88	H	0.904391	0.090790	0.611135
	H89	H	0.097714	0.096620	0.378360
	H90	H	0.110290	0.915487	0.616768
	H91	H	0.905032	0.898605	0.376167
	H92	H	0.089997	0.618882	0.911350
	H93	H	0.093525	0.389654	0.083222
	H94	H	0.903618	0.623974	0.096537
	H95	H	0.906832	0.389890	0.907097
	H96	H	0.408762	0.117589	0.577991
	H97	H	0.594142	0.889709	0.584007
	H98	H	0.594730	0.123051	0.399021
	H99	H	0.414778	0.892732	0.408467
	H100	H	0.606003	0.406212	0.119747
	H101	H	0.599991	0.597662	0.877186
	H102	H	0.401083	0.600098	0.115037
	H103	H	0.401169	0.416955	0.880139
	H104	H	0.117229	0.595121	0.390372
	H105	H	0.887048	0.592174	0.583512
	H106	H	0.113042	0.421375	0.590731
	H107	H	0.882056	0.414382	0.398489
	H108	H	0.911620	0.618512	0.086572
	H109	H	0.094689	0.386279	0.093197
	H110	H	0.098160	0.623889	0.901477
	H111	H	0.901508	0.387063	0.903621
	H112	H	0.082831	0.923409	0.605798
	H113	H	0.089721	0.093293	0.382006
	H114	H	0.913931	0.097682	0.610757
	H115	H	0.897018	0.919612	0.379180
	H116	H	0.611812	0.090052	0.907617
	H117	H	0.383738	0.097850	0.089139
	H118	H	0.613965	0.909320	0.082838
	H119	H	0.384217	0.918435	0.901826
	C120	C	0.378363	0.013359	0.617598
	C121	C	0.621533	0.996742	0.617722
	C122	C	0.621797	0.012922	0.374519
	C123	C	0.378508	0.996801	0.374727
	C124	C	0.619840	0.383537	0.004769
	C125	C	0.619262	0.625872	0.988061
	C126	C	0.376488	0.626462	0.004986
	C127	C	0.376690	0.383569	0.988325
	C128	C	0.006598	0.625721	0.374844
	C129	C	0.990691	0.626469	0.618690
	C130	C	0.007173	0.383269	0.618411
	C131	C	0.991127	0.382798	0.374813
	C132	C	0.876436	0.512982	0.117648
	C133	C	0.119340	0.496832	0.117608
	C134	C	0.119600	0.513311	0.875085
	C135	C	0.876503	0.496233	0.874846
	C136	C	0.122028	0.882464	0.504952
	C137	C	0.121394	0.126246	0.487810
	C138	C	0.878597	0.125745	0.504543
	C139	C	0.877974	0.882710	0.488294
	C140	C	0.507491	0.126452	0.874526
	C141	C	0.491200	0.126515	0.117994
	C142	C	0.507275	0.883166	0.117591
	C143	C	0.490673	0.883003	0.873790
	C144	C	0.381221	0.890025	0.672061
	C145	C	0.619302	0.119418	0.672952
	C146	C	0.620099	0.890351	0.318376
	C147	C	0.380841	0.119687	0.319335
	C148	C	0.675682	0.385319	0.881662
	C149	C	0.674772	0.623878	0.111122
	C150	C	0.321566	0.623637	0.881840
	C151	C	0.320861	0.385249	0.111232
	C152	C	0.883791	0.681322	0.378207
	C153	C	0.114335	0.680307	0.616062
	C154	C	0.884809	0.327473	0.615818
	C155	C	0.114020	0.328000	0.376678
	C156	C	0.884298	0.385293	0.673596
	C157	C	0.113638	0.623033	0.674147
	C158	C	0.883320	0.623444	0.320323
	C159	C	0.113169	0.384919	0.318140
	C160	C	0.379453	0.680803	0.881497
	C161	C	0.616933	0.681306	0.111156
	C162	C	0.617733	0.328410	0.881353
	C163	C	0.379521	0.328350	0.111304
	C164	C	0.677417	0.890249	0.376237
	C165	C	0.677165	0.119373	0.615851
	C166	C	0.322984	0.890272	0.615437
	C167	C	0.321753	0.119205	0.375702
	C168	C	0.879295	0.390003	0.172930
	C169	C	0.116295	0.619846	0.172401
	C170	C	0.116577	0.389980	0.820397
	C171	C	0.878646	0.619360	0.819834
	C172	C	0.177095	0.885061	0.381697
	C173	C	0.176579	0.124041	0.610655
	C174	C	0.823309	0.123357	0.381641
	C175	C	0.822521	0.884991	0.611070
	C176	C	0.384569	0.181773	0.876990
	C177	C	0.614099	0.182236	0.114789
	C178	C	0.384223	0.828821	0.115057
	C179	C	0.613427	0.827248	0.876602
	C180	C	0.384937	0.885411	0.174062
	C181	C	0.614595	0.124248	0.172362
	C182	C	0.384736	0.123963	0.819281
	C183	C	0.613813	0.885449	0.819372
	C184	C	0.880895	0.181043	0.381627
	C185	C	0.119009	0.181727	0.610908
	C186	C	0.118996	0.827616	0.381626
	C187	C	0.881055	0.828473	0.611655
	C188	C	0.175426	0.390612	0.876743
	C189	C	0.174160	0.620001	0.115320
	C190	C	0.821572	0.389836	0.115481
	C191	C	0.821079	0.619302	0.877203
	C192	C	0.400159	0.099156	0.595429
	C193	C	0.599439	0.910502	0.595088
	C194	C	0.599154	0.099103	0.397096
	C195	C	0.400961	0.911320	0.397388
	C196	C	0.597508	0.405988	0.090521
	C197	C	0.597617	0.603597	0.902134
	C198	C	0.398559	0.604514	0.090912
	C199	C	0.399111	0.405941	0.902459
	C200	C	0.092052	0.603002	0.396553
	C201	C	0.905266	0.604514	0.596202
	C202	C	0.092953	0.405865	0.596205
	C203	C	0.905348	0.404698	0.397538
	C204	C	0.898326	0.599095	0.095694
	C205	C	0.097490	0.410746	0.095290
	C206	C	0.097586	0.599366	0.897376
	C207	C	0.898769	0.410318	0.897259
	C208	C	0.099978	0.904698	0.590918
	C209	C	0.099062	0.103817	0.401911
	C210	C	0.900850	0.103227	0.590310
	C211	C	0.900181	0.904634	0.402366
	C212	C	0.593217	0.104467	0.896468
	C213	C	0.405914	0.104097	0.096069
	C214	C	0.592860	0.905511	0.094667
	C215	C	0.404842	0.905235	0.895718
	Zn216	Zn	0.499631	0.004761	0.745499
	Zn217	Zn	0.500385	0.004831	0.246510
	Zn218	Zn	0.748173	0.504648	-0.003657
	Zn219	Zn	0.248252	0.505018	-0.003232
	Zn220	Zn	-0.000261	0.754352	0.496926
	Zn221	Zn	-0.000362	0.254481	0.496587
	Zn222	Zn	-0.001929	0.504818	0.746828
	Zn223	Zn	-0.001971	0.504557	0.245570
	Zn224	Zn	0.498171	0.754794	-0.004145
	Zn225	Zn	0.498957	0.255227	-0.004213
	Zn226	Zn	0.749658	0.004253	0.496365
	Zn227	Zn	0.250166	0.004762	0.496410
	N228	N	0.414683	0.967487	0.673809
	N229	N	0.585565	0.042061	0.674135
	N230	N	0.586180	0.967796	0.317367
	N231	N	0.415157	0.042629	0.318529
	N232	N	0.677182	0.418993	0.959264
	N233	N	0.676130	0.589959	0.033654
	N234	N	0.319636	0.590518	0.959578
	N235	N	0.318909	0.418699	0.033681
	N236	N	0.961327	0.682871	0.411383
	N237	N	0.036978	0.682577	0.582288
	N238	N	0.962136	0.326282	0.582219
	N239	N	0.037191	0.326855	0.411381
	N240	N	0.961570	0.419004	0.675513
	N241	N	0.036005	0.590114	0.675704
	N242	N	0.960518	0.589301	0.318214
	N243	N	0.035607	0.418473	0.316903
	N244	N	0.412791	0.682779	0.959082
	N245	N	0.583165	0.682632	0.033828
	N246	N	0.583622	0.327406	0.958665
	N247	N	0.413535	0.327330	0.034015
	N248	N	0.678423	0.967540	0.410435
	N249	N	0.678351	0.041832	0.581881
	N250	N	0.321113	0.967991	0.582338
	N251	N	0.320248	0.041796	0.409593
	N252	N	0.912663	0.467552	0.174190
	N253	N	0.083265	0.542211	0.174222
	N254	N	0.082515	0.467313	0.819397
	N255	N	0.912301	0.541853	0.818359
	N256	N	0.179230	0.918301	0.459364
	N257	N	0.177916	0.090221	0.533269
	N258	N	0.821753	0.089569	0.459114
	N259	N	0.820587	0.918060	0.533470
	N260	N	0.461855	0.183405	0.910611
	N261	N	0.536636	0.183699	0.081517
	N262	N	0.461282	0.827300	0.080815
	N263	N	0.535710	0.825332	0.909480
	N264	N	0.462476	0.918646	0.175563
	N265	N	0.537334	0.090307	0.174557
	N266	N	0.462097	0.090244	0.817734
	N267	N	0.536611	0.919458	0.817495
	N268	N	0.914596	0.182513	0.459029
	N269	N	0.085453	0.183218	0.533362
	N270	N	0.085564	0.825916	0.459267
	N271	N	0.915091	0.827136	0.534211
	N272	N	0.177141	0.468182	0.910264
	N273	N	0.175947	0.542432	0.081862
	N274	N	0.819567	0.467418	0.082080
	N275	N	0.819893	0.541831	0.910955
	O276	O	-0.497275	-0.471482	1.492613
	H277	H	-0.505355	-0.480967	1.493535
	H278	H	-0.494123	-0.468432	1.491027
	O279	O	0.439440	0.504491	0.498390
	H280	H	0.434540	0.497695	0.499044
	H281	H	0.440394	0.510129	0.491272
	O282	O	0.491876	0.502563	0.483137
	H283	H	0.494986	0.494463	0.478902
	H284	H	0.495197	0.505499	0.483598
	O285	O	0.467659	0.482411	0.521315
	H286	H	0.464546	0.485206	0.519568
	H287	H	0.461608	0.482089	0.528123
	O288	O	0.470053	0.553439	0.442681
	H289	H	0.476928	0.559207	0.437082
	H290	H	0.465021	0.554362	0.442669
	O291	O	0.475537	1.542751	1.462229
	H292	H	0.478207	1.549732	1.461432
	H293	H	0.482299	1.538930	1.461643
	O294	O	0.462969	0.522921	0.523984
	H295	H	0.456233	0.529131	0.520025
	H296	H	0.461085	0.532522	0.519733
	O297	O	1.497891	-0.537383	-0.566090
	H298	H	1.490990	-0.546287	-0.570234
	H299	H	1.502340	-0.542721	-0.555051
