data_Molecule from HDF5

_cell_length_a		16.647703
_cell_length_b		16.443013
_cell_length_c		16.530872
_cell_angle_alpha	90.079511
_cell_angle_beta	89.882732
_cell_angle_gamma	89.903344
_symmetry_space_group_name_H-M	'P 1'
_symmetry_Int_Tables_number		1

loop_
	_symmetry_equiv_pos_as_xyz
	x,y,z

loop_
	_atom_site_label
	_atom_site_type_symbol
	_atom_site_fract_x
	_atom_site_fract_y
	_atom_site_fract_z
	H0	H	0.396038	0.832130	0.744674
	H1	H	0.606996	0.146938	0.740114
	H2	H	0.606582	0.831045	0.300822
	H3	H	0.401741	0.148346	0.304381
	H4	H	0.727073	0.384546	0.862999
	H5	H	0.727510	0.595442	0.176708
	H6	H	0.279580	0.599865	0.866570
	H7	H	0.282298	0.381579	0.175531
	H8	H	0.847677	0.708111	0.417527
	H9	H	0.161129	0.712465	0.628229
	H10	H	0.847892	0.269435	0.625282
	H11	H	0.162491	0.267226	0.417710
	H12	H	0.849373	0.385524	0.742674
	H13	H	0.162067	0.595653	0.743982
	H14	H	0.849455	0.592885	0.299543
	H15	H	0.161858	0.381286	0.298613
	H16	H	0.399995	0.710204	0.863290
	H17	H	0.609610	0.711186	0.176965
	H18	H	0.611461	0.268009	0.862731
	H19	H	0.403495	0.270274	0.178186
	H20	H	0.725770	0.832156	0.413816
	H21	H	0.726232	0.145334	0.627091
	H22	H	0.279964	0.830915	0.630341
	H23	H	0.282646	0.145321	0.417085
	H24	H	0.904338	0.330174	0.238699
	H25	H	0.111178	0.646252	0.244551
	H26	H	0.110360	0.329876	0.802377
	H27	H	0.903579	0.647079	0.801503
	H28	H	0.227635	0.878310	0.363513
	H29	H	0.228078	0.093890	0.676787
	H30	H	0.784738	0.093243	0.364189
	H31	H	0.779828	0.880645	0.675828
	H32	H	0.349416	0.213687	0.914202
	H33	H	0.661742	0.207346	0.122360
	H34	H	0.348412	0.766246	0.125644
	H35	H	0.659204	0.765006	0.911703
	H36	H	0.347377	0.883638	0.241088
	H37	H	0.659443	0.092130	0.241448
	H38	H	0.349187	0.096971	0.796818
	H39	H	0.657994	0.880300	0.793954
	H40	H	0.902150	0.207893	0.363772
	H41	H	0.109859	0.208733	0.678110
	H42	H	0.107591	0.766665	0.362698
	H43	H	0.899965	0.767434	0.678105
	H44	H	0.227181	0.331653	0.917367
	H45	H	0.229869	0.645846	0.131762
	H46	H	0.786375	0.331317	0.124349
	H47	H	0.786271	0.646589	0.917345
	H48	H	0.415398	0.099323	0.605996
	H49	H	0.591895	0.877019	0.604761
	H50	H	0.596007	0.104932	0.426568
	H51	H	0.413994	0.872628	0.426384
	H52	H	0.597412	0.399516	0.132972
	H53	H	0.599839	0.571996	0.908624
	H54	H	0.422723	0.577954	0.130248
	H55	H	0.412325	0.408079	0.909097
	H56	H	0.116260	0.577572	0.434513
	H57	H	0.892449	0.583620	0.613045
	H58	H	0.117135	0.399687	0.611875
	H59	H	0.892360	0.397217	0.427163
	H60	H	0.118038	0.396348	0.611871
	H61	H	0.897618	0.575572	0.605462
	H62	H	0.114321	0.574077	0.434803
	H63	H	0.894047	0.395935	0.432954
	H64	H	0.414943	0.580009	0.134446
	H65	H	0.589787	0.575868	0.909618
	H66	H	0.596992	0.397688	0.133850
	H67	H	0.423882	0.403892	0.911550
	H68	H	0.589914	0.101384	0.431250
	H69	H	0.591388	0.876318	0.606868
	H70	H	0.415838	0.099012	0.606601
	H71	H	0.417582	0.875174	0.430505
	H72	H	0.916380	0.603831	0.112270
	H73	H	0.101235	0.376802	0.102824
	H74	H	0.096382	0.604323	0.927010
	H75	H	0.915222	0.375551	0.933394
	H76	H	0.094383	0.901417	0.631875
	H77	H	0.098677	0.072373	0.408463
	H78	H	0.913792	0.072044	0.631821
	H79	H	0.915643	0.900182	0.409555
	H80	H	0.611805	0.074341	0.935553
	H81	H	0.392123	0.081821	0.110242
	H82	H	0.617391	0.900821	0.115580
	H83	H	0.392533	0.894116	0.935752
	H84	H	0.615354	0.894885	0.104845
	H85	H	0.392558	0.078933	0.110475
	H86	H	0.615900	0.073135	0.924962
	H87	H	0.397610	0.907193	0.936917
	H88	H	0.917757	0.079255	0.633741
	H89	H	0.089954	0.072771	0.411294
	H90	H	0.092233	0.901142	0.631383
	H91	H	0.916400	0.899254	0.408218
	H92	H	0.087128	0.599121	0.933925
	H93	H	0.097860	0.374210	0.115984
	H94	H	0.918459	0.601601	0.109384
	H95	H	0.915181	0.374952	0.930501
	H96	H	0.415920	0.098621	0.606054
	H97	H	0.590004	0.877537	0.605311
	H98	H	0.597440	0.103135	0.434100
	H99	H	0.411959	0.874478	0.432069
	H100	H	0.598994	0.398062	0.134408
	H101	H	0.597772	0.581678	0.905560
	H102	H	0.416062	0.571642	0.130918
	H103	H	0.415783	0.396168	0.905672
	H104	H	0.116195	0.575037	0.431645
	H105	H	0.894811	0.572065	0.616536
	H106	H	0.116825	0.397718	0.609221
	H107	H	0.895167	0.401052	0.430762
	H108	H	0.914422	0.601990	0.108430
	H109	H	0.087941	0.379887	0.107667
	H110	H	0.098070	0.600658	0.939021
	H111	H	0.917787	0.375628	0.931558
	H112	H	0.093604	0.899253	0.632651
	H113	H	0.094220	0.080355	0.407295
	H114	H	0.909613	0.078563	0.635927
	H115	H	0.914846	0.899676	0.408110
	H116	H	0.616841	0.082844	0.930528
	H117	H	0.391043	0.080833	0.112666
	H118	H	0.611780	0.907097	0.106327
	H119	H	0.391290	0.903024	0.924807
	C120	C	0.382194	-0.003937	0.640941
	C121	C	0.624124	0.980424	0.639697
	C122	C	0.625671	-0.001786	0.398602
	C123	C	0.382514	0.979231	0.399001
	C124	C	0.628468	0.366887	0.029160
	C125	C	0.627321	0.610006	1.011445
	C126	C	0.384076	0.610402	0.029070
	C127	C	0.385529	0.369571	1.012279
	C128	C	0.012652	0.608489	0.400834
	C129	C	0.997600	0.610607	0.643834
	C130	C	0.013925	0.366568	0.642712
	C131	C	0.997333	0.365757	0.398808
	C132	C	0.885407	0.497569	0.141143
	C133	C	0.127680	0.480755	0.142690
	C134	C	0.126799	0.497117	0.900858
	C135	C	0.884955	0.480188	0.899808
	C136	C	0.125697	0.866818	0.528423
	C137	C	0.126193	0.107581	0.512807
	C138	C	0.882862	0.109086	0.529842
	C139	C	0.882960	0.867087	0.512213
	C140	C	0.512529	0.110671	0.898119
	C141	C	0.495482	0.111285	0.142200
	C142	C	0.512081	0.867764	0.141349
	C143	C	0.495994	0.867503	0.898364
	C144	C	0.378425	0.878736	0.703599
	C145	C	0.626041	0.099100	0.700564
	C146	C	0.626083	0.878938	0.339600
	C147	C	0.381960	0.099793	0.342286
	C148	C	0.687527	0.365670	0.910385
	C149	C	0.687144	0.613599	0.129639
	C150	C	0.321625	0.615794	0.912589
	C151	C	0.324040	0.365017	0.129443
	C152	C	0.895139	0.668607	0.398742
	C153	C	0.114436	0.671811	0.646100
	C154	C	0.895543	0.308245	0.644175
	C155	C	0.115140	0.306344	0.398220
	C156	C	0.896219	0.366027	0.702605
	C157	C	0.115057	0.613343	0.703734
	C158	C	0.895821	0.611085	0.340077
	C159	C	0.115058	0.363609	0.339213
	C160	C	0.381499	0.670853	0.910935
	C161	C	0.628705	0.671047	0.129755
	C162	C	0.629948	0.307516	0.910386
	C163	C	0.384085	0.309526	0.130548
	C164	C	0.685232	0.879374	0.395974
	C165	C	0.685308	0.098474	0.644272
	C166	C	0.320761	0.878281	0.646308
	C167	C	0.322640	0.098184	0.398191
	C168	C	0.884622	0.378025	0.199677
	C169	C	0.130030	0.598801	0.204651
	C170	C	0.128811	0.377884	0.841648
	C171	C	0.884337	0.599524	0.840985
	C172	C	0.186713	0.861853	0.410605
	C173	C	0.186959	0.111164	0.630336
	C174	C	0.824500	0.111285	0.411228
	C175	C	0.821391	0.863462	0.629471
	C176	C	0.395809	0.172549	0.895852
	C177	C	0.614246	0.168551	0.142083
	C178	C	0.395069	0.806764	0.143528
	C179	C	0.612544	0.805715	0.894121
	C180	C	0.394570	0.865061	0.201311
	C181	C	0.613267	0.111273	0.200982
	C182	C	0.395637	0.114658	0.837538
	C183	C	0.612058	0.863263	0.835606
	C184	C	0.882900	0.168242	0.411076
	C185	C	0.128352	0.168441	0.630896
	C186	C	0.127179	0.806045	0.410074
	C187	C	0.881003	0.807091	0.630635
	C188	C	0.186906	0.378784	0.898892
	C189	C	0.188853	0.598701	0.148100
	C190	C	0.826138	0.378591	0.142885
	C191	C	0.826191	0.599449	0.898406
	C192	C	0.408403	0.077640	0.614095
	C193	C	0.598379	0.898394	0.613071
	C194	C	0.601580	0.081336	0.423610
	C195	C	0.407127	0.895909	0.422888
	C196	C	0.604687	0.391300	0.112275
	C197	C	0.602962	0.583911	0.929389
	C198	C	0.410272	0.583966	0.110683
	C199	C	0.410250	0.395325	0.930242
	C200	C	0.094288	0.582824	0.426355
	C201	C	0.916134	0.584616	0.618788
	C202	C	0.095948	0.390840	0.618016
	C203	C	0.915276	0.390899	0.423218
	C204	C	0.909649	0.580755	0.116881
	C205	C	0.102720	0.398446	0.116271
	C206	C	0.101240	0.579944	0.926080
	C207	C	0.909249	0.396918	0.924741
	C208	C	0.100512	0.893128	0.610449
	C209	C	0.101334	0.082275	0.430640
	C210	C	0.907076	0.083722	0.612297
	C211	C	0.908243	0.892497	0.430082
	C212	C	0.593910	0.084322	0.923279
	C213	C	0.413037	0.087432	0.117923
	C214	C	0.593864	0.893591	0.115950
	C215	C	0.414900	0.893892	0.924952
	Zn216	Zn	0.503460	-0.011359	0.769039
	Zn217	Zn	0.503122	-0.011168	0.270755
	Zn218	Zn	0.756506	0.489116	0.020709
	Zn219	Zn	0.255869	0.490081	0.021105
	Zn220	Zn	0.004771	0.738586	0.521084
	Zn221	Zn	0.005154	0.236789	0.521454
	Zn222	Zn	0.006550	0.488232	0.772100
	Zn223	Zn	0.005627	0.488397	0.270204
	Zn224	Zn	0.504758	0.738355	0.020146
	Zn225	Zn	0.505228	0.239912	0.019692
	Zn226	Zn	0.753857	-0.011307	0.520081
	Zn227	Zn	0.254878	-0.013264	0.520062
	N228	N	0.416031	0.952948	0.700420
	N229	N	0.588556	0.024612	0.697829
	N230	N	0.589909	0.953995	0.340941
	N231	N	0.418389	0.024759	0.342609
	N232	N	0.687093	0.401569	0.985564
	N233	N	0.686447	0.576507	0.055268
	N234	N	0.322833	0.579213	0.987352
	N235	N	0.325011	0.401985	0.055104
	N236	N	0.968850	0.666896	0.435988
	N237	N	0.040226	0.670414	0.609878
	N238	N	0.969847	0.308328	0.607794
	N239	N	0.040838	0.307432	0.434498
	N240	N	0.970949	0.401235	0.702199
	N241	N	0.041209	0.576192	0.702815
	N242	N	0.970027	0.574398	0.341344
	N243	N	0.040647	0.399783	0.339401
	N244	N	0.419786	0.667378	0.984290
	N245	N	0.592405	0.669299	0.055159
	N246	N	0.594266	0.307923	0.985325
	N247	N	0.421739	0.312348	0.056724
	N248	N	0.685268	0.954772	0.431759
	N249	N	0.684398	0.023648	0.607404
	N250	N	0.322915	0.952306	0.608001
	N251	N	0.322577	0.022023	0.432324
	N252	N	0.920691	0.453065	0.198786
	N253	N	0.092857	0.524420	0.201444
	N254	N	0.092268	0.452788	0.842510
	N255	N	0.920124	0.524271	0.841843
	N256	N	0.186265	0.898480	0.485455
	N257	N	0.185908	0.074356	0.555849
	N258	N	0.824300	0.075393	0.486145
	N259	N	0.822304	0.899828	0.554693
	N260	N	0.469680	0.170394	0.932614
	N261	N	0.539981	0.168714	0.106231
	N262	N	0.469176	0.808466	0.106807
	N263	N	0.539285	0.808242	0.932423
	N264	N	0.468341	0.902256	0.200013
	N265	N	0.538230	0.076776	0.201469
	N266	N	0.469076	0.076715	0.839012
	N267	N	0.538492	0.901099	0.838242
	N268	N	0.918556	0.167154	0.485878
	N269	N	0.091168	0.166379	0.556808
	N270	N	0.090069	0.808870	0.484342
	N271	N	0.918552	0.809223	0.556740
	N272	N	0.185930	0.454075	0.934701
	N273	N	0.187896	0.524032	0.110481
	N274	N	0.826310	0.454048	0.107349
	N275	N	0.826579	0.524185	0.934314
	O276	O	0.803801	1.153020	0.188060
	H277	H	0.816516	1.134751	0.167918
	H278	H	0.825053	1.136968	0.186819
	O279	O	0.508119	0.480903	0.569085
	H280	H	0.501715	0.479487	0.569429
	H281	H	0.519129	0.498379	0.578987
	O282	O	0.790171	0.015921	-0.191614
	H283	H	0.775006	0.015853	-0.209690
	H284	H	0.802078	0.005579	-0.198061
	O285	O	0.268530	0.765655	0.237637
	H286	H	0.280288	0.777443	0.250310
	H287	H	0.280120	0.753787	0.236080
	O288	O	0.802983	0.186868	0.879913
	H289	H	0.796877	0.156604	0.882106
	H290	H	0.803168	0.199787	0.918378
	O291	O	0.315685	0.483762	0.510919
	H292	H	0.309725	0.495241	0.500963
	H293	H	0.324304	0.499833	0.518900
	O294	O	0.224286	0.007330	0.237004
	H295	H	0.231968	0.020811	0.245660
	H296	H	0.225373	-0.007970	0.255878
	O297	O	0.704744	0.501004	0.436143
	H298	H	0.709918	0.500610	0.434333
	H299	H	0.711694	0.500290	0.416607
	O300	O	0.032745	-0.196351	0.210093
	H301	H	0.018227	-0.187273	0.209402
	H302	H	0.034071	-0.193247	0.224542
	O303	O	0.031486	-0.228875	-0.198137
	H304	H	0.049770	-0.256254	-0.222821
	H305	H	0.068377	-0.228478	-0.191639
	O306	O	0.571961	0.702111	-0.528932
	H307	H	0.600754	0.704138	-0.511737
	H308	H	0.556459	0.712176	-0.502367
	O309	O	1.208995	0.183773	0.045028
	H310	H	1.196000	0.175630	0.034337
	H311	H	1.220077	0.183827	0.038934
	O312	O	0.425526	0.412343	0.311019
	H313	H	0.412645	0.421314	0.322805
	H314	H	0.425469	0.420699	0.314321
	O315	O	0.725215	0.399871	0.612507
	H316	H	0.717593	0.375915	0.593762
	H317	H	0.735871	0.417692	0.592316
	O318	O	0.792692	0.774810	0.052197
	H319	H	0.787457	0.773399	0.049389
	H320	H	0.781128	0.765034	0.062541
	O321	O	0.032028	1.116487	0.815631
	H322	H	0.025200	1.145106	0.819797
	H323	H	0.003334	1.115518	0.812804
	O324	O	1.094049	-0.007917	1.075947
	H325	H	1.098285	-0.011566	1.086662
	H326	H	1.095712	-0.017361	1.081635
	O327	O	0.401721	0.363006	0.538210
	H328	H	0.386800	0.349625	0.531846
	H329	H	0.400313	0.381106	0.554134
	O330	O	-0.269075	1.262651	0.300112
	H331	H	-0.305831	1.253710	0.296814
	H332	H	-0.242911	1.232126	0.266489
	O333	O	0.543766	0.277848	0.309309
	H334	H	0.533714	0.281717	0.316270
	H335	H	0.531640	0.275264	0.291185
	O336	O	0.067830	0.767023	0.104950
	H337	H	0.053614	0.761014	0.128751
	H338	H	0.050136	0.774487	0.092266
	O339	O	-0.169809	0.808068	-0.146748
	H340	H	-0.161562	0.817924	-0.133103
	H341	H	-0.150720	0.823140	-0.133453
	O342	O	-0.030085	1.039607	-0.017978
	H343	H	-0.040354	1.027994	-0.035057
	H344	H	-0.026796	1.035064	-0.018666
	O345	O	0.722932	0.276916	0.495793
	H346	H	0.716605	0.268417	0.481729
	H347	H	0.736481	0.267325	0.485003
	O348	O	0.520951	0.341240	0.566699
	H349	H	0.510968	0.341824	0.574163
	H350	H	0.525096	0.345858	0.565810
	O351	O	0.192588	-0.199728	0.831612
	H352	H	0.202266	-0.145922	0.822708
	H353	H	0.203647	-0.209973	0.884614
	O354	O	1.159728	-0.039380	1.118344
	H355	H	1.152563	-0.054917	1.110258
	H356	H	1.141960	-0.042928	1.107102
	O357	O	-0.029763	0.898132	0.064000
	H358	H	-0.032069	0.910009	0.053692
	H359	H	-0.034811	0.886311	0.071316
	O360	O	0.337569	0.565082	0.643647
	H361	H	0.356650	0.586092	0.631199
	H362	H	0.325206	0.555914	0.647194
	O363	O	0.718177	0.425471	0.346692
	H364	H	0.743033	0.413379	0.328028
	H365	H	0.717056	0.397403	0.371779
	O366	O	1.119889	0.180225	0.904006
	H367	H	1.111167	0.189532	0.898089
	H368	H	1.094972	0.167513	0.905765
	O369	O	-0.021035	-0.197155	0.978694
	H370	H	-0.025032	-0.199022	0.975279
	H371	H	-0.019894	-0.197184	0.967526
	O372	O	0.201545	1.042264	0.962892
	H373	H	0.204651	1.024807	0.971845
	H374	H	0.191618	1.039058	0.970015
	O375	O	0.686383	0.535525	-0.376117
	H376	H	0.691167	0.544761	-0.370678
	H377	H	0.683258	0.545655	-0.365636
	O378	O	0.520139	0.694982	0.730501
	H379	H	0.537155	0.692043	0.728960
	H380	H	0.525701	0.701452	0.750862
	O381	O	-0.053969	0.933040	-0.204017
	H382	H	-0.043279	0.931625	-0.202993
	H383	H	-0.042868	0.910983	-0.209639
	O384	O	0.894542	0.897372	0.203242
	H385	H	0.883692	0.883062	0.212459
	H386	H	0.892269	0.919152	0.191098
	O387	O	0.065629	0.990066	0.946433
	H388	H	0.068439	0.999109	0.945697
	H389	H	0.073713	0.993838	0.944157
	O390	O	0.213680	0.962155	0.814602
	H391	H	0.225528	0.977266	0.805006
	H392	H	0.204859	0.984842	0.809912
	O393	O	1.204504	0.185082	0.214512
	H394	H	1.212552	0.160736	0.194596
	H395	H	1.226312	0.203184	0.211818
	O396	O	0.527861	0.365593	0.736383
	H397	H	0.514099	0.364253	0.724093
	H398	H	0.522727	0.369810	0.739448
	O399	O	0.286970	0.462995	0.742465
	H400	H	0.289615	0.451929	0.726955
	H401	H	0.258813	0.463797	0.761770
	O402	O	1.442494	0.491967	1.660264
	H403	H	1.431882	0.493589	1.664777
	H404	H	1.444853	0.497768	1.648985
	O405	O	0.702164	0.523347	0.721741
	H406	H	0.686422	0.503908	0.717178
	H407	H	0.714100	0.499774	0.720960
	O408	O	0.837920	0.204624	0.016707
	H409	H	0.822511	0.212133	0.023802
	H410	H	0.841675	0.189215	0.019441
	O411	O	0.789147	0.961850	0.233713
	H412	H	0.787742	0.941969	0.244462
	H413	H	0.787649	0.948949	0.250521
	O414	O	-0.228365	-0.073956	-0.036400
	H415	H	-0.229076	-0.074058	-0.044916
	H416	H	-0.224143	-0.068866	-0.026070
	O417	O	0.410824	0.280106	0.661592
	H418	H	0.400100	0.272037	0.681482
	H419	H	0.425404	0.288072	0.657404
	O420	O	1.324668	-0.665464	0.379484
	H421	H	1.335244	-0.649696	0.400481
	H422	H	1.331562	-0.650284	0.391803
	O423	O	0.847740	1.041399	0.056977
	H424	H	0.853933	1.020433	0.059129
	H425	H	0.846016	1.036266	0.070681
	O426	O	0.573197	0.504862	0.308244
	H427	H	0.582854	0.488726	0.316578
	H428	H	0.575148	0.477218	0.318002
	O429	O	0.285669	0.509898	0.303494
	H430	H	0.263531	0.502816	0.287652
	H431	H	0.291277	0.519877	0.299789
	O432	O	1.443819	0.710179	1.573588
	H433	H	1.434962	0.717197	1.574475
	H434	H	1.440065	0.708773	1.590594
	O435	O	-0.023756	0.076146	0.215623
	H436	H	-0.026577	0.082812	0.202255
	H437	H	-0.002742	0.102134	0.219975
	O438	O	0.306897	0.295275	0.717088
	H439	H	0.317128	0.291506	0.713309
	H440	H	0.304205	0.311520	0.714840
	O441	O	0.474447	0.690039	0.318613
	H442	H	0.499322	0.692870	0.327231
	H443	H	0.497397	0.683882	0.310859
	O444	O	0.577276	0.418881	0.572543
	H445	H	0.573655	0.399757	0.586161
	H446	H	0.582416	0.426935	0.566172
	O447	O	0.312063	0.602574	0.481779
	H448	H	0.328401	0.618049	0.479098
	H449	H	0.309003	0.597438	0.485786
	O450	O	0.911776	0.200720	-0.192645
	H451	H	0.872896	0.206159	-0.195097
	H452	H	0.904078	0.220279	-0.195987
	O453	O	0.612342	0.602665	0.571625
	H454	H	0.632913	0.602063	0.579803
	H455	H	0.623190	0.599277	0.586691
	O456	O	0.007242	1.181520	1.049094
	H457	H	0.015310	1.187514	1.048667
	H458	H	0.008267	1.181963	1.043882
	O459	O	0.465264	0.358647	0.479458
	H460	H	0.473828	0.367433	0.480633
	H461	H	0.442189	0.363581	0.492570
	O462	O	0.639809	0.621779	0.315648
	H463	H	0.624903	0.614031	0.328211
	H464	H	0.640980	0.594058	0.320323
	O465	O	0.282645	0.709385	0.492861
	H466	H	0.282626	0.717217	0.491989
	H467	H	0.262939	0.728294	0.475528
	O468	O	0.770833	1.756060	0.254755
	H469	H	0.789503	1.737276	0.248797
	H470	H	0.742559	1.748606	0.279323
	O471	O	0.711234	0.692086	0.726384
	H472	H	0.715378	0.643482	0.735558
	H473	H	0.721319	0.709254	0.752471
	O474	O	1.053498	1.194471	0.244892
	H475	H	1.063017	1.224606	0.269647
	H476	H	1.093906	1.196286	0.239994
	O477	O	0.221361	-0.226539	0.993087
	H478	H	0.217629	-0.240442	1.009316
	H479	H	0.222263	-0.243412	1.009322
