data_Molecule from HDF5

_cell_length_a		16.344980
_cell_length_b		16.147745
_cell_length_c		16.213818
_cell_angle_alpha	89.493419
_cell_angle_beta	90.616221
_cell_angle_gamma	89.218757
_symmetry_space_group_name_H-M	'P 1'
_symmetry_Int_Tables_number		1

loop_
	_symmetry_equiv_pos_as_xyz
	x,y,z

loop_
	_atom_site_label
	_atom_site_type_symbol
	_atom_site_fract_x
	_atom_site_fract_y
	_atom_site_fract_z
	H0	H	0.406602	0.837180	0.708404
	H1	H	0.598589	0.167036	0.709669
	H2	H	0.600142	0.836345	0.285182
	H3	H	0.398161	0.166670	0.278386
	H4	H	0.716734	0.401296	0.830809
	H5	H	0.718989	0.601289	0.157255
	H6	H	0.280821	0.607339	0.832172
	H7	H	0.290174	0.401426	0.160124
	H8	H	0.839212	0.722999	0.392470
	H9	H	0.165234	0.712110	0.594116
	H10	H	0.837372	0.290323	0.594337
	H11	H	0.164526	0.286477	0.401463
	H12	H	0.837426	0.406726	0.708585
	H13	H	0.163850	0.598046	0.712174
	H14	H	0.839852	0.608270	0.275243
	H15	H	0.165489	0.403170	0.285493
	H16	H	0.398762	0.720291	0.830924
	H17	H	0.598452	0.711630	0.159800
	H18	H	0.598977	0.289964	0.829452
	H19	H	0.409067	0.288400	0.159869
	H20	H	0.718611	0.838815	0.397718
	H21	H	0.715504	0.167134	0.597363
	H22	H	0.289818	0.837624	0.596108
	H23	H	0.281936	0.166359	0.391639
	H24	H	0.907326	0.338928	0.210289
	H25	H	0.099745	0.668490	0.209093
	H26	H	0.099011	0.336945	0.786194
	H27	H	0.898847	0.667532	0.779644
	H28	H	0.213588	0.903894	0.330491
	H29	H	0.218124	0.101206	0.658835
	H30	H	0.780155	0.108541	0.332694
	H31	H	0.790129	0.903052	0.660105
	H32	H	0.338542	0.220898	0.893466
	H33	H	0.666356	0.211295	0.093216
	H34	H	0.336896	0.789911	0.091797
	H35	H	0.664445	0.785732	0.899665
	H36	H	0.337173	0.904364	0.208873
	H37	H	0.663627	0.098288	0.213400
	H38	H	0.338586	0.105212	0.776122
	H39	H	0.664774	0.901719	0.782403
	H40	H	0.898949	0.221496	0.331907
	H41	H	0.096639	0.210716	0.661621
	H42	H	0.098963	0.787850	0.331114
	H43	H	0.907677	0.788806	0.659720
	H44	H	0.217416	0.339017	0.898199
	H45	H	0.215826	0.667134	0.095893
	H46	H	0.791495	0.337358	0.094716
	H47	H	0.780885	0.665517	0.890557
	H48	H	0.412067	0.121100	0.592710
	H49	H	0.594453	0.887903	0.583150
	H50	H	0.590205	0.119568	0.404052
	H51	H	0.409857	0.882804	0.398204
	H52	H	0.603820	0.407835	0.113544
	H53	H	0.592646	0.597253	0.876374
	H54	H	0.403332	0.595863	0.114696
	H55	H	0.420467	0.408895	0.880314
	H56	H	0.121332	0.602536	0.399447
	H57	H	0.885750	0.591944	0.587668
	H58	H	0.121095	0.406033	0.601688
	H59	H	0.887331	0.416811	0.403582
	H60	H	0.117771	0.398008	0.586645
	H61	H	0.882398	0.602308	0.592817
	H62	H	0.114987	0.594585	0.413290
	H63	H	0.884543	0.414362	0.398190
	H64	H	0.408152	0.589316	0.110524
	H65	H	0.594312	0.590467	0.878020
	H66	H	0.594975	0.412043	0.108894
	H67	H	0.397352	0.404658	0.873640
	H68	H	0.590768	0.120651	0.401944
	H69	H	0.603388	0.882683	0.588836
	H70	H	0.412357	0.115194	0.575981
	H71	H	0.408412	0.885845	0.406231
	H72	H	0.909302	0.620339	0.081565
	H73	H	0.097656	0.386364	0.087646
	H74	H	0.087099	0.619189	0.901972
	H75	H	0.909091	0.384080	0.901231
	H76	H	0.092346	0.897669	0.613876
	H77	H	0.089651	0.093338	0.379179
	H78	H	0.894716	0.086274	0.614534
	H79	H	0.904419	0.923423	0.380221
	H80	H	0.620820	0.100625	0.896441
	H81	H	0.383114	0.101051	0.088875
	H82	H	0.616904	0.902795	0.085773
	H83	H	0.387921	0.916919	0.904521
	H84	H	0.614774	0.911977	0.090693
	H85	H	0.386882	0.097479	0.080586
	H86	H	0.615742	0.095990	0.909889
	H87	H	0.383476	0.913794	0.893418
	H88	H	0.920949	0.090393	0.606757
	H89	H	0.091058	0.098503	0.377688
	H90	H	0.108181	0.908765	0.615731
	H91	H	0.916729	0.912035	0.380534
	H92	H	0.091570	0.620149	0.906897
	H93	H	0.100852	0.383378	0.092332
	H94	H	0.905092	0.620603	0.083247
	H95	H	0.909153	0.384466	0.903487
	H96	H	0.397796	0.122420	0.582871
	H97	H	0.593910	0.884772	0.593834
	H98	H	0.588891	0.120051	0.402720
	H99	H	0.402436	0.882629	0.400910
	H100	H	0.595129	0.401594	0.113109
	H101	H	0.587008	0.593512	0.879052
	H102	H	0.412227	0.597829	0.111912
	H103	H	0.403872	0.427125	0.881641
	H104	H	0.116124	0.586090	0.397949
	H105	H	0.884714	0.601492	0.581525
	H106	H	0.114314	0.414521	0.588162
	H107	H	0.885282	0.410294	0.403989
	H108	H	0.908351	0.620634	0.086869
	H109	H	0.094816	0.385508	0.093283
	H110	H	0.093769	0.622291	0.900535
	H111	H	0.906777	0.383921	0.902046
	H112	H	0.092946	0.916620	0.608783
	H113	H	0.094336	0.094635	0.378115
	H114	H	0.905472	0.110889	0.618325
	H115	H	0.902087	0.907977	0.374851
	H116	H	0.616209	0.086105	0.898716
	H117	H	0.386253	0.091615	0.087857
	H118	H	0.619261	0.904176	0.096679
	H119	H	0.383871	0.905559	0.902448
	C120	C	0.380425	0.010577	0.614803
	C121	C	0.623714	0.994133	0.617255
	C122	C	0.620779	0.010984	0.375381
	C123	C	0.377233	0.993119	0.372110
	C124	C	0.624886	0.379103	0.003020
	C125	C	0.621372	0.622539	0.985855
	C126	C	0.377777	0.625253	0.004007
	C127	C	0.380792	0.382975	0.987023
	C128	C	0.010377	0.625962	0.372640
	C129	C	0.992101	0.624423	0.617049
	C130	C	0.009419	0.380131	0.619313
	C131	C	0.993383	0.382612	0.374705
	C132	C	0.880823	0.511510	0.114554
	C133	C	0.124397	0.494534	0.118516
	C134	C	0.121038	0.511514	0.875383
	C135	C	0.878586	0.493485	0.872618
	C136	C	0.124589	0.879702	0.503950
	C137	C	0.121198	0.122796	0.487118
	C138	C	0.876844	0.126601	0.504916
	C139	C	0.881137	0.883894	0.487206
	C140	C	0.510092	0.125212	0.871478
	C141	C	0.493108	0.123463	0.115986
	C142	C	0.508899	0.879270	0.118050
	C143	C	0.493113	0.881574	0.873310
	C144	C	0.385183	0.886769	0.671033
	C145	C	0.619620	0.117971	0.672144
	C146	C	0.620110	0.886127	0.321903
	C147	C	0.378563	0.117318	0.316446
	C148	C	0.678733	0.381822	0.879510
	C149	C	0.679114	0.620468	0.109055
	C150	C	0.320153	0.625857	0.880975
	C151	C	0.327647	0.382582	0.110739
	C152	C	0.887938	0.684265	0.372857
	C153	C	0.116159	0.675734	0.614675
	C154	C	0.886539	0.327057	0.615083
	C155	C	0.115699	0.325156	0.379724
	C156	C	0.886456	0.384634	0.672372
	C157	C	0.115326	0.619098	0.673407
	C158	C	0.888100	0.627339	0.314561
	C159	C	0.116249	0.383054	0.321877
	C160	C	0.378695	0.682101	0.880204
	C161	C	0.619335	0.675654	0.110276
	C162	C	0.620822	0.325703	0.879139
	C163	C	0.386903	0.326461	0.110692
	C164	C	0.679433	0.887625	0.377618
	C165	C	0.677903	0.117858	0.616515
	C166	C	0.327274	0.886850	0.614915
	C167	C	0.320687	0.117118	0.372958
	C168	C	0.885881	0.387872	0.171921
	C169	C	0.120396	0.618827	0.172274
	C170	C	0.119925	0.386858	0.822099
	C171	C	0.879111	0.617876	0.816918
	C172	C	0.177293	0.882972	0.380025
	C173	C	0.178229	0.120251	0.610304
	C174	C	0.819274	0.127363	0.381515
	C175	C	0.827738	0.883529	0.610879
	C176	C	0.387291	0.182438	0.873146
	C177	C	0.616776	0.175575	0.114512
	C178	C	0.385930	0.826442	0.113257
	C179	C	0.615793	0.824131	0.877802
	C180	C	0.386071	0.883510	0.171536
	C181	C	0.615449	0.119267	0.173946
	C182	C	0.387423	0.124954	0.814842
	C183	C	0.616075	0.882123	0.819954
	C184	C	0.878514	0.183274	0.381011
	C185	C	0.117974	0.174807	0.611914
	C186	C	0.120124	0.825490	0.380248
	C187	C	0.886470	0.827221	0.610844
	C188	C	0.178620	0.387906	0.877804
	C189	C	0.178103	0.618344	0.115779
	C190	C	0.828176	0.387087	0.114547
	C191	C	0.820709	0.617016	0.872529
	C192	C	0.401283	0.097391	0.590912
	C193	C	0.603216	0.907529	0.595204
	C194	C	0.597022	0.097499	0.396620
	C195	C	0.400277	0.906158	0.395051
	C196	C	0.604135	0.400826	0.089515
	C197	C	0.598099	0.600337	0.900015
	C198	C	0.401231	0.601544	0.090101
	C199	C	0.401123	0.406599	0.900740
	C200	C	0.095453	0.601553	0.396393
	C201	C	0.906577	0.604733	0.594128
	C202	C	0.095558	0.400423	0.598564
	C203	C	0.907719	0.406685	0.395623
	C204	C	0.901400	0.598064	0.090739
	C205	C	0.103786	0.407537	0.097396
	C206	C	0.097665	0.598069	0.896778
	C207	C	0.901638	0.406569	0.895587
	C208	C	0.104040	0.901311	0.590528
	C209	C	0.098406	0.101611	0.400576
	C210	C	0.900077	0.102847	0.590793
	C211	C	0.901619	0.907692	0.400990
	C212	C	0.595529	0.101297	0.894844
	C213	C	0.407669	0.102841	0.092395
	C214	C	0.594815	0.900128	0.097349
	C215	C	0.407302	0.905292	0.894059
	Zn216	Zn	0.501409	0.002561	0.743171
	Zn217	Zn	0.500066	0.001466	0.246050
	Zn218	Zn	0.751390	0.501678	-0.006070
	Zn219	Zn	0.250341	0.503149	-0.003801
	Zn220	Zn	0.001696	0.753437	0.495454
	Zn221	Zn	0.000599	0.252343	0.496778
	Zn222	Zn	0.000483	0.502497	0.746722
	Zn223	Zn	0.002002	0.504254	0.244443
	Zn224	Zn	0.500804	0.751725	-0.004700
	Zn225	Zn	0.502654	0.253224	-0.005864
	Zn226	Zn	0.750762	0.003672	0.496156
	Zn227	Zn	0.251496	0.002172	0.494916
	N228	N	0.417522	0.964919	0.671065
	N229	N	0.586736	0.040015	0.672789
	N230	N	0.584231	0.963933	0.320314
	N231	N	0.413135	0.039093	0.315774
	N232	N	0.681662	0.414305	0.957777
	N233	N	0.680361	0.588082	0.030842
	N234	N	0.319270	0.591419	0.958899
	N235	N	0.323874	0.417061	0.032803
	N236	N	0.964952	0.683711	0.408086
	N237	N	0.038852	0.679145	0.580221
	N238	N	0.964072	0.323854	0.582919
	N239	N	0.038186	0.324656	0.411759
	N240	N	0.963832	0.416937	0.674968
	N241	N	0.037411	0.588052	0.675108
	N242	N	0.965014	0.591615	0.314324
	N243	N	0.039084	0.418501	0.318878
	N244	N	0.413928	0.681838	0.957763
	N245	N	0.584133	0.676984	0.032797
	N246	N	0.587820	0.324237	0.956832
	N247	N	0.419336	0.326587	0.032727
	N248	N	0.679920	0.966109	0.410086
	N249	N	0.680544	0.039969	0.582820
	N250	N	0.324117	0.965133	0.580622
	N251	N	0.319959	0.038857	0.406973
	N252	N	0.917802	0.466347	0.172028
	N253	N	0.087776	0.540729	0.174084
	N254	N	0.084523	0.464639	0.820569
	N255	N	0.914482	0.540006	0.817040
	N256	N	0.180396	0.915874	0.458233
	N257	N	0.180410	0.088995	0.531661
	N258	N	0.818000	0.093168	0.459561
	N259	N	0.824390	0.918093	0.533060
	N260	N	0.464673	0.182891	0.907647
	N261	N	0.539855	0.178328	0.079016
	N262	N	0.463390	0.823735	0.080706
	N263	N	0.538400	0.823836	0.910547
	N264	N	0.463561	0.915507	0.174637
	N265	N	0.537788	0.087621	0.174953
	N266	N	0.464680	0.090128	0.813841
	N267	N	0.538835	0.917086	0.817136
	N268	N	0.913465	0.183126	0.458594
	N269	N	0.083049	0.176507	0.534316
	N270	N	0.088401	0.823161	0.458339
	N271	N	0.918890	0.827086	0.532830
	N272	N	0.179399	0.466400	0.910198
	N273	N	0.180703	0.539909	0.083131
	N274	N	0.824799	0.465033	0.079650
	N275	N	0.820192	0.538617	0.906390
	O276	O	0.012503	0.007780	-0.040862
	H277	H	0.008965	0.003680	-0.042842
	H278	H	0.008891	0.006049	-0.039309
	O279	O	0.424739	0.453150	0.455356
	H280	H	0.420775	0.451632	0.459369
	H281	H	0.425889	0.451285	0.466462
	O282	O	0.545653	0.511122	0.507871
	H283	H	0.554773	0.501619	0.512471
	H284	H	0.537491	0.514382	0.498767
	O285	O	1.007048	-0.024722	1.035618
	H286	H	1.007915	-0.029386	1.032820
	H287	H	1.010392	-0.018434	1.024169
	O288	O	1.041588	0.026437	-0.002803
	H289	H	1.046532	0.028346	0.004918
	H290	H	1.033616	0.022125	0.004166
	O291	O	0.506031	0.537981	0.554697
	H292	H	0.506093	0.538971	0.556860
	H293	H	0.500599	0.540122	0.546701
	O294	O	1.019059	-0.011398	0.933786
	H295	H	1.023310	-0.008369	0.929360
	H296	H	1.023258	-0.009453	0.937262
	O297	O	-0.005630	0.052795	-0.032561
	H298	H	-0.011564	0.053606	-0.033146
	H299	H	-0.002980	0.064891	-0.034481
	O300	O	0.513042	0.483293	0.527487
	H301	H	0.514626	0.482048	0.527563
	H302	H	0.511332	0.483015	0.533737
	O303	O	0.567333	0.482954	0.424389
	H304	H	0.582969	0.484694	0.418835
	H305	H	0.568480	0.478641	0.430850
	O306	O	0.971890	0.037582	0.030057
	H307	H	0.971125	0.031095	0.028755
	H308	H	0.973050	0.034332	0.031222
	O309	O	0.007135	0.022452	1.023427
	H310	H	0.011309	0.015241	1.027810
	H311	H	0.006964	0.022217	1.028847
	O312	O	1.057706	1.030836	1.037689
	H313	H	1.067211	1.027821	1.035279
	H314	H	1.048746	1.043754	1.039718
	O315	O	0.477717	0.434375	0.513544
	H316	H	0.490359	0.434184	0.514867
	H317	H	0.475574	0.441069	0.514618
	O318	O	0.497115	0.540990	0.526446
	H319	H	0.496343	0.536938	0.534408
	H320	H	0.495231	0.536480	0.525732
	O321	O	0.460021	1.583548	1.492581
	H322	H	0.453191	1.584667	1.481553
	H323	H	0.450044	1.579949	1.492556
	O324	O	0.508265	0.499797	0.435751
	H325	H	0.513344	0.501049	0.428222
	H326	H	0.506113	0.505125	0.425301
	O327	O	0.483030	0.467024	0.510403
	H328	H	0.473919	0.469890	0.514575
	H329	H	0.483156	0.468766	0.512659
	O330	O	0.563186	0.428593	0.444668
	H331	H	0.562464	0.430153	0.453335
	H332	H	0.568991	0.429258	0.432074
	O333	O	0.607456	0.453956	0.399824
	H334	H	0.598452	0.452974	0.394956
	H335	H	0.620538	0.456664	0.403954
	O336	O	0.522664	0.504972	0.492097
	H337	H	0.519963	0.508980	0.494098
	H338	H	0.517757	0.506612	0.481402
	O339	O	1.032378	0.952342	-0.077758
	H340	H	1.043688	0.948408	-0.086671
	H341	H	1.039834	0.952187	-0.085470
	O342	O	0.395641	0.459000	0.494838
	H343	H	0.400157	0.453249	0.495592
	H344	H	0.395013	0.456434	0.493004
	O345	O	0.493056	0.489613	0.435042
	H346	H	0.494274	0.487427	0.438715
	H347	H	0.499846	0.484576	0.433482
	O348	O	0.057520	-0.007494	0.009116
	H349	H	0.065814	0.002523	0.013788
	H350	H	0.053249	-0.006020	0.007362
	O351	O	0.062531	1.016421	1.090028
	H352	H	0.065371	1.014785	1.094022
	H353	H	0.039392	1.012826	1.090908
	O354	O	0.405907	0.487544	0.493987
	H355	H	0.406195	0.491541	0.484522
	H356	H	0.409359	0.486807	0.495202
	O357	O	-0.054325	0.989007	0.953299
	H358	H	-0.046507	0.986553	0.954542
	H359	H	-0.061449	0.993115	0.952530
