data_Molecule from HDF5

_cell_length_a		16.307097
_cell_length_b		16.314707
_cell_length_c		16.278648
_cell_angle_alpha	89.918306
_cell_angle_beta	89.917740
_cell_angle_gamma	90.097048
_symmetry_space_group_name_H-M	'P 1'
_symmetry_Int_Tables_number		1

loop_
	_symmetry_equiv_pos_as_xyz
	x,y,z

loop_
	_atom_site_label
	_atom_site_type_symbol
	_atom_site_fract_x
	_atom_site_fract_y
	_atom_site_fract_z
	H0	H	0.401942	0.836275	0.714184
	H1	H	0.598155	0.163987	0.713906
	H2	H	0.598076	0.836126	0.286615
	H3	H	0.403513	0.164053	0.285488
	H4	H	0.713960	0.402526	0.835876
	H5	H	0.713547	0.597369	0.163705
	H6	H	0.285822	0.598190	0.836872
	H7	H	0.285887	0.401701	0.163752
	H8	H	0.836752	0.714959	0.401154
	H9	H	0.163541	0.714424	0.597736
	H10	H	0.836566	0.284180	0.599167
	H11	H	0.163197	0.285625	0.402441
	H12	H	0.836138	0.401777	0.714684
	H13	H	0.163512	0.597913	0.714996
	H14	H	0.836638	0.597652	0.286549
	H15	H	0.164107	0.403504	0.286850
	H16	H	0.401726	0.714728	0.836883
	H17	H	0.598875	0.714681	0.163046
	H18	H	0.597818	0.286258	0.836553
	H19	H	0.401294	0.285584	0.163744
	H20	H	0.714339	0.836838	0.402131
	H21	H	0.715087	0.163482	0.597898
	H22	H	0.284839	0.837085	0.598935
	H23	H	0.286687	0.163474	0.400980
	H24	H	0.901104	0.336484	0.216147
	H25	H	0.097327	0.663983	0.213286
	H26	H	0.097760	0.336632	0.786379
	H27	H	0.902796	0.663481	0.785992
	H28	H	0.214269	0.902230	0.335670
	H29	H	0.214177	0.098346	0.663378
	H30	H	0.786515	0.098284	0.335737
	H31	H	0.784438	0.901658	0.663185
	H32	H	0.335847	0.213397	0.902331
	H33	H	0.663618	0.214584	0.097417
	H34	H	0.336466	0.785258	0.098045
	H35	H	0.662906	0.786016	0.901177
	H36	H	0.336879	0.901509	0.214767
	H37	H	0.663965	0.097915	0.213276
	H38	H	0.335706	0.097566	0.785482
	H39	H	0.663505	0.902196	0.785358
	H40	H	0.901945	0.215443	0.336516
	H41	H	0.096610	0.212508	0.664373
	H42	H	0.098557	0.785608	0.336502
	H43	H	0.901238	0.785580	0.663891
	H44	H	0.213959	0.336652	0.902103
	H45	H	0.215411	0.662805	0.098942
	H46	H	0.785065	0.335978	0.098978
	H47	H	0.786117	0.663656	0.901808
	H48	H	0.415911	0.114203	0.594413
	H49	H	0.594733	0.881416	0.600606
	H50	H	0.599555	0.118188	0.404510
	H51	H	0.408295	0.882391	0.400392
	H52	H	0.596597	0.408417	0.117373
	H53	H	0.585827	0.593783	0.885259
	H54	H	0.402455	0.592550	0.118393
	H55	H	0.406798	0.411624	0.885024
	H56	H	0.116257	0.596053	0.409359
	H57	H	0.883191	0.592262	0.596225
	H58	H	0.118293	0.402497	0.595618
	H59	H	0.884936	0.410664	0.407097
	H60	H	0.115034	0.406424	0.590027
	H61	H	0.883748	0.596286	0.591844
	H62	H	0.115736	0.591198	0.406337
	H63	H	0.882062	0.404347	0.405154
	H64	H	0.409432	0.588539	0.114751
	H65	H	0.597872	0.600542	0.879065
	H66	H	0.589218	0.409615	0.114734
	H67	H	0.411256	0.403498	0.883520
	H68	H	0.589741	0.116722	0.400262
	H69	H	0.585386	0.886978	0.591527
	H70	H	0.402145	0.115001	0.584648
	H71	H	0.411742	0.886702	0.411614
	H72	H	0.906060	0.616656	0.093445
	H73	H	0.090847	0.385303	0.092784
	H74	H	0.099146	0.618642	0.905614
	H75	H	0.904411	0.383199	0.906618
	H76	H	0.088337	0.911481	0.613491
	H77	H	0.096366	0.097083	0.381667
	H78	H	0.905514	0.091311	0.616027
	H79	H	0.914731	0.907110	0.385723
	H80	H	0.618619	0.103237	0.906178
	H81	H	0.383335	0.096743	0.092661
	H82	H	0.616693	0.910457	0.097477
	H83	H	0.382321	0.904859	0.902814
	H84	H	0.618816	0.900706	0.094172
	H85	H	0.384746	0.090699	0.091203
	H86	H	0.611976	0.089628	0.914639
	H87	H	0.383488	0.904544	0.910287
	H88	H	0.907230	0.092391	0.615788
	H89	H	0.094988	0.089858	0.383832
	H90	H	0.091835	0.900530	0.618340
	H91	H	0.904662	0.900158	0.380689
	H92	H	0.089377	0.616555	0.903289
	H93	H	0.094972	0.382963	0.092720
	H94	H	0.906703	0.616029	0.093214
	H95	H	0.907623	0.383432	0.906184
	H96	H	0.401865	0.120476	0.600321
	H97	H	0.598209	0.884133	0.587291
	H98	H	0.592028	0.114103	0.411549
	H99	H	0.399750	0.882695	0.409711
	H100	H	0.591452	0.402557	0.117465
	H101	H	0.598695	0.586530	0.884190
	H102	H	0.410078	0.597003	0.117295
	H103	H	0.402309	0.404856	0.881313
	H104	H	0.118126	0.595622	0.403730
	H105	H	0.885579	0.590592	0.590774
	H106	H	0.115372	0.409513	0.596773
	H107	H	0.883839	0.405002	0.411536
	H108	H	0.906335	0.615796	0.092761
	H109	H	0.092217	0.382767	0.096071
	H110	H	0.092900	0.614127	0.912754
	H111	H	0.906323	0.383993	0.908581
	H112	H	0.100497	0.909906	0.617528
	H113	H	0.089544	0.095258	0.383639
	H114	H	0.905403	0.092845	0.616983
	H115	H	0.902923	0.913495	0.384062
	H116	H	0.616746	0.087824	0.898246
	H117	H	0.382654	0.091603	0.096766
	H118	H	0.613903	0.907485	0.088077
	H119	H	0.384916	0.910346	0.906496
	C120	C	0.378218	0.008453	0.621368
	C121	C	0.621564	0.991914	0.621540
	C122	C	0.621933	0.008377	0.377876
	C123	C	0.378694	0.991770	0.378004
	C124	C	0.621237	0.378355	0.008501
	C125	C	0.622125	0.621618	0.991176
	C126	C	0.378767	0.620983	0.008707
	C127	C	0.378280	0.378242	0.991670
	C128	C	0.008348	0.622505	0.378242
	C129	C	0.991961	0.621699	0.621498
	C130	C	0.008196	0.377766	0.622411
	C131	C	0.991670	0.378717	0.379538
	C132	C	0.877768	0.508088	0.122113
	C133	C	0.121440	0.491635	0.121991
	C134	C	0.121832	0.508438	0.878682
	C135	C	0.878340	0.491871	0.878892
	C136	C	0.121654	0.878864	0.508021
	C137	C	0.121794	0.121961	0.491481
	C138	C	0.878240	0.121117	0.508173
	C139	C	0.878355	0.878377	0.491662
	C140	C	0.507664	0.121646	0.878024
	C141	C	0.491937	0.121244	0.121420
	C142	C	0.508503	0.878039	0.121643
	C143	C	0.491840	0.878777	0.878185
	C144	C	0.381202	0.885307	0.676201
	C145	C	0.618840	0.115142	0.676079
	C146	C	0.618750	0.885095	0.323691
	C147	C	0.382159	0.114983	0.323045
	C148	C	0.676087	0.381711	0.884810
	C149	C	0.676413	0.618464	0.114638
	C150	C	0.323756	0.618696	0.885533
	C151	C	0.323333	0.380767	0.114933
	C152	C	0.885632	0.676919	0.381215
	C153	C	0.114856	0.676909	0.618848
	C154	C	0.885064	0.322514	0.619719
	C155	C	0.114718	0.323357	0.381429
	C156	C	0.884892	0.380923	0.676816
	C157	C	0.114762	0.618924	0.676623
	C158	C	0.885572	0.619114	0.323739
	C159	C	0.115191	0.382162	0.324697
	C160	C	0.381432	0.676267	0.885478
	C161	C	0.619554	0.676708	0.114257
	C162	C	0.618710	0.323899	0.885236
	C163	C	0.380677	0.322988	0.114696
	C164	C	0.676608	0.885179	0.380978
	C165	C	0.676653	0.115076	0.618284
	C166	C	0.323062	0.885499	0.619005
	C167	C	0.324124	0.114848	0.380372
	C168	C	0.880387	0.385110	0.177958
	C169	C	0.118456	0.614881	0.176192
	C170	C	0.118364	0.385393	0.824300
	C171	C	0.881559	0.614704	0.823810
	C172	C	0.176316	0.881740	0.384512
	C173	C	0.176354	0.118694	0.614759
	C174	C	0.823787	0.119094	0.384651
	C175	C	0.823002	0.881169	0.614790
	C176	C	0.384681	0.175935	0.881245
	C177	C	0.614929	0.176671	0.118038
	C178	C	0.385338	0.823170	0.118672
	C179	C	0.614477	0.824062	0.880925
	C180	C	0.385334	0.880854	0.176722
	C181	C	0.615245	0.118782	0.175433
	C182	C	0.384605	0.118128	0.823518
	C183	C	0.614625	0.881664	0.823250
	C184	C	0.881403	0.176769	0.385092
	C185	C	0.118199	0.175769	0.615070
	C186	C	0.118593	0.824118	0.384872
	C187	C	0.880783	0.823416	0.614909
	C188	C	0.176370	0.385452	0.881454
	C189	C	0.177063	0.614362	0.119348
	C190	C	0.822921	0.384961	0.119494
	C191	C	0.823596	0.614685	0.881254
	C192	C	0.400126	0.094381	0.599432
	C193	C	0.599417	0.906271	0.599528
	C194	C	0.600169	0.094217	0.399254
	C195	C	0.400243	0.906170	0.400498
	C196	C	0.599084	0.400318	0.094416
	C197	C	0.600594	0.600101	0.905078
	C198	C	0.400772	0.599008	0.094454
	C199	C	0.400326	0.400299	0.905579
	C200	C	0.094532	0.600742	0.400208
	C201	C	0.906113	0.599496	0.599411
	C202	C	0.094000	0.399620	0.600482
	C203	C	0.905874	0.400319	0.401443
	C204	C	0.899675	0.594037	0.099652
	C205	C	0.099238	0.405597	0.100163
	C206	C	0.100139	0.594338	0.900659
	C207	C	0.899829	0.405554	0.900632
	C208	C	0.099860	0.900783	0.594261
	C209	C	0.100070	0.100418	0.405347
	C210	C	0.899773	0.098859	0.594197
	C211	C	0.900770	0.900441	0.405678
	C212	C	0.593823	0.100016	0.900020
	C213	C	0.405767	0.099449	0.099927
	C214	C	0.594486	0.899882	0.099787
	C215	C	0.405743	0.900410	0.900195
	Zn216	Zn	0.499699	-0.000024	0.749657
	Zn217	Zn	0.500543	-0.000194	0.249559
	Zn218	Zn	0.749552	0.499568	-0.000091
	Zn219	Zn	0.250124	0.499882	0.000364
	Zn220	Zn	0.000133	0.750575	0.500002
	Zn221	Zn	-0.000240	0.249571	0.500533
	Zn222	Zn	-0.000172	0.499914	0.750299
	Zn223	Zn	0.000037	0.500123	0.250517
	Zn224	Zn	0.500216	0.749717	-0.000096
	Zn225	Zn	0.499970	0.249925	0.000019
	Zn226	Zn	0.750099	0.000169	0.499053
	Zn227	Zn	0.249904	0.000133	0.499566
	N228	N	0.414818	0.962729	0.677754
	N229	N	0.585261	0.037675	0.678149
	N230	N	0.585517	0.962631	0.321512
	N231	N	0.415513	0.037563	0.321549
	N232	N	0.677710	0.414837	0.962491
	N233	N	0.678029	0.584926	0.037113
	N234	N	0.322020	0.585082	0.963060
	N235	N	0.321760	0.414578	0.037416
	N236	N	0.963204	0.679007	0.414385
	N237	N	0.037481	0.678667	0.585268
	N238	N	0.962694	0.320712	0.586385
	N239	N	0.037220	0.321315	0.415131
	N240	N	0.962343	0.414489	0.678704
	N241	N	0.037433	0.585097	0.678125
	N242	N	0.962969	0.585798	0.321954
	N243	N	0.037607	0.415611	0.323062
	N244	N	0.415042	0.677836	0.962967
	N245	N	0.586335	0.678771	0.036562
	N246	N	0.585273	0.321744	0.963038
	N247	N	0.414268	0.321505	0.037005
	N248	N	0.678425	0.962698	0.414054
	N249	N	0.678360	0.037512	0.584930
	N250	N	0.321529	0.962984	0.585109
	N251	N	0.321819	0.037406	0.413951
	N252	N	0.913975	0.462738	0.179557
	N253	N	0.084521	0.537591	0.177813
	N254	N	0.085337	0.462993	0.822221
	N255	N	0.914981	0.537299	0.822505
	N256	N	0.178317	0.915023	0.462259
	N257	N	0.178607	0.085866	0.536914
	N258	N	0.822043	0.084893	0.462052
	N259	N	0.821422	0.914653	0.537034
	N260	N	0.462270	0.178150	0.914595
	N261	N	0.537246	0.178201	0.085123
	N262	N	0.462886	0.821450	0.085146
	N263	N	0.536912	0.822123	0.914390
	N264	N	0.462835	0.914433	0.178347
	N265	N	0.537812	0.084934	0.177629
	N266	N	0.462242	0.085146	0.821554
	N267	N	0.537305	0.915301	0.821930
	N268	N	0.914559	0.178028	0.462852
	N269	N	0.085066	0.177916	0.537408
	N270	N	0.085514	0.822217	0.462680
	N271	N	0.914565	0.821721	0.537392
	N272	N	0.178352	0.462949	0.914878
	N273	N	0.179057	0.536688	0.086621
	N274	N	0.821278	0.462340	0.085589
	N275	N	0.821633	0.537077	0.914859
