data_Molecule from HDF5

_cell_length_a		16.346788
_cell_length_b		16.241463
_cell_length_c		16.309536
_cell_angle_alpha	90.018165
_cell_angle_beta	90.039522
_cell_angle_gamma	90.008235
_symmetry_space_group_name_H-M	'P 1'
_symmetry_Int_Tables_number		1

loop_
	_symmetry_equiv_pos_as_xyz
	x,y,z

loop_
	_atom_site_label
	_atom_site_type_symbol
	_atom_site_fract_x
	_atom_site_fract_y
	_atom_site_fract_z
	H0	H	0.401559	0.836202	0.713843
	H1	H	0.598314	0.164288	0.714030
	H2	H	0.597550	0.834999	0.286924
	H3	H	0.401986	0.163740	0.286458
	H4	H	0.715770	0.400670	0.836897
	H5	H	0.714753	0.599095	0.163437
	H6	H	0.285994	0.598055	0.836565
	H7	H	0.284521	0.400687	0.162943
	H8	H	0.835653	0.713027	0.403452
	H9	H	0.163173	0.713807	0.597255
	H10	H	0.835456	0.287328	0.596470
	H11	H	0.163190	0.286322	0.402888
	H12	H	0.836520	0.402111	0.715263
	H13	H	0.162957	0.598948	0.714808
	H14	H	0.836400	0.596710	0.286043
	H15	H	0.163012	0.402211	0.285335
	H16	H	0.404101	0.712484	0.836073
	H17	H	0.596191	0.712863	0.164395
	H18	H	0.596944	0.286338	0.836175
	H19	H	0.402617	0.286345	0.164183
	H20	H	0.713833	0.835342	0.402958
	H21	H	0.714708	0.164107	0.598329
	H22	H	0.285404	0.836588	0.597956
	H23	H	0.285685	0.163628	0.401299
	H24	H	0.901310	0.336353	0.213910
	H25	H	0.098526	0.664839	0.213634
	H26	H	0.098723	0.336262	0.785789
	H27	H	0.902132	0.664275	0.786049
	H28	H	0.214111	0.901764	0.336785
	H29	H	0.215208	0.099111	0.662817
	H30	H	0.785009	0.098244	0.337229
	H31	H	0.785200	0.901203	0.663858
	H32	H	0.336584	0.213016	0.902894
	H33	H	0.662919	0.213835	0.097475
	H34	H	0.336276	0.786343	0.096437
	H35	H	0.663918	0.786162	0.902979
	H36	H	0.336524	0.902873	0.213516
	H37	H	0.663386	0.097394	0.214575
	H38	H	0.337144	0.097326	0.785811
	H39	H	0.663509	0.902226	0.785858
	H40	H	0.902820	0.212596	0.335819
	H41	H	0.097622	0.213777	0.663739
	H42	H	0.096882	0.786651	0.335925
	H43	H	0.902925	0.786274	0.663706
	H44	H	0.214057	0.336459	0.902009
	H45	H	0.214284	0.663870	0.098097
	H46	H	0.785833	0.336536	0.098751
	H47	H	0.785098	0.663975	0.900323
	H48	H	0.399450	0.118944	0.590898
	H49	H	0.594760	0.880398	0.602779
	H50	H	0.596927	0.116902	0.408093
	H51	H	0.402296	0.882540	0.411003
	H52	H	0.606043	0.405773	0.120012
	H53	H	0.594776	0.594652	0.883059
	H54	H	0.411551	0.579375	0.110692
	H55	H	0.410011	0.414520	0.888130
	H56	H	0.113238	0.590001	0.411252
	H57	H	0.881649	0.595509	0.599400
	H58	H	0.119156	0.400792	0.600005
	H59	H	0.883555	0.407044	0.402636
	H60	H	0.113947	0.403808	0.584678
	H61	H	0.883486	0.598253	0.589784
	H62	H	0.116433	0.590968	0.400606
	H63	H	0.883479	0.403858	0.408355
	H64	H	0.415337	0.605911	0.117741
	H65	H	0.594936	0.589901	0.884310
	H66	H	0.590192	0.417893	0.111667
	H67	H	0.411713	0.399513	0.882982
	H68	H	0.592467	0.117335	0.403359
	H69	H	0.584720	0.886225	0.590233
	H70	H	0.409536	0.118001	0.600436
	H71	H	0.405596	0.881407	0.401057
	H72	H	0.898333	0.619518	0.090603
	H73	H	0.096646	0.382677	0.092595
	H74	H	0.106455	0.621441	0.906382
	H75	H	0.909546	0.382182	0.901374
	H76	H	0.091926	0.896889	0.618456
	H77	H	0.086986	0.092977	0.385530
	H78	H	0.907985	0.088927	0.614709
	H79	H	0.902551	0.915991	0.385481
	H80	H	0.620635	0.095264	0.893271
	H81	H	0.388742	0.086531	0.083362
	H82	H	0.616758	0.906210	0.094407
	H83	H	0.384954	0.906412	0.908471
	H84	H	0.616703	0.905670	0.093408
	H85	H	0.382088	0.087293	0.105992
	H86	H	0.617973	0.104096	0.914060
	H87	H	0.384697	0.908123	0.904214
	H88	H	0.909367	0.095931	0.616452
	H89	H	0.097269	0.098661	0.381032
	H90	H	0.102986	0.911269	0.618092
	H91	H	0.915831	0.905299	0.386381
	H92	H	0.085633	0.618745	0.896289
	H93	H	0.092686	0.383085	0.097112
	H94	H	0.909957	0.618778	0.101027
	H95	H	0.911138	0.385990	0.911510
	H96	H	0.412309	0.114199	0.587425
	H97	H	0.600655	0.882658	0.586766
	H98	H	0.590655	0.114404	0.409198
	H99	H	0.411960	0.884735	0.408143
	H100	H	0.586148	0.396941	0.117082
	H101	H	0.591314	0.592511	0.884427
	H102	H	0.390828	0.594129	0.121802
	H103	H	0.397452	0.406766	0.881531
	H104	H	0.117509	0.599655	0.407251
	H105	H	0.885898	0.588712	0.593110
	H106	H	0.113581	0.415646	0.596524
	H107	H	0.885213	0.410290	0.408026
	H108	H	0.912264	0.613383	0.086118
	H109	H	0.090891	0.384272	0.091798
	H110	H	0.088553	0.612099	0.918205
	H111	H	0.901620	0.381907	0.908639
	H112	H	0.086135	0.913623	0.612660
	H113	H	0.097462	0.086727	0.383747
	H114	H	0.902870	0.093367	0.617646
	H115	H	0.900818	0.899827	0.380329
	H116	H	0.611523	0.081446	0.910091
	H117	H	0.380287	0.106076	0.092477
	H118	H	0.615352	0.906162	0.093955
	H119	H	0.383272	0.903963	0.905203
	C120	C	0.378589	0.008793	0.621180
	C121	C	0.621655	0.991736	0.621432
	C122	C	0.621475	0.007856	0.378759
	C123	C	0.378310	0.991274	0.378725
	C124	C	0.621945	0.378493	0.008008
	C125	C	0.621610	0.621011	0.991910
	C126	C	0.378131	0.621433	0.008600
	C127	C	0.377997	0.378170	0.992024
	C128	C	0.007856	0.621868	0.378172
	C129	C	0.991694	0.621995	0.621719
	C130	C	0.007500	0.378364	0.621859
	C131	C	0.991677	0.378462	0.377972
	C132	C	0.878501	0.508856	0.121099
	C133	C	0.121639	0.491778	0.121831
	C134	C	0.121603	0.508770	0.878521
	C135	C	0.879236	0.492010	0.878727
	C136	C	0.121580	0.878330	0.508248
	C137	C	0.121970	0.121510	0.491573
	C138	C	0.878434	0.121128	0.508350
	C139	C	0.878248	0.878498	0.492150
	C140	C	0.508577	0.121609	0.877950
	C141	C	0.491664	0.121208	0.121673
	C142	C	0.508101	0.878009	0.121723
	C143	C	0.492196	0.877766	0.877912
	C144	C	0.381229	0.884970	0.675844
	C145	C	0.618756	0.115553	0.675912
	C146	C	0.618460	0.884072	0.324316
	C147	C	0.381306	0.114809	0.324085
	C148	C	0.677136	0.380716	0.885372
	C149	C	0.676433	0.618696	0.114942
	C150	C	0.323707	0.618696	0.885188
	C151	C	0.323135	0.380890	0.114755
	C152	C	0.884647	0.675790	0.381736
	C153	C	0.114644	0.676297	0.618237
	C154	C	0.884488	0.324198	0.618390
	C155	C	0.114501	0.323915	0.381634
	C156	C	0.884908	0.381648	0.676888
	C157	C	0.114507	0.619159	0.676438
	C158	C	0.884964	0.618623	0.323314
	C159	C	0.114424	0.381537	0.323417
	C160	C	0.382189	0.675534	0.885276
	C161	C	0.617763	0.675376	0.115347
	C162	C	0.618178	0.323812	0.884933
	C163	C	0.381706	0.324159	0.115241
	C164	C	0.676452	0.884389	0.381494
	C165	C	0.676753	0.115190	0.618657
	C166	C	0.323418	0.885320	0.618672
	C167	C	0.323386	0.114644	0.381102
	C168	C	0.881146	0.385505	0.176267
	C169	C	0.118930	0.615508	0.176175
	C170	C	0.118696	0.385262	0.823790
	C171	C	0.881519	0.615467	0.823914
	C172	C	0.176459	0.880963	0.385277
	C173	C	0.177073	0.119380	0.614434
	C174	C	0.823298	0.118581	0.385575
	C175	C	0.823409	0.880937	0.614980
	C176	C	0.385731	0.176169	0.881245
	C177	C	0.614538	0.175889	0.118305
	C178	C	0.385039	0.823806	0.117776
	C179	C	0.615070	0.823480	0.881734
	C180	C	0.385098	0.881398	0.175800
	C181	C	0.614598	0.118286	0.176579
	C182	C	0.385642	0.118463	0.823580
	C183	C	0.614759	0.880866	0.823227
	C184	C	0.881864	0.175320	0.384822
	C185	C	0.118443	0.176113	0.614800
	C186	C	0.118295	0.823731	0.385059
	C187	C	0.882092	0.824020	0.615125
	C188	C	0.176277	0.385216	0.881186
	C189	C	0.176539	0.615251	0.118939
	C190	C	0.823586	0.385498	0.119037
	C191	C	0.823705	0.615242	0.880847
	C192	C	0.400634	0.094772	0.599424
	C193	C	0.599749	0.905424	0.599653
	C194	C	0.599825	0.094011	0.400395
	C195	C	0.400201	0.905113	0.400351
	C196	C	0.600368	0.400543	0.094026
	C197	C	0.599948	0.598917	0.906097
	C198	C	0.399392	0.599612	0.094739
	C199	C	0.399816	0.400483	0.906217
	C200	C	0.093595	0.600128	0.399883
	C201	C	0.905737	0.600378	0.600382
	C202	C	0.093347	0.400168	0.600169
	C203	C	0.906044	0.400540	0.399815
	C204	C	0.900482	0.595012	0.099041
	C205	C	0.100108	0.405607	0.100221
	C206	C	0.100082	0.595173	0.900560
	C207	C	0.901063	0.405781	0.900603
	C208	C	0.099957	0.900815	0.594304
	C209	C	0.100173	0.099244	0.405564
	C210	C	0.900264	0.099243	0.594193
	C211	C	0.899948	0.900703	0.406215
	C212	C	0.594514	0.099889	0.899411
	C213	C	0.405857	0.099688	0.100345
	C214	C	0.594059	0.899591	0.100238
	C215	C	0.406349	0.899884	0.899564
	Zn216	Zn	0.499979	0.000144	0.749067
	Zn217	Zn	0.499830	-0.000484	0.250619
	Zn218	Zn	0.751118	0.500639	-0.000116
	Zn219	Zn	0.249575	0.500397	0.000070
	Zn220	Zn	0.000211	0.750032	0.499940
	Zn221	Zn	-0.000181	0.249384	0.499944
	Zn222	Zn	-0.000046	0.500728	0.750526
	Zn223	Zn	-0.000330	0.500576	0.249254
	Zn224	Zn	0.500189	0.749554	-0.000004
	Zn225	Zn	0.499781	0.250044	0.000117
	Zn226	Zn	0.749712	-0.000045	0.500104
	Zn227	Zn	0.250113	-0.000208	0.499850
	N228	N	0.414754	0.962714	0.677722
	N229	N	0.585200	0.037919	0.677685
	N230	N	0.585056	0.961768	0.322427
	N231	N	0.414973	0.037125	0.322614
	N232	N	0.679636	0.413860	0.962939
	N233	N	0.678967	0.585782	0.037222
	N234	N	0.321149	0.585669	0.962906
	N235	N	0.320709	0.414082	0.037152
	N236	N	0.961951	0.677745	0.415255
	N237	N	0.037434	0.677911	0.584811
	N238	N	0.961574	0.322194	0.584714
	N239	N	0.037188	0.322000	0.414948
	N240	N	0.962488	0.414508	0.679204
	N241	N	0.037075	0.586050	0.678738
	N242	N	0.962524	0.585756	0.321091
	N243	N	0.036986	0.414622	0.321092
	N244	N	0.415271	0.677260	0.962807
	N245	N	0.584196	0.676806	0.038026
	N246	N	0.584643	0.322273	0.962257
	N247	N	0.414837	0.322324	0.037823
	N248	N	0.678279	0.962129	0.414816
	N249	N	0.678575	0.037201	0.585682
	N250	N	0.321723	0.963117	0.585267
	N251	N	0.321828	0.036964	0.414626
	N252	N	0.914862	0.463146	0.177536
	N253	N	0.085372	0.537942	0.177935
	N254	N	0.085305	0.462998	0.822286
	N255	N	0.915311	0.537817	0.822491
	N256	N	0.178371	0.914557	0.462916
	N257	N	0.179457	0.086299	0.536771
	N258	N	0.821225	0.085407	0.463223
	N259	N	0.820878	0.914040	0.537427
	N260	N	0.462950	0.178040	0.914635
	N261	N	0.537200	0.177941	0.085253
	N262	N	0.462516	0.821862	0.084764
	N263	N	0.537855	0.821592	0.914975
	N264	N	0.462556	0.914259	0.178478
	N265	N	0.537171	0.084994	0.178799
	N266	N	0.463105	0.085246	0.821482
	N267	N	0.537263	0.914043	0.820846
	N268	N	0.915363	0.177022	0.462256
	N269	N	0.084764	0.177258	0.537421
	N270	N	0.085043	0.822242	0.462407
	N271	N	0.915479	0.822550	0.537740
	N272	N	0.178096	0.463104	0.914701
	N273	N	0.178210	0.537430	0.085574
	N274	N	0.821918	0.463145	0.085496
	N275	N	0.822126	0.537559	0.914134
