data_Molecule from HDF5

_cell_length_a		16.360770
_cell_length_b		16.199748
_cell_length_c		16.170263
_cell_angle_alpha	90.343200
_cell_angle_beta	89.758664
_cell_angle_gamma	89.805066
_symmetry_space_group_name_H-M	'P 1'
_symmetry_Int_Tables_number		1

loop_
	_symmetry_equiv_pos_as_xyz
	x,y,z

loop_
	_atom_site_label
	_atom_site_type_symbol
	_atom_site_fract_x
	_atom_site_fract_y
	_atom_site_fract_z
	H0	H	0.398570	0.835625	0.713537
	H1	H	0.593080	0.164727	0.716208
	H2	H	0.594187	0.835306	0.285206
	H3	H	0.397619	0.164536	0.289287
	H4	H	0.710073	0.399565	0.835478
	H5	H	0.712110	0.604397	0.162561
	H6	H	0.279995	0.600736	0.835300
	H7	H	0.276902	0.399769	0.162624
	H8	H	0.832304	0.716653	0.402414
	H9	H	0.158017	0.715568	0.599401
	H10	H	0.833073	0.285772	0.598912
	H11	H	0.155987	0.280758	0.394672
	H12	H	0.832045	0.402086	0.714944
	H13	H	0.157314	0.600608	0.714717
	H14	H	0.831652	0.600116	0.285749
	H15	H	0.157171	0.398711	0.281801
	H16	H	0.395973	0.715423	0.835578
	H17	H	0.591158	0.715486	0.164668
	H18	H	0.596183	0.282683	0.837410
	H19	H	0.397523	0.290581	0.166081
	H20	H	0.712419	0.836070	0.398343
	H21	H	0.710673	0.164060	0.602514
	H22	H	0.279314	0.837601	0.602201
	H23	H	0.279149	0.162820	0.399774
	H24	H	0.896765	0.335524	0.212016
	H25	H	0.093297	0.664183	0.215198
	H26	H	0.093215	0.336100	0.783144
	H27	H	0.898413	0.666126	0.789103
	H28	H	0.213626	0.896950	0.337222
	H29	H	0.209710	0.102648	0.664033
	H30	H	0.779007	0.100020	0.336136
	H31	H	0.779140	0.900371	0.664162
	H32	H	0.332399	0.216145	0.904006
	H33	H	0.658374	0.216495	0.100797
	H34	H	0.332964	0.786978	0.101677
	H35	H	0.656492	0.783153	0.898493
	H36	H	0.333507	0.902031	0.215943
	H37	H	0.658787	0.099939	0.216171
	H38	H	0.332122	0.099842	0.787941
	H39	H	0.657660	0.900305	0.785525
	H40	H	0.897690	0.212540	0.333941
	H41	H	0.091555	0.216111	0.663654
	H42	H	0.094680	0.785356	0.335909
	H43	H	0.898129	0.789781	0.665723
	H44	H	0.212612	0.336547	0.895394
	H45	H	0.209893	0.664237	0.100596
	H46	H	0.778617	0.336949	0.099179
	H47	H	0.779575	0.664234	0.900400
	H48	H	0.404865	0.118994	0.600607
	H49	H	0.589707	0.883471	0.592305
	H50	H	0.584479	0.114843	0.414268
	H51	H	0.403916	0.884962	0.414173
	H52	H	0.592171	0.421111	0.114963
	H53	H	0.582619	0.584593	0.886832
	H54	H	0.399408	0.601340	0.119641
	H55	H	0.410879	0.414041	0.887095
	H56	H	0.112387	0.593603	0.403568
	H57	H	0.876689	0.595683	0.600082
	H58	H	0.110181	0.409028	0.589364
	H59	H	0.878817	0.405130	0.407991
	H60	H	0.110947	0.408595	0.593305
	H61	H	0.878195	0.600838	0.591154
	H62	H	0.110139	0.593601	0.409101
	H63	H	0.880001	0.410770	0.406819
	H64	H	0.395507	0.587993	0.117957
	H65	H	0.584079	0.600016	0.881116
	H66	H	0.576781	0.407553	0.115585
	H67	H	0.406868	0.398873	0.881077
	H68	H	0.594654	0.117446	0.411733
	H69	H	0.589624	0.882111	0.592585
	H70	H	0.406664	0.114546	0.589068
	H71	H	0.399946	0.880173	0.405625
	H72	H	0.901398	0.615844	0.085701
	H73	H	0.083979	0.385254	0.086696
	H74	H	0.097634	0.619584	0.908430
	H75	H	0.900343	0.383022	0.907012
	H76	H	0.084194	0.911565	0.615901
	H77	H	0.087024	0.092292	0.382246
	H78	H	0.903613	0.094733	0.616026
	H79	H	0.903199	0.905567	0.382261
	H80	H	0.610692	0.096963	0.913311
	H81	H	0.379390	0.099835	0.091851
	H82	H	0.610779	0.908088	0.092564
	H83	H	0.375800	0.907535	0.899288
	H84	H	0.612918	0.906896	0.093511
	H85	H	0.381764	0.090463	0.094099
	H86	H	0.608115	0.085511	0.911747
	H87	H	0.377617	0.901621	0.912380
	H88	H	0.900968	0.094221	0.617717
	H89	H	0.092803	0.089906	0.381781
	H90	H	0.088760	0.903071	0.619357
	H91	H	0.901707	0.910355	0.382491
	H92	H	0.085945	0.619794	0.898177
	H93	H	0.091649	0.383872	0.086575
	H94	H	0.897757	0.619582	0.095890
	H95	H	0.902655	0.383296	0.903981
	H96	H	0.395512	0.119572	0.592390
	H97	H	0.589323	0.882713	0.592834
	H98	H	0.586940	0.117668	0.404365
	H99	H	0.409233	0.883615	0.405926
	H100	H	0.595987	0.402273	0.122768
	H101	H	0.597742	0.590331	0.880014
	H102	H	0.408057	0.591758	0.113902
	H103	H	0.395223	0.410921	0.880909
	H104	H	0.109438	0.589007	0.406706
	H105	H	0.880920	0.590402	0.591374
	H106	H	0.111219	0.405825	0.589593
	H107	H	0.877223	0.406777	0.402470
	H108	H	0.907817	0.615760	0.094266
	H109	H	0.087308	0.382605	0.093024
	H110	H	0.083783	0.613631	0.913485
	H111	H	0.903391	0.383419	0.907615
	H112	H	0.093119	0.911691	0.619182
	H113	H	0.088018	0.086987	0.383901
	H114	H	0.902485	0.091508	0.616631
	H115	H	0.906022	0.909934	0.383773
	H116	H	0.612563	0.091935	0.902763
	H117	H	0.377657	0.096559	0.102260
	H118	H	0.611781	0.906920	0.091095
	H119	H	0.381298	0.915412	0.910853
	C120	C	0.373833	0.009343	0.623059
	C121	C	0.617814	0.991384	0.622471
	C122	C	0.617853	0.008317	0.379326
	C123	C	0.374987	0.991168	0.380028
	C124	C	0.617615	0.379465	0.009497
	C125	C	0.616309	0.621940	0.990991
	C126	C	0.372879	0.622334	0.008555
	C127	C	0.374896	0.379959	0.991651
	C128	C	0.003247	0.622186	0.378223
	C129	C	0.986528	0.623740	0.622230
	C130	C	0.003159	0.379784	0.620141
	C131	C	0.986015	0.377761	0.376288
	C132	C	0.873089	0.508984	0.120622
	C133	C	0.116596	0.491936	0.119647
	C134	C	0.117861	0.509164	0.876491
	C135	C	0.873747	0.491952	0.878300
	C136	C	0.118028	0.878944	0.509176
	C137	C	0.117435	0.121638	0.491108
	C138	C	0.873119	0.122194	0.508184
	C139	C	0.874806	0.880403	0.491929
	C140	C	0.503185	0.121631	0.880251
	C141	C	0.487398	0.123828	0.124229
	C142	C	0.504212	0.879324	0.122050
	C143	C	0.485944	0.878335	0.878429
	C144	C	0.377148	0.885181	0.676940
	C145	C	0.614097	0.115234	0.678480
	C146	C	0.615439	0.884549	0.322732
	C147	C	0.377303	0.115082	0.325970
	C148	C	0.672550	0.379677	0.885090
	C149	C	0.672779	0.622716	0.114143
	C150	C	0.317917	0.620905	0.884612
	C151	C	0.316840	0.381127	0.114349
	C152	C	0.880933	0.678676	0.381036
	C153	C	0.109084	0.678323	0.619653
	C154	C	0.881130	0.324177	0.618932
	C155	C	0.107857	0.320203	0.376014
	C156	C	0.880832	0.381965	0.676498
	C157	C	0.108949	0.620821	0.676738
	C158	C	0.880593	0.620527	0.323230
	C159	C	0.108405	0.378564	0.319731
	C160	C	0.375627	0.677772	0.884694
	C161	C	0.612655	0.677830	0.115294
	C162	C	0.615991	0.321752	0.885986
	C163	C	0.376682	0.326672	0.116244
	C164	C	0.674047	0.884922	0.379027
	C165	C	0.672527	0.114926	0.621895
	C166	C	0.317922	0.886134	0.621521
	C167	C	0.318286	0.114269	0.381024
	C168	C	0.875546	0.384890	0.175083
	C169	C	0.114014	0.615054	0.177127
	C170	C	0.114522	0.385345	0.820732
	C171	C	0.877276	0.616414	0.825379
	C172	C	0.174559	0.878557	0.385851
	C173	C	0.171716	0.121850	0.614795
	C174	C	0.817446	0.119832	0.384914
	C175	C	0.818291	0.881665	0.615390
	C176	C	0.380953	0.178030	0.883178
	C177	C	0.609876	0.178324	0.121090
	C178	C	0.381674	0.824689	0.120935
	C179	C	0.608290	0.821951	0.879454
	C180	C	0.382008	0.881911	0.178131
	C181	C	0.610048	0.120546	0.178658
	C182	C	0.380823	0.120178	0.825207
	C183	C	0.608730	0.880094	0.823151
	C184	C	0.876369	0.175950	0.383706
	C185	C	0.112870	0.178170	0.614542
	C186	C	0.115525	0.822941	0.385341
	C187	C	0.877446	0.826720	0.616326
	C188	C	0.173631	0.385586	0.876833
	C189	C	0.172047	0.615131	0.120134
	C190	C	0.816832	0.385846	0.118988
	C191	C	0.818178	0.615586	0.880637
	C192	C	0.395783	0.095280	0.600782
	C193	C	0.596102	0.905111	0.599458
	C194	C	0.595306	0.094382	0.403073
	C195	C	0.397552	0.905327	0.402145
	C196	C	0.594877	0.403254	0.095363
	C197	C	0.594479	0.598483	0.905037
	C198	C	0.394564	0.600348	0.094663
	C199	C	0.397889	0.401514	0.905404
	C200	C	0.088452	0.598879	0.400046
	C201	C	0.900736	0.602076	0.600587
	C202	C	0.088560	0.401369	0.597222
	C203	C	0.900916	0.400837	0.399075
	C204	C	0.895729	0.595010	0.098361
	C205	C	0.094211	0.406079	0.095771
	C206	C	0.095643	0.595472	0.899850
	C207	C	0.895588	0.405605	0.899874
	C208	C	0.095352	0.902013	0.595804
	C209	C	0.095827	0.096928	0.404913
	C210	C	0.895761	0.100066	0.594648
	C211	C	0.897157	0.902099	0.405291
	C212	C	0.588337	0.098363	0.902741
	C213	C	0.401620	0.102211	0.102492
	C214	C	0.589859	0.901043	0.099075
	C215	C	0.400290	0.901397	0.901032
	Zn216	Zn	0.495098	0.000019	0.750307
	Zn217	Zn	0.496030	0.000012	0.251497
	Zn218	Zn	0.744736	0.500655	-0.000944
	Zn219	Zn	0.245854	0.500336	-0.001306
	Zn220	Zn	-0.004899	0.751971	0.500632
	Zn221	Zn	-0.004980	0.249970	0.498129
	Zn222	Zn	-0.005202	0.501294	0.750053
	Zn223	Zn	-0.005216	0.499636	0.248237
	Zn224	Zn	0.494404	0.750835	0.000214
	Zn225	Zn	0.495392	0.252031	0.001928
	Zn226	Zn	0.746033	0.000088	0.500364
	Zn227	Zn	0.246114	0.000083	0.500714
	N228	N	0.410931	0.962792	0.678145
	N229	N	0.580724	0.037417	0.678933
	N230	N	0.581143	0.962356	0.322694
	N231	N	0.411938	0.037598	0.324982
	N232	N	0.673664	0.414776	0.962735
	N233	N	0.674860	0.588669	0.036179
	N234	N	0.316061	0.587326	0.962388
	N235	N	0.315671	0.413399	0.035907
	N236	N	0.958080	0.679888	0.414491
	N237	N	0.031812	0.680079	0.586186
	N238	N	0.958072	0.322811	0.584350
	N239	N	0.030925	0.319494	0.410372
	N240	N	0.957752	0.415920	0.677357
	N241	N	0.031702	0.587773	0.678731
	N242	N	0.957586	0.585963	0.321248
	N243	N	0.031842	0.413886	0.319731
	N244	N	0.409425	0.678805	0.962589
	N245	N	0.578339	0.677759	0.037693
	N246	N	0.582487	0.321316	0.964320
	N247	N	0.412197	0.325779	0.038898
	N248	N	0.675665	0.962942	0.413109
	N249	N	0.675011	0.036900	0.587756
	N250	N	0.315699	0.964318	0.588629
	N251	N	0.316590	0.036185	0.413819
	N252	N	0.909677	0.462352	0.176591
	N253	N	0.080013	0.537573	0.176898
	N254	N	0.080766	0.463231	0.820410
	N255	N	0.911044	0.538440	0.823656
	N256	N	0.176152	0.912500	0.464077
	N257	N	0.174674	0.087469	0.536756
	N258	N	0.815599	0.087180	0.463282
	N259	N	0.816661	0.914309	0.537123
	N260	N	0.458166	0.179118	0.916633
	N261	N	0.532536	0.180629	0.088190
	N262	N	0.458734	0.822901	0.086690
	N263	N	0.530924	0.820702	0.913100
	N264	N	0.459247	0.915274	0.178833
	N265	N	0.532801	0.087363	0.180777
	N266	N	0.457865	0.086062	0.823175
	N267	N	0.531693	0.914459	0.822226
	N268	N	0.910238	0.177591	0.461527
	N269	N	0.079926	0.177945	0.536357
	N270	N	0.081066	0.823049	0.463159
	N271	N	0.911898	0.825726	0.538471
	N272	N	0.175890	0.463689	0.910763
	N273	N	0.173671	0.537562	0.085109
	N274	N	0.815253	0.464102	0.086111
	N275	N	0.815931	0.537240	0.912858
	O276	O	-0.039225	-0.067642	-0.030419
	H277	H	-0.033437	-0.067445	-0.025921
	H278	H	-0.039333	-0.068990	-0.037856
	O279	O	0.540560	0.533231	0.488320
	H280	H	0.539462	0.538869	0.497135
	H281	H	0.540197	0.523828	0.479836
	O282	O	0.537074	0.440564	0.500356
	H283	H	0.531795	0.432704	0.498076
	H284	H	0.536284	0.434467	0.510431
	O285	O	0.504581	1.565927	0.515302
	H286	H	0.513010	1.563709	0.505844
	H287	H	0.518884	1.561667	0.522064
	O288	O	0.503161	0.408607	0.532707
	H289	H	0.514487	0.409541	0.532291
	H290	H	0.502738	0.417892	0.538130
	O291	O	0.978823	1.067580	0.979429
	H292	H	0.980866	1.071510	0.972778
	H293	H	0.978341	1.061696	0.980892
	O294	O	0.961703	0.962971	0.928604
	H295	H	0.969651	0.958132	0.938342
	H296	H	0.945061	0.962409	0.930421
	O297	O	1.065230	-0.047082	1.065819
	H298	H	1.067560	-0.049065	1.066130
	H299	H	1.064037	-0.045044	1.079671
	O300	O	0.540595	0.563950	0.433929
	H301	H	0.550649	0.572930	0.429742
	H302	H	0.550289	0.560812	0.438411
	O303	O	0.952840	0.068059	0.016222
	H304	H	0.946487	0.066647	0.015192
	H305	H	0.953876	0.054752	0.018927
	O306	O	0.015295	1.058611	0.971317
	H307	H	0.011309	1.061568	0.976183
	H308	H	0.016643	1.064659	0.968021
	O309	O	0.583496	0.580501	0.390394
	H310	H	0.578960	0.568274	0.392074
	H311	H	0.593544	0.580996	0.379711
	O312	O	0.976444	0.069791	0.963088
	H313	H	0.973724	0.080937	0.962527
	H314	H	0.972820	0.067826	0.965001
	O315	O	0.496490	0.565395	0.522075
	H316	H	0.502993	0.578354	0.521325
	H317	H	0.500948	0.566404	0.517260
	O318	O	0.377756	0.542512	0.435115
	H319	H	0.384028	0.542529	0.422318
	H320	H	0.375086	0.546005	0.426538
	O321	O	1.004277	1.034473	1.030878
	H322	H	0.999148	1.029115	1.027682
	H323	H	1.008961	1.039270	1.037873
	O324	O	0.354362	0.421930	0.422431
	H325	H	0.345692	0.416491	0.434950
	H326	H	0.354838	0.419058	0.431087
	O327	O	0.641832	0.416690	0.538476
	H328	H	0.645261	0.401211	0.538773
	H329	H	0.634459	0.407692	0.543725
	O330	O	0.993729	-0.027696	1.035576
	H331	H	0.997791	-0.045919	1.027634
	H332	H	0.992081	-0.028767	1.022593
	O333	O	1.050315	0.919110	-0.052578
	H334	H	1.050164	0.913649	-0.060015
	H335	H	1.055587	0.924716	-0.058116
	O336	O	0.393819	0.539504	0.512471
	H337	H	0.401790	0.528861	0.506162
	H338	H	0.387320	0.545060	0.503926
	O339	O	0.408459	0.497756	0.621294
	H340	H	0.391784	0.492590	0.619320
	H341	H	0.405332	0.514252	0.621497
	O342	O	0.017047	0.974319	0.029162
	H343	H	0.022381	0.973553	0.024195
	H344	H	0.015840	0.964785	0.027891
	O345	O	-0.007503	-0.045854	0.020350
	H346	H	-0.008774	-0.040210	0.026793
	H347	H	-0.017166	-0.050618	0.021606
	O348	O	0.571650	0.415223	0.511075
	H349	H	0.565452	0.414805	0.516667
	H350	H	0.569134	0.419331	0.500328
	O351	O	0.439309	0.351464	0.530041
	H352	H	0.436941	0.357950	0.526793
	H353	H	0.434887	0.348519	0.542189
	O354	O	0.398932	0.606737	0.508280
	H355	H	0.387688	0.613879	0.507414
	H356	H	0.402255	0.595824	0.493930
	O357	O	0.400876	0.423387	0.454372
	H358	H	0.390613	0.427984	0.471003
	H359	H	0.392241	0.420742	0.453563
	O360	O	-0.008539	-0.051900	-0.029105
	H361	H	-0.008234	-0.034327	-0.034437
	H362	H	-0.000866	-0.051045	-0.018538
	O363	O	0.479551	0.348787	0.542035
	H364	H	0.488601	0.347059	0.533614
	H365	H	0.471829	0.358022	0.553509
	O366	O	0.017514	0.032758	0.995756
	H367	H	0.027893	0.022339	0.994879
	H368	H	0.013519	0.039664	0.999580
	O369	O	0.531164	0.576147	0.479488
	H370	H	0.536379	0.573755	0.491724
	H371	H	0.524438	0.572566	0.470465
