data_Molecule from HDF5

_cell_length_a		16.266967
_cell_length_b		16.223366
_cell_length_c		16.283744
_cell_angle_alpha	90.208188
_cell_angle_beta	89.834015
_cell_angle_gamma	89.816729
_symmetry_space_group_name_H-M	'P 1'
_symmetry_Int_Tables_number		1

loop_
	_symmetry_equiv_pos_as_xyz
	x,y,z

loop_
	_atom_site_label
	_atom_site_type_symbol
	_atom_site_fract_x
	_atom_site_fract_y
	_atom_site_fract_z
	H0	H	0.389442	0.837390	0.710924
	H1	H	0.587810	0.165609	0.713883
	H2	H	0.587913	0.837897	0.282814
	H3	H	0.390028	0.166393	0.284258
	H4	H	0.706098	0.399587	0.835877
	H5	H	0.702004	0.601383	0.161970
	H6	H	0.275383	0.599454	0.833733
	H7	H	0.274780	0.404692	0.161990
	H8	H	0.825898	0.716936	0.401433
	H9	H	0.153873	0.716468	0.596676
	H10	H	0.825286	0.289402	0.598179
	H11	H	0.152712	0.286788	0.399633
	H12	H	0.826035	0.404087	0.715294
	H13	H	0.153341	0.601544	0.713581
	H14	H	0.826157	0.604719	0.283281
	H15	H	0.152673	0.401494	0.283055
	H16	H	0.390922	0.715169	0.833752
	H17	H	0.585148	0.716707	0.161499
	H18	H	0.587829	0.287142	0.834039
	H19	H	0.390107	0.288310	0.161649
	H20	H	0.704412	0.838491	0.397379
	H21	H	0.701113	0.166546	0.596249
	H22	H	0.274126	0.838345	0.596021
	H23	H	0.274433	0.166817	0.399688
	H24	H	0.889604	0.338321	0.214489
	H25	H	0.086923	0.666712	0.212748
	H26	H	0.089653	0.338446	0.783250
	H27	H	0.890233	0.666687	0.786308
	H28	H	0.202967	0.902927	0.334236
	H29	H	0.203780	0.102276	0.661707
	H30	H	0.774990	0.100588	0.333871
	H31	H	0.772836	0.904789	0.661411
	H32	H	0.325321	0.215900	0.900489
	H33	H	0.653645	0.214635	0.094775
	H34	H	0.324084	0.791221	0.093188
	H35	H	0.652428	0.786149	0.897447
	H36	H	0.325005	0.903378	0.212184
	H37	H	0.653024	0.099817	0.212144
	H38	H	0.325274	0.099795	0.783612
	H39	H	0.651774	0.899965	0.780412
	H40	H	0.890670	0.218262	0.334872
	H41	H	0.086523	0.216419	0.662686
	H42	H	0.088232	0.786193	0.335117
	H43	H	0.891341	0.790178	0.662804
	H44	H	0.202783	0.337926	0.900312
	H45	H	0.202799	0.666148	0.096664
	H46	H	0.774408	0.337535	0.097687
	H47	H	0.774099	0.665794	0.901722
	H48	H	0.405941	0.114997	0.589303
	H49	H	0.580348	0.886544	0.586492
	H50	H	0.598035	0.123631	0.406212
	H51	H	0.390998	0.883424	0.403932
	H52	H	0.578889	0.411857	0.113439
	H53	H	0.589556	0.584942	0.881896
	H54	H	0.398386	0.593944	0.112166
	H55	H	0.390488	0.403086	0.878455
	H56	H	0.107835	0.595017	0.400764
	H57	H	0.875446	0.594397	0.584807
	H58	H	0.105152	0.408006	0.587394
	H59	H	0.876643	0.418261	0.410937
	H60	H	0.105030	0.413946	0.592568
	H61	H	0.872987	0.589731	0.600708
	H62	H	0.105702	0.596861	0.409991
	H63	H	0.870875	0.412151	0.397293
	H64	H	0.395590	0.600910	0.115689
	H65	H	0.572358	0.591007	0.885096
	H66	H	0.579336	0.404725	0.115743
	H67	H	0.394771	0.416585	0.883145
	H68	H	0.572307	0.121740	0.389497
	H69	H	0.583441	0.884623	0.589266
	H70	H	0.389521	0.118769	0.584423
	H71	H	0.398062	0.885301	0.400587
	H72	H	0.904824	0.616192	0.094810
	H73	H	0.085299	0.383359	0.093836
	H74	H	0.084541	0.620443	0.904029
	H75	H	0.902073	0.385163	0.901598
	H76	H	0.081999	0.917626	0.612612
	H77	H	0.088887	0.097355	0.379196
	H78	H	0.890371	0.091924	0.614637
	H79	H	0.887284	0.922630	0.383949
	H80	H	0.608253	0.099857	0.904369
	H81	H	0.372671	0.092553	0.095541
	H82	H	0.606966	0.907375	0.093746
	H83	H	0.369992	0.899080	0.908065
	H84	H	0.605828	0.906085	0.087666
	H85	H	0.370785	0.100449	0.092239
	H86	H	0.603428	0.089822	0.910096
	H87	H	0.376093	0.916019	0.910768
	H88	H	0.900127	0.096479	0.612648
	H89	H	0.081478	0.088068	0.383968
	H90	H	0.076056	0.903577	0.615405
	H91	H	0.913228	0.910583	0.386915
	H92	H	0.079602	0.619141	0.904865
	H93	H	0.078026	0.386242	0.092127
	H94	H	0.891811	0.616614	0.082542
	H95	H	0.898872	0.387227	0.911952
	H96	H	0.394596	0.121916	0.599513
	H97	H	0.579483	0.885596	0.589864
	H98	H	0.572515	0.111979	0.419448
	H99	H	0.397684	0.886471	0.408088
	H100	H	0.585501	0.409200	0.115713
	H101	H	0.584385	0.602379	0.877754
	H102	H	0.391018	0.594177	0.115003
	H103	H	0.404387	0.404805	0.883205
	H104	H	0.103531	0.588546	0.406896
	H105	H	0.869658	0.605972	0.595977
	H106	H	0.108101	0.406643	0.594779
	H107	H	0.871169	0.403039	0.410751
	H108	H	0.888663	0.623414	0.099474
	H109	H	0.082874	0.386518	0.086551
	H110	H	0.082604	0.618962	0.909440
	H111	H	0.891733	0.382670	0.904482
	H112	H	0.091057	0.906624	0.618451
	H113	H	0.076412	0.099946	0.381985
	H114	H	0.891679	0.102223	0.617267
	H115	H	0.891478	0.895812	0.376135
	H116	H	0.606157	0.089859	0.898747
	H117	H	0.374141	0.093883	0.087411
	H118	H	0.604512	0.911613	0.089768
	H119	H	0.369610	0.910835	0.893778
	C120	C	0.367593	0.010365	0.619229
	C121	C	0.609747	0.993779	0.618210
	C122	C	0.610179	0.010677	0.376171
	C123	C	0.367058	0.993586	0.375919
	C124	C	0.610414	0.379719	0.006905
	C125	C	0.609547	0.622541	0.989949
	C126	C	0.366770	0.624276	0.006174
	C127	C	0.367781	0.380547	0.989655
	C128	C	-0.002365	0.623379	0.377264
	C129	C	0.981085	0.624707	0.621461
	C130	C	-0.002090	0.381685	0.620328
	C131	C	0.980768	0.380798	0.376863
	C132	C	0.866478	0.510319	0.121086
	C133	C	0.110469	0.493620	0.119903
	C134	C	0.111291	0.511175	0.876785
	C135	C	0.867993	0.493538	0.877827
	C136	C	0.110972	0.880594	0.506935
	C137	C	0.110468	0.123847	0.490065
	C138	C	0.866099	0.125211	0.506637
	C139	C	0.867732	0.881418	0.490233
	C140	C	0.497613	0.122289	0.876056
	C141	C	0.480865	0.123637	0.119749
	C142	C	0.497310	0.880240	0.118933
	C143	C	0.480132	0.879178	0.874916
	C144	C	0.369381	0.886806	0.673737
	C145	C	0.607747	0.116834	0.675217
	C146	C	0.608350	0.886956	0.320798
	C147	C	0.369600	0.117482	0.321697
	C148	C	0.667340	0.380334	0.884299
	C149	C	0.664093	0.621233	0.112984
	C150	C	0.312523	0.620433	0.882897
	C151	C	0.312485	0.383955	0.112985
	C152	C	0.874576	0.679065	0.380718
	C153	C	0.104918	0.678997	0.617629
	C154	C	0.874151	0.327026	0.618457
	C155	C	0.103903	0.324886	0.379037
	C156	C	0.874634	0.384079	0.676558
	C157	C	0.104567	0.622131	0.675880
	C158	C	0.874829	0.623078	0.322027
	C159	C	0.103747	0.381914	0.320989
	C160	C	0.370051	0.677907	0.882531
	C161	C	0.606107	0.678578	0.112805
	C162	C	0.608606	0.324305	0.883407
	C163	C	0.369869	0.326033	0.112841
	C164	C	0.666517	0.887370	0.377506
	C165	C	0.663959	0.117525	0.616508
	C166	C	0.312240	0.887184	0.616380
	C167	C	0.311920	0.117377	0.379041
	C168	C	0.869366	0.387039	0.176118
	C169	C	0.107827	0.617339	0.175089
	C170	C	0.109425	0.387499	0.821309
	C171	C	0.870439	0.617517	0.824128
	C172	C	0.165411	0.882705	0.383272
	C173	C	0.165772	0.122065	0.613077
	C174	C	0.812056	0.122024	0.383075
	C175	C	0.811936	0.884831	0.613111
	C176	C	0.374362	0.178151	0.879572
	C177	C	0.604664	0.177324	0.116344
	C178	C	0.373535	0.827049	0.115246
	C179	C	0.603406	0.823471	0.876932
	C180	C	0.373998	0.883348	0.174197
	C181	C	0.604083	0.120668	0.174704
	C182	C	0.374199	0.120443	0.821509
	C183	C	0.603122	0.879963	0.818803
	C184	C	0.869633	0.180131	0.383501
	C185	C	0.107202	0.178819	0.613677
	C186	C	0.108746	0.824415	0.383777
	C187	C	0.870138	0.827226	0.613540
	C188	C	0.165749	0.387030	0.879178
	C189	C	0.165020	0.617239	0.117249
	C190	C	0.811714	0.386891	0.118461
	C191	C	0.812215	0.616952	0.881021
	C192	C	0.390115	0.096316	0.597517
	C193	C	0.587614	0.907781	0.595271
	C194	C	0.587653	0.096781	0.398642
	C195	C	0.389153	0.907211	0.397640
	C196	C	0.587806	0.402175	0.092772
	C197	C	0.588096	0.599603	0.903946
	C198	C	0.388599	0.602921	0.092113
	C199	C	0.389894	0.401968	0.903776
	C200	C	0.083621	0.600170	0.399354
	C201	C	0.895083	0.603025	0.600212
	C202	C	0.083781	0.403194	0.598025
	C203	C	0.895120	0.404128	0.399641
	C204	C	0.888491	0.596440	0.098894
	C205	C	0.088298	0.407519	0.097468
	C206	C	0.088965	0.597280	0.899407
	C207	C	0.890812	0.407060	0.899646
	C208	C	0.089440	0.902688	0.593105
	C209	C	0.088598	0.101712	0.403984
	C210	C	0.887708	0.103336	0.592650
	C211	C	0.890602	0.903276	0.404251
	C212	C	0.583652	0.099657	0.897758
	C213	C	0.394769	0.101905	0.098128
	C214	C	0.583578	0.901946	0.096888
	C215	C	0.394236	0.901995	0.897470
	Zn216	Zn	0.488835	0.000816	0.747429
	Zn217	Zn	0.488969	0.002151	0.247720
	Zn218	Zn	0.738540	0.500758	-0.001671
	Zn219	Zn	0.238753	0.501838	-0.002344
	Zn220	Zn	-0.010465	0.752003	0.498701
	Zn221	Zn	-0.011010	0.252620	0.498922
	Zn222	Zn	-0.010177	0.502446	0.749365
	Zn223	Zn	-0.011102	0.502646	0.248765
	Zn224	Zn	0.488499	0.751989	-0.002930
	Zn225	Zn	0.489719	0.251365	-0.001793
	Zn226	Zn	0.738304	0.002731	0.497566
	Zn227	Zn	0.239241	0.002478	0.497826
	N228	N	0.403335	0.964368	0.675613
	N229	N	0.574626	0.038725	0.676336
	N230	N	0.574129	0.964515	0.319798
	N231	N	0.403157	0.039524	0.319567
	N232	N	0.668615	0.414032	0.962024
	N233	N	0.666362	0.587245	0.035506
	N234	N	0.310205	0.587851	0.960816
	N235	N	0.310929	0.417165	0.035346
	N236	N	0.952077	0.679578	0.414300
	N237	N	0.027035	0.680937	0.584593
	N238	N	0.951579	0.325521	0.583874
	N239	N	0.026503	0.324170	0.413203
	N240	N	0.952351	0.417236	0.677856
	N241	N	0.026768	0.589145	0.678372
	N242	N	0.952405	0.589161	0.319939
	N243	N	0.026159	0.416052	0.319550
	N244	N	0.403026	0.680455	0.960071
	N245	N	0.572830	0.679526	0.035089
	N246	N	0.573885	0.323758	0.960586
	N247	N	0.403558	0.323720	0.035305
	N248	N	0.667728	0.965336	0.411234
	N249	N	0.665284	0.040138	0.581848
	N250	N	0.311036	0.964915	0.582937
	N251	N	0.310378	0.039475	0.412143
	N252	N	0.902633	0.464952	0.177958
	N253	N	0.074657	0.539526	0.176840
	N254	N	0.076108	0.465591	0.819934
	N255	N	0.904263	0.539558	0.821846
	N256	N	0.166954	0.916980	0.460564
	N257	N	0.167717	0.088633	0.535325
	N258	N	0.809776	0.088707	0.460618
	N259	N	0.810432	0.917548	0.535304
	N260	N	0.452139	0.179249	0.912855
	N261	N	0.527144	0.179353	0.083023
	N262	N	0.451023	0.825336	0.081388
	N263	N	0.525820	0.822571	0.910792
	N264	N	0.452156	0.915699	0.176445
	N265	N	0.526097	0.087854	0.176687
	N266	N	0.451760	0.086603	0.819223
	N267	N	0.525496	0.913927	0.817466
	N268	N	0.902471	0.182168	0.461299
	N269	N	0.073631	0.180108	0.536045
	N270	N	0.075629	0.822936	0.461649
	N271	N	0.904216	0.825089	0.536157
	N272	N	0.167288	0.464894	0.912823
	N273	N	0.167066	0.539151	0.083624
	N274	N	0.810045	0.464560	0.084816
	N275	N	0.810838	0.538792	0.913714
	O276	O	0.478437	0.530047	0.579817
	H277	H	0.479020	0.534338	0.574759
	H278	H	0.484528	0.525209	0.579854
	O279	O	0.519928	0.557645	0.447703
	H280	H	0.513530	0.557273	0.434690
	H281	H	0.542210	0.571434	0.451624
	O282	O	0.495121	0.542731	0.519620
	H283	H	0.495380	0.550771	0.509114
	H284	H	0.488778	0.525056	0.533227
	O285	O	0.017641	1.002695	1.012484
	H286	H	0.015426	1.005895	1.008228
	H287	H	0.013860	1.007179	1.014441
	O288	O	0.492218	0.540499	0.445637
	H289	H	0.488088	0.559809	0.439733
	H290	H	0.501800	0.533350	0.455123
	O291	O	0.452743	0.497027	1.566209
	H292	H	0.457185	0.491489	1.573015
	H293	H	0.453730	0.503255	1.576103
	O294	O	0.565667	0.478520	0.481603
	H295	H	0.571008	0.473187	0.466672
	H296	H	0.570426	0.464281	0.487956
	O297	O	0.535433	0.584147	0.546611
	H298	H	0.540924	0.586087	0.543047
	H299	H	0.531674	0.582177	0.560216
	O300	O	0.486146	0.456707	0.430440
	H301	H	0.481306	0.463242	0.446868
	H302	H	0.497150	0.455734	0.435996
	O303	O	0.449009	0.507488	0.495584
	H304	H	0.450675	0.512983	0.492244
	H305	H	0.440027	0.507536	0.488122
	O306	O	1.036657	-0.036156	1.035528
	H307	H	1.032606	-0.041470	1.034145
	H308	H	1.035458	-0.037852	1.041384
	O309	O	0.457143	0.520327	0.613367
	H310	H	0.460755	0.534185	0.617735
	H311	H	0.457609	0.521155	0.615999
	O312	O	0.466651	0.415748	0.420011
	H313	H	0.456292	0.417918	0.419981
	H314	H	0.466069	0.399595	0.425819
	O315	O	1.028427	0.017351	0.985940
	H316	H	1.020216	0.025260	0.979961
	H317	H	1.043011	0.016052	0.982886
	O318	O	0.503559	-0.495523	-0.566642
	H319	H	0.496181	-0.504359	-0.567370
	H320	H	0.504925	-0.482881	-0.578196
	O321	O	0.473577	0.561150	0.432451
	H322	H	0.482045	0.553942	0.419173
	H323	H	0.480246	0.555166	0.435663
	O324	O	1.063815	-0.024544	0.002448
	H325	H	1.064651	-0.030554	0.000507
	H326	H	1.066476	-0.027100	0.005081
	O327	O	1.051661	0.982739	0.017083
	H328	H	1.060107	0.978547	0.019443
	H329	H	1.051903	0.984071	0.017732
	O330	O	0.544921	0.456616	0.513281
	H331	H	0.546448	0.472437	0.512321
	H332	H	0.538634	0.451341	0.497941
	O333	O	0.612878	0.462759	0.550338
	H334	H	0.610519	0.455263	0.557466
	H335	H	0.602072	0.464734	0.536309
