data_Molecule from HDF5

_cell_length_a		16.199681
_cell_length_b		16.157206
_cell_length_c		16.343871
_cell_angle_alpha	89.170182
_cell_angle_beta	89.760034
_cell_angle_gamma	89.836766
_symmetry_space_group_name_H-M	'P 1'
_symmetry_Int_Tables_number		1

loop_
	_symmetry_equiv_pos_as_xyz
	x,y,z

loop_
	_atom_site_label
	_atom_site_type_symbol
	_atom_site_fract_x
	_atom_site_fract_y
	_atom_site_fract_z
	H0	H	0.404323	0.839877	0.717587
	H1	H	0.604564	0.168024	0.710841
	H2	H	0.605650	0.838726	0.287315
	H3	H	0.405425	0.166756	0.280085
	H4	H	0.724631	0.405130	0.836537
	H5	H	0.718811	0.597525	0.162595
	H6	H	0.291440	0.605934	0.835074
	H7	H	0.291031	0.401652	0.162448
	H8	H	0.840338	0.720232	0.399571
	H9	H	0.170856	0.715242	0.591110
	H10	H	0.840596	0.290047	0.599619
	H11	H	0.170333	0.293719	0.403597
	H12	H	0.842705	0.402021	0.718082
	H13	H	0.169899	0.603854	0.710957
	H14	H	0.841027	0.608165	0.282013
	H15	H	0.168855	0.406238	0.284707
	H16	H	0.408258	0.721567	0.835482
	H17	H	0.602766	0.713239	0.163089
	H18	H	0.603986	0.292309	0.833986
	H19	H	0.407678	0.286256	0.161417
	H20	H	0.720259	0.839238	0.402182
	H21	H	0.718368	0.168720	0.593932
	H22	H	0.292395	0.838708	0.599171
	H23	H	0.295107	0.170224	0.399556
	H24	H	0.905400	0.341099	0.216888
	H25	H	0.104214	0.669307	0.209503
	H26	H	0.107736	0.339460	0.785869
	H27	H	0.905289	0.667835	0.780594
	H28	H	0.222213	0.909728	0.334933
	H29	H	0.220980	0.102191	0.661263
	H30	H	0.790385	0.106916	0.334713
	H31	H	0.789853	0.903081	0.661122
	H32	H	0.340527	0.220115	0.898739
	H33	H	0.670991	0.213681	0.092927
	H34	H	0.340402	0.788210	0.099342
	H35	H	0.670954	0.790724	0.903621
	H36	H	0.341667	0.900856	0.217655
	H37	H	0.669846	0.099999	0.211398
	H38	H	0.340945	0.104804	0.783371
	H39	H	0.668720	0.901528	0.782907
	H40	H	0.907123	0.222869	0.335318
	H41	H	0.102283	0.215293	0.662815
	H42	H	0.104627	0.793809	0.333378
	H43	H	0.908057	0.788443	0.661102
	H44	H	0.220372	0.339001	0.902322
	H45	H	0.217483	0.669691	0.092174
	H46	H	0.794987	0.338635	0.099776
	H47	H	0.793658	0.669193	0.899263
	H48	H	0.407975	0.124242	0.595445
	H49	H	0.596926	0.887740	0.588199
	H50	H	0.593197	0.119479	0.403998
	H51	H	0.409277	0.885869	0.412320
	H52	H	0.594189	0.411125	0.111872
	H53	H	0.602013	0.595155	0.882606
	H54	H	0.413185	0.598377	0.115594
	H55	H	0.416054	0.415141	0.883597
	H56	H	0.123778	0.604985	0.404453
	H57	H	0.885326	0.601055	0.593598
	H58	H	0.119760	0.415783	0.589070
	H59	H	0.889987	0.419351	0.411962
	H60	H	0.125109	0.411418	0.598276
	H61	H	0.890409	0.595223	0.584723
	H62	H	0.120436	0.594241	0.406064
	H63	H	0.885760	0.416390	0.399001
	H64	H	0.405879	0.594601	0.116381
	H65	H	0.596427	0.597100	0.884029
	H66	H	0.599099	0.398940	0.117597
	H67	H	0.412398	0.408717	0.881058
	H68	H	0.602228	0.122339	0.405446
	H69	H	0.601081	0.885495	0.594946
	H70	H	0.420077	0.121009	0.593933
	H71	H	0.412550	0.884114	0.403259
	H72	H	0.908897	0.623127	0.088024
	H73	H	0.096421	0.385175	0.099578
	H74	H	0.096540	0.623581	0.893367
	H75	H	0.909882	0.388825	0.919554
	H76	H	0.096876	0.903590	0.615480
	H77	H	0.098946	0.099480	0.383003
	H78	H	0.913237	0.098877	0.614535
	H79	H	0.907417	0.905504	0.377566
	H80	H	0.619555	0.088012	0.904439
	H81	H	0.388615	0.092633	0.091223
	H82	H	0.625535	0.909501	0.103145
	H83	H	0.395786	0.927851	0.916605
	H84	H	0.624486	0.899816	0.090559
	H85	H	0.387787	0.094885	0.091928
	H86	H	0.625898	0.098916	0.895354
	H87	H	0.382377	0.912996	0.888404
	H88	H	0.906674	0.094835	0.614994
	H89	H	0.099426	0.101655	0.381649
	H90	H	0.104399	0.909879	0.615389
	H91	H	0.905884	0.921365	0.382444
	H92	H	0.091203	0.617449	0.907407
	H93	H	0.094514	0.388177	0.091193
	H94	H	0.911645	0.623690	0.092799
	H95	H	0.908701	0.381781	0.898472
	H96	H	0.410859	0.119358	0.583952
	H97	H	0.593084	0.886057	0.594554
	H98	H	0.597406	0.123453	0.396469
	H99	H	0.419040	0.887850	0.409203
	H100	H	0.607015	0.409821	0.115135
	H101	H	0.600271	0.601385	0.881346
	H102	H	0.413132	0.590919	0.113121
	H103	H	0.409095	0.414661	0.881427
	H104	H	0.124575	0.597645	0.396191
	H105	H	0.889176	0.589307	0.594762
	H106	H	0.123571	0.404640	0.589024
	H107	H	0.886319	0.406216	0.409042
	H108	H	0.913904	0.621849	0.088979
	H109	H	0.103233	0.384959	0.092971
	H110	H	0.106423	0.623356	0.906500
	H111	H	0.928213	0.389591	0.906789
	H112	H	0.096431	0.912995	0.611873
	H113	H	0.102086	0.100364	0.382259
	H114	H	0.913840	0.091631	0.611883
	H115	H	0.921206	0.913069	0.383497
	H116	H	0.622236	0.102079	0.909304
	H117	H	0.388913	0.095279	0.088870
	H118	H	0.618754	0.914905	0.089654
	H119	H	0.386015	0.894916	0.917549
	C120	C	0.383886	0.012810	0.621193
	C121	C	0.626064	0.995271	0.619574
	C122	C	0.626495	0.012421	0.376235
	C123	C	0.384860	0.994954	0.377710
	C124	C	0.628940	0.380069	0.007088
	C125	C	0.627161	0.624246	0.990935
	C126	C	0.383030	0.625569	0.006947
	C127	C	0.383714	0.381818	0.990107
	C128	C	0.014118	0.628184	0.374293
	C129	C	0.997078	0.623993	0.618158
	C130	C	0.014353	0.381216	0.622246
	C131	C	0.995932	0.384980	0.378422
	C132	C	0.883844	0.513527	0.120392
	C133	C	0.126509	0.495745	0.120078
	C134	C	0.128096	0.512751	0.875736
	C135	C	0.885677	0.495373	0.877514
	C136	C	0.127942	0.882573	0.506224
	C137	C	0.127822	0.127032	0.490133
	C138	C	0.882973	0.126156	0.506383
	C139	C	0.882640	0.882703	0.489153
	C140	C	0.513745	0.125879	0.875514
	C141	C	0.497299	0.122526	0.118245
	C142	C	0.513948	0.879310	0.123034
	C143	C	0.497017	0.882997	0.879158
	C144	C	0.384823	0.888819	0.678443
	C145	C	0.624503	0.118857	0.673561
	C146	C	0.625250	0.888013	0.324096
	C147	C	0.386129	0.118362	0.319645
	C148	C	0.685364	0.384082	0.884523
	C149	C	0.681438	0.619230	0.113897
	C150	C	0.329150	0.625326	0.883880
	C151	C	0.329032	0.382667	0.113347
	C152	C	0.889793	0.683100	0.378235
	C153	C	0.121572	0.678168	0.613080
	C154	C	0.890477	0.326462	0.620588
	C155	C	0.120542	0.330613	0.382055
	C156	C	0.891399	0.382498	0.679168
	C157	C	0.121007	0.622735	0.672516
	C158	C	0.890214	0.627221	0.319715
	C159	C	0.119907	0.386596	0.323044
	C160	C	0.387274	0.683127	0.884221
	C161	C	0.623671	0.676655	0.114074
	C162	C	0.625656	0.328128	0.883371
	C163	C	0.386669	0.324647	0.112915
	C164	C	0.682257	0.888431	0.381204
	C165	C	0.681075	0.119239	0.615365
	C166	C	0.329293	0.888386	0.619479
	C167	C	0.330922	0.120005	0.378679
	C168	C	0.885761	0.389930	0.178070
	C169	C	0.124182	0.620114	0.172365
	C170	C	0.126696	0.388726	0.823022
	C171	C	0.885993	0.618751	0.819618
	C172	C	0.183690	0.887944	0.383402
	C173	C	0.182566	0.122701	0.612928
	C174	C	0.828016	0.126198	0.383554
	C175	C	0.827888	0.883518	0.612343
	C176	C	0.389855	0.182259	0.878043
	C177	C	0.621608	0.176301	0.114116
	C178	C	0.389947	0.825029	0.120532
	C179	C	0.621424	0.828181	0.882381
	C180	C	0.390649	0.880837	0.179497
	C181	C	0.620973	0.120092	0.173078
	C182	C	0.389901	0.124570	0.821151
	C183	C	0.620295	0.883010	0.822241
	C184	C	0.885853	0.184021	0.384124
	C185	C	0.123889	0.179335	0.613487
	C186	C	0.124964	0.830665	0.382505
	C187	C	0.886232	0.826343	0.612186
	C188	C	0.183083	0.388433	0.880797
	C189	C	0.180916	0.620133	0.114255
	C190	C	0.830915	0.388536	0.119458
	C191	C	0.830149	0.619377	0.878455
	C192	C	0.406267	0.099240	0.598014
	C193	C	0.603570	0.908738	0.598782
	C194	C	0.604157	0.099282	0.396122
	C195	C	0.406971	0.908325	0.401391
	C196	C	0.606591	0.400398	0.092621
	C197	C	0.606051	0.604077	0.905151
	C198	C	0.404262	0.601525	0.092914
	C199	C	0.405990	0.405605	0.904393
	C200	C	0.100633	0.605624	0.395787
	C201	C	0.910712	0.601824	0.597247
	C202	C	0.100576	0.403763	0.598907
	C203	C	0.909553	0.407515	0.400316
	C204	C	0.905298	0.600327	0.096845
	C205	C	0.104516	0.408692	0.100334
	C206	C	0.105135	0.599304	0.896292
	C207	C	0.908804	0.409080	0.901359
	C208	C	0.105702	0.902664	0.592011
	C209	C	0.106392	0.106554	0.404517
	C210	C	0.904821	0.102169	0.591808
	C211	C	0.904694	0.906402	0.403410
	C212	C	0.600052	0.103270	0.896847
	C213	C	0.410828	0.100780	0.096978
	C214	C	0.600715	0.901499	0.100817
	C215	C	0.410675	0.905422	0.901076
	Zn216	Zn	0.505176	0.003839	0.748704
	Zn217	Zn	0.505194	0.002374	0.249072
	Zn218	Zn	0.757274	0.503240	-0.001174
	Zn219	Zn	0.254322	0.503373	-0.001611
	Zn220	Zn	0.005411	0.753656	0.497051
	Zn221	Zn	0.004965	0.255219	0.499238
	Zn222	Zn	0.006562	0.503442	0.748525
	Zn223	Zn	0.004709	0.505429	0.248140
	Zn224	Zn	0.505647	0.753513	-0.000074
	Zn225	Zn	0.505372	0.252480	-0.002371
	Zn226	Zn	0.753649	0.004428	0.497672
	Zn227	Zn	0.257095	0.004935	0.498547
	N228	N	0.417847	0.967155	0.679730
	N229	N	0.591123	0.040649	0.676495
	N230	N	0.591431	0.966063	0.320970
	N231	N	0.418710	0.039774	0.318988
	N232	N	0.687987	0.415340	0.962371
	N233	N	0.683937	0.587409	0.036276
	N234	N	0.326486	0.590422	0.961240
	N235	N	0.326933	0.417337	0.035846
	N236	N	0.967616	0.683878	0.411502
	N237	N	0.043605	0.679182	0.579814
	N238	N	0.968047	0.325644	0.585711
	N239	N	0.042415	0.329332	0.415585
	N240	N	0.969481	0.415588	0.680333
	N241	N	0.042747	0.589919	0.675871
	N242	N	0.968597	0.593741	0.317144
	N243	N	0.041528	0.419799	0.320828
	N244	N	0.419938	0.683298	0.961808
	N245	N	0.590225	0.679649	0.036846
	N246	N	0.591308	0.325433	0.960522
	N247	N	0.420243	0.324381	0.035423
	N248	N	0.683156	0.966905	0.412910
	N249	N	0.682108	0.041387	0.582599
	N250	N	0.328353	0.966595	0.584699
	N251	N	0.330219	0.042225	0.414341
	N252	N	0.918275	0.468540	0.178588
	N253	N	0.091117	0.541792	0.176092
	N254	N	0.093147	0.467089	0.819800
	N255	N	0.919822	0.540610	0.819072
	N256	N	0.185625	0.919301	0.461137
	N257	N	0.185099	0.090840	0.535343
	N258	N	0.825968	0.090876	0.460687
	N259	N	0.825863	0.917912	0.534719
	N260	N	0.467820	0.183234	0.911200
	N261	N	0.543683	0.177896	0.080743
	N262	N	0.467766	0.823848	0.086300
	N263	N	0.543927	0.828004	0.916911
	N264	N	0.468918	0.913758	0.181132
	N265	N	0.542755	0.087083	0.175537
	N266	N	0.467766	0.090322	0.819383
	N267	N	0.541910	0.916566	0.819999
	N268	N	0.919279	0.183981	0.461398
	N269	N	0.090416	0.182088	0.536290
	N270	N	0.090693	0.827235	0.459836
	N271	N	0.919923	0.825984	0.534783
	N272	N	0.184136	0.466596	0.912963
	N273	N	0.182279	0.541679	0.082418
	N274	N	0.829351	0.466552	0.084383
	N275	N	0.829993	0.541515	0.913930
	O276	O	-0.016716	0.058894	-0.060638
	H277	H	-0.007379	0.060407	-0.055858
	H278	H	-0.018272	0.061072	-0.065507
	O279	O	0.513019	0.543000	0.455649
	H280	H	0.507254	0.553378	0.454449
	H281	H	0.522445	0.539790	0.458615
	O282	O	0.534226	0.557459	0.542305
	H283	H	0.532433	0.560237	0.533586
	H284	H	0.538398	0.564072	0.537874
	O285	O	0.904374	-0.046651	0.995902
	H286	H	0.906818	-0.036149	0.994348
	H287	H	0.900248	-0.032818	0.990315
	O288	O	0.935048	-0.052011	0.002568
	H289	H	0.940387	-0.052495	-0.011119
	H290	H	0.938687	-0.059766	-0.000882
	O291	O	0.576412	0.541336	0.450773
	H292	H	0.565548	0.529374	0.449804
	H293	H	0.585911	0.539711	0.443483
	O294	O	1.001964	0.017122	0.997535
	H295	H	1.015595	0.011746	1.001146
	H296	H	0.996455	0.005415	1.000034
	O297	O	-0.028999	-0.002872	0.048743
	H298	H	-0.037468	-0.003012	0.048766
	H299	H	-0.026124	-0.007914	0.049634
	O300	O	0.436351	0.500439	0.517299
	H301	H	0.433027	0.502712	0.522914
	H302	H	0.434431	0.499184	0.516100
	O303	O	0.417620	0.537999	0.427946
	H304	H	0.411272	0.538659	0.427303
	H305	H	0.414808	0.530723	0.426853
	O306	O	0.989238	0.034783	-0.084136
	H307	H	0.992046	0.042036	-0.083231
	H308	H	0.977716	0.038690	-0.085449
	O309	O	0.027889	0.030153	0.982982
	H310	H	0.016045	0.034626	0.978809
	H311	H	0.019364	0.021697	0.970015
	O312	O	1.025347	1.014333	1.060851
	H313	H	1.026491	1.008446	1.056979
	H314	H	1.021367	1.009595	1.078612
	O315	O	0.483974	0.419093	0.578587
	H316	H	0.480229	0.418991	0.564456
	H317	H	0.494670	0.422980	0.579879
	O318	O	0.492252	0.464237	0.559679
	H319	H	0.502194	0.457221	0.557421
	H320	H	0.495084	0.464237	0.571870
	O321	O	0.051173	1.064452	1.011249
	H322	H	0.051189	1.065496	1.012069
	H323	H	0.045587	1.064870	1.014831
	O324	O	0.520461	0.488519	0.544142
	H325	H	0.531924	0.489639	0.541006
	H326	H	0.526688	0.491591	0.542688
	O327	O	0.484660	0.486256	0.560254
	H328	H	0.485751	0.486138	0.558377
	H329	H	0.490304	0.484438	0.557350
	O330	O	0.504979	0.427703	0.508679
	H331	H	0.502734	0.433188	0.517616
	H332	H	0.508107	0.423217	0.517050
	O333	O	0.416649	0.512364	0.504485
	H334	H	0.419402	0.518893	0.504051
	H335	H	0.405648	0.514070	0.510239
	O336	O	0.521751	0.517603	0.493799
	H337	H	0.519903	0.510290	0.503478
	H338	H	0.526559	0.531117	0.495205
	O339	O	1.024746	0.945207	-0.119648
	H340	H	1.021371	0.934896	-0.111951
	H341	H	1.023309	0.939410	-0.120243
	O342	O	0.463543	0.545439	0.365292
	H343	H	0.449879	0.545119	0.364417
	H344	H	0.443949	0.541495	0.361573
	O345	O	0.560993	0.498662	0.489295
	H346	H	0.553032	0.487046	0.484357
	H347	H	0.565581	0.492789	0.486373
	O348	O	0.055421	0.076584	-0.018993
	H349	H	0.063989	0.076809	-0.021575
	H350	H	0.058254	0.064118	-0.020982
	O351	O	0.006725	1.046756	0.908878
	H352	H	0.001356	1.044988	0.908114
	H353	H	0.010604	1.040646	0.905606
	O354	O	0.615632	0.468355	0.459980
	H355	H	0.617395	0.462193	0.469308
	H356	H	0.608842	0.480017	0.447429
	O357	O	-0.005248	1.043197	0.996465
	H358	H	-0.009746	1.053927	0.996051
	H359	H	0.004976	1.056175	0.994722
