data_Molecule from HDF5

_cell_length_a		16.233443
_cell_length_b		16.239444
_cell_length_c		16.333147
_cell_angle_alpha	89.912097
_cell_angle_beta	89.984422
_cell_angle_gamma	89.858727
_symmetry_space_group_name_H-M	'P 1'
_symmetry_Int_Tables_number		1

loop_
	_symmetry_equiv_pos_as_xyz
	x,y,z

loop_
	_atom_site_label
	_atom_site_type_symbol
	_atom_site_fract_x
	_atom_site_fract_y
	_atom_site_fract_z
	H0	H	0.390037	0.837904	0.713240
	H1	H	0.591454	0.164109	0.711991
	H2	H	0.590707	0.837547	0.281311
	H3	H	0.389230	0.164737	0.280125
	H4	H	0.706690	0.401565	0.834717
	H5	H	0.705045	0.601650	0.159875
	H6	H	0.273000	0.603185	0.834016
	H7	H	0.274789	0.404331	0.160273
	H8	H	0.825991	0.716538	0.397763
	H9	H	0.154194	0.713990	0.595339
	H10	H	0.825787	0.285995	0.596627
	H11	H	0.153867	0.284647	0.398011
	H12	H	0.826909	0.399845	0.713883
	H13	H	0.152570	0.601178	0.713288
	H14	H	0.826358	0.602761	0.281571
	H15	H	0.153360	0.400535	0.281192
	H16	H	0.390099	0.717313	0.834112
	H17	H	0.588257	0.716328	0.159618
	H18	H	0.589250	0.286806	0.833591
	H19	H	0.389074	0.284996	0.159873
	H20	H	0.704004	0.836340	0.398980
	H21	H	0.703838	0.164790	0.594252
	H22	H	0.277249	0.836624	0.594750
	H23	H	0.272897	0.164010	0.396734
	H24	H	0.889140	0.338789	0.213780
	H25	H	0.088552	0.665802	0.211924
	H26	H	0.089254	0.337919	0.782575
	H27	H	0.886881	0.663955	0.778365
	H28	H	0.206031	0.900048	0.334071
	H29	H	0.205648	0.098515	0.659857
	H30	H	0.775588	0.098792	0.333401
	H31	H	0.773663	0.901370	0.660097
	H32	H	0.326067	0.216833	0.896873
	H33	H	0.654581	0.216421	0.095270
	H34	H	0.325227	0.788617	0.094150
	H35	H	0.653209	0.786423	0.898414
	H36	H	0.327264	0.902044	0.212236
	H37	H	0.654730	0.100510	0.211445
	H38	H	0.327512	0.102445	0.780036
	H39	H	0.653627	0.901961	0.783458
	H40	H	0.888584	0.218341	0.334951
	H41	H	0.088993	0.214192	0.660962
	H42	H	0.088413	0.785241	0.333322
	H43	H	0.892075	0.785994	0.660328
	H44	H	0.204288	0.337914	0.898126
	H45	H	0.203692	0.665972	0.095376
	H46	H	0.774980	0.337441	0.096373
	H47	H	0.774657	0.665492	0.898681
	H48	H	0.398274	0.118252	0.590930
	H49	H	0.583610	0.884729	0.585790
	H50	H	0.582979	0.116454	0.407766
	H51	H	0.393290	0.884173	0.405738
	H52	H	0.592193	0.419042	0.113062
	H53	H	0.581544	0.583228	0.884905
	H54	H	0.396202	0.589141	0.111376
	H55	H	0.391133	0.408568	0.879702
	H56	H	0.105078	0.593048	0.407464
	H57	H	0.877183	0.587860	0.581570
	H58	H	0.103990	0.408049	0.584226
	H59	H	0.872024	0.405021	0.404784
	H60	H	0.105985	0.413483	0.593248
	H61	H	0.872596	0.588041	0.597196
	H62	H	0.105655	0.588548	0.401905
	H63	H	0.876068	0.411426	0.408372
	H64	H	0.400285	0.597877	0.112296
	H65	H	0.573150	0.601030	0.880747
	H66	H	0.567642	0.413562	0.106486
	H67	H	0.397439	0.413282	0.883231
	H68	H	0.585506	0.119314	0.401304
	H69	H	0.584693	0.882130	0.593935
	H70	H	0.399440	0.116553	0.588074
	H71	H	0.400897	0.883382	0.397554
	H72	H	0.901231	0.618042	0.092937
	H73	H	0.080174	0.386776	0.086499
	H74	H	0.082889	0.620336	0.896634
	H75	H	0.890244	0.383401	0.906523
	H76	H	0.087782	0.901955	0.615483
	H77	H	0.082102	0.085115	0.384117
	H78	H	0.887285	0.088062	0.614155
	H79	H	0.896018	0.907890	0.380734
	H80	H	0.610773	0.096339	0.894368
	H81	H	0.372174	0.100757	0.091029
	H82	H	0.602765	0.914975	0.081031
	H83	H	0.374126	0.916481	0.901500
	H84	H	0.609488	0.912178	0.100775
	H85	H	0.376832	0.091801	0.079402
	H86	H	0.606934	0.101339	0.910706
	H87	H	0.369423	0.903698	0.898139
	H88	H	0.904827	0.088403	0.609425
	H89	H	0.074376	0.095375	0.383016
	H90	H	0.085324	0.912223	0.611122
	H91	H	0.896642	0.907618	0.381331
	H92	H	0.074355	0.616318	0.904434
	H93	H	0.085113	0.384867	0.090158
	H94	H	0.896380	0.616841	0.085305
	H95	H	0.901140	0.383560	0.897944
	H96	H	0.396056	0.117712	0.588364
	H97	H	0.578092	0.885478	0.591364
	H98	H	0.577737	0.116950	0.401565
	H99	H	0.403432	0.886876	0.407674
	H100	H	0.583228	0.395436	0.116865
	H101	H	0.592895	0.597932	0.877059
	H102	H	0.390872	0.596211	0.114779
	H103	H	0.399032	0.404733	0.879977
	H104	H	0.108153	0.594857	0.401192
	H105	H	0.869950	0.602508	0.588638
	H106	H	0.108382	0.402817	0.592863
	H107	H	0.872852	0.412329	0.401356
	H108	H	0.891972	0.620527	0.093092
	H109	H	0.079273	0.385625	0.092857
	H110	H	0.086147	0.618435	0.908063
	H111	H	0.902974	0.388727	0.910966
	H112	H	0.077364	0.904217	0.611815
	H113	H	0.086723	0.096269	0.378870
	H114	H	0.896708	0.103582	0.615727
	H115	H	0.895638	0.906972	0.380727
	H116	H	0.604285	0.085024	0.905641
	H117	H	0.375567	0.085677	0.093772
	H118	H	0.609555	0.895770	0.086542
	H119	H	0.373785	0.906935	0.910695
	C120	C	0.369177	0.009320	0.618093
	C121	C	0.611443	0.992298	0.618389
	C122	C	0.611271	0.009119	0.375294
	C123	C	0.369013	0.992693	0.374409
	C124	C	0.610630	0.380521	0.004735
	C125	C	0.611122	0.622994	0.988658
	C126	C	0.367257	0.623384	0.005023
	C127	C	0.367082	0.379706	0.988664
	C128	C	-0.001821	0.621776	0.375678
	C129	C	0.981336	0.621490	0.618024
	C130	C	-0.001878	0.378954	0.619241
	C131	C	0.981656	0.379507	0.375381
	C132	C	0.867440	0.510328	0.119497
	C133	C	0.110280	0.494047	0.118307
	C134	C	0.110537	0.509949	0.875136
	C135	C	0.868260	0.493102	0.875402
	C136	C	0.112411	0.877540	0.504967
	C137	C	0.111047	0.121612	0.489431
	C138	C	0.867211	0.122654	0.505604
	C139	C	0.867882	0.879013	0.488795
	C140	C	0.498919	0.123069	0.874729
	C141	C	0.482704	0.122225	0.117567
	C142	C	0.498950	0.879221	0.118434
	C143	C	0.480843	0.879828	0.875027
	C144	C	0.370871	0.886353	0.674093
	C145	C	0.610625	0.115224	0.673775
	C146	C	0.610011	0.886020	0.320010
	C147	C	0.369652	0.115702	0.318405
	C148	C	0.667677	0.381893	0.882721
	C149	C	0.667040	0.621627	0.111071
	C150	C	0.311210	0.622520	0.882740
	C151	C	0.312194	0.382727	0.111521
	C152	C	0.874920	0.678458	0.377508
	C153	C	0.104856	0.676664	0.615762
	C154	C	0.874911	0.323643	0.617315
	C155	C	0.104657	0.322776	0.377288
	C156	C	0.875408	0.380181	0.675518
	C157	C	0.104145	0.620399	0.674357
	C158	C	0.874986	0.621848	0.319814
	C159	C	0.104470	0.380493	0.319193
	C160	C	0.369591	0.679229	0.882765
	C161	C	0.608458	0.678201	0.111227
	C162	C	0.609206	0.324952	0.882304
	C163	C	0.368969	0.323650	0.111150
	C164	C	0.666482	0.885480	0.378277
	C165	C	0.666237	0.115740	0.614725
	C166	C	0.314609	0.885607	0.615528
	C167	C	0.311753	0.115468	0.376305
	C168	C	0.869140	0.387407	0.175366
	C169	C	0.108460	0.616938	0.173933
	C170	C	0.109316	0.386857	0.820138
	C171	C	0.868574	0.615608	0.818313
	C172	C	0.168015	0.879949	0.382636
	C173	C	0.167265	0.118943	0.611503
	C174	C	0.812854	0.119908	0.382540
	C175	C	0.812173	0.881166	0.611641
	C176	C	0.375328	0.178789	0.876778
	C177	C	0.605697	0.178336	0.115709
	C178	C	0.374683	0.825540	0.115227
	C179	C	0.604308	0.824275	0.877773
	C180	C	0.375910	0.881511	0.174128
	C181	C	0.605903	0.120604	0.173283
	C182	C	0.375966	0.121959	0.818522
	C183	C	0.604431	0.881769	0.820630
	C184	C	0.869152	0.179042	0.383225
	C185	C	0.109250	0.176603	0.611962
	C186	C	0.109284	0.823017	0.382124
	C187	C	0.871008	0.824073	0.611893
	C188	C	0.166281	0.386831	0.877808
	C189	C	0.165648	0.617185	0.115852
	C190	C	0.812436	0.386739	0.116938
	C191	C	0.812442	0.616308	0.877555
	C192	C	0.391294	0.095129	0.595595
	C193	C	0.588916	0.906146	0.596606
	C194	C	0.588596	0.095154	0.397182
	C195	C	0.392305	0.906968	0.396974
	C196	C	0.587787	0.403102	0.090004
	C197	C	0.588934	0.600702	0.903080
	C198	C	0.389349	0.600956	0.090696
	C199	C	0.389381	0.402363	0.903182
	C200	C	0.084068	0.598950	0.397355
	C201	C	0.895418	0.599171	0.595790
	C202	C	0.083932	0.401513	0.596730
	C203	C	0.895912	0.402749	0.398210
	C204	C	0.889911	0.596256	0.096931
	C205	C	0.088062	0.408031	0.096200
	C206	C	0.087879	0.596016	0.896652
	C207	C	0.891397	0.407362	0.898352
	C208	C	0.090221	0.899771	0.590706
	C209	C	0.087751	0.099038	0.403924
	C210	C	0.889777	0.100068	0.591055
	C211	C	0.889537	0.901160	0.403088
	C212	C	0.584935	0.100667	0.897018
	C213	C	0.397029	0.099290	0.094837
	C214	C	0.585060	0.901127	0.096104
	C215	C	0.394763	0.902494	0.896907
	Zn216	Zn	0.490161	0.001020	0.746723
	Zn217	Zn	0.490972	0.000953	0.246019
	Zn218	Zn	0.740349	0.501440	-0.002665
	Zn219	Zn	0.238331	0.502314	-0.003395
	Zn220	Zn	-0.010211	0.749788	0.496670
	Zn221	Zn	-0.010201	0.250874	0.497701
	Zn222	Zn	-0.010361	0.500968	0.746854
	Zn223	Zn	-0.010761	0.502097	0.247279
	Zn224	Zn	0.489228	0.751893	-0.003370
	Zn225	Zn	0.489807	0.251047	-0.003243
	Zn226	Zn	0.738918	0.000720	0.496739
	Zn227	Zn	0.240469	0.000045	0.496918
	N228	N	0.403960	0.964164	0.675878
	N229	N	0.577199	0.037456	0.676094
	N230	N	0.576632	0.963959	0.317847
	N231	N	0.404245	0.038274	0.316967
	N232	N	0.668530	0.416046	0.959767
	N233	N	0.668561	0.587644	0.033986
	N234	N	0.309910	0.588221	0.959816
	N235	N	0.310952	0.416780	0.034429
	N236	N	0.952219	0.678284	0.411822
	N237	N	0.027649	0.677439	0.581379
	N238	N	0.952083	0.322801	0.582849
	N239	N	0.027173	0.321911	0.411322
	N240	N	0.953064	0.413940	0.676747
	N241	N	0.026455	0.586634	0.675814
	N242	N	0.952450	0.587406	0.318330
	N243	N	0.026778	0.414654	0.317617
	N244	N	0.403755	0.679836	0.959775
	N245	N	0.574496	0.679414	0.034056
	N246	N	0.574537	0.323967	0.959057
	N247	N	0.402263	0.321398	0.033668
	N248	N	0.667581	0.963161	0.411865
	N249	N	0.666895	0.038121	0.581108
	N250	N	0.313697	0.962953	0.581115
	N251	N	0.311234	0.037969	0.410410
	N252	N	0.902427	0.465113	0.177065
	N253	N	0.074720	0.539264	0.175483
	N254	N	0.075082	0.464285	0.818612
	N255	N	0.902643	0.537905	0.817062
	N256	N	0.169811	0.913143	0.460150
	N257	N	0.168433	0.085500	0.534185
	N258	N	0.811704	0.085572	0.459547
	N259	N	0.810285	0.914649	0.534138
	N260	N	0.452714	0.179628	0.911043
	N261	N	0.528113	0.179314	0.081819
	N262	N	0.452287	0.823981	0.081270
	N263	N	0.526560	0.822953	0.910973
	N264	N	0.453982	0.914193	0.175967
	N265	N	0.528242	0.086636	0.174734
	N266	N	0.453755	0.088160	0.817024
	N267	N	0.526554	0.915527	0.818742
	N268	N	0.902178	0.181032	0.460774
	N269	N	0.074909	0.178157	0.534937
	N270	N	0.075563	0.821378	0.459284
	N271	N	0.904985	0.822566	0.534689
	N272	N	0.167186	0.464383	0.911260
	N273	N	0.166771	0.539805	0.082024
	N274	N	0.811442	0.464239	0.082853
	N275	N	0.812149	0.539176	0.912337
	O276	O	0.537256	0.451748	0.449692
	H277	H	0.539926	0.453587	0.450035
	H278	H	0.523376	0.450723	0.449252
	O279	O	0.465795	0.494824	0.512992
	H280	H	0.475158	0.490788	0.518827
	H281	H	0.472949	0.492356	0.499282
	O282	O	0.428174	0.460745	0.540298
	H283	H	0.427782	0.478273	0.543321
	H284	H	0.422033	0.463376	0.556859
	O285	O	0.071315	1.079360	1.077693
	H286	H	0.067064	1.091227	1.071740
	H287	H	0.057738	1.074798	1.066197
	O288	O	0.509571	0.467811	0.520842
	H289	H	0.497281	0.461407	0.532744
	H290	H	0.511831	0.469615	0.511187
	O291	O	0.489673	0.507954	1.483728
	H292	H	0.501239	0.502101	1.479294
	H293	H	0.490536	0.508609	1.493808
	O294	O	0.454059	0.522787	0.473087
	H295	H	0.458343	0.531150	0.466870
	H296	H	0.442335	0.522691	0.470564
	O297	O	0.578734	0.527376	0.401191
	H298	H	0.583750	0.524780	0.401138
	H299	H	0.591167	0.507182	0.405251
	O300	O	0.515969	0.434881	0.538711
	H301	H	0.517521	0.442246	0.544569
	H302	H	0.505067	0.429613	0.541574
	O303	O	0.534891	0.408084	0.490811
	H304	H	0.531071	0.407891	0.496983
	H305	H	0.524748	0.405983	0.489579
	O306	O	1.096236	0.137611	1.065956
	H307	H	1.100019	0.135509	1.067160
	H308	H	1.099577	0.141269	1.074568
	O309	O	0.418558	0.574627	0.553265
	H310	H	0.433534	0.585409	0.545162
	H311	H	0.419219	0.565359	0.565393
	O312	O	0.481140	0.482779	0.481424
	H313	H	0.490538	0.480057	0.473628
	H314	H	0.473478	0.492538	0.474315
	O315	O	1.061574	0.110066	1.066919
	H316	H	1.072924	0.109825	1.063069
	H317	H	1.066422	0.114513	1.071557
	O318	O	0.419459	-0.520048	-0.468531
	H319	H	0.420800	-0.519481	-0.466422
	H320	H	0.417931	-0.517605	-0.474622
	O321	O	0.494267	0.495806	0.401415
	H322	H	0.495389	0.501018	0.391033
	H323	H	0.500080	0.500041	0.409014
	O324	O	1.051308	0.070681	0.043579
	H325	H	1.046766	0.079757	0.049985
	H326	H	1.052305	0.070490	0.039886
	O327	O	1.082635	1.100171	0.035730
	H328	H	1.091672	1.098117	0.040192
	H329	H	1.088307	1.102396	0.045113
	O330	O	0.472469	0.468262	0.579695
	H331	H	0.471303	0.485499	0.588533
	H332	H	0.468171	0.453624	0.572661
	O333	O	0.456698	0.434206	0.483945
	H334	H	0.469998	0.429962	0.479721
	H335	H	0.459410	0.439103	0.474359
