data_Molecule from HDF5

_cell_length_a		16.361978
_cell_length_b		16.449238
_cell_length_c		16.287368
_cell_angle_alpha	90.040500
_cell_angle_beta	89.868861
_cell_angle_gamma	89.860603
_symmetry_space_group_name_H-M	'P 1'
_symmetry_Int_Tables_number		1

loop_
	_symmetry_equiv_pos_as_xyz
	x,y,z

loop_
	_atom_site_label
	_atom_site_type_symbol
	_atom_site_fract_x
	_atom_site_fract_y
	_atom_site_fract_z
	H0	H	0.382516	0.855200	0.728449
	H1	H	0.588827	0.174190	0.725251
	H2	H	0.592057	0.856029	0.283236
	H3	H	0.380425	0.174051	0.286797
	H4	H	0.703296	0.414875	0.844971
	H5	H	0.707074	0.620422	0.166203
	H6	H	0.267395	0.621948	0.845729
	H7	H	0.266476	0.413453	0.165973
	H8	H	0.826892	0.733536	0.399412
	H9	H	0.144764	0.735231	0.612537
	H10	H	0.825793	0.294680	0.609497
	H11	H	0.144990	0.289550	0.398584
	H12	H	0.825158	0.412824	0.723387
	H13	H	0.146928	0.615810	0.723216
	H14	H	0.826135	0.614290	0.286976
	H15	H	0.146961	0.407426	0.284793
	H16	H	0.381899	0.738474	0.847396
	H17	H	0.591481	0.735559	0.167610
	H18	H	0.592987	0.294589	0.847611
	H19	H	0.379107	0.295625	0.166294
	H20	H	0.705332	0.853746	0.401218
	H21	H	0.706853	0.171711	0.610096
	H22	H	0.264911	0.854882	0.613592
	H23	H	0.261385	0.170985	0.399811
	H24	H	0.882436	0.353553	0.223770
	H25	H	0.090589	0.671593	0.227297
	H26	H	0.089478	0.353832	0.787457
	H27	H	0.886003	0.674143	0.786567
	H28	H	0.206451	0.908866	0.345975
	H29	H	0.204919	0.119379	0.665877
	H30	H	0.769019	0.111911	0.343567
	H31	H	0.768166	0.910134	0.667253
	H32	H	0.326139	0.235940	0.904628
	H33	H	0.645398	0.237091	0.113538
	H34	H	0.327883	0.794150	0.114856
	H35	H	0.645617	0.793918	0.901487
	H36	H	0.326053	0.913597	0.225929
	H37	H	0.646163	0.118496	0.226513
	H38	H	0.325729	0.118234	0.789785
	H39	H	0.647308	0.912031	0.787911
	H40	H	0.880242	0.232421	0.344732
	H41	H	0.089571	0.234617	0.665249
	H42	H	0.090757	0.793385	0.345247
	H43	H	0.882043	0.794292	0.666535
	H44	H	0.210277	0.357118	0.900041
	H45	H	0.203932	0.674618	0.108547
	H46	H	0.765286	0.356458	0.108391
	H47	H	0.767252	0.675102	0.900581
	H48	H	0.392824	0.126939	0.593825
	H49	H	0.577596	0.896534	0.607875
	H50	H	0.571642	0.127109	0.412916
	H51	H	0.403601	0.904589	0.420690
	H52	H	0.581429	0.427707	0.123603
	H53	H	0.587038	0.598727	0.890611
	H54	H	0.396811	0.601062	0.118961
	H55	H	0.398955	0.421277	0.889734
	H56	H	0.100309	0.602378	0.415528
	H57	H	0.870351	0.605136	0.599159
	H58	H	0.101136	0.426437	0.601088
	H59	H	0.869266	0.424165	0.406175
	H60	H	0.102400	0.414692	0.594064
	H61	H	0.872995	0.606112	0.591464
	H62	H	0.099999	0.603079	0.418504
	H63	H	0.870529	0.414089	0.418366
	H64	H	0.399538	0.609012	0.120473
	H65	H	0.564720	0.600917	0.897895
	H66	H	0.572741	0.431568	0.119564
	H67	H	0.394893	0.430716	0.891519
	H68	H	0.574963	0.124313	0.425392
	H69	H	0.566740	0.903885	0.595470
	H70	H	0.391800	0.128731	0.600372
	H71	H	0.391246	0.899747	0.420959
	H72	H	0.901199	0.627590	0.097374
	H73	H	0.073635	0.405169	0.081541
	H74	H	0.079168	0.627900	0.916790
	H75	H	0.901091	0.400683	0.908036
	H76	H	0.070863	0.930915	0.617218
	H77	H	0.072095	0.102391	0.391510
	H78	H	0.895483	0.111559	0.622777
	H79	H	0.893689	0.919909	0.389356
	H80	H	0.598759	0.107419	0.922810
	H81	H	0.373252	0.100972	0.097917
	H82	H	0.601623	0.927654	0.097622
	H83	H	0.372058	0.918805	0.923986
	H84	H	0.600580	0.923805	0.094319
	H85	H	0.368991	0.110725	0.101065
	H86	H	0.599181	0.100879	0.914926
	H87	H	0.376532	0.933062	0.923420
	H88	H	0.889074	0.098304	0.620925
	H89	H	0.075789	0.099343	0.391880
	H90	H	0.067599	0.915926	0.620133
	H91	H	0.894505	0.923161	0.390576
	H92	H	0.078441	0.630227	0.910166
	H93	H	0.089107	0.397053	0.094516
	H94	H	0.896038	0.626551	0.092129
	H95	H	0.898268	0.404488	0.924121
	H96	H	0.398122	0.126383	0.598256
	H97	H	0.583634	0.899137	0.591034
	H98	H	0.583805	0.129793	0.416948
	H99	H	0.398361	0.899897	0.410053
	H100	H	0.573148	0.421781	0.122665
	H101	H	0.575308	0.618807	0.888329
	H102	H	0.392352	0.606473	0.123119
	H103	H	0.404682	0.428227	0.895145
	H104	H	0.099504	0.600328	0.417546
	H105	H	0.873875	0.599529	0.594986
	H106	H	0.097036	0.425863	0.587677
	H107	H	0.876510	0.428313	0.419943
	H108	H	0.894119	0.629313	0.097999
	H109	H	0.068413	0.399893	0.102418
	H110	H	0.073597	0.627185	0.913151
	H111	H	0.886718	0.397945	0.914494
	H112	H	0.082104	0.922224	0.624067
	H113	H	0.071182	0.097868	0.394055
	H114	H	0.902870	0.100199	0.616909
	H115	H	0.897130	0.920782	0.390219
	H116	H	0.603055	0.110584	0.913399
	H117	H	0.372679	0.109413	0.090688
	H118	H	0.599105	0.928015	0.092506
	H119	H	0.370258	0.927105	0.910597
	C120	C	0.363183	0.022374	0.629644
	C121	C	0.607549	1.005089	0.628754
	C122	C	0.608112	0.022202	0.385136
	C123	C	0.364570	1.006200	0.385545
	C124	C	0.607691	0.394954	0.015904
	C125	C	0.607794	0.637557	0.997968
	C126	C	0.364899	0.637622	0.014898
	C127	C	0.366159	0.395408	0.997865
	C128	C	-0.005267	0.633853	0.384633
	C129	C	0.977654	0.635031	0.626723
	C130	C	-0.005542	0.391475	0.626105
	C131	C	0.977545	0.389973	0.382601
	C132	C	0.864965	0.522776	0.127125
	C133	C	0.107895	0.505786	0.125717
	C134	C	0.108798	0.523312	0.882405
	C135	C	0.864945	0.506591	0.884029
	C136	C	0.106476	0.891675	0.514412
	C137	C	0.105640	0.133710	0.497385
	C138	C	0.864438	0.133688	0.513944
	C139	C	0.864132	0.890677	0.496853
	C140	C	0.494773	0.137794	0.885903
	C141	C	0.477088	0.138271	0.129050
	C142	C	0.494612	0.895005	0.127803
	C143	C	0.478318	0.894246	0.886549
	C144	C	0.362747	0.903015	0.689196
	C145	C	0.608301	0.125611	0.686624
	C146	C	0.609888	0.903200	0.324044
	C147	C	0.361657	0.125675	0.325844
	C148	C	0.665039	0.395072	0.893881
	C149	C	0.667395	0.639042	0.118583
	C150	C	0.306453	0.639926	0.894048
	C151	C	0.305668	0.394519	0.118079
	C152	C	0.874577	0.693369	0.382144
	C153	C	0.097218	0.694884	0.629553
	C154	C	0.873789	0.333815	0.627724
	C155	C	0.097428	0.329817	0.380180
	C156	C	0.873563	0.392064	0.684911
	C157	C	0.098453	0.635518	0.685011
	C158	C	0.874247	0.634196	0.325892
	C159	C	0.098467	0.388601	0.323661
	C160	C	0.363206	0.698332	0.895088
	C161	C	0.609813	0.696398	0.119089
	C162	C	0.610291	0.335053	0.895468
	C163	C	0.362032	0.335704	0.118058
	C164	C	0.666438	0.901900	0.382905
	C165	C	0.667308	0.124359	0.629637
	C166	C	0.304255	0.902757	0.631695
	C167	C	0.302260	0.124170	0.382258
	C168	C	0.863542	0.402162	0.185007
	C169	C	0.109102	0.624661	0.186687
	C170	C	0.109530	0.402409	0.825254
	C171	C	0.865613	0.626654	0.825435
	C172	C	0.166633	0.890457	0.393958
	C173	C	0.165441	0.137289	0.617578
	C174	C	0.806990	0.132497	0.392249
	C175	C	0.806408	0.890672	0.618543
	C176	C	0.374039	0.196215	0.885661
	C177	C	0.597481	0.197132	0.131401
	C178	C	0.375278	0.834974	0.131525
	C179	C	0.598234	0.834195	0.883559
	C180	C	0.374331	0.894281	0.187280
	C181	C	0.597956	0.138092	0.187514
	C182	C	0.373694	0.137801	0.828431
	C183	C	0.598818	0.893086	0.827004
	C184	C	0.862769	0.191974	0.392609
	C185	C	0.107852	0.194613	0.617509
	C186	C	0.109217	0.832729	0.393672
	C187	C	0.863339	0.832823	0.618185
	C188	C	0.169681	0.404346	0.880983
	C189	C	0.165403	0.626103	0.127536
	C190	C	0.805083	0.403491	0.127684
	C191	C	0.806968	0.626936	0.882674
	C192	C	0.387302	0.105722	0.604617
	C193	C	0.583059	0.921635	0.604890
	C194	C	0.583912	0.105225	0.410869
	C195	C	0.390436	0.923237	0.410371
	C196	C	0.583078	0.419697	0.100012
	C197	C	0.582859	0.613254	0.914102
	C198	C	0.389269	0.612666	0.098959
	C199	C	0.392251	0.419810	0.913848
	C200	C	0.078235	0.609128	0.409773
	C201	C	0.894072	0.610395	0.602370
	C202	C	0.078371	0.415449	0.601296
	C203	C	0.893878	0.414960	0.407587
	C204	C	0.889903	0.606176	0.103017
	C205	C	0.083750	0.422408	0.100266
	C206	C	0.084143	0.606847	0.906411
	C207	C	0.888490	0.422802	0.908490
	C208	C	0.080888	0.916001	0.598538
	C209	C	0.080153	0.107667	0.414056
	C210	C	0.888907	0.110197	0.598241
	C211	C	0.888161	0.914394	0.412151
	C212	C	0.578494	0.113387	0.910089
	C213	C	0.393555	0.114158	0.103863
	C214	C	0.578620	0.919541	0.102335
	C215	C	0.394577	0.919224	0.911917
	Zn216	Zn	0.486000	0.014962	0.757713
	Zn217	Zn	0.486263	0.015679	0.256575
	Zn218	Zn	0.735805	0.516318	0.005625
	Zn219	Zn	0.237167	0.515960	0.004972
	Zn220	Zn	-0.014264	0.763033	0.505717
	Zn221	Zn	-0.014627	0.262342	0.504871
	Zn222	Zn	-0.013750	0.513459	0.754517
	Zn223	Zn	-0.012941	0.512464	0.255384
	Zn224	Zn	0.486722	0.765626	0.007622
	Zn225	Zn	0.486743	0.266758	0.007591
	Zn226	Zn	0.736573	0.012132	0.506304
	Zn227	Zn	0.234766	0.013082	0.506936
	N228	N	0.398516	0.978430	0.688254
	N229	N	0.571967	0.050456	0.686243
	N230	N	0.574349	0.978959	0.325300
	N231	N	0.399979	0.051216	0.327830
	N232	N	0.663715	0.431528	0.969883
	N233	N	0.666217	0.602981	0.042539
	N234	N	0.307191	0.603226	0.969739
	N235	N	0.308228	0.430919	0.042178
	N236	N	0.950548	0.693259	0.417993
	N237	N	0.021319	0.694697	0.593840
	N238	N	0.950101	0.333348	0.592090
	N239	N	0.021307	0.330535	0.415990
	N240	N	0.949697	0.427177	0.684196
	N241	N	0.023050	0.598724	0.683448
	N242	N	0.949914	0.597768	0.327340
	N243	N	0.022871	0.425311	0.324967
	N244	N	0.398650	0.697261	0.971402
	N245	N	0.573321	0.695467	0.043170
	N246	N	0.575360	0.334770	0.972404
	N247	N	0.398942	0.336149	0.042253
	N248	N	0.665511	0.976848	0.420298
	N249	N	0.667268	0.048374	0.594650
	N250	N	0.304440	0.978166	0.595363
	N251	N	0.304060	0.048946	0.418651
	N252	N	0.900034	0.477431	0.184944
	N253	N	0.074295	0.548785	0.185815
	N254	N	0.072479	0.477439	0.825953
	N255	N	0.900995	0.550862	0.826311
	N256	N	0.165355	0.926045	0.470319
	N257	N	0.164271	0.100090	0.542090
	N258	N	0.807848	0.096926	0.468710
	N259	N	0.806712	0.925858	0.542072
	N260	N	0.450456	0.196588	0.920368
	N261	N	0.521505	0.197329	0.095796
	N262	N	0.451158	0.835396	0.095229
	N263	N	0.522365	0.834768	0.919765
	N264	N	0.449723	0.930828	0.184971
	N265	N	0.522106	0.102256	0.186408
	N266	N	0.449769	0.102292	0.828117
	N267	N	0.523081	0.929688	0.828877
	N268	N	0.897666	0.192847	0.469120
	N269	N	0.071322	0.192354	0.541656
	N270	N	0.072764	0.833244	0.469778
	N271	N	0.898365	0.832630	0.541403
	N272	N	0.169618	0.480631	0.915394
	N273	N	0.164785	0.551024	0.090320
	N274	N	0.805783	0.479391	0.092594
	N275	N	0.806563	0.551256	0.918628
	O276	O	0.327871	0.535874	0.695153
	H277	H	0.313264	0.540566	0.708354
	H278	H	0.356116	0.550687	0.691316
	O279	O	0.377912	0.556215	0.310422
	H280	H	0.374589	0.553207	0.326015
	H281	H	0.353865	0.543030	0.304124
	O282	O	0.643646	0.535319	0.406716
	H283	H	0.619251	0.541319	0.386793
	H284	H	0.636804	0.530484	0.398358
	O285	O	1.057972	0.039764	0.082985
	H286	H	1.062607	0.028064	0.077476
	H287	H	1.037637	0.031267	0.078306
	O288	O	-0.061440	0.118073	0.850097
	H289	H	-0.043490	0.136602	0.837719
	H290	H	-0.045016	0.113264	0.859741
	O291	O	0.328429	0.487030	0.479862
	H292	H	0.338452	0.486013	0.494924
	H293	H	0.321008	0.490197	0.492783
	O294	O	0.477088	0.591018	0.408440
	H295	H	0.464746	0.584016	0.407134
	H296	H	0.476124	0.611472	0.409135
	O297	O	0.867356	1.131231	0.964252
	H298	H	0.883758	1.143923	0.955329
	H299	H	0.872289	1.120685	0.954414
	O300	O	0.017894	0.103363	0.079027
	H301	H	0.018213	0.094625	0.077652
	H302	H	0.010240	0.089105	0.075744
	O303	O	0.691870	0.607372	0.541498
	H304	H	0.701761	0.627258	0.548730
	H305	H	0.693611	0.599466	0.528271
	O306	O	1.106125	-0.081767	-0.124157
	H307	H	1.093466	-0.098629	-0.116908
	H308	H	1.111356	-0.092731	-0.126510
	O309	O	0.582028	0.562698	0.644410
	H310	H	0.567756	0.560849	0.644876
	H311	H	0.586093	0.564851	0.641661
	O312	O	0.940720	0.911751	-0.066497
	H313	H	0.929168	0.907290	-0.069601
	H314	H	0.956907	0.923867	-0.055481
	O315	O	0.600316	0.328728	0.552317
	H316	H	0.619577	0.309859	0.556908
	H317	H	0.595386	0.332019	0.558349
	O318	O	0.537699	0.439184	0.628295
	H319	H	0.536995	0.449559	0.629381
	H320	H	0.534434	0.419836	0.633493
	O321	O	1.037556	-0.159176	0.919334
	H322	H	1.019949	-0.164312	0.921836
	H323	H	1.039587	-0.153253	0.925100
	O324	O	-0.226804	0.103972	0.926869
	H325	H	-0.250054	0.123751	0.922404
	H326	H	-0.219510	0.114132	0.937874
	O327	O	0.831503	-0.030106	0.189149
	H328	H	0.839938	-0.026792	0.180850
	H329	H	0.833254	-0.015985	0.188069
	O330	O	0.337545	0.582290	0.545492
	H331	H	0.341841	0.575456	0.558901
	H332	H	0.338032	0.567577	0.546679
	O333	O	1.300802	0.700100	1.329668
	H334	H	1.300132	0.674836	1.336554
	H335	H	1.326294	0.696836	1.329596
	O336	O	0.487827	0.721744	0.384817
	H337	H	0.502922	0.726408	0.400235
	H338	H	0.475385	0.734512	0.385477
	O339	O	0.797585	0.199486	0.889925
	H340	H	0.823261	0.201478	0.886152
	H341	H	0.807345	0.210986	0.907851
	O342	O	-0.039954	0.965558	1.013354
	H343	H	-0.050513	0.968078	1.017090
	H344	H	-0.047142	0.959336	1.017013
	O345	O	0.004504	0.891499	1.176230
	H346	H	-0.004438	0.898110	1.168081
	H347	H	0.011304	0.877231	1.173237
	O348	O	0.274426	0.699956	0.496314
	H349	H	0.263861	0.702156	0.492768
	H350	H	0.266099	0.698723	0.478225
	O351	O	-0.084927	-0.019997	-0.075272
	H352	H	-0.077345	-0.005721	-0.083481
	H353	H	-0.101278	-0.009748	-0.078648
	O354	O	0.938694	1.019495	0.001012
	H355	H	0.949513	1.023661	-0.001725
	H356	H	0.938804	1.032578	-0.002862
	O357	O	-0.184611	0.846937	0.055440
	H358	H	-0.188824	0.855060	0.049899
	H359	H	-0.179421	0.839378	0.059398
	O360	O	0.510186	0.304651	0.295683
	H361	H	0.520588	0.284714	0.263304
	H362	H	0.539751	0.319077	0.295320
	O363	O	0.439871	0.327296	0.719178
	H364	H	0.432972	0.308471	0.736096
	H365	H	0.417349	0.322733	0.721152
	O366	O	0.296411	0.339880	0.697217
	H367	H	0.302414	0.367689	0.702747
	H368	H	0.287744	0.343950	0.663616
	O369	O	0.534987	0.537548	0.694466
	H370	H	0.540268	0.538997	0.680020
	H371	H	0.533162	0.528232	0.698598
	O372	O	0.608319	0.398745	0.341122
	H373	H	0.608329	0.403598	0.351181
	H374	H	0.620190	0.401352	0.345338
	O375	O	0.935138	-0.151120	-0.073620
	H376	H	0.931331	-0.138903	-0.079415
	H377	H	0.922240	-0.160655	-0.089204
	O378	O	0.496072	0.695285	0.676246
	H379	H	0.491827	0.680534	0.673086
	H380	H	0.491658	0.709204	0.686915
	O381	O	0.671979	0.362664	0.466771
	H382	H	0.671022	0.373440	0.480480
	H383	H	0.672873	0.358062	0.471295
	O384	O	0.080932	0.998737	0.820646
	H385	H	0.085519	0.971623	0.822865
	H386	H	0.099308	0.989052	0.798463
	O387	O	1.071750	1.100277	0.098017
	H388	H	1.082674	1.094369	0.100128
	H389	H	1.073649	1.100948	0.093140
	O390	O	0.658839	0.634420	0.558366
	H391	H	0.650371	0.640078	0.564404
	H392	H	0.664246	0.634525	0.540940
	O393	O	1.613116	-0.390255	0.419927
	H394	H	1.620197	-0.386827	0.430252
	H395	H	1.607231	-0.390190	0.423973
	O396	O	0.082557	1.054556	1.101776
	H397	H	0.078962	1.053581	1.093490
	H398	H	0.085587	1.064351	1.099849
	O399	O	0.472141	0.485141	0.509480
	H400	H	0.469958	0.508336	0.515021
	H401	H	0.476433	0.474611	0.501715
	O402	O	1.098191	0.135890	1.153804
	H403	H	1.109240	0.118688	1.152704
	H404	H	1.096884	0.145624	1.160467
	O405	O	0.443287	-0.387173	-0.487216
	H406	H	0.433651	-0.397136	-0.487969
	H407	H	0.445594	-0.381564	-0.502091
	O408	O	1.161298	0.952217	0.863069
	H409	H	1.152342	0.929763	0.868720
	H410	H	1.165955	0.943685	0.869208
	O411	O	0.875365	1.100167	0.155081
	H412	H	0.892193	1.092850	0.149555
	H413	H	0.863684	1.112605	0.167904
	O414	O	0.092105	0.129106	0.959337
	H415	H	0.098350	0.115391	0.966112
	H416	H	0.102474	0.135168	0.953413
	O417	O	0.447601	0.309791	0.470508
	H418	H	0.469609	0.305980	0.471557
	H419	H	0.462902	0.305220	0.446772
	O420	O	0.016719	1.165515	0.091196
	H421	H	0.012964	1.175202	0.108968
	H422	H	0.022902	1.165948	0.080793
	O423	O	1.433361	-0.472014	-0.640321
	H424	H	1.425689	-0.471882	-0.634996
	H425	H	1.445494	-0.468181	-0.650231
	O426	O	0.140779	-0.114786	1.072710
	H427	H	0.130263	-0.115827	1.084236
	H428	H	0.139676	-0.119147	1.084712
	O429	O	0.303516	0.316679	0.555311
	H430	H	0.318869	0.304649	0.545871
	H431	H	0.304529	0.305248	0.543831
