data_Molecule from HDF5

_cell_length_a		16.272188
_cell_length_b		16.242805
_cell_length_c		16.304683
_cell_angle_alpha	90.187666
_cell_angle_beta	90.056301
_cell_angle_gamma	89.992153
_symmetry_space_group_name_H-M	'P 1'
_symmetry_Int_Tables_number		1

loop_
	_symmetry_equiv_pos_as_xyz
	x,y,z

loop_
	_atom_site_label
	_atom_site_type_symbol
	_atom_site_fract_x
	_atom_site_fract_y
	_atom_site_fract_z
	H0	H	0.393311	0.840414	0.711216
	H1	H	0.590248	0.168358	0.711760
	H2	H	0.590642	0.840136	0.282301
	H3	H	0.392656	0.167656	0.283132
	H4	H	0.705591	0.405866	0.833102
	H5	H	0.706528	0.602799	0.161284
	H6	H	0.277264	0.602563	0.833251
	H7	H	0.277385	0.406412	0.161156
	H8	H	0.827346	0.716321	0.399244
	H9	H	0.155663	0.717755	0.595121
	H10	H	0.828061	0.290545	0.594440
	H11	H	0.156216	0.288903	0.398727
	H12	H	0.828575	0.405768	0.711349
	H13	H	0.155465	0.603496	0.711600
	H14	H	0.828399	0.600999	0.282232
	H15	H	0.156260	0.403438	0.281444
	H16	H	0.393529	0.718748	0.833403
	H17	H	0.590726	0.719448	0.161641
	H18	H	0.590110	0.290192	0.833784
	H19	H	0.394195	0.291546	0.161781
	H20	H	0.705178	0.839458	0.398359
	H21	H	0.707348	0.167734	0.597252
	H22	H	0.278256	0.839819	0.595005
	H23	H	0.277801	0.168618	0.400013
	H24	H	0.893543	0.339102	0.209610
	H25	H	0.092124	0.666912	0.213282
	H26	H	0.090233	0.340406	0.782583
	H27	H	0.894087	0.668699	0.783246
	H28	H	0.206964	0.904038	0.333628
	H29	H	0.205590	0.102088	0.660920
	H30	H	0.776853	0.100928	0.333359
	H31	H	0.777582	0.906275	0.660827
	H32	H	0.328359	0.218004	0.900447
	H33	H	0.656453	0.218396	0.096045
	H34	H	0.327714	0.791198	0.094603
	H35	H	0.657005	0.791177	0.900249
	H36	H	0.328203	0.906739	0.211237
	H37	H	0.655206	0.104475	0.213851
	H38	H	0.328107	0.102142	0.784064
	H39	H	0.655720	0.905326	0.782359
	H40	H	0.892632	0.217805	0.333142
	H41	H	0.090349	0.218447	0.660630
	H42	H	0.088022	0.789701	0.333215
	H43	H	0.893794	0.790106	0.661130
	H44	H	0.206864	0.341035	0.897471
	H45	H	0.205599	0.668573	0.095694
	H46	H	0.777521	0.339674	0.094736
	H47	H	0.778523	0.668852	0.900233
	H48	H	0.392234	0.120482	0.581389
	H49	H	0.581290	0.889875	0.583556
	H50	H	0.580915	0.122096	0.399604
	H51	H	0.401689	0.890955	0.412570
	H52	H	0.584266	0.408883	0.113947
	H53	H	0.582455	0.607594	0.879039
	H54	H	0.398214	0.594109	0.112160
	H55	H	0.402501	0.418536	0.884300
	H56	H	0.105194	0.593426	0.411943
	H57	H	0.874787	0.605494	0.584109
	H58	H	0.106775	0.418574	0.590259
	H59	H	0.871339	0.406382	0.390047
	H60	H	0.111555	0.407193	0.596066
	H61	H	0.878327	0.586928	0.586213
	H62	H	0.108878	0.590539	0.397931
	H63	H	0.875535	0.401249	0.413538
	H64	H	0.403252	0.599512	0.112909
	H65	H	0.595249	0.594879	0.879398
	H66	H	0.588968	0.411993	0.114949
	H67	H	0.404010	0.403145	0.881273
	H68	H	0.581668	0.118021	0.410771
	H69	H	0.591416	0.885150	0.591188
	H70	H	0.393289	0.124806	0.600299
	H71	H	0.390018	0.884425	0.402139
	H72	H	0.905625	0.618882	0.088588
	H73	H	0.080481	0.390639	0.081292
	H74	H	0.075867	0.618182	0.907198
	H75	H	0.903787	0.390324	0.909137
	H76	H	0.080157	0.911196	0.611307
	H77	H	0.091182	0.093171	0.379583
	H78	H	0.899057	0.097567	0.612767
	H79	H	0.902658	0.909398	0.382703
	H80	H	0.609268	0.094585	0.900513
	H81	H	0.375053	0.105012	0.085772
	H82	H	0.607737	0.914140	0.089517
	H83	H	0.376933	0.915450	0.904849
	H84	H	0.608639	0.912686	0.092523
	H85	H	0.379022	0.090558	0.088465
	H86	H	0.610313	0.101646	0.903940
	H87	H	0.374269	0.910145	0.899669
	H88	H	0.898687	0.097995	0.613384
	H89	H	0.079729	0.092597	0.383504
	H90	H	0.088035	0.905381	0.616255
	H91	H	0.895548	0.905370	0.378706
	H92	H	0.092721	0.622238	0.909265
	H93	H	0.095288	0.384900	0.087826
	H94	H	0.894585	0.620208	0.086110
	H95	H	0.890278	0.385421	0.904586
	H96	H	0.409531	0.118405	0.590851
	H97	H	0.579756	0.886914	0.596277
	H98	H	0.591503	0.122807	0.405986
	H99	H	0.404894	0.886998	0.396893
	H100	H	0.584148	0.414437	0.113058
	H101	H	0.578093	0.591635	0.885591
	H102	H	0.396133	0.600508	0.114831
	H103	H	0.390764	0.410542	0.878881
	H104	H	0.110521	0.604115	0.403369
	H105	H	0.871585	0.597900	0.601186
	H106	H	0.107464	0.407293	0.582757
	H107	H	0.880549	0.423852	0.404434
	H108	H	0.898799	0.622105	0.096650
	H109	H	0.081246	0.385330	0.097811
	H110	H	0.084885	0.625037	0.894398
	H111	H	0.901430	0.385550	0.894728
	H112	H	0.088915	0.915302	0.613138
	H113	H	0.083760	0.103237	0.378985
	H114	H	0.898388	0.097149	0.612681
	H115	H	0.895369	0.914398	0.380993
	H116	H	0.606799	0.096001	0.908070
	H117	H	0.372657	0.098891	0.100101
	H118	H	0.608839	0.910611	0.089242
	H119	H	0.375791	0.907790	0.906767
	C120	C	0.370182	0.012479	0.618712
	C121	C	0.613024	0.995708	0.619014
	C122	C	0.613088	0.012362	0.376339
	C123	C	0.370028	0.995662	0.375791
	C124	C	0.613947	0.382751	0.005733
	C125	C	0.614147	0.626649	0.989459
	C126	C	0.370475	0.626297	0.005300
	C127	C	0.370587	0.382891	0.989547
	C128	C	-0.000034	0.624742	0.375449
	C129	C	0.983202	0.625587	0.618757
	C130	C	0.000460	0.382783	0.618061
	C131	C	0.983978	0.381181	0.374020
	C132	C	0.870895	0.511865	0.118181
	C133	C	0.113970	0.495420	0.118228
	C134	C	0.113039	0.512980	0.875279
	C135	C	0.870170	0.495740	0.874951
	C136	C	0.113896	0.881747	0.505590
	C137	C	0.113243	0.125100	0.488878
	C138	C	0.870143	0.125595	0.504982
	C139	C	0.869522	0.881564	0.488736
	C140	C	0.500808	0.125549	0.876283
	C141	C	0.483944	0.126581	0.119897
	C142	C	0.500112	0.883501	0.118841
	C143	C	0.483859	0.882324	0.875192
	C144	C	0.372787	0.889405	0.673729
	C145	C	0.610983	0.119324	0.674103
	C146	C	0.610434	0.888971	0.320723
	C147	C	0.372250	0.119128	0.321302
	C148	C	0.667900	0.385648	0.882223
	C149	C	0.668998	0.623929	0.112416
	C150	C	0.315436	0.623209	0.882302
	C151	C	0.315635	0.386345	0.112457
	C152	C	0.876607	0.679095	0.378317
	C153	C	0.106650	0.680415	0.615987
	C154	C	0.877009	0.327994	0.615244
	C155	C	0.107243	0.326247	0.377560
	C156	C	0.877450	0.384856	0.673549
	C157	C	0.106643	0.623329	0.673746
	C158	C	0.876980	0.621665	0.320333
	C159	C	0.107129	0.383060	0.319156
	C160	C	0.372869	0.681188	0.882487
	C161	C	0.611064	0.681553	0.112650
	C162	C	0.610849	0.327767	0.882631
	C163	C	0.373566	0.328831	0.112772
	C164	C	0.667574	0.888568	0.378401
	C165	C	0.668814	0.118917	0.616882
	C166	C	0.315875	0.889053	0.615601
	C167	C	0.314755	0.119136	0.378702
	C168	C	0.873175	0.388326	0.172335
	C169	C	0.112053	0.618290	0.174699
	C170	C	0.110891	0.389494	0.820066
	C171	C	0.872943	0.619709	0.820735
	C172	C	0.168668	0.884011	0.382440
	C173	C	0.168106	0.122942	0.611899
	C174	C	0.814973	0.121891	0.381900
	C175	C	0.815498	0.885469	0.612213
	C176	C	0.377149	0.180208	0.879368
	C177	C	0.607334	0.181124	0.116883
	C178	C	0.376806	0.828748	0.115757
	C179	C	0.607740	0.828132	0.878762
	C180	C	0.376888	0.886370	0.173306
	C181	C	0.606681	0.124784	0.175644
	C182	C	0.376961	0.122806	0.821621
	C183	C	0.607115	0.885015	0.820382
	C184	C	0.872380	0.180252	0.381935
	C185	C	0.110742	0.180578	0.611886
	C186	C	0.110039	0.826878	0.382151
	C187	C	0.872901	0.827577	0.612146
	C188	C	0.168696	0.389819	0.877351
	C189	C	0.168459	0.619070	0.116279
	C190	C	0.815833	0.388482	0.114959
	C191	C	0.815827	0.619822	0.878802
	C192	C	0.392171	0.098939	0.597065
	C193	C	0.590616	0.909613	0.596952
	C194	C	0.591233	0.098650	0.398947
	C195	C	0.392386	0.909619	0.397425
	C196	C	0.592214	0.405225	0.091717
	C197	C	0.591967	0.604556	0.903489
	C198	C	0.392675	0.604523	0.091287
	C199	C	0.392713	0.404295	0.903669
	C200	C	0.085941	0.602590	0.397785
	C201	C	0.897201	0.603326	0.596966
	C202	C	0.086490	0.404682	0.596054
	C203	C	0.897911	0.403761	0.395990
	C204	C	0.893087	0.598115	0.096636
	C205	C	0.091923	0.409162	0.095508
	C206	C	0.090975	0.599421	0.897211
	C207	C	0.891990	0.409615	0.896390
	C208	C	0.092105	0.903880	0.591420
	C209	C	0.091303	0.102888	0.402932
	C210	C	0.892131	0.103946	0.590795
	C211	C	0.891362	0.903178	0.403004
	C212	C	0.586548	0.103711	0.897798
	C213	C	0.397825	0.104646	0.097867
	C214	C	0.586359	0.905857	0.096942
	C215	C	0.397926	0.904450	0.897280
	Zn216	Zn	0.492004	0.004303	0.747139
	Zn217	Zn	0.492074	0.004484	0.248086
	Zn218	Zn	0.742471	0.504038	-0.002972
	Zn219	Zn	0.241743	0.504632	-0.002987
	Zn220	Zn	-0.008490	0.753607	0.497212
	Zn221	Zn	-0.007961	0.254181	0.496660
	Zn222	Zn	-0.008220	0.504287	0.746847
	Zn223	Zn	-0.007559	0.502897	0.246100
	Zn224	Zn	0.492390	0.755078	-0.002458
	Zn225	Zn	0.492441	0.254245	-0.002177
	Zn226	Zn	0.741162	0.003338	0.497443
	Zn227	Zn	0.242146	0.004260	0.497152
	N228	N	0.405793	0.967384	0.675816
	N229	N	0.576945	0.041753	0.675334
	N230	N	0.577377	0.966981	0.319267
	N231	N	0.405882	0.041411	0.319194
	N232	N	0.669886	0.419304	0.959759
	N233	N	0.670973	0.590334	0.034776
	N234	N	0.313946	0.589703	0.959782
	N235	N	0.313426	0.419024	0.034732
	N236	N	0.954194	0.681095	0.411894
	N237	N	0.029045	0.682036	0.582581
	N238	N	0.954481	0.326642	0.581337
	N239	N	0.029636	0.325096	0.410994
	N240	N	0.955102	0.418061	0.675433
	N241	N	0.028779	0.590018	0.675718
	N242	N	0.954716	0.588501	0.318533
	N243	N	0.029498	0.416571	0.316964
	N244	N	0.406550	0.683008	0.959965
	N245	N	0.577790	0.683287	0.035070
	N246	N	0.577998	0.325813	0.960386
	N247	N	0.407222	0.326768	0.035334
	N248	N	0.669147	0.966245	0.412384
	N249	N	0.670283	0.040948	0.583256
	N250	N	0.314025	0.966817	0.582512
	N251	N	0.313313	0.041387	0.411845
	N252	N	0.906802	0.465957	0.174294
	N253	N	0.078853	0.540312	0.175941
	N254	N	0.077031	0.467094	0.818679
	N255	N	0.906140	0.541784	0.818317
	N256	N	0.171040	0.917496	0.460059
	N257	N	0.169480	0.088942	0.534597
	N258	N	0.813406	0.088547	0.459331
	N259	N	0.813068	0.918017	0.534425
	N260	N	0.454782	0.182030	0.912714
	N261	N	0.529873	0.182409	0.082959
	N262	N	0.454502	0.827083	0.082461
	N263	N	0.530210	0.826475	0.912164
	N264	N	0.454654	0.919705	0.175152
	N265	N	0.529038	0.091430	0.177433
	N266	N	0.454702	0.089416	0.819534
	N267	N	0.529146	0.917899	0.818080
	N268	N	0.905987	0.182484	0.459382
	N269	N	0.076947	0.181850	0.534276
	N270	N	0.076575	0.825548	0.459586
	N271	N	0.905760	0.825043	0.534431
	N272	N	0.170042	0.467569	0.911012
	N273	N	0.169778	0.541616	0.081991
	N274	N	0.814062	0.466503	0.082187
	N275	N	0.813936	0.542040	0.911928
	O276	O	0.509967	0.500067	0.503748
	H277	H	0.505712	0.492913	0.497772
	H278	H	0.508394	0.498330	0.498215
	O279	O	0.311947	0.266946	0.225964
	H280	H	0.304947	0.264439	0.222142
	H281	H	0.312293	0.268593	0.233345
	O282	O	1.001600	0.002946	1.024852
	H283	H	1.002744	0.008208	1.027998
	H284	H	1.007404	0.004216	1.020554
	O285	O	1.244060	0.202173	1.179217
	H286	H	1.249350	0.208547	1.175730
	H287	H	1.241942	0.194420	1.179214
	O288	O	1.542186	0.503168	-0.539498
	H289	H	1.555835	0.506252	-0.538624
	H290	H	1.547779	0.506908	-0.548193
	O291	O	-0.459671	0.585519	-0.520262
	H292	H	-0.464084	0.581758	-0.512754
	H293	H	-0.460952	0.579486	-0.520084
	O294	O	0.499427	0.594314	0.460629
	H295	H	0.501196	0.600710	0.459943
	H296	H	0.502156	0.601500	0.466238
	O297	O	0.479099	0.538197	-0.481517
	H298	H	0.473108	0.526770	-0.483056
	H299	H	0.475994	0.550248	-0.483415
	O300	O	0.975726	-0.013813	1.034325
	H301	H	0.978119	-0.016086	1.034629
	H302	H	0.976133	-0.008667	1.034279
	O303	O	0.498972	0.524965	0.479183
	H304	H	0.493243	0.531557	0.489351
	H305	H	0.505822	0.524445	0.474896
	O306	O	-0.484100	1.528777	1.496456
	H307	H	-0.484065	1.529941	1.492530
	H308	H	-0.479889	1.528885	1.490139
	O309	O	0.459626	0.516823	0.522118
	H310	H	0.459419	0.521388	0.525049
	H311	H	0.467436	0.523440	0.524938
