data_Molecule from HDF5

_cell_length_a		16.560472
_cell_length_b		16.645374
_cell_length_c		16.560308
_cell_angle_alpha	90.038725
_cell_angle_beta	90.088355
_cell_angle_gamma	89.843337
_symmetry_space_group_name_H-M	'P 1'
_symmetry_Int_Tables_number		1

loop_
	_symmetry_equiv_pos_as_xyz
	x,y,z

loop_
	_atom_site_label
	_atom_site_type_symbol
	_atom_site_fract_x
	_atom_site_fract_y
	_atom_site_fract_z
	H0	H	0.411744	0.870439	0.705803
	H1	H	0.623600	0.180617	0.711710
	H2	H	0.616470	0.871221	0.266929
	H3	H	0.409926	0.183895	0.266183
	H4	H	0.730623	0.423991	0.826289
	H5	H	0.730422	0.625971	0.143792
	H6	H	0.292719	0.632273	0.828517
	H7	H	0.292632	0.424550	0.141664
	H8	H	0.857934	0.747212	0.381834
	H9	H	0.171198	0.747037	0.589607
	H10	H	0.856002	0.308278	0.586943
	H11	H	0.170659	0.306438	0.380788
	H12	H	0.854636	0.426692	0.700225
	H13	H	0.170969	0.629682	0.705066
	H14	H	0.856604	0.630035	0.266366
	H15	H	0.170586	0.422546	0.263792
	H16	H	0.407571	0.749954	0.830446
	H17	H	0.613023	0.741826	0.144913
	H18	H	0.616250	0.305969	0.828615
	H19	H	0.408262	0.306259	0.141625
	H20	H	0.733656	0.871477	0.383544
	H21	H	0.739639	0.180301	0.595561
	H22	H	0.294721	0.870691	0.589494
	H23	H	0.293598	0.184080	0.382809
	H24	H	0.908831	0.371311	0.205264
	H25	H	0.118800	0.682954	0.206433
	H26	H	0.118020	0.370897	0.764072
	H27	H	0.912081	0.684515	0.766836
	H28	H	0.231873	0.926452	0.326994
	H29	H	0.233248	0.129873	0.642689
	H30	H	0.792714	0.130913	0.329439
	H31	H	0.791596	0.918658	0.639449
	H32	H	0.356974	0.247604	0.879492
	H33	H	0.669181	0.248579	0.091366
	H34	H	0.356419	0.808599	0.089521
	H35	H	0.670209	0.805187	0.882101
	H36	H	0.355521	0.927801	0.203062
	H37	H	0.671045	0.129423	0.204913
	H38	H	0.357756	0.131416	0.764381
	H39	H	0.669997	0.921305	0.764793
	H40	H	0.907648	0.247296	0.329210
	H41	H	0.118426	0.248136	0.641435
	H42	H	0.118862	0.807224	0.327542
	H43	H	0.909569	0.803828	0.639776
	H44	H	0.235126	0.371439	0.879831
	H45	H	0.235288	0.682503	0.090895
	H46	H	0.795152	0.369772	0.086153
	H47	H	0.794998	0.684984	0.883602
	H48	H	0.418712	0.142384	0.580100
	H49	H	0.605294	0.918704	0.565976
	H50	H	0.604462	0.140506	0.396966
	H51	H	0.422639	0.913461	0.391206
	H52	H	0.599040	0.438778	0.094656
	H53	H	0.604130	0.615112	0.873253
	H54	H	0.428827	0.622259	0.097996
	H55	H	0.420712	0.440872	0.873527
	H56	H	0.126031	0.611257	0.393611
	H57	H	0.902459	0.621716	0.566430
	H58	H	0.126776	0.433192	0.573374
	H59	H	0.900620	0.441280	0.388461
	H60	H	0.124799	0.438831	0.571233
	H61	H	0.905186	0.610310	0.572777
	H62	H	0.129528	0.620020	0.390853
	H63	H	0.899634	0.430117	0.396769
	H64	H	0.417024	0.617057	0.100342
	H65	H	0.600581	0.620341	0.872205
	H66	H	0.603742	0.434047	0.099066
	H67	H	0.428365	0.439964	0.874911
	H68	H	0.603051	0.139994	0.394723
	H69	H	0.606756	0.912723	0.578737
	H70	H	0.431504	0.136607	0.579190
	H71	H	0.426218	0.916218	0.395958
	H72	H	0.923601	0.638195	0.073303
	H73	H	0.103050	0.415271	0.074975
	H74	H	0.103103	0.639654	0.892492
	H75	H	0.923877	0.413176	0.885489
	H76	H	0.104399	0.939925	0.596825
	H77	H	0.098214	0.117094	0.374700
	H78	H	0.924237	0.120823	0.598954
	H79	H	0.925916	0.932137	0.371451
	H80	H	0.627226	0.117753	0.895499
	H81	H	0.400818	0.117067	0.075243
	H82	H	0.625677	0.940471	0.078566
	H83	H	0.403343	0.938171	0.900300
	H84	H	0.629321	0.931111	0.080073
	H85	H	0.399878	0.118310	0.076590
	H86	H	0.624457	0.116616	0.902640
	H87	H	0.402075	0.941214	0.896456
	H88	H	0.924150	0.111976	0.597499
	H89	H	0.106423	0.122707	0.369932
	H90	H	0.101916	0.933172	0.597071
	H91	H	0.920198	0.941301	0.371846
	H92	H	0.100116	0.638142	0.894678
	H93	H	0.099016	0.417641	0.072727
	H94	H	0.919884	0.639372	0.074590
	H95	H	0.924802	0.416802	0.897379
	H96	H	0.422613	0.137367	0.567920
	H97	H	0.594097	0.919322	0.575280
	H98	H	0.602229	0.139301	0.397192
	H99	H	0.419299	0.915143	0.396861
	H100	H	0.606235	0.441077	0.096696
	H101	H	0.606460	0.620188	0.870851
	H102	H	0.426525	0.609833	0.094623
	H103	H	0.424442	0.433634	0.871818
	H104	H	0.126649	0.618260	0.400032
	H105	H	0.898793	0.620259	0.579432
	H106	H	0.126672	0.438154	0.576734
	H107	H	0.906006	0.441777	0.401535
	H108	H	0.922843	0.639491	0.077092
	H109	H	0.104085	0.416794	0.070438
	H110	H	0.104036	0.639222	0.896446
	H111	H	0.914127	0.411862	0.893605
	H112	H	0.108183	0.934585	0.600231
	H113	H	0.107964	0.112014	0.373017
	H114	H	0.931335	0.116685	0.595774
	H115	H	0.930232	0.941680	0.376124
	H116	H	0.624273	0.111153	0.898038
	H117	H	0.400959	0.118840	0.075276
	H118	H	0.625245	0.933735	0.071298
	H119	H	0.401000	0.935769	0.895577
	C120	C	0.392994	0.035330	0.606996
	C121	C	0.636021	1.018506	0.607584
	C122	C	0.634831	0.036308	0.364798
	C123	C	0.391710	1.018728	0.363898
	C124	C	0.634198	0.406072	-0.006817
	C125	C	0.634017	0.647993	0.976800
	C126	C	0.391790	0.648795	-0.005742
	C127	C	0.392275	0.406263	0.976967
	C128	C	0.023360	0.648238	0.363451
	C129	C	1.005906	0.648546	0.605302
	C130	C	0.021928	0.406056	0.605056
	C131	C	1.005451	0.405453	0.363244
	C132	C	0.891186	0.535468	0.106159
	C133	C	0.134384	0.519089	0.105430
	C134	C	0.134666	0.535538	0.862699
	C135	C	0.891163	0.518533	0.862544
	C136	C	0.135925	0.905371	0.493734
	C137	C	0.135590	0.148664	0.476332
	C138	C	0.893522	0.147937	0.494018
	C139	C	0.893579	0.905666	0.476106
	C140	C	0.522108	0.147649	0.865206
	C141	C	0.504452	0.149055	0.107130
	C142	C	0.522205	0.905689	0.107669
	C143	C	0.505529	0.905703	0.865187
	C144	C	0.392395	0.917596	0.666246
	C145	C	0.640904	0.134103	0.670681
	C146	C	0.635580	0.918177	0.306354
	C147	C	0.390945	0.136881	0.305726
	C148	C	0.691931	0.404884	0.874101
	C149	C	0.691085	0.645654	0.096601
	C150	C	0.332394	0.650745	0.875960
	C151	C	0.332735	0.405422	0.094908
	C152	C	0.904854	0.707330	0.362834
	C153	C	0.124300	0.707049	0.607659
	C154	C	0.903131	0.348049	0.605401
	C155	C	0.123443	0.346033	0.361779
	C156	C	0.902589	0.406483	0.662283
	C157	C	0.123908	0.648873	0.665095
	C158	C	0.904182	0.649013	0.305680
	C159	C	0.123599	0.403895	0.303896
	C160	C	0.389344	0.709224	0.876807
	C161	C	0.632989	0.703226	0.097180
	C162	C	0.634907	0.346520	0.875061
	C163	C	0.390090	0.346824	0.094809
	C164	C	0.693642	0.918261	0.364318
	C165	C	0.698287	0.134312	0.612660
	C166	C	0.334440	0.917473	0.608265
	C167	C	0.332836	0.136888	0.363318
	C168	C	0.890333	0.418041	0.165223
	C169	C	0.137339	0.635948	0.166591
	C170	C	0.136652	0.417950	0.803621
	C171	C	0.891954	0.637369	0.805608
	C172	C	0.193438	0.906068	0.374489
	C173	C	0.193947	0.149168	0.595266
	C174	C	0.833000	0.149307	0.376397
	C175	C	0.832638	0.901391	0.592964
	C176	C	0.404415	0.207912	0.861664
	C177	C	0.622580	0.208266	0.109254
	C178	C	0.403525	0.848254	0.108302
	C179	C	0.623393	0.845521	0.863380
	C180	C	0.403160	0.907073	0.164967
	C181	C	0.623404	0.149294	0.165748
	C182	C	0.404574	0.149676	0.804663
	C183	C	0.623344	0.903182	0.805295
	C184	C	0.890424	0.207068	0.376173
	C185	C	0.136988	0.207914	0.594649
	C186	C	0.137113	0.847102	0.374824
	C187	C	0.891250	0.844383	0.593137
	C188	C	0.195005	0.418403	0.861122
	C189	C	0.195162	0.635932	0.108935
	C190	C	0.833589	0.417415	0.106225
	C191	C	0.834075	0.637613	0.863736
	C192	C	0.417248	0.117345	0.582692
	C193	C	0.609536	0.937951	0.580862
	C194	C	0.610412	0.118485	0.389350
	C195	C	0.415708	0.936296	0.387794
	C196	C	0.609980	0.430876	0.075436
	C197	C	0.610385	0.625261	0.893694
	C198	C	0.416977	0.623669	0.076332
	C199	C	0.417438	0.430987	0.894733
	C200	C	0.105878	0.623541	0.387726
	C201	C	0.923696	0.624494	0.580044
	C202	C	0.104523	0.429880	0.580771
	C203	C	0.923320	0.430678	0.388173
	C204	C	0.915324	0.617653	0.082005
	C205	C	0.109143	0.437717	0.079920
	C206	C	0.109388	0.617527	0.887383
	C207	C	0.914157	0.435558	0.885615
	C208	C	0.111760	0.929215	0.576469
	C209	C	0.111133	0.124252	0.394042
	C210	C	0.919314	0.123354	0.576182
	C211	C	0.918568	0.931118	0.394266
	C212	C	0.604137	0.122491	0.891286
	C213	C	0.422080	0.125099	0.082617
	C214	C	0.605199	0.928728	0.083513
	C215	C	0.423474	0.931034	0.890318
	Zn216	Zn	0.514468	0.026771	0.736082
	Zn217	Zn	0.513337	0.027888	0.235315
	Zn218	Zn	0.762621	0.526681	-0.016010
	Zn219	Zn	0.263287	0.527928	-0.015357
	Zn220	Zn	0.015083	0.777419	0.484181
	Zn221	Zn	0.013561	0.276930	0.484758
	Zn222	Zn	0.012836	0.527013	0.733515
	Zn223	Zn	0.013787	0.526948	0.234555
	Zn224	Zn	0.513082	0.776961	-0.013608
	Zn225	Zn	0.513464	0.276864	-0.014591
	Zn226	Zn	0.764705	0.027329	0.486281
	Zn227	Zn	0.263865	0.026966	0.485489
	N228	N	0.428130	0.991883	0.665638
	N229	N	0.602841	0.061045	0.667706
	N230	N	0.599706	0.992670	0.306338
	N231	N	0.426977	0.062468	0.305983
	N232	N	0.691525	0.441362	0.948536
	N233	N	0.692022	0.612214	0.020680
	N234	N	0.333884	0.613747	0.949929
	N235	N	0.333967	0.441633	0.020373
	N236	N	0.980118	0.707244	0.397728
	N237	N	0.049924	0.706913	0.570960
	N238	N	0.978474	0.347356	0.570916
	N239	N	0.048834	0.346708	0.397787
	N240	N	0.977617	0.441604	0.662510
	N241	N	0.049167	0.613355	0.663877
	N242	N	0.978936	0.613114	0.305695
	N243	N	0.048997	0.440022	0.304577
	N244	N	0.425492	0.708140	0.951412
	N245	N	0.598549	0.705109	0.021715
	N246	N	0.599653	0.347150	0.950020
	N247	N	0.426381	0.347292	0.020423
	N248	N	0.693342	0.992770	0.399785
	N249	N	0.695561	0.061369	0.574125
	N250	N	0.334621	0.991763	0.572310
	N251	N	0.333405	0.062537	0.398910
	N252	N	0.925378	0.492654	0.165522
	N253	N	0.100193	0.562321	0.164789
	N254	N	0.099961	0.492007	0.804251
	N255	N	0.926514	0.562293	0.804606
	N256	N	0.193087	0.941321	0.449523
	N257	N	0.193395	0.113276	0.520636
	N258	N	0.834665	0.113296	0.450867
	N259	N	0.833920	0.938923	0.519206
	N260	N	0.478633	0.206808	0.898398
	N261	N	0.547609	0.208550	0.073793
	N262	N	0.478774	0.846995	0.073658
	N263	N	0.548998	0.846662	0.899787
	N264	N	0.478169	0.941935	0.164684
	N265	N	0.548916	0.113182	0.164708
	N266	N	0.479058	0.113206	0.806249
	N267	N	0.549044	0.939925	0.806409
	N268	N	0.927198	0.206502	0.450521
	N269	N	0.101374	0.207857	0.519713
	N270	N	0.102295	0.846232	0.450101
	N271	N	0.928402	0.846911	0.519320
	N272	N	0.193995	0.492797	0.897000
	N273	N	0.193594	0.562243	0.071771
	N274	N	0.833575	0.491703	0.070478
	N275	N	0.833158	0.562516	0.898040
	O276	O	-0.175504	0.837837	-0.208082
	H277	H	-0.155442	0.848494	-0.183095
	H278	H	-0.162242	0.864974	-0.194238
	O279	O	0.704360	0.721036	0.297956
	H280	H	0.687996	0.707498	0.323051
	H281	H	0.690083	0.697960	0.317424
	O282	O	0.521900	-0.256272	1.534070
	H283	H	0.527922	-0.255783	1.539645
	H284	H	0.509489	-0.252862	1.530626
	O285	O	0.733269	0.308897	0.703597
	H286	H	0.741801	0.294969	0.697477
	H287	H	0.728201	0.327327	0.718134
	O288	O	0.547748	0.666747	0.693930
	H289	H	0.558674	0.669970	0.693487
	H290	H	0.545449	0.656305	0.699759
	O291	O	0.336057	0.341058	0.300503
	H292	H	0.358409	0.356374	0.311238
	H293	H	0.337854	0.360522	0.306840
	O294	O	0.902376	0.061931	0.875306
	H295	H	0.904205	0.057724	0.864149
	H296	H	0.912268	0.065756	0.890385
	O297	O	0.288107	0.477370	0.430895
	H298	H	0.291060	0.496786	0.455663
	H299	H	0.291679	0.465646	0.441838
	O300	O	-0.303100	-0.262233	0.504054
	H301	H	-0.300192	-0.256618	0.512953
	H302	H	-0.302109	-0.259366	0.499071
	O303	O	0.216147	0.155518	-0.019181
	H304	H	0.224373	0.157003	-0.013484
	H305	H	0.219013	0.169987	-0.005802
	O306	O	0.499397	0.545394	0.589864
	H307	H	0.487742	0.533141	0.574239
	H308	H	0.515483	0.541493	0.595519
	O309	O	0.713189	0.311693	0.456278
	H310	H	0.710484	0.302727	0.471850
	H311	H	0.715206	0.303488	0.450892
	O312	O	0.302086	0.735722	0.699920
	H313	H	0.325205	0.726384	0.685383
	H314	H	0.316050	0.730106	0.691112
	O315	O	1.127649	1.154984	1.070447
	H316	H	1.134037	1.151078	1.080428
	H317	H	1.125934	1.147376	1.064292
	O318	O	0.686484	0.561085	0.442197
	H319	H	0.692293	0.540876	0.452521
	H320	H	0.669227	0.553863	0.448484
	O321	O	0.052681	1.075794	0.763120
	H322	H	0.046389	1.068383	0.760916
	H323	H	0.045194	1.086329	0.782705
	O324	O	0.875651	0.970637	-0.052468
	H325	H	0.867404	0.948613	-0.040231
	H326	H	0.885623	0.982426	-0.053267
	O327	O	-0.504807	0.491560	0.277845
	H328	H	-0.496624	0.501334	0.285373
	H329	H	-0.517055	0.506481	0.280587
	O330	O	-0.018489	0.249116	0.766793
	H331	H	-0.019716	0.248276	0.762127
	H332	H	-0.019549	0.250582	0.745694
	O333	O	0.311890	0.323070	0.690838
	H334	H	0.292953	0.339153	0.700789
	H335	H	0.303913	0.313983	0.689707
	O336	O	1.179835	0.112756	-0.071185
	H337	H	1.167058	0.123309	-0.081746
	H338	H	1.187247	0.103240	-0.064219
	O339	O	0.964810	-0.081669	0.969393
	H340	H	0.965871	-0.096592	0.964220
	H341	H	0.958278	-0.085060	0.978910
	O342	O	-0.477151	-0.453840	0.274172
	H343	H	-0.477358	-0.440928	0.277204
	H344	H	-0.462425	-0.454878	0.277433
	O345	O	0.065293	0.971578	1.182050
	H346	H	0.044809	0.969584	1.188332
	H347	H	0.047696	0.971798	1.183349
	O348	O	-0.209573	-0.194956	1.024162
	H349	H	-0.232586	-0.220986	1.032825
	H350	H	-0.204494	-0.195584	1.067138
	O351	O	0.530819	0.477817	0.595601
	H352	H	0.537041	0.470275	0.599000
	H353	H	0.530667	0.484996	0.603496
	O354	O	-0.370783	0.656863	0.477394
	H355	H	-0.366892	0.633983	0.496333
	H356	H	-0.379559	0.678652	0.490932
	O357	O	0.166735	0.251122	0.091365
	H358	H	0.182179	0.270541	0.109136
	H359	H	0.181704	0.256764	0.098108
	O360	O	-0.194245	-0.185306	1.192249
	H361	H	-0.228528	-0.212731	1.227951
	H362	H	-0.200452	-0.131153	1.200068
	O363	O	-0.024101	-0.187292	0.196892
	H364	H	-0.049478	-0.201063	0.209361
	H365	H	-0.046637	-0.200589	0.201577
	O366	O	0.547807	0.310945	0.269337
	H367	H	0.538423	0.312994	0.254962
	H368	H	0.548520	0.310075	0.260191
	O369	O	1.004176	0.239066	0.151775
	H370	H	1.030278	0.234679	0.157058
	H371	H	1.010908	0.258632	0.169098
	O372	O	0.995260	1.126600	0.091609
	H373	H	0.987544	1.128767	0.087958
	H374	H	1.000181	1.141637	0.104115
	O375	O	0.794836	0.174545	-0.009540
	H376	H	0.798407	0.177079	-0.012950
	H377	H	0.790336	0.184548	-0.006903
	O378	O	0.802227	-0.020182	0.197741
	H379	H	0.787144	-0.000382	0.204678
	H380	H	0.821253	0.000457	0.197846
	O381	O	0.223077	0.811984	0.959380
	H382	H	0.228042	0.799563	0.947925
	H383	H	0.229806	0.813995	0.945021
	O384	O	0.809032	0.231660	0.849555
	H385	H	0.787661	0.233137	0.842825
	H386	H	0.838379	0.236989	0.859144
	O387	O	0.859849	1.029275	0.057424
	H388	H	0.877385	1.047111	0.057869
	H389	H	0.847673	1.030036	0.060765
	O390	O	0.000388	1.061886	1.084038
	H391	H	-0.004452	1.069013	1.083361
	H392	H	0.007412	1.064533	1.076229
	O393	O	0.733391	0.486173	0.267497
	H394	H	0.742653	0.485852	0.273676
	H395	H	0.743757	0.498353	0.254017
	O396	O	0.339794	0.591625	0.523843
	H397	H	0.333376	0.600156	0.521025
	H398	H	0.360027	0.605175	0.519996
	O399	O	0.313698	-0.271673	1.279637
	H400	H	0.309191	-0.251706	1.261283
	H401	H	0.301558	-0.298128	1.266734
	O402	O	0.618579	0.320285	0.581471
	H403	H	0.646985	0.303858	0.599909
	H404	H	0.593766	0.307500	0.586577
	O405	O	1.224395	0.047149	0.816151
	H406	H	1.226407	0.038759	0.814304
	H407	H	1.221672	0.032632	0.815662
	O408	O	-0.278821	-0.264897	-0.307107
	H409	H	-0.246878	-0.230446	-0.276843
	H410	H	-0.298340	-0.260191	-0.332295
	O411	O	0.302704	0.738925	0.451655
	H412	H	0.302536	0.746727	0.432787
	H413	H	0.289357	0.750206	0.429077
	O414	O	0.508047	0.619956	0.554083
	H415	H	0.493532	0.613624	0.549826
	H416	H	0.520247	0.622184	0.560276
	O417	O	0.731970	0.568646	0.705623
	H418	H	0.742805	0.600514	0.713221
	H419	H	0.750146	0.586986	0.721305
	O420	O	0.672775	0.525477	0.454585
	H421	H	0.666789	0.511396	0.472762
	H422	H	0.666403	0.513574	0.464105
	O423	O	0.093439	0.240522	0.895839
	H424	H	0.085464	0.226390	0.893062
	H425	H	0.092946	0.237703	0.922670
	O426	O	0.719962	0.315977	0.276924
	H427	H	0.691023	0.336225	0.272219
	H428	H	0.718556	0.330960	0.308680
	O429	O	1.483733	0.744836	1.275648
	H430	H	1.466534	0.750022	1.272314
	H431	H	1.480308	0.757666	1.266953
	O432	O	0.546288	0.365211	0.499114
	H433	H	0.541453	0.356798	0.508134
	H434	H	0.526391	0.366372	0.492480
	O435	O	0.223702	1.234698	0.191208
	H436	H	0.228806	1.193112	0.185008
	H437	H	0.247800	1.247872	0.216600
	O438	O	0.482199	0.305926	0.702144
	H439	H	0.455653	0.307899	0.708871
	H440	H	0.473488	0.291876	0.726003
	O441	O	0.228587	0.026748	0.115371
	H442	H	0.216163	0.016129	0.107906
	H443	H	0.226809	0.014231	0.109059
	O444	O	0.389409	0.614627	0.585716
	H445	H	0.382368	0.605210	0.590564
	H446	H	0.396305	0.608782	0.597893
	O447	O	0.307602	1.554300	1.281192
	H448	H	0.293905	1.552739	1.274857
	H449	H	0.306233	1.548753	1.297342
	O450	O	0.068483	0.799287	1.036275
	H451	H	0.085177	0.795550	1.040745
	H452	H	0.063287	0.798882	1.056705
	O453	O	0.205984	-0.158060	1.174696
	H454	H	0.186003	-0.139921	1.162114
	H455	H	0.191561	-0.139692	1.160632
	O456	O	0.055716	-0.016867	0.966102
	H457	H	0.047439	-0.029183	0.970814
	H458	H	0.049432	-0.025388	0.956732
	O459	O	1.043980	1.002318	-0.046241
	H460	H	1.045737	0.995450	-0.050710
	H461	H	1.046167	1.007780	-0.044085
	O462	O	0.518524	0.558013	0.683204
	H463	H	0.531835	0.544632	0.692856
	H464	H	0.537654	0.551814	0.681476
	O465	O	0.885959	0.004779	-0.238854
	H466	H	0.866030	0.008407	-0.229129
	H467	H	0.876968	0.003684	-0.246367
	O468	O	0.450530	0.326623	0.435598
	H469	H	0.454538	0.320738	0.438035
	H470	H	0.431714	0.323117	0.426025
	O471	O	0.338602	0.515345	0.681288
	H472	H	0.324378	0.519763	0.690921
	H473	H	0.351147	0.522489	0.688008
	O474	O	0.824008	0.218143	0.175737
	H475	H	0.832472	0.212256	0.156099
	H476	H	0.791701	0.246159	0.202365
	O477	O	0.297869	0.312954	1.522509
	H478	H	0.294491	0.312289	1.534119
	H479	H	0.288429	0.300795	1.526363
	O480	O	0.218391	-0.100782	0.781491
	H481	H	0.208719	-0.107433	0.768487
	H482	H	0.214366	-0.111396	0.765267
	O483	O	-0.125187	0.081928	0.906818
	H484	H	-0.117231	0.084273	0.915551
	H485	H	-0.118786	0.088288	0.905278
	O486	O	1.032795	-0.187924	0.873778
	H487	H	1.016069	-0.189591	0.881709
	H488	H	1.036943	-0.192251	0.897675
	O489	O	1.060899	0.909605	-0.231585
	H490	H	1.060750	0.895810	-0.224316
	H491	H	1.054808	0.913961	-0.235863
