data_Molecule from HDF5

_cell_length_a		16.306501
_cell_length_b		16.200706
_cell_length_c		16.265328
_cell_angle_alpha	90.234742
_cell_angle_beta	89.896885
_cell_angle_gamma	90.016798
_symmetry_space_group_name_H-M	'P 1'
_symmetry_Int_Tables_number		1

loop_
	_symmetry_equiv_pos_as_xyz
	x,y,z

loop_
	_atom_site_label
	_atom_site_type_symbol
	_atom_site_fract_x
	_atom_site_fract_y
	_atom_site_fract_z
	H0	H	0.408618	0.843251	0.702782
	H1	H	0.606001	0.172152	0.704965
	H2	H	0.605675	0.843632	0.276167
	H3	H	0.410677	0.173888	0.277252
	H4	H	0.723942	0.407310	0.826588
	H5	H	0.723318	0.607355	0.153903
	H6	H	0.293544	0.606910	0.826975
	H7	H	0.292360	0.407816	0.153780
	H8	H	0.844790	0.722418	0.392793
	H9	H	0.171438	0.725988	0.590454
	H10	H	0.844222	0.297632	0.587373
	H11	H	0.172089	0.293549	0.390681
	H12	H	0.845968	0.410088	0.705280
	H13	H	0.172355	0.608800	0.705282
	H14	H	0.845795	0.607198	0.275678
	H15	H	0.172674	0.409965	0.275350
	H16	H	0.409303	0.721202	0.826683
	H17	H	0.605339	0.721650	0.154223
	H18	H	0.606586	0.293983	0.826298
	H19	H	0.410523	0.294322	0.154562
	H20	H	0.723574	0.844654	0.389420
	H21	H	0.721430	0.173073	0.589715
	H22	H	0.291806	0.845283	0.589267
	H23	H	0.293350	0.172697	0.391341
	H24	H	0.911771	0.343489	0.203003
	H25	H	0.108748	0.671793	0.205099
	H26	H	0.108861	0.343785	0.773748
	H27	H	0.911447	0.672662	0.778383
	H28	H	0.223394	0.908740	0.326840
	H29	H	0.224432	0.111094	0.653070
	H30	H	0.794919	0.107611	0.326398
	H31	H	0.793398	0.911833	0.653816
	H32	H	0.345628	0.221345	0.893023
	H33	H	0.672508	0.221587	0.089154
	H34	H	0.345175	0.792738	0.088639
	H35	H	0.672858	0.794056	0.890903
	H36	H	0.345741	0.907025	0.205814
	H37	H	0.671955	0.106843	0.204921
	H38	H	0.345663	0.106759	0.775416
	H39	H	0.671618	0.907482	0.772426
	H40	H	0.911849	0.221380	0.325986
	H41	H	0.105394	0.223684	0.654544
	H42	H	0.107504	0.793549	0.326834
	H43	H	0.908592	0.795900	0.654113
	H44	H	0.224425	0.344075	0.889503
	H45	H	0.225030	0.671948	0.090626
	H46	H	0.795464	0.342599	0.088250
	H47	H	0.794175	0.671218	0.891489
	H48	H	0.417173	0.127797	0.593393
	H49	H	0.593219	0.892393	0.584907
	H50	H	0.596490	0.123208	0.402855
	H51	H	0.423238	0.894242	0.396371
	H52	H	0.603867	0.420281	0.106858
	H53	H	0.599021	0.604210	0.873576
	H54	H	0.420562	0.595683	0.104380
	H55	H	0.422581	0.412526	0.875710
	H56	H	0.127915	0.601809	0.389006
	H57	H	0.891697	0.604103	0.583880
	H58	H	0.124058	0.417714	0.580122
	H59	H	0.888361	0.415619	0.384311
	H60	H	0.125368	0.418005	0.585089
	H61	H	0.894019	0.600499	0.583102
	H62	H	0.125279	0.609564	0.403102
	H63	H	0.891241	0.404738	0.402603
	H64	H	0.418814	0.605216	0.107036
	H65	H	0.608275	0.601484	0.870806
	H66	H	0.597996	0.412696	0.105961
	H67	H	0.411037	0.410313	0.870946
	H68	H	0.609321	0.128202	0.398135
	H69	H	0.601843	0.893487	0.572210
	H70	H	0.423991	0.120874	0.576776
	H71	H	0.410721	0.892195	0.404725
	H72	H	0.908598	0.627135	0.081807
	H73	H	0.095781	0.392356	0.080898
	H74	H	0.106336	0.624768	0.902993
	H75	H	0.919035	0.392641	0.900847
	H76	H	0.106775	0.925937	0.606462
	H77	H	0.107955	0.101170	0.372432
	H78	H	0.917020	0.103827	0.606903
	H79	H	0.919412	0.917824	0.374899
	H80	H	0.626691	0.102962	0.895579
	H81	H	0.394323	0.094010	0.084280
	H82	H	0.622977	0.920473	0.081206
	H83	H	0.388557	0.910083	0.886322
	H84	H	0.626613	0.914931	0.087164
	H85	H	0.389854	0.104333	0.089508
	H86	H	0.624451	0.098887	0.898630
	H87	H	0.392980	0.907109	0.906184
	H88	H	0.911042	0.107652	0.609656
	H89	H	0.098176	0.094615	0.377213
	H90	H	0.090599	0.919931	0.603200
	H91	H	0.915404	0.910587	0.371972
	H92	H	0.103938	0.627088	0.892603
	H93	H	0.106395	0.390550	0.078041
	H94	H	0.918775	0.626464	0.089757
	H95	H	0.911436	0.388871	0.897076
	H96	H	0.405899	0.127177	0.578675
	H97	H	0.608568	0.887659	0.585236
	H98	H	0.598678	0.127391	0.389309
	H99	H	0.411095	0.888359	0.390530
	H100	H	0.606880	0.411578	0.109492
	H101	H	0.602473	0.595104	0.874946
	H102	H	0.411503	0.597947	0.107526
	H103	H	0.415405	0.421539	0.875804
	H104	H	0.121739	0.593861	0.401664
	H105	H	0.892679	0.600955	0.587031
	H106	H	0.126337	0.413120	0.582313
	H107	H	0.896855	0.424893	0.401557
	H108	H	0.919129	0.621673	0.077645
	H109	H	0.102957	0.389250	0.088636
	H110	H	0.096321	0.622465	0.899789
	H111	H	0.918816	0.389142	0.891783
	H112	H	0.102533	0.909050	0.610485
	H113	H	0.097043	0.106652	0.373584
	H114	H	0.910318	0.100198	0.607874
	H115	H	0.911326	0.918053	0.373112
	H116	H	0.625966	0.098343	0.892270
	H117	H	0.392959	0.104572	0.077063
	H118	H	0.624782	0.911584	0.079839
	H119	H	0.396292	0.925857	0.897356
	C120	C	0.386535	0.016816	0.611559
	C121	C	0.629422	0.999862	0.610439
	C122	C	0.629952	0.017308	0.367893
	C123	C	0.386459	1.000095	0.368457
	C124	C	0.630780	0.386168	-0.001087
	C125	C	0.631180	0.629263	0.981554
	C126	C	0.387698	0.628472	-0.001487
	C127	C	0.386972	0.385753	0.982088
	C128	C	0.016872	0.630111	0.369467
	C129	C	1.000378	0.631443	0.613314
	C130	C	0.017145	0.387902	0.611108
	C131	C	1.000509	0.386670	0.367967
	C132	C	0.887716	0.516295	0.111418
	C133	C	0.130751	0.499397	0.111568
	C134	C	0.130537	0.516306	0.868869
	C135	C	0.887609	0.498892	0.868394
	C136	C	0.129106	0.888393	0.498710
	C137	C	0.129819	0.130837	0.482018
	C138	C	0.886093	0.131315	0.499064
	C139	C	0.886682	0.887762	0.481867
	C140	C	0.517351	0.128667	0.868232
	C141	C	0.500396	0.129482	0.112115
	C142	C	0.516838	0.886582	0.111131
	C143	C	0.500516	0.885504	0.867187
	C144	C	0.388490	0.892895	0.665989
	C145	C	0.626242	0.123438	0.666245
	C146	C	0.626636	0.893124	0.313365
	C147	C	0.389637	0.124186	0.313944
	C148	C	0.685812	0.387552	0.875494
	C149	C	0.685767	0.627706	0.104863
	C150	C	0.331721	0.626509	0.875776
	C151	C	0.331157	0.388220	0.105116
	C152	C	0.893825	0.684729	0.372206
	C153	C	0.122962	0.687521	0.610775
	C154	C	0.893542	0.334066	0.608429
	C155	C	0.123621	0.331850	0.370583
	C156	C	0.894486	0.390127	0.666985
	C157	C	0.123221	0.629429	0.668134
	C158	C	0.894306	0.627635	0.313890
	C159	C	0.123707	0.389037	0.312846
	C160	C	0.389417	0.683635	0.875562
	C161	C	0.627051	0.684466	0.105116
	C162	C	0.627729	0.330914	0.875380
	C163	C	0.389682	0.331360	0.105448
	C164	C	0.685348	0.893737	0.369685
	C165	C	0.683596	0.123772	0.608959
	C166	C	0.330271	0.893825	0.609383
	C167	C	0.331438	0.123889	0.370806
	C168	C	0.890939	0.392515	0.165727
	C169	C	0.129200	0.622816	0.167421
	C170	C	0.128702	0.392928	0.812060
	C171	C	0.890635	0.622883	0.814778
	C172	C	0.185056	0.889341	0.375633
	C173	C	0.185730	0.130187	0.604809
	C174	C	0.832578	0.127747	0.375498
	C175	C	0.831192	0.890943	0.604935
	C176	C	0.394447	0.183742	0.871851
	C177	C	0.623565	0.184254	0.109650
	C178	C	0.394014	0.830768	0.108917
	C179	C	0.623670	0.830988	0.869737
	C180	C	0.394349	0.887544	0.167257
	C181	C	0.623099	0.127419	0.167624
	C182	C	0.394355	0.126728	0.813512
	C183	C	0.622975	0.887243	0.810767
	C184	C	0.890768	0.184421	0.375197
	C185	C	0.126552	0.186151	0.605477
	C186	C	0.127324	0.832152	0.375726
	C187	C	0.888715	0.833443	0.605235
	C188	C	0.186304	0.392760	0.869400
	C189	C	0.186784	0.622833	0.110203
	C190	C	0.833091	0.392122	0.108643
	C191	C	0.832444	0.622353	0.871222
	C192	C	0.408953	0.102934	0.589469
	C193	C	0.607549	0.913455	0.587579
	C194	C	0.608045	0.103842	0.390192
	C195	C	0.408543	0.913966	0.390637
	C196	C	0.609269	0.408437	0.085096
	C197	C	0.609668	0.606674	0.895432
	C198	C	0.410324	0.606169	0.084253
	C199	C	0.409611	0.408110	0.896397
	C200	C	0.102722	0.608154	0.391503
	C201	C	0.914839	0.608737	0.591080
	C202	C	0.103194	0.409801	0.588843
	C203	C	0.914494	0.408444	0.389794
	C204	C	0.909203	0.602736	0.089575
	C205	C	0.108484	0.413078	0.089142
	C206	C	0.108763	0.602429	0.891816
	C207	C	0.909795	0.412452	0.890178
	C208	C	0.106681	0.911751	0.584336
	C209	C	0.107659	0.107711	0.396380
	C210	C	0.906785	0.110320	0.585708
	C211	C	0.908928	0.909139	0.395583
	C212	C	0.603600	0.106584	0.889408
	C213	C	0.414543	0.107508	0.090050
	C214	C	0.602630	0.909008	0.089007
	C215	C	0.414708	0.907794	0.889894
	Zn216	Zn	0.508490	0.007466	0.738784
	Zn217	Zn	0.508114	0.008391	0.240042
	Zn218	Zn	0.759364	0.507192	-0.009997
	Zn219	Zn	0.258827	0.507347	-0.009923
	Zn220	Zn	0.008029	0.759358	0.490839
	Zn221	Zn	0.008376	0.259093	0.490189
	Zn222	Zn	0.009612	0.508222	0.740834
	Zn223	Zn	0.009161	0.508408	0.239855
	Zn224	Zn	0.509056	0.757737	-0.010409
	Zn225	Zn	0.509356	0.257667	-0.009236
	Zn226	Zn	0.758087	0.009191	0.489719
	Zn227	Zn	0.258071	0.009190	0.490274
	N228	N	0.422681	0.970490	0.667332
	N229	N	0.593282	0.045360	0.667180
	N230	N	0.593002	0.970899	0.312155
	N231	N	0.423024	0.046100	0.312215
	N232	N	0.687918	0.421296	0.953171
	N233	N	0.688544	0.594379	0.026951
	N234	N	0.330542	0.592952	0.953297
	N235	N	0.329057	0.421065	0.027275
	N236	N	0.971017	0.686356	0.405907
	N237	N	0.045483	0.688852	0.577366
	N238	N	0.970822	0.332622	0.574131
	N239	N	0.046060	0.330042	0.403983
	N240	N	0.972334	0.422875	0.668688
	N241	N	0.046079	0.595241	0.669681
	N242	N	0.971992	0.594464	0.312003
	N243	N	0.046187	0.422745	0.311227
	N244	N	0.423501	0.685028	0.952885
	N245	N	0.593785	0.685493	0.027373
	N246	N	0.594276	0.329824	0.953073
	N247	N	0.423772	0.329895	0.028074
	N248	N	0.687386	0.971981	0.402922
	N249	N	0.685579	0.045863	0.574851
	N250	N	0.328738	0.971758	0.576178
	N251	N	0.329240	0.045954	0.403888
	N252	N	0.924134	0.470501	0.167594
	N253	N	0.095056	0.545267	0.168284
	N254	N	0.095038	0.470801	0.811627
	N255	N	0.924326	0.545022	0.813078
	N256	N	0.186326	0.923695	0.453218
	N257	N	0.187747	0.096318	0.527166
	N258	N	0.829415	0.095633	0.453507
	N259	N	0.829797	0.923958	0.527226
	N260	N	0.471940	0.184964	0.905212
	N261	N	0.546272	0.185664	0.076012
	N262	N	0.471157	0.830180	0.074539
	N263	N	0.546375	0.829636	0.904061
	N264	N	0.471580	0.921573	0.168907
	N265	N	0.545554	0.093784	0.168913
	N266	N	0.471811	0.093150	0.811247
	N267	N	0.545365	0.920311	0.809201
	N268	N	0.923530	0.186636	0.453107
	N269	N	0.092477	0.186502	0.528314
	N270	N	0.093434	0.831229	0.453253
	N271	N	0.922470	0.831419	0.527518
	N272	N	0.187481	0.470301	0.904211
	N273	N	0.187851	0.544955	0.076090
	N274	N	0.830863	0.470222	0.075477
	N275	N	0.830542	0.544222	0.904002
	O276	O	1.036771	1.000887	0.060131
	H277	H	1.049760	1.001582	0.057397
	H278	H	1.032807	1.004539	0.055303
	O279	O	0.019485	0.013480	1.029831
	H280	H	0.022761	0.013693	1.031139
	H281	H	0.018288	0.006404	1.018368
	O282	O	0.126762	-0.068602	0.072311
	H283	H	0.118646	-0.067515	0.066592
	H284	H	0.139055	-0.066385	0.078059
	O285	O	0.484019	0.434258	0.483992
	H286	H	0.488267	0.417219	0.490948
	H287	H	0.491940	0.430747	0.481395
	O288	O	0.007162	-0.103772	-0.005161
	H289	H	0.002019	-0.105154	0.001984
	H290	H	0.017439	-0.099486	0.003832
	O291	O	0.045230	0.963676	-0.123706
	H292	H	0.050133	0.952116	-0.120981
	H293	H	0.048196	0.955266	-0.117779
	O294	O	-0.410906	0.609666	-0.474977
	H295	H	-0.412263	0.609723	-0.475706
	H296	H	-0.402826	0.606307	-0.471013
	O297	O	0.482257	0.520479	0.465342
	H298	H	0.483549	0.526939	0.469153
	H299	H	0.472531	0.516346	0.451973
	O300	O	0.540845	0.562813	0.535770
	H301	H	0.548472	0.564089	0.528392
	H302	H	0.534622	0.566709	0.534885
	O303	O	1.025556	0.036748	1.049687
	H304	H	1.021003	0.036621	1.051462
	H305	H	1.024922	0.032454	1.039495
	O306	O	-0.010823	0.947594	1.032045
	H307	H	-0.011956	0.947262	1.025538
	H308	H	-0.007225	0.947855	1.037307
	O309	O	-0.437259	0.501396	1.445022
	H310	H	-0.432805	0.501935	1.460550
	H311	H	-0.440930	0.495726	1.443910
	O312	O	0.061117	0.011928	1.025447
	H313	H	0.060916	0.014248	1.025729
	H314	H	0.052009	0.011538	1.023185
	O315	O	0.531803	0.498986	0.505365
	H316	H	0.532799	0.493709	0.507257
	H317	H	0.526843	0.504861	0.511976
	O318	O	0.139004	-0.061331	0.949805
	H319	H	0.145451	-0.059251	0.958291
	H320	H	0.144866	-0.060935	0.961377
	O321	O	1.024657	0.976726	1.055298
	H322	H	1.020880	0.975113	1.051655
	H323	H	1.012301	0.979783	1.058014
	O324	O	0.049367	-1.011514	0.969530
	H325	H	0.057395	-1.013311	0.969044
	H326	H	0.055550	-1.013996	0.968348
	O327	O	0.935729	0.945393	1.038594
	H328	H	0.933077	0.943795	1.031959
	H329	H	0.937251	0.942637	1.046550
	O330	O	0.482684	0.466535	0.426128
	H331	H	0.490011	0.470354	0.429279
	H332	H	0.480910	0.458877	0.423143
	O333	O	0.487166	0.497861	0.470831
	H334	H	0.480076	0.499687	0.478640
	H335	H	0.484162	0.497568	0.474244
	O336	O	0.490580	0.511043	0.480962
	H337	H	0.499374	0.507566	0.478326
	H338	H	0.494458	0.514397	0.490837
	O339	O	0.494538	0.520563	0.512807
	H340	H	0.501745	0.515925	0.515707
	H341	H	0.488231	0.528293	0.510938
	O342	O	0.549607	0.547223	0.547454
	H343	H	0.551520	0.538077	0.542801
	H344	H	0.541920	0.549684	0.547325
	O345	O	0.552842	0.587421	0.543629
	H346	H	0.555333	0.590955	0.539788
	H347	H	0.551546	0.589970	0.532685
