data_Molecule from HDF5

_cell_length_a		16.255380
_cell_length_b		16.388959
_cell_length_c		16.233657
_cell_angle_alpha	90.067190
_cell_angle_beta	90.026163
_cell_angle_gamma	90.026697
_symmetry_space_group_name_H-M	'P 1'
_symmetry_Int_Tables_number		1

loop_
	_symmetry_equiv_pos_as_xyz
	x,y,z

loop_
	_atom_site_label
	_atom_site_type_symbol
	_atom_site_fract_x
	_atom_site_fract_y
	_atom_site_fract_z
	H0	H	0.402370	0.845582	0.709299
	H1	H	0.599089	0.171574	0.711405
	H2	H	0.598166	0.845817	0.280501
	H3	H	0.402442	0.171048	0.280708
	H4	H	0.712912	0.411089	0.830538
	H5	H	0.713874	0.605423	0.159790
	H6	H	0.286562	0.605001	0.830980
	H7	H	0.286937	0.411527	0.160009
	H8	H	0.836514	0.725076	0.393128
	H9	H	0.162561	0.724355	0.594760
	H10	H	0.836523	0.292294	0.594724
	H11	H	0.162867	0.292175	0.395114
	H12	H	0.836235	0.410359	0.708278
	H13	H	0.164411	0.605770	0.707372
	H14	H	0.835568	0.605369	0.281404
	H15	H	0.164455	0.411049	0.282264
	H16	H	0.400104	0.722428	0.830902
	H17	H	0.599989	0.724175	0.159082
	H18	H	0.599629	0.292150	0.831666
	H19	H	0.401060	0.293582	0.159773
	H20	H	0.713934	0.845822	0.397253
	H21	H	0.715301	0.171791	0.594574
	H22	H	0.285416	0.845086	0.593998
	H23	H	0.285894	0.171819	0.397081
	H24	H	0.900886	0.345134	0.209040
	H25	H	0.099486	0.671112	0.211137
	H26	H	0.099168	0.345718	0.778996
	H27	H	0.902541	0.671411	0.780137
	H28	H	0.213441	0.911105	0.330793
	H29	H	0.212943	0.105244	0.659509
	H30	H	0.785222	0.105899	0.331968
	H31	H	0.785511	0.910905	0.660381
	H32	H	0.336605	0.223944	0.894935
	H33	H	0.663636	0.222918	0.093897
	H34	H	0.336374	0.793910	0.094168
	H35	H	0.663122	0.792626	0.894254
	H36	H	0.335322	0.911111	0.207882
	H37	H	0.664269	0.106332	0.208960
	H38	H	0.334673	0.104429	0.783316
	H39	H	0.664035	0.911296	0.781670
	H40	H	0.898790	0.223015	0.331443
	H41	H	0.099316	0.223081	0.658703
	H42	H	0.099550	0.792447	0.331483
	H43	H	0.900586	0.793496	0.659180
	H44	H	0.214382	0.345345	0.896772
	H45	H	0.214698	0.671751	0.093069
	H46	H	0.785809	0.345646	0.092610
	H47	H	0.784892	0.670779	0.895760
	H48	H	0.406726	0.121833	0.582632
	H49	H	0.590335	0.894376	0.587533
	H50	H	0.592657	0.124156	0.403618
	H51	H	0.409733	0.893133	0.399247
	H52	H	0.591882	0.414005	0.111827
	H53	H	0.589818	0.596779	0.881113
	H54	H	0.408323	0.610753	0.114355
	H55	H	0.400196	0.417187	0.877567
	H56	H	0.113822	0.602328	0.410056
	H57	H	0.881828	0.607282	0.584733
	H58	H	0.113769	0.425592	0.588111
	H59	H	0.880589	0.411185	0.399744
	H60	H	0.121364	0.408590	0.595665
	H61	H	0.885751	0.597154	0.583262
	H62	H	0.114686	0.594933	0.400228
	H63	H	0.884741	0.413778	0.406976
	H64	H	0.399444	0.596867	0.113089
	H65	H	0.588674	0.604796	0.878479
	H66	H	0.594972	0.413714	0.112489
	H67	H	0.412943	0.418783	0.881827
	H68	H	0.595306	0.124301	0.401189
	H69	H	0.593838	0.894277	0.587191
	H70	H	0.399568	0.126863	0.591629
	H71	H	0.406087	0.894134	0.405623
	H72	H	0.912748	0.621188	0.083114
	H73	H	0.096506	0.391085	0.091229
	H74	H	0.090949	0.624595	0.897422
	H75	H	0.910368	0.391085	0.893741
	H76	H	0.096455	0.914108	0.613768
	H77	H	0.087072	0.103682	0.379190
	H78	H	0.913954	0.102197	0.610618
	H79	H	0.914384	0.915332	0.381104
	H80	H	0.615833	0.098706	0.901955
	H81	H	0.384267	0.095632	0.089826
	H82	H	0.614857	0.921157	0.088979
	H83	H	0.384096	0.917766	0.900189
	H84	H	0.619688	0.911164	0.092067
	H85	H	0.381227	0.105886	0.090672
	H86	H	0.616473	0.103393	0.902416
	H87	H	0.380593	0.911342	0.900342
	H88	H	0.905126	0.104826	0.613435
	H89	H	0.097143	0.104252	0.375521
	H90	H	0.090984	0.918269	0.610423
	H91	H	0.903691	0.909881	0.376584
	H92	H	0.092176	0.622336	0.904998
	H93	H	0.091170	0.393349	0.089945
	H94	H	0.900801	0.624610	0.085303
	H95	H	0.910951	0.395701	0.907592
	H96	H	0.411620	0.124160	0.593971
	H97	H	0.593121	0.893029	0.590311
	H98	H	0.591456	0.124554	0.400687
	H99	H	0.402172	0.891275	0.399053
	H100	H	0.593487	0.416310	0.111724
	H101	H	0.596104	0.600981	0.877473
	H102	H	0.415876	0.597343	0.107560
	H103	H	0.409114	0.406759	0.877268
	H104	H	0.118279	0.606876	0.399198
	H105	H	0.881844	0.600509	0.592785
	H106	H	0.114892	0.409521	0.576463
	H107	H	0.884336	0.419394	0.400480
	H108	H	0.909390	0.625305	0.094261
	H109	H	0.095033	0.393601	0.085935
	H110	H	0.098120	0.625450	0.900697
	H111	H	0.898697	0.390967	0.901892
	H112	H	0.089174	0.911433	0.611863
	H113	H	0.093058	0.095075	0.379500
	H114	H	0.906275	0.096161	0.610573
	H115	H	0.903452	0.922043	0.379790
	H116	H	0.614920	0.101077	0.906629
	H117	H	0.384454	0.102042	0.081699
	H118	H	0.615383	0.912533	0.081725
	H119	H	0.384001	0.914098	0.905946
	C120	C	0.377649	0.016779	0.617757
	C121	C	0.621553	1.001178	0.617623
	C122	C	0.621706	0.017046	0.373229
	C123	C	0.377962	1.000440	0.373071
	C124	C	0.621647	0.386224	0.003406
	C125	C	0.621318	0.630071	0.987053
	C126	C	0.378741	0.629840	0.003397
	C127	C	0.378750	0.386375	0.987427
	C128	C	0.007827	0.630376	0.373381
	C129	C	0.991346	0.629937	0.615702
	C130	C	0.008504	0.386325	0.615857
	C131	C	0.991353	0.386412	0.373693
	C132	C	0.879074	0.516280	0.116223
	C133	C	0.122548	0.500413	0.117422
	C134	C	0.121885	0.516587	0.872876
	C135	C	0.878189	0.499912	0.872314
	C136	C	0.121020	0.886573	0.503360
	C137	C	0.121128	0.129483	0.486647
	C138	C	0.879109	0.129399	0.503501
	C139	C	0.878269	0.887067	0.487317
	C140	C	0.507866	0.129553	0.874200
	C141	C	0.491554	0.129595	0.116251
	C142	C	0.508131	0.886822	0.116115
	C143	C	0.491378	0.886633	0.873450
	C144	C	0.381033	0.894079	0.671911
	C145	C	0.619552	0.123033	0.673723
	C146	C	0.618945	0.894568	0.318175
	C147	C	0.381506	0.122727	0.318672
	C148	C	0.675812	0.389724	0.879816
	C149	C	0.676628	0.626807	0.110452
	C150	C	0.323806	0.626480	0.879927
	C151	C	0.324252	0.390222	0.110930
	C152	C	0.885021	0.686263	0.374293
	C153	C	0.114206	0.685562	0.614189
	C154	C	0.885119	0.331187	0.614068
	C155	C	0.114591	0.331104	0.375600
	C156	C	0.884903	0.389393	0.670748
	C157	C	0.115052	0.626696	0.670212
	C158	C	0.884576	0.627409	0.318139
	C159	C	0.115232	0.390137	0.319780
	C160	C	0.380208	0.684696	0.879956
	C161	C	0.619681	0.685374	0.110279
	C162	C	0.619091	0.331007	0.880327
	C163	C	0.381058	0.331779	0.110953
	C164	C	0.676440	0.894604	0.376299
	C165	C	0.677219	0.123319	0.615503
	C166	C	0.323052	0.893859	0.614324
	C167	C	0.323346	0.123029	0.376242
	C168	C	0.881120	0.393862	0.171256
	C169	C	0.120147	0.622616	0.173198
	C170	C	0.119148	0.394113	0.817880
	C171	C	0.881395	0.622768	0.817765
	C172	C	0.175804	0.889879	0.379834
	C173	C	0.175613	0.126257	0.610243
	C174	C	0.822722	0.126981	0.380654
	C175	C	0.823210	0.889972	0.611006
	C176	C	0.384983	0.185150	0.875493
	C177	C	0.614820	0.185085	0.114471
	C178	C	0.384766	0.832259	0.113692
	C179	C	0.614340	0.831137	0.874845
	C180	C	0.384612	0.890113	0.170727
	C181	C	0.615013	0.127129	0.171402
	C182	C	0.384179	0.126023	0.819803
	C183	C	0.614914	0.889912	0.818832
	C184	C	0.879339	0.185027	0.380497
	C185	C	0.119087	0.184829	0.609807
	C186	C	0.119132	0.831074	0.380179
	C187	C	0.880593	0.832145	0.610597
	C188	C	0.176674	0.394073	0.876083
	C189	C	0.177350	0.622931	0.114470
	C190	C	0.823554	0.394107	0.113437
	C191	C	0.822730	0.622388	0.875031
	C192	C	0.399546	0.102239	0.596016
	C193	C	0.599073	0.915861	0.594921
	C194	C	0.599676	0.102332	0.395445
	C195	C	0.399525	0.915066	0.394970
	C196	C	0.599795	0.408139	0.089903
	C197	C	0.598214	0.607654	0.901065
	C198	C	0.401241	0.608103	0.089321
	C199	C	0.400880	0.407949	0.901194
	C200	C	0.093497	0.608130	0.396346
	C201	C	0.905413	0.607977	0.593533
	C202	C	0.094357	0.408240	0.593603
	C203	C	0.905334	0.408268	0.395700
	C204	C	0.901412	0.601604	0.094191
	C205	C	0.100766	0.414729	0.095599
	C206	C	0.100135	0.602196	0.894535
	C207	C	0.900226	0.414706	0.894466
	C208	C	0.098821	0.908231	0.589628
	C209	C	0.098911	0.107422	0.400251
	C210	C	0.901976	0.107431	0.589352
	C211	C	0.900534	0.909102	0.401369
	C212	C	0.593659	0.107613	0.896987
	C213	C	0.405660	0.107622	0.093910
	C214	C	0.594343	0.908429	0.094020
	C215	C	0.405119	0.908171	0.895512
	Zn216	Zn	0.499623	0.008750	0.746294
	Zn217	Zn	0.500012	0.008444	0.244227
	Zn218	Zn	0.749840	0.508483	-0.005153
	Zn219	Zn	0.250736	0.508566	-0.004945
	Zn220	Zn	-0.000635	0.758309	0.495126
	Zn221	Zn	-0.000219	0.257755	0.494408
	Zn222	Zn	0.000242	0.508117	0.743862
	Zn223	Zn	-0.000509	0.508219	0.245890
	Zn224	Zn	0.499758	0.758171	-0.005081
	Zn225	Zn	0.499903	0.257963	-0.004429
	Zn226	Zn	0.750368	0.009139	0.495988
	Zn227	Zn	0.249520	0.008076	0.495249
	N228	N	0.414472	0.971178	0.673912
	N229	N	0.585457	0.046105	0.674860
	N230	N	0.585674	0.971517	0.316202
	N231	N	0.414556	0.045567	0.316577
	N232	N	0.677114	0.423589	0.957352
	N233	N	0.677386	0.592937	0.032787
	N234	N	0.322894	0.592895	0.957471
	N235	N	0.322719	0.423410	0.033136
	N236	N	0.962771	0.688122	0.408022
	N237	N	0.036401	0.687560	0.581126
	N238	N	0.962834	0.329047	0.580815
	N239	N	0.036721	0.328795	0.408491
	N240	N	0.962475	0.423067	0.672036
	N241	N	0.037526	0.592881	0.671462
	N242	N	0.961676	0.593380	0.317561
	N243	N	0.037759	0.424002	0.318541
	N244	N	0.413841	0.686899	0.957669
	N245	N	0.586083	0.687391	0.032443
	N246	N	0.586188	0.328912	0.958387
	N247	N	0.414229	0.329316	0.032995
	N248	N	0.678311	0.971739	0.409938
	N249	N	0.678594	0.046501	0.581583
	N250	N	0.320703	0.971302	0.581515
	N251	N	0.321175	0.045886	0.409556
	N252	N	0.914890	0.471002	0.173170
	N253	N	0.086763	0.545456	0.175132
	N254	N	0.085870	0.471240	0.815799
	N255	N	0.915073	0.545882	0.816055
	N256	N	0.177052	0.923702	0.457316
	N257	N	0.176924	0.092504	0.532478
	N258	N	0.822349	0.093045	0.458099
	N259	N	0.821871	0.923608	0.533382
	N260	N	0.462749	0.187393	0.908783
	N261	N	0.537165	0.186752	0.080954
	N262	N	0.462504	0.830198	0.080274
	N263	N	0.536394	0.828767	0.908171
	N264	N	0.462402	0.923298	0.172360
	N265	N	0.537499	0.093320	0.172460
	N266	N	0.461686	0.092192	0.819073
	N267	N	0.537670	0.923852	0.818062
	N268	N	0.913636	0.186554	0.457856
	N269	N	0.085732	0.186681	0.531893
	N270	N	0.085783	0.828935	0.458171
	N271	N	0.913814	0.829934	0.532714
	N272	N	0.178206	0.471157	0.909944
	N273	N	0.179038	0.545976	0.080711
	N274	N	0.822181	0.471127	0.079928
	N275	N	0.820532	0.545161	0.908279
	O276	O	0.504481	0.579325	0.520074
	H277	H	0.489064	0.574555	0.517986
	H278	H	0.511989	0.565959	0.531255
	O279	O	-0.029360	0.002923	0.052965
	H280	H	-0.032185	0.015785	0.052275
	H281	H	-0.031304	0.009301	0.052470
	O282	O	1.017423	0.070786	1.029208
	H283	H	1.012868	0.064485	1.029187
	H284	H	1.021318	0.076286	1.028056
	O285	O	0.922016	0.088259	0.997820
	H286	H	0.934669	0.080990	1.000862
	H287	H	0.922003	0.094726	1.003075
	O288	O	0.993164	0.037244	-0.024229
	H289	H	1.002065	0.042679	-0.036157
	H290	H	0.995463	0.038995	-0.019596
	O291	O	-0.507708	0.567459	-0.480860
	H292	H	-0.505645	0.573512	-0.481297
	H293	H	-0.501959	0.584917	-0.479716
	O294	O	0.496513	0.601583	0.497887
	H295	H	0.498373	0.598923	0.502795
	H296	H	0.502469	0.608031	0.485774
	O297	O	-0.017296	1.022045	0.053241
	H298	H	-0.016999	1.016371	0.062472
	H299	H	-0.021260	1.022112	0.057670
	O300	O	1.002698	0.006263	0.983979
	H301	H	1.002188	0.006038	0.973813
	H302	H	1.000388	0.009790	0.992994
	O303	O	0.490494	0.542347	0.526952
	H304	H	0.491682	0.544395	0.525154
	H305	H	0.483514	0.543581	0.515761
	O306	O	-0.007933	1.058257	1.046578
	H307	H	-0.014710	1.051451	1.048532
	H308	H	-0.011215	1.051255	1.044815
	O309	O	0.511039	0.532692	0.493780
	H310	H	0.506708	0.538051	0.497473
	H311	H	0.509609	0.530685	0.502678
