data_Molecule from HDF5

_cell_length_a		16.450140
_cell_length_b		16.357272
_cell_length_c		16.275102
_cell_angle_alpha	89.894600
_cell_angle_beta	90.074272
_cell_angle_gamma	89.933669
_symmetry_space_group_name_H-M	'P 1'
_symmetry_Int_Tables_number		1

loop_
	_symmetry_equiv_pos_as_xyz
	x,y,z

loop_
	_atom_site_label
	_atom_site_type_symbol
	_atom_site_fract_x
	_atom_site_fract_y
	_atom_site_fract_z
	H0	H	0.386601	0.845008	0.724011
	H1	H	0.593797	0.165195	0.716493
	H2	H	0.598379	0.844168	0.279984
	H3	H	0.390224	0.164898	0.281923
	H4	H	0.713609	0.398668	0.841470
	H5	H	0.714579	0.610629	0.161068
	H6	H	0.272395	0.607345	0.841680
	H7	H	0.272711	0.397002	0.162259
	H8	H	0.836583	0.727057	0.391033
	H9	H	0.151757	0.724744	0.607871
	H10	H	0.834753	0.283167	0.604975
	H11	H	0.153945	0.283576	0.399310
	H12	H	0.834391	0.398517	0.720988
	H13	H	0.152934	0.606097	0.721767
	H14	H	0.835497	0.606532	0.279743
	H15	H	0.153116	0.396410	0.279484
	H16	H	0.386030	0.725363	0.841973
	H17	H	0.596993	0.723516	0.161798
	H18	H	0.595986	0.285598	0.840864
	H19	H	0.389591	0.283343	0.162380
	H20	H	0.718546	0.846103	0.391262
	H21	H	0.713664	0.163758	0.604871
	H22	H	0.268957	0.846242	0.610415
	H23	H	0.271595	0.163403	0.395220
	H24	H	0.891802	0.341994	0.218404
	H25	H	0.098284	0.662152	0.221469
	H26	H	0.092790	0.340943	0.784832
	H27	H	0.889899	0.663810	0.780196
	H28	H	0.214676	0.898320	0.341590
	H29	H	0.213167	0.107619	0.661639
	H30	H	0.774491	0.108642	0.341258
	H31	H	0.773949	0.897699	0.661619
	H32	H	0.334400	0.224044	0.895347
	H33	H	0.652850	0.221063	0.103062
	H34	H	0.334339	0.782422	0.108531
	H35	H	0.652835	0.782261	0.897428
	H36	H	0.333750	0.900455	0.222376
	H37	H	0.651777	0.107951	0.221676
	H38	H	0.334219	0.107903	0.780045
	H39	H	0.654134	0.900737	0.782558
	H40	H	0.892065	0.220877	0.340405
	H41	H	0.096540	0.220440	0.663165
	H42	H	0.100535	0.781582	0.341119
	H43	H	0.888955	0.781030	0.661188
	H44	H	0.213177	0.342911	0.896626
	H45	H	0.214189	0.661901	0.107892
	H46	H	0.770379	0.344706	0.107681
	H47	H	0.770842	0.663468	0.894165
	H48	H	0.411895	0.119607	0.603007
	H49	H	0.581419	0.890834	0.589462
	H50	H	0.588063	0.120028	0.407731
	H51	H	0.392631	0.887385	0.414332
	H52	H	0.583454	0.424156	0.113808
	H53	H	0.580103	0.593989	0.887099
	H54	H	0.404233	0.594823	0.117160
	H55	H	0.397181	0.408022	0.882969
	H56	H	0.108475	0.597740	0.415436
	H57	H	0.880133	0.592728	0.589524
	H58	H	0.108673	0.407815	0.591748
	H59	H	0.879371	0.412456	0.406149
	H60	H	0.106678	0.413367	0.589009
	H61	H	0.881282	0.590916	0.587094
	H62	H	0.103536	0.586791	0.416883
	H63	H	0.879418	0.407949	0.412531
	H64	H	0.400527	0.590494	0.116369
	H65	H	0.583113	0.590406	0.887197
	H66	H	0.572823	0.408054	0.115053
	H67	H	0.399394	0.421433	0.888661
	H68	H	0.577424	0.116319	0.411242
	H69	H	0.588126	0.888566	0.588149
	H70	H	0.409143	0.110847	0.575807
	H71	H	0.411141	0.890268	0.403911
	H72	H	0.907643	0.614287	0.085082
	H73	H	0.088539	0.387022	0.088052
	H74	H	0.081167	0.615574	0.915281
	H75	H	0.901711	0.390507	0.915227
	H76	H	0.081577	0.923365	0.612196
	H77	H	0.083195	0.093576	0.386740
	H78	H	0.903066	0.094355	0.617533
	H79	H	0.903050	0.919517	0.388104
	H80	H	0.609373	0.099397	0.908477
	H81	H	0.377553	0.092720	0.095039
	H82	H	0.605158	0.906542	0.081618
	H83	H	0.382661	0.910390	0.920651
	H84	H	0.601757	0.925365	0.089038
	H85	H	0.378528	0.098263	0.088416
	H86	H	0.606077	0.094257	0.913196
	H87	H	0.384132	0.924358	0.912126
	H88	H	0.902468	0.093040	0.618377
	H89	H	0.082712	0.092604	0.385735
	H90	H	0.073809	0.910681	0.613103
	H91	H	0.910394	0.914398	0.388779
	H92	H	0.086575	0.618195	0.912400
	H93	H	0.081505	0.387780	0.094817
	H94	H	0.898477	0.617864	0.087079
	H95	H	0.898993	0.388420	0.910488
	H96	H	0.387290	0.123064	0.588889
	H97	H	0.585070	0.887076	0.594521
	H98	H	0.586424	0.116181	0.419187
	H99	H	0.409702	0.895614	0.423997
	H100	H	0.591769	0.407758	0.121109
	H101	H	0.578863	0.589827	0.888439
	H102	H	0.405924	0.590306	0.114815
	H103	H	0.410127	0.411128	0.888689
	H104	H	0.108809	0.589695	0.406040
	H105	H	0.880887	0.590195	0.589934
	H106	H	0.107355	0.413342	0.594987
	H107	H	0.882839	0.414706	0.413000
	H108	H	0.905637	0.618557	0.093945
	H109	H	0.079888	0.391747	0.084957
	H110	H	0.080909	0.617003	0.907882
	H111	H	0.904663	0.390211	0.910549
	H112	H	0.087516	0.910806	0.618804
	H113	H	0.082644	0.093106	0.386615
	H114	H	0.903289	0.093263	0.616764
	H115	H	0.903524	0.911263	0.384923
	H116	H	0.607691	0.092184	0.906010
	H117	H	0.380780	0.090082	0.088053
	H118	H	0.610677	0.911125	0.100633
	H119	H	0.377510	0.911249	0.904621
	C120	C	0.370807	0.012526	0.623010
	C121	C	0.615165	0.995038	0.621797
	C122	C	0.615926	0.012419	0.379440
	C123	C	0.372366	0.996402	0.381050
	C124	C	0.613997	0.382119	0.010308
	C125	C	0.613621	0.624510	0.992765
	C126	C	0.371226	0.624341	0.010428
	C127	C	0.371098	0.381194	0.993155
	C128	C	0.002647	0.624455	0.378879
	C129	C	0.985503	0.623615	0.621649
	C130	C	0.002148	0.380626	0.623077
	C131	C	0.985775	0.380362	0.379167
	C132	C	0.871896	0.511624	0.121500
	C133	C	0.114976	0.494042	0.122125
	C134	C	0.114143	0.511021	0.880212
	C135	C	0.870394	0.495289	0.879273
	C136	C	0.114421	0.882063	0.509436
	C137	C	0.114256	0.124436	0.492901
	C138	C	0.872718	0.124748	0.510584
	C139	C	0.872786	0.881605	0.492855
	C140	C	0.502209	0.126304	0.878144
	C141	C	0.484547	0.124705	0.121920
	C142	C	0.501407	0.882119	0.123465
	C143	C	0.486204	0.882579	0.880125
	C144	C	0.368532	0.892902	0.683873
	C145	C	0.613943	0.116608	0.678514
	C146	C	0.617525	0.892513	0.319165
	C147	C	0.371033	0.116640	0.321217
	C148	C	0.673324	0.380669	0.889564
	C149	C	0.674168	0.627645	0.113190
	C150	C	0.311617	0.626441	0.889749
	C151	C	0.312604	0.379085	0.114119
	C152	C	0.883962	0.685828	0.374480
	C153	C	0.104689	0.683859	0.625120
	C154	C	0.882344	0.322040	0.624106
	C155	C	0.106217	0.322220	0.379401
	C156	C	0.882182	0.379635	0.681700
	C157	C	0.105019	0.624959	0.681968
	C158	C	0.883466	0.626312	0.318327
	C159	C	0.105439	0.378462	0.319695
	C160	C	0.368477	0.685072	0.890120
	C161	C	0.616001	0.684362	0.113483
	C162	C	0.614872	0.324269	0.889049
	C163	C	0.370730	0.322126	0.114104
	C164	C	0.677341	0.893374	0.374784
	C165	C	0.673607	0.115831	0.623115
	C166	C	0.309667	0.893482	0.627163
	C167	C	0.311652	0.115991	0.377379
	C168	C	0.871841	0.390681	0.179974
	C169	C	0.116472	0.614290	0.181825
	C170	C	0.113596	0.389682	0.822763
	C171	C	0.870073	0.615520	0.819497
	C172	C	0.174816	0.879907	0.389383
	C173	C	0.173598	0.126025	0.613678
	C174	C	0.814111	0.126659	0.389583
	C175	C	0.813303	0.879011	0.613200
	C176	C	0.382416	0.185108	0.876462
	C177	C	0.604849	0.182661	0.122759
	C178	C	0.381950	0.822450	0.126470
	C179	C	0.605306	0.822442	0.879019
	C180	C	0.381847	0.880982	0.183508
	C181	C	0.604434	0.125925	0.181435
	C182	C	0.382245	0.126912	0.819114
	C183	C	0.606054	0.881436	0.821565
	C184	C	0.872732	0.182451	0.388913
	C185	C	0.115385	0.182223	0.614374
	C186	C	0.117898	0.821557	0.389125
	C187	C	0.870480	0.820874	0.612965
	C188	C	0.173369	0.390832	0.878490
	C189	C	0.174213	0.614145	0.125084
	C190	C	0.811420	0.392157	0.124752
	C191	C	0.810948	0.615481	0.876347
	C192	C	0.395620	0.095962	0.596997
	C193	C	0.591800	0.910781	0.597680
	C194	C	0.591306	0.095762	0.405287
	C195	C	0.397196	0.912861	0.406816
	C196	C	0.589817	0.406354	0.094544
	C197	C	0.588019	0.598972	0.909422
	C198	C	0.396288	0.599004	0.094388
	C199	C	0.395153	0.406361	0.908704
	C200	C	0.085409	0.598796	0.405150
	C201	C	0.902423	0.598771	0.596099
	C202	C	0.085953	0.404638	0.598860
	C203	C	0.902397	0.404779	0.403447
	C204	C	0.896845	0.595272	0.096161
	C205	C	0.090461	0.410633	0.096573
	C206	C	0.090002	0.595010	0.904744
	C207	C	0.894682	0.411510	0.904776
	C208	C	0.088442	0.907529	0.592949
	C209	C	0.089850	0.100167	0.408352
	C210	C	0.896187	0.100544	0.595505
	C211	C	0.898053	0.907438	0.408992
	C212	C	0.585977	0.102223	0.902225
	C213	C	0.400916	0.100688	0.097502
	C214	C	0.584292	0.907066	0.097796
	C215	C	0.403030	0.907993	0.905105
	Zn216	Zn	0.494004	0.003847	0.749946
	Zn217	Zn	0.493054	0.004546	0.251918
	Zn218	Zn	0.742059	0.504011	0.001283
	Zn219	Zn	0.243110	0.502666	0.002061
	Zn220	Zn	-0.005969	0.753063	0.500652
	Zn221	Zn	-0.006211	0.251969	0.501830
	Zn222	Zn	-0.006975	0.502549	0.751180
	Zn223	Zn	-0.005885	0.502744	0.250391
	Zn224	Zn	0.492669	0.752799	0.001889
	Zn225	Zn	0.493106	0.253964	0.001314
	Zn226	Zn	0.744559	0.003650	0.501538
	Zn227	Zn	0.242296	0.004056	0.501178
	N228	N	0.405885	0.967875	0.681144
	N229	N	0.578436	0.040493	0.677853
	N230	N	0.579981	0.967542	0.321926
	N231	N	0.408118	0.041341	0.323485
	N232	N	0.672834	0.416089	0.965906
	N233	N	0.672828	0.591119	0.037037
	N234	N	0.313227	0.589537	0.965633
	N235	N	0.312709	0.415012	0.037802
	N236	N	0.959192	0.684911	0.411247
	N237	N	0.029505	0.683022	0.588248
	N238	N	0.957872	0.322588	0.588300
	N239	N	0.030711	0.322993	0.415583
	N240	N	0.957737	0.415236	0.681145
	N241	N	0.030042	0.587851	0.679609
	N242	N	0.958350	0.589050	0.320887
	N243	N	0.029646	0.413825	0.319527
	N244	N	0.404788	0.683819	0.966041
	N245	N	0.578957	0.682456	0.037926
	N246	N	0.578716	0.325103	0.965109
	N247	N	0.406360	0.323418	0.037688
	N248	N	0.676716	0.968986	0.411519
	N249	N	0.674547	0.039216	0.588536
	N250	N	0.310935	0.968987	0.589975
	N251	N	0.312438	0.040191	0.413902
	N252	N	0.908995	0.466101	0.178116
	N253	N	0.080454	0.538615	0.180325
	N254	N	0.077594	0.465417	0.823681
	N255	N	0.906379	0.539831	0.821254
	N256	N	0.172805	0.916687	0.465250
	N257	N	0.172845	0.090712	0.537127
	N258	N	0.814187	0.091228	0.466166
	N259	N	0.814374	0.915861	0.537249
	N260	N	0.457976	0.184923	0.912435
	N261	N	0.529292	0.182081	0.086535
	N262	N	0.457286	0.823001	0.090049
	N263	N	0.529506	0.822935	0.914473
	N264	N	0.457200	0.917280	0.181994
	N265	N	0.528757	0.090782	0.180908
	N266	N	0.457859	0.091172	0.819903
	N267	N	0.530747	0.917747	0.821888
	N268	N	0.908220	0.181550	0.465451
	N269	N	0.079272	0.181260	0.538231
	N270	N	0.081082	0.822907	0.464885
	N271	N	0.906436	0.822266	0.536731
	N272	N	0.173871	0.467435	0.913568
	N273	N	0.173480	0.538240	0.088904
	N274	N	0.811339	0.468414	0.089338
	N275	N	0.811050	0.539539	0.912794
	O276	O	0.300843	0.413677	0.701766
	H277	H	0.324096	0.435194	0.707427
	H278	H	0.292652	0.404756	0.712110
	O279	O	0.475182	0.573507	0.623488
	H280	H	0.470630	0.574023	0.633280
	H281	H	0.466332	0.575693	0.631765
	O282	O	0.468786	0.683402	0.294980
	H283	H	0.478898	0.695726	0.306579
	H284	H	0.471804	0.706735	0.302654
	O285	O	1.134505	-0.165135	-0.002548
	H286	H	1.135318	-0.174449	-0.000241
	H287	H	1.126755	-0.172659	-0.016549
	O288	O	-0.128967	0.026754	1.023987
	H289	H	-0.141576	0.031828	1.027466
	H290	H	-0.126792	0.035493	1.028707
	O291	O	0.304046	0.351795	0.531230
	H292	H	0.294165	0.373400	0.537977
	H293	H	0.294568	0.352241	0.514427
	O294	O	0.602378	0.301594	0.414929
	H295	H	0.613124	0.293215	0.405423
	H296	H	0.620004	0.300594	0.403197
	O297	O	1.066077	1.133250	1.181400
	H298	H	1.055815	1.136609	1.194420
	H299	H	1.082507	1.121462	1.181338
	O300	O	-0.079590	-0.157264	0.173154
	H301	H	-0.057049	-0.162762	0.173997
	H302	H	-0.079164	-0.163630	0.182452
	O303	O	0.569519	0.512411	0.434146
	H304	H	0.561841	0.506966	0.422563
	H305	H	0.564313	0.503520	0.441155
	O306	O	1.153465	0.178131	0.009624
	H307	H	1.160833	0.183469	0.008926
	H308	H	1.154388	0.177792	0.040412
	O309	O	0.688137	0.585175	0.661320
	H310	H	0.692470	0.567656	0.658755
	H311	H	0.691858	0.595595	0.654329
	O312	O	0.825674	0.945683	0.185127
	H313	H	0.823673	0.939952	0.186988
	H314	H	0.823202	0.939516	0.191085
	O315	O	0.498607	0.318560	0.415186
	H316	H	0.494441	0.336298	0.413408
	H317	H	0.496923	0.306929	0.426461
	O318	O	0.352647	0.646579	0.549065
	H319	H	0.343286	0.663796	0.565580
	H320	H	0.348310	0.640279	0.548248
	O321	O	0.895912	0.076148	0.805362
	H322	H	0.883158	0.095016	0.824812
	H323	H	0.889232	0.092223	0.790943
	O324	O	0.022127	-0.060882	1.008592
	H325	H	0.021291	-0.047278	1.005143
	H326	H	0.017269	-0.067262	1.008865
	O327	O	0.587252	0.335549	0.398077
	H328	H	0.573889	0.352524	0.393959
	H329	H	0.572858	0.325340	0.391224
	O330	O	0.670822	0.404680	0.586598
	H331	H	0.662405	0.411562	0.602501
	H332	H	0.667411	0.388070	0.574053
	O333	O	1.053731	1.029601	1.187359
	H334	H	1.059442	1.013114	1.190764
	H335	H	1.061687	1.022571	1.170630
	O336	O	0.668213	0.592811	0.680006
	H337	H	0.680115	0.597012	0.671506
	H338	H	0.658277	0.560966	0.667407
	O339	O	0.890610	0.011196	0.975505
	H340	H	0.878522	0.001755	0.977823
	H341	H	0.884164	0.012386	0.987996
	O342	O	0.083774	0.922913	1.082864
	H343	H	0.081220	0.914590	1.072241
	H344	H	0.079289	0.928383	1.083383
	O345	O	-0.128685	1.136723	0.889229
	H346	H	-0.113627	1.146343	0.906078
	H347	H	-0.138223	1.151750	0.889289
	O348	O	0.308565	0.584054	0.300670
	H349	H	0.304935	0.598222	0.287350
	H350	H	0.307190	0.614164	0.306427
	O351	O	-0.106508	-0.113005	-0.035668
	H352	H	-0.109307	-0.107197	-0.031565
	H353	H	-0.100778	-0.113179	-0.026749
	O354	O	0.819713	1.027575	-0.073495
	H355	H	0.802879	1.025101	-0.076497
	H356	H	0.814558	1.043530	-0.070887
	O357	O	-0.026097	1.073545	0.111401
	H358	H	-0.020329	1.075346	0.110195
	H359	H	-0.023363	1.079025	0.108185
	O360	O	0.537828	0.716607	0.714660
	H361	H	0.546694	0.741731	0.745401
	H362	H	0.582780	0.699506	0.699242
	O363	O	0.524667	0.682655	0.485989
	H364	H	0.538606	0.667024	0.503192
	H365	H	0.516999	0.685956	0.510800
	O366	O	0.504711	0.397982	0.679727
	H367	H	0.496970	0.399530	0.681563
	H368	H	0.496396	0.379542	0.665550
	O369	O	0.492115	0.372170	0.597613
	H370	H	0.481181	0.383745	0.593856
	H371	H	0.496834	0.357882	0.598369
	O372	O	0.487929	0.430344	0.348396
	H373	H	0.478869	0.434211	0.351175
	H374	H	0.469342	0.436601	0.339975
	O375	O	0.504827	0.342956	0.363571
	H376	H	0.502671	0.341131	0.356944
	H377	H	0.499207	0.341415	0.359499
	O378	O	0.687700	0.674048	0.516225
	H379	H	0.722017	0.693250	0.515200
	H380	H	0.685203	0.650528	0.495230
	O381	O	0.656507	0.498179	0.428558
	H382	H	0.669994	0.486093	0.419209
	H383	H	0.634441	0.503419	0.422287
	O384	O	0.059168	1.075371	0.900635
	H385	H	0.052868	1.067568	0.893559
	H386	H	0.076135	1.068340	0.892308
	O387	O	0.974370	1.149160	0.108748
	H388	H	0.982798	1.155108	0.111005
	H389	H	0.965571	1.136743	0.110202
	O390	O	0.525063	0.579226	0.455034
	H391	H	0.513098	0.577233	0.459851
	H392	H	0.524479	0.600578	0.449455
	O393	O	1.314204	-0.297844	0.396617
	H394	H	1.310642	-0.283082	0.425499
	H395	H	1.331711	-0.286603	0.395482
	O396	O	-0.001879	1.195812	0.987646
	H397	H	-0.000156	1.197431	0.991702
	H398	H	-0.001916	1.197174	0.970008
	O399	O	0.612554	0.610460	0.374322
	H400	H	0.609071	0.607677	0.371325
	H401	H	0.596943	0.607173	0.378195
	O402	O	1.109970	-0.035486	0.975573
	H403	H	1.111952	-0.033862	0.972795
	H404	H	1.112880	-0.056778	0.979204
	O405	O	0.090324	0.035226	0.035512
	H406	H	0.088092	0.034968	0.039147
	H407	H	0.078674	0.035442	0.037452
	O408	O	1.194204	0.872913	0.869006
	H409	H	1.189472	0.845395	0.863367
	H410	H	1.199832	0.887539	0.834117
	O411	O	0.825889	0.924353	-0.006548
	H412	H	0.828298	0.924089	0.011000
	H413	H	0.823119	0.925044	-0.015703
	O414	O	-0.001068	-0.048324	0.811251
	H415	H	-0.015442	-0.043218	0.799658
	H416	H	-0.003095	-0.024730	0.811381
	O417	O	0.365165	0.494981	0.497502
	H418	H	0.370669	0.494424	0.488345
	H419	H	0.361192	0.502559	0.498206
	O420	O	-0.006543	0.904061	-0.075561
	H421	H	-0.002947	0.904643	-0.084208
	H422	H	-0.006953	0.906498	-0.068040
	O423	O	1.432073	-0.621389	-0.484059
	H424	H	1.430902	-0.603410	-0.492313
	H425	H	1.429106	-0.624105	-0.485008
	O426	O	0.169814	0.014349	0.908996
	H427	H	0.172081	0.023033	0.908374
	H428	H	0.174632	0.013107	0.909487
	O429	O	0.341736	0.554107	0.569819
	H430	H	0.348918	0.539610	0.576451
	H431	H	0.342329	0.540882	0.560002
