data_Molecule from HDF5

_cell_length_a		16.374442
_cell_length_b		16.227151
_cell_length_c		16.240778
_cell_angle_alpha	89.931084
_cell_angle_beta	90.010774
_cell_angle_gamma	89.860271
_symmetry_space_group_name_H-M	'P 1'
_symmetry_Int_Tables_number		1

loop_
	_symmetry_equiv_pos_as_xyz
	x,y,z

loop_
	_atom_site_label
	_atom_site_type_symbol
	_atom_site_fract_x
	_atom_site_fract_y
	_atom_site_fract_z
	H0	H	0.408551	0.843079	0.716310
	H1	H	0.602218	0.171819	0.715649
	H2	H	0.602970	0.841883	0.290046
	H3	H	0.407543	0.172105	0.289825
	H4	H	0.722445	0.407490	0.839320
	H5	H	0.722898	0.606810	0.166501
	H6	H	0.290913	0.608351	0.839519
	H7	H	0.292302	0.407978	0.166041
	H8	H	0.842096	0.722355	0.403556
	H9	H	0.168287	0.722217	0.601170
	H10	H	0.841752	0.293279	0.601609
	H11	H	0.168630	0.291546	0.405277
	H12	H	0.843509	0.409302	0.719271
	H13	H	0.169675	0.604145	0.716439
	H14	H	0.843457	0.606490	0.285988
	H15	H	0.169446	0.408693	0.289347
	H16	H	0.410667	0.719495	0.837349
	H17	H	0.604162	0.720537	0.167221
	H18	H	0.604593	0.293959	0.838047
	H19	H	0.409157	0.293748	0.166722
	H20	H	0.721205	0.843225	0.403507
	H21	H	0.719218	0.171010	0.601481
	H22	H	0.290139	0.843619	0.603403
	H23	H	0.288873	0.170962	0.402526
	H24	H	0.910664	0.341757	0.215073
	H25	H	0.104941	0.671364	0.218144
	H26	H	0.105298	0.343117	0.789559
	H27	H	0.907795	0.671413	0.787885
	H28	H	0.222130	0.904828	0.339680
	H29	H	0.219804	0.106512	0.666140
	H30	H	0.788903	0.107660	0.339562
	H31	H	0.790611	0.907282	0.666674
	H32	H	0.343197	0.223441	0.904309
	H33	H	0.669309	0.221154	0.100834
	H34	H	0.342704	0.792734	0.100488
	H35	H	0.669659	0.792890	0.904059
	H36	H	0.341884	0.909910	0.217130
	H37	H	0.668749	0.105206	0.218572
	H38	H	0.342678	0.106221	0.788490
	H39	H	0.668781	0.909845	0.787475
	H40	H	0.907162	0.221211	0.338067
	H41	H	0.101602	0.219154	0.667151
	H42	H	0.103365	0.793082	0.338263
	H43	H	0.907789	0.793317	0.666649
	H44	H	0.222523	0.344274	0.903448
	H45	H	0.220585	0.671654	0.101799
	H46	H	0.790745	0.344003	0.103702
	H47	H	0.790630	0.671060	0.902236
	H48	H	0.418509	0.122234	0.595040
	H49	H	0.602378	0.887194	0.602769
	H50	H	0.599709	0.123960	0.410257
	H51	H	0.406183	0.887998	0.409070
	H52	H	0.593322	0.421232	0.115261
	H53	H	0.594552	0.598406	0.888723
	H54	H	0.408543	0.601930	0.121497
	H55	H	0.409473	0.416365	0.884331
	H56	H	0.121299	0.598752	0.407969
	H57	H	0.895493	0.592668	0.586729
	H58	H	0.122403	0.410175	0.597434
	H59	H	0.887985	0.405352	0.408568
	H60	H	0.120734	0.413000	0.594018
	H61	H	0.888358	0.594730	0.606798
	H62	H	0.120661	0.602490	0.410790
	H63	H	0.893370	0.418118	0.416943
	H64	H	0.413785	0.596339	0.118077
	H65	H	0.601325	0.606381	0.884250
	H66	H	0.597232	0.405255	0.120738
	H67	H	0.416251	0.418924	0.887190
	H68	H	0.596812	0.123401	0.408876
	H69	H	0.591002	0.892555	0.595231
	H70	H	0.407075	0.122707	0.587520
	H71	H	0.417768	0.891013	0.406365
	H72	H	0.915475	0.623308	0.093793
	H73	H	0.104511	0.391302	0.091612
	H74	H	0.102188	0.626735	0.903486
	H75	H	0.922643	0.390650	0.902946
	H76	H	0.100112	0.913657	0.620383
	H77	H	0.097553	0.094296	0.386794
	H78	H	0.911151	0.104942	0.620997
	H79	H	0.920071	0.922781	0.390941
	H80	H	0.621842	0.102535	0.908835
	H81	H	0.388780	0.107448	0.094737
	H82	H	0.623230	0.915021	0.102506
	H83	H	0.392439	0.916487	0.912581
	H84	H	0.621840	0.909357	0.093821
	H85	H	0.392316	0.097864	0.092074
	H86	H	0.620863	0.099033	0.910789
	H87	H	0.389223	0.915497	0.904900
	H88	H	0.906948	0.097416	0.620250
	H89	H	0.094707	0.102677	0.385787
	H90	H	0.099045	0.917901	0.618682
	H91	H	0.915720	0.904998	0.383200
	H92	H	0.092172	0.621542	0.911350
	H93	H	0.103623	0.388105	0.099986
	H94	H	0.913469	0.622856	0.093094
	H95	H	0.915866	0.394739	0.922514
	H96	H	0.407564	0.127685	0.600587
	H97	H	0.603355	0.890422	0.588476
	H98	H	0.597351	0.122873	0.412227
	H99	H	0.414236	0.893567	0.417520
	H100	H	0.608781	0.417897	0.121512
	H101	H	0.604595	0.595580	0.885736
	H102	H	0.416019	0.604164	0.119544
	H103	H	0.415576	0.411828	0.884724
	H104	H	0.119386	0.598506	0.411857
	H105	H	0.887967	0.611315	0.593495
	H106	H	0.121585	0.414438	0.598607
	H107	H	0.889004	0.419470	0.401136
	H108	H	0.913937	0.623601	0.095497
	H109	H	0.096629	0.391509	0.096354
	H110	H	0.105145	0.623833	0.915996
	H111	H	0.903054	0.386285	0.908181
	H112	H	0.095595	0.914160	0.618200
	H113	H	0.103933	0.100527	0.384329
	H114	H	0.915728	0.097973	0.617593
	H115	H	0.902415	0.919061	0.383844
	H116	H	0.622111	0.098869	0.906772
	H117	H	0.389302	0.099780	0.102141
	H118	H	0.618349	0.919049	0.093355
	H119	H	0.389380	0.909204	0.910683
	C120	C	0.383229	0.015937	0.623883
	C121	C	0.626446	0.998740	0.623728
	C122	C	0.626828	0.014886	0.381674
	C123	C	0.383525	0.999083	0.381783
	C124	C	0.627915	0.386242	0.010712
	C125	C	0.628793	0.628814	0.994361
	C126	C	0.384820	0.629429	0.011059
	C127	C	0.385508	0.386770	0.993999
	C128	C	0.013476	0.629051	0.380912
	C129	C	0.997761	0.628418	0.624573
	C130	C	0.013842	0.384807	0.625241
	C131	C	0.997815	0.385486	0.381155
	C132	C	0.885821	0.514973	0.123512
	C133	C	0.129239	0.498908	0.125038
	C134	C	0.128246	0.515845	0.881927
	C135	C	0.885097	0.499070	0.881693
	C136	C	0.126920	0.885699	0.510898
	C137	C	0.126702	0.127946	0.493976
	C138	C	0.882810	0.129158	0.511159
	C139	C	0.883862	0.886208	0.493982
	C140	C	0.514291	0.129205	0.880606
	C141	C	0.497801	0.129563	0.124966
	C142	C	0.513475	0.885876	0.124651
	C143	C	0.498061	0.885512	0.880540
	C144	C	0.387170	0.892131	0.678959
	C145	C	0.623000	0.122661	0.678159
	C146	C	0.623916	0.891238	0.327266
	C147	C	0.386131	0.122612	0.326766
	C148	C	0.683767	0.387891	0.887700
	C149	C	0.684385	0.627102	0.117661
	C150	C	0.329672	0.627660	0.887951
	C151	C	0.330448	0.388398	0.117200
	C152	C	0.890995	0.684853	0.382885
	C153	C	0.119894	0.684213	0.622127
	C154	C	0.890867	0.330752	0.622055
	C155	C	0.120248	0.329865	0.384420
	C156	C	0.891623	0.387785	0.680962
	C157	C	0.120503	0.625640	0.679375
	C158	C	0.891477	0.627103	0.324534
	C159	C	0.120628	0.388211	0.326976
	C160	C	0.388963	0.683178	0.886929
	C161	C	0.625485	0.683484	0.118058
	C162	C	0.625310	0.331267	0.887206
	C163	C	0.388498	0.331476	0.117566
	C164	C	0.682819	0.891989	0.383376
	C165	C	0.681376	0.122082	0.621574
	C166	C	0.328472	0.892537	0.622654
	C167	C	0.327481	0.122081	0.383013
	C168	C	0.889092	0.391434	0.178463
	C169	C	0.125596	0.622528	0.180027
	C170	C	0.125435	0.392109	0.827380
	C171	C	0.887679	0.622501	0.825865
	C172	C	0.183163	0.886389	0.388165
	C173	C	0.181390	0.125959	0.617285
	C174	C	0.827533	0.127487	0.387923
	C175	C	0.828565	0.887677	0.617653
	C176	C	0.391715	0.185257	0.883561
	C177	C	0.620616	0.183462	0.121793
	C178	C	0.391226	0.830755	0.121547
	C179	C	0.620785	0.830831	0.883466
	C180	C	0.390660	0.888911	0.179230
	C181	C	0.620143	0.126245	0.180641
	C182	C	0.391449	0.127306	0.825781
	C183	C	0.620442	0.888815	0.825445
	C184	C	0.886320	0.183875	0.387321
	C185	C	0.122998	0.182171	0.617757
	C186	C	0.124262	0.830307	0.387429
	C187	C	0.886520	0.830826	0.617556
	C188	C	0.184030	0.392793	0.883680
	C189	C	0.183293	0.622549	0.122441
	C190	C	0.829723	0.392324	0.122848
	C191	C	0.829082	0.622208	0.882442
	C192	C	0.404734	0.102033	0.601142
	C193	C	0.605194	0.912351	0.601953
	C194	C	0.604556	0.101179	0.403898
	C195	C	0.406044	0.913000	0.404264
	C196	C	0.606264	0.408216	0.096987
	C197	C	0.606748	0.606560	0.908451
	C198	C	0.406430	0.607419	0.097477
	C199	C	0.407259	0.409314	0.907579
	C200	C	0.098603	0.606489	0.403458
	C201	C	0.912543	0.606014	0.602316
	C202	C	0.099442	0.406161	0.603222
	C203	C	0.912189	0.407706	0.402541
	C204	C	0.907882	0.601069	0.100640
	C205	C	0.107810	0.412742	0.102744
	C206	C	0.106174	0.601922	0.903823
	C207	C	0.907390	0.412851	0.904429
	C208	C	0.104722	0.908549	0.596807
	C209	C	0.105054	0.105619	0.407879
	C210	C	0.904641	0.106712	0.597285
	C211	C	0.906056	0.909186	0.408281
	C212	C	0.599594	0.106705	0.902311
	C213	C	0.412244	0.108160	0.103003
	C214	C	0.599031	0.908052	0.102899
	C215	C	0.412351	0.907432	0.902827
	Zn216	Zn	0.505627	0.007492	0.751564
	Zn217	Zn	0.505242	0.007295	0.253893
	Zn218	Zn	0.756540	0.507071	0.002893
	Zn219	Zn	0.256985	0.507963	0.002656
	Zn220	Zn	0.005112	0.758028	0.502771
	Zn221	Zn	0.005277	0.256084	0.502755
	Zn222	Zn	0.006584	0.507213	0.753883
	Zn223	Zn	0.006165	0.506862	0.251930
	Zn224	Zn	0.506150	0.756686	0.002605
	Zn225	Zn	0.506367	0.258353	0.002375
	Zn226	Zn	0.755312	0.007133	0.503071
	Zn227	Zn	0.255082	0.006876	0.502364
	N228	N	0.420442	0.969975	0.680045
	N229	N	0.589349	0.044966	0.679239
	N230	N	0.589876	0.968898	0.325999
	N231	N	0.420465	0.045190	0.326046
	N232	N	0.685405	0.421313	0.965543
	N233	N	0.686471	0.593927	0.039765
	N234	N	0.327093	0.594923	0.966159
	N235	N	0.328669	0.421992	0.039422
	N236	N	0.967812	0.685883	0.417312
	N237	N	0.042636	0.685993	0.588765
	N238	N	0.967982	0.328763	0.588136
	N239	N	0.042907	0.328097	0.417280
	N240	N	0.968824	0.420806	0.682813
	N241	N	0.043666	0.591444	0.680773
	N242	N	0.968426	0.593233	0.323134
	N243	N	0.043450	0.422111	0.325048
	N244	N	0.422632	0.684118	0.964523
	N245	N	0.591637	0.684805	0.040563
	N246	N	0.591283	0.330240	0.964646
	N247	N	0.421931	0.330380	0.039805
	N248	N	0.684781	0.970003	0.416360
	N249	N	0.683700	0.044130	0.588484
	N250	N	0.326060	0.970334	0.589120
	N251	N	0.325897	0.044244	0.416547
	N252	N	0.923282	0.468837	0.178842
	N253	N	0.092823	0.544648	0.181838
	N254	N	0.091497	0.469572	0.826184
	N255	N	0.921708	0.544717	0.825245
	N256	N	0.184830	0.919980	0.465908
	N257	N	0.183892	0.092948	0.539290
	N258	N	0.825187	0.094282	0.465800
	N259	N	0.826667	0.921426	0.539711
	N260	N	0.468923	0.186617	0.916996
	N261	N	0.543664	0.185747	0.087921
	N262	N	0.468545	0.828823	0.088159
	N263	N	0.543688	0.828746	0.917079
	N264	N	0.467768	0.922353	0.181399
	N265	N	0.542721	0.093612	0.182665
	N266	N	0.468443	0.093191	0.823833
	N267	N	0.542961	0.921887	0.823577
	N268	N	0.919992	0.184926	0.464911
	N269	N	0.089417	0.183333	0.540155
	N270	N	0.090006	0.829656	0.464673
	N271	N	0.920059	0.829723	0.539998
	N272	N	0.186013	0.470819	0.916725
	N273	N	0.185741	0.544711	0.088946
	N274	N	0.827692	0.470100	0.089370
	N275	N	0.827574	0.544585	0.916416
	O276	O	0.522852	0.524241	0.450827
	H277	H	0.527507	0.527480	0.457132
	H278	H	0.521430	0.531113	0.442578
	O279	O	-0.004318	-0.071457	0.012409
	H280	H	-0.012096	-0.076900	0.025106
	H281	H	-0.003287	-0.088202	0.003706
	O282	O	0.519441	0.536723	0.497280
	H283	H	0.510603	0.534661	0.497172
	H284	H	0.527336	0.538820	0.493617
	O285	O	0.481299	0.454912	0.459721
	H286	H	0.485541	0.451270	0.465349
	H287	H	0.479490	0.460698	0.458325
	O288	O	1.006866	-0.012655	-0.017715
	H289	H	1.020015	-0.018920	-0.024619
	H290	H	0.995417	-0.015807	-0.021237
	O291	O	-0.476265	0.483481	-0.473813
	H292	H	-0.474501	0.478101	-0.476231
	H293	H	-0.479134	0.470382	-0.469241
	O294	O	0.520043	0.545220	0.523306
	H295	H	0.511827	0.537827	0.534243
	H296	H	0.515415	0.538606	0.520872
	O297	O	-0.073242	0.923324	0.036103
	H298	H	-0.078472	0.934972	0.049742
	H299	H	-0.066901	0.927281	0.034040
	O300	O	0.980087	-0.077554	1.024870
	H301	H	0.971606	-0.080592	1.033835
	H302	H	0.987263	-0.076126	1.024067
	O303	O	0.495070	0.484694	0.528346
	H304	H	0.496634	0.487014	0.526032
	H305	H	0.501434	0.490933	0.535171
	O306	O	-0.041588	0.957525	1.011854
	H307	H	-0.036601	0.963787	1.010474
	H308	H	-0.047365	0.955671	1.005661
	O309	O	0.534535	0.519462	0.488069
	H310	H	0.532257	0.517650	0.474980
	H311	H	0.530134	0.527486	0.479687
