data_Molecule from HDF5

_cell_length_a		16.354783
_cell_length_b		16.460048
_cell_length_c		16.519741
_cell_angle_alpha	89.732404
_cell_angle_beta	90.140984
_cell_angle_gamma	89.990395
_symmetry_space_group_name_H-M	'P 1'
_symmetry_Int_Tables_number		1

loop_
	_symmetry_equiv_pos_as_xyz
	x,y,z

loop_
	_atom_site_label
	_atom_site_type_symbol
	_atom_site_fract_x
	_atom_site_fract_y
	_atom_site_fract_z
	H0	H	0.400556	0.855902	0.728037
	H1	H	0.614040	0.170807	0.727588
	H2	H	0.615979	0.855260	0.283476
	H3	H	0.404037	0.169903	0.282797
	H4	H	0.729377	0.406572	0.846111
	H5	H	0.727099	0.614925	0.162331
	H6	H	0.280929	0.622910	0.848353
	H7	H	0.289311	0.409952	0.162580
	H8	H	0.848092	0.736176	0.399426
	H9	H	0.166758	0.733616	0.610657
	H10	H	0.851266	0.287054	0.615053
	H11	H	0.166994	0.296496	0.404407
	H12	H	0.848792	0.405744	0.726850
	H13	H	0.163849	0.622070	0.729943
	H14	H	0.848653	0.622747	0.281346
	H15	H	0.165913	0.412860	0.287893
	H16	H	0.398108	0.738693	0.847708
	H17	H	0.614630	0.735011	0.160546
	H18	H	0.612233	0.290970	0.845712
	H19	H	0.401910	0.289923	0.160213
	H20	H	0.728671	0.854938	0.402390
	H21	H	0.729892	0.172152	0.610689
	H22	H	0.287720	0.853940	0.609218
	H23	H	0.290764	0.171718	0.403023
	H24	H	0.900369	0.356093	0.229190
	H25	H	0.113766	0.671294	0.226474
	H26	H	0.116098	0.356578	0.780946
	H27	H	0.898160	0.669596	0.780096
	H28	H	0.226909	0.909946	0.347069
	H29	H	0.232517	0.118945	0.661133
	H30	H	0.785272	0.121344	0.348276
	H31	H	0.783924	0.905314	0.661761
	H32	H	0.347942	0.235032	0.897020
	H33	H	0.664505	0.237428	0.112290
	H34	H	0.349119	0.792812	0.108455
	H35	H	0.664689	0.788356	0.896241
	H36	H	0.350247	0.907274	0.224898
	H37	H	0.665021	0.122640	0.229360
	H38	H	0.349077	0.121042	0.780596
	H39	H	0.664204	0.904061	0.780271
	H40	H	0.901567	0.237312	0.348785
	H41	H	0.120590	0.238344	0.660342
	H42	H	0.112729	0.792279	0.347905
	H43	H	0.901062	0.789914	0.662135
	H44	H	0.227336	0.354482	0.900753
	H45	H	0.230765	0.669629	0.110830
	H46	H	0.785601	0.354473	0.111334
	H47	H	0.786216	0.671371	0.900331
	H48	H	0.421349	0.126621	0.596295
	H49	H	0.593525	0.901735	0.595916
	H50	H	0.593382	0.125234	0.413888
	H51	H	0.415733	0.898304	0.416715
	H52	H	0.597650	0.417798	0.118595
	H53	H	0.592482	0.594394	0.895080
	H54	H	0.415923	0.603466	0.116873
	H55	H	0.416847	0.425051	0.890176
	H56	H	0.122888	0.606406	0.413683
	H57	H	0.892201	0.601553	0.597639
	H58	H	0.116982	0.427890	0.586983
	H59	H	0.893723	0.428874	0.417624
	H60	H	0.120080	0.430760	0.597275
	H61	H	0.893631	0.606310	0.588667
	H62	H	0.119724	0.603097	0.418909
	H63	H	0.890520	0.424108	0.413031
	H64	H	0.419990	0.596553	0.114248
	H65	H	0.589246	0.607056	0.891575
	H66	H	0.598472	0.427901	0.115305
	H67	H	0.419080	0.424637	0.890806
	H68	H	0.594256	0.124345	0.417550
	H69	H	0.593269	0.903025	0.590359
	H70	H	0.421384	0.123737	0.589604
	H71	H	0.416685	0.895929	0.410696
	H72	H	0.916406	0.628122	0.098525
	H73	H	0.094286	0.401467	0.092142
	H74	H	0.095271	0.626166	0.916082
	H75	H	0.923320	0.400870	0.915643
	H76	H	0.100017	0.916692	0.621072
	H77	H	0.097379	0.106043	0.391571
	H78	H	0.913711	0.100076	0.619437
	H79	H	0.919103	0.924888	0.392822
	H80	H	0.620331	0.106176	0.921224
	H81	H	0.395694	0.101716	0.089436
	H82	H	0.622863	0.921765	0.091186
	H83	H	0.395128	0.931634	0.911701
	H84	H	0.621734	0.926191	0.092617
	H85	H	0.395979	0.096818	0.092918
	H86	H	0.616459	0.094300	0.918608
	H87	H	0.391644	0.919734	0.914385
	H88	H	0.924357	0.094697	0.614156
	H89	H	0.097859	0.102292	0.392186
	H90	H	0.101442	0.927582	0.617693
	H91	H	0.919809	0.926722	0.394057
	H92	H	0.090090	0.624371	0.915047
	H93	H	0.099342	0.398311	0.097153
	H94	H	0.922375	0.624390	0.092960
	H95	H	0.918047	0.401290	0.919867
	H96	H	0.415825	0.127414	0.591903
	H97	H	0.597796	0.901454	0.592834
	H98	H	0.596811	0.126533	0.415942
	H99	H	0.421838	0.899406	0.413490
	H100	H	0.589245	0.422414	0.112937
	H101	H	0.601802	0.602237	0.889015
	H102	H	0.424203	0.603893	0.114666
	H103	H	0.417893	0.422374	0.890569
	H104	H	0.120528	0.600192	0.413141
	H105	H	0.896861	0.595943	0.589733
	H106	H	0.122322	0.421152	0.593052
	H107	H	0.892724	0.422197	0.420726
	H108	H	0.913268	0.625725	0.089981
	H109	H	0.091978	0.400002	0.099677
	H110	H	0.092078	0.622866	0.919844
	H111	H	0.917048	0.398985	0.913354
	H112	H	0.090960	0.922838	0.616732
	H113	H	0.094400	0.103981	0.392932
	H114	H	0.924426	0.106864	0.617869
	H115	H	0.920960	0.924749	0.394011
	H116	H	0.622205	0.101202	0.909439
	H117	H	0.393098	0.101819	0.095133
	H118	H	0.623442	0.923225	0.095542
	H119	H	0.397120	0.926877	0.923461
	C120	C	0.386445	0.021618	0.625768
	C121	C	0.629046	1.005293	0.626488
	C122	C	0.629116	0.021685	0.383477
	C123	C	0.386604	1.003286	0.382453
	C124	C	0.628505	0.390439	0.011863
	C125	C	0.627594	0.633484	0.995853
	C126	C	0.385345	0.635244	0.012346
	C127	C	0.385982	0.391818	0.994918
	C128	C	0.015683	0.636243	0.382905
	C129	C	0.998759	0.633744	0.625155
	C130	C	0.016128	0.391878	0.626653
	C131	C	0.997953	0.394063	0.385854
	C132	C	0.884761	0.521716	0.127235
	C133	C	0.128306	0.504203	0.127491
	C134	C	0.127172	0.520929	0.883768
	C135	C	0.885609	0.504243	0.883153
	C136	C	0.129198	0.891047	0.514102
	C137	C	0.129924	0.135266	0.496350
	C138	C	0.887012	0.134902	0.513826
	C139	C	0.886310	0.891898	0.497204
	C140	C	0.515077	0.133864	0.883207
	C141	C	0.499442	0.133527	0.125447
	C142	C	0.517562	0.891549	0.125102
	C143	C	0.498961	0.891835	0.882906
	C144	C	0.383421	0.902707	0.686897
	C145	C	0.632469	0.123646	0.687690
	C146	C	0.633456	0.902743	0.323543
	C147	C	0.385581	0.122707	0.323194
	C148	C	0.689079	0.388561	0.893308
	C149	C	0.687669	0.634257	0.114734
	C150	C	0.322373	0.639925	0.895013
	C151	C	0.327834	0.390500	0.114478
	C152	C	0.896045	0.696607	0.380712
	C153	C	0.118435	0.694174	0.628755
	C154	C	0.898244	0.328446	0.631775
	C155	C	0.118718	0.335431	0.384803
	C156	C	0.897174	0.387429	0.687815
	C157	C	0.117268	0.638305	0.688056
	C158	C	0.896229	0.640046	0.322172
	C159	C	0.118305	0.393245	0.327227
	C160	C	0.380356	0.697949	0.895070
	C161	C	0.631635	0.693938	0.113786
	C162	C	0.630973	0.330681	0.893171
	C163	C	0.383986	0.330954	0.113519
	C164	C	0.689653	0.902646	0.382856
	C165	C	0.689815	0.124392	0.629179
	C166	C	0.327110	0.901852	0.627888
	C167	C	0.328984	0.123446	0.382473
	C168	C	0.882069	0.403379	0.188761
	C169	C	0.131584	0.623418	0.186670
	C170	C	0.132498	0.403389	0.822062
	C171	C	0.881101	0.622565	0.821046
	C172	C	0.188260	0.890393	0.394909
	C173	C	0.191785	0.136966	0.614197
	C174	C	0.825844	0.138863	0.395533
	C175	C	0.824756	0.888241	0.614806
	C176	C	0.395769	0.194642	0.879962
	C177	C	0.617535	0.196221	0.129534
	C178	C	0.397365	0.831997	0.127026
	C179	C	0.617139	0.829405	0.878576
	C180	C	0.397751	0.888954	0.184993
	C181	C	0.617912	0.138887	0.187863
	C182	C	0.396244	0.137941	0.821648
	C183	C	0.617160	0.887051	0.820880
	C184	C	0.883451	0.196924	0.395928
	C185	C	0.135406	0.196447	0.613868
	C186	C	0.131147	0.832036	0.395424
	C187	C	0.882882	0.830341	0.614854
	C188	C	0.188389	0.402484	0.881650
	C189	C	0.189740	0.622807	0.128948
	C190	C	0.824894	0.402461	0.129952
	C191	C	0.825202	0.623408	0.880969
	C192	C	0.412171	0.104152	0.600119
	C193	C	0.602462	0.923605	0.600553
	C194	C	0.602581	0.103820	0.408510
	C195	C	0.410890	0.919473	0.406643
	C196	C	0.602751	0.415372	0.094062
	C197	C	0.601912	0.608433	0.913293
	C198	C	0.412204	0.608723	0.093974
	C199	C	0.410760	0.416799	0.912040
	C200	C	0.099097	0.610647	0.407903
	C201	C	0.915856	0.608406	0.599250
	C202	C	0.098392	0.418831	0.600081
	C203	C	0.914330	0.418195	0.410111
	C204	C	0.910202	0.604560	0.101298
	C205	C	0.102642	0.421592	0.103260
	C206	C	0.100275	0.603164	0.909725
	C207	C	0.911848	0.421704	0.909047
	C208	C	0.104519	0.915254	0.596932
	C209	C	0.103952	0.110963	0.413794
	C210	C	0.913174	0.108333	0.595778
	C211	C	0.912438	0.917955	0.414919
	C212	C	0.598154	0.107881	0.909012
	C213	C	0.416557	0.107411	0.099744
	C214	C	0.600808	0.916640	0.100194
	C215	C	0.416292	0.918362	0.908851
	Zn216	Zn	0.506989	0.013469	0.754434
	Zn217	Zn	0.508863	0.012108	0.254039
	Zn218	Zn	0.756919	0.512008	0.004101
	Zn219	Zn	0.256667	0.512968	0.004320
	Zn220	Zn	0.007366	0.762685	0.505462
	Zn221	Zn	0.008081	0.264284	0.505672
	Zn222	Zn	0.006800	0.512997	0.754467
	Zn223	Zn	0.006571	0.513975	0.256123
	Zn224	Zn	0.507532	0.763772	0.004108
	Zn225	Zn	0.506812	0.261995	0.003399
	Zn226	Zn	0.757544	0.013940	0.504969
	Zn227	Zn	0.258250	0.012479	0.504704
	N228	N	0.419222	0.978208	0.685903
	N229	N	0.595755	0.048592	0.686433
	N230	N	0.596757	0.977820	0.323433
	N231	N	0.420271	0.046614	0.322811
	N232	N	0.687881	0.424637	0.968212
	N233	N	0.685318	0.597470	0.040279
	N234	N	0.325419	0.601483	0.968968
	N235	N	0.328817	0.427532	0.039757
	N236	N	0.971500	0.694369	0.417544
	N237	N	0.043964	0.691275	0.590101
	N238	N	0.973359	0.330848	0.594768
	N239	N	0.042871	0.335715	0.420432
	N240	N	0.971597	0.426050	0.684736
	N241	N	0.042113	0.601235	0.685897
	N242	N	0.971733	0.603345	0.323277
	N243	N	0.042075	0.428528	0.327540
	N244	N	0.418996	0.695000	0.968882
	N245	N	0.595243	0.693815	0.038715
	N246	N	0.594353	0.331493	0.968017
	N247	N	0.419201	0.331573	0.038055
	N248	N	0.687008	0.977495	0.419278
	N249	N	0.688368	0.049634	0.592306
	N250	N	0.328886	0.976726	0.590618
	N251	N	0.329376	0.047927	0.418339
	N252	N	0.918187	0.478729	0.187381
	N253	N	0.094167	0.548721	0.186053
	N254	N	0.095155	0.478199	0.823249
	N255	N	0.917585	0.547283	0.822219
	N256	N	0.187415	0.926347	0.469712
	N257	N	0.188315	0.099314	0.540166
	N258	N	0.827997	0.100976	0.469785
	N259	N	0.826686	0.925818	0.540529
	N260	N	0.470833	0.192197	0.917492
	N261	N	0.543103	0.192890	0.091205
	N262	N	0.472899	0.833275	0.090650
	N263	N	0.542601	0.832431	0.916403
	N264	N	0.473492	0.925015	0.184201
	N265	N	0.543436	0.100294	0.185092
	N266	N	0.471412	0.100599	0.823661
	N267	N	0.542514	0.925273	0.823510
	N268	N	0.920847	0.194529	0.470573
	N269	N	0.097337	0.195336	0.539704
	N270	N	0.095501	0.832092	0.470526
	N271	N	0.920866	0.833133	0.540846
	N272	N	0.185236	0.476843	0.919160
	N273	N	0.187947	0.547863	0.092833
	N274	N	0.826606	0.477071	0.092210
	N275	N	0.827724	0.548806	0.918628
	O276	O	0.327474	0.543547	0.466550
	H277	H	0.335324	0.532976	0.466459
	H278	H	0.330911	0.531884	0.471185
	O279	O	0.868681	0.020885	0.997759
	H280	H	0.862814	0.030368	0.983800
	H281	H	0.874341	0.028259	1.002700
	O282	O	0.556696	0.687434	0.703378
	H283	H	0.527748	0.671270	0.714978
	H284	H	0.550490	0.687694	0.719651
	O285	O	0.451570	0.718959	0.314689
	H286	H	0.435064	0.714558	0.310457
	H287	H	0.423041	0.731560	0.318763
	O288	O	0.793893	1.037887	-0.212562
	H289	H	0.783585	1.015395	-0.192594
	H290	H	0.776267	1.030884	-0.239999
	O291	O	0.485323	0.498345	0.297682
	H292	H	0.472342	0.517460	0.294254
	H293	H	0.508525	0.514600	0.301146
	O294	O	-0.019465	-0.194746	1.218435
	H295	H	-0.016408	-0.215822	1.231602
	H296	H	-0.026572	-0.192748	1.216631
	O297	O	0.826295	0.197233	-0.172614
	H298	H	0.879560	0.208427	-0.186800
	H299	H	0.815767	0.144554	-0.187262
	O300	O	0.986962	1.228224	-0.213102
	H301	H	1.005650	1.225776	-0.223999
	H302	H	1.000735	1.233217	-0.237133
	O303	O	0.337503	0.330444	0.595433
	H304	H	0.369274	0.328129	0.603985
	H305	H	0.340733	0.329866	0.583447
	O306	O	0.682373	0.650670	0.400745
	H307	H	0.674037	0.664896	0.414801
	H308	H	0.666627	0.668685	0.397927
	O309	O	0.316686	0.373455	0.436723
	H310	H	0.314211	0.361508	0.458349
	H311	H	0.335028	0.383185	0.435691
	O312	O	-0.063188	1.206827	1.057181
	H313	H	-0.063855	1.206115	1.046295
	H314	H	-0.060487	1.198631	1.037912
	O315	O	0.566425	0.466761	0.602941
	H316	H	0.590732	0.473501	0.614443
	H317	H	0.566225	0.467608	0.589712
	O318	O	0.954360	-0.196968	-0.057448
	H319	H	0.966306	-0.205563	-0.056510
	H320	H	0.954462	-0.192544	-0.056006
	O321	O	-0.214258	0.233228	-0.017787
	H322	H	-0.234262	0.250940	-0.040251
	H323	H	-0.219359	0.239852	-0.053255
	O324	O	0.435853	0.599839	0.698730
	H325	H	0.408595	0.586607	0.694197
	H326	H	0.432493	0.579206	0.694662
	O327	O	0.518295	0.316362	0.310891
	H328	H	0.517424	0.310304	0.305758
	H329	H	0.521833	0.331394	0.311274
	O330	O	0.101614	1.074158	0.008914
	H331	H	0.098692	1.078240	0.013911
	H332	H	0.101559	1.084276	0.021036
	O333	O	0.212392	0.808742	0.988574
	H334	H	0.224823	0.801162	0.991443
	H335	H	0.214168	0.817841	0.996170
	O336	O	-0.158769	0.077577	0.025773
	H337	H	-0.180725	0.086830	0.024251
	H338	H	-0.135896	0.088091	0.009200
	O339	O	-0.207575	0.964997	1.220501
	H340	H	-0.232495	0.960014	1.242071
	H341	H	-0.211365	0.958755	1.195192
	O342	O	0.017669	0.841662	0.805300
	H343	H	0.029545	0.857776	0.801443
	H344	H	0.027329	0.826565	0.805323
	O345	O	1.221226	0.822362	-0.208480
	H346	H	1.197546	0.833254	-0.208371
	H347	H	1.228606	0.834958	-0.175267
	O348	O	0.273658	0.279841	0.265480
	H349	H	0.279832	0.305186	0.277640
	H350	H	0.267959	0.290852	0.269463
	O351	O	0.069130	1.175808	0.985318
	H352	H	0.058994	1.183449	0.983274
	H353	H	0.063245	1.180879	0.981506
	O354	O	-0.640332	0.576838	0.294177
	H355	H	-0.643848	0.586897	0.277210
	H356	H	-0.647553	0.596998	0.290099
	O357	O	-0.281373	-0.533386	0.549332
	H358	H	-0.276771	-0.527479	0.555240
	H359	H	-0.282919	-0.532114	0.539806
	O360	O	0.718545	0.297957	0.483368
	H361	H	0.739352	0.283833	0.462274
	H362	H	0.730979	0.304858	0.474320
	O363	O	-0.579569	-0.566794	1.459109
	H364	H	-0.565632	-0.558569	1.453770
	H365	H	-0.560029	-0.573728	1.447931
	O366	O	1.184500	0.137125	1.131130
	H367	H	1.195181	0.148979	1.152672
	H368	H	1.157045	0.157971	1.142235
	O369	O	0.291112	0.491622	0.720423
	H370	H	0.284310	0.463750	0.719056
	H371	H	0.268730	0.473347	0.735366
	O372	O	1.218103	0.003589	0.806658
	H373	H	1.244780	-0.002401	0.785031
	H374	H	1.214842	-0.004022	0.834574
	O375	O	0.223345	0.065945	0.219783
	H376	H	0.218189	0.099164	0.223235
	H377	H	0.242843	0.073458	0.237459
	O378	O	0.696464	0.695727	0.645960
	H379	H	0.681388	0.706885	0.634640
	H380	H	0.678420	0.706904	0.647838
	O381	O	0.367877	0.715005	0.297805
	H382	H	0.345293	0.732907	0.273623
	H383	H	0.353625	0.717050	0.343141
	O384	O	0.431550	0.660351	0.590662
	H385	H	0.426604	0.642829	0.608012
	H386	H	0.431779	0.646054	0.593936
	O387	O	-0.114983	0.082196	1.162686
	H388	H	-0.113476	0.083869	1.153838
	H389	H	-0.133178	0.073402	1.173126
	O390	O	-0.437725	-0.427514	0.403530
	H391	H	-0.426875	-0.425592	0.398400
	H392	H	-0.446367	-0.403516	0.412939
	O393	O	0.809246	0.808067	1.024658
	H394	H	0.808904	0.816546	1.024972
	H395	H	0.799584	0.797019	1.008338
	O396	O	1.264290	0.158498	-0.144473
	H397	H	1.278384	0.164767	-0.138009
	H398	H	1.262912	0.164006	-0.156086
	O399	O	1.111580	0.094215	0.801427
	H400	H	1.115857	0.093965	0.818533
	H401	H	1.131543	0.075005	0.792488
	O402	O	1.067145	0.800434	1.076695
	H403	H	1.077836	0.809554	1.084548
	H404	H	1.056287	0.797583	1.073861
	O405	O	1.011853	1.004387	0.004314
	H406	H	0.997794	1.025675	-0.000549
	H407	H	1.021877	1.005398	0.023806
	O408	O	1.011217	-0.022821	-0.159161
	H409	H	0.997633	-0.014950	-0.166658
	H410	H	1.024693	-0.011297	-0.151127
	O411	O	1.219220	1.222065	0.030553
	H412	H	1.213187	1.214887	0.071949
	H413	H	1.243225	1.252268	0.031557
	O414	O	0.460107	0.315436	0.509495
	H415	H	0.497193	0.311582	0.506402
	H416	H	0.451304	0.307296	0.512617
	O417	O	0.296983	0.710199	0.477912
	H418	H	0.298672	0.683810	0.505316
	H419	H	0.273877	0.728227	0.488805
	O420	O	-0.008933	-0.006231	0.185784
	H421	H	-0.008442	-0.013410	0.192481
	H422	H	-0.009579	0.008510	0.192251
	O423	O	0.520519	0.366975	0.613412
	H424	H	0.527562	0.386803	0.610057
	H425	H	0.535364	0.350648	0.624536
	O426	O	0.785956	0.820570	0.218861
	H427	H	0.807957	0.828954	0.228456
	H428	H	0.782825	0.824239	0.180456
	O429	O	0.685053	0.662070	0.516044
	H430	H	0.693720	0.670640	0.501069
	H431	H	0.670145	0.684054	0.518263
	O432	O	0.721322	0.537153	0.721339
	H433	H	0.742485	0.555648	0.729625
	H434	H	0.735178	0.553016	0.719363
	O435	O	0.522633	0.594905	0.494528
	H436	H	0.515151	0.598882	0.494363
	H437	H	0.535077	0.594559	0.492147
	O438	O	-0.113627	-0.080426	-0.165541
	H439	H	-0.095668	-0.075009	-0.133261
	H440	H	-0.115843	-0.103144	-0.163544
	O441	O	1.159426	-0.086577	0.191130
	H442	H	1.153965	-0.079044	0.181904
	H443	H	1.162580	-0.077210	0.192281
	O444	O	0.031437	1.195022	1.210840
	H445	H	0.013902	1.197839	1.214800
	H446	H	0.011541	1.196690	1.202368
	O447	O	0.711182	0.486862	0.296067
	H448	H	0.723521	0.494828	0.285050
	H449	H	0.725891	0.513026	0.305125
	O450	O	0.526032	0.390910	0.706381
	H451	H	0.537617	0.404741	0.697324
	H452	H	0.552229	0.402546	0.706770
	O453	O	0.687120	0.324185	0.322081
	H454	H	0.699422	0.356844	0.303822
	H455	H	0.660593	0.325040	0.330054
