data_Molecule from HDF5

_cell_length_a		16.335157
_cell_length_b		16.429523
_cell_length_c		16.203856
_cell_angle_alpha	89.923547
_cell_angle_beta	89.843917
_cell_angle_gamma	89.997342
_symmetry_space_group_name_H-M	'P 1'
_symmetry_Int_Tables_number		1

loop_
	_symmetry_equiv_pos_as_xyz
	x,y,z

loop_
	_atom_site_label
	_atom_site_type_symbol
	_atom_site_fract_x
	_atom_site_fract_y
	_atom_site_fract_z
	H0	H	0.386158	0.831051	0.728863
	H1	H	0.590091	0.151607	0.723575
	H2	H	0.594883	0.831294	0.286582
	H3	H	0.385253	0.150032	0.287017
	H4	H	0.708853	0.390436	0.844967
	H5	H	0.710158	0.595039	0.169304
	H6	H	0.274516	0.592357	0.844606
	H7	H	0.273471	0.388846	0.170538
	H8	H	0.829698	0.708043	0.404027
	H9	H	0.150212	0.712418	0.615208
	H10	H	0.831691	0.268279	0.615354
	H11	H	0.150738	0.268314	0.400918
	H12	H	0.831655	0.386245	0.728519
	H13	H	0.154007	0.589960	0.723249
	H14	H	0.829270	0.590206	0.291089
	H15	H	0.153227	0.389397	0.291129
	H16	H	0.385164	0.711844	0.846165
	H17	H	0.595531	0.710738	0.169075
	H18	H	0.595378	0.272819	0.845267
	H19	H	0.386980	0.272181	0.169217
	H20	H	0.711811	0.831399	0.401346
	H21	H	0.711219	0.148755	0.612429
	H22	H	0.269178	0.830610	0.614052
	H23	H	0.267005	0.148397	0.400468
	H24	H	0.891040	0.328319	0.223738
	H25	H	0.090764	0.651306	0.224192
	H26	H	0.094478	0.328599	0.790703
	H27	H	0.891314	0.650273	0.788670
	H28	H	0.206930	0.888828	0.345051
	H29	H	0.207408	0.092196	0.669672
	H30	H	0.774580	0.089180	0.344617
	H31	H	0.772522	0.888208	0.670941
	H32	H	0.329303	0.210457	0.904358
	H33	H	0.650765	0.209616	0.110570
	H34	H	0.330231	0.770864	0.113777
	H35	H	0.651734	0.772939	0.904148
	H36	H	0.328406	0.891021	0.224124
	H37	H	0.651627	0.091254	0.223898
	H38	H	0.327540	0.092186	0.792004
	H39	H	0.652006	0.891664	0.790994
	H40	H	0.888090	0.206589	0.344850
	H41	H	0.094077	0.208571	0.668694
	H42	H	0.093406	0.771217	0.345934
	H43	H	0.885007	0.769532	0.670150
	H44	H	0.209426	0.329007	0.906093
	H45	H	0.208216	0.651464	0.109090
	H46	H	0.771052	0.330634	0.111655
	H47	H	0.772606	0.650553	0.903739
	H48	H	0.394927	0.105521	0.599553
	H49	H	0.585220	0.873338	0.601548
	H50	H	0.580782	0.103908	0.418118
	H51	H	0.399834	0.876634	0.415109
	H52	H	0.573239	0.398021	0.121839
	H53	H	0.585074	0.587682	0.889074
	H54	H	0.397537	0.582397	0.123902
	H55	H	0.397909	0.405203	0.892212
	H56	H	0.106867	0.582981	0.417020
	H57	H	0.875184	0.578156	0.604427
	H58	H	0.105844	0.399670	0.598580
	H59	H	0.873892	0.395870	0.411880
	H60	H	0.106598	0.394295	0.596557
	H61	H	0.876069	0.585736	0.593775
	H62	H	0.105480	0.581249	0.418351
	H63	H	0.876047	0.393026	0.421152
	H64	H	0.400545	0.578165	0.121714
	H65	H	0.583841	0.576114	0.894113
	H66	H	0.584995	0.395702	0.125238
	H67	H	0.407144	0.400236	0.893517
	H68	H	0.583048	0.104687	0.418113
	H69	H	0.576408	0.876315	0.601744
	H70	H	0.400805	0.104141	0.599547
	H71	H	0.402796	0.878174	0.419769
	H72	H	0.900068	0.605139	0.101140
	H73	H	0.088303	0.372932	0.102548
	H74	H	0.083045	0.604569	0.916333
	H75	H	0.896115	0.374998	0.916992
	H76	H	0.074754	0.900230	0.621694
	H77	H	0.081705	0.084380	0.389092
	H78	H	0.903761	0.075517	0.621302
	H79	H	0.897697	0.889552	0.388562
	H80	H	0.604089	0.079321	0.915314
	H81	H	0.371745	0.088984	0.101931
	H82	H	0.605065	0.905324	0.098932
	H83	H	0.373885	0.901620	0.913443
	H84	H	0.607137	0.895184	0.098240
	H85	H	0.376795	0.084314	0.088773
	H86	H	0.606592	0.085710	0.913352
	H87	H	0.374505	0.894428	0.920917
	H88	H	0.902364	0.084212	0.624120
	H89	H	0.082908	0.074334	0.392461
	H90	H	0.079343	0.895049	0.624590
	H91	H	0.893364	0.904951	0.392495
	H92	H	0.084514	0.604723	0.915673
	H93	H	0.079086	0.376396	0.100740
	H94	H	0.903098	0.602613	0.096307
	H95	H	0.905956	0.376924	0.915514
	H96	H	0.397565	0.103950	0.594527
	H97	H	0.581496	0.877358	0.593913
	H98	H	0.581592	0.104820	0.415750
	H99	H	0.397580	0.876089	0.420332
	H100	H	0.581643	0.406351	0.120969
	H101	H	0.574412	0.583770	0.893557
	H102	H	0.402537	0.582501	0.123149
	H103	H	0.399143	0.395172	0.889676
	H104	H	0.105449	0.580795	0.415618
	H105	H	0.880977	0.573008	0.592854
	H106	H	0.104838	0.398537	0.592562
	H107	H	0.877660	0.402218	0.418103
	H108	H	0.898034	0.605080	0.095815
	H109	H	0.085935	0.376731	0.094080
	H110	H	0.083327	0.605091	0.914828
	H111	H	0.901267	0.378643	0.925076
	H112	H	0.081772	0.902236	0.623866
	H113	H	0.072836	0.079229	0.394118
	H114	H	0.895570	0.078754	0.624978
	H115	H	0.908898	0.900014	0.396091
	H116	H	0.604817	0.084553	0.920396
	H117	H	0.376987	0.075153	0.100655
	H118	H	0.603019	0.900404	0.090446
	H119	H	0.377895	0.903546	0.922548
	C120	C	0.366773	-0.001007	0.630245
	C121	C	0.611589	0.981595	0.629441
	C122	C	0.612439	-0.001368	0.385967
	C123	C	0.367989	0.982177	0.386187
	C124	C	0.611972	0.369705	0.015692
	C125	C	0.611874	0.613068	0.999252
	C126	C	0.369392	0.612029	0.015827
	C127	C	0.369898	0.369587	0.999081
	C128	C	-0.000759	0.611430	0.386379
	C129	C	0.983325	0.610478	0.628936
	C130	C	0.000105	0.366477	0.629426
	C131	C	0.982431	0.367272	0.385801
	C132	C	0.869601	0.498588	0.128915
	C133	C	0.113638	0.481876	0.129384
	C134	C	0.114229	0.498339	0.885334
	C135	C	0.870211	0.481857	0.886580
	C136	C	0.110434	0.868365	0.516480
	C137	C	0.110880	0.110565	0.498705
	C138	C	0.869705	0.110257	0.516044
	C139	C	0.868723	0.867807	0.499673
	C140	C	0.498508	0.113422	0.885897
	C141	C	0.481342	0.112959	0.128620
	C142	C	0.499091	0.869463	0.128422
	C143	C	0.481961	0.869585	0.887071
	C144	C	0.366839	0.878848	0.689292
	C145	C	0.610713	0.102950	0.686138
	C146	C	0.613813	0.879114	0.326146
	C147	C	0.366866	0.101922	0.326552
	C148	C	0.670596	0.369998	0.893766
	C149	C	0.670906	0.613792	0.120733
	C150	C	0.312295	0.612052	0.893646
	C151	C	0.311857	0.369552	0.121260
	C152	C	0.877897	0.668684	0.385849
	C153	C	0.102870	0.671127	0.631962
	C154	C	0.879808	0.307869	0.632850
	C155	C	0.103130	0.308770	0.383894
	C156	C	0.879631	0.366768	0.689221
	C157	C	0.104882	0.610192	0.686035
	C158	C	0.877676	0.609976	0.329407
	C159	C	0.104136	0.368639	0.328483
	C160	C	0.367648	0.671559	0.894515
	C161	C	0.613541	0.671302	0.120768
	C162	C	0.613895	0.311682	0.893906
	C163	C	0.368417	0.311286	0.120806
	C164	C	0.671815	0.878865	0.383702
	C165	C	0.670614	0.101655	0.630462
	C166	C	0.308476	0.878704	0.632205
	C167	C	0.307570	0.101138	0.383257
	C168	C	0.870881	0.376854	0.185592
	C169	C	0.111310	0.603136	0.185870
	C170	C	0.113781	0.376955	0.828904
	C171	C	0.871070	0.602376	0.827635
	C172	C	0.168351	0.868867	0.394071
	C173	C	0.168613	0.111136	0.620920
	C174	C	0.812597	0.109493	0.393559
	C175	C	0.810533	0.868210	0.621922
	C176	C	0.377376	0.171173	0.885524
	C177	C	0.602511	0.170718	0.129666
	C178	C	0.378123	0.810525	0.131477
	C179	C	0.603151	0.811949	0.885323
	C180	C	0.377107	0.870521	0.186241
	C181	C	0.603041	0.111772	0.186031
	C182	C	0.376431	0.112114	0.829738
	C183	C	0.603470	0.871359	0.829433
	C184	C	0.869183	0.167828	0.393807
	C185	C	0.112206	0.169109	0.620448
	C186	C	0.111633	0.810659	0.394379
	C187	C	0.867175	0.809713	0.621602
	C188	C	0.171466	0.377426	0.886071
	C189	C	0.169887	0.603130	0.128673
	C190	C	0.810776	0.378191	0.130143
	C191	C	0.812265	0.602592	0.885045
	C192	C	0.390817	0.082610	0.605052
	C193	C	0.588048	0.897693	0.605816
	C194	C	0.588556	0.082460	0.410444
	C195	C	0.393054	0.898639	0.411285
	C196	C	0.587067	0.393297	0.100577
	C197	C	0.587970	0.589345	0.914315
	C198	C	0.393399	0.588012	0.100984
	C199	C	0.394398	0.393488	0.913843
	C200	C	0.083914	0.588341	0.410057
	C201	C	0.899068	0.585901	0.604193
	C202	C	0.084054	0.390577	0.603661
	C203	C	0.897760	0.390374	0.410086
	C204	C	0.893418	0.582591	0.104728
	C205	C	0.090936	0.397295	0.106111
	C206	C	0.090485	0.582699	0.908815
	C207	C	0.894245	0.398578	0.911818
	C208	C	0.085855	0.892211	0.601350
	C209	C	0.086275	0.086371	0.414000
	C210	C	0.893616	0.086471	0.601365
	C211	C	0.892991	0.891179	0.414537
	C212	C	0.583249	0.090069	0.909537
	C213	C	0.396912	0.089586	0.104293
	C214	C	0.582994	0.893494	0.103264
	C215	C	0.397340	0.892857	0.911813
	Zn216	Zn	0.489404	-0.008840	0.758255
	Zn217	Zn	0.490253	-0.009221	0.256655
	Zn218	Zn	0.739940	0.491104	0.007921
	Zn219	Zn	0.241868	0.490565	0.007050
	Zn220	Zn	-0.009624	0.739361	0.508072
	Zn221	Zn	-0.009687	0.238634	0.506891
	Zn222	Zn	-0.007230	0.488946	0.757082
	Zn223	Zn	-0.009168	0.489793	0.258053
	Zn224	Zn	0.490311	0.740561	0.007828
	Zn225	Zn	0.490554	0.241411	0.007266
	Zn226	Zn	0.740932	-0.010378	0.507977
	Zn227	Zn	0.238688	-0.010486	0.508057
	N228	N	0.402367	0.954680	0.688268
	N229	N	0.574567	0.027303	0.685540
	N230	N	0.577433	0.954471	0.327528
	N231	N	0.404047	0.026960	0.328504
	N232	N	0.669390	0.405462	0.970422
	N233	N	0.670017	0.578001	0.044185
	N234	N	0.313275	0.575775	0.970084
	N235	N	0.312668	0.405000	0.044354
	N236	N	0.954524	0.669660	0.420704
	N237	N	0.026272	0.671306	0.597168
	N238	N	0.955706	0.307710	0.596204
	N239	N	0.026370	0.307910	0.418933
	N240	N	0.955554	0.402591	0.687058
	N241	N	0.029314	0.573178	0.684384
	N242	N	0.954044	0.574935	0.329773
	N243	N	0.028114	0.404308	0.329588
	N244	N	0.402673	0.671555	0.971613
	N245	N	0.577633	0.671027	0.044211
	N246	N	0.578098	0.311244	0.970846
	N247	N	0.404037	0.311360	0.043902
	N248	N	0.671121	0.954255	0.420278
	N249	N	0.671281	0.025368	0.595921
	N250	N	0.308294	0.954585	0.596218
	N251	N	0.308514	0.025690	0.419948
	N252	N	0.906612	0.452763	0.185168
	N253	N	0.077019	0.526651	0.186523
	N254	N	0.078783	0.453076	0.828342
	N255	N	0.906515	0.526480	0.828409
	N256	N	0.167866	0.903895	0.471013
	N257	N	0.167809	0.075453	0.544282
	N258	N	0.812737	0.074606	0.470765
	N259	N	0.811240	0.903491	0.544880
	N260	N	0.454369	0.172112	0.919760
	N261	N	0.525712	0.171567	0.094852
	N262	N	0.454712	0.809797	0.096013
	N263	N	0.526417	0.810705	0.920261
	N264	N	0.453295	0.906229	0.184738
	N265	N	0.526816	0.076754	0.185662
	N266	N	0.452836	0.076929	0.829825
	N267	N	0.526925	0.906391	0.830255
	N268	N	0.903671	0.168575	0.471204
	N269	N	0.077129	0.169042	0.543413
	N270	N	0.076460	0.810143	0.471612
	N271	N	0.902312	0.809096	0.544466
	N272	N	0.171822	0.454024	0.920346
	N273	N	0.171341	0.526692	0.094348
	N274	N	0.809817	0.454794	0.095714
	N275	N	0.811523	0.526779	0.920906
	O276	O	-0.047204	-0.102502	-0.121404
	H277	H	-0.050552	-0.107505	-0.126558
	H278	H	-0.044745	-0.104854	-0.121412
	O279	O	0.415748	0.384998	0.483459
	H280	H	0.427150	0.385989	0.491084
	H281	H	0.428593	0.380798	0.483563
	O282	O	0.926070	-0.059829	0.082048
	H283	H	0.914178	-0.070771	0.076907
	H284	H	0.924826	-0.069923	0.079454
	O285	O	0.054539	0.979900	-0.054028
	H286	H	0.055592	0.976337	-0.056516
	H287	H	0.053995	0.972578	-0.048127
	O288	O	0.486289	0.430838	0.576472
	H289	H	0.475451	0.419923	0.565091
	H290	H	0.471879	0.456449	0.585062
	O291	O	0.953543	0.021857	1.060869
	H292	H	0.958875	0.017021	1.047713
	H293	H	0.949263	0.016039	1.063063
	O294	O	0.891848	0.953200	1.005858
	H295	H	0.894758	0.941058	0.998947
	H296	H	0.898538	0.941774	1.003750
	O297	O	-0.061434	-0.058334	-0.086628
	H298	H	-0.070952	-0.049689	-0.092009
	H299	H	-0.054139	-0.048361	-0.086135
	O300	O	0.625710	0.379742	0.347791
	H301	H	0.622048	0.379197	0.333381
	H302	H	0.621608	0.402994	0.344819
	O303	O	0.128331	0.986191	1.015520
	H304	H	0.126698	0.988010	1.012103
	H305	H	0.122674	1.000075	1.014404
	O306	O	0.360278	0.472348	0.650964
	H307	H	0.362900	0.484328	0.643862
	H308	H	0.365765	0.484570	0.647244
	O309	O	0.949859	0.027533	0.076040
	H310	H	0.935435	0.029299	0.076849
	H311	H	0.943455	0.019759	0.082165
	O312	O	0.018179	-0.121530	0.998316
	H313	H	0.017140	-0.121826	0.997346
	H314	H	0.024669	-0.118554	0.998841
	O315	O	0.617451	0.496978	0.338302
	H316	H	0.607619	0.517160	0.348748
	H317	H	0.602259	0.493907	0.327801
	O318	O	0.610704	0.670437	0.666264
	H319	H	0.603000	0.659046	0.654086
	H320	H	0.625720	0.649969	0.656730
	O321	O	0.436001	0.623739	0.475695
	H322	H	0.442498	0.620275	0.482062
	H323	H	0.429098	0.625193	0.485209
	O324	O	0.605891	0.607983	0.458807
	H325	H	0.603283	0.616860	0.460467
	H326	H	0.615913	0.606953	0.466999
	O327	O	-0.036026	1.135944	1.023893
	H328	H	-0.041025	1.125562	1.017186
	H329	H	-0.040759	1.151480	1.021749
	O330	O	1.014844	0.983207	0.991521
	H331	H	1.009176	0.986130	0.993323
	H332	H	1.012501	0.981230	0.983365
	O333	O	-0.007264	0.981100	1.044225
	H334	H	-0.007010	0.971797	1.053658
	H335	H	-0.010650	0.982623	1.048461
	O336	O	0.975355	0.874849	0.936123
	H337	H	0.976193	0.881869	0.939206
	H338	H	0.967474	0.876240	0.927174
	O339	O	0.456386	0.340777	0.398226
	H340	H	0.454298	0.321194	0.399012
	H341	H	0.465094	0.336011	0.413918
	O342	O	1.518984	0.583756	-0.452546
	H343	H	1.505973	0.597135	-0.463339
	H344	H	1.515098	0.572532	-0.447427
	O345	O	0.030394	0.899114	-0.061320
	H346	H	0.030774	0.894167	-0.053364
	H347	H	0.018420	0.901051	-0.058366
	O348	O	1.631793	1.329263	0.583909
	H349	H	1.625360	1.324924	0.582621
	H350	H	1.619277	1.328897	0.570890
	O351	O	0.977647	1.071249	-0.021564
	H352	H	0.982444	1.057292	-0.037565
	H353	H	0.986171	1.080540	-0.022910
	O354	O	0.345695	0.618520	0.371194
	H355	H	0.350599	0.599194	0.373701
	H356	H	0.348511	0.609410	0.362148
	O357	O	0.377918	0.666730	0.479444
	H358	H	0.363497	0.675744	0.475817
	H359	H	0.386317	0.664004	0.471376
	O360	O	-0.058344	0.066537	-0.116075
	H361	H	-0.042895	0.070561	-0.114562
	H362	H	-0.055642	0.083077	-0.110888
	O363	O	0.610952	0.357379	0.446491
	H364	H	0.635989	0.349372	0.463795
	H365	H	0.608420	0.379804	0.429273
	O366	O	0.409090	0.609499	0.474086
	H367	H	0.405663	0.615656	0.448739
	H368	H	0.382268	0.612852	0.466340
	O369	O	0.499853	0.624248	0.687887
	H370	H	0.494439	0.643094	0.694622
	H371	H	0.514226	0.616429	0.694546
	O372	O	0.421076	0.472407	0.369671
	H373	H	0.423819	0.474491	0.371684
	H374	H	0.417909	0.470256	0.375660
	O375	O	0.690228	0.660672	0.503327
	H376	H	0.666747	0.661604	0.500030
	H377	H	0.712399	0.685761	0.512430
	O378	O	0.430361	0.320345	0.398057
	H379	H	0.431906	0.303841	0.397261
	H380	H	0.437060	0.308206	0.415553
	O381	O	0.546484	0.513648	0.430060
	H382	H	0.542995	0.509460	0.416888
	H383	H	0.538280	0.505506	0.429691
	O384	O	0.040884	1.093877	0.059702
	H385	H	0.047811	1.108006	0.052610
	H386	H	0.039485	1.095819	0.066821
	O387	O	0.561416	0.301128	1.568615
	H388	H	0.573323	0.298867	1.570749
	H389	H	0.547140	0.311899	1.578219
	O390	O	0.580465	0.428961	-0.339724
	H391	H	0.576816	0.420034	-0.341664
	H392	H	0.567357	0.430464	-0.341109
	O393	O	0.321214	1.576145	-0.522077
	H394	H	0.330527	1.563029	-0.518785
	H395	H	0.330743	1.587216	-0.519193
	O396	O	0.691679	0.548858	0.665149
	H397	H	0.700353	0.535761	0.664558
	H398	H	0.702673	0.526114	0.672273
	O399	O	0.299098	0.373430	0.622282
	H400	H	0.286785	0.376004	0.620174
	H401	H	0.300472	0.379077	0.626224
	O402	O	1.031196	1.026243	0.967442
	H403	H	1.047660	1.022134	0.972100
	H404	H	1.025724	1.010563	0.973611
	O405	O	0.348629	0.405516	0.459917
	H406	H	0.354616	0.402698	0.463748
	H407	H	0.357920	0.398333	0.466143
