data_Molecule from HDF5

_cell_length_a		15.974970
_cell_length_b		16.390152
_cell_length_c		16.379228
_cell_angle_alpha	89.836242
_cell_angle_beta	89.879856
_cell_angle_gamma	89.458834
_symmetry_space_group_name_H-M	'P 1'
_symmetry_Int_Tables_number		1

loop_
	_symmetry_equiv_pos_as_xyz
	x,y,z

loop_
	_atom_site_label
	_atom_site_type_symbol
	_atom_site_fract_x
	_atom_site_fract_y
	_atom_site_fract_z
	H0	H	0.405764	0.841201	0.726110
	H1	H	0.610868	0.162681	0.723510
	H2	H	0.613715	0.841218	0.285685
	H3	H	0.404596	0.164123	0.287458
	H4	H	0.721650	0.405247	0.841669
	H5	H	0.718118	0.595526	0.169273
	H6	H	0.292769	0.600780	0.841451
	H7	H	0.296016	0.408959	0.169821
	H8	H	0.842767	0.720300	0.403497
	H9	H	0.174411	0.710988	0.601527
	H10	H	0.841612	0.288712	0.604950
	H11	H	0.172711	0.285956	0.404772
	H12	H	0.841495	0.402918	0.719093
	H13	H	0.172093	0.599595	0.719850
	H14	H	0.840058	0.601822	0.292832
	H15	H	0.172041	0.400268	0.289322
	H16	H	0.401545	0.724182	0.844813
	H17	H	0.608089	0.717763	0.167633
	H18	H	0.612664	0.282334	0.843834
	H19	H	0.403447	0.283428	0.166517
	H20	H	0.721993	0.838138	0.410380
	H21	H	0.718646	0.165689	0.600427
	H22	H	0.298862	0.836885	0.601532
	H23	H	0.292691	0.165586	0.409247
	H24	H	0.902646	0.341051	0.224657
	H25	H	0.106082	0.662918	0.222541
	H26	H	0.111503	0.339723	0.787586
	H27	H	0.899658	0.662640	0.783966
	H28	H	0.223124	0.905018	0.341132
	H29	H	0.217906	0.094267	0.670435
	H30	H	0.793955	0.100090	0.342180
	H31	H	0.796331	0.904929	0.669542
	H32	H	0.341819	0.218645	0.905096
	H33	H	0.673700	0.213517	0.102344
	H34	H	0.340569	0.790270	0.107305
	H35	H	0.671961	0.785005	0.905933
	H36	H	0.342205	0.905735	0.221100
	H37	H	0.674021	0.101120	0.216808
	H38	H	0.342241	0.105426	0.789155
	H39	H	0.673675	0.901331	0.792327
	H40	H	0.903757	0.222686	0.345103
	H41	H	0.111734	0.220108	0.666133
	H42	H	0.112701	0.783807	0.342386
	H43	H	0.906589	0.782313	0.665898
	H44	H	0.222586	0.338422	0.908091
	H45	H	0.216851	0.665829	0.101191
	H46	H	0.796689	0.337061	0.100021
	H47	H	0.791053	0.664958	0.908632
	H48	H	0.415083	0.118808	0.602972
	H49	H	0.598489	0.884636	0.606644
	H50	H	0.599733	0.118281	0.411873
	H51	H	0.412909	0.883115	0.405870
	H52	H	0.594585	0.403765	0.120243
	H53	H	0.599361	0.594039	0.889687
	H54	H	0.405859	0.595080	0.123165
	H55	H	0.410863	0.417528	0.890294
	H56	H	0.129164	0.593945	0.402935
	H57	H	0.891143	0.585890	0.595639
	H58	H	0.125286	0.409180	0.594224
	H59	H	0.889161	0.408208	0.421637
	H60	H	0.126127	0.410667	0.598767
	H61	H	0.885206	0.597036	0.601629
	H62	H	0.125204	0.597074	0.418591
	H63	H	0.889784	0.417887	0.413120
	H64	H	0.417192	0.592842	0.118143
	H65	H	0.593049	0.594020	0.891631
	H66	H	0.603217	0.401891	0.122565
	H67	H	0.426947	0.409106	0.892652
	H68	H	0.602079	0.119304	0.407850
	H69	H	0.597304	0.888913	0.595982
	H70	H	0.417707	0.114896	0.597396
	H71	H	0.428649	0.889404	0.408200
	H72	H	0.912749	0.618178	0.102489
	H73	H	0.099620	0.384277	0.104294
	H74	H	0.094295	0.619087	0.898378
	H75	H	0.926559	0.390126	0.911901
	H76	H	0.112956	0.911192	0.622358
	H77	H	0.108530	0.095224	0.387686
	H78	H	0.916651	0.085997	0.617476
	H79	H	0.915174	0.905911	0.387651
	H80	H	0.626509	0.087711	0.905392
	H81	H	0.387010	0.098715	0.099131
	H82	H	0.621709	0.920869	0.094227
	H83	H	0.393165	0.918895	0.924736
	H84	H	0.631308	0.903103	0.107262
	H85	H	0.389448	0.095397	0.092294
	H86	H	0.628825	0.102043	0.912256
	H87	H	0.388002	0.919788	0.904897
	H88	H	0.925242	0.102109	0.620398
	H89	H	0.095453	0.088614	0.393268
	H90	H	0.089671	0.908357	0.616129
	H91	H	0.915954	0.912951	0.390151
	H92	H	0.086612	0.612398	0.916290
	H93	H	0.095266	0.387822	0.097071
	H94	H	0.916310	0.616206	0.097630
	H95	H	0.909593	0.387111	0.917948
	H96	H	0.411159	0.117438	0.596844
	H97	H	0.608065	0.883899	0.599417
	H98	H	0.596386	0.117391	0.406925
	H99	H	0.417696	0.889254	0.419876
	H100	H	0.600457	0.409787	0.120088
	H101	H	0.595643	0.598948	0.889288
	H102	H	0.414822	0.604336	0.122204
	H103	H	0.411969	0.400263	0.885499
	H104	H	0.122025	0.582332	0.412800
	H105	H	0.889609	0.598104	0.587693
	H106	H	0.127395	0.406742	0.597994
	H107	H	0.884964	0.406821	0.409252
	H108	H	0.910178	0.617819	0.096823
	H109	H	0.103905	0.385502	0.096415
	H110	H	0.106782	0.618794	0.914479
	H111	H	0.913894	0.382304	0.901130
	H112	H	0.102341	0.890099	0.624929
	H113	H	0.095527	0.103318	0.388998
	H114	H	0.907264	0.100336	0.625239
	H115	H	0.921817	0.908153	0.391138
	H116	H	0.622420	0.089253	0.920546
	H117	H	0.389440	0.091503	0.098571
	H118	H	0.624955	0.900251	0.084826
	H119	H	0.386046	0.903114	0.915688
	C120	C	0.386186	0.010002	0.628148
	C121	C	0.629540	0.993400	0.627833
	C122	C	0.630474	0.010953	0.381574
	C123	C	0.387528	0.994136	0.382555
	C124	C	0.629322	0.377816	0.013423
	C125	C	0.626114	0.622952	0.997602
	C126	C	0.382799	0.626595	0.013876
	C127	C	0.386396	0.380687	0.997021
	C128	C	0.016211	0.622378	0.382655
	C129	C	0.998524	0.621169	0.624131
	C130	C	0.016308	0.380499	0.625990
	C131	C	0.997815	0.380879	0.384591
	C132	C	0.884267	0.509961	0.127261
	C133	C	0.127548	0.493267	0.127234
	C134	C	0.128173	0.509739	0.881643
	C135	C	0.884461	0.493340	0.881514
	C136	C	0.131745	0.876652	0.513247
	C137	C	0.129301	0.123305	0.497254
	C138	C	0.885773	0.125195	0.514091
	C139	C	0.887729	0.879966	0.496979
	C140	C	0.516187	0.123259	0.883652
	C141	C	0.498825	0.123132	0.124960
	C142	C	0.516095	0.881030	0.126339
	C143	C	0.498357	0.882430	0.885513
	C144	C	0.387159	0.888731	0.685859
	C145	C	0.628728	0.115032	0.683812
	C146	C	0.631783	0.889326	0.325204
	C147	C	0.386127	0.115991	0.326574
	C148	C	0.684925	0.382779	0.890789
	C149	C	0.681511	0.617961	0.120116
	C150	C	0.328868	0.622606	0.890845
	C151	C	0.331863	0.385839	0.120086
	C152	C	0.891603	0.680641	0.384340
	C153	C	0.124259	0.674363	0.622120
	C154	C	0.891484	0.325842	0.624766
	C155	C	0.122795	0.324188	0.385006
	C156	C	0.891194	0.382494	0.681448
	C157	C	0.123066	0.619068	0.680813
	C158	C	0.890276	0.622137	0.329131
	C159	C	0.122513	0.381209	0.327862
	C160	C	0.382982	0.684032	0.892499
	C161	C	0.626579	0.678826	0.119433
	C162	C	0.630342	0.321923	0.891774
	C163	C	0.385730	0.323693	0.118497
	C164	C	0.685647	0.887629	0.387196
	C165	C	0.682831	0.116521	0.622793
	C166	C	0.333678	0.886603	0.624109
	C167	C	0.330248	0.116480	0.386995
	C168	C	0.884437	0.388669	0.184657
	C169	C	0.125840	0.614916	0.183694
	C170	C	0.129566	0.388011	0.826425
	C171	C	0.882415	0.614806	0.824143
	C172	C	0.186838	0.882386	0.390410
	C173	C	0.182600	0.117288	0.620786
	C174	C	0.830788	0.121929	0.391274
	C175	C	0.832940	0.883309	0.619977
	C176	C	0.391514	0.180592	0.884930
	C177	C	0.624081	0.176890	0.122671
	C178	C	0.390571	0.827559	0.126436
	C179	C	0.622690	0.823970	0.885966
	C180	C	0.391572	0.884766	0.183280
	C181	C	0.624142	0.120945	0.179622
	C182	C	0.391925	0.124270	0.827338
	C183	C	0.623504	0.881948	0.829677
	C184	C	0.885364	0.182756	0.392749
	C185	C	0.129604	0.179898	0.618655
	C186	C	0.131682	0.821914	0.391010
	C187	C	0.888133	0.822410	0.618263
	C188	C	0.185087	0.387369	0.886471
	C189	C	0.180271	0.616650	0.122821
	C190	C	0.831526	0.386731	0.122702
	C191	C	0.827695	0.615743	0.885461
	C192	C	0.408228	0.095008	0.605639
	C193	C	0.607832	0.907955	0.606900
	C194	C	0.606560	0.096115	0.402674
	C195	C	0.412614	0.909218	0.404673
	C196	C	0.606179	0.398778	0.098803
	C197	C	0.602797	0.601917	0.912321
	C198	C	0.405668	0.604162	0.099143
	C199	C	0.409658	0.402533	0.911615
	C200	C	0.102957	0.598274	0.404903
	C201	C	0.911389	0.599993	0.601655
	C202	C	0.103765	0.402514	0.603576
	C203	C	0.910441	0.404253	0.407717
	C204	C	0.906529	0.595185	0.105289
	C205	C	0.106118	0.408058	0.105596
	C206	C	0.103310	0.594922	0.903343
	C207	C	0.909311	0.408481	0.903754
	C208	C	0.108289	0.897185	0.599079
	C209	C	0.106421	0.102062	0.412039
	C210	C	0.909387	0.102678	0.598990
	C211	C	0.910710	0.902417	0.411721
	C212	C	0.603404	0.099866	0.906146
	C213	C	0.411233	0.101431	0.103152
	C214	C	0.603389	0.901945	0.102496
	C215	C	0.411564	0.906817	0.908498
	Zn216	Zn	0.508049	0.002555	0.757194
	Zn217	Zn	0.508891	0.003124	0.251965
	Zn218	Zn	0.756184	0.501221	0.005370
	Zn219	Zn	0.256269	0.502547	0.004863
	Zn220	Zn	0.008727	0.749113	0.503984
	Zn221	Zn	0.007951	0.254208	0.505885
	Zn222	Zn	0.006439	0.501110	0.752243
	Zn223	Zn	0.005482	0.501366	0.256234
	Zn224	Zn	0.505949	0.753995	0.005945
	Zn225	Zn	0.507631	0.249571	0.005089
	Zn226	Zn	0.758060	0.002147	0.505958
	Zn227	Zn	0.258156	0.001074	0.505641
	N228	N	0.418876	0.966576	0.688698
	N229	N	0.596710	0.037369	0.687414
	N230	N	0.598377	0.967021	0.321354
	N231	N	0.421074	0.038952	0.323752
	N232	N	0.684554	0.416759	0.967381
	N233	N	0.681393	0.583885	0.043329
	N234	N	0.328449	0.587671	0.967370
	N235	N	0.332249	0.420772	0.043509
	N236	N	0.971008	0.681150	0.416706
	N237	N	0.045776	0.675993	0.587617
	N238	N	0.970380	0.324633	0.590918
	N239	N	0.044322	0.324027	0.419578
	N240	N	0.969820	0.415842	0.682316
	N241	N	0.043883	0.586889	0.682309
	N242	N	0.968385	0.586594	0.327983
	N243	N	0.043698	0.415896	0.327538
	N244	N	0.415825	0.686391	0.970098
	N245	N	0.592791	0.681945	0.042301
	N246	N	0.596516	0.318747	0.969172
	N247	N	0.419039	0.320447	0.040934
	N248	N	0.685238	0.964222	0.421311
	N249	N	0.683553	0.039901	0.588852
	N250	N	0.332921	0.962865	0.588870
	N251	N	0.330978	0.039604	0.421016
	N252	N	0.916447	0.466224	0.187480
	N253	N	0.093530	0.537372	0.186485
	N254	N	0.094780	0.465109	0.823381
	N255	N	0.916713	0.537519	0.821395
	N256	N	0.187051	0.915493	0.467624
	N257	N	0.182561	0.082714	0.544309
	N258	N	0.830703	0.086817	0.467704
	N259	N	0.832702	0.918510	0.543604
	N260	N	0.469967	0.180087	0.919308
	N261	N	0.545103	0.178484	0.089530
	N262	N	0.469019	0.825134	0.091817
	N263	N	0.543860	0.824200	0.920024
	N264	N	0.470880	0.917041	0.183479
	N265	N	0.545217	0.088212	0.181152
	N266	N	0.470608	0.089442	0.826518
	N267	N	0.545162	0.917510	0.829190
	N268	N	0.918882	0.184969	0.470037
	N269	N	0.097165	0.183790	0.540967
	N270	N	0.098612	0.817832	0.468641
	N271	N	0.921524	0.820253	0.540690
	N272	N	0.184388	0.464272	0.920137
	N273	N	0.181749	0.540119	0.088580
	N274	N	0.831217	0.463216	0.087691
	N275	N	0.828969	0.539512	0.920657
	O276	O	0.543033	0.579404	0.505017
	H277	H	0.544070	0.573104	0.500392
	H278	H	0.546681	0.575845	0.509526
	O279	O	0.464292	0.455289	0.538883
	H280	H	0.450723	0.459151	0.526697
	H281	H	0.460369	0.447288	0.546912
	O282	O	1.126428	0.963427	-0.004246
	H283	H	1.132068	0.968085	-0.010210
	H284	H	1.125183	0.951356	-0.000384
	O285	O	0.985351	-0.063818	0.948911
	H286	H	0.981981	-0.054110	0.940920
	H287	H	0.988712	-0.072220	0.958801
	O288	O	0.401414	0.603620	0.495015
	H289	H	0.411242	0.586623	0.507571
	H290	H	0.384797	0.616435	0.483915
	O291	O	0.590922	0.507371	0.481234
	H292	H	0.589988	0.516213	0.484335
	H293	H	0.597600	0.509107	0.490745
	O294	O	0.516369	0.531208	0.484918
	H295	H	0.518155	0.529491	0.474255
	H296	H	0.503748	0.545385	0.485180
	O297	O	0.099373	-0.158934	0.987351
	H298	H	0.107660	-0.156012	0.993251
	H299	H	0.103488	-0.160773	0.989318
	O300	O	-0.003876	0.050216	0.028707
	H301	H	-0.005985	0.042317	0.017466
	H302	H	0.000053	0.049250	0.016455
	O303	O	0.934314	0.968272	-0.053386
	H304	H	0.931945	0.971983	-0.061014
	H305	H	0.935913	0.980238	-0.052171
	O306	O	-0.062488	0.892465	1.122321
	H307	H	-0.061650	0.893922	1.120448
	H308	H	-0.071812	0.886334	1.115190
	O309	O	0.439731	0.409328	0.483768
	H310	H	0.446130	0.415813	0.486315
	H311	H	0.440414	0.409893	0.485588
	O312	O	-0.119181	0.012513	0.044788
	H313	H	-0.115720	0.006213	0.046935
	H314	H	-0.125460	0.004487	0.045888
	O315	O	1.053772	0.108675	-0.021400
	H316	H	1.048217	0.111956	-0.013019
	H317	H	1.054172	0.111390	-0.032220
	O318	O	1.052496	1.018435	1.032588
	H319	H	1.047821	1.011443	1.024724
	H320	H	1.054032	1.002778	1.033287
	O321	O	-0.058293	-0.000344	1.055461
	H322	H	-0.056916	0.013183	1.056867
	H323	H	-0.064018	0.002467	1.060020
	O324	O	0.472681	0.389561	0.592331
	H325	H	0.465653	0.387335	0.591965
	H326	H	0.468743	0.387639	0.580950
	O327	O	0.029979	-0.052250	-0.089145
	H328	H	0.033031	-0.052317	-0.090580
	H329	H	0.029650	-0.050400	-0.084924
	O330	O	0.398913	0.465481	0.461750
	H331	H	0.401674	0.472903	0.464199
	H332	H	0.399840	0.476233	0.452057
	O333	O	-0.040447	0.996982	1.018507
	H334	H	-0.052219	1.002658	1.023877
	H335	H	-0.040682	0.996119	1.021084
	O336	O	0.037521	0.008873	-0.067236
	H337	H	0.034106	0.008291	-0.058821
	H338	H	0.041788	0.021971	-0.067307
	O339	O	0.541331	0.498806	0.620186
	H340	H	0.544578	0.495853	0.620623
	H341	H	0.540330	0.500343	0.619401
	O342	O	1.098244	0.978494	0.926644
	H343	H	1.084083	0.973961	0.924853
	H344	H	1.099330	0.985208	0.920511
	O345	O	1.018253	0.949631	-0.134307
	H346	H	1.017049	0.958430	-0.143251
	H347	H	1.023699	0.944542	-0.138369
	O348	O	0.547184	0.429732	0.425698
	H349	H	0.548293	0.434020	0.444465
	H350	H	0.554279	0.424438	0.421620
	O351	O	0.543627	0.496364	0.563545
	H352	H	0.551570	0.493806	0.545525
	H353	H	0.527642	0.494293	0.564910
	O354	O	0.439295	0.524991	0.503154
	H355	H	0.444527	0.514717	0.493621
	H356	H	0.439318	0.531512	0.497004
	O357	O	1.014723	0.070149	1.124592
	H358	H	1.022578	0.077710	1.137215
	H359	H	1.016060	0.078182	1.113955
	O360	O	0.535448	0.565393	0.426384
	H361	H	0.530986	0.565618	0.426499
	H362	H	0.532727	0.558413	0.423337
	O363	O	0.559344	0.575439	0.517048
	H364	H	0.561554	0.586917	0.510145
	H365	H	0.568159	0.573208	0.527072
	O366	O	0.472081	1.557427	0.593043
	H367	H	0.474198	1.559657	0.597640
	H368	H	0.473599	1.554924	0.594497
	O369	O	0.946603	-0.088010	1.093301
	H370	H	0.937471	-0.102358	1.107717
	H371	H	0.943931	-0.098619	1.086863
	O372	O	-0.017738	0.073845	0.019788
	H373	H	-0.026148	0.081084	0.015608
	H374	H	-0.004673	0.069073	0.031830
	O375	O	0.992449	0.083836	-0.003129
	H376	H	0.995294	0.086224	-0.014936
	H377	H	0.996784	0.083883	-0.002176
	O378	O	0.456159	0.455575	0.388082
	H379	H	0.462992	0.469808	0.389483
	H380	H	0.457088	0.460290	0.379831
	O381	O	0.482934	0.488362	0.549640
	H382	H	0.477476	0.483356	0.548349
	H383	H	0.482056	0.480694	0.547045
