data_Molecule from HDF5

_cell_length_a		16.191529
_cell_length_b		16.403629
_cell_length_c		16.224233
_cell_angle_alpha	90.124570
_cell_angle_beta	89.986560
_cell_angle_gamma	90.035959
_symmetry_space_group_name_H-M	'P 1'
_symmetry_Int_Tables_number		1

loop_
	_symmetry_equiv_pos_as_xyz
	x,y,z

loop_
	_atom_site_label
	_atom_site_type_symbol
	_atom_site_fract_x
	_atom_site_fract_y
	_atom_site_fract_z
	H0	H	0.395976	0.836002	0.716186
	H1	H	0.595625	0.160727	0.715759
	H2	H	0.594228	0.835642	0.283243
	H3	H	0.396690	0.161480	0.285292
	H4	H	0.709302	0.402556	0.834903
	H5	H	0.709980	0.596552	0.164190
	H6	H	0.283158	0.597120	0.835997
	H7	H	0.283841	0.403937	0.165138
	H8	H	0.832197	0.712150	0.400177
	H9	H	0.159596	0.713959	0.599478
	H10	H	0.832087	0.281492	0.599741
	H11	H	0.159874	0.280560	0.397105
	H12	H	0.831177	0.400414	0.713124
	H13	H	0.160991	0.595558	0.711988
	H14	H	0.831532	0.594264	0.287277
	H15	H	0.161325	0.400158	0.285718
	H16	H	0.396571	0.713751	0.836290
	H17	H	0.597100	0.715432	0.163271
	H18	H	0.599030	0.281426	0.837147
	H19	H	0.396293	0.284772	0.163859
	H20	H	0.710238	0.834488	0.400880
	H21	H	0.711730	0.160135	0.598431
	H22	H	0.280988	0.834779	0.597912
	H23	H	0.281012	0.160227	0.402505
	H24	H	0.897327	0.335702	0.213596
	H25	H	0.095715	0.661609	0.216155
	H26	H	0.097215	0.336537	0.783028
	H27	H	0.896614	0.661182	0.783903
	H28	H	0.208142	0.901024	0.334754
	H29	H	0.209536	0.096042	0.664112
	H30	H	0.782606	0.093259	0.335152
	H31	H	0.781631	0.899162	0.663741
	H32	H	0.332631	0.216239	0.898785
	H33	H	0.660660	0.215498	0.101666
	H34	H	0.332813	0.783498	0.099903
	H35	H	0.659957	0.783099	0.898689
	H36	H	0.330773	0.903175	0.211080
	H37	H	0.661120	0.096640	0.214544
	H38	H	0.331070	0.097067	0.785921
	H39	H	0.660739	0.901952	0.787129
	H40	H	0.895377	0.212103	0.335849
	H41	H	0.098347	0.214786	0.662356
	H42	H	0.095184	0.782978	0.335948
	H43	H	0.894673	0.781973	0.662821
	H44	H	0.213813	0.337296	0.899736
	H45	H	0.209870	0.662891	0.097165
	H46	H	0.780310	0.336062	0.098358
	H47	H	0.783032	0.662130	0.902544
	H48	H	0.400957	0.112556	0.590096
	H49	H	0.587536	0.879210	0.605175
	H50	H	0.591412	0.113750	0.407211
	H51	H	0.408304	0.885234	0.408600
	H52	H	0.589225	0.411137	0.114979
	H53	H	0.578888	0.599290	0.883746
	H54	H	0.410591	0.591928	0.115605
	H55	H	0.407405	0.399940	0.882306
	H56	H	0.113762	0.588948	0.405188
	H57	H	0.877754	0.594012	0.590526
	H58	H	0.111597	0.407211	0.589625
	H59	H	0.879165	0.400627	0.409402
	H60	H	0.113747	0.405464	0.592958
	H61	H	0.880509	0.589101	0.589349
	H62	H	0.114890	0.594807	0.407029
	H63	H	0.880810	0.407192	0.408918
	H64	H	0.402971	0.600778	0.119784
	H65	H	0.599273	0.597416	0.877939
	H66	H	0.584310	0.404491	0.116205
	H67	H	0.400397	0.410719	0.883230
	H68	H	0.586658	0.113043	0.405687
	H69	H	0.580105	0.887562	0.587715
	H70	H	0.401576	0.114788	0.597196
	H71	H	0.394108	0.880840	0.407786
	H72	H	0.906026	0.615309	0.100264
	H73	H	0.091893	0.385535	0.083499
	H74	H	0.082512	0.613190	0.904924
	H75	H	0.906383	0.382722	0.898240
	H76	H	0.079763	0.913972	0.611467
	H77	H	0.085874	0.102443	0.380383
	H78	H	0.906943	0.088515	0.614659
	H79	H	0.906793	0.900487	0.382697
	H80	H	0.615305	0.091450	0.898818
	H81	H	0.378072	0.096435	0.093731
	H82	H	0.611308	0.913153	0.093371
	H83	H	0.376114	0.895734	0.908257
	H84	H	0.616087	0.902216	0.096643
	H85	H	0.380478	0.094312	0.089084
	H86	H	0.613692	0.100265	0.914347
	H87	H	0.382550	0.909043	0.917409
	H88	H	0.906313	0.093404	0.616424
	H89	H	0.100013	0.085679	0.380636
	H90	H	0.083192	0.892508	0.618622
	H91	H	0.899802	0.903033	0.380752
	H92	H	0.094376	0.614586	0.912003
	H93	H	0.096226	0.381039	0.097016
	H94	H	0.908681	0.610940	0.089133
	H95	H	0.910380	0.387500	0.912535
	H96	H	0.407494	0.111924	0.592913
	H97	H	0.599449	0.880935	0.589251
	H98	H	0.588353	0.111740	0.410414
	H99	H	0.403073	0.879132	0.395719
	H100	H	0.591886	0.404179	0.119146
	H101	H	0.588935	0.581290	0.886537
	H102	H	0.398161	0.589693	0.117803
	H103	H	0.413052	0.410896	0.887444
	H104	H	0.113099	0.590623	0.411375
	H105	H	0.878306	0.589708	0.594395
	H106	H	0.112694	0.403226	0.589853
	H107	H	0.878461	0.403343	0.403654
	H108	H	0.897595	0.614969	0.092025
	H109	H	0.081881	0.385949	0.094612
	H110	H	0.094505	0.617561	0.898597
	H111	H	0.895594	0.382251	0.910073
	H112	H	0.101303	0.907984	0.619937
	H113	H	0.079181	0.082970	0.387764
	H114	H	0.901902	0.090424	0.617399
	H115	H	0.905073	0.907595	0.384130
	H116	H	0.608448	0.082872	0.912897
	H117	H	0.379980	0.090883	0.093680
	H118	H	0.612762	0.904370	0.084811
	H119	H	0.378435	0.911188	0.900293
	C120	C	0.374279	0.005984	0.621747
	C121	C	0.618028	0.989789	0.622517
	C122	C	0.617749	0.005797	0.378092
	C123	C	0.373404	0.989754	0.376916
	C124	C	0.618358	0.377233	0.008533
	C125	C	0.617974	0.620939	0.991112
	C126	C	0.375226	0.621597	0.008999
	C127	C	0.376391	0.378619	0.992143
	C128	C	0.004840	0.619418	0.378711
	C129	C	0.987493	0.619780	0.620632
	C130	C	0.004356	0.376203	0.620262
	C131	C	0.987965	0.374954	0.377697
	C132	C	0.874380	0.506685	0.121950
	C133	C	0.118507	0.491453	0.120995
	C134	C	0.119334	0.507327	0.876616
	C135	C	0.875285	0.491198	0.877974
	C136	C	0.116802	0.876548	0.508173
	C137	C	0.117906	0.119585	0.490921
	C138	C	0.875256	0.118511	0.507768
	C139	C	0.874628	0.875519	0.491217
	C140	C	0.503957	0.120477	0.879121
	C141	C	0.488205	0.121641	0.121515
	C142	C	0.504787	0.878175	0.120371
	C143	C	0.487385	0.877118	0.879198
	C144	C	0.375995	0.884064	0.677486
	C145	C	0.615705	0.112123	0.677603
	C146	C	0.615268	0.883892	0.321690
	C147	C	0.376369	0.112452	0.322852
	C148	C	0.672591	0.380659	0.884346
	C149	C	0.672893	0.617818	0.115141
	C150	C	0.320754	0.617919	0.884988
	C151	C	0.320850	0.382298	0.115741
	C152	C	0.881205	0.674173	0.380180
	C153	C	0.110883	0.675457	0.619283
	C154	C	0.880949	0.320183	0.619430
	C155	C	0.111341	0.319458	0.378403
	C156	C	0.880444	0.378998	0.675905
	C157	C	0.111433	0.616774	0.675213
	C158	C	0.880906	0.615675	0.324114
	C159	C	0.111879	0.378717	0.322721
	C160	C	0.377111	0.675835	0.885217
	C161	C	0.616777	0.676524	0.114701
	C162	C	0.617919	0.320644	0.885632
	C163	C	0.376887	0.323228	0.115238
	C164	C	0.672568	0.883356	0.380339
	C165	C	0.673679	0.111897	0.619503
	C166	C	0.318742	0.883532	0.618891
	C167	C	0.318427	0.111861	0.380751
	C168	C	0.876382	0.384227	0.176380
	C169	C	0.115934	0.613271	0.177373
	C170	C	0.117393	0.385271	0.821314
	C171	C	0.877088	0.612878	0.822259
	C172	C	0.171507	0.879592	0.384158
	C173	C	0.172679	0.116983	0.614737
	C174	C	0.819995	0.114712	0.384129
	C175	C	0.819299	0.878442	0.614689
	C176	C	0.381075	0.176790	0.880234
	C177	C	0.611742	0.176704	0.120561
	C178	C	0.381395	0.822261	0.118986
	C179	C	0.611257	0.822005	0.879978
	C180	C	0.380267	0.881718	0.174184
	C181	C	0.611877	0.117996	0.176922
	C182	C	0.380313	0.117724	0.823968
	C183	C	0.611494	0.880816	0.824256
	C184	C	0.876044	0.173796	0.384623
	C185	C	0.117146	0.175942	0.613885
	C186	C	0.115399	0.820922	0.384870
	C187	C	0.875442	0.820002	0.614049
	C188	C	0.175638	0.385677	0.879162
	C189	C	0.172680	0.614114	0.118373
	C190	C	0.818721	0.384425	0.118524
	C191	C	0.820389	0.613417	0.881312
	C192	C	0.396646	0.091046	0.599822
	C193	C	0.595579	0.904534	0.600452
	C194	C	0.595404	0.090955	0.401000
	C195	C	0.395415	0.904027	0.397836
	C196	C	0.595217	0.399867	0.094450
	C197	C	0.595712	0.599204	0.905165
	C198	C	0.397290	0.600305	0.095310
	C199	C	0.399998	0.400811	0.906467
	C200	C	0.091607	0.597946	0.401163
	C201	C	0.901127	0.597430	0.598025
	C202	C	0.090342	0.398682	0.597565
	C203	C	0.901809	0.397145	0.400578
	C204	C	0.897197	0.591749	0.100249
	C205	C	0.096539	0.406157	0.098279
	C206	C	0.097042	0.592967	0.898611
	C207	C	0.897637	0.406000	0.900303
	C208	C	0.094738	0.898579	0.594317
	C209	C	0.095117	0.096980	0.405165
	C210	C	0.898303	0.096985	0.593868
	C211	C	0.897277	0.897297	0.404777
	C212	C	0.590283	0.098204	0.901969
	C213	C	0.401655	0.100082	0.098748
	C214	C	0.591124	0.900180	0.098080
	C215	C	0.401221	0.898758	0.901925
	Zn216	Zn	0.495478	-0.001852	0.751524
	Zn217	Zn	0.495993	-0.001336	0.248656
	Zn218	Zn	0.745667	0.499085	-0.000208
	Zn219	Zn	0.247965	0.500160	-0.000086
	Zn220	Zn	-0.004152	0.747855	0.499556
	Zn221	Zn	-0.003651	0.247458	0.499294
	Zn222	Zn	-0.003711	0.498355	0.748183
	Zn223	Zn	-0.003404	0.498198	0.250657
	Zn224	Zn	0.496668	0.749154	0.000057
	Zn225	Zn	0.496871	0.249740	0.000083
	Zn226	Zn	0.747057	-0.002809	0.500204
	Zn227	Zn	0.245466	-0.002486	0.499985
	N228	N	0.409643	0.961002	0.679430
	N229	N	0.581923	0.035160	0.679586
	N230	N	0.581703	0.960834	0.320423
	N231	N	0.409642	0.035353	0.320167
	N232	N	0.672868	0.415271	0.961706
	N233	N	0.673584	0.583776	0.037599
	N234	N	0.319691	0.584671	0.962694
	N235	N	0.320308	0.416145	0.038138
	N236	N	0.959265	0.676544	0.413356
	N237	N	0.032711	0.677612	0.586213
	N238	N	0.958896	0.318294	0.585635
	N239	N	0.033312	0.317026	0.411701
	N240	N	0.958150	0.413300	0.676490
	N241	N	0.033733	0.582972	0.676137
	N242	N	0.958772	0.581885	0.323482
	N243	N	0.034226	0.412757	0.322169
	N244	N	0.410367	0.678321	0.963326
	N245	N	0.583366	0.678654	0.036759
	N246	N	0.584990	0.318471	0.963843
	N247	N	0.410276	0.320619	0.037374
	N248	N	0.674482	0.960367	0.414480
	N249	N	0.675245	0.034942	0.585996
	N250	N	0.317706	0.960374	0.584844
	N251	N	0.316653	0.034682	0.413698
	N252	N	0.910501	0.460979	0.178608
	N253	N	0.082932	0.535814	0.179177
	N254	N	0.083428	0.462049	0.819537
	N255	N	0.910722	0.535848	0.820328
	N256	N	0.172562	0.913613	0.461815
	N257	N	0.173368	0.082501	0.537365
	N258	N	0.819534	0.080979	0.461716
	N259	N	0.818764	0.912332	0.537251
	N260	N	0.459029	0.178332	0.913801
	N261	N	0.533797	0.179064	0.087008
	N262	N	0.459829	0.820034	0.086236
	N263	N	0.533278	0.819710	0.913528
	N264	N	0.457852	0.915988	0.174903
	N265	N	0.533931	0.084400	0.177701
	N266	N	0.457921	0.083540	0.823087
	N267	N	0.533490	0.914285	0.823529
	N268	N	0.909642	0.176190	0.462521
	N269	N	0.083771	0.177517	0.536000
	N270	N	0.082166	0.818827	0.462944
	N271	N	0.909044	0.818180	0.536121
	N272	N	0.176811	0.462769	0.912973
	N273	N	0.174125	0.537486	0.083901
	N274	N	0.817225	0.461730	0.085595
	N275	N	0.819047	0.536735	0.915097
	O276	O	0.999718	1.074545	0.040291
	H277	H	0.991966	1.066171	0.042470
	H278	H	1.005235	1.078150	0.033660
	O279	O	0.074843	0.055841	0.008997
	H280	H	0.079405	0.059446	0.008064
	H281	H	0.081043	0.049583	0.006504
	O282	O	-0.021197	-0.029283	0.984900
	H283	H	-0.029075	-0.028291	0.986301
	H284	H	-0.020819	-0.036646	0.980811
	O285	O	1.016862	1.031431	0.976681
	H286	H	1.013161	1.028239	0.981923
	H287	H	1.015164	1.029288	0.967476
	O288	O	0.449264	0.397462	0.578260
	H289	H	0.445126	0.393922	0.565821
	H290	H	0.448194	0.396968	0.573494
	O291	O	0.518992	0.374790	0.475082
	H292	H	0.528386	0.378162	0.475182
	H293	H	0.518712	0.373465	0.474512
	O294	O	-0.109671	0.038456	-0.054137
	H295	H	-0.110425	0.042074	-0.045578
	H296	H	-0.117417	0.033694	-0.062675
	O297	O	0.446936	0.373618	0.497240
	H298	H	0.442513	0.363763	0.495109
	H299	H	0.450880	0.371223	0.497514
	O300	O	-0.031236	1.099976	0.951763
	H301	H	-0.031330	1.111143	0.944872
	H302	H	-0.031470	1.101198	0.947526
	O303	O	0.542236	0.353901	0.495121
	H304	H	0.545051	0.345377	0.500804
	H305	H	0.533158	0.358869	0.486434
	O306	O	-0.018544	0.093165	1.035170
	H307	H	-0.019745	0.094641	1.036937
	H308	H	-0.006362	0.084472	1.029317
	O309	O	0.946872	1.015776	1.037940
	H310	H	0.950259	1.019025	1.032442
	H311	H	0.938937	1.016595	1.048352
	O312	O	0.980171	0.006728	-0.037499
	H313	H	0.974428	0.011594	-0.032360
	H314	H	0.981711	0.012954	-0.030359
	O315	O	0.477973	0.383400	0.514404
	H316	H	0.484030	0.380980	0.524528
	H317	H	0.477661	0.376871	0.525890
	O318	O	-0.034185	1.061636	0.033315
	H319	H	-0.033465	1.071410	0.033763
	H320	H	-0.023727	1.057255	0.035818
	O321	O	0.976029	1.041531	-0.047255
	H322	H	0.982191	1.051776	-0.046629
	H323	H	0.970892	1.040713	-0.048120
