data_Molecule from HDF5

_cell_length_a		16.419492
_cell_length_b		16.218915
_cell_length_c		16.073655
_cell_angle_alpha	90.488978
_cell_angle_beta	89.656832
_cell_angle_gamma	89.761128
_symmetry_space_group_name_H-M	'P 1'
_symmetry_Int_Tables_number		1

loop_
	_symmetry_equiv_pos_as_xyz
	x,y,z

loop_
	_atom_site_label
	_atom_site_type_symbol
	_atom_site_fract_x
	_atom_site_fract_y
	_atom_site_fract_z
	H0	H	0.406707	0.834598	0.709978
	H1	H	0.596096	0.165549	0.714705
	H2	H	0.599831	0.837302	0.284008
	H3	H	0.403489	0.165660	0.290385
	H4	H	0.716446	0.397251	0.836690
	H5	H	0.713322	0.606628	0.163890
	H6	H	0.283018	0.601507	0.834470
	H7	H	0.282018	0.403367	0.163934
	H8	H	0.839569	0.718873	0.401046
	H9	H	0.163158	0.714544	0.598716
	H10	H	0.839694	0.282479	0.602968
	H11	H	0.162811	0.282577	0.397290
	H12	H	0.836496	0.403955	0.713844
	H13	H	0.162862	0.597303	0.714255
	H14	H	0.836601	0.599176	0.289291
	H15	H	0.161666	0.399571	0.281312
	H16	H	0.401752	0.711524	0.832530
	H17	H	0.592880	0.714573	0.165028
	H18	H	0.598244	0.284381	0.835691
	H19	H	0.398432	0.290779	0.165760
	H20	H	0.719101	0.837687	0.395102
	H21	H	0.718825	0.162973	0.604515
	H22	H	0.284533	0.836756	0.602081
	H23	H	0.282365	0.161914	0.398046
	H24	H	0.900826	0.335908	0.212578
	H25	H	0.093788	0.665330	0.214908
	H26	H	0.096403	0.335760	0.785178
	H27	H	0.903916	0.666681	0.790696
	H28	H	0.219321	0.895946	0.336777
	H29	H	0.215524	0.101999	0.665632
	H30	H	0.785099	0.102552	0.336366
	H31	H	0.782516	0.897521	0.662767
	H32	H	0.336329	0.216774	0.902159
	H33	H	0.659439	0.221248	0.103080
	H34	H	0.336269	0.788935	0.098404
	H35	H	0.660693	0.781895	0.896822
	H36	H	0.338068	0.904263	0.217192
	H37	H	0.662884	0.101026	0.214632
	H38	H	0.337476	0.098952	0.785139
	H39	H	0.662821	0.900736	0.783656
	H40	H	0.903228	0.212803	0.335323
	H41	H	0.100087	0.216031	0.664991
	H42	H	0.103162	0.783529	0.335889
	H43	H	0.906031	0.792340	0.666775
	H44	H	0.218239	0.338498	0.894391
	H45	H	0.213939	0.664874	0.102580
	H46	H	0.779643	0.339261	0.103092
	H47	H	0.782451	0.664161	0.899800
	H48	H	0.405043	0.117481	0.590505
	H49	H	0.601028	0.882791	0.585716
	H50	H	0.598395	0.119330	0.408093
	H51	H	0.412773	0.880016	0.393235
	H52	H	0.585281	0.412263	0.117132
	H53	H	0.591241	0.594543	0.880517
	H54	H	0.404765	0.594718	0.116642
	H55	H	0.409924	0.403553	0.880655
	H56	H	0.113962	0.587458	0.409059
	H57	H	0.883581	0.601357	0.592747
	H58	H	0.117470	0.399634	0.590041
	H59	H	0.885009	0.398520	0.415674
	H60	H	0.112279	0.411685	0.587098
	H61	H	0.886283	0.593525	0.593005
	H62	H	0.116994	0.591393	0.403991
	H63	H	0.888689	0.415308	0.411773
	H64	H	0.404156	0.596879	0.118304
	H65	H	0.596313	0.589598	0.880112
	H66	H	0.592148	0.410227	0.119212
	H67	H	0.402227	0.411268	0.880972
	H68	H	0.593049	0.116923	0.409424
	H69	H	0.593788	0.882987	0.596089
	H70	H	0.404952	0.118124	0.594320
	H71	H	0.420725	0.889878	0.418216
	H72	H	0.901790	0.617656	0.091213
	H73	H	0.091115	0.387566	0.077049
	H74	H	0.092990	0.618413	0.908161
	H75	H	0.915277	0.386461	0.906563
	H76	H	0.091602	0.905315	0.619995
	H77	H	0.093058	0.088660	0.383354
	H78	H	0.911766	0.083970	0.614642
	H79	H	0.912840	0.918331	0.385311
	H80	H	0.614239	0.091782	0.908134
	H81	H	0.387215	0.092955	0.087872
	H82	H	0.614395	0.905080	0.085477
	H83	H	0.381789	0.903575	0.902852
	H84	H	0.614294	0.911518	0.091214
	H85	H	0.383117	0.090588	0.101315
	H86	H	0.614447	0.093405	0.907776
	H87	H	0.384404	0.905284	0.909262
	H88	H	0.913451	0.096238	0.618688
	H89	H	0.095474	0.093333	0.381368
	H90	H	0.099201	0.908581	0.620074
	H91	H	0.917427	0.899778	0.381770
	H92	H	0.092728	0.617936	0.909171
	H93	H	0.102415	0.381482	0.091270
	H94	H	0.903332	0.619962	0.098217
	H95	H	0.901526	0.385784	0.916391
	H96	H	0.407925	0.116520	0.592783
	H97	H	0.589328	0.886387	0.585162
	H98	H	0.596152	0.117909	0.413610
	H99	H	0.394974	0.881230	0.413718
	H100	H	0.590919	0.416985	0.116913
	H101	H	0.590199	0.587392	0.882647
	H102	H	0.402628	0.595550	0.117678
	H103	H	0.410783	0.413256	0.883837
	H104	H	0.115476	0.594378	0.409917
	H105	H	0.882798	0.597140	0.599944
	H106	H	0.117244	0.409439	0.599368
	H107	H	0.881215	0.404175	0.399812
	H108	H	0.908707	0.616941	0.093505
	H109	H	0.084290	0.384740	0.095243
	H110	H	0.093335	0.618594	0.909051
	H111	H	0.900605	0.380987	0.900917
	H112	H	0.093239	0.913832	0.617389
	H113	H	0.097699	0.088011	0.382079
	H114	H	0.902625	0.091212	0.619552
	H115	H	0.900339	0.906139	0.378448
	H116	H	0.613710	0.093931	0.909893
	H117	H	0.381989	0.104492	0.095554
	H118	H	0.616783	0.903899	0.092795
	H119	H	0.384045	0.910528	0.903943
	C120	C	0.378679	0.008804	0.621373
	C121	C	0.622808	0.992115	0.620555
	C122	C	0.624600	0.010112	0.378335
	C123	C	0.380198	0.991531	0.379773
	C124	C	0.619652	0.380891	0.009221
	C125	C	0.620031	0.622082	0.990428
	C126	C	0.376138	0.623401	0.007821
	C127	C	0.377558	0.381019	0.990816
	C128	C	0.008412	0.621367	0.379283
	C129	C	0.991726	0.624506	0.623601
	C130	C	0.008721	0.378367	0.621895
	C131	C	0.991832	0.376646	0.377321
	C132	C	0.875994	0.509938	0.122562
	C133	C	0.120283	0.492530	0.119689
	C134	C	0.121415	0.509697	0.878331
	C135	C	0.877412	0.492540	0.879068
	C136	C	0.123916	0.878398	0.509989
	C137	C	0.123548	0.120682	0.491475
	C138	C	0.880458	0.120239	0.508610
	C139	C	0.880604	0.879400	0.490779
	C140	C	0.507054	0.122146	0.879400
	C141	C	0.490840	0.125213	0.124347
	C142	C	0.507596	0.879606	0.120321
	C143	C	0.491007	0.877052	0.875986
	C144	C	0.384060	0.884451	0.674600
	C145	C	0.618421	0.116003	0.677260
	C146	C	0.621307	0.886503	0.321331
	C147	C	0.382926	0.115866	0.326354
	C148	C	0.677195	0.378716	0.885674
	C149	C	0.675016	0.624260	0.114515
	C150	C	0.321446	0.620894	0.883438
	C151	C	0.320461	0.383544	0.114960
	C152	C	0.887433	0.679145	0.381570
	C153	C	0.114293	0.677894	0.620272
	C154	C	0.887484	0.321735	0.621646
	C155	C	0.113903	0.320616	0.377487
	C156	C	0.885864	0.382036	0.677189
	C157	C	0.114052	0.619360	0.677550
	C158	C	0.885916	0.619624	0.325692
	C159	C	0.113481	0.378815	0.319741
	C160	C	0.380103	0.676049	0.882577
	C161	C	0.615204	0.678240	0.115016
	C162	C	0.618444	0.322630	0.885326
	C163	C	0.378624	0.327762	0.115878
	C164	C	0.680614	0.886796	0.376684
	C165	C	0.679197	0.114769	0.622391
	C166	C	0.323508	0.885498	0.620764
	C167	C	0.322282	0.113787	0.379831
	C168	C	0.879573	0.385546	0.175940
	C169	C	0.116256	0.616157	0.177445
	C170	C	0.118166	0.385608	0.822020
	C171	C	0.881788	0.616805	0.826029
	C172	C	0.180363	0.877740	0.385678
	C173	C	0.178440	0.121184	0.615699
	C174	C	0.824024	0.120488	0.385250
	C175	C	0.822678	0.879780	0.614186
	C176	C	0.384977	0.178480	0.881674
	C177	C	0.611827	0.182051	0.122720
	C178	C	0.385217	0.826310	0.118902
	C179	C	0.612574	0.820414	0.877086
	C180	C	0.386230	0.883834	0.177929
	C181	C	0.613424	0.122518	0.178490
	C182	C	0.385643	0.120088	0.823333
	C183	C	0.613719	0.879659	0.820986
	C184	C	0.882952	0.175444	0.384683
	C185	C	0.120795	0.177913	0.615765
	C186	C	0.122926	0.821431	0.385591
	C187	C	0.883837	0.827121	0.616199
	C188	C	0.178704	0.386804	0.876515
	C189	C	0.175516	0.615962	0.121051
	C190	C	0.818864	0.387487	0.121835
	C191	C	0.821387	0.615676	0.880480
	C192	C	0.399734	0.094937	0.599150
	C193	C	0.601183	0.906500	0.596165
	C194	C	0.602442	0.095776	0.403021
	C195	C	0.402863	0.906024	0.401734
	C196	C	0.596168	0.405905	0.095489
	C197	C	0.598917	0.597703	0.903611
	C198	C	0.397443	0.602185	0.094918
	C199	C	0.400871	0.402912	0.904109
	C200	C	0.093574	0.597853	0.401136
	C201	C	0.906146	0.603495	0.601747
	C202	C	0.093662	0.400414	0.598978
	C203	C	0.906936	0.399433	0.401810
	C204	C	0.897920	0.595873	0.100787
	C205	C	0.098786	0.406836	0.095187
	C206	C	0.099365	0.595940	0.901858
	C207	C	0.899280	0.406387	0.901443
	C208	C	0.101234	0.902225	0.596632
	C209	C	0.101829	0.096897	0.404670
	C210	C	0.902980	0.097271	0.595189
	C211	C	0.903464	0.901568	0.404176
	C212	C	0.592081	0.099644	0.902129
	C213	C	0.406128	0.102459	0.101688
	C214	C	0.593099	0.900551	0.096699
	C215	C	0.405324	0.899865	0.898703
	Zn216	Zn	0.500509	0.000266	0.748884
	Zn217	Zn	0.501512	0.001682	0.251409
	Zn218	Zn	0.748255	0.501640	0.000633
	Zn219	Zn	0.249906	0.501753	-0.001127
	Zn220	Zn	0.001404	0.752243	0.500212
	Zn221	Zn	0.001244	0.247991	0.500232
	Zn222	Zn	-0.001012	0.500833	0.750887
	Zn223	Zn	-0.001239	0.499791	0.249122
	Zn224	Zn	0.498405	0.749189	-0.001684
	Zn225	Zn	0.498125	0.253374	0.001518
	Zn226	Zn	0.752574	0.000550	0.499731
	Zn227	Zn	0.250952	-0.000725	0.500327
	N228	N	0.417339	0.962113	0.675418
	N229	N	0.584122	0.038722	0.676260
	N230	N	0.586918	0.964180	0.322174
	N231	N	0.418389	0.038928	0.326011
	N232	N	0.678144	0.414188	0.963911
	N233	N	0.678188	0.589931	0.036040
	N234	N	0.318605	0.589145	0.962493
	N235	N	0.319739	0.415894	0.036113
	N236	N	0.964789	0.680516	0.414011
	N237	N	0.037112	0.681294	0.587561
	N238	N	0.964768	0.319367	0.587816
	N239	N	0.037156	0.319067	0.412511
	N240	N	0.962205	0.416450	0.677448
	N241	N	0.036765	0.587058	0.679840
	N242	N	0.962271	0.584166	0.324087
	N243	N	0.036507	0.412609	0.319323
	N244	N	0.413478	0.677677	0.960979
	N245	N	0.581670	0.676923	0.036674
	N246	N	0.583649	0.323695	0.963275
	N247	N	0.413426	0.326128	0.037821
	N248	N	0.682778	0.964585	0.411357
	N249	N	0.682188	0.036857	0.587955
	N250	N	0.319991	0.963834	0.588357
	N251	N	0.320189	0.035517	0.412068
	N252	N	0.914183	0.462576	0.176818
	N253	N	0.082500	0.538545	0.176581
	N254	N	0.083407	0.462840	0.823042
	N255	N	0.915871	0.539105	0.824993
	N256	N	0.181158	0.912430	0.463943
	N257	N	0.180153	0.086247	0.537182
	N258	N	0.822653	0.086620	0.463410
	N259	N	0.820527	0.911523	0.535184
	N260	N	0.461783	0.179956	0.915662
	N261	N	0.534722	0.183852	0.089789
	N262	N	0.461913	0.823526	0.083850
	N263	N	0.535156	0.818739	0.910391
	N264	N	0.463484	0.916271	0.178896
	N265	N	0.537176	0.087798	0.179567
	N266	N	0.462366	0.085728	0.822050
	N267	N	0.537096	0.914266	0.820320
	N268	N	0.917206	0.175573	0.462607
	N269	N	0.087527	0.177900	0.537511
	N270	N	0.088108	0.821953	0.463746
	N271	N	0.919287	0.826811	0.538360
	N272	N	0.181067	0.465083	0.910573
	N273	N	0.178097	0.538310	0.085957
	N274	N	0.816565	0.465726	0.089165
	N275	N	0.818371	0.537391	0.912549
	O276	O	0.577250	0.548051	0.543967
	H277	H	0.572836	0.555347	0.542841
	H278	H	0.583854	0.550395	0.545107
	O279	O	0.401357	0.495206	0.529746
	H280	H	0.401740	0.507068	0.531557
	H281	H	0.398722	0.485968	0.526185
	O282	O	0.936603	1.056483	-0.048684
	H283	H	0.934895	1.049222	-0.058388
	H284	H	0.933357	1.060120	-0.047524
	O285	O	1.163719	0.024780	1.017351
	H286	H	1.166444	0.022357	1.024972
	H287	H	1.159992	0.033298	1.013805
	O288	O	0.544152	0.463587	0.423703
	H289	H	0.542704	0.469219	0.413062
	H290	H	0.548815	0.449452	0.436359
	O291	O	0.491967	0.484118	0.586321
	H292	H	0.490934	0.486631	0.595173
	H293	H	0.499641	0.486528	0.594278
	O294	O	0.505890	0.417393	0.394844
	H295	H	0.504963	0.426450	0.394415
	H296	H	0.504960	0.404067	0.384943
	O297	O	0.000304	0.094494	1.008294
	H298	H	0.001183	0.101099	1.006977
	H299	H	-0.004440	0.096594	1.019783
	O300	O	0.502786	0.558136	0.491405
	H301	H	0.500403	0.558262	0.491191
	H302	H	0.498079	0.557026	0.488170
	O303	O	0.934917	1.081383	0.055794
	H304	H	0.925944	1.072226	0.054475
	H305	H	0.931440	1.094920	0.065011
	O306	O	-0.117433	0.864860	1.042962
	H307	H	-0.110746	0.861232	1.046256
	H308	H	-0.104130	0.867236	1.043182
	O309	O	0.429714	0.530669	0.565580
	H310	H	0.434936	0.519369	0.567300
	H311	H	0.435430	0.536859	0.567124
	O312	O	-0.006838	0.041434	0.042423
	H313	H	-0.013500	0.047870	0.059168
	H314	H	0.006031	0.032169	0.046837
	O315	O	1.035316	-0.033221	-0.128303
	H316	H	1.031421	-0.030817	-0.133835
	H317	H	1.037839	-0.025940	-0.129889
	O318	O	0.982101	0.913080	0.997128
	H319	H	0.989959	0.911062	0.995904
	H320	H	0.983481	0.890898	0.989011
	O321	O	0.060890	-0.013471	1.039353
	H322	H	0.070871	0.010207	1.030212
	H323	H	0.072210	-0.019401	1.034320
	O324	O	0.503751	0.526379	0.461107
	H325	H	0.494376	0.528134	0.468780
	H326	H	0.499344	0.519386	0.453707
	O327	O	0.036954	0.103375	0.021320
	H328	H	0.032482	0.104974	0.015228
	H329	H	0.016762	0.111447	0.023637
	O330	O	0.478246	0.600904	0.485593
	H331	H	0.491956	0.590886	0.478792
	H332	H	0.470949	0.598042	0.472561
	O333	O	-0.013631	0.957040	0.942756
	H334	H	-0.011276	0.950270	0.952635
	H335	H	-0.015531	0.962407	0.956006
	O336	O	-0.065889	-0.019128	0.128372
	H337	H	-0.063728	-0.029955	0.120981
	H338	H	-0.053966	-0.021284	0.120160
	O339	O	0.493353	0.517086	0.483683
	H340	H	0.499919	0.533897	0.479458
	H341	H	0.488016	0.518913	0.482034
	O342	O	0.897385	0.990666	0.972835
	H343	H	0.883778	0.992434	0.978105
	H344	H	0.888465	1.002982	0.980021
	O345	O	0.881390	0.963814	0.100434
	H346	H	0.878386	0.938620	0.088862
	H347	H	0.869982	0.965053	0.117577
	O348	O	0.401862	0.449801	0.488722
	H349	H	0.402846	0.448494	0.492653
	H350	H	0.394565	0.448226	0.478535
	O351	O	0.561210	0.419317	0.391774
	H352	H	0.557276	0.419667	0.410038
	H353	H	0.544161	0.415833	0.389016
	O354	O	0.571179	0.524867	0.463825
	H355	H	0.571013	0.527335	0.462693
	H356	H	0.575485	0.524906	0.461160
	O357	O	1.069262	-0.013797	0.892007
	H358	H	1.061499	-0.010159	0.880321
	H359	H	1.075437	-0.015879	0.906486
	O360	O	0.608670	0.567515	0.497204
	H361	H	0.606495	0.558049	0.495103
	H362	H	0.612219	0.574314	0.513552
	O363	O	0.611809	0.475699	0.486529
	H364	H	0.614769	0.475804	0.484434
	H365	H	0.625134	0.471973	0.484098
	O366	O	0.952120	1.072697	0.888163
	H367	H	0.952805	1.080100	0.897471
	H368	H	0.945841	1.077759	0.880896
	O369	O	0.974798	-0.049514	1.091062
	H370	H	0.984271	-0.059686	1.093887
	H371	H	0.981080	-0.034270	1.097222
	O372	O	0.012847	-0.007183	-0.061723
	H373	H	0.016249	-0.009952	-0.062976
	H374	H	0.006496	-0.007360	-0.068041
	O375	O	1.144757	0.064173	-0.015534
	H376	H	1.154212	0.072244	-0.024788
	H377	H	1.149421	0.058167	-0.018283
	O378	O	0.528369	0.449361	0.590129
	H379	H	0.529733	0.453730	0.588594
	H380	H	0.530020	0.450670	0.588306
	O381	O	0.505889	0.386160	0.539075
	H382	H	0.502872	0.375441	0.546375
	H383	H	0.516684	0.400160	0.544411
