data_Molecule from HDF5

_cell_length_a		16.383614
_cell_length_b		16.271743
_cell_length_c		16.190815
_cell_angle_alpha	89.924996
_cell_angle_beta	90.093392
_cell_angle_gamma	89.910394
_symmetry_space_group_name_H-M	'P 1'
_symmetry_Int_Tables_number		1

loop_
	_symmetry_equiv_pos_as_xyz
	x,y,z

loop_
	_atom_site_label
	_atom_site_type_symbol
	_atom_site_fract_x
	_atom_site_fract_y
	_atom_site_fract_z
	H0	H	0.406553	0.843051	0.713900
	H1	H	0.600261	0.171393	0.713991
	H2	H	0.600619	0.842412	0.288266
	H3	H	0.406867	0.170854	0.287953
	H4	H	0.720272	0.407085	0.837582
	H5	H	0.722070	0.607098	0.165986
	H6	H	0.289758	0.607410	0.837787
	H7	H	0.292064	0.407777	0.165138
	H8	H	0.842041	0.723294	0.401066
	H9	H	0.167147	0.723011	0.600301
	H10	H	0.841753	0.291293	0.600043
	H11	H	0.167222	0.290978	0.402842
	H12	H	0.841835	0.408025	0.716920
	H13	H	0.168480	0.603233	0.714480
	H14	H	0.842572	0.604989	0.285450
	H15	H	0.168908	0.410784	0.289100
	H16	H	0.409029	0.718933	0.836408
	H17	H	0.604594	0.721233	0.166310
	H18	H	0.604240	0.292334	0.837720
	H19	H	0.409451	0.295077	0.166495
	H20	H	0.720618	0.844537	0.398832
	H21	H	0.718911	0.170606	0.601041
	H22	H	0.288638	0.844478	0.600568
	H23	H	0.288474	0.170171	0.401050
	H24	H	0.909795	0.342670	0.213939
	H25	H	0.102274	0.671506	0.214172
	H26	H	0.103010	0.342490	0.788828
	H27	H	0.907518	0.670612	0.787010
	H28	H	0.217831	0.908903	0.337358
	H29	H	0.218859	0.106388	0.664835
	H30	H	0.787947	0.107296	0.336722
	H31	H	0.790632	0.908532	0.664626
	H32	H	0.341972	0.223277	0.903258
	H33	H	0.668279	0.221220	0.100949
	H34	H	0.341598	0.790403	0.100368
	H35	H	0.667863	0.791886	0.903330
	H36	H	0.340548	0.909058	0.215187
	H37	H	0.667542	0.103760	0.217324
	H38	H	0.340076	0.104107	0.788405
	H39	H	0.667488	0.909008	0.786232
	H40	H	0.906117	0.220816	0.335993
	H41	H	0.100802	0.219240	0.666274
	H42	H	0.101423	0.793876	0.336822
	H43	H	0.906250	0.793921	0.665531
	H44	H	0.220069	0.343705	0.902760
	H45	H	0.221247	0.669801	0.101834
	H46	H	0.791499	0.343744	0.101622
	H47	H	0.789385	0.669944	0.899953
	H48	H	0.401967	0.126779	0.593161
	H49	H	0.596130	0.891815	0.592476
	H50	H	0.592162	0.121018	0.414204
	H51	H	0.413937	0.890865	0.407244
	H52	H	0.600747	0.416517	0.117952
	H53	H	0.592449	0.599457	0.886914
	H54	H	0.404153	0.589182	0.118638
	H55	H	0.407040	0.408655	0.880127
	H56	H	0.118962	0.596824	0.410606
	H57	H	0.890936	0.600175	0.587209
	H58	H	0.120802	0.411858	0.594869
	H59	H	0.889436	0.413791	0.410127
	H60	H	0.120330	0.411776	0.594178
	H61	H	0.890297	0.595096	0.598386
	H62	H	0.122062	0.602009	0.403808
	H63	H	0.889408	0.416381	0.406241
	H64	H	0.424782	0.597561	0.114848
	H65	H	0.601794	0.604198	0.882600
	H66	H	0.597163	0.413619	0.118771
	H67	H	0.408880	0.422411	0.885438
	H68	H	0.602859	0.124929	0.410883
	H69	H	0.599748	0.889829	0.593402
	H70	H	0.413215	0.124983	0.600913
	H71	H	0.408843	0.891177	0.414496
	H72	H	0.920099	0.619144	0.089224
	H73	H	0.099914	0.391130	0.092397
	H74	H	0.102799	0.626569	0.902924
	H75	H	0.910682	0.390327	0.911086
	H76	H	0.092167	0.916021	0.617286
	H77	H	0.095566	0.110903	0.381296
	H78	H	0.905332	0.093660	0.617950
	H79	H	0.904473	0.914381	0.380777
	H80	H	0.621141	0.101055	0.904454
	H81	H	0.395037	0.094467	0.081304
	H82	H	0.622235	0.904669	0.095915
	H83	H	0.389767	0.914557	0.908997
	H84	H	0.616045	0.916722	0.086193
	H85	H	0.386974	0.093879	0.108518
	H86	H	0.618970	0.101489	0.911562
	H87	H	0.388091	0.911987	0.904851
	H88	H	0.917283	0.098560	0.614994
	H89	H	0.107324	0.094100	0.382042
	H90	H	0.098748	0.909906	0.620327
	H91	H	0.913382	0.919935	0.385464
	H92	H	0.092885	0.621983	0.907546
	H93	H	0.104123	0.388866	0.095333
	H94	H	0.905214	0.623968	0.087783
	H95	H	0.912779	0.390187	0.907777
	H96	H	0.413763	0.121683	0.587013
	H97	H	0.596946	0.890041	0.595907
	H98	H	0.593880	0.123717	0.403447
	H99	H	0.405883	0.887947	0.406543
	H100	H	0.601057	0.412334	0.120306
	H101	H	0.602555	0.592792	0.885811
	H102	H	0.408977	0.610502	0.123884
	H103	H	0.420373	0.413403	0.885212
	H104	H	0.120376	0.605432	0.411711
	H105	H	0.887208	0.606367	0.596896
	H106	H	0.119841	0.412629	0.594245
	H107	H	0.888159	0.411743	0.405966
	H108	H	0.912650	0.626134	0.101170
	H109	H	0.098816	0.389668	0.097863
	H110	H	0.102129	0.622516	0.914773
	H111	H	0.914675	0.391765	0.910871
	H112	H	0.101139	0.917793	0.619680
	H113	H	0.087592	0.092862	0.387973
	H114	H	0.907985	0.105759	0.620462
	H115	H	0.913947	0.909447	0.382749
	H116	H	0.618609	0.095285	0.908181
	H117	H	0.384724	0.117553	0.094024
	H118	H	0.619355	0.919813	0.102294
	H119	H	0.388056	0.909718	0.909756
	C120	C	0.381966	0.016185	0.622272
	C121	C	0.625688	0.999007	0.622951
	C122	C	0.624667	0.015035	0.380507
	C123	C	0.381891	0.998422	0.380372
	C124	C	0.627588	0.385467	0.010340
	C125	C	0.627779	0.628227	0.993686
	C126	C	0.384047	0.627504	0.010146
	C127	C	0.384274	0.386244	0.992556
	C128	C	0.013176	0.629650	0.379538
	C129	C	0.996897	0.628726	0.622856
	C130	C	0.012733	0.383907	0.623390
	C131	C	0.996766	0.385531	0.379619
	C132	C	0.884508	0.515249	0.122274
	C133	C	0.128395	0.498202	0.123548
	C134	C	0.127058	0.515355	0.880403
	C135	C	0.883921	0.498765	0.880118
	C136	C	0.125604	0.885857	0.510186
	C137	C	0.124933	0.127769	0.492893
	C138	C	0.881553	0.128373	0.509148
	C139	C	0.882672	0.885993	0.491947
	C140	C	0.512093	0.128463	0.879777
	C141	C	0.496663	0.129231	0.123562
	C142	C	0.512181	0.884429	0.123480
	C143	C	0.496311	0.884123	0.879072
	C144	C	0.385438	0.892379	0.676830
	C145	C	0.621578	0.122347	0.676874
	C146	C	0.621335	0.891515	0.325890
	C147	C	0.385339	0.121811	0.325128
	C148	C	0.682191	0.387487	0.886537
	C149	C	0.683612	0.626838	0.117004
	C150	C	0.328512	0.626470	0.886565
	C151	C	0.330036	0.388181	0.116400
	C152	C	0.890777	0.685156	0.380718
	C153	C	0.118993	0.684500	0.620527
	C154	C	0.890182	0.329438	0.620901
	C155	C	0.118854	0.329582	0.382479
	C156	C	0.890625	0.386998	0.679180
	C157	C	0.119781	0.624802	0.676987
	C158	C	0.891024	0.626606	0.323106
	C159	C	0.119888	0.388895	0.325852
	C160	C	0.387525	0.682125	0.885894
	C161	C	0.625212	0.683568	0.117286
	C162	C	0.624498	0.330444	0.886538
	C163	C	0.388426	0.332120	0.117013
	C164	C	0.681097	0.892569	0.380655
	C165	C	0.680831	0.121723	0.620898
	C166	C	0.326883	0.893018	0.620567
	C167	C	0.326703	0.121437	0.381555
	C168	C	0.888384	0.391739	0.176825
	C169	C	0.124015	0.622157	0.177716
	C170	C	0.123933	0.391735	0.826045
	C171	C	0.886737	0.621656	0.824509
	C172	C	0.180266	0.888325	0.386452
	C173	C	0.180388	0.126135	0.616130
	C174	C	0.826386	0.126619	0.385673
	C175	C	0.827685	0.887763	0.615536
	C176	C	0.390187	0.184889	0.882491
	C177	C	0.619521	0.183376	0.121345
	C178	C	0.389934	0.828836	0.120658
	C179	C	0.618973	0.829644	0.882202
	C180	C	0.389322	0.887781	0.177687
	C181	C	0.619368	0.124814	0.179056
	C182	C	0.389188	0.125686	0.825541
	C183	C	0.618811	0.887785	0.823913
	C184	C	0.884700	0.183275	0.385302
	C185	C	0.121901	0.182328	0.616668
	C186	C	0.122553	0.831330	0.386149
	C187	C	0.885732	0.831397	0.616240
	C188	C	0.182003	0.392326	0.882937
	C189	C	0.183003	0.621260	0.121754
	C190	C	0.829387	0.392503	0.121063
	C191	C	0.827893	0.621264	0.880835
	C192	C	0.403437	0.102209	0.600239
	C193	C	0.604044	0.912892	0.600365
	C194	C	0.602664	0.100958	0.402906
	C195	C	0.403358	0.912410	0.402811
	C196	C	0.606016	0.407709	0.096625
	C197	C	0.605430	0.605695	0.907411
	C198	C	0.406103	0.605319	0.096673
	C199	C	0.405685	0.408300	0.906040
	C200	C	0.098420	0.607771	0.402047
	C201	C	0.911399	0.607156	0.600553
	C202	C	0.098209	0.405615	0.600981
	C203	C	0.911199	0.407646	0.400981
	C204	C	0.906241	0.600997	0.099478
	C205	C	0.107156	0.412216	0.101714
	C206	C	0.105529	0.601535	0.901960
	C207	C	0.906120	0.412964	0.903112
	C208	C	0.103768	0.908144	0.596764
	C209	C	0.103205	0.105726	0.405963
	C210	C	0.903435	0.105922	0.595547
	C211	C	0.904340	0.907936	0.405453
	C212	C	0.597667	0.105949	0.901628
	C213	C	0.411112	0.108100	0.101376
	C214	C	0.597203	0.907033	0.101395
	C215	C	0.410744	0.905664	0.901345
	Zn216	Zn	0.503564	0.006978	0.750365
	Zn217	Zn	0.503697	0.006418	0.252330
	Zn218	Zn	0.755440	0.506431	0.001673
	Zn219	Zn	0.255890	0.507076	0.001655
	Zn220	Zn	0.003969	0.758643	0.501359
	Zn221	Zn	0.003845	0.255742	0.500965
	Zn222	Zn	0.005263	0.506322	0.752024
	Zn223	Zn	0.005818	0.507235	0.250268
	Zn224	Zn	0.505031	0.755023	0.002188
	Zn225	Zn	0.505658	0.258301	0.001314
	Zn226	Zn	0.754030	0.006482	0.500649
	Zn227	Zn	0.253368	0.007063	0.501315
	N228	N	0.419132	0.969750	0.677932
	N229	N	0.588208	0.044931	0.678224
	N230	N	0.586857	0.968659	0.325508
	N231	N	0.419115	0.044350	0.324396
	N232	N	0.684271	0.420748	0.964597
	N233	N	0.685127	0.592981	0.039095
	N234	N	0.326496	0.593185	0.964826
	N235	N	0.327471	0.421243	0.038253
	N236	N	0.967518	0.687147	0.414952
	N237	N	0.041447	0.687048	0.587659
	N238	N	0.967016	0.327258	0.587026
	N239	N	0.041253	0.327325	0.414969
	N240	N	0.967895	0.420350	0.680686
	N241	N	0.043006	0.590818	0.678380
	N242	N	0.968157	0.592861	0.322097
	N243	N	0.043016	0.423024	0.324016
	N244	N	0.421274	0.682868	0.963761
	N245	N	0.591447	0.684634	0.039541
	N246	N	0.591320	0.329086	0.964443
	N247	N	0.421463	0.330706	0.038941
	N248	N	0.683032	0.970182	0.414108
	N249	N	0.683079	0.043904	0.587720
	N250	N	0.324668	0.970900	0.587312
	N251	N	0.324429	0.043662	0.414899
	N252	N	0.921867	0.469067	0.177837
	N253	N	0.090815	0.544477	0.179035
	N254	N	0.090116	0.469099	0.824715
	N255	N	0.920787	0.544412	0.824216
	N256	N	0.182141	0.921392	0.464701
	N257	N	0.182255	0.093031	0.538004
	N258	N	0.824343	0.093203	0.463734
	N259	N	0.825607	0.921012	0.537400
	N260	N	0.467763	0.186783	0.915382
	N261	N	0.542429	0.186238	0.087626
	N262	N	0.467307	0.826681	0.087711
	N263	N	0.541893	0.827425	0.915709
	N264	N	0.466096	0.921732	0.179427
	N265	N	0.541931	0.091873	0.180611
	N266	N	0.465940	0.091195	0.823906
	N267	N	0.541460	0.921002	0.821925
	N268	N	0.918342	0.184421	0.463123
	N269	N	0.088244	0.183455	0.538814
	N270	N	0.089373	0.829687	0.464067
	N271	N	0.919013	0.830074	0.538358
	N272	N	0.184037	0.470162	0.916076
	N273	N	0.185716	0.543446	0.088895
	N274	N	0.826912	0.470239	0.087635
	N275	N	0.825927	0.543738	0.914747
	O276	O	0.534424	0.602631	0.472056
	H277	H	0.540297	0.614373	0.478006
	H278	H	0.536812	0.602112	0.464334
	O279	O	-0.099591	-0.005629	-0.008808
	H280	H	-0.096629	0.000506	-0.015106
	H281	H	-0.104694	-0.004509	-0.015560
	O282	O	0.902799	0.065767	0.975061
	H283	H	0.911045	0.076678	0.971160
	H284	H	0.908688	0.067954	0.974302
	O285	O	0.524672	0.545095	0.506732
	H286	H	0.521997	0.550377	0.506739
	H287	H	0.528850	0.554596	0.502404
	O288	O	0.930715	0.046472	-0.019258
	H289	H	0.931106	0.044333	-0.022601
	H290	H	0.927972	0.053267	-0.024633
	O291	O	-0.441989	0.524282	-0.513546
	H292	H	-0.448128	0.522350	-0.503504
	H293	H	-0.440952	0.520402	-0.503708
	O294	O	0.529670	0.535799	0.480877
	H295	H	0.529320	0.535274	0.480206
	H296	H	0.525793	0.540209	0.480280
	O297	O	-0.131718	0.948928	-0.001546
	H298	H	-0.131443	0.948542	0.007903
	H299	H	-0.146294	0.946713	-0.005796
	O300	O	0.913350	0.019764	0.959621
	H301	H	0.907547	0.017780	0.960295
	H302	H	0.913177	0.011604	0.953980
	O303	O	0.534268	0.520447	0.469768
	H304	H	0.534207	0.519109	0.462338
	H305	H	0.532512	0.516808	0.466343
	O306	O	-0.070879	0.969612	0.986579
	H307	H	-0.074533	0.958271	1.000516
	H308	H	-0.080547	0.968204	0.993924
	O309	O	0.522611	0.553924	0.441598
	H310	H	0.523497	0.549025	0.433410
	H311	H	0.528900	0.547086	0.439072
