data_Molecule from HDF5

_cell_length_a		16.450831
_cell_length_b		16.420764
_cell_length_c		16.323292
_cell_angle_alpha	89.806171
_cell_angle_beta	90.151579
_cell_angle_gamma	89.851689
_symmetry_space_group_name_H-M	'P 1'
_symmetry_Int_Tables_number		1

loop_
	_symmetry_equiv_pos_as_xyz
	x,y,z

loop_
	_atom_site_label
	_atom_site_type_symbol
	_atom_site_fract_x
	_atom_site_fract_y
	_atom_site_fract_z
	H0	H	0.392266	0.841620	0.709282
	H1	H	0.602095	0.158457	0.713342
	H2	H	0.595901	0.840318	0.276951
	H3	H	0.390892	0.159215	0.265797
	H4	H	0.715778	0.394399	0.829026
	H5	H	0.714744	0.600452	0.149375
	H6	H	0.274631	0.606557	0.829500
	H7	H	0.272931	0.392125	0.147960
	H8	H	0.838092	0.723800	0.384353
	H9	H	0.155826	0.721666	0.592484
	H10	H	0.838425	0.279889	0.595807
	H11	H	0.155002	0.279316	0.382425
	H12	H	0.837144	0.398342	0.709338
	H13	H	0.154562	0.607945	0.711249
	H14	H	0.837155	0.604635	0.269544
	H15	H	0.156448	0.398576	0.269191
	H16	H	0.389757	0.723172	0.829841
	H17	H	0.599304	0.716736	0.149515
	H18	H	0.600093	0.279556	0.830029
	H19	H	0.390253	0.278465	0.149194
	H20	H	0.716434	0.844434	0.387554
	H21	H	0.718472	0.160614	0.597306
	H22	H	0.273121	0.845522	0.597744
	H23	H	0.274469	0.160778	0.381165
	H24	H	0.893676	0.342437	0.211727
	H25	H	0.101196	0.661440	0.207006
	H26	H	0.100342	0.343801	0.766670
	H27	H	0.890449	0.661494	0.770058
	H28	H	0.218048	0.897414	0.331156
	H29	H	0.218392	0.108008	0.649387
	H30	H	0.776288	0.108762	0.329356
	H31	H	0.778518	0.899468	0.649623
	H32	H	0.339186	0.225443	0.879293
	H33	H	0.654624	0.219931	0.096015
	H34	H	0.337670	0.776062	0.095994
	H35	H	0.655829	0.780453	0.886981
	H36	H	0.337039	0.894101	0.211556
	H37	H	0.655000	0.101248	0.209983
	H38	H	0.337593	0.104881	0.766727
	H39	H	0.655343	0.896585	0.770360
	H40	H	0.893037	0.223198	0.329284
	H41	H	0.100457	0.221167	0.650306
	H42	H	0.100562	0.784421	0.329322
	H43	H	0.894684	0.783721	0.649368
	H44	H	0.219893	0.343738	0.880070
	H45	H	0.220098	0.658146	0.095858
	H46	H	0.778278	0.340062	0.095068
	H47	H	0.772987	0.658617	0.883721
	H48	H	0.415611	0.111758	0.576901
	H49	H	0.582675	0.888722	0.582752
	H50	H	0.582498	0.114786	0.403150
	H51	H	0.409294	0.889253	0.402065
	H52	H	0.581259	0.408653	0.102947
	H53	H	0.585425	0.596292	0.872034
	H54	H	0.404064	0.580398	0.101116
	H55	H	0.406163	0.415271	0.876721
	H56	H	0.110936	0.588906	0.394957
	H57	H	0.883289	0.594127	0.576951
	H58	H	0.109217	0.416810	0.581970
	H59	H	0.886348	0.416401	0.404266
	H60	H	0.110004	0.408645	0.577158
	H61	H	0.883534	0.594112	0.578121
	H62	H	0.114210	0.600126	0.395581
	H63	H	0.884762	0.415717	0.397750
	H64	H	0.416250	0.588330	0.100164
	H65	H	0.591198	0.585674	0.873585
	H66	H	0.591332	0.403443	0.107255
	H67	H	0.410871	0.414430	0.878161
	H68	H	0.591929	0.118423	0.399739
	H69	H	0.588534	0.890776	0.571147
	H70	H	0.405842	0.113335	0.570769
	H71	H	0.403132	0.887922	0.404913
	H72	H	0.899165	0.617352	0.083128
	H73	H	0.083669	0.389295	0.078891
	H74	H	0.084400	0.613881	0.902837
	H75	H	0.899453	0.386200	0.901682
	H76	H	0.076457	0.913454	0.600915
	H77	H	0.082790	0.088484	0.378226
	H78	H	0.912008	0.093768	0.602539
	H79	H	0.905198	0.920931	0.376224
	H80	H	0.605251	0.086926	0.909111
	H81	H	0.383081	0.091150	0.075418
	H82	H	0.610473	0.903431	0.079124
	H83	H	0.383049	0.907682	0.902908
	H84	H	0.607570	0.910849	0.081275
	H85	H	0.384616	0.086530	0.074847
	H86	H	0.608378	0.083025	0.896235
	H87	H	0.384683	0.914453	0.901615
	H88	H	0.903156	0.095269	0.606468
	H89	H	0.083355	0.095115	0.375104
	H90	H	0.089209	0.906525	0.607768
	H91	H	0.911725	0.910720	0.375665
	H92	H	0.085962	0.614034	0.900783
	H93	H	0.083998	0.389157	0.076234
	H94	H	0.911989	0.612690	0.080081
	H95	H	0.907126	0.386162	0.891785
	H96	H	0.406437	0.117424	0.582236
	H97	H	0.595100	0.884862	0.581562
	H98	H	0.583109	0.117945	0.393233
	H99	H	0.404455	0.887123	0.398696
	H100	H	0.591155	0.414868	0.103567
	H101	H	0.579498	0.586355	0.877131
	H102	H	0.404556	0.594563	0.105953
	H103	H	0.408244	0.410764	0.875733
	H104	H	0.109089	0.595105	0.404534
	H105	H	0.882194	0.595094	0.577821
	H106	H	0.105978	0.416420	0.573294
	H107	H	0.884025	0.410467	0.401846
	H108	H	0.902045	0.613002	0.070142
	H109	H	0.085208	0.387812	0.078374
	H110	H	0.083097	0.613726	0.901001
	H111	H	0.911368	0.390254	0.903151
	H112	H	0.089957	0.921165	0.602547
	H113	H	0.089142	0.090229	0.374671
	H114	H	0.905101	0.086993	0.601957
	H115	H	0.899796	0.910505	0.371058
	H116	H	0.610198	0.095917	0.900643
	H117	H	0.382856	0.088313	0.079269
	H118	H	0.611790	0.906399	0.086681
	H119	H	0.381636	0.910415	0.896121
	C120	C	0.376896	0.009709	0.609501
	C121	C	0.619572	0.992775	0.611732
	C122	C	0.616723	0.011087	0.369128
	C123	C	0.373683	0.992787	0.367589
	C124	C	0.618699	0.377314	-0.001512
	C125	C	0.617080	0.620036	0.980196
	C126	C	0.375232	0.621182	-0.002899
	C127	C	0.374897	0.379595	0.981321
	C128	C	0.006047	0.625757	0.366258
	C129	C	0.987597	0.625588	0.610478
	C130	C	0.004414	0.381398	0.610260
	C131	C	0.989449	0.381557	0.368580
	C132	C	0.874618	0.508896	0.110286
	C133	C	0.117726	0.493256	0.110259
	C134	C	0.117352	0.509807	0.867920
	C135	C	0.873613	0.492447	0.866797
	C136	C	0.117540	0.882268	0.498125
	C137	C	0.117785	0.123724	0.481324
	C138	C	0.874946	0.124541	0.497936
	C139	C	0.875101	0.882246	0.480613
	C140	C	0.504121	0.121953	0.867630
	C141	C	0.487944	0.120329	0.109734
	C142	C	0.504329	0.876188	0.113017
	C143	C	0.488087	0.878947	0.868608
	C144	C	0.374267	0.889827	0.669619
	C145	C	0.620936	0.111576	0.673022
	C146	C	0.616663	0.889565	0.313658
	C147	C	0.371750	0.111654	0.305678
	C148	C	0.677032	0.375647	0.877644
	C149	C	0.675520	0.619712	0.101199
	C150	C	0.314267	0.624725	0.877590
	C151	C	0.313517	0.374810	0.100561
	C152	C	0.885799	0.684246	0.365103
	C153	C	0.107855	0.683338	0.611906
	C154	C	0.885590	0.320744	0.613124
	C155	C	0.107878	0.320264	0.365099
	C156	C	0.884962	0.379697	0.670050
	C157	C	0.107095	0.626357	0.670709
	C158	C	0.885527	0.625478	0.307813
	C159	C	0.108616	0.379900	0.308789
	C160	C	0.371830	0.682633	0.877513
	C161	C	0.618190	0.677872	0.101187
	C162	C	0.619286	0.318623	0.877942
	C163	C	0.371861	0.318165	0.101032
	C164	C	0.676313	0.891340	0.368975
	C165	C	0.678553	0.112670	0.614923
	C166	C	0.314920	0.891561	0.613902
	C167	C	0.314327	0.112766	0.363810
	C168	C	0.874696	0.389671	0.171215
	C169	C	0.119753	0.613110	0.168365
	C170	C	0.119479	0.391183	0.806477
	C171	C	0.871581	0.612900	0.808387
	C172	C	0.177769	0.879880	0.378580
	C173	C	0.178212	0.126246	0.601512
	C174	C	0.815756	0.127173	0.377516
	C175	C	0.817551	0.881009	0.601316
	C176	C	0.386024	0.183970	0.862847
	C177	C	0.607217	0.179687	0.113235
	C178	C	0.385107	0.816636	0.114351
	C179	C	0.607891	0.820004	0.867886
	C180	C	0.384677	0.875216	0.171942
	C181	C	0.607524	0.120519	0.169970
	C182	C	0.385388	0.124246	0.806497
	C183	C	0.607862	0.877772	0.809850
	C184	C	0.874048	0.184001	0.377468
	C185	C	0.119546	0.182553	0.601977
	C186	C	0.119097	0.823610	0.377688
	C187	C	0.875332	0.823120	0.601222
	C188	C	0.179009	0.391280	0.862965
	C189	C	0.179065	0.611473	0.112817
	C190	C	0.817196	0.388438	0.113014
	C191	C	0.812989	0.611380	0.865144
	C192	C	0.402135	0.092540	0.584059
	C193	C	0.595566	0.909819	0.585946
	C194	C	0.592673	0.095196	0.392098
	C195	C	0.398390	0.909779	0.394120
	C196	C	0.594796	0.401792	0.082379
	C197	C	0.592471	0.596227	0.896223
	C198	C	0.400967	0.595228	0.080745
	C199	C	0.400797	0.405899	0.898414
	C200	C	0.089514	0.601593	0.391031
	C201	C	0.904818	0.601394	0.584918
	C202	C	0.086992	0.406686	0.584755
	C203	C	0.906564	0.407062	0.394049
	C204	C	0.897802	0.592606	0.084922
	C205	C	0.091821	0.410197	0.084953
	C206	C	0.091878	0.592395	0.894156
	C207	C	0.898870	0.409153	0.891642
	C208	C	0.092652	0.906827	0.581983
	C209	C	0.092501	0.098678	0.397765
	C210	C	0.899615	0.099372	0.581827
	C211	C	0.898727	0.906873	0.396171
	C212	C	0.586526	0.096014	0.894463
	C213	C	0.405054	0.095695	0.084010
	C214	C	0.588066	0.900087	0.089277
	C215	C	0.404711	0.903721	0.893056
	Zn216	Zn	0.496230	-0.000031	0.739130
	Zn217	Zn	0.495619	-0.000344	0.240298
	Zn218	Zn	0.745929	0.498967	-0.010943
	Zn219	Zn	0.246203	0.500230	-0.010373
	Zn220	Zn	-0.003070	0.753978	0.488903
	Zn221	Zn	-0.002812	0.252082	0.489319
	Zn222	Zn	-0.004436	0.503132	0.738564
	Zn223	Zn	-0.002967	0.502531	0.238669
	Zn224	Zn	0.496294	0.749288	-0.010740
	Zn225	Zn	0.495820	0.250827	-0.010342
	Zn226	Zn	0.746652	0.003728	0.488921
	Zn227	Zn	0.246283	0.003241	0.490295
	N228	N	0.412426	0.964120	0.666737
	N229	N	0.584892	0.036161	0.671109
	N230	N	0.580350	0.964997	0.313414
	N231	N	0.407663	0.036038	0.307926
	N232	N	0.676967	0.411375	0.953726
	N233	N	0.674943	0.584455	0.024917
	N234	N	0.316258	0.587319	0.953075
	N235	N	0.315293	0.412185	0.025229
	N236	N	0.961759	0.684736	0.400424
	N237	N	0.032581	0.682879	0.575188
	N238	N	0.960762	0.321764	0.576736
	N239	N	0.032917	0.321475	0.401708
	N240	N	0.959822	0.416784	0.668407
	N241	N	0.031351	0.591084	0.670050
	N242	N	0.961205	0.589964	0.308283
	N243	N	0.033895	0.417678	0.311047
	N244	N	0.408861	0.680542	0.953025
	N245	N	0.582561	0.678134	0.025004
	N246	N	0.583742	0.319538	0.953861
	N247	N	0.409147	0.320697	0.025717
	N248	N	0.676622	0.968005	0.402519
	N249	N	0.677961	0.037901	0.577608
	N250	N	0.316501	0.966911	0.577114
	N251	N	0.315045	0.037688	0.401322
	N252	N	0.909536	0.465779	0.169696
	N253	N	0.082251	0.538442	0.166854
	N254	N	0.082036	0.465958	0.809273
	N255	N	0.908503	0.537868	0.809343
	N256	N	0.176759	0.915858	0.454415
	N257	N	0.177309	0.090447	0.525400
	N258	N	0.816092	0.090995	0.453587
	N259	N	0.817520	0.917182	0.525243
	N260	N	0.460867	0.182642	0.900191
	N261	N	0.531817	0.179679	0.076541
	N262	N	0.460516	0.817338	0.078341
	N263	N	0.532276	0.820517	0.903459
	N264	N	0.459816	0.911576	0.171085
	N265	N	0.532356	0.084216	0.167835
	N266	N	0.459937	0.086375	0.809476
	N267	N	0.532439	0.913753	0.810374
	N268	N	0.909999	0.182508	0.453617
	N269	N	0.082846	0.181139	0.526278
	N270	N	0.082206	0.824987	0.453141
	N271	N	0.910284	0.823725	0.524937
	N272	N	0.177834	0.466078	0.900334
	N273	N	0.177783	0.535714	0.077415
	N274	N	0.817095	0.463535	0.075648
	N275	N	0.813852	0.535286	0.900392
	O276	O	-0.174287	0.828861	0.003235
	H277	H	-0.169762	0.845623	-0.003048
	H278	H	-0.187881	0.819358	0.019214
	O279	O	0.697336	0.524983	0.693952
	H280	H	0.701206	0.511451	0.708061
	H281	H	0.696341	0.533030	0.697426
	O282	O	0.343070	0.656879	0.488547
	H283	H	0.354661	0.651170	0.495623
	H284	H	0.337160	0.660739	0.492367
	O285	O	0.926813	1.135048	-0.195988
	H286	H	0.943632	1.138515	-0.192855
	H287	H	0.918151	1.122363	-0.202868
	O288	O	0.390148	0.468049	0.466519
	H289	H	0.388891	0.490721	0.443665
	H290	H	0.374774	0.458659	0.460424
	O291	O	0.520293	0.374575	0.605432
	H292	H	0.512960	0.374289	0.616364
	H293	H	0.506742	0.373909	0.601555
	O294	O	1.135504	0.999178	1.193264
	H295	H	1.142187	0.986525	1.198140
	H296	H	1.134412	0.979079	1.191727
	O297	O	0.631469	0.368157	0.332262
	H298	H	0.637779	0.372876	0.336507
	H299	H	0.634230	0.364983	0.341758
	O300	O	0.418127	0.575892	0.618689
	H301	H	0.421108	0.577195	0.636808
	H302	H	0.405143	0.574591	0.612743
	O303	O	0.802441	-0.144427	1.017526
	H304	H	0.793003	-0.151044	1.021706
	H305	H	0.792031	-0.141340	1.015764
	O306	O	-0.025980	-0.213524	0.975414
	H307	H	-0.031052	-0.224199	0.990432
	H308	H	-0.031527	-0.213022	0.977383
	O309	O	0.897006	0.156235	-0.106688
	H310	H	0.903360	0.176115	-0.125424
	H311	H	0.898732	0.161474	-0.077449
	O312	O	0.451342	0.387426	0.585908
	H313	H	0.455648	0.391827	0.586839
	H314	H	0.472850	0.380909	0.588271
	O315	O	0.590793	0.293811	0.325500
	H316	H	0.592811	0.270230	0.304409
	H317	H	0.599217	0.308781	0.327957
	O318	O	0.181280	-0.020647	0.111146
	H319	H	0.183408	-0.052431	0.099846
	H320	H	0.198923	-0.019569	0.121978
	O321	O	0.427587	0.590561	0.638691
	H322	H	0.424260	0.607819	0.651595
	H323	H	0.409578	0.577194	0.631958
	O324	O	0.850158	-0.060140	0.925020
	H325	H	0.860756	-0.065311	0.940853
	H326	H	0.852707	-0.056982	0.929541
	O327	O	1.045514	-0.147388	1.140473
	H328	H	1.022762	-0.172687	1.156722
	H329	H	1.030067	-0.146521	1.114973
	O330	O	0.166582	1.189175	1.127080
	H331	H	0.175303	1.167420	1.135896
	H332	H	0.161551	1.180533	1.108016
	O333	O	0.025990	0.857938	-0.208550
	H334	H	0.020128	0.862543	-0.202871
	H335	H	0.019999	0.849822	-0.212022
	O336	O	0.983018	0.968810	-0.033047
	H337	H	0.977021	0.966424	-0.016744
	H338	H	0.980060	0.972470	-0.036806
	O339	O	-0.178011	1.204290	0.850008
	H340	H	-0.187066	1.209107	0.857852
	H341	H	-0.163128	1.192662	0.821917
	O342	O	0.613762	0.321490	0.586808
	H343	H	0.618495	0.341489	0.583406
	H344	H	0.617799	0.311972	0.596307
	O345	O	-0.032315	-0.021191	1.104776
	H346	H	-0.015173	-0.032059	1.104339
	H347	H	-0.022909	-0.014903	1.110497
	O348	O	0.459721	0.478604	0.300269
	H349	H	0.465040	0.475149	0.301459
	H350	H	0.454267	0.480118	0.303995
	O351	O	0.863580	1.030726	-0.212570
	H352	H	0.859011	1.022889	-0.207651
	H353	H	0.854666	1.033398	-0.216643
	O354	O	1.209745	1.088934	0.980156
	H355	H	1.217057	1.099300	1.004279
	H356	H	1.206046	1.088651	1.001891
	O357	O	0.140890	-0.181838	-0.197750
	H358	H	0.111396	-0.199837	-0.207351
	H359	H	0.137788	-0.147883	-0.195547
	O360	O	0.406565	0.346280	0.494193
	H361	H	0.412342	0.341710	0.481625
	H362	H	0.426329	0.339029	0.486813
	O363	O	1.053638	0.146648	-0.151234
	H364	H	1.037729	0.137020	-0.137432
	H365	H	1.048647	0.147788	-0.162105
	O366	O	-0.686267	-0.347980	1.306879
	H367	H	-0.689265	-0.336575	1.315895
	H368	H	-0.681204	-0.352702	1.317584
	O369	O	0.957546	0.203249	1.065451
	H370	H	0.974481	0.203621	1.088867
	H371	H	0.959774	0.208748	1.056684
	O372	O	0.669930	0.512558	0.334841
	H373	H	0.662839	0.507965	0.344453
	H374	H	0.671472	0.492468	0.351040
	O375	O	0.158127	0.137676	1.013320
	H376	H	0.164859	0.140854	1.004814
	H377	H	0.156089	0.144018	1.007122
	O378	O	0.318519	0.577151	0.474903
	H379	H	0.312452	0.575857	0.477991
	H380	H	0.321598	0.580325	0.481041
	O381	O	0.506609	0.642421	0.320726
	H382	H	0.488737	0.652800	0.300834
	H383	H	0.491005	0.633777	0.323494
	O384	O	0.514722	0.578266	0.395736
	H385	H	0.516209	0.562772	0.407454
	H386	H	0.504791	0.596135	0.391121
	O387	O	0.547979	0.619466	0.498908
	H388	H	0.551360	0.629225	0.510941
	H389	H	0.545652	0.620043	0.498781
	O390	O	0.877257	0.928077	0.077565
	H391	H	0.861047	0.901532	0.095669
	H392	H	0.892568	0.946319	0.067243
	O393	O	1.193671	-0.037617	0.837512
	H394	H	1.196740	-0.031163	0.842010
	H395	H	1.190322	-0.014488	0.847426
	O396	O	0.283858	0.300672	0.509286
	H397	H	0.281557	0.287504	0.493087
	H398	H	0.286324	0.287908	0.495707
	O399	O	0.363760	0.579593	0.604330
	H400	H	0.365370	0.562636	0.606733
	H401	H	0.360057	0.568684	0.617452
	O402	O	1.009759	1.187785	0.139604
	H403	H	1.018324	1.186384	0.132322
	H404	H	1.019184	1.178938	0.134923
	O405	O	0.291062	0.494720	0.470930
	H406	H	0.281456	0.488548	0.465388
	H407	H	0.289278	0.503871	0.465960
	O408	O	0.622932	0.412251	0.473790
	H409	H	0.615118	0.398537	0.469448
	H410	H	0.620670	0.411817	0.478612
	O411	O	0.934371	1.136812	0.981507
	H412	H	0.928514	1.130970	0.979890
	H413	H	0.933455	1.135044	0.965722
	O414	O	0.684173	0.687451	0.670403
	H415	H	0.659863	0.680615	0.668399
	H416	H	0.688025	0.669834	0.659549
	O417	O	0.200180	0.812157	0.954985
	H418	H	0.214985	0.791176	0.948173
	H419	H	0.186095	0.811217	0.934900
	O420	O	-0.198476	0.982807	1.146454
	H421	H	-0.204339	0.997181	1.144035
	H422	H	-0.200544	0.996075	1.149166
	O423	O	-0.129770	0.979999	-0.002537
	H424	H	-0.133655	0.983946	0.009575
	H425	H	-0.104075	0.994531	-0.007760
	O426	O	0.626700	0.497065	0.581951
	H427	H	0.629143	0.500447	0.573569
	H428	H	0.637952	0.507759	0.578194
	O429	O	0.639851	0.672100	0.434943
	H430	H	0.631909	0.668478	0.436170
	H431	H	0.649419	0.667298	0.452088
	O432	O	0.662920	0.668418	0.407203
	H433	H	0.660906	0.650027	0.417381
	H434	H	0.668202	0.678144	0.410273
	O435	O	0.019265	-0.174023	0.189836
	H436	H	0.000998	-0.182629	0.194041
	H437	H	-0.000620	-0.187108	0.195978
	O438	O	-0.545303	1.384635	1.679663
	H439	H	-0.547049	1.387482	1.693091
	H440	H	-0.570474	1.384376	1.672212
	O441	O	0.592440	0.427762	0.459622
	H442	H	0.595740	0.424751	0.467335
	H443	H	0.591247	0.426281	0.466968
