data_Molecule from HDF5

_cell_length_a		16.339802
_cell_length_b		16.286470
_cell_length_c		16.240400
_cell_angle_alpha	89.835470
_cell_angle_beta	90.020336
_cell_angle_gamma	90.205993
_symmetry_space_group_name_H-M	'P 1'
_symmetry_Int_Tables_number		1

loop_
	_symmetry_equiv_pos_as_xyz
	x,y,z

loop_
	_atom_site_label
	_atom_site_type_symbol
	_atom_site_fract_x
	_atom_site_fract_y
	_atom_site_fract_z
	H0	H	0.404278	0.844384	0.712574
	H1	H	0.600456	0.172000	0.713172
	H2	H	0.597795	0.844515	0.286729
	H3	H	0.403949	0.172451	0.284705
	H4	H	0.714497	0.411435	0.835928
	H5	H	0.714536	0.607608	0.163188
	H6	H	0.285759	0.608922	0.835357
	H7	H	0.284933	0.409705	0.162951
	H8	H	0.837848	0.723917	0.400328
	H9	H	0.163856	0.722928	0.596689
	H10	H	0.838736	0.292076	0.599121
	H11	H	0.164299	0.296015	0.401667
	H12	H	0.836715	0.410002	0.712939
	H13	H	0.162901	0.608251	0.714468
	H14	H	0.836713	0.607453	0.285075
	H15	H	0.163709	0.411609	0.284368
	H16	H	0.402826	0.723213	0.835355
	H17	H	0.598234	0.722076	0.163621
	H18	H	0.598348	0.296057	0.835323
	H19	H	0.400953	0.293636	0.163395
	H20	H	0.715645	0.844877	0.401295
	H21	H	0.717841	0.171852	0.598082
	H22	H	0.285852	0.845522	0.599351
	H23	H	0.286069	0.171961	0.398170
	H24	H	0.902456	0.345923	0.213821
	H25	H	0.096910	0.673520	0.211991
	H26	H	0.097306	0.345314	0.784773
	H27	H	0.902740	0.673043	0.784413
	H28	H	0.215386	0.911207	0.335788
	H29	H	0.216837	0.107432	0.663458
	H30	H	0.787026	0.108412	0.336132
	H31	H	0.786905	0.909098	0.663311
	H32	H	0.336525	0.221934	0.900453
	H33	H	0.663083	0.224426	0.097242
	H34	H	0.337095	0.793982	0.098142
	H35	H	0.663625	0.794834	0.901361
	H36	H	0.338144	0.910148	0.214867
	H37	H	0.664661	0.107396	0.213267
	H38	H	0.337449	0.106281	0.783274
	H39	H	0.664170	0.911236	0.785474
	H40	H	0.903962	0.222482	0.335563
	H41	H	0.101325	0.224164	0.663413
	H42	H	0.099660	0.795190	0.335687
	H43	H	0.903452	0.794160	0.663074
	H44	H	0.214456	0.345776	0.899761
	H45	H	0.215052	0.672568	0.098049
	H46	H	0.784413	0.345729	0.099219
	H47	H	0.786907	0.673407	0.901268
	H48	H	0.413292	0.122204	0.586119
	H49	H	0.594102	0.892845	0.589860
	H50	H	0.600933	0.128994	0.399037
	H51	H	0.400383	0.891064	0.409272
	H52	H	0.585165	0.415727	0.114304
	H53	H	0.587887	0.611490	0.881237
	H54	H	0.407289	0.604303	0.117061
	H55	H	0.408950	0.412461	0.882399
	H56	H	0.115986	0.601777	0.406928
	H57	H	0.883850	0.603870	0.589665
	H58	H	0.117679	0.420478	0.600547
	H59	H	0.883731	0.415541	0.402224
	H60	H	0.118115	0.409357	0.590244
	H61	H	0.885625	0.598941	0.591865
	H62	H	0.116385	0.601398	0.404473
	H63	H	0.883983	0.410224	0.408638
	H64	H	0.404310	0.598203	0.115839
	H65	H	0.604573	0.603320	0.878755
	H66	H	0.596140	0.409941	0.119082
	H67	H	0.402371	0.416393	0.881167
	H68	H	0.586352	0.122806	0.404674
	H69	H	0.597860	0.890781	0.593382
	H70	H	0.402624	0.126518	0.590421
	H71	H	0.410517	0.891525	0.400415
	H72	H	0.905336	0.626336	0.092075
	H73	H	0.094913	0.391952	0.091502
	H74	H	0.094096	0.625800	0.906303
	H75	H	0.908152	0.391871	0.901123
	H76	H	0.090386	0.904738	0.618284
	H77	H	0.097383	0.103216	0.382366
	H78	H	0.921217	0.095343	0.611706
	H79	H	0.910497	0.906301	0.380122
	H80	H	0.616064	0.109405	0.910323
	H81	H	0.381247	0.112045	0.093072
	H82	H	0.616377	0.917411	0.094561
	H83	H	0.383073	0.913708	0.903224
	H84	H	0.617905	0.913128	0.093926
	H85	H	0.388656	0.096797	0.082125
	H86	H	0.613679	0.096499	0.909269
	H87	H	0.384762	0.912536	0.908137
	H88	H	0.908405	0.113565	0.620910
	H89	H	0.093869	0.100038	0.383680
	H90	H	0.105933	0.919347	0.618817
	H91	H	0.897356	0.920604	0.380094
	H92	H	0.092960	0.625416	0.906085
	H93	H	0.092253	0.391800	0.093781
	H94	H	0.907652	0.626292	0.092595
	H95	H	0.909188	0.395298	0.911021
	H96	H	0.412092	0.125953	0.597515
	H97	H	0.592764	0.891844	0.594801
	H98	H	0.599849	0.123793	0.414748
	H99	H	0.412583	0.895533	0.412839
	H100	H	0.596186	0.422630	0.115913
	H101	H	0.590210	0.593421	0.886480
	H102	H	0.410675	0.599369	0.114819
	H103	H	0.409119	0.420204	0.884432
	H104	H	0.116606	0.603689	0.405845
	H105	H	0.883360	0.602580	0.594532
	H106	H	0.112581	0.422755	0.586764
	H107	H	0.887000	0.418081	0.409549
	H108	H	0.907090	0.625606	0.090392
	H109	H	0.091283	0.393911	0.091130
	H110	H	0.093846	0.624635	0.906786
	H111	H	0.900290	0.390634	0.907330
	H112	H	0.087119	0.924316	0.611395
	H113	H	0.092338	0.104451	0.383276
	H114	H	0.897881	0.092489	0.617070
	H115	H	0.915784	0.923451	0.387102
	H116	H	0.618655	0.103162	0.898727
	H117	H	0.384401	0.093900	0.101354
	H118	H	0.615726	0.915381	0.090038
	H119	H	0.384776	0.917575	0.906391
	C120	C	0.380124	0.017027	0.620574
	C121	C	0.623701	1.000121	0.621169
	C122	C	0.623161	0.016754	0.377959
	C123	C	0.379591	1.000634	0.378042
	C124	C	0.620898	0.388267	0.007854
	C125	C	0.622458	0.630854	0.990854
	C126	C	0.379020	0.629959	0.007692
	C127	C	0.378025	0.387260	0.990986
	C128	C	0.008506	0.630989	0.376899
	C129	C	0.991952	0.630617	0.621061
	C130	C	0.008984	0.387489	0.621175
	C131	C	0.992606	0.386747	0.377787
	C132	C	0.878393	0.517861	0.120779
	C133	C	0.121247	0.501077	0.120406
	C134	C	0.121793	0.517292	0.877504
	C135	C	0.877963	0.500938	0.877835
	C136	C	0.122735	0.887822	0.507859
	C137	C	0.123518	0.131179	0.491357
	C138	C	0.880448	0.129809	0.508227
	C139	C	0.879755	0.887522	0.490682
	C140	C	0.508286	0.130805	0.877279
	C141	C	0.492141	0.130263	0.121153
	C142	C	0.509043	0.886417	0.121728
	C143	C	0.492287	0.887030	0.877980
	C144	C	0.383147	0.893503	0.675445
	C145	C	0.620972	0.123207	0.675337
	C146	C	0.619502	0.893570	0.323399
	C147	C	0.382743	0.123527	0.322466
	C148	C	0.676393	0.390813	0.884638
	C149	C	0.677028	0.628254	0.114181
	C150	C	0.323663	0.628445	0.884482
	C151	C	0.323015	0.389304	0.114250
	C152	C	0.886353	0.686097	0.379738
	C153	C	0.114919	0.685692	0.618124
	C154	C	0.886674	0.330808	0.619212
	C155	C	0.115568	0.333515	0.380913
	C156	C	0.885922	0.389189	0.675981
	C157	C	0.114555	0.628391	0.676334
	C158	C	0.885632	0.628014	0.322548
	C159	C	0.115079	0.390852	0.322567
	C160	C	0.381993	0.685362	0.884237
	C161	C	0.619091	0.685011	0.114331
	C162	C	0.618531	0.333444	0.884457
	C163	C	0.380243	0.331370	0.114305
	C164	C	0.677815	0.893658	0.380850
	C165	C	0.679285	0.122992	0.618226
	C166	C	0.324297	0.894137	0.619164
	C167	C	0.324484	0.123435	0.379185
	C168	C	0.881223	0.394653	0.175993
	C169	C	0.118010	0.624491	0.174614
	C170	C	0.118082	0.394104	0.822735
	C171	C	0.881553	0.624259	0.822537
	C172	C	0.177392	0.890926	0.384525
	C173	C	0.178916	0.128115	0.614521
	C174	C	0.825170	0.128404	0.384907
	C175	C	0.824841	0.889296	0.614354
	C176	C	0.385480	0.184931	0.879736
	C177	C	0.614889	0.185991	0.118208
	C178	C	0.386250	0.831155	0.119266
	C179	C	0.615046	0.832410	0.880555
	C180	C	0.386621	0.888919	0.177105
	C181	C	0.615622	0.127523	0.175456
	C182	C	0.385872	0.127407	0.821532
	C183	C	0.615324	0.890333	0.823116
	C184	C	0.883054	0.185394	0.384845
	C185	C	0.121543	0.186093	0.614615
	C186	C	0.119994	0.833239	0.384585
	C187	C	0.882706	0.832243	0.614236
	C188	C	0.176388	0.394361	0.879903
	C189	C	0.176848	0.623899	0.118235
	C190	C	0.822589	0.394671	0.119169
	C191	C	0.823821	0.624256	0.880079
	C192	C	0.402574	0.102652	0.597859
	C193	C	0.601392	0.914019	0.599221
	C194	C	0.601935	0.102900	0.399795
	C195	C	0.401389	0.914848	0.401009
	C196	C	0.598906	0.409889	0.094117
	C197	C	0.600650	0.609091	0.904461
	C198	C	0.400938	0.607267	0.093819
	C199	C	0.400316	0.409836	0.904927
	C200	C	0.094250	0.608932	0.399152
	C201	C	0.906446	0.608371	0.598645
	C202	C	0.094037	0.410601	0.598951
	C203	C	0.906974	0.408232	0.400178
	C204	C	0.900230	0.603837	0.098463
	C205	C	0.099385	0.415144	0.098521
	C206	C	0.100168	0.603108	0.899729
	C207	C	0.899325	0.414793	0.899982
	C208	C	0.100817	0.909665	0.593948
	C209	C	0.101001	0.109100	0.405212
	C210	C	0.902885	0.107142	0.594277
	C211	C	0.901594	0.909975	0.404551
	C212	C	0.593939	0.109284	0.899574
	C213	C	0.406654	0.107603	0.098883
	C214	C	0.594554	0.908841	0.099361
	C215	C	0.406472	0.908203	0.899507
	Zn216	Zn	0.501065	0.008580	0.748944
	Zn217	Zn	0.500980	0.008465	0.249685
	Zn218	Zn	0.749568	0.509295	-0.000417
	Zn219	Zn	0.250192	0.508786	-0.000616
	Zn220	Zn	0.001147	0.759418	0.499059
	Zn221	Zn	0.001406	0.258344	0.500299
	Zn222	Zn	-0.000432	0.509003	0.749476
	Zn223	Zn	-0.000079	0.509322	0.248843
	Zn224	Zn	0.500421	0.758288	-0.000495
	Zn225	Zn	0.499960	0.259875	-0.000505
	Zn226	Zn	0.751905	0.008485	0.499500
	Zn227	Zn	0.251277	0.008899	0.499533
	N228	N	0.416949	0.971020	0.676576
	N229	N	0.587027	0.045812	0.677203
	N230	N	0.586334	0.971114	0.321651
	N231	N	0.416484	0.046425	0.321866
	N232	N	0.677934	0.424111	0.962276
	N233	N	0.679149	0.595244	0.036507
	N234	N	0.321977	0.594467	0.962285
	N235	N	0.321375	0.422866	0.036624
	N236	N	0.963907	0.688015	0.412876
	N237	N	0.037640	0.687132	0.584315
	N238	N	0.963981	0.329509	0.585891
	N239	N	0.038387	0.330855	0.414461
	N240	N	0.962737	0.423996	0.677082
	N241	N	0.037287	0.594990	0.678093
	N242	N	0.962815	0.594550	0.320715
	N243	N	0.037533	0.423277	0.320383
	N244	N	0.415607	0.686535	0.961698
	N245	N	0.585789	0.686673	0.036492
	N246	N	0.584559	0.331994	0.962031
	N247	N	0.413906	0.330166	0.036594
	N248	N	0.680237	0.971336	0.413928
	N249	N	0.680917	0.045337	0.585302
	N250	N	0.322420	0.971776	0.585702
	N251	N	0.322352	0.045846	0.413039
	N252	N	0.915010	0.472019	0.177080
	N253	N	0.084209	0.547044	0.176240
	N254	N	0.084809	0.471588	0.821210
	N255	N	0.914633	0.546743	0.821070
	N256	N	0.179160	0.924090	0.462250
	N257	N	0.180307	0.094863	0.536664
	N258	N	0.823499	0.094623	0.462371
	N259	N	0.823011	0.923018	0.536558
	N260	N	0.462646	0.187213	0.913616
	N261	N	0.537366	0.188042	0.085297
	N262	N	0.463348	0.829788	0.085217
	N263	N	0.537766	0.830344	0.914075
	N264	N	0.463794	0.922436	0.178693
	N265	N	0.538335	0.093699	0.177411
	N266	N	0.463222	0.094376	0.820057
	N267	N	0.538073	0.923685	0.821556
	N268	N	0.916719	0.186367	0.462710
	N269	N	0.087926	0.187934	0.537023
	N270	N	0.086727	0.831144	0.462326
	N271	N	0.916213	0.831157	0.536560
	N272	N	0.178657	0.471796	0.913329
	N273	N	0.178760	0.546327	0.085139
	N274	N	0.820905	0.472384	0.085431
	N275	N	0.821621	0.546664	0.913729
	O276	O	-0.223437	-0.293264	1.282458
	H277	H	-0.226163	-0.298526	1.285786
	H278	H	-0.222965	-0.288459	1.280311
	O279	O	0.462416	0.460719	0.571503
	H280	H	0.453127	0.465649	0.569244
	H281	H	0.458910	0.469947	0.567509
	O282	O	0.504417	0.411885	0.491388
	H283	H	0.511222	0.407290	0.494475
	H284	H	0.505172	0.407401	0.499152
	O285	O	0.455070	0.430722	0.547079
	H286	H	0.451799	0.435840	0.546944
	H287	H	0.458061	0.423140	0.553036
	O288	O	0.467181	0.468147	0.491157
	H289	H	0.468921	0.467825	0.491564
	H290	H	0.466896	0.469114	0.481205
	O291	O	-0.034316	1.052804	1.052299
	H292	H	-0.038495	1.056395	1.056786
	H293	H	-0.031708	1.055819	1.052703
	O294	O	0.454779	0.493310	0.503091
	H295	H	0.448116	0.490272	0.505996
	H296	H	0.452659	0.489194	0.505010
	O297	O	1.475373	-0.566345	-0.549527
	H298	H	1.477247	-0.565394	-0.549975
	H299	H	1.477374	-0.572471	-0.551359
