data_Molecule from HDF5

_cell_length_a		16.193390
_cell_length_b		16.083398
_cell_length_c		16.444309
_cell_angle_alpha	90.026126
_cell_angle_beta	90.090215
_cell_angle_gamma	89.564275
_symmetry_space_group_name_H-M	'P 1'
_symmetry_Int_Tables_number		1

loop_
	_symmetry_equiv_pos_as_xyz
	x,y,z

loop_
	_atom_site_label
	_atom_site_type_symbol
	_atom_site_fract_x
	_atom_site_fract_y
	_atom_site_fract_z
	H0	H	0.384029	0.832340	0.713328
	H1	H	0.586133	0.160252	0.712276
	H2	H	0.589123	0.832441	0.281375
	H3	H	0.382768	0.160869	0.282628
	H4	H	0.704346	0.397117	0.835141
	H5	H	0.701821	0.594839	0.160229
	H6	H	0.269155	0.598033	0.836324
	H7	H	0.273664	0.398841	0.160224
	H8	H	0.820997	0.707828	0.402864
	H9	H	0.151886	0.704930	0.593526
	H10	H	0.820636	0.285442	0.593227
	H11	H	0.151464	0.281358	0.403115
	H12	H	0.822580	0.393526	0.715215
	H13	H	0.149040	0.596347	0.715753
	H14	H	0.823548	0.598752	0.280127
	H15	H	0.150293	0.390758	0.281414
	H16	H	0.388095	0.711172	0.834396
	H17	H	0.585574	0.713205	0.159800
	H18	H	0.587319	0.280951	0.833886
	H19	H	0.392276	0.283566	0.160566
	H20	H	0.700155	0.830774	0.398447
	H21	H	0.697207	0.161699	0.593288
	H22	H	0.276530	0.829290	0.594182
	H23	H	0.269206	0.160287	0.398735
	H24	H	0.888064	0.331055	0.212161
	H25	H	0.089050	0.658992	0.216592
	H26	H	0.090170	0.331796	0.782548
	H27	H	0.882905	0.659036	0.781946
	H28	H	0.202952	0.893098	0.335403
	H29	H	0.202444	0.093677	0.659137
	H30	H	0.769079	0.096319	0.334595
	H31	H	0.770163	0.897157	0.658456
	H32	H	0.322471	0.211535	0.900642
	H33	H	0.653727	0.205228	0.091091
	H34	H	0.320886	0.787235	0.092542
	H35	H	0.652350	0.783819	0.901854
	H36	H	0.323811	0.895947	0.214533
	H37	H	0.650207	0.098399	0.215131
	H38	H	0.323305	0.099143	0.781219
	H39	H	0.650126	0.892849	0.779477
	H40	H	0.885737	0.212283	0.335149
	H41	H	0.084287	0.209859	0.660416
	H42	H	0.083565	0.779274	0.334871
	H43	H	0.887910	0.781897	0.660509
	H44	H	0.201834	0.330484	0.901986
	H45	H	0.197149	0.662568	0.096297
	H46	H	0.775624	0.330380	0.095266
	H47	H	0.772948	0.661051	0.899393
	H48	H	0.397309	0.114029	0.594041
	H49	H	0.581661	0.878441	0.583916
	H50	H	0.575735	0.116198	0.399547
	H51	H	0.390095	0.877222	0.406514
	H52	H	0.582622	0.407774	0.110659
	H53	H	0.581605	0.585901	0.883280
	H54	H	0.389301	0.583374	0.111473
	H55	H	0.402205	0.412705	0.887049
	H56	H	0.108131	0.592831	0.399098
	H57	H	0.868818	0.587665	0.594702
	H58	H	0.102031	0.399804	0.586168
	H59	H	0.873394	0.415000	0.407243
	H60	H	0.100846	0.410281	0.592456
	H61	H	0.867536	0.589476	0.590692
	H62	H	0.099976	0.586377	0.416042
	H63	H	0.866945	0.405158	0.391652
	H64	H	0.402238	0.592050	0.110953
	H65	H	0.576891	0.589467	0.883842
	H66	H	0.576543	0.398310	0.111511
	H67	H	0.396793	0.393059	0.879820
	H68	H	0.571367	0.112596	0.406509
	H69	H	0.581163	0.874947	0.595032
	H70	H	0.394836	0.111679	0.584668
	H71	H	0.398648	0.876809	0.396676
	H72	H	0.887790	0.619595	0.100700
	H73	H	0.085232	0.372104	0.105185
	H74	H	0.080909	0.616848	0.900214
	H75	H	0.897464	0.377625	0.908616
	H76	H	0.080129	0.895361	0.613669
	H77	H	0.073816	0.089462	0.383340
	H78	H	0.890054	0.088102	0.612569
	H79	H	0.892162	0.895605	0.379773
	H80	H	0.603380	0.083937	0.904537
	H81	H	0.371407	0.085874	0.088766
	H82	H	0.603740	0.905189	0.090006
	H83	H	0.367771	0.899159	0.904803
	H84	H	0.603753	0.907073	0.090821
	H85	H	0.368130	0.090764	0.096577
	H86	H	0.605637	0.085727	0.898459
	H87	H	0.371995	0.910734	0.906806
	H88	H	0.893158	0.090280	0.611736
	H89	H	0.081348	0.090337	0.380726
	H90	H	0.087764	0.901750	0.614092
	H91	H	0.887443	0.906698	0.381296
	H92	H	0.070974	0.612505	0.903361
	H93	H	0.066859	0.383216	0.087922
	H94	H	0.909182	0.609898	0.093027
	H95	H	0.894927	0.376752	0.904480
	H96	H	0.388924	0.116609	0.590018
	H97	H	0.570870	0.880093	0.589215
	H98	H	0.580472	0.115552	0.406775
	H99	H	0.402431	0.881188	0.408189
	H100	H	0.588265	0.398780	0.115079
	H101	H	0.581468	0.591140	0.881710
	H102	H	0.388775	0.598758	0.116066
	H103	H	0.382374	0.408194	0.879517
	H104	H	0.101699	0.573993	0.401005
	H105	H	0.869243	0.585741	0.591085
	H106	H	0.105369	0.400328	0.597704
	H107	H	0.867436	0.395931	0.409090
	H108	H	0.890300	0.612374	0.078205
	H109	H	0.092396	0.378109	0.080096
	H110	H	0.078856	0.612358	0.910596
	H111	H	0.899514	0.378414	0.904265
	H112	H	0.079044	0.904104	0.610661
	H113	H	0.079306	0.082900	0.383412
	H114	H	0.890257	0.091775	0.613358
	H115	H	0.899070	0.904891	0.384072
	H116	H	0.604825	0.090052	0.902827
	H117	H	0.369428	0.095249	0.087628
	H118	H	0.603808	0.904687	0.090975
	H119	H	0.368003	0.907587	0.895044
	C120	C	0.365321	0.004674	0.617987
	C121	C	0.606546	0.987028	0.617933
	C122	C	0.606447	0.005359	0.375765
	C123	C	0.365272	0.987122	0.375546
	C124	C	0.611121	0.373048	0.005192
	C125	C	0.608856	0.618343	0.989626
	C126	C	0.363948	0.620405	0.006082
	C127	C	0.365906	0.375722	0.989380
	C128	C	-0.004927	0.615583	0.376491
	C129	C	0.977283	0.616378	0.620215
	C130	C	-0.005606	0.374385	0.620234
	C131	C	0.977969	0.373808	0.375459
	C132	C	0.866962	0.504656	0.118555
	C133	C	0.108951	0.487184	0.120143
	C134	C	0.107632	0.504872	0.876747
	C135	C	0.866494	0.486394	0.876748
	C136	C	0.109895	0.871450	0.505542
	C137	C	0.107232	0.116396	0.489622
	C138	C	0.862465	0.118839	0.505277
	C139	C	0.864508	0.874004	0.489066
	C140	C	0.495998	0.117578	0.874307
	C141	C	0.478403	0.118581	0.119229
	C142	C	0.495225	0.876467	0.118935
	C143	C	0.477999	0.875485	0.874547
	C144	C	0.365898	0.881134	0.674403
	C145	C	0.605659	0.111109	0.673824
	C146	C	0.607606	0.881567	0.319556
	C147	C	0.363968	0.111406	0.320507
	C148	C	0.666311	0.376200	0.883306
	C149	C	0.663651	0.615506	0.111727
	C150	C	0.307367	0.618467	0.884549
	C151	C	0.311668	0.378415	0.111800
	C152	C	0.870761	0.671201	0.380462
	C153	C	0.101972	0.669161	0.615578
	C154	C	0.870265	0.321173	0.615444
	C155	C	0.101864	0.318034	0.380600
	C156	C	0.871517	0.374594	0.676555
	C157	C	0.100565	0.615050	0.676207
	C158	C	0.872049	0.616653	0.319796
	C159	C	0.101307	0.372409	0.320201
	C160	C	0.366490	0.674937	0.883528
	C161	C	0.605757	0.674257	0.111629
	C162	C	0.607889	0.318721	0.882690
	C163	C	0.370610	0.321045	0.111820
	C164	C	0.662692	0.880629	0.378086
	C165	C	0.660715	0.111915	0.614666
	C166	C	0.312395	0.879478	0.614664
	C167	C	0.307428	0.111071	0.378101
	C168	C	0.868634	0.380203	0.173701
	C169	C	0.107364	0.610596	0.177043
	C170	C	0.108683	0.380770	0.821285
	C171	C	0.864998	0.610240	0.820740
	C172	C	0.164710	0.873247	0.383618
	C173	C	0.163352	0.114206	0.611263
	C174	C	0.807098	0.116694	0.383279
	C175	C	0.808515	0.876399	0.610369
	C176	C	0.371887	0.173843	0.879025
	C177	C	0.603799	0.169888	0.114007
	C178	C	0.370686	0.823109	0.114467
	C179	C	0.602618	0.820319	0.879344
	C180	C	0.372119	0.877217	0.175164
	C181	C	0.601606	0.116732	0.175489
	C182	C	0.372269	0.118430	0.819249
	C183	C	0.601400	0.874643	0.818571
	C184	C	0.865129	0.174283	0.383490
	C185	C	0.104770	0.171935	0.611653
	C186	C	0.105611	0.816416	0.383471
	C187	C	0.867081	0.819059	0.611333
	C188	C	0.164334	0.380300	0.880344
	C189	C	0.161902	0.612269	0.117840
	C190	C	0.812694	0.379923	0.115709
	C191	C	0.810241	0.611199	0.879061
	C192	C	0.387189	0.091525	0.596028
	C193	C	0.584399	0.900388	0.595817
	C194	C	0.582876	0.092298	0.397936
	C195	C	0.389779	0.900851	0.397527
	C196	C	0.589176	0.395096	0.090570
	C197	C	0.586442	0.595662	0.904866
	C198	C	0.386684	0.598026	0.090927
	C199	C	0.387428	0.398078	0.904269
	C200	C	0.080935	0.591460	0.398676
	C201	C	0.890851	0.594210	0.598497
	C202	C	0.080593	0.396882	0.598528
	C203	C	0.891592	0.398197	0.396450
	C204	C	0.889188	0.591547	0.096866
	C205	C	0.087795	0.400285	0.097691
	C206	C	0.083884	0.591379	0.898403
	C207	C	0.890278	0.399923	0.899138
	C208	C	0.088610	0.893866	0.590642
	C209	C	0.084777	0.094147	0.404724
	C210	C	0.884456	0.096584	0.590580
	C211	C	0.886536	0.895885	0.403891
	C212	C	0.582307	0.093704	0.895482
	C213	C	0.391879	0.097147	0.097532
	C214	C	0.581501	0.898874	0.096974
	C215	C	0.391640	0.898946	0.895890
	Zn216	Zn	0.485968	-0.004040	0.745702
	Zn217	Zn	0.486596	-0.002859	0.247742
	Zn218	Zn	0.739614	0.495841	-0.002386
	Zn219	Zn	0.235535	0.497550	-0.001539
	Zn220	Zn	-0.013855	0.743701	0.498084
	Zn221	Zn	-0.014434	0.246984	0.498074
	Zn222	Zn	-0.014350	0.495483	0.749240
	Zn223	Zn	-0.012410	0.495055	0.246795
	Zn224	Zn	0.486503	0.748695	-0.002841
	Zn225	Zn	0.488142	0.245378	-0.003252
	Zn226	Zn	0.733743	-0.004090	0.496229
	Zn227	Zn	0.238197	-0.005528	0.497129
	N228	N	0.398240	0.959901	0.676486
	N229	N	0.572642	0.032601	0.675814
	N230	N	0.573449	0.960197	0.317861
	N231	N	0.399307	0.033547	0.318704
	N232	N	0.668322	0.409297	0.960494
	N233	N	0.665851	0.581531	0.034891
	N234	N	0.305600	0.585360	0.961654
	N235	N	0.308742	0.411734	0.034774
	N236	N	0.948143	0.670571	0.415082
	N237	N	0.024270	0.670436	0.581803
	N238	N	0.947750	0.320705	0.581254
	N239	N	0.024059	0.318856	0.414257
	N240	N	0.949803	0.407002	0.679799
	N241	N	0.021839	0.583026	0.679321
	N242	N	0.950327	0.582845	0.317095
	N243	N	0.023133	0.406524	0.316873
	N244	N	0.400876	0.676516	0.960106
	N245	N	0.572207	0.675879	0.034778
	N246	N	0.574306	0.316887	0.959469
	N247	N	0.403625	0.319327	0.034829
	N248	N	0.661830	0.958566	0.412551
	N249	N	0.661583	0.033824	0.580650
	N250	N	0.311896	0.957323	0.580038
	N251	N	0.307953	0.032719	0.411729
	N252	N	0.901695	0.458650	0.175727
	N253	N	0.075346	0.531755	0.178653
	N254	N	0.074217	0.459184	0.818612
	N255	N	0.899403	0.531728	0.819312
	N256	N	0.167384	0.906893	0.460669
	N257	N	0.165043	0.080418	0.534478
	N258	N	0.805475	0.082716	0.460022
	N259	N	0.806798	0.909868	0.533455
	N260	N	0.449728	0.173332	0.912660
	N261	N	0.526181	0.171268	0.079658
	N262	N	0.448245	0.822606	0.079962
	N263	N	0.524933	0.820558	0.913204
	N264	N	0.450421	0.909474	0.177976
	N265	N	0.522705	0.085493	0.178829
	N266	N	0.450377	0.083934	0.816167
	N267	N	0.522910	0.908234	0.815655
	N268	N	0.898902	0.175747	0.460343
	N269	N	0.070432	0.173271	0.535070
	N270	N	0.072315	0.815253	0.460185
	N271	N	0.901183	0.817240	0.534673
	N272	N	0.163913	0.458576	0.914132
	N273	N	0.162856	0.534552	0.082826
	N274	N	0.811556	0.458369	0.082114
	N275	N	0.810977	0.533184	0.913360
	O276	O	-0.070067	0.012694	-0.103750
	H277	H	-0.067748	0.002994	-0.108207
	H278	H	-0.065468	0.008789	-0.103286
	O279	O	1.018768	0.012690	-0.019465
	H280	H	1.019945	0.025089	-0.013654
	H281	H	1.012253	0.015267	-0.013329
	O282	O	0.416996	0.418102	0.571630
	H283	H	0.408394	0.427811	0.568659
	H284	H	0.414063	0.403937	0.580104
	O285	O	0.531423	1.477339	0.525461
	H286	H	0.528367	1.471320	0.519849
	H287	H	0.535270	1.478969	0.516891
	O288	O	0.514310	0.492790	0.486639
	H289	H	0.514391	0.486713	0.484950
	H290	H	0.519171	0.502945	0.487242
	O291	O	0.959560	0.872170	1.021480
	H292	H	0.952123	0.861196	1.019807
	H293	H	0.959788	0.881596	1.031563
	O294	O	0.979770	1.020329	1.000757
	H295	H	0.965660	1.016361	1.002270
	H296	H	0.973213	1.019876	1.000621
	O297	O	1.392748	0.512522	1.555835
	H298	H	1.402792	0.509999	1.551691
	H299	H	1.391896	0.513403	1.560409
	O300	O	0.469468	0.462912	0.607775
	H301	H	0.472776	0.467424	0.612913
	H302	H	0.474446	0.458059	0.603613
	O303	O	0.982512	0.081424	-0.021513
	H304	H	0.984494	0.068044	-0.026419
	H305	H	0.974418	0.091270	-0.023845
	O306	O	0.022051	0.916142	0.885262
	H307	H	0.029147	0.911976	0.879850
	H308	H	0.025660	0.917540	0.895680
	O309	O	1.005485	1.062995	1.074956
	H310	H	1.001841	1.073062	1.070909
	H311	H	1.011897	1.065018	1.078853
	O312	O	0.991618	-0.050909	1.011145
	H313	H	0.986002	-0.048464	1.008501
	H314	H	1.005209	-0.048497	1.014885
	O315	O	0.514873	0.491116	0.532233
	H316	H	0.511770	0.504566	0.536127
	H317	H	0.524589	0.479331	0.535740
	O318	O	0.498937	0.491702	0.519405
	H319	H	0.494191	0.491758	0.517893
	H320	H	0.502700	0.496769	0.518121
	O321	O	0.933810	1.044179	0.938849
	H322	H	0.919300	1.052527	0.938842
	H323	H	0.929458	1.039035	0.932754
	O324	O	0.400230	0.517060	0.502262
	H325	H	0.390967	0.521635	0.516219
	H326	H	0.391926	0.512902	0.492132
	O327	O	0.479636	0.531600	0.376346
	H328	H	0.474019	0.532267	0.387082
	H329	H	0.474540	0.527672	0.376397
	O330	O	0.982262	0.063397	0.993894
	H331	H	0.981836	0.062884	0.984307
	H332	H	0.982476	0.055455	0.991155
	O333	O	1.013267	0.971383	-0.001629
	H334	H	1.019480	0.982740	0.002519
	H335	H	1.019165	0.973819	-0.008207
	O336	O	0.430107	0.444340	0.471794
	H337	H	0.429502	0.454318	0.481152
	H338	H	0.436150	0.439921	0.466481
	O339	O	0.464101	0.556764	0.471148
	H340	H	0.467195	0.559395	0.478296
	H341	H	0.471978	0.564339	0.462597
	O342	O	0.023680	1.014297	0.101111
	H343	H	0.015862	1.016972	0.094111
	H344	H	0.037992	1.018738	0.112377
	O345	O	-0.039940	-0.027136	-0.075978
	H346	H	-0.021250	-0.027588	-0.075822
	H347	H	-0.032279	-0.042727	-0.070186
	O348	O	0.577533	0.434087	0.422038
	H349	H	0.571519	0.438968	0.428895
	H350	H	0.568786	0.441924	0.425037
	O351	O	0.399241	0.580177	0.440400
	H352	H	0.415875	0.589016	0.439421
	H353	H	0.388578	0.579954	0.448631
	O354	O	0.538219	0.478260	0.462645
	H355	H	0.540030	0.480749	0.452408
	H356	H	0.546068	0.476831	0.475205
	O357	O	0.544578	0.530786	0.527432
	H358	H	0.549936	0.534943	0.529145
	H359	H	0.534961	0.517281	0.530378
	O360	O	0.040837	0.005591	-0.055719
	H361	H	0.030486	0.022929	-0.057144
	H362	H	0.033872	0.001187	-0.060080
	O363	O	0.399382	0.551554	0.490040
	H364	H	0.399045	0.537157	0.487084
	H365	H	0.398335	0.549088	0.491228
	O366	O	0.039051	0.009818	1.047465
	H367	H	0.056212	0.005263	1.052846
	H368	H	0.038035	0.019150	1.039290
	O369	O	0.546973	0.458020	0.499567
	H370	H	0.537691	0.457394	0.481906
	H371	H	0.548169	0.458811	0.495062
