data_Molecule from HDF5

_cell_length_a		16.347783
_cell_length_b		16.604073
_cell_length_c		16.664721
_cell_angle_alpha	89.923554
_cell_angle_beta	89.979290
_cell_angle_gamma	90.117918
_symmetry_space_group_name_H-M	'P 1'
_symmetry_Int_Tables_number		1

loop_
	_symmetry_equiv_pos_as_xyz
	x,y,z

loop_
	_atom_site_label
	_atom_site_type_symbol
	_atom_site_fract_x
	_atom_site_fract_y
	_atom_site_fract_z
	H0	H	0.399340	0.851650	0.725584
	H1	H	0.616088	0.160996	0.728700
	H2	H	0.611105	0.851313	0.281193
	H3	H	0.399135	0.163663	0.280107
	H4	H	0.722710	0.407704	0.846201
	H5	H	0.725595	0.610647	0.160692
	H6	H	0.286456	0.610979	0.845710
	H7	H	0.283130	0.404085	0.158154
	H8	H	0.846582	0.725684	0.400728
	H9	H	0.164827	0.728074	0.608028
	H10	H	0.846656	0.287014	0.607243
	H11	H	0.165186	0.289934	0.401673
	H12	H	0.847110	0.402288	0.723054
	H13	H	0.163634	0.613230	0.724832
	H14	H	0.846787	0.610207	0.284484
	H15	H	0.164706	0.404976	0.284563
	H16	H	0.398851	0.731283	0.848340
	H17	H	0.610128	0.728897	0.160479
	H18	H	0.612288	0.284805	0.850012
	H19	H	0.396962	0.284343	0.157507
	H20	H	0.723215	0.849138	0.401811
	H21	H	0.726410	0.164361	0.606820
	H22	H	0.285621	0.850272	0.606083
	H23	H	0.287281	0.165804	0.402198
	H24	H	0.897736	0.351509	0.226060
	H25	H	0.115115	0.662393	0.227955
	H26	H	0.111046	0.352535	0.780517
	H27	H	0.901370	0.663890	0.782187
	H28	H	0.225313	0.907534	0.344922
	H29	H	0.226141	0.110412	0.659055
	H30	H	0.785765	0.110752	0.343932
	H31	H	0.788704	0.907456	0.660247
	H32	H	0.348021	0.227905	0.898600
	H33	H	0.664052	0.229421	0.108611
	H34	H	0.344655	0.789723	0.107720
	H35	H	0.664944	0.791588	0.904055
	H36	H	0.345209	0.906601	0.222127
	H37	H	0.665527	0.113288	0.222889
	H38	H	0.349449	0.114342	0.781326
	H39	H	0.663641	0.903333	0.784458
	H40	H	0.898458	0.231439	0.346104
	H41	H	0.108357	0.227763	0.659526
	H42	H	0.113612	0.785846	0.346464
	H43	H	0.904279	0.788509	0.659049
	H44	H	0.225068	0.351129	0.900157
	H45	H	0.226212	0.665122	0.106682
	H46	H	0.785741	0.349242	0.105848
	H47	H	0.790703	0.667367	0.904798
	H48	H	0.412863	0.121929	0.595809
	H49	H	0.595272	0.894281	0.598666
	H50	H	0.598764	0.121643	0.409709
	H51	H	0.418207	0.897560	0.417241
	H52	H	0.585045	0.418636	0.112512
	H53	H	0.595115	0.601146	0.891475
	H54	H	0.416033	0.598870	0.115715
	H55	H	0.409976	0.423709	0.890387
	H56	H	0.119815	0.595287	0.412913
	H57	H	0.892348	0.595700	0.592659
	H58	H	0.118659	0.419208	0.589974
	H59	H	0.892046	0.419205	0.414073
	H60	H	0.119252	0.420444	0.593327
	H61	H	0.892425	0.597017	0.590929
	H62	H	0.121052	0.597597	0.412109
	H63	H	0.891837	0.418972	0.413502
	H64	H	0.414644	0.598594	0.115293
	H65	H	0.596255	0.602145	0.890979
	H66	H	0.597069	0.411565	0.119108
	H67	H	0.427220	0.420894	0.895890
	H68	H	0.591345	0.119850	0.408712
	H69	H	0.589981	0.896841	0.592537
	H70	H	0.423492	0.118994	0.597284
	H71	H	0.411387	0.893486	0.410743
	H72	H	0.918746	0.616412	0.089201
	H73	H	0.091972	0.395903	0.094113
	H74	H	0.087241	0.619228	0.908498
	H75	H	0.912846	0.394005	0.911236
	H76	H	0.102180	0.918664	0.615639
	H77	H	0.092887	0.101053	0.390668
	H78	H	0.919096	0.102711	0.613733
	H79	H	0.916251	0.913646	0.389506
	H80	H	0.619339	0.092628	0.914364
	H81	H	0.393467	0.092980	0.092852
	H82	H	0.621006	0.915800	0.097241
	H83	H	0.389303	0.917022	0.912821
	H84	H	0.618371	0.915608	0.090953
	H85	H	0.391209	0.097127	0.095121
	H86	H	0.619525	0.097572	0.916914
	H87	H	0.391238	0.919001	0.917109
	H88	H	0.911545	0.097694	0.614314
	H89	H	0.097363	0.098322	0.390779
	H90	H	0.089831	0.920962	0.611026
	H91	H	0.913841	0.915059	0.388851
	H92	H	0.093620	0.617358	0.918357
	H93	H	0.089718	0.398110	0.092332
	H94	H	0.913084	0.621538	0.095111
	H95	H	0.914795	0.393851	0.909317
	H96	H	0.418761	0.117002	0.587499
	H97	H	0.598318	0.895472	0.590808
	H98	H	0.594786	0.118821	0.415766
	H99	H	0.421121	0.896206	0.407515
	H100	H	0.598565	0.426061	0.115024
	H101	H	0.596701	0.601170	0.892053
	H102	H	0.415314	0.598137	0.114869
	H103	H	0.416988	0.407346	0.888194
	H104	H	0.119872	0.597807	0.414620
	H105	H	0.893490	0.594854	0.591081
	H106	H	0.119800	0.416982	0.591956
	H107	H	0.891596	0.418530	0.414022
	H108	H	0.921886	0.618469	0.098178
	H109	H	0.093446	0.396978	0.090512
	H110	H	0.098425	0.623059	0.908884
	H111	H	0.915031	0.394665	0.912076
	H112	H	0.093075	0.909383	0.615723
	H113	H	0.092573	0.096458	0.392838
	H114	H	0.919138	0.094831	0.610714
	H115	H	0.915963	0.916530	0.390187
	H116	H	0.617496	0.093432	0.920037
	H117	H	0.392731	0.097769	0.089876
	H118	H	0.618118	0.921817	0.095103
	H119	H	0.391639	0.921279	0.912837
	C120	C	0.385400	0.015915	0.625076
	C121	C	0.627304	0.998914	0.625305
	C122	C	0.626918	0.016233	0.380782
	C123	C	0.385157	0.999766	0.381700
	C124	C	0.626171	0.387273	0.012615
	C125	C	0.627385	0.631562	0.995494
	C126	C	0.383158	0.630248	0.012019
	C127	C	0.383918	0.385590	0.994078
	C128	C	0.014985	0.628460	0.381919
	C129	C	0.997638	0.627889	0.623191
	C130	C	0.014211	0.386813	0.623709
	C131	C	0.997034	0.387280	0.382738
	C132	C	0.884390	0.515524	0.125348
	C133	C	0.126025	0.499870	0.124367
	C134	C	0.126221	0.516746	0.880564
	C135	C	0.883825	0.498860	0.881150
	C136	C	0.127740	0.885644	0.510639
	C137	C	0.126733	0.129617	0.494696
	C138	C	0.883894	0.129857	0.509741
	C139	C	0.884390	0.885106	0.493567
	C140	C	0.514701	0.127728	0.883560
	C141	C	0.497194	0.128960	0.124934
	C142	C	0.513545	0.886938	0.125245
	C143	C	0.496329	0.887813	0.883884
	C144	C	0.381604	0.898394	0.685196
	C145	C	0.632071	0.115202	0.686659
	C146	C	0.628999	0.898142	0.321556
	C147	C	0.381790	0.117518	0.321423
	C148	C	0.684559	0.387471	0.894013
	C149	C	0.686330	0.630644	0.113498
	C150	C	0.324866	0.630713	0.893497
	C151	C	0.323019	0.384796	0.111341
	C152	C	0.894623	0.686792	0.381474
	C153	C	0.117117	0.688009	0.626125
	C154	C	0.894508	0.327002	0.625719
	C155	C	0.117276	0.329114	0.382118
	C156	C	0.894679	0.384189	0.683471
	C157	C	0.116530	0.630970	0.684152
	C158	C	0.894711	0.629330	0.323851
	C159	C	0.117247	0.386291	0.324309
	C160	C	0.381064	0.690440	0.894807
	C161	C	0.628891	0.689556	0.113374
	C162	C	0.629563	0.326580	0.895800
	C163	C	0.379562	0.325273	0.110893
	C164	C	0.684764	0.896948	0.381502
	C165	C	0.687373	0.116688	0.626199
	C166	C	0.325068	0.897556	0.625784
	C167	C	0.326065	0.118369	0.381777
	C168	C	0.880541	0.397985	0.185284
	C169	C	0.131432	0.616277	0.186114
	C170	C	0.129027	0.398950	0.821115
	C171	C	0.882991	0.617258	0.822604
	C172	C	0.187063	0.886647	0.392499
	C173	C	0.185827	0.129750	0.612632
	C174	C	0.824643	0.130285	0.391526
	C175	C	0.827248	0.886736	0.612643
	C176	C	0.395847	0.188210	0.880256
	C177	C	0.616557	0.189603	0.127179
	C178	C	0.392950	0.828683	0.126537
	C179	C	0.616754	0.829980	0.884199
	C180	C	0.393252	0.886609	0.183579
	C181	C	0.616968	0.131796	0.184136
	C182	C	0.396625	0.131789	0.821836
	C183	C	0.616377	0.885744	0.825096
	C184	C	0.880978	0.190234	0.392484
	C185	C	0.127793	0.188144	0.612687
	C186	C	0.131176	0.826452	0.393154
	C187	C	0.884603	0.827820	0.612204
	C188	C	0.185563	0.398344	0.880433
	C189	C	0.186862	0.617760	0.125815
	C190	C	0.824553	0.397129	0.125542
	C191	C	0.828096	0.618934	0.883514
	C192	C	0.411081	0.097941	0.600520
	C193	C	0.601693	0.916766	0.600882
	C194	C	0.602105	0.098606	0.404586
	C195	C	0.409954	0.917421	0.405207
	C196	C	0.600783	0.411743	0.094376
	C197	C	0.602971	0.608293	0.912985
	C198	C	0.408108	0.605598	0.093966
	C199	C	0.410452	0.410404	0.912635
	C200	C	0.098514	0.604002	0.406325
	C201	C	0.914453	0.603070	0.598438
	C202	C	0.097556	0.411895	0.598998
	C203	C	0.913437	0.411945	0.406897
	C204	C	0.910431	0.597482	0.101072
	C205	C	0.099420	0.418380	0.099331
	C206	C	0.100635	0.598592	0.905066
	C207	C	0.907338	0.415832	0.904103
	C208	C	0.102343	0.909416	0.592702
	C209	C	0.101464	0.105423	0.412865
	C210	C	0.909122	0.105381	0.591531
	C211	C	0.908333	0.908245	0.411004
	C212	C	0.597197	0.101920	0.909678
	C213	C	0.414128	0.103314	0.099764
	C214	C	0.597280	0.910751	0.101306
	C215	C	0.412565	0.911966	0.907422
	Zn216	Zn	0.506003	0.007353	0.754694
	Zn217	Zn	0.505661	0.008484	0.252293
	Zn218	Zn	0.755655	0.508231	0.004044
	Zn219	Zn	0.254711	0.507939	0.002510
	Zn220	Zn	0.006895	0.756278	0.502564
	Zn221	Zn	0.005365	0.259232	0.502595
	Zn222	Zn	0.005071	0.507824	0.751707
	Zn223	Zn	0.005407	0.506824	0.254414
	Zn224	Zn	0.504277	0.759558	0.004441
	Zn225	Zn	0.505822	0.256418	0.003709
	Zn226	Zn	0.755405	0.006993	0.502249
	Zn227	Zn	0.256450	0.007810	0.503317
	N228	N	0.417946	0.973041	0.685071
	N229	N	0.595450	0.040798	0.686300
	N230	N	0.594201	0.973464	0.320535
	N231	N	0.417636	0.042789	0.321092
	N232	N	0.682839	0.424255	0.967648
	N233	N	0.685658	0.595425	0.039070
	N234	N	0.326051	0.594025	0.967357
	N235	N	0.325359	0.421490	0.037620
	N236	N	0.970657	0.686648	0.416657
	N237	N	0.042323	0.686071	0.588663
	N238	N	0.969890	0.328236	0.589405
	N239	N	0.041374	0.329510	0.417681
	N240	N	0.970289	0.420524	0.682615
	N241	N	0.041253	0.594216	0.682565
	N242	N	0.970716	0.594171	0.323627
	N243	N	0.041395	0.421520	0.324548
	N244	N	0.416141	0.690639	0.969766
	N245	N	0.592833	0.690058	0.038916
	N246	N	0.594065	0.326181	0.970524
	N247	N	0.416555	0.325568	0.036968
	N248	N	0.683639	0.971255	0.417524
	N249	N	0.684589	0.043246	0.588601
	N250	N	0.327066	0.971741	0.589087
	N251	N	0.327961	0.044303	0.418338
	N252	N	0.916976	0.472636	0.185520
	N253	N	0.094233	0.542043	0.185394
	N254	N	0.093045	0.473647	0.820912
	N255	N	0.916330	0.541473	0.820621
	N256	N	0.185060	0.922628	0.466652
	N257	N	0.185352	0.094240	0.538317
	N258	N	0.826093	0.093542	0.465465
	N259	N	0.826916	0.921506	0.537831
	N260	N	0.470429	0.186056	0.918014
	N261	N	0.540998	0.187988	0.091156
	N262	N	0.468868	0.828604	0.091217
	N263	N	0.541041	0.830975	0.919891
	N264	N	0.469197	0.922006	0.183176
	N265	N	0.541610	0.094932	0.183108
	N266	N	0.471536	0.094745	0.823868
	N267	N	0.540408	0.920937	0.824601
	N268	N	0.916826	0.190371	0.466973
	N269	N	0.091760	0.188092	0.538362
	N270	N	0.095158	0.825652	0.467707
	N271	N	0.918991	0.826307	0.536984
	N272	N	0.183981	0.472581	0.916648
	N273	N	0.183783	0.544246	0.087966
	N274	N	0.826698	0.471323	0.088913
	N275	N	0.828103	0.544154	0.919022
	O276	O	1.027677	0.805621	-0.189980
	H277	H	1.007757	0.817494	-0.196867
	H278	H	1.010924	0.807266	-0.165427
	O279	O	-0.199882	0.211078	0.802938
	H280	H	-0.225084	0.234782	0.771215
	H281	H	-0.145954	0.217764	0.793220
	O282	O	0.693736	0.331483	0.674765
	H283	H	0.685816	0.356851	0.654592
	H284	H	0.663506	0.339122	0.664294
	O285	O	0.305120	0.403549	0.464334
	H286	H	0.301478	0.402284	0.484093
	H287	H	0.305073	0.408488	0.489204
	O288	O	0.996265	-0.166367	1.194793
	H289	H	0.994985	-0.191040	1.217769
	H290	H	1.000779	-0.144729	1.187731
	O291	O	0.679745	0.591330	0.454280
	H292	H	0.662601	0.586118	0.461922
	H293	H	0.678696	0.604526	0.471123
	O294	O	-0.048486	-0.122381	-0.100593
	H295	H	-0.055885	-0.119632	-0.079891
	H296	H	-0.057398	-0.107735	-0.084498
	O297	O	0.953631	0.209883	0.060598
	H298	H	0.955098	0.202544	0.060109
	H299	H	0.958330	0.216544	0.068925
	O300	O	0.038367	0.223604	0.219240
	H301	H	0.045527	0.254020	0.244147
	H302	H	0.056914	0.206804	0.208947
	O303	O	0.061763	-0.104185	0.023274
	H304	H	0.078894	-0.110251	0.019544
	H305	H	0.064287	-0.110389	0.009003
	O306	O	0.815281	0.032620	0.087158
	H307	H	0.810874	0.044172	0.109966
	H308	H	0.814635	0.025832	0.098887
	O309	O	0.356185	0.311276	0.539039
	H310	H	0.345262	0.297066	0.544804
	H311	H	0.358808	0.316189	0.565688
	O312	O	0.444022	0.447242	0.272740
	H313	H	0.459143	0.427217	0.267241
	H314	H	0.453564	0.468545	0.276550
	O315	O	0.561579	0.487245	0.471234
	H316	H	0.554728	0.489001	0.476523
	H317	H	0.559319	0.469091	0.465387
	O318	O	0.821850	0.819895	-0.183431
	H319	H	0.832178	0.843793	-0.168750
	H320	H	0.846314	0.832796	-0.162713
	O321	O	0.145955	0.933368	0.863957
	H322	H	0.150891	0.930483	0.850041
	H323	H	0.148554	0.923755	0.864076
	O324	O	0.786595	-0.028781	1.222783
	H325	H	0.771226	-0.050122	1.238841
	H326	H	0.778238	-0.058644	1.234041
	O327	O	0.724112	0.546598	0.723830
	H328	H	0.746550	0.531714	0.723453
	H329	H	0.731509	0.559604	0.732646
	O330	O	0.206292	0.999147	0.002181
	H331	H	0.216832	0.995315	-0.000028
	H332	H	0.187316	0.988753	-0.010707
	O333	O	0.294587	0.473701	0.718561
	H334	H	0.303105	0.491362	0.710909
	H335	H	0.271865	0.475682	0.739641
	O336	O	0.719986	0.476159	0.552921
	H337	H	0.720706	0.480860	0.543205
	H338	H	0.721535	0.465284	0.541191
	O339	O	0.308962	0.705932	0.307220
	H340	H	0.308188	0.719873	0.323186
	H341	H	0.296795	0.669926	0.295831
	O342	O	0.204559	1.164396	0.204208
	H343	H	0.190666	1.145579	0.194765
	H344	H	0.222547	1.179882	0.226015
	O345	O	0.331098	0.346940	0.712317
	H346	H	0.314018	0.332886	0.735724
	H347	H	0.317960	0.372407	0.723243
	O348	O	0.291004	0.723056	0.474620
	H349	H	0.284665	0.736209	0.462679
	H350	H	0.280747	0.722172	0.478401
	O351	O	0.108297	-0.114461	1.187627
	H352	H	0.100051	-0.097142	1.180309
	H353	H	0.105334	-0.103284	1.177113
	O354	O	1.217889	-0.214011	0.963764
	H355	H	1.226118	-0.225766	0.968138
	H356	H	1.228119	-0.231694	0.950118
	O357	O	0.474804	0.731212	0.283578
	H358	H	0.446127	0.733566	0.288540
	H359	H	0.473702	0.756886	0.264286
	O360	O	0.373039	0.533462	0.539249
	H361	H	0.374456	0.545995	0.542669
	H362	H	0.379913	0.540658	0.530866
	O363	O	0.694719	0.322114	0.315186
	H364	H	0.697474	0.334589	0.298421
	H365	H	0.661901	0.322781	0.311347
	O366	O	0.794668	0.034067	0.792791
	H367	H	0.786232	0.072200	0.791738
	H368	H	0.770230	0.036927	0.792683
	O369	O	0.049047	0.218149	0.864017
	H370	H	0.057718	0.215899	0.872165
	H371	H	0.058255	0.218133	0.893035
	O372	O	0.077746	1.076703	0.807598
	H373	H	0.087612	1.067782	0.806972
	H374	H	0.048646	1.091633	0.815775
	O375	O	0.999865	-0.005225	0.076600
	H376	H	0.997293	-0.012871	0.072367
	H377	H	0.985520	0.010385	0.083202
	O378	O	0.709340	0.490173	0.301475
	H379	H	0.704533	0.487903	0.300147
	H380	H	0.712320	0.490473	0.304620
	O381	O	0.001723	0.843060	0.020495
	H382	H	-0.010628	0.833723	0.047175
	H383	H	0.001070	0.864683	0.031004
	O384	O	0.544472	0.733292	0.465362
	H385	H	0.519080	0.731837	0.476669
	H386	H	0.533319	0.734763	0.465530
	O387	O	-0.032334	1.033835	1.219895
	H388	H	-0.034712	1.039137	1.209735
	H389	H	-0.059161	1.039906	1.227510
	O390	O	0.211841	1.222583	1.088979
	H391	H	0.222307	1.210775	1.112487
	H392	H	0.237080	1.226583	1.097824
	O393	O	1.025954	0.078184	-0.047102
	H394	H	1.014676	0.078587	-0.061874
	H395	H	1.030428	0.072023	-0.031895
	O396	O	0.492807	0.291784	0.718235
	H397	H	0.487549	0.300830	0.716386
	H398	H	0.458676	0.273272	0.734710
	O399	O	0.540335	0.702400	0.709456
	H400	H	0.572194	0.703085	0.710516
	H401	H	0.551557	0.717164	0.728318
	O402	O	1.002448	-0.021104	0.830538
	H403	H	1.006695	-0.016316	0.817349
	H404	H	0.989884	-0.018617	0.831023
	O405	O	0.298396	0.535594	0.294321
	H406	H	0.290302	0.526646	0.290632
	H407	H	0.302065	0.524728	0.290803
	O408	O	0.708467	0.716332	0.713507
	H409	H	0.710997	0.693166	0.695081
	H410	H	0.742512	0.740798	0.743210
	O411	O	0.803042	0.805054	0.205040
	H412	H	0.828362	0.793593	0.195042
	H413	H	0.795531	0.776209	0.232137
	O414	O	0.056125	0.050227	0.064562
	H415	H	0.056444	0.057643	0.071626
	H416	H	0.054079	0.061496	0.048205
	O417	O	0.572594	0.286556	0.551337
	H418	H	0.585523	0.282803	0.537185
	H419	H	0.579350	0.277411	0.570194
	O420	O	1.314537	-0.283352	0.758588
	H421	H	1.298701	-0.280290	0.764138
	H422	H	1.324263	-0.289374	0.781427
	O423	O	0.803296	0.795505	0.037254
	H424	H	0.795629	0.783186	0.053886
	H425	H	0.786408	0.800876	0.044640
	O426	O	0.724135	0.728764	0.546708
	H427	H	0.734667	0.749201	0.538391
	H428	H	0.726893	0.736866	0.564354
	O429	O	0.466495	0.691709	0.542566
	H430	H	0.463045	0.681298	0.543662
	H431	H	0.473690	0.697680	0.564876
	O432	O	0.787652	0.225952	0.973548
	H433	H	0.773877	0.235919	0.949450
	H434	H	0.776647	0.237762	0.948094
	O435	O	0.482288	0.287983	0.395982
	H436	H	0.466980	0.276822	0.412142
	H437	H	0.483577	0.302032	0.406871
	O438	O	0.321131	0.320000	0.314842
	H439	H	0.342067	0.335178	0.333661
	H440	H	0.332047	0.344642	0.332976
	O441	O	0.670828	0.701010	0.341859
	H442	H	0.657168	0.690431	0.362901
	H443	H	0.659020	0.682889	0.363347
	O444	O	0.547202	0.380558	0.276268
	H445	H	0.539515	0.370219	0.288042
	H446	H	0.534322	0.362082	0.275464
	O447	O	0.305804	0.606854	0.607221
	H448	H	0.315197	0.607951	0.604388
	H449	H	0.315516	0.610717	0.581658
	O450	O	1.212360	0.009813	0.166642
	H451	H	1.209333	0.004706	0.163954
	H452	H	1.223861	0.026847	0.162766
	O453	O	0.728962	0.285351	0.471993
	H454	H	0.754112	0.265480	0.455833
	H455	H	0.728362	0.282717	0.443643
	O456	O	0.013823	1.178069	0.795084
	H457	H	0.022442	1.189163	0.796402
	H458	H	0.030495	1.173823	0.814506
	O459	O	0.562069	0.475556	0.725737
	H460	H	0.568641	0.479868	0.724425
	H461	H	0.573957	0.470470	0.728081
	O462	O	0.489495	0.501902	0.530887
	H463	H	0.482701	0.506720	0.531291
	H464	H	0.494521	0.484742	0.530431
	O465	O	0.376550	0.465513	0.629344
	H466	H	0.379995	0.465522	0.642903
	H467	H	0.375672	0.468058	0.632754
	O468	O	-0.186567	1.090782	0.052985
	H469	H	-0.186598	1.077746	0.060085
	H470	H	-0.184091	1.106639	0.052019
	O471	O	0.517530	0.568035	0.342238
	H472	H	0.524202	0.585934	0.337993
	H473	H	0.523117	0.578905	0.346451
	O474	O	1.211757	0.911624	-0.136559
	H475	H	1.199884	0.896607	-0.150868
	H476	H	1.206793	0.899815	-0.137352
	O477	O	0.225202	0.197795	0.897322
	H478	H	0.219708	0.190590	0.925544
	H479	H	0.231165	0.197020	0.910946
