data_Molecule from HDF5

_cell_length_a		16.316289
_cell_length_b		16.266020
_cell_length_c		16.314183
_cell_angle_alpha	89.949075
_cell_angle_beta	90.065183
_cell_angle_gamma	90.037734
_symmetry_space_group_name_H-M	'P 1'
_symmetry_Int_Tables_number		1

loop_
	_symmetry_equiv_pos_as_xyz
	x,y,z

loop_
	_atom_site_label
	_atom_site_type_symbol
	_atom_site_fract_x
	_atom_site_fract_y
	_atom_site_fract_z
	H0	H	0.401963	0.836509	0.714291
	H1	H	0.598590	0.163884	0.713980
	H2	H	0.597298	0.835702	0.286114
	H3	H	0.402347	0.163775	0.284818
	H4	H	0.713743	0.402388	0.836677
	H5	H	0.716189	0.599116	0.163642
	H6	H	0.285167	0.599356	0.837110
	H7	H	0.287108	0.402548	0.164535
	H8	H	0.836028	0.713438	0.402735
	H9	H	0.163396	0.713901	0.597866
	H10	H	0.836395	0.285613	0.597745
	H11	H	0.163552	0.286088	0.403153
	H12	H	0.836011	0.401657	0.714483
	H13	H	0.162959	0.598528	0.714793
	H14	H	0.836304	0.597153	0.286010
	H15	H	0.163181	0.400721	0.285074
	H16	H	0.403076	0.713765	0.836865
	H17	H	0.597648	0.714027	0.164541
	H18	H	0.596172	0.287722	0.835890
	H19	H	0.402883	0.284973	0.163606
	H20	H	0.713289	0.835522	0.402282
	H21	H	0.714450	0.163905	0.597520
	H22	H	0.287243	0.835617	0.596270
	H23	H	0.285952	0.164399	0.400815
	H24	H	0.902549	0.335841	0.213363
	H25	H	0.097541	0.663870	0.213831
	H26	H	0.097211	0.336024	0.786359
	H27	H	0.902064	0.664113	0.785467
	H28	H	0.214033	0.901062	0.336745
	H29	H	0.213862	0.097414	0.663624
	H30	H	0.786393	0.097003	0.335789
	H31	H	0.783434	0.899500	0.662544
	H32	H	0.336578	0.213565	0.902380
	H33	H	0.664318	0.214187	0.097444
	H34	H	0.337091	0.785297	0.098520
	H35	H	0.662918	0.785320	0.902063
	H36	H	0.336921	0.901518	0.213890
	H37	H	0.663586	0.098068	0.214417
	H38	H	0.336562	0.097555	0.786528
	H39	H	0.663302	0.901917	0.785585
	H40	H	0.902404	0.214034	0.336156
	H41	H	0.097803	0.213241	0.663787
	H42	H	0.095762	0.787500	0.336296
	H43	H	0.902154	0.785789	0.663681
	H44	H	0.213431	0.336208	0.902646
	H45	H	0.214438	0.663586	0.098040
	H46	H	0.786873	0.335822	0.097342
	H47	H	0.786063	0.663775	0.901990
	H48	H	0.410540	0.116617	0.593884
	H49	H	0.589101	0.885628	0.589956
	H50	H	0.594794	0.118548	0.401992
	H51	H	0.406342	0.881293	0.399767
	H52	H	0.598543	0.410694	0.117262
	H53	H	0.597075	0.600710	0.881271
	H54	H	0.403463	0.589418	0.116207
	H55	H	0.400333	0.402055	0.881298
	H56	H	0.114843	0.587796	0.405629
	H57	H	0.883392	0.591768	0.595717
	H58	H	0.114548	0.407605	0.591954
	H59	H	0.882246	0.403054	0.405247
	H60	H	0.116573	0.407827	0.595281
	H61	H	0.883378	0.595306	0.591785
	H62	H	0.118269	0.596985	0.401981
	H63	H	0.884465	0.405876	0.409266
	H64	H	0.411753	0.592858	0.115111
	H65	H	0.598428	0.585717	0.885231
	H66	H	0.588538	0.408938	0.113948
	H67	H	0.404591	0.413395	0.885888
	H68	H	0.588262	0.114870	0.407204
	H69	H	0.596445	0.883005	0.591045
	H70	H	0.404711	0.116815	0.589648
	H71	H	0.411319	0.886385	0.409731
	H72	H	0.900452	0.619364	0.095053
	H73	H	0.093714	0.384302	0.087949
	H74	H	0.098520	0.616493	0.912036
	H75	H	0.913800	0.382937	0.897477
	H76	H	0.097705	0.905001	0.618351
	H77	H	0.096011	0.094774	0.381737
	H78	H	0.909526	0.090623	0.614148
	H79	H	0.897851	0.907440	0.381352
	H80	H	0.617192	0.098781	0.910134
	H81	H	0.385334	0.088571	0.094526
	H82	H	0.615293	0.909627	0.092255
	H83	H	0.380834	0.899462	0.904442
	H84	H	0.617777	0.906979	0.095358
	H85	H	0.382635	0.096225	0.094758
	H86	H	0.614579	0.088644	0.907918
	H87	H	0.386103	0.908671	0.912636
	H88	H	0.907324	0.096536	0.616470
	H89	H	0.093311	0.091036	0.384350
	H90	H	0.094254	0.910592	0.615606
	H91	H	0.910779	0.913343	0.387023
	H92	H	0.094473	0.620029	0.899275
	H93	H	0.099317	0.380474	0.096547
	H94	H	0.911274	0.617021	0.098871
	H95	H	0.910722	0.388041	0.916538
	H96	H	0.404001	0.118408	0.596673
	H97	H	0.591519	0.882527	0.597480
	H98	H	0.596401	0.115987	0.411042
	H99	H	0.399910	0.882337	0.409490
	H100	H	0.594212	0.401265	0.117969
	H101	H	0.584749	0.592872	0.887699
	H102	H	0.405599	0.597938	0.118681
	H103	H	0.412391	0.403732	0.884429
	H104	H	0.115846	0.596054	0.412298
	H105	H	0.885417	0.589825	0.590553
	H106	H	0.116443	0.404087	0.593416
	H107	H	0.884031	0.408313	0.404359
	H108	H	0.908673	0.614218	0.087660
	H109	H	0.088259	0.383647	0.097459
	H110	H	0.086037	0.614056	0.908383
	H111	H	0.895945	0.379807	0.905297
	H112	H	0.091123	0.904417	0.616671
	H113	H	0.091194	0.095310	0.383910
	H114	H	0.903217	0.091062	0.616774
	H115	H	0.909885	0.900096	0.383104
	H116	H	0.619601	0.095167	0.900617
	H117	H	0.385717	0.092903	0.087900
	H118	H	0.616685	0.905185	0.091498
	H119	H	0.383412	0.911381	0.900487
	C120	C	0.378310	0.008551	0.621464
	C121	C	0.621381	0.991843	0.621274
	C122	C	0.621128	0.007930	0.378651
	C123	C	0.378142	0.991753	0.378195
	C124	C	0.621475	0.378840	0.008277
	C125	C	0.622164	0.622249	0.992397
	C126	C	0.378772	0.621702	0.008633
	C127	C	0.378366	0.378342	0.992102
	C128	C	0.008132	0.621747	0.378504
	C129	C	0.991505	0.621373	0.621576
	C130	C	0.007905	0.378124	0.621863
	C131	C	0.991689	0.377949	0.378372
	C132	C	0.878840	0.508267	0.121381
	C133	C	0.121855	0.491431	0.121875
	C134	C	0.121244	0.508385	0.878498
	C135	C	0.878364	0.491737	0.878178
	C136	C	0.121700	0.878557	0.508594
	C137	C	0.121549	0.121446	0.491790
	C138	C	0.878298	0.121466	0.507865
	C139	C	0.877868	0.878113	0.491734
	C140	C	0.508613	0.121828	0.878390
	C141	C	0.492227	0.121565	0.120979
	C142	C	0.508475	0.878641	0.121478
	C143	C	0.491769	0.878709	0.878364
	C144	C	0.381753	0.885000	0.676040
	C145	C	0.619032	0.115111	0.676238
	C146	C	0.618001	0.884525	0.323799
	C147	C	0.381247	0.115105	0.322877
	C148	C	0.675911	0.381857	0.885342
	C149	C	0.677310	0.619395	0.115174
	C150	C	0.323835	0.619133	0.885541
	C151	C	0.324051	0.381246	0.115413
	C152	C	0.884975	0.675837	0.381597
	C153	C	0.114437	0.676230	0.618732
	C154	C	0.884952	0.323148	0.618635
	C155	C	0.114813	0.323581	0.382058
	C156	C	0.884833	0.381197	0.676411
	C157	C	0.114456	0.618872	0.676760
	C158	C	0.884966	0.618257	0.323612
	C159	C	0.114593	0.380838	0.323739
	C160	C	0.382059	0.676059	0.885359
	C161	C	0.618589	0.676478	0.115674
	C162	C	0.617405	0.325053	0.884911
	C163	C	0.381768	0.323213	0.115213
	C164	C	0.675782	0.884449	0.381360
	C165	C	0.676425	0.115281	0.618398
	C166	C	0.324410	0.884805	0.617743
	C167	C	0.323652	0.115414	0.380663
	C168	C	0.881729	0.384626	0.175843
	C169	C	0.118561	0.615038	0.176292
	C170	C	0.117563	0.384802	0.824398
	C171	C	0.881590	0.615094	0.823367
	C172	C	0.175962	0.881170	0.385432
	C173	C	0.176253	0.118220	0.614717
	C174	C	0.823839	0.118278	0.384643
	C175	C	0.822618	0.880330	0.614545
	C176	C	0.385294	0.176170	0.881744
	C177	C	0.615385	0.176625	0.118439
	C178	C	0.385656	0.823737	0.118723
	C179	C	0.614602	0.823670	0.881486
	C180	C	0.385498	0.881216	0.176098
	C181	C	0.615195	0.118919	0.176365
	C182	C	0.385441	0.118656	0.824018
	C183	C	0.614477	0.881123	0.823402
	C184	C	0.881473	0.176180	0.384900
	C185	C	0.118225	0.175460	0.615047
	C186	C	0.117497	0.824666	0.385241
	C187	C	0.881007	0.823177	0.614773
	C188	C	0.175615	0.385009	0.881808
	C189	C	0.176854	0.614686	0.118967
	C190	C	0.824285	0.384712	0.118338
	C191	C	0.824031	0.615035	0.881183
	C192	C	0.400047	0.094990	0.599780
	C193	C	0.598981	0.905821	0.599067
	C194	C	0.599505	0.094348	0.400349
	C195	C	0.399424	0.905490	0.399884
	C196	C	0.600057	0.400483	0.094379
	C197	C	0.600037	0.599772	0.906777
	C198	C	0.400593	0.599820	0.094498
	C199	C	0.399463	0.400028	0.906166
	C200	C	0.094237	0.600065	0.400182
	C201	C	0.905911	0.599005	0.599332
	C202	C	0.093779	0.400118	0.600103
	C203	C	0.905629	0.399420	0.399892
	C204	C	0.900448	0.594640	0.100060
	C205	C	0.100032	0.405135	0.100470
	C206	C	0.099494	0.594427	0.900076
	C207	C	0.900318	0.405686	0.900081
	C208	C	0.100554	0.900233	0.594687
	C209	C	0.099859	0.099986	0.405500
	C210	C	0.900113	0.099256	0.593698
	C211	C	0.899808	0.900260	0.405922
	C212	C	0.594877	0.100396	0.899759
	C213	C	0.406645	0.099257	0.098886
	C214	C	0.594314	0.900706	0.099635
	C215	C	0.405496	0.900349	0.899787
	Zn216	Zn	0.500134	0.000518	0.749667
	Zn217	Zn	0.500150	-0.000157	0.250015
	Zn218	Zn	0.750913	0.500137	0.000093
	Zn219	Zn	0.249905	0.500141	0.000167
	Zn220	Zn	0.000075	0.750352	0.500123
	Zn221	Zn	0.000075	0.249432	0.499995
	Zn222	Zn	-0.000390	0.499987	0.750161
	Zn223	Zn	-0.000088	0.499800	0.250029
	Zn224	Zn	0.499867	0.750428	0.000160
	Zn225	Zn	0.500345	0.250111	-0.000255
	Zn226	Zn	0.749723	-0.000091	0.500057
	Zn227	Zn	0.249871	0.000062	0.499684
	N228	N	0.414140	0.963237	0.678646
	N229	N	0.585629	0.037465	0.678076
	N230	N	0.584721	0.962321	0.322135
	N231	N	0.414560	0.037368	0.321214
	N232	N	0.678437	0.414915	0.963083
	N233	N	0.679791	0.586588	0.037532
	N234	N	0.321624	0.586009	0.963031
	N235	N	0.322081	0.414870	0.037844
	N236	N	0.962480	0.678050	0.414902
	N237	N	0.037139	0.677952	0.585132
	N238	N	0.962491	0.321222	0.585338
	N239	N	0.037342	0.321656	0.415225
	N240	N	0.962260	0.414597	0.678371
	N241	N	0.036961	0.585468	0.678580
	N242	N	0.962606	0.585163	0.321698
	N243	N	0.037008	0.413867	0.321275
	N244	N	0.415581	0.677785	0.962813
	N245	N	0.584897	0.678273	0.038299
	N246	N	0.584322	0.323187	0.962352
	N247	N	0.414912	0.321200	0.037690
	N248	N	0.677736	0.962216	0.414723
	N249	N	0.678191	0.037545	0.584945
	N250	N	0.322391	0.962528	0.584433
	N251	N	0.321641	0.037774	0.414257
	N252	N	0.914941	0.462453	0.177977
	N253	N	0.085175	0.537274	0.178128
	N254	N	0.084399	0.462488	0.822296
	N255	N	0.914765	0.537285	0.821415
	N256	N	0.178442	0.914231	0.463082
	N257	N	0.178213	0.085176	0.536915
	N258	N	0.821981	0.084711	0.462120
	N259	N	0.820556	0.913691	0.537094
	N260	N	0.463021	0.178125	0.914909
	N261	N	0.537999	0.178228	0.084754
	N262	N	0.462963	0.822260	0.085269
	N263	N	0.537116	0.822100	0.914914
	N264	N	0.463020	0.914795	0.177917
	N265	N	0.537747	0.085433	0.178255
	N266	N	0.462951	0.085526	0.821897
	N267	N	0.537156	0.914680	0.821668
	N268	N	0.914694	0.178176	0.462493
	N269	N	0.085149	0.177676	0.537434
	N270	N	0.084451	0.822749	0.462791
	N271	N	0.914788	0.821934	0.537498
	N272	N	0.177922	0.462900	0.914845
	N273	N	0.178674	0.536967	0.085663
	N274	N	0.822522	0.462498	0.085138
	N275	N	0.822070	0.537265	0.914420
