data_Molecule from HDF5

_cell_length_a		16.298213
_cell_length_b		16.262380
_cell_length_c		16.251801
_cell_angle_alpha	90.102633
_cell_angle_beta	90.152255
_cell_angle_gamma	90.128674
_symmetry_space_group_name_H-M	'P 1'
_symmetry_Int_Tables_number		1

loop_
	_symmetry_equiv_pos_as_xyz
	x,y,z

loop_
	_atom_site_label
	_atom_site_type_symbol
	_atom_site_fract_x
	_atom_site_fract_y
	_atom_site_fract_z
	H0	H	0.402659	0.829355	0.708472
	H1	H	0.599154	0.157888	0.711201
	H2	H	0.595837	0.830018	0.282538
	H3	H	0.400840	0.158688	0.282381
	H4	H	0.714810	0.396025	0.832580
	H5	H	0.716420	0.594794	0.160402
	H6	H	0.285253	0.593123	0.833002
	H7	H	0.285842	0.395957	0.161363
	H8	H	0.836755	0.707567	0.398435
	H9	H	0.163467	0.709359	0.595479
	H10	H	0.835276	0.281415	0.592711
	H11	H	0.163256	0.279478	0.398371
	H12	H	0.836181	0.396659	0.709685
	H13	H	0.163272	0.593172	0.710551
	H14	H	0.836350	0.591087	0.282293
	H15	H	0.164171	0.395784	0.282623
	H16	H	0.402397	0.707224	0.831893
	H17	H	0.598780	0.709237	0.160640
	H18	H	0.597805	0.281176	0.832158
	H19	H	0.403546	0.281246	0.161186
	H20	H	0.712649	0.829896	0.398674
	H21	H	0.714738	0.158072	0.596215
	H22	H	0.285525	0.829855	0.594721
	H23	H	0.285258	0.157763	0.398830
	H24	H	0.903360	0.330627	0.208227
	H25	H	0.100730	0.658056	0.212194
	H26	H	0.097275	0.330518	0.782621
	H27	H	0.902912	0.659420	0.783327
	H28	H	0.212791	0.894945	0.333141
	H29	H	0.215132	0.094187	0.660504
	H30	H	0.784927	0.091333	0.333354
	H31	H	0.786554	0.895786	0.660975
	H32	H	0.337274	0.210258	0.896286
	H33	H	0.663924	0.209575	0.095816
	H34	H	0.336801	0.779605	0.093362
	H35	H	0.664446	0.780788	0.898428
	H36	H	0.335847	0.896266	0.208815
	H37	H	0.663472	0.094152	0.212294
	H38	H	0.335975	0.091432	0.782231
	H39	H	0.664221	0.897514	0.783135
	H40	H	0.900700	0.206619	0.332380
	H41	H	0.097724	0.209421	0.660304
	H42	H	0.096546	0.781953	0.332240
	H43	H	0.902460	0.780202	0.660489
	H44	H	0.215452	0.331673	0.896624
	H45	H	0.214696	0.659158	0.095345
	H46	H	0.786797	0.331355	0.094103
	H47	H	0.786588	0.658560	0.898482
	H48	H	0.407523	0.114840	0.603303
	H49	H	0.595341	0.875932	0.592112
	H50	H	0.602649	0.112176	0.408560
	H51	H	0.405781	0.877831	0.402996
	H52	H	0.594520	0.399455	0.113836
	H53	H	0.595867	0.588073	0.878536
	H54	H	0.409167	0.592473	0.114539
	H55	H	0.405236	0.405171	0.881528
	H56	H	0.116254	0.585878	0.404505
	H57	H	0.884151	0.585730	0.589156
	H58	H	0.116438	0.400084	0.588797
	H59	H	0.881670	0.398068	0.397261
	H60	H	0.115055	0.401866	0.588270
	H61	H	0.882877	0.587407	0.590450
	H62	H	0.117871	0.588563	0.400047
	H63	H	0.883360	0.396586	0.403431
	H64	H	0.404064	0.586303	0.114097
	H65	H	0.594060	0.584342	0.880927
	H66	H	0.596816	0.402891	0.113471
	H67	H	0.410952	0.401766	0.881131
	H68	H	0.590979	0.113502	0.394277
	H69	H	0.591993	0.877208	0.590616
	H70	H	0.418884	0.104592	0.583408
	H71	H	0.403229	0.876498	0.401696
	H72	H	0.902297	0.613321	0.087791
	H73	H	0.104070	0.374915	0.088273
	H74	H	0.093581	0.612121	0.902646
	H75	H	0.919423	0.383043	0.906431
	H76	H	0.089104	0.898134	0.613156
	H77	H	0.085896	0.078470	0.384784
	H78	H	0.908158	0.081788	0.611392
	H79	H	0.907390	0.902218	0.380791
	H80	H	0.615420	0.087408	0.908348
	H81	H	0.384699	0.083338	0.089609
	H82	H	0.614145	0.911301	0.091037
	H83	H	0.382666	0.903712	0.893970
	H84	H	0.619869	0.897460	0.097825
	H85	H	0.382627	0.090431	0.092012
	H86	H	0.615869	0.083531	0.900695
	H87	H	0.381546	0.891663	0.902036
	H88	H	0.910622	0.092297	0.614385
	H89	H	0.088304	0.096854	0.377365
	H90	H	0.097826	0.898929	0.615866
	H91	H	0.905891	0.898476	0.378774
	H92	H	0.092744	0.610994	0.904157
	H93	H	0.087121	0.377351	0.098042
	H94	H	0.908405	0.613670	0.096043
	H95	H	0.896094	0.377478	0.912278
	H96	H	0.395739	0.111995	0.581905
	H97	H	0.594369	0.877551	0.588228
	H98	H	0.585169	0.106680	0.410065
	H99	H	0.406471	0.876909	0.399697
	H100	H	0.592378	0.403888	0.112282
	H101	H	0.591571	0.588612	0.880535
	H102	H	0.411540	0.585584	0.111573
	H103	H	0.405333	0.397915	0.879088
	H104	H	0.117414	0.591549	0.404537
	H105	H	0.883875	0.588213	0.587578
	H106	H	0.116633	0.401079	0.589947
	H107	H	0.884954	0.403050	0.401253
	H108	H	0.911753	0.610011	0.086768
	H109	H	0.088933	0.383036	0.078829
	H110	H	0.095019	0.611220	0.904031
	H111	H	0.905002	0.373735	0.889289
	H112	H	0.093395	0.906719	0.612709
	H113	H	0.103682	0.084152	0.376801
	H114	H	0.900879	0.088180	0.615516
	H115	H	0.902482	0.901742	0.379244
	H116	H	0.617950	0.092072	0.901114
	H117	H	0.385088	0.089695	0.084127
	H118	H	0.616378	0.897371	0.081270
	H119	H	0.386718	0.904174	0.908417
	C120	C	0.378666	0.002184	0.617618
	C121	C	0.622090	0.985516	0.618655
	C122	C	0.620911	0.002547	0.375457
	C123	C	0.377415	0.985743	0.373889
	C124	C	0.622606	0.373390	0.004830
	C125	C	0.622488	0.616304	0.988211
	C126	C	0.379650	0.615786	0.004761
	C127	C	0.378260	0.372826	0.988782
	C128	C	0.008950	0.616128	0.374594
	C129	C	0.991521	0.616236	0.617854
	C130	C	0.007801	0.373091	0.617406
	C131	C	0.991483	0.371568	0.373573
	C132	C	0.879377	0.503619	0.117631
	C133	C	0.122260	0.486594	0.117586
	C134	C	0.121804	0.503215	0.874787
	C135	C	0.878537	0.486521	0.874298
	C136	C	0.121150	0.873153	0.505196
	C137	C	0.121130	0.115719	0.488034
	C138	C	0.878179	0.115138	0.505251
	C139	C	0.877329	0.872170	0.488111
	C140	C	0.508367	0.116205	0.874401
	C141	C	0.492281	0.116445	0.117868
	C142	C	0.508446	0.873282	0.117571
	C143	C	0.491985	0.872305	0.874005
	C144	C	0.381677	0.878524	0.671572
	C145	C	0.619653	0.108920	0.673675
	C146	C	0.617284	0.878998	0.320344
	C147	C	0.380024	0.109290	0.319382
	C148	C	0.676969	0.376044	0.881461
	C149	C	0.677957	0.614589	0.111559
	C150	C	0.323893	0.613068	0.881581
	C151	C	0.323700	0.375810	0.112368
	C152	C	0.885734	0.670501	0.377056
	C153	C	0.114643	0.671387	0.615606
	C154	C	0.884448	0.318302	0.614219
	C155	C	0.114584	0.316702	0.377022
	C156	C	0.884698	0.375717	0.672084
	C157	C	0.114458	0.613834	0.672955
	C158	C	0.885476	0.612050	0.320051
	C159	C	0.115048	0.374856	0.319798
	C160	C	0.381917	0.669873	0.881060
	C161	C	0.619581	0.671351	0.111719
	C162	C	0.618889	0.318808	0.881263
	C163	C	0.381921	0.318620	0.112338
	C164	C	0.674907	0.878891	0.378241
	C165	C	0.677142	0.109012	0.616425
	C166	C	0.323605	0.878790	0.614992
	C167	C	0.322859	0.109064	0.377562
	C168	C	0.882382	0.379721	0.171013
	C169	C	0.120280	0.609511	0.173667
	C170	C	0.118570	0.379823	0.819649
	C171	C	0.881831	0.610164	0.820295
	C172	C	0.174991	0.875498	0.381728
	C173	C	0.177020	0.114442	0.611458
	C174	C	0.823143	0.111624	0.381952
	C175	C	0.823242	0.874818	0.611736
	C176	C	0.385702	0.171765	0.876450
	C177	C	0.615273	0.171587	0.116072
	C178	C	0.385531	0.817908	0.114042
	C179	C	0.615390	0.818216	0.877546
	C180	C	0.384925	0.875550	0.171556
	C181	C	0.614838	0.114406	0.174037
	C182	C	0.384906	0.112796	0.819650
	C183	C	0.615271	0.876029	0.820205
	C184	C	0.880502	0.168876	0.381342
	C185	C	0.118620	0.171525	0.611486
	C186	C	0.117665	0.818567	0.381563
	C187	C	0.881206	0.817382	0.611541
	C188	C	0.177070	0.380224	0.876641
	C189	C	0.177142	0.610126	0.115655
	C190	C	0.824426	0.380232	0.114463
	C191	C	0.824120	0.609917	0.877672
	C192	C	0.400879	0.088304	0.595893
	C193	C	0.600078	0.899392	0.596806
	C194	C	0.599381	0.088569	0.397657
	C195	C	0.399051	0.899367	0.395124
	C196	C	0.600769	0.395449	0.091099
	C197	C	0.600402	0.593508	0.902214
	C198	C	0.401740	0.594333	0.090981
	C199	C	0.400487	0.395111	0.902857
	C200	C	0.094845	0.594820	0.396486
	C201	C	0.905687	0.593965	0.595448
	C202	C	0.093768	0.394615	0.595468
	C203	C	0.905613	0.392873	0.394569
	C204	C	0.901191	0.590059	0.096530
	C205	C	0.099940	0.400518	0.094984
	C206	C	0.100058	0.589289	0.897004
	C207	C	0.900344	0.400412	0.895969
	C208	C	0.099832	0.895089	0.591649
	C209	C	0.099183	0.093173	0.402057
	C210	C	0.900387	0.093875	0.591319
	C211	C	0.898874	0.894104	0.401956
	C212	C	0.594171	0.094184	0.896797
	C213	C	0.406396	0.094350	0.095173
	C214	C	0.594529	0.895579	0.096400
	C215	C	0.405891	0.893545	0.895204
	Zn216	Zn	0.500094	-0.006053	0.745810
	Zn217	Zn	0.499719	-0.005349	0.245918
	Zn218	Zn	0.750975	0.495309	-0.003576
	Zn219	Zn	0.250721	0.495159	-0.003183
	Zn220	Zn	0.000530	0.744943	0.496643
	Zn221	Zn	-0.000774	0.243478	0.496031
	Zn222	Zn	-0.000147	0.494665	0.745953
	Zn223	Zn	0.000619	0.494121	0.245620
	Zn224	Zn	0.500888	0.744415	-0.003891
	Zn225	Zn	0.500750	0.244765	-0.003171
	Zn226	Zn	0.749579	-0.005637	0.497385
	Zn227	Zn	0.249716	-0.006211	0.496753
	N228	N	0.415168	0.956332	0.673533
	N229	N	0.586039	0.031234	0.675121
	N230	N	0.584175	0.956750	0.318650
	N231	N	0.413345	0.031704	0.317264
	N232	N	0.679374	0.409140	0.959403
	N233	N	0.679801	0.580997	0.033786
	N234	N	0.322407	0.580285	0.959566
	N235	N	0.321163	0.408504	0.034312
	N236	N	0.963277	0.673084	0.410372
	N237	N	0.037102	0.672992	0.581908
	N238	N	0.962084	0.316483	0.580708
	N239	N	0.036819	0.314300	0.409653
	N240	N	0.962289	0.408815	0.674113
	N241	N	0.037056	0.579986	0.674334
	N242	N	0.963090	0.578914	0.318364
	N243	N	0.037591	0.408196	0.317351
	N244	N	0.415849	0.671800	0.958616
	N245	N	0.586034	0.672675	0.033940
	N246	N	0.585702	0.317114	0.958921
	N247	N	0.415091	0.316637	0.034532
	N248	N	0.677518	0.956732	0.411508
	N249	N	0.678573	0.031334	0.583002
	N250	N	0.321675	0.956675	0.582022
	N251	N	0.320979	0.031235	0.410604
	N252	N	0.915705	0.457275	0.173082
	N253	N	0.087044	0.531658	0.174969
	N254	N	0.084797	0.457329	0.818534
	N255	N	0.914806	0.532369	0.818173
	N256	N	0.177400	0.908551	0.459627
	N257	N	0.178727	0.080529	0.533737
	N258	N	0.821590	0.079025	0.459913
	N259	N	0.820815	0.908115	0.534083
	N260	N	0.463417	0.173912	0.909722
	N261	N	0.538094	0.172829	0.081839
	N262	N	0.463289	0.816464	0.081223
	N263	N	0.537711	0.815745	0.910213
	N264	N	0.462288	0.909568	0.173706
	N265	N	0.537321	0.080648	0.174974
	N266	N	0.462231	0.079198	0.818075
	N267	N	0.537504	0.908894	0.817674
	N268	N	0.914107	0.171304	0.459037
	N269	N	0.084635	0.172506	0.533884
	N270	N	0.084649	0.817224	0.459448
	N271	N	0.914105	0.815635	0.533621
	N272	N	0.179381	0.457990	0.910085
	N273	N	0.178468	0.532632	0.081475
	N274	N	0.822414	0.458356	0.081784
	N275	N	0.821786	0.532048	0.910503
	O276	O	1.071054	1.046713	0.056380
	H277	H	1.074005	1.054177	0.067675
	H278	H	1.075708	1.056011	0.057897
	O279	O	-0.036346	0.059167	0.001266
	H280	H	-0.036589	0.059658	-0.009984
	H281	H	-0.034369	0.063223	0.000831
	O282	O	0.013805	0.045801	1.084734
	H283	H	0.003210	0.052776	1.086886
	H284	H	0.021177	0.051950	1.077623
	O285	O	0.540122	0.545130	0.585981
	H286	H	0.548230	0.550275	0.588566
	H287	H	0.535136	0.542591	0.592121
	O288	O	0.508905	0.489072	0.572502
	H289	H	0.514636	0.490165	0.572844
	H290	H	0.518952	0.479990	0.570677
	O291	O	0.495069	0.513781	0.545481
	H292	H	0.483281	0.513693	0.544035
	H293	H	0.495563	0.512893	0.534095
	O294	O	0.023797	0.071535	-0.040109
	H295	H	0.016663	0.079805	-0.043951
	H296	H	0.036919	0.067707	-0.037995
	O297	O	0.470031	0.489775	0.596802
	H298	H	0.468965	0.494494	0.600602
	H299	H	0.471988	0.486291	0.596373
	O300	O	-0.001116	1.081927	0.987713
	H301	H	-0.001377	1.086305	0.988571
	H302	H	0.003261	1.087772	0.993288
	O303	O	0.518882	0.508993	0.515627
	H304	H	0.516984	0.511224	0.523430
	H305	H	0.519688	0.518910	0.516450
	O306	O	0.032842	0.047559	0.986627
	H307	H	0.031666	0.048272	1.001881
	H308	H	0.032636	0.047005	0.988082
	O309	O	0.990051	1.097172	1.023009
	H310	H	0.989620	1.089078	1.022111
	H311	H	0.991606	1.103404	1.029487
	O312	O	0.490971	0.506819	0.550740
	H313	H	0.493334	0.502994	0.549535
	H314	H	0.495601	0.514683	0.559417
	O315	O	0.481841	0.482226	0.587667
	H316	H	0.476508	0.481538	0.596695
	H317	H	0.477117	0.482804	0.586978
	O318	O	0.038155	1.015446	-0.028239
	H319	H	0.036707	1.000640	-0.023867
	H320	H	0.042468	1.018850	-0.025475
	O321	O	1.001716	0.985628	-0.019378
	H322	H	0.996313	0.982038	-0.022928
	H323	H	0.988450	0.984938	-0.027021
