data_Molecule from HDF5

_cell_length_a		16.263608
_cell_length_b		16.321808
_cell_length_c		16.276229
_cell_angle_alpha	90.066400
_cell_angle_beta	90.043484
_cell_angle_gamma	89.931673
_symmetry_space_group_name_H-M	'P 1'
_symmetry_Int_Tables_number		1

loop_
	_symmetry_equiv_pos_as_xyz
	x,y,z

loop_
	_atom_site_label
	_atom_site_type_symbol
	_atom_site_fract_x
	_atom_site_fract_y
	_atom_site_fract_z
	H0	H	0.397432	0.843133	0.711358
	H1	H	0.593420	0.169647	0.710763
	H2	H	0.594900	0.843288	0.281264
	H3	H	0.395428	0.168657	0.281254
	H4	H	0.710938	0.408462	0.832660
	H5	H	0.711282	0.604425	0.160192
	H6	H	0.283038	0.603743	0.832771
	H7	H	0.282291	0.407837	0.160211
	H8	H	0.832227	0.719989	0.397426
	H9	H	0.159940	0.719661	0.594823
	H10	H	0.832256	0.291748	0.595300
	H11	H	0.159305	0.290287	0.396330
	H12	H	0.832382	0.408607	0.710867
	H13	H	0.159897	0.605049	0.711043
	H14	H	0.832900	0.604186	0.281344
	H15	H	0.160546	0.407727	0.282382
	H16	H	0.397396	0.721331	0.833482
	H17	H	0.596281	0.721577	0.160297
	H18	H	0.596239	0.291526	0.832928
	H19	H	0.397894	0.291488	0.159798
	H20	H	0.709204	0.843140	0.398561
	H21	H	0.710382	0.169599	0.595597
	H22	H	0.281187	0.843076	0.595167
	H23	H	0.280597	0.169843	0.398294
	H24	H	0.898937	0.342199	0.210049
	H25	H	0.094435	0.669489	0.210840
	H26	H	0.095876	0.343232	0.780607
	H27	H	0.898373	0.669902	0.783410
	H28	H	0.209842	0.908235	0.333363
	H29	H	0.208791	0.104221	0.660826
	H30	H	0.781255	0.103924	0.332503
	H31	H	0.781778	0.909607	0.660644
	H32	H	0.333093	0.221053	0.898336
	H33	H	0.660382	0.219971	0.094914
	H34	H	0.332942	0.791417	0.095113
	H35	H	0.659955	0.791729	0.898392
	H36	H	0.331950	0.909111	0.210285
	H37	H	0.659366	0.103260	0.211630
	H38	H	0.331670	0.103737	0.783875
	H39	H	0.660497	0.908458	0.782822
	H40	H	0.896237	0.221674	0.332737
	H41	H	0.093352	0.221073	0.659658
	H42	H	0.094746	0.791616	0.332712
	H43	H	0.896282	0.791935	0.660530
	H44	H	0.210836	0.342341	0.898972
	H45	H	0.211892	0.668529	0.096305
	H46	H	0.781828	0.342972	0.094748
	H47	H	0.782273	0.669105	0.899094
	H48	H	0.400192	0.121774	0.584947
	H49	H	0.585769	0.891313	0.589089
	H50	H	0.583768	0.120506	0.407994
	H51	H	0.404323	0.890553	0.403344
	H52	H	0.583746	0.423880	0.108150
	H53	H	0.594166	0.597066	0.879565
	H54	H	0.404354	0.590556	0.110412
	H55	H	0.403832	0.413866	0.880736
	H56	H	0.113617	0.595223	0.396420
	H57	H	0.876969	0.603811	0.594413
	H58	H	0.112652	0.416086	0.592730
	H59	H	0.883936	0.415407	0.413284
	H60	H	0.114145	0.409126	0.588724
	H61	H	0.879898	0.601834	0.584096
	H62	H	0.115609	0.607614	0.403313
	H63	H	0.879783	0.421832	0.396421
	H64	H	0.410464	0.604955	0.112613
	H65	H	0.584477	0.596434	0.882353
	H66	H	0.582092	0.403310	0.112887
	H67	H	0.403784	0.411705	0.879967
	H68	H	0.594511	0.123437	0.406673
	H69	H	0.592055	0.889828	0.586917
	H70	H	0.397352	0.124972	0.594005
	H71	H	0.401806	0.890465	0.406186
	H72	H	0.896190	0.623880	0.089886
	H73	H	0.086619	0.393078	0.080796
	H74	H	0.091640	0.622835	0.905373
	H75	H	0.900833	0.389930	0.904991
	H76	H	0.091783	0.914903	0.613640
	H77	H	0.088846	0.095434	0.380526
	H78	H	0.906247	0.097109	0.610837
	H79	H	0.901941	0.906242	0.377834
	H80	H	0.610737	0.095887	0.908984
	H81	H	0.379295	0.095043	0.093304
	H82	H	0.610884	0.913905	0.084151
	H83	H	0.376940	0.915295	0.891490
	H84	H	0.612218	0.919400	0.093307
	H85	H	0.377139	0.105894	0.091601
	H86	H	0.613888	0.096058	0.896797
	H87	H	0.377453	0.901756	0.908586
	H88	H	0.903535	0.105512	0.614229
	H89	H	0.084859	0.098550	0.380853
	H90	H	0.084357	0.914461	0.611371
	H91	H	0.896869	0.916824	0.379931
	H92	H	0.090631	0.622741	0.900851
	H93	H	0.099495	0.386235	0.091156
	H94	H	0.906808	0.623290	0.096411
	H95	H	0.902477	0.388100	0.899885
	H96	H	0.406804	0.121789	0.592738
	H97	H	0.589443	0.888964	0.593614
	H98	H	0.586829	0.123712	0.397794
	H99	H	0.401130	0.888901	0.402397
	H100	H	0.600252	0.413351	0.116501
	H101	H	0.588070	0.605466	0.878771
	H102	H	0.395745	0.602139	0.116647
	H103	H	0.402409	0.413294	0.879045
	H104	H	0.110573	0.596432	0.410260
	H105	H	0.880338	0.594261	0.591460
	H106	H	0.111157	0.415242	0.584838
	H107	H	0.876199	0.403937	0.399983
	H108	H	0.906266	0.619435	0.084555
	H109	H	0.083382	0.389108	0.097914
	H110	H	0.087161	0.621715	0.904300
	H111	H	0.906475	0.390221	0.904130
	H112	H	0.088247	0.907948	0.614196
	H113	H	0.089879	0.100610	0.379047
	H114	H	0.897215	0.098536	0.613952
	H115	H	0.908604	0.914397	0.382179
	H116	H	0.615643	0.106763	0.904137
	H117	H	0.380992	0.099655	0.083199
	H118	H	0.615154	0.909537	0.092720
	H119	H	0.384084	0.922245	0.911006
	C120	C	0.373851	0.014757	0.618461
	C121	C	0.617269	0.997997	0.618175
	C122	C	0.616918	0.014761	0.375354
	C123	C	0.373506	0.997770	0.375435
	C124	C	0.618049	0.384840	0.004409
	C125	C	0.617818	0.628159	0.988466
	C126	C	0.374886	0.627893	0.005036
	C127	C	0.375118	0.384735	0.988165
	C128	C	0.004831	0.627725	0.374689
	C129	C	0.987625	0.627908	0.618300
	C130	C	0.004377	0.385344	0.617318
	C131	C	0.987925	0.384696	0.374813
	C132	C	0.874999	0.514215	0.118186
	C133	C	0.118098	0.497363	0.118578
	C134	C	0.118255	0.514305	0.874707
	C135	C	0.875126	0.497711	0.875326
	C136	C	0.116909	0.884221	0.504884
	C137	C	0.116651	0.127206	0.488349
	C138	C	0.873602	0.128608	0.504810
	C139	C	0.873822	0.884457	0.488364
	C140	C	0.504825	0.127872	0.875194
	C141	C	0.487483	0.128371	0.118340
	C142	C	0.504827	0.885148	0.118586
	C143	C	0.487769	0.884823	0.875365
	C144	C	0.376868	0.891692	0.673281
	C145	C	0.614589	0.120915	0.673135
	C146	C	0.614642	0.891974	0.319683
	C147	C	0.375314	0.120208	0.319892
	C148	C	0.673362	0.387499	0.881623
	C149	C	0.673626	0.625499	0.111363
	C150	C	0.320329	0.624918	0.881804
	C151	C	0.320278	0.387393	0.111344
	C152	C	0.881299	0.682331	0.377264
	C153	C	0.110934	0.682537	0.615701
	C154	C	0.880931	0.330279	0.615064
	C155	C	0.110818	0.328733	0.376380
	C156	C	0.881115	0.388093	0.672737
	C157	C	0.110952	0.625191	0.673318
	C158	C	0.881438	0.624927	0.319469
	C159	C	0.111399	0.386816	0.319701
	C160	C	0.377282	0.683154	0.882262
	C161	C	0.616078	0.683326	0.111524
	C162	C	0.616424	0.329366	0.881747
	C163	C	0.377311	0.329220	0.110985
	C164	C	0.671913	0.891919	0.377498
	C165	C	0.672469	0.120820	0.615671
	C166	C	0.319183	0.891662	0.615606
	C167	C	0.318045	0.120613	0.377709
	C168	C	0.877973	0.391120	0.172574
	C169	C	0.115072	0.620497	0.173245
	C170	C	0.116193	0.391686	0.819122
	C171	C	0.877952	0.620914	0.820789
	C172	C	0.172091	0.887209	0.382032
	C173	C	0.171571	0.125121	0.611583
	C174	C	0.818902	0.125093	0.381304
	C175	C	0.819035	0.888354	0.611600
	C176	C	0.381660	0.182831	0.877965
	C177	C	0.611276	0.182284	0.115507
	C178	C	0.381442	0.829904	0.115574
	C179	C	0.611164	0.829801	0.877737
	C180	C	0.380968	0.887903	0.172904
	C181	C	0.610603	0.124862	0.173680
	C182	C	0.381100	0.124813	0.820892
	C183	C	0.611269	0.887785	0.820296
	C184	C	0.876209	0.183213	0.381418
	C185	C	0.114039	0.182960	0.611170
	C186	C	0.114962	0.829232	0.381823
	C187	C	0.876037	0.829817	0.611523
	C188	C	0.173481	0.391366	0.877565
	C189	C	0.173045	0.620271	0.116076
	C190	C	0.819908	0.391329	0.115385
	C191	C	0.820432	0.620833	0.878321
	C192	C	0.395185	0.100555	0.596879
	C193	C	0.595579	0.912212	0.596243
	C194	C	0.594784	0.100559	0.397623
	C195	C	0.395901	0.912082	0.397484
	C196	C	0.595538	0.407079	0.090423
	C197	C	0.595428	0.606057	0.902391
	C198	C	0.396988	0.605607	0.091182
	C199	C	0.396966	0.406501	0.902170
	C200	C	0.091049	0.606004	0.396763
	C201	C	0.901284	0.606475	0.596295
	C202	C	0.090410	0.406904	0.594967
	C203	C	0.902230	0.407075	0.396672
	C204	C	0.896625	0.600040	0.096698
	C205	C	0.096274	0.411427	0.096432
	C206	C	0.096412	0.600215	0.897066
	C207	C	0.896833	0.411681	0.896737
	C208	C	0.094664	0.906091	0.590804
	C209	C	0.094449	0.104718	0.402296
	C210	C	0.895736	0.106891	0.590712
	C211	C	0.895926	0.906096	0.402204
	C212	C	0.591299	0.105982	0.896764
	C213	C	0.401347	0.106759	0.095892
	C214	C	0.590563	0.907560	0.096630
	C215	C	0.401712	0.906559	0.897338
	Zn216	Zn	0.495621	0.006235	0.746941
	Zn217	Zn	0.495275	0.006308	0.247093
	Zn218	Zn	0.746521	0.506033	-0.003237
	Zn219	Zn	0.246469	0.506113	-0.002997
	Zn220	Zn	-0.004144	0.756131	0.496817
	Zn221	Zn	-0.004248	0.256557	0.496182
	Zn222	Zn	-0.003877	0.506061	0.746172
	Zn223	Zn	-0.003316	0.505915	0.246757
	Zn224	Zn	0.496633	0.756248	-0.002673
	Zn225	Zn	0.496744	0.256431	-0.003673
	Zn226	Zn	0.745658	0.006534	0.495928
	Zn227	Zn	0.245020	0.006201	0.496810
	N228	N	0.410080	0.969193	0.675359
	N229	N	0.581054	0.043711	0.674853
	N230	N	0.581200	0.969551	0.318247
	N231	N	0.409131	0.042938	0.318476
	N232	N	0.674180	0.421389	0.959000
	N233	N	0.674854	0.591827	0.033903
	N234	N	0.318694	0.591278	0.959344
	N235	N	0.318943	0.421304	0.034105
	N236	N	0.958929	0.684071	0.411067
	N237	N	0.033207	0.684342	0.582221
	N238	N	0.958559	0.328444	0.581311
	N239	N	0.033198	0.327153	0.409986
	N240	N	0.958588	0.421864	0.673838
	N241	N	0.033261	0.591838	0.674896
	N242	N	0.959243	0.591744	0.317696
	N243	N	0.034102	0.421039	0.318644
	N244	N	0.410420	0.685141	0.960127
	N245	N	0.582435	0.685113	0.033964
	N246	N	0.582472	0.327939	0.959107
	N247	N	0.410685	0.327551	0.033240
	N248	N	0.673194	0.969038	0.411592
	N249	N	0.674223	0.043186	0.582056
	N250	N	0.317067	0.969060	0.582366
	N251	N	0.316862	0.043492	0.411633
	N252	N	0.911280	0.468541	0.174638
	N253	N	0.081456	0.543186	0.174614
	N254	N	0.082722	0.469038	0.817352
	N255	N	0.911400	0.543315	0.818907
	N256	N	0.173584	0.920536	0.459702
	N257	N	0.173049	0.091053	0.534197
	N258	N	0.817175	0.091910	0.458940
	N259	N	0.817431	0.921547	0.533830
	N260	N	0.459695	0.185043	0.910754
	N261	N	0.533638	0.184523	0.081754
	N262	N	0.459334	0.828139	0.082551
	N263	N	0.533611	0.827910	0.911276
	N264	N	0.458358	0.921719	0.174640
	N265	N	0.532685	0.092167	0.175510
	N266	N	0.458726	0.091082	0.819491
	N267	N	0.533469	0.921402	0.818771
	N268	N	0.909449	0.185561	0.459159
	N269	N	0.080880	0.184442	0.533469
	N270	N	0.081255	0.827522	0.459326
	N271	N	0.909356	0.827486	0.533973
	N272	N	0.174821	0.468738	0.911400
	N273	N	0.174991	0.542683	0.082792
	N274	N	0.817884	0.468907	0.082353
	N275	N	0.818260	0.543320	0.911137
	O276	O	-0.479949	-0.578070	1.449279
	H277	H	-0.484332	-0.578693	1.449981
	H278	H	-0.474250	-0.572396	1.441887
	O279	O	0.546014	0.499587	0.433826
	H280	H	0.554565	0.497155	0.438570
	H281	H	0.542906	0.500438	0.428948
	O282	O	0.523877	0.491321	0.458833
	H283	H	0.527889	0.494347	0.466986
	H284	H	0.522423	0.488136	0.455212
	O285	O	0.516697	0.478873	0.484571
	H286	H	0.525111	0.479090	0.494090
	H287	H	0.521045	0.477657	0.477969
	O288	O	0.495360	0.494050	0.488181
	H289	H	0.499889	0.500495	0.494429
	H290	H	0.483486	0.495903	0.491566
	O291	O	0.577573	1.533368	1.489465
	H292	H	0.582707	1.538931	1.493480
	H293	H	0.587511	1.538413	1.492773
	O294	O	0.550898	0.462657	0.501733
	H295	H	0.549188	0.463188	0.496925
	H296	H	0.555851	0.454299	0.491740
	O297	O	1.533792	-0.518912	-0.498178
	H298	H	1.528213	-0.521424	-0.489593
	H299	H	1.523136	-0.524683	-0.505314
