data_Molecule from HDF5

_cell_length_a		16.232141
_cell_length_b		16.337326
_cell_length_c		16.180664
_cell_angle_alpha	89.729989
_cell_angle_beta	90.758358
_cell_angle_gamma	90.194346
_symmetry_space_group_name_H-M	'P 1'
_symmetry_Int_Tables_number		1

loop_
	_symmetry_equiv_pos_as_xyz
	x,y,z

loop_
	_atom_site_label
	_atom_site_type_symbol
	_atom_site_fract_x
	_atom_site_fract_y
	_atom_site_fract_z
	H0	H	0.402703	0.840159	0.714457
	H1	H	0.601829	0.166280	0.716731
	H2	H	0.597469	0.839320	0.288944
	H3	H	0.398871	0.164642	0.279973
	H4	H	0.713266	0.405550	0.835629
	H5	H	0.720252	0.602535	0.164021
	H6	H	0.285012	0.602546	0.837519
	H7	H	0.289091	0.402198	0.165246
	H8	H	0.837622	0.719707	0.398442
	H9	H	0.164936	0.720172	0.603253
	H10	H	0.839547	0.284885	0.602927
	H11	H	0.164763	0.288494	0.403154
	H12	H	0.837703	0.404376	0.713247
	H13	H	0.165316	0.603550	0.717536
	H14	H	0.839400	0.604698	0.280636
	H15	H	0.167713	0.407370	0.291012
	H16	H	0.399721	0.717672	0.837654
	H17	H	0.604887	0.717524	0.164733
	H18	H	0.599776	0.289286	0.836301
	H19	H	0.401909	0.284228	0.163739
	H20	H	0.715855	0.840725	0.403517
	H21	H	0.718862	0.166151	0.603753
	H22	H	0.286079	0.840291	0.599055
	H23	H	0.283945	0.165755	0.396802
	H24	H	0.904079	0.341219	0.216986
	H25	H	0.104531	0.666494	0.217029
	H26	H	0.100306	0.341566	0.787755
	H27	H	0.901525	0.667137	0.783323
	H28	H	0.210961	0.906416	0.335178
	H29	H	0.220596	0.103209	0.663638
	H30	H	0.781596	0.106192	0.338185
	H31	H	0.790056	0.904510	0.667418
	H32	H	0.338955	0.220080	0.895524
	H33	H	0.664762	0.219986	0.104638
	H34	H	0.338932	0.783368	0.100155
	H35	H	0.665459	0.786544	0.901185
	H36	H	0.336503	0.901609	0.211557
	H37	H	0.664523	0.100938	0.218203
	H38	H	0.337543	0.100916	0.783978
	H39	H	0.666103	0.905867	0.788069
	H40	H	0.896870	0.222306	0.338036
	H41	H	0.105334	0.218473	0.664761
	H42	H	0.099853	0.789080	0.336943
	H43	H	0.902314	0.786359	0.664888
	H44	H	0.215132	0.341483	0.903732
	H45	H	0.223487	0.664878	0.104687
	H46	H	0.788196	0.340730	0.100415
	H47	H	0.784971	0.665963	0.898391
	H48	H	0.407562	0.119103	0.590566
	H49	H	0.593345	0.885430	0.603062
	H50	H	0.594720	0.117707	0.413507
	H51	H	0.394896	0.883112	0.404460
	H52	H	0.593690	0.401451	0.119485
	H53	H	0.592595	0.595659	0.883134
	H54	H	0.413538	0.589501	0.117302
	H55	H	0.410645	0.412443	0.884719
	H56	H	0.118777	0.600672	0.411822
	H57	H	0.885822	0.600319	0.584811
	H58	H	0.118127	0.407331	0.589018
	H59	H	0.887119	0.414609	0.411187
	H60	H	0.115856	0.417191	0.595535
	H61	H	0.886303	0.588758	0.590456
	H62	H	0.118170	0.596959	0.410342
	H63	H	0.885788	0.414034	0.406136
	H64	H	0.417070	0.595981	0.118920
	H65	H	0.591115	0.597459	0.883592
	H66	H	0.604106	0.415159	0.118706
	H67	H	0.407563	0.408238	0.883344
	H68	H	0.592829	0.120848	0.404171
	H69	H	0.588918	0.890641	0.591075
	H70	H	0.411049	0.119230	0.593792
	H71	H	0.412629	0.886343	0.397424
	H72	H	0.906427	0.619993	0.089726
	H73	H	0.100600	0.386425	0.095587
	H74	H	0.098287	0.620804	0.911041
	H75	H	0.901223	0.387017	0.909723
	H76	H	0.097817	0.912574	0.618218
	H77	H	0.093315	0.097846	0.382902
	H78	H	0.918621	0.094539	0.615686
	H79	H	0.907019	0.912094	0.384631
	H80	H	0.618195	0.092967	0.908597
	H81	H	0.384146	0.094106	0.092128
	H82	H	0.618282	0.909828	0.096576
	H83	H	0.382380	0.910813	0.895384
	H84	H	0.618149	0.909515	0.093111
	H85	H	0.385243	0.098689	0.085901
	H86	H	0.620143	0.098984	0.907965
	H87	H	0.383368	0.897948	0.911624
	H88	H	0.909842	0.101940	0.620006
	H89	H	0.089483	0.094573	0.384921
	H90	H	0.092538	0.912975	0.616326
	H91	H	0.906529	0.913561	0.384664
	H92	H	0.093475	0.621499	0.904916
	H93	H	0.093342	0.387158	0.100734
	H94	H	0.913797	0.619807	0.094660
	H95	H	0.908303	0.385566	0.900419
	H96	H	0.411803	0.118094	0.588943
	H97	H	0.601809	0.886964	0.592384
	H98	H	0.586037	0.117012	0.410294
	H99	H	0.408168	0.891132	0.416350
	H100	H	0.587107	0.416713	0.113443
	H101	H	0.594340	0.597441	0.883061
	H102	H	0.410372	0.595400	0.119866
	H103	H	0.405335	0.412995	0.884017
	H104	H	0.119234	0.599807	0.408399
	H105	H	0.882678	0.599114	0.596768
	H106	H	0.121773	0.408764	0.601142
	H107	H	0.885222	0.409476	0.408450
	H108	H	0.914129	0.616735	0.085678
	H109	H	0.092323	0.389413	0.091510
	H110	H	0.090270	0.618626	0.910923
	H111	H	0.912096	0.390760	0.910259
	H112	H	0.093898	0.909053	0.618562
	H113	H	0.089019	0.099724	0.383236
	H114	H	0.906371	0.090064	0.618466
	H115	H	0.907796	0.913352	0.385384
	H116	H	0.616929	0.097615	0.912719
	H117	H	0.386130	0.091603	0.086051
	H118	H	0.617062	0.911885	0.094415
	H119	H	0.389484	0.917733	0.913251
	C120	C	0.380704	0.011290	0.620364
	C121	C	0.624055	0.995310	0.624559
	C122	C	0.620546	0.011192	0.380635
	C123	C	0.376331	0.994146	0.375713
	C124	C	0.623306	0.382265	0.008914
	C125	C	0.624007	0.625269	0.991652
	C126	C	0.382027	0.623195	0.010279
	C127	C	0.380126	0.381227	0.992377
	C128	C	0.010732	0.627575	0.378668
	C129	C	0.992893	0.625452	0.621686
	C130	C	0.010707	0.381429	0.623535
	C131	C	0.994216	0.383886	0.380870
	C132	C	0.881894	0.512039	0.120998
	C133	C	0.125897	0.495042	0.124845
	C134	C	0.122357	0.512444	0.880603
	C135	C	0.878272	0.495179	0.876841
	C136	C	0.122114	0.883064	0.509000
	C137	C	0.122375	0.125444	0.492011
	C138	C	0.879719	0.125969	0.509907
	C139	C	0.879371	0.882895	0.493429
	C140	C	0.510289	0.125016	0.878784
	C141	C	0.492893	0.124213	0.120739
	C142	C	0.509658	0.880471	0.122152
	C143	C	0.493406	0.880670	0.878915
	C144	C	0.382326	0.888884	0.676561
	C145	C	0.622107	0.117697	0.679358
	C146	C	0.617707	0.888274	0.326555
	C147	C	0.378619	0.116269	0.318663
	C148	C	0.676531	0.385044	0.885048
	C149	C	0.682106	0.623130	0.114754
	C150	C	0.323809	0.622167	0.886748
	C151	C	0.326255	0.382193	0.115903
	C152	C	0.887097	0.682346	0.378754
	C153	C	0.116192	0.681655	0.621880
	C154	C	0.888036	0.324190	0.622166
	C155	C	0.116729	0.327456	0.383218
	C156	C	0.887139	0.383924	0.676929
	C157	C	0.116373	0.623793	0.678901
	C158	C	0.887879	0.625341	0.320066
	C159	C	0.118047	0.386534	0.327453
	C160	C	0.381065	0.679325	0.886719
	C161	C	0.624563	0.680145	0.115423
	C162	C	0.620319	0.326984	0.885401
	C163	C	0.382764	0.323590	0.115195
	C164	C	0.676750	0.888935	0.383553
	C165	C	0.680519	0.117468	0.623111
	C166	C	0.324263	0.889012	0.618922
	C167	C	0.321369	0.116698	0.376641
	C168	C	0.883712	0.389731	0.178330
	C169	C	0.124881	0.617620	0.179783
	C170	C	0.120473	0.390376	0.825232
	C171	C	0.880731	0.617742	0.820773
	C172	C	0.174928	0.885893	0.385029
	C173	C	0.181251	0.123259	0.614824
	C174	C	0.821112	0.125621	0.386981
	C175	C	0.826129	0.884280	0.617579
	C176	C	0.387527	0.181458	0.877304
	C177	C	0.615732	0.181140	0.123397
	C178	C	0.387279	0.822632	0.119821
	C179	C	0.616458	0.825157	0.881383
	C180	C	0.385930	0.881650	0.175131
	C181	C	0.615565	0.122262	0.180019
	C182	C	0.386776	0.122252	0.821679
	C183	C	0.616868	0.884297	0.824954
	C184	C	0.878421	0.183583	0.387080
	C185	C	0.123738	0.180389	0.615725
	C186	C	0.119007	0.827722	0.385655
	C187	C	0.882001	0.825357	0.616318
	C188	C	0.177532	0.390246	0.883145
	C189	C	0.183808	0.616807	0.123523
	C190	C	0.826188	0.389499	0.120365
	C191	C	0.822669	0.617422	0.878075
	C192	C	0.403489	0.096895	0.597743
	C193	C	0.601423	0.909687	0.602174
	C194	C	0.597997	0.096392	0.402843
	C195	C	0.398634	0.908766	0.399340
	C196	C	0.601482	0.404562	0.094910
	C197	C	0.599806	0.603363	0.905525
	C198	C	0.406462	0.600316	0.096444
	C199	C	0.401616	0.404445	0.906172
	C200	C	0.096532	0.605624	0.402981
	C201	C	0.907193	0.602786	0.597609
	C202	C	0.096442	0.404173	0.601360
	C203	C	0.908375	0.406336	0.402163
	C204	C	0.904757	0.596849	0.097016
	C205	C	0.102389	0.409697	0.102592
	C206	C	0.100366	0.598201	0.902668
	C207	C	0.900601	0.409878	0.899992
	C208	C	0.100903	0.905051	0.595302
	C209	C	0.097601	0.103834	0.405927
	C210	C	0.904519	0.102458	0.595729
	C211	C	0.900583	0.906246	0.407212
	C212	C	0.596050	0.102918	0.902735
	C213	C	0.407461	0.101307	0.095354
	C214	C	0.595561	0.903722	0.100970
	C215	C	0.407420	0.902442	0.900364
	Zn216	Zn	0.501721	0.003480	0.750905
	Zn217	Zn	0.499872	0.002304	0.249587
	Zn218	Zn	0.751111	0.503257	0.000064
	Zn219	Zn	0.252714	0.503541	0.001876
	Zn220	Zn	0.001097	0.755110	0.501289
	Zn221	Zn	0.001903	0.254098	0.501347
	Zn222	Zn	0.001941	0.504132	0.750284
	Zn223	Zn	0.002998	0.504364	0.251273
	Zn224	Zn	0.502230	0.752432	0.001317
	Zn225	Zn	0.502289	0.253666	-0.000423
	Zn226	Zn	0.751389	0.003892	0.502075
	Zn227	Zn	0.250234	0.003533	0.499220
	N228	N	0.416695	0.966069	0.677550
	N229	N	0.587638	0.040639	0.680323
	N230	N	0.583790	0.965352	0.324504
	N231	N	0.411707	0.039000	0.317863
	N232	N	0.678655	0.418694	0.962998
	N233	N	0.681819	0.589814	0.036877
	N234	N	0.324339	0.588051	0.964718
	N235	N	0.324438	0.417167	0.038455
	N236	N	0.964522	0.683819	0.414378
	N237	N	0.038366	0.682988	0.587111
	N238	N	0.965823	0.322594	0.589415
	N239	N	0.038893	0.325475	0.415576
	N240	N	0.964492	0.418550	0.678187
	N241	N	0.038886	0.589522	0.678850
	N242	N	0.965623	0.592079	0.319931
	N243	N	0.040776	0.421064	0.326033
	N244	N	0.416393	0.680124	0.964429
	N245	N	0.589311	0.681719	0.037651
	N246	N	0.587863	0.325210	0.963355
	N247	N	0.415441	0.322989	0.037230
	N248	N	0.678654	0.966449	0.416515
	N249	N	0.681747	0.040210	0.589689
	N250	N	0.323139	0.966286	0.584904
	N251	N	0.319859	0.039671	0.411296
	N252	N	0.917723	0.466941	0.178945
	N253	N	0.089612	0.541007	0.180567
	N254	N	0.086880	0.467527	0.823631
	N255	N	0.914269	0.540615	0.819775
	N256	N	0.176903	0.919848	0.462602
	N257	N	0.180547	0.089795	0.536999
	N258	N	0.821651	0.090739	0.464415
	N259	N	0.824290	0.919255	0.539833
	N260	N	0.465285	0.183263	0.912114
	N261	N	0.538469	0.182531	0.087417
	N262	N	0.465188	0.822027	0.087397
	N263	N	0.538638	0.822674	0.914009
	N264	N	0.463047	0.917033	0.176825
	N265	N	0.538145	0.087538	0.178474
	N266	N	0.464132	0.087926	0.822263
	N267	N	0.539466	0.918178	0.823265
	N268	N	0.914296	0.183835	0.464658
	N269	N	0.087912	0.181972	0.538161
	N270	N	0.086840	0.825851	0.463878
	N271	N	0.914470	0.824485	0.538319
	N272	N	0.179018	0.467332	0.916929
	N273	N	0.184543	0.539484	0.090156
	N274	N	0.824791	0.466471	0.085562
	N275	N	0.820992	0.540095	0.912437
	O276	O	0.473845	0.554924	0.556467
	H277	H	0.474637	0.562086	0.557416
	H278	H	0.470396	0.558612	0.552344
	O279	O	0.533328	0.544172	0.459129
	H280	H	0.528096	0.547824	0.446965
	H281	H	0.524841	0.554504	0.456153
	O282	O	0.927694	1.099828	-0.071299
	H283	H	0.922804	1.099432	-0.080547
	H284	H	0.920988	1.092887	-0.070044
	O285	O	1.087568	-0.065353	0.865367
	H286	H	1.073182	-0.046374	0.870214
	H287	H	1.090939	-0.052440	0.849961
	O288	O	0.423359	0.475616	0.468081
	H289	H	0.414463	0.473290	0.471558
	H290	H	0.433844	0.476647	0.453305
	O291	O	0.604474	0.453999	0.481739
	H292	H	0.620055	0.448696	0.479171
	H293	H	0.604090	0.451185	0.470871
	O294	O	0.454452	0.540153	0.450194
	H295	H	0.455937	0.538124	0.453581
	H296	H	0.458128	0.543384	0.445584
	O297	O	0.048968	0.101866	1.067046
	H298	H	0.052308	0.108540	1.074652
	H299	H	0.047017	0.108774	1.063165
	O300	O	0.083950	-0.008875	0.105010
	H301	H	0.089003	-0.021467	0.114511
	H302	H	0.093175	-0.002850	0.101431
	O303	O	1.072927	1.053033	0.068931
	H304	H	1.081282	1.055823	0.055847
	H305	H	1.075200	1.050159	0.062575
	O306	O	0.064710	1.041704	1.021881
	H307	H	0.061156	1.034027	1.013559
	H308	H	0.053964	1.037802	1.015850
	O309	O	0.530275	0.416202	0.455357
	H310	H	0.532476	0.424394	0.466253
	H311	H	0.528296	0.409417	0.450443
	O312	O	0.059368	-0.046940	-0.016410
	H313	H	0.067854	-0.049716	-0.020255
	H314	H	0.063733	-0.044216	-0.008503
	O315	O	0.878686	0.024440	-0.086449
	H316	H	0.870732	0.026433	-0.077129
	H317	H	0.876967	0.013275	-0.071426
	O318	O	1.098180	0.912221	0.980693
	H319	H	1.110464	0.926913	0.968202
	H320	H	1.089638	0.907847	0.983565
	O321	O	0.104202	0.124259	1.066307
	H322	H	0.100500	0.118634	1.053092
	H323	H	0.113665	0.125218	1.077562
	O324	O	0.492740	0.506472	0.501210
	H325	H	0.494155	0.495982	0.499982
	H326	H	0.493185	0.507886	0.501714
	O327	O	-0.067071	0.057039	-0.084749
	H328	H	-0.062842	0.067971	-0.096342
	H329	H	-0.084175	0.052562	-0.083324
	O330	O	0.530599	0.395815	0.433420
	H331	H	0.529872	0.387055	0.434744
	H332	H	0.532092	0.388793	0.427708
	O333	O	-0.040278	1.082152	0.990383
	H334	H	-0.038308	1.078886	0.993702
	H335	H	-0.037360	1.083678	0.984507
	O336	O	-0.051397	-0.083525	0.035931
	H337	H	-0.056457	-0.100017	0.045661
	H338	H	-0.036442	-0.083462	0.032072
	O339	O	0.530008	0.433336	0.500535
	H340	H	0.531412	0.432920	0.507925
	H341	H	0.532131	0.426624	0.507418
	O342	O	0.902073	0.888358	1.121396
	H343	H	0.901834	0.888775	1.124940
	H344	H	0.906816	0.893530	1.128521
	O345	O	1.045452	1.051445	0.071311
	H346	H	1.044725	1.050420	0.062282
	H347	H	1.064628	1.047090	0.065060
	O348	O	0.618053	0.546667	0.462697
	H349	H	0.609251	0.544803	0.465885
	H350	H	0.625201	0.535353	0.456147
	O351	O	0.490747	0.504254	0.579466
	H352	H	0.478636	0.506592	0.564900
	H353	H	0.484484	0.510750	0.589693
	O354	O	0.934238	-0.081351	0.984041
	H355	H	0.949873	-0.083348	1.002073
	H356	H	0.921172	-0.088318	0.990320
	O357	O	1.039929	0.047515	1.014817
	H358	H	1.027323	0.047153	1.007644
	H359	H	1.047137	0.051191	1.025132
	O360	O	0.473320	0.492433	0.562024
	H361	H	0.481670	0.489087	0.580057
	H362	H	0.472364	0.494982	0.555848
	O363	O	0.506692	0.463460	0.495788
	H364	H	0.515775	0.466588	0.498118
	H365	H	0.508516	0.465675	0.507620
	O366	O	0.577866	1.518227	0.558132
	H367	H	0.576296	1.530698	0.557872
	H368	H	0.589763	1.524332	0.563344
	O369	O	0.909755	-0.003642	0.924102
	H370	H	0.920710	-0.011201	0.933055
	H371	H	0.901673	-0.004458	0.941700
	O372	O	0.110199	-0.040631	0.035185
	H373	H	0.111830	-0.045144	0.028404
	H374	H	0.117108	-0.033513	0.036428
	O375	O	0.880973	-0.027604	0.120982
	H376	H	0.876075	-0.023602	0.116520
	H377	H	0.872166	-0.028563	0.116793
	O378	O	0.513472	0.594626	0.535239
	H379	H	0.517706	0.609740	0.537876
	H380	H	0.506366	0.597512	0.536477
	O381	O	0.515156	0.516325	0.589370
	H382	H	0.519818	0.512962	0.589609
	H383	H	0.509933	0.517568	0.580265
