data_Molecule from HDF5

_cell_length_a		16.263849
_cell_length_b		16.253682
_cell_length_c		16.368548
_cell_angle_alpha	89.872033
_cell_angle_beta	90.190641
_cell_angle_gamma	89.914302
_symmetry_space_group_name_H-M	'P 1'
_symmetry_Int_Tables_number		1

loop_
	_symmetry_equiv_pos_as_xyz
	x,y,z

loop_
	_atom_site_label
	_atom_site_type_symbol
	_atom_site_fract_x
	_atom_site_fract_y
	_atom_site_fract_z
	H0	H	0.407075	0.840726	0.717027
	H1	H	0.605097	0.167948	0.716256
	H2	H	0.605173	0.840252	0.287833
	H3	H	0.405407	0.167642	0.285328
	H4	H	0.718589	0.407277	0.837922
	H5	H	0.721073	0.601851	0.164169
	H6	H	0.288279	0.604123	0.838740
	H7	H	0.291595	0.404889	0.165015
	H8	H	0.840965	0.718324	0.403301
	H9	H	0.169587	0.717955	0.600826
	H10	H	0.841765	0.290955	0.598498
	H11	H	0.169092	0.290063	0.404160
	H12	H	0.842352	0.405367	0.716106
	H13	H	0.168738	0.603478	0.717098
	H14	H	0.842141	0.604976	0.284452
	H15	H	0.168923	0.403991	0.287098
	H16	H	0.406658	0.719429	0.838325
	H17	H	0.604412	0.717814	0.165085
	H18	H	0.603457	0.290138	0.838484
	H19	H	0.409304	0.289890	0.165106
	H20	H	0.718203	0.840020	0.405597
	H21	H	0.719822	0.168334	0.599451
	H22	H	0.293414	0.839897	0.598816
	H23	H	0.290367	0.168211	0.402171
	H24	H	0.907689	0.340098	0.216280
	H25	H	0.105138	0.667338	0.217168
	H26	H	0.103131	0.340273	0.788074
	H27	H	0.905808	0.667566	0.785844
	H28	H	0.220203	0.905940	0.338497
	H29	H	0.220321	0.101551	0.665002
	H30	H	0.789942	0.103833	0.339039
	H31	H	0.792503	0.906483	0.664988
	H32	H	0.341003	0.216317	0.905571
	H33	H	0.670180	0.216206	0.098480
	H34	H	0.341196	0.790435	0.098993
	H35	H	0.669713	0.790521	0.905773
	H36	H	0.342135	0.904036	0.217216
	H37	H	0.669137	0.102524	0.217256
	H38	H	0.341830	0.103905	0.786395
	H39	H	0.669364	0.905215	0.787169
	H40	H	0.906683	0.219762	0.339137
	H41	H	0.103546	0.218291	0.664769
	H42	H	0.104041	0.789347	0.338412
	H43	H	0.908097	0.789326	0.664908
	H44	H	0.217655	0.339516	0.906296
	H45	H	0.220192	0.668074	0.099940
	H46	H	0.792832	0.339482	0.098887
	H47	H	0.790531	0.668033	0.902577
	H48	H	0.409069	0.121520	0.593088
	H49	H	0.590654	0.888399	0.601899
	H50	H	0.593615	0.122704	0.398674
	H51	H	0.418410	0.891667	0.414950
	H52	H	0.603220	0.411864	0.118616
	H53	H	0.605676	0.602736	0.882240
	H54	H	0.414389	0.598506	0.116902
	H55	H	0.411951	0.413232	0.886527
	H56	H	0.124439	0.603796	0.406989
	H57	H	0.889932	0.599175	0.588868
	H58	H	0.126521	0.408081	0.606555
	H59	H	0.888225	0.410446	0.406789
	H60	H	0.122460	0.404310	0.587591
	H61	H	0.890960	0.590944	0.594311
	H62	H	0.118421	0.594267	0.416208
	H63	H	0.889319	0.412266	0.411026
	H64	H	0.410783	0.595917	0.117525
	H65	H	0.598805	0.588865	0.888010
	H66	H	0.596998	0.411732	0.115796
	H67	H	0.411914	0.408233	0.885214
	H68	H	0.591916	0.117382	0.415358
	H69	H	0.597693	0.890556	0.586327
	H70	H	0.413158	0.122025	0.598469
	H71	H	0.404752	0.885639	0.410729
	H72	H	0.910038	0.620242	0.091682
	H73	H	0.104768	0.387545	0.088072
	H74	H	0.102269	0.624553	0.902987
	H75	H	0.912874	0.388003	0.908199
	H76	H	0.101110	0.911324	0.617758
	H77	H	0.096051	0.100786	0.385485
	H78	H	0.916300	0.103538	0.619166
	H79	H	0.901276	0.904337	0.380740
	H80	H	0.619124	0.093612	0.914418
	H81	H	0.389775	0.096347	0.091872
	H82	H	0.615930	0.924047	0.088618
	H83	H	0.392056	0.913941	0.913793
	H84	H	0.626560	0.911735	0.110892
	H85	H	0.389199	0.094565	0.096182
	H86	H	0.623518	0.092640	0.899621
	H87	H	0.389001	0.917175	0.904389
	H88	H	0.906358	0.097369	0.619020
	H89	H	0.101965	0.096831	0.385081
	H90	H	0.098565	0.910228	0.616879
	H91	H	0.910225	0.924672	0.389427
	H92	H	0.090062	0.618672	0.907432
	H93	H	0.101601	0.384965	0.103909
	H94	H	0.913512	0.621170	0.097532
	H95	H	0.912340	0.387364	0.907837
	H96	H	0.415755	0.119813	0.592661
	H97	H	0.607068	0.883732	0.599086
	H98	H	0.607487	0.123301	0.409613
	H99	H	0.416223	0.886861	0.400948
	H100	H	0.599473	0.405854	0.118532
	H101	H	0.590029	0.602095	0.886987
	H102	H	0.414388	0.594275	0.115444
	H103	H	0.407741	0.411059	0.884965
	H104	H	0.121091	0.590429	0.403097
	H105	H	0.886898	0.599046	0.598708
	H106	H	0.118573	0.422491	0.594861
	H107	H	0.889405	0.414838	0.407390
	H108	H	0.917683	0.618502	0.092239
	H109	H	0.089754	0.390663	0.093957
	H110	H	0.100714	0.619467	0.915811
	H111	H	0.912861	0.387185	0.907808
	H112	H	0.101064	0.908144	0.618089
	H113	H	0.095665	0.093855	0.387819
	H114	H	0.915884	0.092299	0.614844
	H115	H	0.923943	0.905388	0.387722
	H116	H	0.625627	0.105801	0.907653
	H117	H	0.388110	0.098806	0.095372
	H118	H	0.622971	0.897815	0.087223
	H119	H	0.387331	0.907510	0.907061
	C120	C	0.384489	0.012708	0.623191
	C121	C	0.627276	0.995860	0.623479
	C122	C	0.626433	0.012402	0.380388
	C123	C	0.384204	0.996292	0.380058
	C124	C	0.627859	0.382015	0.009690
	C125	C	0.627291	0.625954	0.993352
	C126	C	0.383458	0.625693	0.009425
	C127	C	0.383411	0.382333	0.993439
	C128	C	0.013216	0.625789	0.379835
	C129	C	0.997370	0.625210	0.622842
	C130	C	0.014403	0.382802	0.623657
	C131	C	0.997380	0.383439	0.380428
	C132	C	0.885000	0.512200	0.122719
	C133	C	0.127539	0.495818	0.123857
	C134	C	0.126564	0.512687	0.880655
	C135	C	0.883964	0.495924	0.879722
	C136	C	0.128256	0.881648	0.509685
	C137	C	0.126977	0.125875	0.493572
	C138	C	0.883966	0.126489	0.510225
	C139	C	0.884047	0.882802	0.493690
	C140	C	0.514172	0.125735	0.879649
	C141	C	0.497367	0.124963	0.123285
	C142	C	0.513557	0.882497	0.123809
	C143	C	0.497540	0.883575	0.880565
	C144	C	0.386942	0.889404	0.678626
	C145	C	0.625198	0.119139	0.678175
	C146	C	0.624782	0.889159	0.325772
	C147	C	0.385732	0.119050	0.323875
	C148	C	0.681779	0.385720	0.886972
	C149	C	0.682653	0.622399	0.115989
	C150	C	0.327346	0.623934	0.887116
	C151	C	0.329716	0.385182	0.116520
	C152	C	0.890023	0.680950	0.382053
	C153	C	0.120427	0.680456	0.620879
	C154	C	0.890847	0.328106	0.620039
	C155	C	0.120387	0.327719	0.383235
	C156	C	0.891148	0.384883	0.678420
	C157	C	0.120156	0.623774	0.678936
	C158	C	0.890571	0.624211	0.323577
	C159	C	0.120277	0.384640	0.325318
	C160	C	0.385570	0.681590	0.887025
	C161	C	0.624646	0.680008	0.116400
	C162	C	0.624180	0.327723	0.887060
	C163	C	0.387588	0.327466	0.116490
	C164	C	0.681061	0.889132	0.384457
	C165	C	0.681975	0.119362	0.619883
	C166	C	0.330658	0.889088	0.619829
	C167	C	0.328669	0.119368	0.382219
	C168	C	0.887345	0.388773	0.178012
	C169	C	0.125002	0.618886	0.178710
	C170	C	0.124015	0.389186	0.825852
	C171	C	0.885551	0.618943	0.824251
	C172	C	0.182475	0.885114	0.387141
	C173	C	0.182332	0.122762	0.616407
	C174	C	0.827693	0.124594	0.387786
	C175	C	0.829750	0.885176	0.616398
	C176	C	0.390225	0.179832	0.883640
	C177	C	0.621085	0.178964	0.119765
	C178	C	0.390208	0.828011	0.120116
	C179	C	0.620913	0.828335	0.884436
	C180	C	0.390510	0.884725	0.178490
	C181	C	0.620502	0.122706	0.178741
	C182	C	0.390574	0.123697	0.824711
	C183	C	0.620649	0.885302	0.825538
	C184	C	0.885709	0.182046	0.387611
	C185	C	0.124370	0.180598	0.616315
	C186	C	0.124842	0.827038	0.387191
	C187	C	0.887405	0.827250	0.616315
	C188	C	0.180875	0.388888	0.884275
	C189	C	0.182394	0.619032	0.120635
	C190	C	0.830388	0.388520	0.119729
	C191	C	0.828602	0.619109	0.882451
	C192	C	0.406351	0.098899	0.601335
	C193	C	0.605014	0.909675	0.602083
	C194	C	0.604210	0.098918	0.401537
	C195	C	0.406485	0.910339	0.402415
	C196	C	0.606170	0.403435	0.095505
	C197	C	0.604823	0.604268	0.907673
	C198	C	0.406276	0.602950	0.094551
	C199	C	0.404448	0.404159	0.907805
	C200	C	0.099157	0.602953	0.402367
	C201	C	0.911340	0.602930	0.600437
	C202	C	0.100409	0.404891	0.602374
	C203	C	0.911115	0.405935	0.402100
	C204	C	0.907211	0.597934	0.100531
	C205	C	0.105212	0.409890	0.101951
	C206	C	0.104270	0.598797	0.902200
	C207	C	0.906354	0.409677	0.901570
	C208	C	0.106591	0.903280	0.595461
	C209	C	0.104403	0.103870	0.408215
	C210	C	0.906272	0.104386	0.595460
	C211	C	0.905478	0.905023	0.408056
	C212	C	0.600504	0.103891	0.901028
	C213	C	0.411252	0.103016	0.101018
	C214	C	0.599756	0.904749	0.102130
	C215	C	0.411580	0.906160	0.902046
	Zn216	Zn	0.505450	0.004820	0.751353
	Zn217	Zn	0.505688	0.003861	0.251861
	Zn218	Zn	0.756089	0.503909	0.001470
	Zn219	Zn	0.254866	0.503841	0.001771
	Zn220	Zn	0.005434	0.753715	0.501545
	Zn221	Zn	0.005902	0.255538	0.501498
	Zn222	Zn	0.005603	0.504484	0.751549
	Zn223	Zn	0.005645	0.504004	0.252083
	Zn224	Zn	0.505490	0.754310	0.002227
	Zn225	Zn	0.505712	0.253467	0.001684
	Zn226	Zn	0.755317	0.004319	0.501973
	Zn227	Zn	0.256075	0.004274	0.502022
	N228	N	0.419794	0.967400	0.680652
	N229	N	0.591746	0.041326	0.680398
	N230	N	0.591270	0.966971	0.323303
	N231	N	0.419698	0.041500	0.322692
	N232	N	0.684176	0.418497	0.964336
	N233	N	0.684428	0.589610	0.038508
	N234	N	0.325903	0.589936	0.964224
	N235	N	0.326999	0.418446	0.039097
	N236	N	0.967241	0.681834	0.416429
	N237	N	0.043126	0.681326	0.586567
	N238	N	0.968351	0.326827	0.586732
	N239	N	0.042911	0.326909	0.416690
	N240	N	0.968919	0.418213	0.680811
	N241	N	0.042535	0.590202	0.680389
	N242	N	0.968533	0.590786	0.321845
	N243	N	0.042668	0.418452	0.323646
	N244	N	0.419729	0.682829	0.964070
	N245	N	0.590843	0.682195	0.039154
	N246	N	0.591198	0.325380	0.964469
	N247	N	0.420202	0.325410	0.039047
	N248	N	0.682032	0.966822	0.417757
	N249	N	0.683221	0.041738	0.586483
	N250	N	0.328908	0.966703	0.586225
	N251	N	0.327673	0.042154	0.416585
	N252	N	0.920707	0.466569	0.179904
	N253	N	0.091976	0.541175	0.181015
	N254	N	0.091003	0.467334	0.823342
	N255	N	0.919262	0.541383	0.822350
	N256	N	0.184753	0.918127	0.464394
	N257	N	0.184102	0.089542	0.539162
	N258	N	0.826476	0.090689	0.464894
	N259	N	0.827596	0.919086	0.539312
	N260	N	0.467994	0.181111	0.917111
	N261	N	0.543416	0.180653	0.086024
	N262	N	0.467786	0.826586	0.086754
	N263	N	0.543391	0.827165	0.917967
	N264	N	0.468360	0.917672	0.181039
	N265	N	0.542718	0.089529	0.180581
	N266	N	0.468546	0.090791	0.822226
	N267	N	0.542915	0.918890	0.823183
	N268	N	0.919951	0.183475	0.464560
	N269	N	0.090524	0.182371	0.539117
	N270	N	0.091728	0.824886	0.464496
	N271	N	0.920345	0.825671	0.539028
	N272	N	0.181979	0.466292	0.917924
	N273	N	0.183959	0.541441	0.087243
	N274	N	0.828792	0.466103	0.086053
	N275	N	0.827713	0.541511	0.916288
	O276	O	0.418504	-0.430401	0.472187
	H277	H	0.418916	-0.432111	0.485344
	H278	H	0.413953	-0.427805	0.469780
	O279	O	0.411619	0.580186	0.458704
	H280	H	0.412148	0.579334	0.460191
	H281	H	0.412041	0.577885	0.458385
	O282	O	0.420144	0.574846	0.492282
	H283	H	0.419054	0.574003	0.486998
	H284	H	0.417078	0.582511	0.494569
	O285	O	0.413978	0.591054	0.460629
	H286	H	0.413098	0.592441	0.450228
	H287	H	0.410643	0.594271	0.459994
