data_Molecule from HDF5

_cell_length_a		16.261016
_cell_length_b		16.242513
_cell_length_c		16.256406
_cell_angle_alpha	90.411833
_cell_angle_beta	90.113154
_cell_angle_gamma	89.999492
_symmetry_space_group_name_H-M	'P 1'
_symmetry_Int_Tables_number		1

loop_
	_symmetry_equiv_pos_as_xyz
	x,y,z

loop_
	_atom_site_label
	_atom_site_type_symbol
	_atom_site_fract_x
	_atom_site_fract_y
	_atom_site_fract_z
	H0	H	0.403953	0.844172	0.715477
	H1	H	0.604549	0.170757	0.719561
	H2	H	0.602687	0.845413	0.284923
	H3	H	0.402401	0.172505	0.289102
	H4	H	0.718702	0.410138	0.839283
	H5	H	0.719697	0.609306	0.167416
	H6	H	0.288515	0.609387	0.839730
	H7	H	0.288688	0.409936	0.165210
	H8	H	0.839662	0.721546	0.405749
	H9	H	0.166262	0.726525	0.605193
	H10	H	0.840636	0.294501	0.601569
	H11	H	0.166879	0.291629	0.403034
	H12	H	0.841020	0.410057	0.717507
	H13	H	0.167611	0.610795	0.718798
	H14	H	0.839634	0.606437	0.288646
	H15	H	0.166223	0.405934	0.285362
	H16	H	0.407695	0.719805	0.837767
	H17	H	0.605184	0.727425	0.165711
	H18	H	0.605523	0.292277	0.839666
	H19	H	0.405308	0.294862	0.166076
	H20	H	0.719046	0.844612	0.400679
	H21	H	0.719977	0.171328	0.604533
	H22	H	0.289666	0.843755	0.597852
	H23	H	0.286406	0.170397	0.401198
	H24	H	0.906394	0.344910	0.214245
	H25	H	0.105571	0.671741	0.222469
	H26	H	0.106318	0.347340	0.784640
	H27	H	0.906173	0.673323	0.789368
	H28	H	0.217890	0.906468	0.337871
	H29	H	0.220294	0.109277	0.664930
	H30	H	0.788143	0.106886	0.339365
	H31	H	0.786426	0.907938	0.664957
	H32	H	0.341377	0.224241	0.903127
	H33	H	0.668097	0.224380	0.103695
	H34	H	0.340096	0.793895	0.101203
	H35	H	0.667214	0.792742	0.902138
	H36	H	0.339565	0.911271	0.214825
	H37	H	0.666659	0.110628	0.220809
	H38	H	0.340212	0.106303	0.787980
	H39	H	0.666639	0.907025	0.785114
	H40	H	0.904079	0.222097	0.339009
	H41	H	0.104404	0.224931	0.665794
	H42	H	0.103059	0.789549	0.339660
	H43	H	0.903261	0.794430	0.666511
	H44	H	0.220477	0.346178	0.901250
	H45	H	0.220284	0.673143	0.104826
	H46	H	0.789869	0.345913	0.101741
	H47	H	0.789448	0.673117	0.904267
	H48	H	0.407987	0.127197	0.600812
	H49	H	0.594058	0.891978	0.593108
	H50	H	0.596820	0.124531	0.412696
	H51	H	0.414925	0.891570	0.404808
	H52	H	0.596893	0.412144	0.120873
	H53	H	0.600975	0.613531	0.882394
	H54	H	0.415057	0.605398	0.119190
	H55	H	0.408290	0.418741	0.886264
	H56	H	0.119048	0.597172	0.409593
	H57	H	0.881925	0.602601	0.613406
	H58	H	0.119472	0.416919	0.589773
	H59	H	0.885619	0.414593	0.404267
	H60	H	0.120177	0.420555	0.598659
	H61	H	0.886015	0.615147	0.585711
	H62	H	0.120474	0.602005	0.412412
	H63	H	0.885909	0.410788	0.410331
	H64	H	0.408441	0.603164	0.119304
	H65	H	0.608448	0.590786	0.885317
	H66	H	0.603515	0.420189	0.120582
	H67	H	0.416938	0.419562	0.887995
	H68	H	0.596488	0.125126	0.410995
	H69	H	0.595834	0.892642	0.591505
	H70	H	0.418196	0.122580	0.595341
	H71	H	0.411387	0.893180	0.411696
	H72	H	0.907725	0.628671	0.099344
	H73	H	0.094696	0.395487	0.091947
	H74	H	0.093395	0.625782	0.910450
	H75	H	0.914496	0.390032	0.898371
	H76	H	0.089664	0.922579	0.614850
	H77	H	0.106536	0.097277	0.383236
	H78	H	0.914520	0.097281	0.617216
	H79	H	0.911376	0.916244	0.386617
	H80	H	0.620149	0.102546	0.915337
	H81	H	0.386711	0.102889	0.098646
	H82	H	0.616530	0.925769	0.094155
	H83	H	0.389691	0.918766	0.913661
	H84	H	0.622578	0.915165	0.100239
	H85	H	0.387811	0.106050	0.090938
	H86	H	0.620010	0.094550	0.908965
	H87	H	0.386035	0.917387	0.902966
	H88	H	0.913969	0.106046	0.620600
	H89	H	0.088352	0.090899	0.390791
	H90	H	0.096280	0.908764	0.621134
	H91	H	0.913161	0.913479	0.386959
	H92	H	0.097507	0.624175	0.915724
	H93	H	0.099338	0.392571	0.092434
	H94	H	0.917537	0.625785	0.099065
	H95	H	0.920654	0.397708	0.916006
	H96	H	0.407840	0.123498	0.588961
	H97	H	0.596785	0.891520	0.592787
	H98	H	0.595075	0.124185	0.411730
	H99	H	0.407570	0.889383	0.405530
	H100	H	0.593675	0.421451	0.117040
	H101	H	0.585375	0.596870	0.891206
	H102	H	0.414243	0.598594	0.118019
	H103	H	0.414034	0.411718	0.885313
	H104	H	0.118568	0.598161	0.415643
	H105	H	0.893741	0.586161	0.590339
	H106	H	0.123258	0.411645	0.596187
	H107	H	0.888078	0.417563	0.410672
	H108	H	0.911958	0.624199	0.090739
	H109	H	0.096568	0.392519	0.096332
	H110	H	0.100361	0.627931	0.909834
	H111	H	0.901234	0.390377	0.913250
	H112	H	0.105691	0.921504	0.619595
	H113	H	0.090182	0.110274	0.384210
	H114	H	0.906219	0.101277	0.620497
	H115	H	0.910946	0.913548	0.385942
	H116	H	0.622356	0.103585	0.905623
	H117	H	0.390331	0.097782	0.093181
	H118	H	0.618780	0.915385	0.086728
	H119	H	0.385418	0.908815	0.909868
	C120	C	0.382142	0.016177	0.623019
	C121	C	0.625421	0.999605	0.623381
	C122	C	0.625231	0.016731	0.380817
	C123	C	0.381559	0.999495	0.379550
	C124	C	0.627265	0.387617	0.011667
	C125	C	0.626708	0.630918	0.994589
	C126	C	0.383441	0.630574	0.011001
	C127	C	0.383477	0.387800	0.994070
	C128	C	0.011630	0.628618	0.382948
	C129	C	0.995102	0.631318	0.625617
	C130	C	0.013064	0.387368	0.624145
	C131	C	0.994741	0.385758	0.380233
	C132	C	0.883532	0.517941	0.124264
	C133	C	0.126473	0.500991	0.124543
	C134	C	0.126628	0.518291	0.881283
	C135	C	0.883121	0.500888	0.880837
	C136	C	0.125728	0.886580	0.510590
	C137	C	0.125397	0.129832	0.493349
	C138	C	0.882300	0.129724	0.511310
	C139	C	0.881926	0.886113	0.494376
	C140	C	0.512842	0.129836	0.880675
	C141	C	0.496058	0.131364	0.124669
	C142	C	0.511817	0.888417	0.123113
	C143	C	0.495179	0.886087	0.879720
	C144	C	0.383828	0.893107	0.677655
	C145	C	0.624283	0.122077	0.680921
	C146	C	0.622718	0.893991	0.323658
	C147	C	0.382621	0.122961	0.325596
	C148	C	0.681619	0.389494	0.888357
	C149	C	0.682160	0.630014	0.117944
	C150	C	0.327278	0.628636	0.888054
	C151	C	0.327186	0.389920	0.116615
	C152	C	0.888559	0.684058	0.384865
	C153	C	0.117772	0.687686	0.624428
	C154	C	0.889641	0.332333	0.622036
	C155	C	0.117971	0.330081	0.382897
	C156	C	0.890140	0.389560	0.680122
	C157	C	0.118482	0.629991	0.680995
	C158	C	0.888605	0.626955	0.326686
	C159	C	0.117811	0.387039	0.324560
	C160	C	0.386370	0.683706	0.887208
	C161	C	0.625312	0.688723	0.117105
	C162	C	0.625666	0.330607	0.888797
	C163	C	0.385553	0.332968	0.117152
	C164	C	0.680796	0.893598	0.381133
	C165	C	0.682002	0.122258	0.623777
	C166	C	0.326874	0.892940	0.619495
	C167	C	0.324993	0.122086	0.381899
	C168	C	0.885930	0.394032	0.177411
	C169	C	0.125298	0.623267	0.183137
	C170	C	0.125335	0.395672	0.823823
	C171	C	0.885494	0.624245	0.826588
	C172	C	0.180140	0.886855	0.387013
	C173	C	0.182057	0.129041	0.616195
	C174	C	0.826362	0.127065	0.388119
	C175	C	0.825131	0.888172	0.616589
	C176	C	0.390232	0.186132	0.882540
	C177	C	0.619003	0.186773	0.123782
	C178	C	0.388952	0.831879	0.121183
	C179	C	0.618347	0.830535	0.881743
	C180	C	0.388656	0.890290	0.177888
	C181	C	0.618181	0.130273	0.182274
	C182	C	0.389414	0.127539	0.825302
	C183	C	0.618095	0.887540	0.823760
	C184	C	0.883892	0.184543	0.388029
	C185	C	0.124327	0.186431	0.616724
	C186	C	0.123300	0.828392	0.388163
	C187	C	0.883610	0.831824	0.617468
	C188	C	0.182382	0.395206	0.881581
	C189	C	0.182086	0.623932	0.124357
	C190	C	0.827707	0.394663	0.121809
	C191	C	0.827342	0.624078	0.883668
	C192	C	0.404762	0.102245	0.601303
	C193	C	0.602332	0.913981	0.599547
	C194	C	0.602622	0.102501	0.404682
	C195	C	0.404549	0.913460	0.401129
	C196	C	0.604579	0.410958	0.097435
	C197	C	0.604670	0.607342	0.908667
	C198	C	0.406031	0.608676	0.096775
	C199	C	0.406281	0.410207	0.908547
	C200	C	0.097265	0.605801	0.405840
	C201	C	0.909401	0.608097	0.603130
	C202	C	0.098691	0.409785	0.601647
	C203	C	0.908853	0.407979	0.402173
	C204	C	0.905883	0.603939	0.102680
	C205	C	0.103624	0.415565	0.100575
	C206	C	0.103772	0.603775	0.905004
	C207	C	0.905585	0.415072	0.902818
	C208	C	0.103736	0.910614	0.596332
	C209	C	0.101983	0.106451	0.408235
	C210	C	0.904948	0.107971	0.597046
	C211	C	0.904984	0.908103	0.408593
	C212	C	0.598614	0.106986	0.903376
	C213	C	0.410297	0.108756	0.101293
	C214	C	0.597221	0.911708	0.100315
	C215	C	0.409313	0.908446	0.902164
	Zn216	Zn	0.503485	0.007361	0.751690
	Zn217	Zn	0.502735	0.009844	0.252262
	Zn218	Zn	0.755626	0.508921	0.003563
	Zn219	Zn	0.255061	0.509714	0.002244
	Zn220	Zn	0.003448	0.758203	0.503809
	Zn221	Zn	0.003673	0.258276	0.502700
	Zn222	Zn	0.004906	0.509839	0.752925
	Zn223	Zn	0.003719	0.508474	0.252819
	Zn224	Zn	0.504108	0.759162	0.002172
	Zn225	Zn	0.505683	0.259300	0.003052
	Zn226	Zn	0.754052	0.007741	0.502457
	Zn227	Zn	0.253980	0.007973	0.501126
	N228	N	0.417429	0.970785	0.679934
	N229	N	0.589850	0.044763	0.680799
	N230	N	0.589153	0.971791	0.323129
	N231	N	0.417366	0.045806	0.324267
	N232	N	0.682818	0.424078	0.965824
	N233	N	0.683277	0.594673	0.040721
	N234	N	0.325162	0.596253	0.966073
	N235	N	0.325752	0.423121	0.038987
	N236	N	0.966103	0.685307	0.419033
	N237	N	0.040254	0.688522	0.590582
	N238	N	0.967036	0.330652	0.588362
	N239	N	0.040581	0.329231	0.416711
	N240	N	0.967800	0.423362	0.681512
	N241	N	0.041059	0.595672	0.681975
	N242	N	0.966167	0.593155	0.325487
	N243	N	0.040201	0.420839	0.322475
	N244	N	0.420474	0.685093	0.964595
	N245	N	0.591784	0.689398	0.039471
	N246	N	0.592361	0.329535	0.966559
	N247	N	0.419606	0.331210	0.039784
	N248	N	0.682371	0.970926	0.416094
	N249	N	0.682555	0.044994	0.588444
	N250	N	0.325922	0.970568	0.586140
	N251	N	0.324107	0.044273	0.414606
	N252	N	0.919777	0.471589	0.179331
	N253	N	0.091225	0.545793	0.183321
	N254	N	0.091404	0.473204	0.823493
	N255	N	0.919261	0.546712	0.824604
	N256	N	0.181901	0.922105	0.464105
	N257	N	0.182656	0.094244	0.538720
	N258	N	0.825049	0.093919	0.465653
	N259	N	0.824334	0.921326	0.539021
	N260	N	0.468047	0.187937	0.916090
	N261	N	0.541981	0.187662	0.088898
	N262	N	0.466743	0.830667	0.087927
	N263	N	0.541205	0.829753	0.915962
	N264	N	0.465932	0.924699	0.179347
	N265	N	0.540541	0.096590	0.182884
	N266	N	0.466707	0.093371	0.824042
	N267	N	0.540491	0.921404	0.822512
	N268	N	0.917959	0.186463	0.465612
	N269	N	0.089990	0.187386	0.539453
	N270	N	0.090092	0.828174	0.465925
	N271	N	0.918326	0.830545	0.540321
	N272	N	0.183482	0.472397	0.916520
	N273	N	0.183048	0.546925	0.088724
	N274	N	0.825999	0.472730	0.089362
	N275	N	0.825889	0.546336	0.916931
	O276	O	0.571325	0.518523	0.553738
	H277	H	0.578786	0.522082	0.564964
	H278	H	0.565936	0.507821	0.551594
	O279	O	0.634460	0.492633	0.507504
	H280	H	0.644218	0.489635	0.512346
	H281	H	0.642135	0.503391	0.512122
	O282	O	0.873450	0.956057	0.059158
	H283	H	0.888487	0.959327	0.056967
	H284	H	0.867524	0.958856	0.065540
	O285	O	0.891917	0.050153	0.978962
	H286	H	0.887521	0.049024	0.981091
	H287	H	0.891948	0.031951	0.984620
	O288	O	0.458341	0.497703	0.477064
	H289	H	0.431616	0.496015	0.478208
	H290	H	0.457645	0.497906	0.467138
	O291	O	0.420024	0.456745	0.580121
	H292	H	0.429838	0.468368	0.571076
	H293	H	0.416624	0.451112	0.586460
	O294	O	0.365682	0.560151	0.543738
	H295	H	0.368245	0.566515	0.539625
	H296	H	0.360207	0.552626	0.538496
	O297	O	-0.494198	-0.531430	1.401497
	H298	H	-0.501507	-0.537831	1.404964
	H299	H	-0.491316	-0.533600	1.391682
	O300	O	0.149161	0.057650	0.080334
	H301	H	0.143712	0.074326	0.085463
	H302	H	0.147973	0.048782	0.078347
	O303	O	1.046445	0.904401	0.091539
	H304	H	1.037699	0.905795	0.093779
	H305	H	1.043921	0.902152	0.075668
	O306	O	0.001259	1.083794	0.933797
	H307	H	0.002626	1.093467	0.940979
	H308	H	0.002380	1.091100	0.936554
	O309	O	0.485725	0.526424	0.473154
	H310	H	0.476574	0.532172	0.487230
	H311	H	0.482127	0.519150	0.463502
	O312	O	-0.013037	0.013745	-0.035415
	H313	H	-0.007747	0.007193	-0.029926
	H314	H	-0.019398	0.010731	-0.034924
	O315	O	1.030129	0.127015	-0.091772
	H316	H	1.024716	0.124197	-0.092654
	H317	H	1.046267	0.142825	-0.080418
	O318	O	0.891770	0.906614	1.015526
	H319	H	0.884473	0.919530	1.031554
	H320	H	0.885734	0.895118	1.021629
	O321	O	0.098310	-1.014170	1.129277
	H322	H	0.103834	-1.015990	1.129860
	H323	H	0.106695	-1.024141	1.119571
	O324	O	0.522157	0.512982	0.588211
	H325	H	0.516649	0.518186	0.579027
	H326	H	0.525573	0.513645	0.592817
	O327	O	0.041369	-0.049850	0.035069
	H328	H	0.043415	-0.049097	0.026795
	H329	H	0.040684	-0.051062	0.038025
	O330	O	0.522451	0.533209	0.485585
	H331	H	0.530595	0.525554	0.481339
	H332	H	0.520325	0.537180	0.488098
	O333	O	0.042261	0.953706	0.921013
	H334	H	0.032332	0.951021	0.919409
	H335	H	0.030242	0.961255	0.920357
	O336	O	-0.029372	0.120674	0.060671
	H337	H	-0.017477	0.116658	0.061617
	H338	H	-0.026484	0.118711	0.056388
	O339	O	0.442882	0.463875	0.472541
	H340	H	0.449505	0.465474	0.485680
	H341	H	0.449428	0.475373	0.468499
	O342	O	0.900732	0.920513	0.993921
	H343	H	0.895202	0.936364	0.986441
	H344	H	0.886906	0.909173	1.015068
	O345	O	1.032495	0.968360	0.039965
	H346	H	1.043656	0.980877	0.040464
	H347	H	1.028563	0.959443	0.047779
	O348	O	0.542624	0.485700	0.490807
	H349	H	0.561225	0.487424	0.493194
	H350	H	0.550282	0.477961	0.487826
	O351	O	0.467672	0.549432	0.430683
	H352	H	0.465768	0.541644	0.426094
	H353	H	0.468690	0.562160	0.433649
	O354	O	0.975994	0.184811	0.946628
	H355	H	0.982823	0.194722	0.949453
	H356	H	0.982493	0.194740	0.948022
	O357	O	1.069919	-0.035266	0.870262
	H358	H	1.054793	-0.043277	0.865869
	H359	H	1.075250	-0.040611	0.864197
	O360	O	0.892866	1.029531	0.024099
	H361	H	0.904815	1.039100	0.029196
	H362	H	0.896562	1.031447	0.015354
	O363	O	0.566234	0.525991	0.517204
	H364	H	0.568893	0.524898	0.524044
	H365	H	0.566627	0.529101	0.511204
	O366	O	0.522487	1.438475	0.529262
	H367	H	0.523526	1.426570	0.532785
	H368	H	0.508272	1.441104	0.524842
	O369	O	1.031591	0.152859	1.059618
	H370	H	1.040466	0.146449	1.068899
	H371	H	1.027515	0.153767	1.056965
	O372	O	0.036243	-0.064058	0.051107
	H373	H	0.052996	-0.057249	0.035830
	H374	H	0.018268	-0.076055	0.039841
	O375	O	1.001875	-0.044562	-0.065865
	H376	H	0.990912	-0.049509	-0.072784
	H377	H	1.003371	-0.046786	-0.078367
	O378	O	0.573474	0.520030	0.449164
	H379	H	0.568009	0.515661	0.444293
	H380	H	0.581981	0.516662	0.456093
	O381	O	0.401774	0.535547	0.436558
	H382	H	0.401687	0.537838	0.431489
	H383	H	0.397200	0.543641	0.436090
