data_Molecule from HDF5

_cell_length_a		16.329003
_cell_length_b		16.345163
_cell_length_c		16.220654
_cell_angle_alpha	89.926566
_cell_angle_beta	89.998267
_cell_angle_gamma	89.946058
_symmetry_space_group_name_H-M	'P 1'
_symmetry_Int_Tables_number		1

loop_
	_symmetry_equiv_pos_as_xyz
	x,y,z

loop_
	_atom_site_label
	_atom_site_type_symbol
	_atom_site_fract_x
	_atom_site_fract_y
	_atom_site_fract_z
	H0	H	0.409284	0.840314	0.716750
	H1	H	0.604020	0.167103	0.717859
	H2	H	0.604373	0.840953	0.289836
	H3	H	0.408429	0.167139	0.287989
	H4	H	0.718959	0.405612	0.838343
	H5	H	0.719757	0.600322	0.166782
	H6	H	0.289788	0.603286	0.837283
	H7	H	0.290415	0.404625	0.166408
	H8	H	0.842572	0.719577	0.403411
	H9	H	0.168655	0.718873	0.601875
	H10	H	0.841959	0.288298	0.601251
	H11	H	0.168608	0.289393	0.404757
	H12	H	0.841203	0.404761	0.717382
	H13	H	0.168959	0.600308	0.716738
	H14	H	0.841163	0.602183	0.289182
	H15	H	0.168582	0.406484	0.289350
	H16	H	0.406222	0.718853	0.838215
	H17	H	0.604323	0.717031	0.167075
	H18	H	0.603863	0.288886	0.839032
	H19	H	0.407358	0.289494	0.167052
	H20	H	0.720486	0.841452	0.405461
	H21	H	0.721487	0.166515	0.602885
	H22	H	0.290138	0.841810	0.603618
	H23	H	0.290166	0.167394	0.403207
	H24	H	0.907529	0.340468	0.217196
	H25	H	0.101831	0.668216	0.215490
	H26	H	0.102321	0.339811	0.789442
	H27	H	0.906880	0.666920	0.787910
	H28	H	0.220452	0.905711	0.338808
	H29	H	0.218551	0.101866	0.667392
	H30	H	0.790938	0.102387	0.339491
	H31	H	0.791177	0.904386	0.666623
	H32	H	0.342321	0.218761	0.903278
	H33	H	0.667730	0.218689	0.102769
	H34	H	0.342526	0.786895	0.103159
	H35	H	0.668822	0.788746	0.903385
	H36	H	0.342111	0.905062	0.219089
	H37	H	0.669416	0.098773	0.214619
	H38	H	0.342078	0.100420	0.788884
	H39	H	0.669028	0.905757	0.788514
	H40	H	0.906472	0.218032	0.339248
	H41	H	0.103748	0.218378	0.666874
	H42	H	0.104034	0.789839	0.338253
	H43	H	0.908010	0.789594	0.666715
	H44	H	0.219377	0.340280	0.904944
	H45	H	0.220799	0.666538	0.100152
	H46	H	0.790812	0.340277	0.101502
	H47	H	0.789493	0.666453	0.902502
	H48	H	0.403828	0.120744	0.589512
	H49	H	0.599210	0.887350	0.598602
	H50	H	0.594920	0.118154	0.414930
	H51	H	0.402762	0.887479	0.415044
	H52	H	0.590302	0.412724	0.116738
	H53	H	0.589358	0.602326	0.885978
	H54	H	0.415121	0.601519	0.118653
	H55	H	0.410657	0.415020	0.886610
	H56	H	0.121341	0.603201	0.414767
	H57	H	0.888827	0.602589	0.593812
	H58	H	0.123663	0.405752	0.602091
	H59	H	0.888540	0.405916	0.411425
	H60	H	0.120454	0.405834	0.588397
	H61	H	0.891935	0.593629	0.590779
	H62	H	0.118097	0.589790	0.412371
	H63	H	0.889780	0.412761	0.411825
	H64	H	0.405686	0.593110	0.119252
	H65	H	0.607081	0.599615	0.882429
	H66	H	0.599419	0.401019	0.122930
	H67	H	0.417673	0.409922	0.886716
	H68	H	0.606238	0.122019	0.411054
	H69	H	0.597919	0.888722	0.594937
	H70	H	0.409335	0.123524	0.606203
	H71	H	0.416500	0.886721	0.401266
	H72	H	0.917484	0.619336	0.100606
	H73	H	0.104386	0.383464	0.105399
	H74	H	0.098659	0.619748	0.907849
	H75	H	0.917414	0.386262	0.899627
	H76	H	0.099905	0.902805	0.622198
	H77	H	0.105223	0.093220	0.385102
	H78	H	0.912355	0.102771	0.622389
	H79	H	0.912464	0.914273	0.386559
	H80	H	0.622255	0.096157	0.907985
	H81	H	0.386530	0.102222	0.099237
	H82	H	0.619000	0.914380	0.092359
	H83	H	0.392710	0.918471	0.912159
	H84	H	0.622899	0.910012	0.103350
	H85	H	0.390582	0.096687	0.089245
	H86	H	0.622369	0.100474	0.912076
	H87	H	0.385975	0.907686	0.901667
	H88	H	0.907796	0.091371	0.620325
	H89	H	0.092418	0.092585	0.389369
	H90	H	0.104850	0.914932	0.619528
	H91	H	0.914609	0.908759	0.385433
	H92	H	0.096888	0.619326	0.909996
	H93	H	0.087077	0.390834	0.097390
	H94	H	0.913008	0.617093	0.087998
	H95	H	0.916569	0.392732	0.919317
	H96	H	0.420693	0.116975	0.593719
	H97	H	0.601731	0.887980	0.594782
	H98	H	0.596635	0.122337	0.402883
	H99	H	0.420947	0.893222	0.419022
	H100	H	0.605623	0.415502	0.120384
	H101	H	0.596280	0.585477	0.889043
	H102	H	0.417758	0.589311	0.114786
	H103	H	0.410219	0.406494	0.884217
	H104	H	0.124011	0.597558	0.401876
	H105	H	0.888540	0.594463	0.599475
	H106	H	0.118781	0.417678	0.596004
	H107	H	0.887911	0.410057	0.405619
	H108	H	0.904477	0.622068	0.096761
	H109	H	0.104059	0.389725	0.085873
	H110	H	0.099493	0.619771	0.910686
	H111	H	0.900498	0.384336	0.910251
	H112	H	0.091894	0.912718	0.616931
	H113	H	0.097219	0.103996	0.383643
	H114	H	0.919621	0.093559	0.617653
	H115	H	0.908266	0.909637	0.384161
	H116	H	0.620116	0.094725	0.913527
	H117	H	0.389602	0.090585	0.099295
	H118	H	0.622241	0.902080	0.093709
	H119	H	0.389541	0.903497	0.917587
	C120	C	0.383688	0.012484	0.625121
	C121	C	0.627802	0.995859	0.624910
	C122	C	0.627612	0.012735	0.381989
	C123	C	0.384439	0.996505	0.381980
	C124	C	0.626807	0.381443	0.011538
	C125	C	0.626439	0.623983	0.994404
	C126	C	0.383521	0.624642	0.009614
	C127	C	0.384143	0.382039	0.994184
	C128	C	0.013255	0.625480	0.381171
	C129	C	0.997410	0.625248	0.624002
	C130	C	0.012985	0.381666	0.624259
	C131	C	0.996754	0.381526	0.381319
	C132	C	0.883836	0.511665	0.123623
	C133	C	0.126857	0.495743	0.124184
	C134	C	0.126497	0.511456	0.881263
	C135	C	0.882914	0.495561	0.880633
	C136	C	0.127380	0.882012	0.511110
	C137	C	0.126646	0.125074	0.494531
	C138	C	0.884450	0.124876	0.511840
	C139	C	0.884110	0.882604	0.494311
	C140	C	0.513747	0.125239	0.882071
	C141	C	0.496738	0.124622	0.124204
	C142	C	0.513449	0.880467	0.125498
	C143	C	0.497441	0.881661	0.881595
	C144	C	0.388183	0.889403	0.679376
	C145	C	0.624863	0.118582	0.679705
	C146	C	0.624778	0.889777	0.327546
	C147	C	0.386894	0.118797	0.325948
	C148	C	0.681523	0.384735	0.887671
	C149	C	0.681675	0.621311	0.118037
	C150	C	0.327894	0.623008	0.886454
	C151	C	0.328520	0.384206	0.117727
	C152	C	0.890790	0.681208	0.383241
	C153	C	0.119883	0.680838	0.622078
	C154	C	0.890358	0.326622	0.621937
	C155	C	0.119669	0.327051	0.383959
	C156	C	0.890039	0.384651	0.679369
	C157	C	0.120110	0.621883	0.679003
	C158	C	0.890316	0.622643	0.326635
	C159	C	0.119793	0.385279	0.326723
	C160	C	0.385644	0.680651	0.886686
	C161	C	0.624278	0.678938	0.118143
	C162	C	0.624064	0.326936	0.887878
	C163	C	0.386618	0.327089	0.118052
	C164	C	0.682477	0.889957	0.385123
	C165	C	0.682958	0.118247	0.622541
	C166	C	0.328953	0.889953	0.623152
	C167	C	0.328188	0.118649	0.382930
	C168	C	0.886725	0.389040	0.179167
	C169	C	0.123321	0.619071	0.178288
	C170	C	0.123505	0.388715	0.826689
	C171	C	0.886200	0.618315	0.825882
	C172	C	0.183106	0.884528	0.387881
	C173	C	0.180877	0.122189	0.618500
	C174	C	0.828949	0.122712	0.388298
	C175	C	0.829523	0.884687	0.617799
	C176	C	0.390907	0.180485	0.883504
	C177	C	0.619585	0.179807	0.122207
	C178	C	0.391030	0.825394	0.123486
	C179	C	0.620116	0.826608	0.883528
	C180	C	0.390941	0.883906	0.181153
	C181	C	0.620204	0.120708	0.178289
	C182	C	0.390788	0.121647	0.826753
	C183	C	0.620291	0.884929	0.826517
	C184	C	0.886420	0.180103	0.388216
	C185	C	0.124014	0.180125	0.618162
	C186	C	0.124913	0.827447	0.387439
	C187	C	0.887133	0.827317	0.617739
	C188	C	0.181776	0.388979	0.883766
	C189	C	0.182312	0.618346	0.121077
	C190	C	0.828913	0.388846	0.121626
	C191	C	0.827724	0.618061	0.882706
	C192	C	0.405062	0.098363	0.603082
	C193	C	0.606017	0.910112	0.602766
	C194	C	0.605711	0.098821	0.403393
	C195	C	0.406778	0.911237	0.405032
	C196	C	0.604928	0.403251	0.097776
	C197	C	0.604172	0.602236	0.908173
	C198	C	0.406246	0.601412	0.095405
	C199	C	0.406247	0.404091	0.908145
	C200	C	0.099000	0.603555	0.403182
	C201	C	0.911829	0.603381	0.601372
	C202	C	0.098793	0.403362	0.602120
	C203	C	0.910750	0.403181	0.403160
	C204	C	0.905207	0.597174	0.101477
	C205	C	0.104994	0.410196	0.102577
	C206	C	0.104741	0.597423	0.903231
	C207	C	0.904956	0.409917	0.903120
	C208	C	0.105383	0.903689	0.597346
	C209	C	0.104742	0.103084	0.408544
	C210	C	0.906823	0.102574	0.597874
	C211	C	0.905554	0.904406	0.407727
	C212	C	0.599410	0.103418	0.904379
	C213	C	0.411019	0.102960	0.102182
	C214	C	0.599320	0.902309	0.102844
	C215	C	0.411421	0.903397	0.904050
	Zn216	Zn	0.506273	0.003721	0.753384
	Zn217	Zn	0.506059	0.003684	0.253226
	Zn218	Zn	0.754667	0.503499	0.002218
	Zn219	Zn	0.255661	0.503223	0.001986
	Zn220	Zn	0.005245	0.754293	0.502389
	Zn221	Zn	0.005036	0.252919	0.503061
	Zn222	Zn	0.004951	0.503389	0.752660
	Zn223	Zn	0.004583	0.503738	0.252977
	Zn224	Zn	0.505382	0.752340	0.002524
	Zn225	Zn	0.504922	0.253798	0.003168
	Zn226	Zn	0.756331	0.004180	0.503502
	Zn227	Zn	0.255288	0.004235	0.503421
	N228	N	0.421417	0.966817	0.680818
	N229	N	0.591467	0.041440	0.681460
	N230	N	0.591232	0.966972	0.325578
	N231	N	0.420969	0.041973	0.325233
	N232	N	0.683291	0.418040	0.965561
	N233	N	0.682948	0.587844	0.040367
	N234	N	0.326809	0.588729	0.964014
	N235	N	0.327084	0.417777	0.039873
	N236	N	0.968227	0.683023	0.416726
	N237	N	0.042466	0.682866	0.588425
	N238	N	0.967801	0.324615	0.588434
	N239	N	0.042032	0.324576	0.417075
	N240	N	0.967313	0.418361	0.680754
	N241	N	0.043011	0.588297	0.680412
	N242	N	0.967459	0.588671	0.325441
	N243	N	0.042447	0.418593	0.325080
	N244	N	0.419504	0.681883	0.964397
	N245	N	0.590656	0.680788	0.040143
	N246	N	0.590914	0.324765	0.965754
	N247	N	0.420256	0.325541	0.040222
	N248	N	0.684273	0.967397	0.418256
	N249	N	0.684871	0.040820	0.589284
	N250	N	0.326091	0.967330	0.590122
	N251	N	0.326725	0.041508	0.417391
	N252	N	0.920113	0.466244	0.180451
	N253	N	0.089691	0.541893	0.180334
	N254	N	0.089898	0.465894	0.825040
	N255	N	0.919683	0.541084	0.824379
	N256	N	0.184711	0.917761	0.465835
	N257	N	0.182604	0.088512	0.540874
	N258	N	0.827433	0.089191	0.466181
	N259	N	0.827537	0.918240	0.540246
	N260	N	0.468268	0.182700	0.917073
	N261	N	0.541948	0.182270	0.089178
	N262	N	0.468315	0.823198	0.089750
	N263	N	0.542504	0.824526	0.917051
	N264	N	0.468226	0.917431	0.182326
	N265	N	0.542971	0.087021	0.179566
	N266	N	0.468133	0.088042	0.825624
	N267	N	0.543026	0.918437	0.825266
	N268	N	0.920304	0.181310	0.465942
	N269	N	0.091029	0.182060	0.540106
	N270	N	0.090985	0.825786	0.464988
	N271	N	0.920604	0.826218	0.539815
	N272	N	0.183750	0.466420	0.916811
	N273	N	0.184692	0.540781	0.088281
	N274	N	0.826849	0.466007	0.087677
	N275	N	0.825590	0.540525	0.916019
	O276	O	0.395529	-0.383460	0.410678
	H277	H	0.412241	-0.404020	0.412829
	H278	H	0.387652	-0.388133	0.402394
	O279	O	0.414284	0.638570	0.439053
	H280	H	0.417007	0.638377	0.428025
	H281	H	0.389746	0.653066	0.446039
	O282	O	0.443540	0.546219	0.416831
	H283	H	0.450920	0.539254	0.415927
	H284	H	0.445453	0.551696	0.422835
	O285	O	0.443942	0.608306	0.442591
	H286	H	0.438281	0.632265	0.441078
	H287	H	0.441531	0.614619	0.439612
