data_Molecule from HDF5

_cell_length_a		16.285340
_cell_length_b		16.152287
_cell_length_c		16.314736
_cell_angle_alpha	90.161237
_cell_angle_beta	89.687771
_cell_angle_gamma	89.845105
_symmetry_space_group_name_H-M	'P 1'
_symmetry_Int_Tables_number		1

loop_
	_symmetry_equiv_pos_as_xyz
	x,y,z

loop_
	_atom_site_label
	_atom_site_type_symbol
	_atom_site_fract_x
	_atom_site_fract_y
	_atom_site_fract_z
	H0	H	0.403789	0.840798	0.704155
	H1	H	0.604359	0.168539	0.703643
	H2	H	0.605353	0.840362	0.273958
	H3	H	0.408225	0.169288	0.274668
	H4	H	0.724349	0.403446	0.827265
	H5	H	0.718267	0.603022	0.153435
	H6	H	0.291297	0.604252	0.826885
	H7	H	0.290134	0.405810	0.153062
	H8	H	0.841110	0.717394	0.394632
	H9	H	0.169845	0.719646	0.586207
	H10	H	0.841386	0.293769	0.588433
	H11	H	0.169377	0.290879	0.389934
	H12	H	0.843713	0.406262	0.707782
	H13	H	0.169235	0.607482	0.705561
	H14	H	0.843155	0.606073	0.275988
	H15	H	0.168564	0.404672	0.272053
	H16	H	0.410024	0.717722	0.825775
	H17	H	0.602179	0.718288	0.153222
	H18	H	0.607560	0.289780	0.825539
	H19	H	0.408706	0.291008	0.153733
	H20	H	0.721931	0.841097	0.386595
	H21	H	0.717878	0.169811	0.587838
	H22	H	0.289856	0.841028	0.587373
	H23	H	0.292163	0.170642	0.390494
	H24	H	0.906010	0.341663	0.206258
	H25	H	0.102537	0.670973	0.202353
	H26	H	0.109366	0.341772	0.771800
	H27	H	0.906373	0.669782	0.776007
	H28	H	0.221241	0.904937	0.325316
	H29	H	0.222751	0.109901	0.649971
	H30	H	0.791229	0.104532	0.325248
	H31	H	0.787809	0.905746	0.651245
	H32	H	0.343200	0.219267	0.893058
	H33	H	0.671372	0.216924	0.084751
	H34	H	0.342445	0.792420	0.085803
	H35	H	0.670590	0.789686	0.889422
	H36	H	0.343642	0.904125	0.205002
	H37	H	0.669993	0.104202	0.204687
	H38	H	0.343808	0.106688	0.773381
	H39	H	0.669336	0.901616	0.769896
	H40	H	0.906337	0.221559	0.325992
	H41	H	0.101622	0.219642	0.652637
	H42	H	0.104389	0.790455	0.325282
	H43	H	0.906095	0.791805	0.652919
	H44	H	0.221654	0.339941	0.889405
	H45	H	0.220612	0.669483	0.089819
	H46	H	0.792579	0.340205	0.089612
	H47	H	0.791001	0.669359	0.892064
	H48	H	0.415544	0.120182	0.576179
	H49	H	0.596200	0.887133	0.582635
	H50	H	0.591944	0.119919	0.397342
	H51	H	0.412576	0.887794	0.398003
	H52	H	0.590787	0.414379	0.102604
	H53	H	0.605597	0.586074	0.874487
	H54	H	0.413439	0.602614	0.107258
	H55	H	0.413036	0.413029	0.873712
	H56	H	0.124584	0.594991	0.385130
	H57	H	0.892144	0.603303	0.572589
	H58	H	0.125035	0.413500	0.589704
	H59	H	0.887500	0.413275	0.391545
	H60	H	0.122279	0.406534	0.576830
	H61	H	0.892764	0.585319	0.586865
	H62	H	0.125283	0.608146	0.397805
	H63	H	0.889915	0.409343	0.402705
	H64	H	0.408105	0.595804	0.107177
	H65	H	0.590503	0.596866	0.876128
	H66	H	0.600816	0.400947	0.108973
	H67	H	0.415069	0.412274	0.874249
	H68	H	0.602614	0.122625	0.400485
	H69	H	0.593805	0.888640	0.576170
	H70	H	0.407269	0.123428	0.582123
	H71	H	0.410721	0.886412	0.395240
	H72	H	0.909965	0.622645	0.082883
	H73	H	0.093553	0.388358	0.085768
	H74	H	0.095889	0.622589	0.892820
	H75	H	0.920857	0.386927	0.891053
	H76	H	0.107887	0.915554	0.607387
	H77	H	0.099394	0.099797	0.371348
	H78	H	0.915777	0.109377	0.606608
	H79	H	0.907079	0.914920	0.371378
	H80	H	0.624660	0.103525	0.896130
	H81	H	0.388325	0.107272	0.080481
	H82	H	0.626112	0.908092	0.086821
	H83	H	0.388056	0.906990	0.894755
	H84	H	0.621938	0.908820	0.076127
	H85	H	0.395157	0.090178	0.075256
	H86	H	0.620445	0.089691	0.899861
	H87	H	0.392552	0.913604	0.900711
	H88	H	0.898044	0.098542	0.608652
	H89	H	0.099374	0.096524	0.372465
	H90	H	0.092013	0.922992	0.599879
	H91	H	0.916780	0.916562	0.375895
	H92	H	0.094560	0.618993	0.902533
	H93	H	0.096224	0.389498	0.075798
	H94	H	0.910694	0.624928	0.085761
	H95	H	0.918306	0.391140	0.904854
	H96	H	0.417129	0.122054	0.585596
	H97	H	0.600376	0.886941	0.577923
	H98	H	0.598460	0.124709	0.389604
	H99	H	0.414366	0.887627	0.394507
	H100	H	0.607695	0.418060	0.106640
	H101	H	0.605822	0.604640	0.868818
	H102	H	0.415970	0.594938	0.103433
	H103	H	0.413837	0.411047	0.873245
	H104	H	0.119540	0.591335	0.402003
	H105	H	0.884194	0.605484	0.594858
	H106	H	0.118916	0.420964	0.578052
	H107	H	0.891859	0.420889	0.399294
	H108	H	0.912832	0.622836	0.083714
	H109	H	0.103397	0.385208	0.082556
	H110	H	0.105217	0.624213	0.900211
	H111	H	0.907611	0.385250	0.896963
	H112	H	0.092470	0.905121	0.605476
	H113	H	0.096590	0.097892	0.373096
	H114	H	0.915378	0.089008	0.600742
	H115	H	0.913880	0.907015	0.371192
	H116	H	0.624376	0.092425	0.886180
	H117	H	0.389157	0.092645	0.092171
	H118	H	0.621833	0.918028	0.082035
	H119	H	0.390782	0.916036	0.892131
	C120	C	0.383544	0.013467	0.610391
	C121	C	0.625677	0.996137	0.608693
	C122	C	0.626973	0.013518	0.367129
	C123	C	0.384417	0.996407	0.367390
	C124	C	0.629455	0.381688	-0.001670
	C125	C	0.627925	0.625611	0.981186
	C126	C	0.384027	0.626674	-0.001907
	C127	C	0.384970	0.382886	0.981758
	C128	C	0.014518	0.626830	0.367983
	C129	C	0.997570	0.627735	0.612480
	C130	C	0.014516	0.384807	0.611104
	C131	C	0.997507	0.384502	0.367756
	C132	C	0.883517	0.514161	0.112237
	C133	C	0.126466	0.496644	0.110592
	C134	C	0.128069	0.513434	0.868580
	C135	C	0.886261	0.496805	0.869535
	C136	C	0.126673	0.884379	0.496717
	C137	C	0.126953	0.127644	0.480046
	C138	C	0.882046	0.128074	0.497539
	C139	C	0.883249	0.884073	0.480602
	C140	C	0.515251	0.125182	0.867020
	C141	C	0.498771	0.125446	0.110770
	C142	C	0.515450	0.882862	0.110451
	C143	C	0.498246	0.882481	0.866264
	C144	C	0.384270	0.890056	0.666075
	C145	C	0.624210	0.119585	0.665324
	C146	C	0.625659	0.889486	0.311623
	C147	C	0.387478	0.120503	0.312477
	C148	C	0.685405	0.383601	0.875648
	C149	C	0.681213	0.623732	0.104573
	C150	C	0.329123	0.624531	0.875494
	C151	C	0.328910	0.385313	0.104407
	C152	C	0.890775	0.681061	0.372640
	C153	C	0.120857	0.682668	0.608033
	C154	C	0.890758	0.330406	0.609312
	C155	C	0.120506	0.328487	0.369438
	C156	C	0.891903	0.386557	0.668368
	C157	C	0.120797	0.626667	0.667027
	C158	C	0.891624	0.625527	0.313744
	C159	C	0.120192	0.385443	0.311137
	C160	C	0.388314	0.680825	0.874848
	C161	C	0.623969	0.681342	0.104204
	C162	C	0.627360	0.327011	0.874851
	C163	C	0.387811	0.328300	0.104814
	C164	C	0.683227	0.889894	0.368028
	C165	C	0.680675	0.120253	0.607707
	C166	C	0.327745	0.890133	0.607764
	C167	C	0.329827	0.120975	0.370124
	C168	C	0.886061	0.390552	0.167870
	C169	C	0.123577	0.621220	0.165249
	C170	C	0.128022	0.390370	0.811024
	C171	C	0.886855	0.620632	0.814233
	C172	C	0.182721	0.885632	0.374064
	C173	C	0.183380	0.128071	0.601933
	C174	C	0.828014	0.125790	0.374562
	C175	C	0.826626	0.885785	0.602966
	C176	C	0.392322	0.181970	0.871049
	C177	C	0.622316	0.179746	0.106718
	C178	C	0.391780	0.828955	0.107042
	C179	C	0.621418	0.827037	0.868254
	C180	C	0.392289	0.884329	0.166479
	C181	C	0.621563	0.123788	0.166070
	C182	C	0.392508	0.125735	0.811892
	C183	C	0.620704	0.882795	0.808875
	C184	C	0.885540	0.183646	0.374903
	C185	C	0.123479	0.183168	0.603130
	C186	C	0.124480	0.828546	0.373873
	C187	C	0.885365	0.829129	0.603693
	C188	C	0.184072	0.389589	0.869304
	C189	C	0.182030	0.620552	0.109190
	C190	C	0.829618	0.389735	0.109973
	C191	C	0.829450	0.620384	0.871813
	C192	C	0.406713	0.099645	0.588124
	C193	C	0.603362	0.909814	0.585673
	C194	C	0.604215	0.100076	0.389360
	C195	C	0.406175	0.909724	0.389382
	C196	C	0.606551	0.404315	0.084048
	C197	C	0.606941	0.602590	0.895416
	C198	C	0.405829	0.604275	0.083928
	C199	C	0.407443	0.405303	0.896045
	C200	C	0.100885	0.604534	0.388802
	C201	C	0.911855	0.604887	0.591229
	C202	C	0.099852	0.406959	0.588161
	C203	C	0.911840	0.407785	0.390937
	C204	C	0.904712	0.601043	0.090534
	C205	C	0.104277	0.410086	0.088074
	C206	C	0.105108	0.599667	0.891658
	C207	C	0.908788	0.410290	0.891324
	C208	C	0.104021	0.907670	0.582235
	C209	C	0.104878	0.104927	0.394477
	C210	C	0.903323	0.105681	0.583076
	C211	C	0.906004	0.906272	0.394931
	C212	C	0.600956	0.101992	0.887896
	C213	C	0.413028	0.103210	0.089125
	C214	C	0.601079	0.905198	0.088251
	C215	C	0.412654	0.905619	0.889048
	Zn216	Zn	0.506042	0.003776	0.737618
	Zn217	Zn	0.506537	0.003954	0.239376
	Zn218	Zn	0.756731	0.504279	-0.009477
	Zn219	Zn	0.255470	0.504866	-0.010144
	Zn220	Zn	0.005701	0.755039	0.489495
	Zn221	Zn	0.005235	0.256153	0.489415
	Zn222	Zn	0.007420	0.505783	0.740546
	Zn223	Zn	0.005731	0.506002	0.239129
	Zn224	Zn	0.506820	0.754731	-0.010966
	Zn225	Zn	0.507475	0.254161	-0.010814
	Zn226	Zn	0.754087	0.005284	0.488087
	Zn227	Zn	0.255659	0.005811	0.488280
	N228	N	0.418427	0.967824	0.667664
	N229	N	0.590586	0.041557	0.665849
	N230	N	0.591356	0.967319	0.311050
	N231	N	0.420810	0.042197	0.310759
	N232	N	0.686994	0.416841	0.953429
	N233	N	0.683940	0.589751	0.027196
	N234	N	0.326521	0.591520	0.953113
	N235	N	0.326937	0.418371	0.026792
	N236	N	0.968189	0.682111	0.405570
	N237	N	0.043436	0.683465	0.574844
	N238	N	0.967879	0.328925	0.574528
	N239	N	0.043136	0.327794	0.404072
	N240	N	0.969753	0.419464	0.669794
	N241	N	0.043145	0.593159	0.669951
	N242	N	0.969710	0.592533	0.310650
	N243	N	0.042702	0.419531	0.310067
	N244	N	0.421604	0.682423	0.952142
	N245	N	0.591425	0.682553	0.026514
	N246	N	0.593208	0.325730	0.952216
	N247	N	0.422279	0.327100	0.027597
	N248	N	0.683980	0.968115	0.401768
	N249	N	0.681822	0.042452	0.573075
	N250	N	0.326889	0.968152	0.574146
	N251	N	0.327841	0.042831	0.403444
	N252	N	0.918708	0.468951	0.169542
	N253	N	0.089650	0.543318	0.166171
	N254	N	0.094093	0.468563	0.810384
	N255	N	0.921460	0.542938	0.812597
	N256	N	0.184411	0.919510	0.451604
	N257	N	0.185752	0.094422	0.524402
	N258	N	0.825724	0.091984	0.451876
	N259	N	0.824946	0.918891	0.525376
	N260	N	0.469515	0.181685	0.904714
	N261	N	0.545052	0.180918	0.073133
	N262	N	0.469235	0.828024	0.072905
	N263	N	0.544424	0.826609	0.903171
	N264	N	0.469951	0.917567	0.168628
	N265	N	0.543707	0.090840	0.168740
	N266	N	0.469922	0.091391	0.809018
	N267	N	0.543017	0.916682	0.807586
	N268	N	0.918460	0.185212	0.452309
	N269	N	0.088838	0.182882	0.526342
	N270	N	0.090008	0.827925	0.451066
	N271	N	0.920136	0.828025	0.526597
	N272	N	0.184141	0.467053	0.904534
	N273	N	0.183915	0.542177	0.075775
	N274	N	0.827876	0.467668	0.076042
	N275	N	0.829005	0.542367	0.905509
	O276	O	1.133087	0.990594	-0.100637
	H277	H	1.132222	0.994875	-0.107242
	H278	H	1.138583	0.981664	-0.100450
	O279	O	0.046910	-0.009854	0.951201
	H280	H	0.041943	-0.002290	0.941141
	H281	H	0.048669	-0.020324	0.946229
	O282	O	-0.056667	0.044339	0.082579
	H283	H	-0.054668	0.042104	0.079668
	H284	H	-0.045973	0.042758	0.087332
	O285	O	0.550884	0.441616	0.428948
	H286	H	0.544686	0.441140	0.431021
	H287	H	0.551824	0.449159	0.427384
	O288	O	0.134791	-0.043068	-0.108976
	H289	H	0.133444	-0.046750	-0.112356
	H290	H	0.141823	-0.055762	-0.108807
	O291	O	0.046596	1.041586	-0.029974
	H292	H	0.041603	1.048124	-0.028031
	H293	H	0.058167	1.031442	-0.042710
	O294	O	0.028831	0.966681	0.010073
	H295	H	0.034692	0.968670	0.015770
	H296	H	0.030937	0.976064	0.015391
	O297	O	0.540287	0.535419	0.495188
	H298	H	0.550665	0.535688	0.498823
	H299	H	0.538611	0.535901	0.494891
	O300	O	0.506211	0.419137	0.505941
	H301	H	0.504739	0.415472	0.498269
	H302	H	0.509694	0.428345	0.510742
	O303	O	1.039728	0.010700	0.933380
	H304	H	1.038277	0.020073	0.933972
	H305	H	1.045136	0.008141	0.932036
	O306	O	-0.105816	1.034133	0.931570
	H307	H	-0.112216	1.033940	0.939928
	H308	H	-0.114289	1.036817	0.933719
	O309	O	-0.486910	0.516351	1.503086
	H310	H	-0.486572	0.523748	1.504302
	H311	H	-0.493768	0.514031	1.505485
	O312	O	0.005822	-0.008961	0.907509
	H313	H	-0.002618	-0.013019	0.911005
	H314	H	-0.003159	-0.008681	0.907743
	O315	O	0.551203	0.474925	0.570390
	H316	H	0.556680	0.464892	0.569443
	H317	H	0.555477	0.467061	0.572380
	O318	O	0.061855	0.006794	0.990056
	H319	H	0.069748	0.006427	0.984279
	H320	H	0.057282	0.011248	0.998173
	O321	O	1.036250	0.996070	1.027140
	H322	H	1.039549	0.998664	1.019681
	H323	H	1.040540	0.995522	1.026627
	O324	O	0.025973	-0.936484	1.028498
	H325	H	0.031262	-0.931902	1.026391
	H326	H	0.029399	-0.931247	1.032502
	O327	O	0.975113	0.983187	0.892991
	H328	H	0.968609	0.978362	0.897764
	H329	H	0.960001	0.990411	0.894286
	O330	O	0.458080	0.480781	0.615536
	H331	H	0.468764	0.479401	0.617562
	H332	H	0.455902	0.475224	0.626369
	O333	O	0.487492	0.550813	0.495430
	H334	H	0.482056	0.550707	0.491458
	H335	H	0.488111	0.548369	0.491253
	O336	O	0.485966	0.491668	0.494630
	H337	H	0.483357	0.494510	0.503589
	H338	H	0.476538	0.487846	0.493246
	O339	O	0.530891	0.525373	0.553303
	H340	H	0.535060	0.532533	0.560218
	H341	H	0.537720	0.516534	0.554169
	O342	O	0.559189	0.436451	0.483403
	H343	H	0.555276	0.432129	0.481819
	H344	H	0.557212	0.434470	0.478602
	O345	O	0.563830	0.443859	0.566759
	H346	H	0.579598	0.436809	0.565219
	H347	H	0.553836	0.443439	0.552635
