data_Molecule from HDF5

_cell_length_a		16.164331
_cell_length_b		16.168331
_cell_length_c		16.358181
_cell_angle_alpha	89.337480
_cell_angle_beta	90.585456
_cell_angle_gamma	89.722655
_symmetry_space_group_name_H-M	'P 1'
_symmetry_Int_Tables_number		1

loop_
	_symmetry_equiv_pos_as_xyz
	x,y,z

loop_
	_atom_site_label
	_atom_site_type_symbol
	_atom_site_fract_x
	_atom_site_fract_y
	_atom_site_fract_z
	H0	H	0.403272	0.839087	0.711032
	H1	H	0.605850	0.166898	0.709156
	H2	H	0.603632	0.838146	0.282883
	H3	H	0.400018	0.165156	0.273545
	H4	H	0.715190	0.403811	0.829712
	H5	H	0.719461	0.598487	0.155615
	H6	H	0.285824	0.602503	0.829987
	H7	H	0.288615	0.401250	0.157217
	H8	H	0.839163	0.721534	0.389613
	H9	H	0.170100	0.711524	0.588419
	H10	H	0.837807	0.289040	0.590607
	H11	H	0.168725	0.290627	0.399051
	H12	H	0.838441	0.401137	0.707690
	H13	H	0.166262	0.601463	0.709451
	H14	H	0.839540	0.608663	0.271478
	H15	H	0.168737	0.405219	0.280717
	H16	H	0.398774	0.721497	0.831522
	H17	H	0.600686	0.711850	0.158172
	H18	H	0.599025	0.288542	0.830463
	H19	H	0.406506	0.285446	0.157241
	H20	H	0.717597	0.839436	0.398814
	H21	H	0.717257	0.167858	0.591343
	H22	H	0.292451	0.836946	0.590742
	H23	H	0.289675	0.168027	0.392209
	H24	H	0.902673	0.340033	0.210604
	H25	H	0.104833	0.667636	0.205777
	H26	H	0.100918	0.338086	0.781542
	H27	H	0.897850	0.666491	0.772202
	H28	H	0.216323	0.907239	0.328430
	H29	H	0.219452	0.098976	0.655102
	H30	H	0.783605	0.106576	0.331038
	H31	H	0.791330	0.901640	0.656842
	H32	H	0.336503	0.216515	0.893101
	H33	H	0.667626	0.212256	0.091082
	H34	H	0.335854	0.790808	0.089511
	H35	H	0.667112	0.788039	0.901428
	H36	H	0.337912	0.901963	0.208934
	H37	H	0.666605	0.099687	0.209526
	H38	H	0.339162	0.105322	0.773803
	H39	H	0.668538	0.901845	0.782430
	H40	H	0.900939	0.221954	0.330721
	H41	H	0.102623	0.213811	0.656920
	H42	H	0.102354	0.790026	0.328582
	H43	H	0.907203	0.784142	0.654704
	H44	H	0.214123	0.337467	0.899159
	H45	H	0.216849	0.666803	0.090145
	H46	H	0.793663	0.336037	0.089661
	H47	H	0.783809	0.666771	0.889840
	H48	H	0.412607	0.122323	0.592142
	H49	H	0.593293	0.885942	0.592815
	H50	H	0.585576	0.119576	0.398167
	H51	H	0.413466	0.881766	0.389126
	H52	H	0.601337	0.406190	0.110577
	H53	H	0.589146	0.596531	0.878124
	H54	H	0.404856	0.598943	0.112718
	H55	H	0.401942	0.410274	0.876404
	H56	H	0.116486	0.585744	0.401949
	H57	H	0.886527	0.594319	0.580246
	H58	H	0.122739	0.404396	0.592482
	H59	H	0.885520	0.410319	0.398100
	H60	H	0.119093	0.407985	0.583361
	H61	H	0.885752	0.593768	0.582759
	H62	H	0.124685	0.595938	0.386935
	H63	H	0.887335	0.415026	0.401993
	H64	H	0.406259	0.589448	0.109102
	H65	H	0.592587	0.597835	0.876673
	H66	H	0.596918	0.407833	0.108635
	H67	H	0.408628	0.414591	0.880090
	H68	H	0.594163	0.119511	0.405292
	H69	H	0.594672	0.887657	0.584105
	H70	H	0.418836	0.116661	0.578882
	H71	H	0.417756	0.889151	0.408886
	H72	H	0.908072	0.620413	0.079477
	H73	H	0.099192	0.380593	0.099859
	H74	H	0.091778	0.622305	0.892271
	H75	H	0.906800	0.387500	0.907917
	H76	H	0.085905	0.904457	0.605474
	H77	H	0.087015	0.100924	0.378573
	H78	H	0.920935	0.097706	0.606812
	H79	H	0.909014	0.912351	0.377095
	H80	H	0.623333	0.097309	0.893078
	H81	H	0.383274	0.099761	0.082559
	H82	H	0.619826	0.911784	0.094040
	H83	H	0.385591	0.911544	0.902507
	H84	H	0.621699	0.901710	0.092765
	H85	H	0.387692	0.089466	0.080217
	H86	H	0.619383	0.100993	0.908066
	H87	H	0.386899	0.916637	0.898487
	H88	H	0.905146	0.102431	0.613019
	H89	H	0.101100	0.105325	0.372553
	H90	H	0.107539	0.895987	0.613879
	H91	H	0.907763	0.916295	0.377503
	H92	H	0.087139	0.618065	0.901364
	H93	H	0.081829	0.388964	0.086643
	H94	H	0.910317	0.620892	0.083594
	H95	H	0.902763	0.380224	0.892688
	H96	H	0.403473	0.120952	0.579543
	H97	H	0.601352	0.884597	0.588885
	H98	H	0.596285	0.122793	0.395218
	H99	H	0.398325	0.882144	0.404101
	H100	H	0.596434	0.402752	0.110343
	H101	H	0.592375	0.593389	0.878484
	H102	H	0.414352	0.596542	0.108807
	H103	H	0.409679	0.407073	0.877279
	H104	H	0.121516	0.605003	0.404744
	H105	H	0.885600	0.595993	0.581596
	H106	H	0.119594	0.415482	0.592131
	H107	H	0.885863	0.416199	0.395694
	H108	H	0.912934	0.618658	0.080083
	H109	H	0.102009	0.385842	0.078282
	H110	H	0.097193	0.620601	0.901793
	H111	H	0.918786	0.387132	0.896306
	H112	H	0.104970	0.918966	0.606765
	H113	H	0.098491	0.091307	0.376768
	H114	H	0.907872	0.086496	0.608120
	H115	H	0.911515	0.915348	0.378935
	H116	H	0.617358	0.086129	0.901895
	H117	H	0.383581	0.091323	0.090571
	H118	H	0.617911	0.906501	0.084358
	H119	H	0.383737	0.911851	0.896840
	C120	C	0.382830	0.011022	0.613472
	C121	C	0.625720	0.994371	0.616312
	C122	C	0.622585	0.011979	0.373045
	C123	C	0.380740	0.993380	0.370675
	C124	C	0.624999	0.378772	0.001932
	C125	C	0.622284	0.623135	0.985321
	C126	C	0.378732	0.624987	0.002403
	C127	C	0.379466	0.380160	0.985570
	C128	C	0.012084	0.626396	0.367901
	C129	C	0.994846	0.622786	0.611672
	C130	C	0.011410	0.380695	0.615975
	C131	C	0.995350	0.384027	0.371973
	C132	C	0.881846	0.511285	0.112148
	C133	C	0.123828	0.494246	0.114647
	C134	C	0.121821	0.511550	0.871770
	C135	C	0.878984	0.493765	0.869022
	C136	C	0.126707	0.880413	0.500150
	C137	C	0.124800	0.125344	0.483787
	C138	C	0.880589	0.126067	0.501834
	C139	C	0.881968	0.882365	0.484928
	C140	C	0.511068	0.124558	0.870777
	C141	C	0.493747	0.121959	0.114056
	C142	C	0.510578	0.878996	0.117211
	C143	C	0.494354	0.882536	0.872822
	C144	C	0.384259	0.887785	0.671343
	C145	C	0.624844	0.117924	0.671103
	C146	C	0.622649	0.887608	0.319897
	C147	C	0.380862	0.116670	0.312727
	C148	C	0.677948	0.383025	0.878713
	C149	C	0.679693	0.618749	0.107757
	C150	C	0.322809	0.623645	0.879297
	C151	C	0.325987	0.381239	0.108512
	C152	C	0.888543	0.683708	0.369191
	C153	C	0.119817	0.675913	0.609672
	C154	C	0.887263	0.326138	0.611543
	C155	C	0.119361	0.328495	0.377332
	C156	C	0.887352	0.382084	0.669585
	C157	C	0.117928	0.621176	0.669973
	C158	C	0.888469	0.627323	0.310768
	C159	C	0.119194	0.385304	0.318191
	C160	C	0.379248	0.682472	0.879891
	C161	C	0.620676	0.675264	0.108702
	C162	C	0.620562	0.325318	0.879107
	C163	C	0.384640	0.323705	0.108502
	C164	C	0.679213	0.888099	0.377596
	C165	C	0.680483	0.118392	0.612792
	C166	C	0.328693	0.886799	0.611642
	C167	C	0.326204	0.118072	0.372054
	C168	C	0.883401	0.388333	0.170735
	C169	C	0.123182	0.618345	0.168058
	C170	C	0.120773	0.387372	0.818641
	C171	C	0.878835	0.617405	0.811470
	C172	C	0.179784	0.885648	0.377343
	C173	C	0.181314	0.120602	0.606596
	C174	C	0.822564	0.126134	0.379704
	C175	C	0.828611	0.882296	0.607611
	C176	C	0.386552	0.179833	0.872325
	C177	C	0.618246	0.175195	0.111695
	C178	C	0.385796	0.826118	0.112128
	C179	C	0.618248	0.825787	0.878611
	C180	C	0.386760	0.881745	0.171077
	C181	C	0.617469	0.119585	0.170880
	C182	C	0.387810	0.124372	0.812994
	C183	C	0.618756	0.882497	0.819647
	C184	C	0.880441	0.183793	0.379518
	C185	C	0.122881	0.177349	0.607546
	C186	C	0.122724	0.827529	0.377438
	C187	C	0.885780	0.823332	0.606437
	C188	C	0.177060	0.387115	0.876953
	C189	C	0.178882	0.618093	0.110423
	C190	C	0.829363	0.386326	0.110413
	C191	C	0.822184	0.617548	0.869795
	C192	C	0.405036	0.097582	0.590355
	C193	C	0.603236	0.908249	0.594888
	C194	C	0.598890	0.098206	0.393457
	C195	C	0.403364	0.906719	0.393970
	C196	C	0.604396	0.399497	0.087778
	C197	C	0.598442	0.602005	0.899840
	C198	C	0.401706	0.601743	0.087987
	C199	C	0.400537	0.403568	0.900091
	C200	C	0.098541	0.602582	0.391088
	C201	C	0.908446	0.601066	0.588283
	C202	C	0.098015	0.402776	0.595404
	C203	C	0.908572	0.407084	0.392641
	C204	C	0.903895	0.597506	0.088042
	C205	C	0.101016	0.407611	0.094236
	C206	C	0.098645	0.598028	0.892315
	C207	C	0.902462	0.407500	0.892192
	C208	C	0.105776	0.900530	0.586557
	C209	C	0.102156	0.105162	0.398233
	C210	C	0.904320	0.102362	0.587107
	C211	C	0.903323	0.907392	0.399652
	C212	C	0.597630	0.101536	0.894111
	C213	C	0.407074	0.100053	0.091159
	C214	C	0.597355	0.900272	0.096512
	C215	C	0.407756	0.906179	0.893344
	Zn216	Zn	0.504063	0.003362	0.742938
	Zn217	Zn	0.502215	0.001384	0.243675
	Zn218	Zn	0.752510	0.501910	-0.007645
	Zn219	Zn	0.250393	0.502584	-0.006288
	Zn220	Zn	0.004292	0.752209	0.491081
	Zn221	Zn	0.002715	0.254421	0.493816
	Zn222	Zn	0.001715	0.502727	0.742289
	Zn223	Zn	0.002740	0.504567	0.240852
	Zn224	Zn	0.501094	0.752732	-0.005307
	Zn225	Zn	0.502490	0.251025	-0.006841
	Zn226	Zn	0.751868	0.003902	0.493719
	Zn227	Zn	0.253779	0.002839	0.491872
	N228	N	0.416991	0.966262	0.672743
	N229	N	0.591434	0.039864	0.673461
	N230	N	0.588137	0.965695	0.316778
	N231	N	0.414192	0.038270	0.311923
	N232	N	0.680901	0.415564	0.956103
	N233	N	0.681088	0.587291	0.029878
	N234	N	0.322668	0.588396	0.956243
	N235	N	0.323015	0.415868	0.031292
	N236	N	0.966504	0.683283	0.403982
	N237	N	0.042146	0.677317	0.574218
	N238	N	0.965490	0.325226	0.578900
	N239	N	0.041237	0.327645	0.410009
	N240	N	0.965516	0.415378	0.672576
	N241	N	0.039278	0.588855	0.671300
	N242	N	0.966439	0.592847	0.309463
	N243	N	0.040976	0.419404	0.314952
	N244	N	0.413382	0.683476	0.957413
	N245	N	0.585685	0.678065	0.031643
	N246	N	0.588224	0.322756	0.956530
	N247	N	0.417107	0.322875	0.031012
	N248	N	0.679537	0.966267	0.409702
	N249	N	0.681327	0.040605	0.579576
	N250	N	0.327915	0.964459	0.576190
	N251	N	0.325791	0.040260	0.407309
	N252	N	0.915422	0.467009	0.171827
	N253	N	0.089381	0.540347	0.170679
	N254	N	0.087134	0.465669	0.815339
	N255	N	0.913023	0.539249	0.810427
	N256	N	0.181976	0.917965	0.454725
	N257	N	0.182707	0.088880	0.528971
	N258	N	0.822490	0.091124	0.456719
	N259	N	0.826066	0.918225	0.530815
	N260	N	0.464324	0.180123	0.907525
	N261	N	0.540383	0.176646	0.077023
	N262	N	0.463656	0.824719	0.079022
	N263	N	0.540010	0.825746	0.910851
	N264	N	0.465498	0.913599	0.174604
	N265	N	0.539046	0.086831	0.172145
	N266	N	0.466331	0.091071	0.811772
	N267	N	0.540669	0.917258	0.816110
	N268	N	0.915952	0.183785	0.456385
	N269	N	0.088227	0.180491	0.530287
	N270	N	0.090519	0.824195	0.455009
	N271	N	0.918235	0.823441	0.529107
	N272	N	0.177849	0.465194	0.909364
	N273	N	0.179577	0.539885	0.078077
	N274	N	0.828331	0.463816	0.074620
	N275	N	0.822120	0.539748	0.904879
	O276	O	0.033004	-0.017907	-0.068254
	H277	H	0.031407	-0.014275	-0.078665
	H278	H	0.041813	-0.011504	-0.071613
	O279	O	0.562661	0.481281	0.489197
	H280	H	0.556724	0.475991	0.487285
	H281	H	0.566799	0.484033	0.494815
	O282	O	0.621460	0.528812	0.526034
	H283	H	0.616556	0.522510	0.519868
	H284	H	0.619330	0.521074	0.528537
	O285	O	0.958260	0.039609	0.960293
	H286	H	0.947419	0.039951	0.966543
	H287	H	0.958473	0.039898	0.960689
	O288	O	1.072583	0.043680	-0.015666
	H289	H	1.074043	0.040819	-0.012070
	H290	H	1.065070	0.054246	-0.016854
	O291	O	0.506390	0.537146	0.538640
	H292	H	0.504675	0.534545	0.525576
	H293	H	0.498049	0.537632	0.541380
	O294	O	1.014552	-0.041630	1.064855
	H295	H	1.019867	-0.041057	1.061232
	H296	H	1.014000	-0.046779	1.062160
	O297	O	0.021106	-0.011689	0.030915
	H298	H	0.020017	-0.028412	0.036507
	H299	H	0.023086	-0.014460	0.032138
	O300	O	0.461212	0.555924	0.475435
	H301	H	0.472601	0.564023	0.476759
	H302	H	0.465116	0.545306	0.472909
	O303	O	0.475942	0.461313	0.484036
	H304	H	0.478183	0.472100	0.481453
	H305	H	0.469520	0.464466	0.492404
	O306	O	1.047275	0.012281	0.024082
	H307	H	1.039229	0.015230	0.027429
	H308	H	1.043977	0.016398	0.031211
	O309	O	-0.065941	-0.028936	1.006611
	H310	H	-0.070633	-0.032622	1.002952
	H311	H	-0.064090	-0.019462	1.018901
	O312	O	0.959293	1.020956	1.029305
	H313	H	0.959907	1.031765	1.025636
	H314	H	0.960250	1.017372	1.032378
	O315	O	0.528515	0.377078	0.561474
	H316	H	0.528325	0.373540	0.575120
	H317	H	0.513997	0.374862	0.554609
	O318	O	0.440864	0.515849	0.502218
	H319	H	0.435577	0.521724	0.507319
	H320	H	0.442776	0.511843	0.494208
	O321	O	0.451493	1.408763	1.465348
	H322	H	0.457891	1.418984	1.462298
	H323	H	0.454770	1.408462	1.470149
	O324	O	0.423661	0.457427	0.564078
	H325	H	0.421285	0.459483	0.563983
	H326	H	0.428825	0.468785	0.556920
	O327	O	0.471154	0.507982	0.531492
	H328	H	0.481881	0.508662	0.535215
	H329	H	0.463958	0.500426	0.522010
	O330	O	0.465839	0.472489	0.427498
	H331	H	0.465119	0.483624	0.427109
	H332	H	0.454347	0.458196	0.421563
	O333	O	0.569014	0.552119	0.491213
	H334	H	0.565356	0.556504	0.507623
	H335	H	0.565908	0.553347	0.492362
	O336	O	0.496223	0.550723	0.454660
	H337	H	0.495460	0.557029	0.445712
	H338	H	0.493522	0.546697	0.464208
	O339	O	0.943789	0.913485	0.006239
	H340	H	0.935500	0.914400	0.002975
	H341	H	0.949365	0.915355	0.004106
	O342	O	0.499248	0.530410	0.521744
	H343	H	0.511530	0.521609	0.524981
	H344	H	0.509626	0.525229	0.530597
	O345	O	0.504861	0.584793	0.499575
	H346	H	0.514628	0.591927	0.499887
	H347	H	0.503083	0.587194	0.504149
	O348	O	-0.005034	-0.011513	-0.001893
	H349	H	-0.007483	-0.018337	-0.001362
	H350	H	0.000103	-0.011942	-0.004603
	O351	O	-0.031539	0.957391	0.957403
	H352	H	-0.030034	0.953542	0.959758
	H353	H	-0.029548	0.951928	0.962106
	O354	O	0.592288	0.499606	0.517508
	H355	H	0.583262	0.505278	0.520132
	H356	H	0.599318	0.486240	0.514770
	O357	O	-0.047658	1.009071	0.984057
	H358	H	-0.045443	1.011677	0.980508
	H359	H	-0.039183	1.013701	0.976289
