data_Molecule from HDF5

_cell_length_a		16.760515
_cell_length_b		16.617165
_cell_length_c		16.528559
_cell_angle_alpha	90.186786
_cell_angle_beta	89.850352
_cell_angle_gamma	89.923668
_symmetry_space_group_name_H-M	'P 1'
_symmetry_Int_Tables_number		1

loop_
	_symmetry_equiv_pos_as_xyz
	x,y,z

loop_
	_atom_site_label
	_atom_site_type_symbol
	_atom_site_fract_x
	_atom_site_fract_y
	_atom_site_fract_z
	H0	H	0.399369	0.837686	0.720057
	H1	H	0.598718	0.154354	0.718214
	H2	H	0.607594	0.839992	0.279471
	H3	H	0.398422	0.151052	0.284345
	H4	H	0.720013	0.391211	0.845848
	H5	H	0.717174	0.599156	0.159170
	H6	H	0.278329	0.600399	0.846025
	H7	H	0.281672	0.393990	0.160674
	H8	H	0.848112	0.721113	0.396301
	H9	H	0.152485	0.720440	0.613445
	H10	H	0.846377	0.273681	0.607637
	H11	H	0.155163	0.276069	0.398450
	H12	H	0.846285	0.390519	0.724781
	H13	H	0.153548	0.601582	0.726871
	H14	H	0.846584	0.603725	0.280358
	H15	H	0.153925	0.391092	0.280260
	H16	H	0.395922	0.714158	0.844544
	H17	H	0.602251	0.715893	0.158386
	H18	H	0.600923	0.278419	0.843702
	H19	H	0.399752	0.280548	0.161677
	H20	H	0.726134	0.842362	0.392874
	H21	H	0.717890	0.153164	0.604748
	H22	H	0.280042	0.839426	0.607710
	H23	H	0.278853	0.148800	0.396829
	H24	H	0.896847	0.339716	0.220997
	H25	H	0.099703	0.652319	0.221825
	H26	H	0.102434	0.338903	0.784838
	H27	H	0.893024	0.649545	0.780382
	H28	H	0.220275	0.889905	0.346443
	H29	H	0.219325	0.099312	0.658702
	H30	H	0.781366	0.099653	0.345213
	H31	H	0.779788	0.891637	0.658843
	H32	H	0.342870	0.213708	0.902177
	H33	H	0.655432	0.215134	0.104861
	H34	H	0.345026	0.774969	0.107207
	H35	H	0.654097	0.771767	0.894137
	H36	H	0.345662	0.893096	0.223040
	H37	H	0.655597	0.098673	0.221920
	H38	H	0.342204	0.095165	0.786238
	H39	H	0.655391	0.891025	0.781212
	H40	H	0.900290	0.212348	0.343604
	H41	H	0.102874	0.214505	0.658548
	H42	H	0.104992	0.773186	0.347812
	H43	H	0.895474	0.776158	0.659416
	H44	H	0.219062	0.339808	0.898989
	H45	H	0.219271	0.651552	0.108785
	H46	H	0.778832	0.340868	0.107899
	H47	H	0.773847	0.648994	0.893205
	H48	H	0.404974	0.111454	0.600974
	H49	H	0.591506	0.883865	0.591608
	H50	H	0.591480	0.105112	0.417963
	H51	H	0.411440	0.882149	0.413063
	H52	H	0.583781	0.409587	0.111920
	H53	H	0.586804	0.589567	0.887518
	H54	H	0.410464	0.579757	0.112852
	H55	H	0.412432	0.410609	0.892217
	H56	H	0.108746	0.580565	0.414596
	H57	H	0.890606	0.584130	0.591602
	H58	H	0.109737	0.407098	0.590198
	H59	H	0.887801	0.400759	0.413107
	H60	H	0.112250	0.406778	0.595985
	H61	H	0.890644	0.583925	0.591259
	H62	H	0.111006	0.584752	0.413730
	H63	H	0.889675	0.406029	0.415858
	H64	H	0.413783	0.589458	0.114033
	H65	H	0.595391	0.578667	0.888450
	H66	H	0.589465	0.396317	0.117970
	H67	H	0.411106	0.397457	0.887776
	H68	H	0.594906	0.109355	0.410949
	H69	H	0.591969	0.883351	0.589718
	H70	H	0.416611	0.104638	0.591638
	H71	H	0.412682	0.882783	0.413312
	H72	H	0.904851	0.607499	0.086648
	H73	H	0.089967	0.383442	0.091096
	H74	H	0.083978	0.605351	0.917135
	H75	H	0.906346	0.384991	0.918798
	H76	H	0.095680	0.902553	0.619483
	H77	H	0.088390	0.081605	0.391080
	H78	H	0.904887	0.082946	0.614589
	H79	H	0.914906	0.910735	0.392550
	H80	H	0.612638	0.088647	0.907639
	H81	H	0.390277	0.086958	0.092003
	H82	H	0.610852	0.901713	0.085391
	H83	H	0.392382	0.909138	0.918353
	H84	H	0.608565	0.910000	0.087178
	H85	H	0.389015	0.085362	0.095235
	H86	H	0.611363	0.089334	0.911129
	H87	H	0.388629	0.908447	0.905063
	H88	H	0.913585	0.083061	0.613098
	H89	H	0.091420	0.089560	0.386962
	H90	H	0.092072	0.915522	0.612934
	H91	H	0.915606	0.906539	0.391380
	H92	H	0.094388	0.608173	0.919624
	H93	H	0.092286	0.382866	0.092222
	H94	H	0.906311	0.610800	0.097121
	H95	H	0.909829	0.382549	0.911027
	H96	H	0.401582	0.106653	0.585534
	H97	H	0.593279	0.883399	0.591158
	H98	H	0.586598	0.106540	0.410992
	H99	H	0.411652	0.883669	0.414121
	H100	H	0.598259	0.409155	0.117521
	H101	H	0.582801	0.577790	0.894168
	H102	H	0.403446	0.587316	0.116520
	H103	H	0.400533	0.406297	0.887058
	H104	H	0.108200	0.583655	0.418005
	H105	H	0.890326	0.583673	0.591298
	H106	H	0.112768	0.401887	0.591827
	H107	H	0.887624	0.405980	0.410069
	H108	H	0.914328	0.605865	0.091795
	H109	H	0.090020	0.382744	0.093669
	H110	H	0.090226	0.610744	0.909355
	H111	H	0.915211	0.386976	0.917596
	H112	H	0.081791	0.905081	0.614210
	H113	H	0.097024	0.081852	0.387175
	H114	H	0.909191	0.090119	0.616378
	H115	H	0.912131	0.908341	0.391266
	H116	H	0.610654	0.085997	0.909866
	H117	H	0.387120	0.088436	0.094124
	H118	H	0.612495	0.904777	0.093721
	H119	H	0.387124	0.897255	0.913400
	C120	C	0.377823	0.003772	0.624047
	C121	C	0.621588	0.987647	0.622307
	C122	C	0.622959	0.004070	0.380411
	C123	C	0.380107	0.985690	0.381679
	C124	C	0.621542	0.373899	0.011506
	C125	C	0.619617	0.614816	0.993621
	C126	C	0.377987	0.616819	0.010575
	C127	C	0.378660	0.375425	0.994273
	C128	C	0.008043	0.616703	0.382472
	C129	C	0.991800	0.617139	0.625298
	C130	C	0.009230	0.373177	0.624480
	C131	C	0.991248	0.373651	0.380827
	C132	C	0.877602	0.504850	0.123840
	C133	C	0.120973	0.486837	0.124217
	C134	C	0.120690	0.504596	0.883098
	C135	C	0.877500	0.486944	0.882025
	C136	C	0.121785	0.874369	0.512227
	C137	C	0.122288	0.116114	0.492872
	C138	C	0.879442	0.116437	0.510420
	C139	C	0.880380	0.875572	0.494378
	C140	C	0.507710	0.117409	0.880395
	C141	C	0.491627	0.117422	0.124290
	C142	C	0.508269	0.874281	0.121919
	C143	C	0.491710	0.873085	0.879862
	C144	C	0.378932	0.885372	0.681717
	C145	C	0.619427	0.106758	0.679795
	C146	C	0.625805	0.887017	0.319527
	C147	C	0.379386	0.103873	0.323485
	C148	C	0.679925	0.372817	0.892782
	C149	C	0.677579	0.617257	0.112010
	C150	C	0.318400	0.618801	0.892820
	C151	C	0.321377	0.375641	0.113563
	C152	C	0.893455	0.679530	0.378314
	C153	C	0.106840	0.678946	0.629939
	C154	C	0.893009	0.313429	0.626626
	C155	C	0.108385	0.315349	0.379182
	C156	C	0.892780	0.371449	0.684650
	C157	C	0.107246	0.619838	0.686368
	C158	C	0.892789	0.621136	0.320799
	C159	C	0.107753	0.372490	0.320735
	C160	C	0.377163	0.674983	0.891948
	C161	C	0.620601	0.675252	0.111471
	C162	C	0.620947	0.316751	0.891870
	C163	C	0.379708	0.318938	0.113814
	C164	C	0.684482	0.887985	0.376064
	C165	C	0.678659	0.106267	0.623486
	C166	C	0.319809	0.885873	0.625745
	C167	C	0.319906	0.102568	0.379114
	C168	C	0.877512	0.387018	0.181979
	C169	C	0.120087	0.605055	0.182844
	C170	C	0.121153	0.386075	0.824404
	C171	C	0.874584	0.603322	0.820830
	C172	C	0.180872	0.871298	0.393923
	C173	C	0.180188	0.118137	0.611380
	C174	C	0.821235	0.117904	0.391957
	C175	C	0.819889	0.873491	0.611833
	C176	C	0.389614	0.174152	0.882248
	C177	C	0.608869	0.175679	0.124104
	C178	C	0.391540	0.815180	0.124984
	C179	C	0.607837	0.812705	0.876820
	C180	C	0.391907	0.873816	0.182482
	C181	C	0.609004	0.117854	0.182202
	C182	C	0.389342	0.115263	0.824805
	C183	C	0.608377	0.871867	0.820331
	C184	C	0.880300	0.173829	0.391363
	C185	C	0.122184	0.175032	0.611424
	C186	C	0.123816	0.813444	0.394483
	C187	C	0.877683	0.816231	0.612477
	C188	C	0.179365	0.386600	0.880965
	C189	C	0.179345	0.604592	0.126490
	C190	C	0.818704	0.387518	0.125937
	C191	C	0.815458	0.602923	0.876981
	C192	C	0.401080	0.086222	0.599763
	C193	C	0.598807	0.905089	0.597849
	C194	C	0.598006	0.085650	0.405937
	C195	C	0.404798	0.904211	0.406536
	C196	C	0.597619	0.398137	0.094437
	C197	C	0.595387	0.589331	0.911383
	C198	C	0.402175	0.592563	0.093149
	C199	C	0.401311	0.398326	0.910849
	C200	C	0.088515	0.590363	0.408330
	C201	C	0.911468	0.591298	0.598763
	C202	C	0.090314	0.398227	0.599589
	C203	C	0.909679	0.397460	0.405750
	C204	C	0.901509	0.586676	0.098799
	C205	C	0.097659	0.404430	0.099403
	C206	C	0.096437	0.586588	0.908169
	C207	C	0.903216	0.405814	0.908262
	C208	C	0.096964	0.900288	0.594312
	C209	C	0.098926	0.091449	0.409987
	C210	C	0.902630	0.092346	0.593152
	C211	C	0.906577	0.901183	0.412843
	C212	C	0.590111	0.094589	0.902929
	C213	C	0.409951	0.093506	0.100691
	C214	C	0.589389	0.898529	0.096132
	C215	C	0.410416	0.897767	0.905038
	Zn216	Zn	0.499898	-0.004117	0.751105
	Zn217	Zn	0.501289	-0.004845	0.252930
	Zn218	Zn	0.749114	0.495594	0.002785
	Zn219	Zn	0.250104	0.495921	0.002971
	Zn220	Zn	0.000555	0.746593	0.503733
	Zn221	Zn	0.001030	0.244125	0.501475
	Zn222	Zn	-0.000123	0.495440	0.754228
	Zn223	Zn	-0.001111	0.495626	0.252472
	Zn224	Zn	0.499434	0.743956	0.001069
	Zn225	Zn	0.499531	0.246605	0.002708
	Zn226	Zn	0.751298	-0.004086	0.501947
	Zn227	Zn	0.250349	-0.005677	0.502526
	N228	N	0.414329	0.959737	0.680715
	N229	N	0.584993	0.031843	0.679573
	N230	N	0.588469	0.960386	0.321839
	N231	N	0.416195	0.030107	0.324644
	N232	N	0.680581	0.407310	0.968387
	N233	N	0.677150	0.580457	0.037645
	N234	N	0.318435	0.583594	0.967838
	N235	N	0.320222	0.409620	0.037943
	N236	N	0.966175	0.676885	0.416175
	N237	N	0.033923	0.677445	0.592430
	N238	N	0.966539	0.314109	0.590088
	N239	N	0.034897	0.315816	0.415845
	N240	N	0.966285	0.407787	0.683768
	N241	N	0.034541	0.582150	0.683705
	N242	N	0.964933	0.582327	0.323568
	N243	N	0.033775	0.407779	0.321362
	N244	N	0.413491	0.673854	0.966250
	N245	N	0.585109	0.673747	0.036719
	N246	N	0.585443	0.316922	0.966876
	N247	N	0.414524	0.318283	0.038529
	N248	N	0.682919	0.961810	0.413294
	N249	N	0.680538	0.031117	0.588718
	N250	N	0.318812	0.960625	0.590652
	N251	N	0.320138	0.028079	0.414687
	N252	N	0.913491	0.461076	0.181083
	N253	N	0.084680	0.530624	0.181744
	N254	N	0.085245	0.460479	0.825397
	N255	N	0.912711	0.530291	0.823888
	N256	N	0.180072	0.908183	0.468333
	N257	N	0.180869	0.082365	0.536380
	N258	N	0.820113	0.083199	0.467193
	N259	N	0.821402	0.909594	0.537242
	N260	N	0.464366	0.175770	0.915909
	N261	N	0.534745	0.175910	0.089051
	N262	N	0.464999	0.815218	0.088157
	N263	N	0.534091	0.813169	0.913005
	N264	N	0.465698	0.909610	0.181042
	N265	N	0.535147	0.082376	0.182417
	N266	N	0.463979	0.081021	0.823354
	N267	N	0.535049	0.908697	0.821756
	N268	N	0.915677	0.173201	0.466040
	N269	N	0.086983	0.173919	0.536723
	N270	N	0.088022	0.814989	0.469328
	N271	N	0.914610	0.817259	0.538339
	N272	N	0.179626	0.461429	0.916494
	N273	N	0.180283	0.529836	0.091055
	N274	N	0.818251	0.462028	0.090839
	N275	N	0.817120	0.529349	0.914319
	O276	O	-0.208401	1.204604	-0.205740
	H277	H	-0.240009	1.238724	-0.237330
	H278	H	-0.211755	1.199387	-0.170542
	O279	O	0.034286	0.215663	0.217882
	H280	H	0.036787	0.234266	0.222897
	H281	H	0.050935	0.225544	0.218047
	O282	O	0.923305	-0.159674	1.179203
	H283	H	0.926453	-0.160248	1.150853
	H284	H	0.926165	-0.173426	1.192551
	O285	O	0.279888	0.278309	0.536357
	H286	H	0.310916	0.272777	0.530460
	H287	H	0.260677	0.255376	0.529167
	O288	O	0.741614	0.550900	0.451887
	H289	H	0.744124	0.561675	0.449780
	H290	H	0.745255	0.542586	0.452292
	O291	O	0.422783	0.327547	0.510678
	H292	H	0.441226	0.326520	0.515899
	H293	H	0.432413	0.334717	0.501274
	O294	O	0.769300	-0.079042	0.942063
	H295	H	0.777965	-0.076782	0.924395
	H296	H	0.760401	-0.075544	0.937558
	O297	O	0.260721	0.566672	0.556376
	H298	H	0.263595	0.545499	0.539338
	H299	H	0.251306	0.557646	0.555826
	O300	O	0.221942	0.214480	1.033990
	H301	H	0.216153	0.221598	1.064355
	H302	H	0.234821	0.230930	1.044224
	O303	O	0.286649	0.407860	0.393922
	H304	H	0.290279	0.410352	0.382548
	H305	H	0.302341	0.405182	0.390191
	O306	O	0.418541	0.398346	0.499497
	H307	H	0.426629	0.403748	0.477074
	H308	H	0.425090	0.383148	0.492163
	O309	O	0.409886	0.566001	0.709537
	H310	H	0.415380	0.581512	0.711366
	H311	H	0.394008	0.546466	0.703730
	O312	O	0.501268	0.277269	0.329508
	H313	H	0.495138	0.258691	0.312187
	H314	H	0.534134	0.282738	0.339374
	O315	O	0.919827	0.959015	1.090949
	H316	H	0.925446	0.949715	1.082783
	H317	H	0.911740	0.951018	1.084579
	O318	O	1.214435	1.031823	0.209390
	H319	H	1.212319	1.010073	0.206197
	H320	H	1.215335	1.012403	0.212543
	O321	O	0.538076	0.717271	0.724716
	H322	H	0.567373	0.724367	0.726369
	H323	H	0.548147	0.734298	0.742554
	O324	O	1.032604	0.787994	0.124344
	H325	H	1.039080	0.777424	0.105725
	H326	H	1.033539	0.803431	0.110797
	O327	O	0.084372	0.169490	1.129020
	H328	H	0.092283	0.142336	1.131553
	H329	H	0.096625	0.178007	1.130157
	O330	O	0.544153	0.278994	0.520932
	H331	H	0.569752	0.276278	0.524153
	H332	H	0.555385	0.285130	0.522296
	O333	O	0.684791	0.676172	0.680733
	H334	H	0.697931	0.653307	0.681336
	H335	H	0.675919	0.675846	0.660564
	O336	O	0.696547	0.307445	0.694078
	H337	H	0.673536	0.330658	0.681612
	H338	H	0.684908	0.325838	0.669310
	O339	O	0.946181	-0.189276	0.989983
	H340	H	0.936805	-0.188972	0.980995
	H341	H	0.924270	-0.194814	0.996030
	O342	O	-0.006240	0.036280	-0.059976
	H343	H	0.000418	0.027666	-0.048904
	H344	H	-0.009937	0.029445	-0.063790
	O345	O	0.034889	0.894044	0.927926
	H346	H	0.038362	0.886325	0.912219
	H347	H	0.023547	0.885672	0.918402
	O348	O	0.027049	-0.220653	-0.209284
	H349	H	0.041939	-0.222225	-0.212738
	H350	H	0.047652	-0.230515	-0.226611
	O351	O	0.548009	0.549256	0.297573
	H352	H	0.520462	0.551427	0.291121
	H353	H	0.534949	0.557685	0.314662
	O354	O	-0.022258	-0.056054	0.853779
	H355	H	-0.020772	-0.067061	0.864586
	H356	H	-0.044894	-0.051352	0.843452
	O357	O	0.289643	0.706264	0.710646
	H358	H	0.305248	0.680415	0.690373
	H359	H	0.302053	0.709951	0.684153
	O360	O	0.723298	0.710220	0.533046
	H361	H	0.740787	0.732229	0.533332
	H362	H	0.707950	0.710274	0.515912
	O363	O	-0.023451	0.219972	-0.037061
	H364	H	-0.021835	0.219400	-0.047917
	H365	H	-0.025068	0.220072	-0.045142
	O366	O	0.462988	0.514499	0.347626
	H367	H	0.450695	0.513245	0.346140
	H368	H	0.450866	0.512304	0.356693
	O369	O	0.715575	0.285173	0.295468
	H370	H	0.747146	0.255562	0.259020
	H371	H	0.708702	0.321067	0.289599
	O372	O	0.787157	0.985789	0.212603
	H373	H	0.781375	0.961364	0.203652
	H374	H	0.776818	0.957018	0.229709
	O375	O	1.186668	0.185332	-0.187077
	H376	H	1.170478	0.168181	-0.163227
	H377	H	1.163619	0.170098	-0.174939
	O378	O	0.244179	0.235220	0.250754
	H379	H	0.261828	0.209526	0.257743
	H380	H	0.232084	0.248638	0.263655
	O381	O	-0.053631	1.128041	0.797487
	H382	H	-0.064944	1.139647	0.784933
	H383	H	-0.067568	1.125183	0.785187
	O384	O	0.775822	0.217260	0.964459
	H385	H	0.775855	0.213410	0.975513
	H386	H	0.754757	0.231111	0.962159
	O387	O	1.189576	0.798957	-0.187434
	H388	H	1.196325	0.824925	-0.200538
	H389	H	1.209255	0.789880	-0.214236
	O390	O	0.539531	0.396673	0.382376
	H391	H	0.546915	0.389581	0.378865
	H392	H	0.534845	0.402809	0.394254
	O393	O	0.399953	0.359275	0.315495
	H394	H	0.399086	0.365632	0.311107
	H395	H	0.417680	0.339872	0.307198
	O396	O	-0.226502	1.029452	0.778422
	H397	H	-0.248138	1.036427	0.759353
	H398	H	-0.226087	1.054481	0.774696
	O399	O	-0.001425	0.021400	0.941772
	H400	H	-0.001935	0.020243	0.933781
	H401	H	0.001491	0.015440	0.936711
	O402	O	0.459507	0.713363	0.509021
	H403	H	0.462467	0.699541	0.508615
	H404	H	0.461958	0.708338	0.512871
	O405	O	1.292631	-0.294127	1.291722
	H406	H	1.282640	-0.294331	1.324979
	H407	H	1.260941	-0.264301	1.272126
	O408	O	0.067397	-0.056974	0.223639
	H409	H	0.053981	-0.055666	0.226119
	H410	H	0.047662	-0.039620	0.217870
	O411	O	0.797204	0.791896	0.797473
	H412	H	0.779974	0.771679	0.784328
	H413	H	0.813420	0.793091	0.802011
	O414	O	0.536920	0.502227	0.530283
	H415	H	0.533391	0.494406	0.524433
	H416	H	0.534193	0.509447	0.543054
	O417	O	0.715640	0.530339	0.711257
	H418	H	0.715427	0.516921	0.728091
	H419	H	0.698261	0.518675	0.717674
	O420	O	0.418781	0.564639	0.472476
	H421	H	0.420800	0.564903	0.482866
	H422	H	0.426634	0.543151	0.475768
	O423	O	-0.021708	0.064136	1.196902
	H424	H	-0.041043	0.071350	1.191606
	H425	H	-0.025199	0.086594	1.206644
	O426	O	0.275420	0.532046	0.280836
	H427	H	0.255516	0.537695	0.259350
	H428	H	0.274912	0.562511	0.284086
	O429	O	0.783153	0.778467	1.210577
	H430	H	0.811278	0.783619	1.197231
	H431	H	0.756043	0.747366	1.246443
	O432	O	0.733110	0.429578	0.559403
	H433	H	0.734145	0.428334	0.549102
	H434	H	0.735413	0.430125	0.552194
	O435	O	0.192010	0.804458	0.194650
	H436	H	0.169059	0.819478	0.176977
	H437	H	0.172527	0.823068	0.175627
	O438	O	-0.189212	0.189215	0.188451
	H439	H	-0.177259	0.169180	0.167885
	H440	H	-0.163801	0.172870	0.171570
	O441	O	-0.055986	0.141434	-0.032430
	H442	H	-0.054825	0.122931	-0.038109
	H443	H	-0.065326	0.149307	-0.050222
	O444	O	0.723279	0.270816	0.469821
	H445	H	0.720827	0.277384	0.431300
	H446	H	0.750758	0.243046	0.459207
	O447	O	0.025676	1.025794	0.800973
	H448	H	0.002535	1.024263	0.796459
	H449	H	0.020269	1.016548	0.802051
	O450	O	-0.226173	0.770010	1.034190
	H451	H	-0.233792	0.785178	1.044283
	H452	H	-0.252376	0.744492	1.037511
	O453	O	0.515808	0.625494	0.574935
	H454	H	0.528735	0.629897	0.575792
	H455	H	0.528827	0.610037	0.578309
	O456	O	0.277167	0.462436	0.722845
	H457	H	0.279789	0.443034	0.720140
	H458	H	0.255971	0.457967	0.741879
	O459	O	1.226076	0.929067	0.062409
	H460	H	1.223400	0.916847	0.044533
	H461	H	1.224005	0.921046	0.044847
	O462	O	0.725051	0.459653	0.286527
	H463	H	0.709956	0.471635	0.274842
	H464	H	0.738754	0.462923	0.268611
	O465	O	0.767240	0.058360	0.030167
	H466	H	0.760094	0.059437	0.040697
	H467	H	0.780114	0.050466	0.022021
	O468	O	0.692478	0.683334	0.319366
	H469	H	0.675714	0.653177	0.327031
	H470	H	0.667425	0.681023	0.342238
	O471	O	0.454766	0.270811	0.729826
	H472	H	0.450820	0.236700	0.763791
	H473	H	0.406533	0.277737	0.723048
	O474	O	0.275135	0.714296	0.467130
	H475	H	0.254934	0.732032	0.476589
	H476	H	0.275650	0.705560	0.474038
	O477	O	0.568726	0.703286	1.417765
	H478	H	0.551727	0.702695	1.421938
	H479	H	0.538829	0.703466	1.401880
	O480	O	0.469865	0.719875	0.278557
	H481	H	0.440250	0.721969	0.275538
	H482	H	0.446228	0.739988	0.259665
	O483	O	0.286906	0.286126	0.714778
	H484	H	0.256201	0.256354	0.735079
	H485	H	0.274621	0.293563	0.686528
	O486	O	0.556168	0.388220	0.694143
	H487	H	0.527806	0.370793	0.693151
	H488	H	0.540111	0.377662	0.682383
	O489	O	1.148459	1.082272	-0.033345
	H490	H	1.145173	1.079181	-0.027028
	H491	H	1.149349	1.092366	-0.020424
	O492	O	0.222454	-0.227158	-0.025521
	H493	H	0.233656	-0.247870	-0.043006
	H494	H	0.227725	-0.235967	-0.059519
	O495	O	0.161334	0.970031	0.913557
	H496	H	0.153966	0.973718	0.919074
	H497	H	0.174761	0.975206	0.916231
	O498	O	1.220904	0.983220	0.832482
	H499	H	1.225736	1.003578	0.841790
	H500	H	1.220220	0.997259	0.828889
	O501	O	0.509917	0.490529	0.642472
	H502	H	0.489374	0.502119	0.639830
	H503	H	0.492612	0.471314	0.637625
