data_Molecule from HDF5

_cell_length_a		16.271175
_cell_length_b		16.282034
_cell_length_c		16.300270
_cell_angle_alpha	90.263475
_cell_angle_beta	89.865826
_cell_angle_gamma	89.890899
_symmetry_space_group_name_H-M	'P 1'
_symmetry_Int_Tables_number		1

loop_
	_symmetry_equiv_pos_as_xyz
	x,y,z

loop_
	_atom_site_label
	_atom_site_type_symbol
	_atom_site_fract_x
	_atom_site_fract_y
	_atom_site_fract_z
	H0	H	0.401128	0.838551	0.712425
	H1	H	0.596956	0.166664	0.712729
	H2	H	0.598993	0.839752	0.281233
	H3	H	0.401023	0.166993	0.284240
	H4	H	0.711964	0.405321	0.833712
	H5	H	0.711513	0.602062	0.161258
	H6	H	0.284368	0.600591	0.833260
	H7	H	0.284240	0.405301	0.161128
	H8	H	0.836442	0.719444	0.399846
	H9	H	0.163078	0.717335	0.596878
	H10	H	0.834984	0.290412	0.594893
	H11	H	0.162999	0.289063	0.399207
	H12	H	0.834858	0.406745	0.711000
	H13	H	0.163060	0.601927	0.713189
	H14	H	0.834824	0.602454	0.284908
	H15	H	0.162465	0.403185	0.281637
	H16	H	0.401086	0.716282	0.832768
	H17	H	0.596656	0.718039	0.161397
	H18	H	0.596722	0.288223	0.834454
	H19	H	0.400543	0.290646	0.161804
	H20	H	0.714815	0.839079	0.397282
	H21	H	0.712219	0.167170	0.596302
	H22	H	0.284357	0.839322	0.597376
	H23	H	0.284889	0.167009	0.400805
	H24	H	0.900337	0.339593	0.212091
	H25	H	0.097325	0.666641	0.213704
	H26	H	0.096839	0.339046	0.783639
	H27	H	0.900967	0.667268	0.785129
	H28	H	0.215712	0.902743	0.335029
	H29	H	0.211198	0.099796	0.662357
	H30	H	0.785567	0.100658	0.334418
	H31	H	0.785015	0.906338	0.661786
	H32	H	0.334654	0.215541	0.901858
	H33	H	0.663331	0.217536	0.095515
	H34	H	0.335257	0.788789	0.095461
	H35	H	0.663239	0.787945	0.898477
	H36	H	0.335145	0.904414	0.213021
	H37	H	0.663653	0.100803	0.210443
	H38	H	0.335589	0.100175	0.784609
	H39	H	0.663387	0.903529	0.782416
	H40	H	0.901395	0.216754	0.334822
	H41	H	0.096828	0.217079	0.661536
	H42	H	0.100596	0.786404	0.335307
	H43	H	0.901656	0.790644	0.662279
	H44	H	0.212271	0.338665	0.900296
	H45	H	0.213723	0.666833	0.096900
	H46	H	0.785211	0.339255	0.095232
	H47	H	0.785265	0.667213	0.901288
	H48	H	0.403233	0.121447	0.595298
	H49	H	0.595745	0.884638	0.594665
	H50	H	0.599831	0.123384	0.398873
	H51	H	0.402896	0.884146	0.397639
	H52	H	0.585663	0.406997	0.113593
	H53	H	0.586563	0.582195	0.886543
	H54	H	0.405774	0.585518	0.108688
	H55	H	0.399553	0.414708	0.881298
	H56	H	0.113105	0.592881	0.411241
	H57	H	0.881239	0.601859	0.592489
	H58	H	0.114306	0.412371	0.587801
	H59	H	0.884614	0.408098	0.413077
	H60	H	0.117142	0.411566	0.597070
	H61	H	0.884769	0.595323	0.588298
	H62	H	0.115405	0.589424	0.400874
	H63	H	0.883908	0.417789	0.402433
	H64	H	0.415344	0.602365	0.111856
	H65	H	0.583743	0.607171	0.879706
	H66	H	0.597597	0.406275	0.117292
	H67	H	0.413323	0.410021	0.883834
	H68	H	0.584470	0.118042	0.401275
	H69	H	0.587207	0.887934	0.590278
	H70	H	0.409866	0.117850	0.593080
	H71	H	0.417730	0.890397	0.403658
	H72	H	0.898276	0.622512	0.094403
	H73	H	0.090597	0.388028	0.090041
	H74	H	0.087033	0.617122	0.908308
	H75	H	0.906507	0.389173	0.909661
	H76	H	0.099987	0.915392	0.614787
	H77	H	0.098333	0.102163	0.378014
	H78	H	0.905755	0.103700	0.616459
	H79	H	0.902555	0.909786	0.380402
	H80	H	0.615555	0.101523	0.910738
	H81	H	0.384916	0.088399	0.094225
	H82	H	0.612398	0.917343	0.088236
	H83	H	0.382101	0.909869	0.902144
	H84	H	0.618204	0.907787	0.095637
	H85	H	0.379203	0.101807	0.097869
	H86	H	0.614129	0.088907	0.904703
	H87	H	0.382837	0.907234	0.905436
	H88	H	0.898897	0.095480	0.616050
	H89	H	0.096670	0.087488	0.382443
	H90	H	0.085484	0.914226	0.611368
	H91	H	0.908566	0.915159	0.383961
	H92	H	0.097131	0.620784	0.908442
	H93	H	0.093750	0.386461	0.089371
	H94	H	0.911425	0.619470	0.096947
	H95	H	0.899574	0.384041	0.901917
	H96	H	0.403766	0.118481	0.588001
	H97	H	0.595267	0.887223	0.585065
	H98	H	0.595115	0.117677	0.413558
	H99	H	0.404007	0.888359	0.414163
	H100	H	0.592600	0.416854	0.112684
	H101	H	0.606834	0.595554	0.877793
	H102	H	0.396994	0.601156	0.116919
	H103	H	0.403476	0.400774	0.878642
	H104	H	0.116899	0.600155	0.403748
	H105	H	0.882499	0.594558	0.596285
	H106	H	0.117670	0.404083	0.590466
	H107	H	0.879534	0.404264	0.400458
	H108	H	0.905669	0.617536	0.084997
	H109	H	0.092580	0.385310	0.092002
	H110	H	0.092450	0.621520	0.899365
	H111	H	0.910510	0.386600	0.899478
	H112	H	0.092625	0.902555	0.617773
	H113	H	0.084842	0.097442	0.382841
	H114	H	0.909626	0.094560	0.613045
	H115	H	0.910837	0.906655	0.382216
	H116	H	0.619427	0.099172	0.897250
	H117	H	0.383767	0.099240	0.084110
	H118	H	0.614252	0.905740	0.083115
	H119	H	0.383849	0.911001	0.906104
	C120	C	0.377539	0.010906	0.620343
	C121	C	0.620643	0.994818	0.618940
	C122	C	0.621445	0.011200	0.375769
	C123	C	0.378499	0.995270	0.376811
	C124	C	0.620210	0.381343	0.006105
	C125	C	0.620174	0.624494	0.989433
	C126	C	0.377472	0.624550	0.004577
	C127	C	0.377348	0.381204	0.989484
	C128	C	0.007354	0.623990	0.377189
	C129	C	0.990805	0.625159	0.620354
	C130	C	0.007697	0.381659	0.619636
	C131	C	0.991018	0.381230	0.376097
	C132	C	0.876878	0.511619	0.119906
	C133	C	0.120355	0.494747	0.119428
	C134	C	0.120547	0.511517	0.876817
	C135	C	0.877230	0.494930	0.876205
	C136	C	0.121701	0.881280	0.506690
	C137	C	0.121058	0.124192	0.489380
	C138	C	0.877138	0.125264	0.506671
	C139	C	0.878398	0.882062	0.490134
	C140	C	0.507601	0.124118	0.876805
	C141	C	0.490994	0.124972	0.119743
	C142	C	0.507060	0.881658	0.118293
	C143	C	0.491413	0.880875	0.875886
	C144	C	0.380545	0.887617	0.674722
	C145	C	0.617394	0.118052	0.674481
	C146	C	0.619562	0.888464	0.319365
	C147	C	0.380365	0.118172	0.322079
	C148	C	0.674570	0.384555	0.882783
	C149	C	0.674305	0.622621	0.112503
	C150	C	0.322510	0.621204	0.882034
	C151	C	0.322059	0.384605	0.112389
	C152	C	0.884692	0.680542	0.379892
	C153	C	0.114308	0.679796	0.617491
	C154	C	0.884052	0.327777	0.615974
	C155	C	0.113956	0.326542	0.378442
	C156	C	0.883826	0.385699	0.673252
	C157	C	0.114167	0.622509	0.675300
	C158	C	0.884039	0.622749	0.322372
	C159	C	0.113635	0.383666	0.320347
	C160	C	0.380349	0.678927	0.881708
	C161	C	0.617255	0.680371	0.112255
	C162	C	0.617478	0.326192	0.883141
	C163	C	0.379788	0.327410	0.112799
	C164	C	0.677250	0.888217	0.377069
	C165	C	0.674886	0.118297	0.616670
	C166	C	0.322683	0.887968	0.617346
	C167	C	0.322596	0.118020	0.379768
	C168	C	0.879738	0.388405	0.174457
	C169	C	0.118074	0.618121	0.175283
	C170	C	0.117691	0.387792	0.821588
	C171	C	0.880443	0.618312	0.822374
	C172	C	0.177332	0.883038	0.383590
	C173	C	0.174978	0.121489	0.612939
	C174	C	0.823212	0.121646	0.383402
	C175	C	0.822873	0.885235	0.613049
	C176	C	0.383996	0.178230	0.880478
	C177	C	0.614408	0.179715	0.116301
	C178	C	0.383770	0.826860	0.116155
	C179	C	0.614540	0.825723	0.877800
	C180	C	0.383762	0.884434	0.174367
	C181	C	0.614762	0.121605	0.173145
	C182	C	0.384508	0.121112	0.822237
	C183	C	0.614552	0.883164	0.820417
	C184	C	0.880751	0.178963	0.383459
	C185	C	0.117873	0.179427	0.612671
	C186	C	0.120238	0.825069	0.383908
	C187	C	0.880934	0.827825	0.613332
	C188	C	0.175100	0.387746	0.879172
	C189	C	0.175678	0.618050	0.117293
	C190	C	0.822568	0.388304	0.116333
	C191	C	0.822693	0.618143	0.879897
	C192	C	0.399199	0.096995	0.598571
	C193	C	0.599263	0.908916	0.596482
	C194	C	0.599536	0.097304	0.398098
	C195	C	0.401557	0.909748	0.398757
	C196	C	0.598353	0.403507	0.092447
	C197	C	0.598603	0.601824	0.903334
	C198	C	0.399615	0.602853	0.090496
	C199	C	0.399158	0.402205	0.903394
	C200	C	0.093035	0.600970	0.398945
	C201	C	0.904934	0.603593	0.598674
	C202	C	0.093989	0.402973	0.598043
	C203	C	0.904723	0.403419	0.398783
	C204	C	0.898593	0.597607	0.098513
	C205	C	0.098597	0.408936	0.097154
	C206	C	0.098630	0.597483	0.898794
	C207	C	0.899270	0.408798	0.897444
	C208	C	0.099162	0.904160	0.592372
	C209	C	0.099518	0.102260	0.403389
	C210	C	0.898596	0.104368	0.592771
	C211	C	0.900931	0.903946	0.404423
	C212	C	0.594170	0.102828	0.898001
	C213	C	0.404874	0.103038	0.098423
	C214	C	0.592707	0.903817	0.095679
	C215	C	0.405300	0.903036	0.898072
	Zn216	Zn	0.499554	0.002214	0.748071
	Zn217	Zn	0.499757	0.003317	0.247642
	Zn218	Zn	0.748787	0.503312	-0.002043
	Zn219	Zn	0.249056	0.502846	-0.002434
	Zn220	Zn	0.000140	0.753042	0.498407
	Zn221	Zn	-0.000566	0.252785	0.498098
	Zn222	Zn	-0.000698	0.503172	0.748215
	Zn223	Zn	-0.001395	0.503358	0.248091
	Zn224	Zn	0.499066	0.752873	-0.003291
	Zn225	Zn	0.498648	0.252737	-0.001769
	Zn226	Zn	0.749410	0.003380	0.497852
	Zn227	Zn	0.249746	0.002803	0.498331
	N228	N	0.414010	0.965053	0.676552
	N229	N	0.584449	0.040271	0.676054
	N230	N	0.585490	0.965801	0.318658
	N231	N	0.414519	0.040836	0.319988
	N232	N	0.676793	0.417682	0.960660
	N233	N	0.676212	0.588505	0.035240
	N234	N	0.320781	0.588182	0.959486
	N235	N	0.320539	0.417317	0.034837
	N236	N	0.962322	0.681583	0.413096
	N237	N	0.036606	0.681706	0.584133
	N238	N	0.962116	0.325283	0.583169
	N239	N	0.036595	0.325018	0.412593
	N240	N	0.961670	0.418518	0.675573
	N241	N	0.036715	0.589085	0.677070
	N242	N	0.961221	0.588147	0.320793
	N243	N	0.035887	0.417044	0.318905
	N244	N	0.414005	0.680811	0.959053
	N245	N	0.584344	0.681492	0.034543
	N246	N	0.584257	0.324413	0.960783
	N247	N	0.413520	0.325020	0.035190
	N248	N	0.678380	0.965606	0.411569
	N249	N	0.676831	0.040797	0.582724
	N250	N	0.320693	0.965690	0.584133
	N251	N	0.321415	0.040556	0.413045
	N252	N	0.912909	0.466041	0.176756
	N253	N	0.084322	0.540680	0.176653
	N254	N	0.084634	0.465655	0.819685
	N255	N	0.913913	0.540653	0.820134
	N256	N	0.178210	0.917235	0.460907
	N257	N	0.176988	0.087712	0.535361
	N258	N	0.820912	0.088769	0.460830
	N259	N	0.821286	0.918256	0.535528
	N260	N	0.461723	0.180116	0.913700
	N261	N	0.536512	0.181876	0.083941
	N262	N	0.461011	0.825106	0.082233
	N263	N	0.536961	0.824287	0.911546
	N264	N	0.461564	0.917809	0.175957
	N265	N	0.537050	0.088185	0.175528
	N266	N	0.462370	0.088004	0.820024
	N267	N	0.536924	0.916716	0.819049
	N268	N	0.913500	0.181445	0.461179
	N269	N	0.084979	0.181189	0.535025
	N270	N	0.086517	0.823652	0.461434
	N271	N	0.914803	0.825804	0.535823
	N272	N	0.176860	0.465386	0.912823
	N273	N	0.177044	0.540487	0.083152
	N274	N	0.820645	0.465913	0.083148
	N275	N	0.820828	0.540450	0.912739
	O276	O	-0.518979	-0.429922	1.487264
	H277	H	-0.509513	-0.430436	1.478157
	H278	H	-0.515228	-0.430578	1.490806
	O279	O	0.423590	0.536279	0.392616
	H280	H	0.425962	0.535610	0.394572
	H281	H	0.416569	0.538960	0.398480
	O282	O	0.454783	0.564164	0.446045
	H283	H	0.443545	0.560835	0.447419
	H284	H	0.450691	0.567624	0.442925
	O285	O	0.485086	0.533826	0.436907
	H286	H	0.484806	0.530906	0.432351
	H287	H	0.484367	0.527543	0.426792
	O288	O	0.477243	0.549215	0.436784
	H289	H	0.485431	0.549098	0.433823
	H290	H	0.479221	0.563287	0.450013
	O291	O	0.500710	1.527933	1.513144
	H292	H	0.515685	1.527247	1.505502
	H293	H	0.502237	1.525292	1.508532
	O294	O	0.476544	0.527946	0.462212
	H295	H	0.477885	0.529046	0.462925
	H296	H	0.465266	0.531018	0.464163
	O297	O	1.482212	-0.459777	-0.563522
	H298	H	1.469388	-0.453951	-0.562721
	H299	H	1.478842	-0.461512	-0.567407
