data_Molecule from HDF5

_cell_length_a		16.369975
_cell_length_b		16.467964
_cell_length_c		16.369982
_cell_angle_alpha	90.120409
_cell_angle_beta	89.878046
_cell_angle_gamma	89.855274
_symmetry_space_group_name_H-M	'P 1'
_symmetry_Int_Tables_number		1

loop_
	_symmetry_equiv_pos_as_xyz
	x,y,z

loop_
	_atom_site_label
	_atom_site_type_symbol
	_atom_site_fract_x
	_atom_site_fract_y
	_atom_site_fract_z
	H0	H	0.396700	0.837197	0.714817
	H1	H	0.611723	0.152023	0.720566
	H2	H	0.607046	0.838362	0.270458
	H3	H	0.391381	0.153833	0.269552
	H4	H	0.726773	0.388415	0.836976
	H5	H	0.722916	0.601689	0.153767
	H6	H	0.280913	0.599675	0.835236
	H7	H	0.276203	0.385779	0.151021
	H8	H	0.844514	0.719604	0.385557
	H9	H	0.160294	0.716404	0.600195
	H10	H	0.842458	0.273479	0.601574
	H11	H	0.158523	0.270306	0.385229
	H12	H	0.842986	0.389312	0.718186
	H13	H	0.161701	0.597354	0.712358
	H14	H	0.843868	0.601563	0.273039
	H15	H	0.160869	0.388252	0.273048
	H16	H	0.395773	0.716052	0.834960
	H17	H	0.607576	0.717732	0.152872
	H18	H	0.612598	0.271980	0.837023
	H19	H	0.391088	0.270340	0.150394
	H20	H	0.724677	0.838582	0.385004
	H21	H	0.726049	0.152219	0.603514
	H22	H	0.281520	0.837252	0.597820
	H23	H	0.278245	0.154439	0.389375
	H24	H	0.893633	0.338336	0.219714
	H25	H	0.104627	0.654757	0.214842
	H26	H	0.110221	0.337848	0.769917
	H27	H	0.898057	0.655499	0.775351
	H28	H	0.222620	0.890236	0.335064
	H29	H	0.220259	0.099278	0.653714
	H30	H	0.778392	0.103034	0.335581
	H31	H	0.780391	0.892691	0.653131
	H32	H	0.344010	0.220520	0.886177
	H33	H	0.659016	0.220651	0.102407
	H34	H	0.342992	0.774073	0.099685
	H35	H	0.661996	0.775399	0.888168
	H36	H	0.340844	0.894254	0.211504
	H37	H	0.659537	0.102804	0.216931
	H38	H	0.340976	0.099757	0.775399
	H39	H	0.661890	0.892704	0.774486
	H40	H	0.892795	0.218831	0.335580
	H41	H	0.107254	0.216669	0.653189
	H42	H	0.107387	0.774026	0.335263
	H43	H	0.896359	0.776314	0.653660
	H44	H	0.224763	0.337469	0.887872
	H45	H	0.220046	0.654862	0.096811
	H46	H	0.778233	0.338143	0.102863
	H47	H	0.784388	0.656150	0.894176
	H48	H	0.404726	0.109100	0.579777
	H49	H	0.592196	0.884523	0.579291
	H50	H	0.586880	0.108518	0.404616
	H51	H	0.412272	0.883793	0.404388
	H52	H	0.587680	0.411502	0.105158
	H53	H	0.599943	0.593600	0.875790
	H54	H	0.418635	0.585985	0.106516
	H55	H	0.419330	0.405586	0.881274
	H56	H	0.114152	0.583330	0.410867
	H57	H	0.886034	0.585073	0.589876
	H58	H	0.116731	0.402629	0.586228
	H59	H	0.890255	0.409984	0.408400
	H60	H	0.114165	0.403113	0.576530
	H61	H	0.885921	0.590991	0.582269
	H62	H	0.115340	0.581055	0.404122
	H63	H	0.888034	0.407105	0.406722
	H64	H	0.409833	0.591579	0.110876
	H65	H	0.596626	0.576343	0.881764
	H66	H	0.586752	0.407485	0.106447
	H67	H	0.411270	0.408360	0.880596
	H68	H	0.587123	0.107234	0.408124
	H69	H	0.590744	0.882203	0.585916
	H70	H	0.409540	0.112557	0.592012
	H71	H	0.410132	0.882662	0.403320
	H72	H	0.907505	0.612510	0.091611
	H73	H	0.092461	0.381964	0.082130
	H74	H	0.099079	0.613976	0.897462
	H75	H	0.915420	0.384998	0.909004
	H76	H	0.092427	0.902140	0.609727
	H77	H	0.085269	0.088252	0.380157
	H78	H	0.917960	0.084208	0.604798
	H79	H	0.913288	0.914593	0.382688
	H80	H	0.615512	0.085767	0.904154
	H81	H	0.389609	0.082537	0.079780
	H82	H	0.617034	0.905127	0.085570
	H83	H	0.390545	0.909826	0.909455
	H84	H	0.615856	0.901870	0.079620
	H85	H	0.388712	0.084424	0.079946
	H86	H	0.614014	0.084808	0.909587
	H87	H	0.385709	0.906663	0.897910
	H88	H	0.911684	0.087266	0.608150
	H89	H	0.094989	0.082774	0.378270
	H90	H	0.092820	0.907419	0.608589
	H91	H	0.919950	0.902292	0.381266
	H92	H	0.079694	0.605359	0.899414
	H93	H	0.088523	0.381979	0.086389
	H94	H	0.922048	0.604853	0.086810
	H95	H	0.912489	0.383266	0.905904
	H96	H	0.417515	0.106963	0.583298
	H97	H	0.585379	0.884857	0.581898
	H98	H	0.589801	0.109224	0.406082
	H99	H	0.412563	0.883124	0.402053
	H100	H	0.590713	0.409159	0.107670
	H101	H	0.582500	0.588542	0.881529
	H102	H	0.408525	0.581133	0.107568
	H103	H	0.417131	0.413644	0.884022
	H104	H	0.116458	0.587631	0.406189
	H105	H	0.889500	0.582201	0.581313
	H106	H	0.112597	0.411556	0.582544
	H107	H	0.889607	0.406644	0.410313
	H108	H	0.909039	0.606398	0.075647
	H109	H	0.087528	0.384369	0.080889
	H110	H	0.093045	0.605910	0.916231
	H111	H	0.917144	0.383410	0.904992
	H112	H	0.088312	0.904663	0.607938
	H113	H	0.086272	0.078191	0.384280
	H114	H	0.911442	0.079608	0.605730
	H115	H	0.906687	0.903299	0.377409
	H116	H	0.613785	0.080297	0.905773
	H117	H	0.390694	0.083518	0.077937
	H118	H	0.614283	0.908720	0.080530
	H119	H	0.386000	0.897647	0.907727
	C120	C	0.379301	0.004512	0.616017
	C121	C	0.622916	0.987535	0.615849
	C122	C	0.622109	0.004391	0.372048
	C123	C	0.378822	0.988015	0.371271
	C124	C	0.623582	0.374936	0.002834
	C125	C	0.624019	0.617457	0.985671
	C126	C	0.380412	0.617671	0.002858
	C127	C	0.380752	0.374829	0.985650
	C128	C	0.010292	0.616664	0.373902
	C129	C	0.992943	0.616796	0.615689
	C130	C	0.009640	0.373553	0.615683
	C131	C	0.993198	0.373819	0.373403
	C132	C	0.879790	0.503985	0.117536
	C133	C	0.122008	0.487173	0.115372
	C134	C	0.124180	0.504004	0.871733
	C135	C	0.881839	0.488343	0.874353
	C136	C	0.122998	0.873388	0.502993
	C137	C	0.121306	0.115895	0.485919
	C138	C	0.879484	0.117205	0.502077
	C139	C	0.880526	0.874716	0.485306
	C140	C	0.509799	0.117095	0.873277
	C141	C	0.493335	0.117697	0.113955
	C142	C	0.510325	0.874055	0.114671
	C143	C	0.493090	0.873647	0.872285
	C144	C	0.378086	0.884890	0.675177
	C145	C	0.628124	0.104722	0.679164
	C146	C	0.625378	0.886104	0.310403
	C147	C	0.374894	0.106649	0.310650
	C148	C	0.686208	0.370724	0.884412
	C149	C	0.683199	0.619867	0.105796
	C150	C	0.320090	0.619017	0.883320
	C151	C	0.317512	0.369572	0.103873
	C152	C	0.891789	0.678443	0.369279
	C153	C	0.112629	0.676336	0.617889
	C154	C	0.890234	0.313319	0.619613
	C155	C	0.111418	0.311141	0.368442
	C156	C	0.890652	0.371199	0.677555
	C157	C	0.113577	0.617113	0.673704
	C158	C	0.891454	0.619501	0.313055
	C159	C	0.112676	0.370095	0.312473
	C160	C	0.377881	0.676529	0.882930
	C161	C	0.625598	0.677611	0.105255
	C162	C	0.629144	0.312743	0.884342
	C163	C	0.374858	0.311678	0.103484
	C164	C	0.684095	0.886193	0.367680
	C165	C	0.685391	0.104992	0.620530
	C166	C	0.320793	0.884906	0.616724
	C167	C	0.318140	0.107000	0.370055
	C168	C	0.875977	0.385601	0.179089
	C169	C	0.123582	0.607050	0.174869
	C170	C	0.127624	0.385125	0.810806
	C171	C	0.879619	0.607621	0.814806
	C172	C	0.182963	0.871826	0.382998
	C173	C	0.180905	0.117954	0.605812
	C174	C	0.818130	0.120844	0.383166
	C175	C	0.820242	0.873446	0.605433
	C176	C	0.390896	0.178657	0.869693
	C177	C	0.611822	0.179817	0.119338
	C178	C	0.390267	0.814791	0.117029
	C179	C	0.613841	0.815137	0.870589
	C180	C	0.389389	0.874253	0.173058
	C181	C	0.612021	0.121259	0.176280
	C182	C	0.389529	0.118786	0.814216
	C183	C	0.613653	0.873211	0.813431
	C184	C	0.875494	0.178539	0.383186
	C185	C	0.124520	0.176647	0.605245
	C186	C	0.125286	0.813958	0.383066
	C187	C	0.878180	0.815875	0.605677
	C188	C	0.184813	0.384929	0.869440
	C189	C	0.180773	0.607168	0.116116
	C190	C	0.818042	0.385590	0.121067
	C191	C	0.823030	0.608071	0.874144
	C192	C	0.403487	0.087731	0.591879
	C193	C	0.596806	0.905212	0.589702
	C194	C	0.595696	0.086952	0.398711
	C195	C	0.404298	0.905068	0.395959
	C196	C	0.596242	0.401600	0.085030
	C197	C	0.600117	0.592980	0.901822
	C198	C	0.405258	0.593352	0.086441
	C199	C	0.408120	0.401734	0.903510
	C200	C	0.093708	0.591188	0.399763
	C201	C	0.908960	0.592778	0.591543
	C202	C	0.092699	0.398501	0.589357
	C203	C	0.910693	0.400586	0.400522
	C204	C	0.905430	0.586264	0.091994
	C205	C	0.096965	0.404507	0.090303
	C206	C	0.098152	0.586795	0.897022
	C207	C	0.907442	0.405432	0.899392
	C208	C	0.098325	0.897843	0.586939
	C209	C	0.096096	0.090445	0.402414
	C210	C	0.906028	0.091129	0.584717
	C211	C	0.905886	0.899548	0.402235
	C212	C	0.592877	0.091218	0.898993
	C213	C	0.411265	0.091256	0.086936
	C214	C	0.593760	0.898370	0.089513
	C215	C	0.409132	0.897968	0.897633
	Zn216	Zn	0.500963	-0.004484	0.744955
	Zn217	Zn	0.500854	-0.003162	0.242665
	Zn218	Zn	0.751943	0.495841	-0.005203
	Zn219	Zn	0.252165	0.495767	-0.005862
	Zn220	Zn	0.001446	0.745430	0.494630
	Zn221	Zn	0.001092	0.245127	0.493907
	Zn222	Zn	0.002047	0.495746	0.743983
	Zn223	Zn	0.002054	0.495087	0.246042
	Zn224	Zn	0.502277	0.745409	-0.006802
	Zn225	Zn	0.502083	0.246608	-0.006280
	Zn226	Zn	0.751395	-0.004219	0.493419
	Zn227	Zn	0.250778	-0.004106	0.494430
	N228	N	0.413630	0.960375	0.675107
	N229	N	0.589706	0.030626	0.676343
	N230	N	0.587787	0.960676	0.313052
	N231	N	0.411830	0.031586	0.311260
	N232	N	0.683019	0.408549	0.959166
	N233	N	0.682193	0.582830	0.030419
	N234	N	0.321539	0.583054	0.958941
	N235	N	0.321325	0.408279	0.029682
	N236	N	0.966865	0.676596	0.406590
	N237	N	0.036467	0.676322	0.582498
	N238	N	0.965184	0.314789	0.581848
	N239	N	0.035921	0.312965	0.405304
	N240	N	0.966097	0.407746	0.675390
	N241	N	0.038206	0.580855	0.672533
	N242	N	0.966272	0.581607	0.316144
	N243	N	0.038033	0.408261	0.315428
	N244	N	0.414578	0.675866	0.958333
	N245	N	0.589497	0.676209	0.029599
	N246	N	0.590803	0.315174	0.959011
	N247	N	0.413873	0.315031	0.029086
	N248	N	0.682244	0.961116	0.405315
	N249	N	0.682186	0.031099	0.581681
	N250	N	0.321182	0.960232	0.580920
	N251	N	0.320470	0.032229	0.407034
	N252	N	0.913234	0.460250	0.177368
	N253	N	0.087995	0.531491	0.174672
	N254	N	0.090672	0.460252	0.812075
	N255	N	0.915348	0.531894	0.814708
	N256	N	0.181575	0.908240	0.458646
	N257	N	0.179045	0.080951	0.530588
	N258	N	0.820290	0.083798	0.458247
	N259	N	0.821403	0.909205	0.529611
	N260	N	0.466840	0.177953	0.905468
	N261	N	0.537024	0.177581	0.081406
	N262	N	0.466530	0.814422	0.081596
	N263	N	0.537757	0.815104	0.906388
	N264	N	0.465068	0.910313	0.171811
	N265	N	0.537480	0.083393	0.173162
	N266	N	0.464631	0.081347	0.816429
	N267	N	0.537614	0.908918	0.814720
	N268	N	0.912747	0.176651	0.458350
	N269	N	0.088030	0.175351	0.529547
	N270	N	0.088782	0.814924	0.458736
	N271	N	0.914559	0.816201	0.530044
	N272	N	0.182448	0.459628	0.906880
	N273	N	0.180316	0.531608	0.080175
	N274	N	0.820206	0.460203	0.083495
	N275	N	0.824040	0.532587	0.909933
	O276	O	0.314244	0.679311	0.309143
	H277	H	0.366246	0.688291	0.303531
	H278	H	0.301229	0.700774	0.329688
	O279	O	0.523030	0.440665	0.656972
	H280	H	0.498084	0.432201	0.649862
	H281	H	0.521901	0.433617	0.665093
	O282	O	0.482349	0.276901	0.713507
	H283	H	0.439404	0.287548	0.702350
	H284	H	0.475629	0.242970	0.748666
	O285	O	1.125559	0.997183	-0.137813
	H286	H	1.115407	1.012662	-0.137533
	H287	H	1.129689	1.011974	-0.145074
	O288	O	0.441775	0.413849	0.304619
	H289	H	0.441255	0.387507	0.287866
	H290	H	0.411465	0.425862	0.301720
	O291	O	0.496204	0.492637	0.524028
	H292	H	0.493411	0.484739	0.519988
	H293	H	0.502558	0.492768	0.517446
	O294	O	0.798881	0.943222	1.179592
	H295	H	0.781470	0.936663	1.198683
	H296	H	0.805573	0.923712	1.163905
	O297	O	0.302102	0.474736	0.689610
	H298	H	0.309727	0.488470	0.695445
	H299	H	0.286652	0.489191	0.674394
	O300	O	0.542943	0.483539	0.430557
	H301	H	0.531085	0.485438	0.430368
	H302	H	0.542428	0.480961	0.429547
	O303	O	0.709640	0.524388	0.701935
	H304	H	0.717384	0.511226	0.697603
	H305	H	0.710338	0.505930	0.714946
	O306	O	0.038618	0.156068	0.977296
	H307	H	0.033331	0.154607	0.965653
	H308	H	0.030911	0.156730	0.968087
	O309	O	0.920818	-0.028316	0.165201
	H310	H	0.914378	-0.039447	0.156007
	H311	H	0.907794	-0.030713	0.170213
	O312	O	0.720211	0.496850	0.496816
	H313	H	0.719743	0.483635	0.505130
	H314	H	0.719483	0.507037	0.488554
	O315	O	0.514879	0.282326	0.278808
	H316	H	0.523751	0.254972	0.242901
	H317	H	0.542810	0.302938	0.284083
	O318	O	0.039301	-0.208765	-0.196852
	H319	H	0.059385	-0.217585	-0.200830
	H320	H	0.051458	-0.213041	-0.207832
	O321	O	0.664063	0.714648	0.500713
	H322	H	0.671737	0.725962	0.502370
	H323	H	0.665639	0.705552	0.520685
	O324	O	1.178830	-0.122768	0.954756
	H325	H	1.183156	-0.125062	0.944681
	H326	H	1.183739	-0.108333	0.949944
	O327	O	0.689649	0.685747	0.680211
	H328	H	0.665625	0.664046	0.688486
	H329	H	0.702508	0.663168	0.668139
	O330	O	-0.055315	1.122390	1.074293
	H331	H	-0.051887	1.117111	1.076777
	H332	H	-0.047453	1.112659	1.077055
	O333	O	-0.034756	1.201461	-0.210693
	H334	H	-0.041709	1.217534	-0.227968
	H335	H	-0.064279	1.191508	-0.214220
	O336	O	1.048809	1.079446	-0.126395
	H337	H	1.044793	1.073623	-0.123823
	H338	H	1.045732	1.081654	-0.139012
	O339	O	-0.026206	0.836758	1.170954
	H340	H	-0.026150	0.833629	1.177421
	H341	H	-0.005368	0.851220	1.175434
	O342	O	0.393701	0.660549	0.505145
	H343	H	0.399467	0.651999	0.530099
	H344	H	0.416959	0.670644	0.503846
	O345	O	0.074351	0.020296	1.183779
	H346	H	0.087571	0.022074	1.172420
	H347	H	0.071368	0.035697	1.183386
	O348	O	0.515850	0.599162	0.294030
	H349	H	0.512701	0.576956	0.291934
	H350	H	0.531411	0.585231	0.306546
	O351	O	1.197969	1.014624	0.193600
	H352	H	1.228210	1.025893	0.210035
	H353	H	1.178010	1.056026	0.184608
	O354	O	0.933516	0.898065	0.989205
	H355	H	0.928147	0.902256	1.003636
	H356	H	0.948074	0.890013	1.005149
	O357	O	-0.149346	0.142383	-0.172223
	H358	H	-0.153196	0.132482	-0.156996
	H359	H	-0.157733	0.121355	-0.172346
	O360	O	0.403796	0.560734	0.522276
	H361	H	0.394835	0.566607	0.504166
	H362	H	0.428591	0.553457	0.510469
	O363	O	0.815461	-0.181073	0.102888
	H364	H	0.823794	-0.173980	0.088715
	H365	H	0.833908	-0.178224	0.099496
	O366	O	-0.461074	-0.517149	1.669217
	H367	H	-0.447735	-0.499193	1.660208
	H368	H	-0.458001	-0.544760	1.667518
	O369	O	1.115233	-0.159890	0.972451
	H370	H	1.133385	-0.178452	0.970665
	H371	H	1.110301	-0.156364	0.993549
	O372	O	0.524075	0.709126	0.317815
	H373	H	0.531078	0.712802	0.292569
	H374	H	0.545084	0.693090	0.309202
	O375	O	-0.098904	-0.035138	0.896856
	H376	H	-0.103764	-0.048073	0.893334
	H377	H	-0.082755	-0.033545	0.897022
	O378	O	0.313009	0.497419	0.470991
	H379	H	0.317551	0.502184	0.475091
	H380	H	0.305937	0.502981	0.445014
	O381	O	-0.057624	0.932103	-0.088282
	H382	H	-0.065211	0.934385	-0.102746
	H383	H	-0.066467	0.926497	-0.087907
	O384	O	0.556266	0.648820	0.399387
	H385	H	0.562853	0.643705	0.378739
	H386	H	0.578482	0.642096	0.413673
	O387	O	0.467058	0.287325	0.461393
	H388	H	0.466934	0.312229	0.453584
	H389	H	0.459910	0.276255	0.437090
	O390	O	0.823034	1.114733	-0.010060
	H391	H	0.836018	1.125253	-0.015031
	H392	H	0.811843	1.125449	-0.005161
	O393	O	0.820588	0.064995	0.985145
	H394	H	0.824965	0.083022	0.973106
	H395	H	0.822706	0.073831	0.997885
	O396	O	0.294698	0.292384	0.510690
	H397	H	0.289199	0.285585	0.502882
	H398	H	0.294185	0.293421	0.490871
	O399	O	0.325669	0.310401	0.679205
	H400	H	0.316945	0.303096	0.640211
	H401	H	0.314655	0.357842	0.682471
	O402	O	1.112852	0.830437	-0.034591
	H403	H	1.112810	0.849478	-0.046288
	H404	H	1.120867	0.818052	-0.037113
	O405	O	0.712867	0.287076	0.480384
	H406	H	0.706024	0.263167	0.491441
	H407	H	0.704818	0.264521	0.491554
	O408	O	0.638635	0.472307	0.284695
	H409	H	0.641192	0.486365	0.287504
	H410	H	0.649927	0.490741	0.287838
	O411	O	0.960846	0.965279	0.828402
	H412	H	0.955805	0.962738	0.813667
	H413	H	0.968927	0.943139	0.838632
	O414	O	0.524027	0.705140	0.699465
	H415	H	0.535299	0.723748	0.724663
	H416	H	0.527938	0.693405	0.692656
	O417	O	0.087338	0.975992	0.978526
	H418	H	0.076554	0.980569	0.970558
	H419	H	0.088408	0.989430	0.992102
	O420	O	0.192768	1.180873	1.097976
	H421	H	0.166744	1.191256	1.104958
	H422	H	0.193246	1.190346	1.063850
	O423	O	0.019759	1.198904	0.196919
	H424	H	0.006546	1.180830	0.186434
	H425	H	0.016777	1.224289	0.225785
	O426	O	0.568022	0.357711	0.625536
	H427	H	0.552882	0.357181	0.593340
	H428	H	0.551047	0.342686	0.652004
	O429	O	0.282178	0.519908	0.269673
	H430	H	0.283097	0.562481	0.276418
	H431	H	0.253079	0.534471	0.243277
	O432	O	0.645886	0.576392	0.473034
	H433	H	0.654059	0.587562	0.470060
	H434	H	0.631243	0.583561	0.473660
	O435	O	0.160657	0.020490	-0.026500
	H436	H	0.160832	0.017928	-0.034307
	H437	H	0.164475	0.011616	-0.048069
	O438	O	-0.330017	1.319139	1.319808
	H439	H	-0.330613	1.355710	1.307271
	H440	H	-0.317689	1.308024	1.369210
	O441	O	0.320931	0.693157	0.553174
	H442	H	0.329025	0.699085	0.518187
	H443	H	0.338206	0.699286	0.563938
