data_Molecule from HDF5

_cell_length_a		16.248694
_cell_length_b		16.388773
_cell_length_c		16.163464
_cell_angle_alpha	90.007380
_cell_angle_beta	90.101800
_cell_angle_gamma	90.040468
_symmetry_space_group_name_H-M	'P 1'
_symmetry_Int_Tables_number		1

loop_
	_symmetry_equiv_pos_as_xyz
	x,y,z

loop_
	_atom_site_label
	_atom_site_type_symbol
	_atom_site_fract_x
	_atom_site_fract_y
	_atom_site_fract_z
	H0	H	0.404044	0.836192	0.716197
	H1	H	0.600014	0.162667	0.717154
	H2	H	0.600219	0.837172	0.287664
	H3	H	0.403149	0.162539	0.286370
	H4	H	0.713146	0.403916	0.836056
	H5	H	0.715081	0.596819	0.166241
	H6	H	0.289930	0.596327	0.835920
	H7	H	0.289227	0.402791	0.166778
	H8	H	0.838392	0.716081	0.400383
	H9	H	0.164711	0.717661	0.602935
	H10	H	0.838916	0.284749	0.602112
	H11	H	0.163440	0.283065	0.397927
	H12	H	0.837325	0.404171	0.713529
	H13	H	0.166154	0.597538	0.714656
	H14	H	0.837079	0.597083	0.288370
	H15	H	0.165743	0.404483	0.289866
	H16	H	0.401694	0.714729	0.837343
	H17	H	0.602482	0.714129	0.166127
	H18	H	0.602131	0.283893	0.838151
	H19	H	0.400511	0.284352	0.165694
	H20	H	0.715682	0.837039	0.405181
	H21	H	0.718778	0.161986	0.603206
	H22	H	0.284831	0.837908	0.601969
	H23	H	0.287292	0.163131	0.402891
	H24	H	0.903221	0.337382	0.216644
	H25	H	0.099692	0.663558	0.216311
	H26	H	0.099782	0.337255	0.786557
	H27	H	0.904434	0.663373	0.787183
	H28	H	0.213779	0.903307	0.336287
	H29	H	0.215841	0.099421	0.666366
	H30	H	0.788050	0.098058	0.336952
	H31	H	0.790158	0.902936	0.666530
	H32	H	0.338190	0.214820	0.902219
	H33	H	0.663970	0.216916	0.105113
	H34	H	0.338910	0.782348	0.103052
	H35	H	0.664855	0.784853	0.902129
	H36	H	0.336746	0.902325	0.214327
	H37	H	0.666218	0.095659	0.214399
	H38	H	0.337202	0.096913	0.788869
	H39	H	0.666316	0.902902	0.790217
	H40	H	0.902832	0.214266	0.337536
	H41	H	0.103083	0.217238	0.665501
	H42	H	0.101237	0.785613	0.337310
	H43	H	0.902351	0.785328	0.664939
	H44	H	0.217573	0.337488	0.901943
	H45	H	0.217816	0.663165	0.100350
	H46	H	0.786159	0.337578	0.100069
	H47	H	0.784903	0.662309	0.900139
	H48	H	0.404651	0.117021	0.596970
	H49	H	0.600437	0.883818	0.592495
	H50	H	0.588191	0.114022	0.407578
	H51	H	0.409804	0.884654	0.406469
	H52	H	0.591804	0.416465	0.115756
	H53	H	0.583296	0.590129	0.888235
	H54	H	0.408053	0.585908	0.116909
	H55	H	0.413664	0.417917	0.889186
	H56	H	0.120060	0.590547	0.402206
	H57	H	0.882728	0.594897	0.600028
	H58	H	0.116808	0.413878	0.591884
	H59	H	0.879618	0.394795	0.404136
	H60	H	0.120569	0.406189	0.599059
	H61	H	0.885470	0.599900	0.588319
	H62	H	0.120616	0.603536	0.410445
	H63	H	0.888211	0.407212	0.422743
	H64	H	0.417151	0.595802	0.117707
	H65	H	0.595533	0.604814	0.880436
	H66	H	0.586798	0.401630	0.118435
	H67	H	0.417969	0.396889	0.883767
	H68	H	0.598260	0.114978	0.415308
	H69	H	0.597811	0.881890	0.601329
	H70	H	0.411854	0.114936	0.598374
	H71	H	0.408176	0.885456	0.411896
	H72	H	0.919938	0.613435	0.099387
	H73	H	0.096180	0.383084	0.101482
	H74	H	0.104155	0.620772	0.899026
	H75	H	0.912640	0.384171	0.903240
	H76	H	0.090891	0.913865	0.616764
	H77	H	0.085598	0.100162	0.384896
	H78	H	0.908745	0.091865	0.618480
	H79	H	0.906426	0.906466	0.382278
	H80	H	0.615570	0.082682	0.910249
	H81	H	0.381685	0.093819	0.102339
	H82	H	0.622742	0.901654	0.104878
	H83	H	0.385972	0.905049	0.915763
	H84	H	0.617031	0.899150	0.085681
	H85	H	0.384023	0.100510	0.087874
	H86	H	0.622465	0.098703	0.901951
	H87	H	0.385681	0.911015	0.908124
	H88	H	0.913040	0.094517	0.618970
	H89	H	0.102499	0.096233	0.381195
	H90	H	0.088715	0.902371	0.619161
	H91	H	0.908609	0.910436	0.384295
	H92	H	0.084373	0.613348	0.905883
	H93	H	0.089908	0.386806	0.092925
	H94	H	0.906332	0.613411	0.082283
	H95	H	0.909037	0.386747	0.914577
	H96	H	0.408953	0.114626	0.591611
	H97	H	0.591845	0.885148	0.595214
	H98	H	0.598811	0.118260	0.403446
	H99	H	0.404453	0.883245	0.408443
	H100	H	0.601684	0.405713	0.122322
	H101	H	0.602731	0.586494	0.882970
	H102	H	0.404453	0.597412	0.122327
	H103	H	0.398171	0.404757	0.879923
	H104	H	0.114842	0.590550	0.416934
	H105	H	0.887125	0.587357	0.591278
	H106	H	0.118227	0.403121	0.587373
	H107	H	0.885176	0.417845	0.401480
	H108	H	0.899434	0.620293	0.101689
	H109	H	0.100461	0.384489	0.091648
	H110	H	0.101210	0.613875	0.920041
	H111	H	0.900930	0.381732	0.906129
	H112	H	0.100480	0.906804	0.621056
	H113	H	0.091321	0.083049	0.388405
	H114	H	0.908035	0.095992	0.621286
	H115	H	0.910984	0.905997	0.383879
	H116	H	0.617035	0.099136	0.920604
	H117	H	0.388435	0.085206	0.089757
	H118	H	0.615094	0.916544	0.094021
	H119	H	0.382732	0.901596	0.907055
	C120	C	0.379619	0.007970	0.624175
	C121	C	0.624788	0.991303	0.625000
	C122	C	0.623504	0.008193	0.380866
	C123	C	0.379302	0.991819	0.379605
	C124	C	0.622485	0.378806	0.010152
	C125	C	0.622996	0.621518	0.993216
	C126	C	0.380980	0.621447	0.009986
	C127	C	0.380976	0.378521	0.993160
	C128	C	0.010057	0.622404	0.380397
	C129	C	0.993099	0.622960	0.622936
	C130	C	0.010096	0.379333	0.621817
	C131	C	0.992658	0.378937	0.380534
	C132	C	0.879957	0.508263	0.123163
	C133	C	0.123678	0.492326	0.123751
	C134	C	0.124477	0.508365	0.879538
	C135	C	0.879543	0.492005	0.879368
	C136	C	0.122192	0.879389	0.510136
	C137	C	0.122966	0.122578	0.493041
	C138	C	0.880689	0.122084	0.510350
	C139	C	0.880507	0.879160	0.492517
	C140	C	0.510120	0.121724	0.881190
	C141	C	0.492882	0.121475	0.123487
	C142	C	0.510059	0.877704	0.123433
	C143	C	0.493461	0.878401	0.881540
	C144	C	0.383066	0.885038	0.678504
	C145	C	0.621316	0.113869	0.680035
	C146	C	0.620718	0.885808	0.325828
	C147	C	0.382628	0.114288	0.324468
	C148	C	0.677041	0.381838	0.885880
	C149	C	0.677990	0.618171	0.116997
	C150	C	0.326753	0.617729	0.885366
	C151	C	0.326184	0.381570	0.117324
	C152	C	0.886883	0.677582	0.381136
	C153	C	0.116051	0.678738	0.621999
	C154	C	0.887364	0.323584	0.621132
	C155	C	0.115380	0.322996	0.380546
	C156	C	0.886579	0.382757	0.676594
	C157	C	0.116722	0.619522	0.677965
	C158	C	0.886312	0.618372	0.325503
	C159	C	0.116511	0.382746	0.326087
	C160	C	0.382212	0.676753	0.886204
	C161	C	0.621503	0.676077	0.116971
	C162	C	0.621276	0.322705	0.886759
	C163	C	0.381552	0.322764	0.116738
	C164	C	0.678310	0.885768	0.383974
	C165	C	0.680138	0.113687	0.623011
	C166	C	0.324142	0.885823	0.621557
	C167	C	0.324641	0.114314	0.382031
	C168	C	0.882649	0.385811	0.178394
	C169	C	0.121012	0.614883	0.178769
	C170	C	0.120927	0.385905	0.824439
	C171	C	0.883210	0.614615	0.824520
	C172	C	0.176726	0.882716	0.385905
	C173	C	0.178207	0.120144	0.617256
	C174	C	0.825119	0.119211	0.386548
	C175	C	0.827274	0.882293	0.616987
	C176	C	0.386882	0.176526	0.882730
	C177	C	0.615583	0.177859	0.123413
	C178	C	0.387120	0.821642	0.122108
	C179	C	0.616235	0.823210	0.882919
	C180	C	0.386199	0.880914	0.177749
	C181	C	0.616769	0.117655	0.177838
	C182	C	0.386280	0.117619	0.826634
	C183	C	0.617091	0.881966	0.827228
	C184	C	0.882130	0.177001	0.386803
	C185	C	0.122324	0.178818	0.616645
	C186	C	0.120354	0.824477	0.386065
	C187	C	0.882693	0.823752	0.616128
	C188	C	0.179086	0.385770	0.882098
	C189	C	0.179679	0.614587	0.121093
	C190	C	0.824413	0.385965	0.120606
	C191	C	0.823879	0.614166	0.880921
	C192	C	0.401875	0.093412	0.602442
	C193	C	0.603219	0.905801	0.602732
	C194	C	0.601527	0.093803	0.402546
	C195	C	0.401129	0.906488	0.402161
	C196	C	0.600127	0.401263	0.096582
	C197	C	0.600468	0.600048	0.906246
	C198	C	0.403222	0.599568	0.096641
	C199	C	0.403218	0.400280	0.906607
	C200	C	0.096225	0.601049	0.403168
	C201	C	0.907089	0.600720	0.599803
	C202	C	0.096227	0.401257	0.599408
	C203	C	0.906627	0.400271	0.402872
	C204	C	0.902034	0.593682	0.100927
	C205	C	0.102026	0.406794	0.101731
	C206	C	0.102984	0.593966	0.901849
	C207	C	0.901105	0.406365	0.901542
	C208	C	0.099928	0.901208	0.596621
	C209	C	0.099918	0.099895	0.407101
	C210	C	0.903334	0.100292	0.597149
	C211	C	0.902249	0.901105	0.405798
	C212	C	0.596090	0.100093	0.904131
	C213	C	0.406974	0.099515	0.100310
	C214	C	0.596126	0.899504	0.101252
	C215	C	0.407203	0.899798	0.903598
	Zn216	Zn	0.502083	-0.000717	0.753299
	Zn217	Zn	0.501336	-0.000504	0.251149
	Zn218	Zn	0.750519	0.500292	0.001213
	Zn219	Zn	0.253204	0.500008	0.001592
	Zn220	Zn	0.001316	0.751203	0.501078
	Zn221	Zn	0.001603	0.250588	0.501327
	Zn222	Zn	0.001919	0.500505	0.750591
	Zn223	Zn	0.001750	0.500263	0.252871
	Zn224	Zn	0.501526	0.749564	0.001978
	Zn225	Zn	0.501618	0.250646	0.002452
	Zn226	Zn	0.753099	0.000093	0.502186
	Zn227	Zn	0.250477	0.000503	0.501949
	N228	N	0.417006	0.961932	0.680190
	N229	N	0.587366	0.036956	0.681253
	N230	N	0.587186	0.962866	0.324004
	N231	N	0.416068	0.037258	0.323142
	N232	N	0.677713	0.416157	0.963610
	N233	N	0.678823	0.584994	0.038961
	N234	N	0.325787	0.584059	0.963352
	N235	N	0.325487	0.415618	0.039593
	N236	N	0.964579	0.679995	0.414774
	N237	N	0.038016	0.681039	0.588659
	N238	N	0.965232	0.321151	0.587973
	N239	N	0.037496	0.320296	0.413521
	N240	N	0.963926	0.416883	0.677027
	N241	N	0.039400	0.585473	0.678536
	N242	N	0.963988	0.584870	0.324930
	N243	N	0.039256	0.417001	0.325996
	N244	N	0.415289	0.679094	0.964725
	N245	N	0.587904	0.678214	0.038739
	N246	N	0.588122	0.320827	0.965055
	N247	N	0.415148	0.321031	0.038675
	N248	N	0.680177	0.962953	0.417406
	N249	N	0.682582	0.036430	0.589788
	N250	N	0.321722	0.963299	0.588681
	N251	N	0.322428	0.037178	0.415655
	N252	N	0.916156	0.462926	0.180316
	N253	N	0.087082	0.537944	0.180556
	N254	N	0.087629	0.463055	0.822789
	N255	N	0.917244	0.537721	0.823644
	N256	N	0.177859	0.916258	0.464030
	N257	N	0.178892	0.085778	0.539705
	N258	N	0.824208	0.085647	0.464618
	N259	N	0.825860	0.916242	0.539178
	N260	N	0.464827	0.179335	0.915705
	N261	N	0.537653	0.180215	0.090118
	N262	N	0.465098	0.819353	0.089210
	N263	N	0.538398	0.820995	0.916047
	N264	N	0.463650	0.915033	0.178622
	N265	N	0.539577	0.083127	0.177940
	N266	N	0.464113	0.084398	0.825208
	N267	N	0.539587	0.915701	0.826321
	N268	N	0.915693	0.178939	0.464883
	N269	N	0.088449	0.180326	0.538560
	N270	N	0.087191	0.822222	0.464254
	N271	N	0.915009	0.821698	0.537612
	N272	N	0.181479	0.462916	0.915524
	N273	N	0.181397	0.537373	0.087589
	N274	N	0.822622	0.463102	0.087066
	N275	N	0.821560	0.536964	0.914341
	O276	O	0.981173	0.976633	0.014653
	H277	H	0.990712	0.971454	0.009411
	H278	H	0.983828	0.979806	0.010452
	O279	O	-0.010723	0.031199	0.001476
	H280	H	-0.008271	0.025829	-0.000870
	H281	H	-0.020631	0.027661	0.005853
	O282	O	0.008545	-0.016956	0.971871
	H283	H	0.004201	-0.021275	0.968785
	H284	H	0.003339	-0.015355	0.955870
	O285	O	0.483618	0.405546	0.451743
	H286	H	0.476376	0.404152	0.454066
	H287	H	0.481308	0.407563	0.455324
	O288	O	0.516586	0.442820	0.501994
	H289	H	0.520320	0.432579	0.504840
	H290	H	0.511701	0.449586	0.492264
	O291	O	0.490406	0.456772	0.481345
	H292	H	0.495706	0.447563	0.474217
	H293	H	0.485759	0.460380	0.481680
	O294	O	0.079423	0.027372	-0.009652
	H295	H	0.088035	0.038624	-0.016807
	H296	H	0.073120	0.028308	-0.012033
	O297	O	0.439371	0.473851	0.480826
	H298	H	0.436020	0.486348	0.477611
	H299	H	0.445920	0.471920	0.490177
	O300	O	0.007753	1.020074	0.884734
	H301	H	0.011371	1.010714	0.890412
	H302	H	0.002420	1.019483	0.878269
	O303	O	0.480892	0.447281	0.464135
	H304	H	0.487108	0.440028	0.466683
	H305	H	0.476155	0.436530	0.461681
	O306	O	-0.062042	-0.006518	0.977060
	H307	H	-0.056816	-0.009052	0.968620
	H308	H	-0.063932	-0.000400	0.985346
	O309	O	1.031136	1.012270	0.970483
	H310	H	1.038168	1.014939	0.978361
	H311	H	1.041560	1.011965	0.962036
	O312	O	0.508402	0.452344	0.538450
	H313	H	0.515019	0.444806	0.541603
	H314	H	0.513019	0.452535	0.532244
	O315	O	0.432354	0.449751	0.516130
	H316	H	0.429067	0.447497	0.519632
	H317	H	0.430737	0.452535	0.508872
	O318	O	-0.021663	0.954849	0.032039
	H319	H	-0.035077	0.959554	0.035001
	H320	H	-0.008178	0.943146	0.047881
	O321	O	1.036657	0.983829	-0.100034
	H322	H	1.023347	0.980468	-0.095544
	H323	H	1.037942	0.988192	-0.100625
