data_Molecule from HDF5

_cell_length_a		16.300103
_cell_length_b		16.220298
_cell_length_c		16.331847
_cell_angle_alpha	90.031502
_cell_angle_beta	89.951569
_cell_angle_gamma	90.245729
_symmetry_space_group_name_H-M	'P 1'
_symmetry_Int_Tables_number		1

loop_
	_symmetry_equiv_pos_as_xyz
	x,y,z

loop_
	_atom_site_label
	_atom_site_type_symbol
	_atom_site_fract_x
	_atom_site_fract_y
	_atom_site_fract_z
	H0	H	0.401587	0.842612	0.717434
	H1	H	0.600281	0.169628	0.715532
	H2	H	0.599351	0.841544	0.287782
	H3	H	0.403333	0.169425	0.287461
	H4	H	0.717714	0.405679	0.840301
	H5	H	0.717322	0.605614	0.165476
	H6	H	0.287687	0.604128	0.839289
	H7	H	0.287436	0.406879	0.164769
	H8	H	0.838167	0.717728	0.405993
	H9	H	0.165859	0.720890	0.600731
	H10	H	0.838924	0.290652	0.601111
	H11	H	0.166304	0.291593	0.405048
	H12	H	0.840612	0.404253	0.719812
	H13	H	0.166006	0.605154	0.717768
	H14	H	0.839313	0.604754	0.287063
	H15	H	0.166546	0.406237	0.287819
	H16	H	0.405770	0.719304	0.837874
	H17	H	0.601428	0.721368	0.165160
	H18	H	0.599138	0.293259	0.838064
	H19	H	0.403023	0.290028	0.164306
	H20	H	0.716350	0.841785	0.401487
	H21	H	0.715375	0.170428	0.599250
	H22	H	0.286567	0.841623	0.600705
	H23	H	0.287734	0.169977	0.403255
	H24	H	0.902414	0.340708	0.218674
	H25	H	0.101359	0.669047	0.216739
	H26	H	0.101151	0.342213	0.788243
	H27	H	0.903087	0.668456	0.787793
	H28	H	0.215797	0.906216	0.339768
	H29	H	0.217613	0.106371	0.665044
	H30	H	0.788247	0.103240	0.338587
	H31	H	0.783396	0.904849	0.665017
	H32	H	0.338624	0.218622	0.904581
	H33	H	0.666485	0.219630	0.097236
	H34	H	0.338578	0.791302	0.099162
	H35	H	0.666547	0.793024	0.903605
	H36	H	0.339035	0.905237	0.216919
	H37	H	0.664319	0.107988	0.219003
	H38	H	0.339236	0.105542	0.786752
	H39	H	0.665235	0.907068	0.784964
	H40	H	0.903813	0.219961	0.339545
	H41	H	0.099585	0.219398	0.665906
	H42	H	0.097837	0.791920	0.339556
	H43	H	0.901754	0.790371	0.666798
	H44	H	0.215372	0.342113	0.904096
	H45	H	0.217434	0.669403	0.101521
	H46	H	0.786478	0.340825	0.101959
	H47	H	0.789782	0.669522	0.905810
	H48	H	0.409596	0.123698	0.597880
	H49	H	0.593013	0.889990	0.586838
	H50	H	0.601954	0.124769	0.409278
	H51	H	0.408991	0.889284	0.409378
	H52	H	0.598014	0.411524	0.119712
	H53	H	0.602103	0.591472	0.886228
	H54	H	0.413465	0.591423	0.115090
	H55	H	0.416241	0.409975	0.886785
	H56	H	0.116649	0.594567	0.413564
	H57	H	0.887560	0.592360	0.597917
	H58	H	0.117681	0.418853	0.596303
	H59	H	0.882828	0.400567	0.410281
	H60	H	0.121784	0.409964	0.601565
	H61	H	0.884062	0.598978	0.601189
	H62	H	0.119316	0.597387	0.403525
	H63	H	0.891712	0.417989	0.420386
	H64	H	0.413717	0.606398	0.118919
	H65	H	0.588161	0.597206	0.889801
	H66	H	0.593159	0.417242	0.116613
	H67	H	0.402429	0.406444	0.881710
	H68	H	0.590471	0.122824	0.402940
	H69	H	0.597087	0.886924	0.597261
	H70	H	0.412648	0.121504	0.592734
	H71	H	0.406716	0.888000	0.410048
	H72	H	0.908422	0.620827	0.094041
	H73	H	0.089701	0.389522	0.096247
	H74	H	0.096721	0.622280	0.912878
	H75	H	0.909812	0.388712	0.911774
	H76	H	0.104988	0.913188	0.621787
	H77	H	0.089757	0.098406	0.388392
	H78	H	0.912043	0.088963	0.614656
	H79	H	0.909306	0.903676	0.384902
	H80	H	0.620023	0.102596	0.908128
	H81	H	0.387199	0.093718	0.094198
	H82	H	0.615759	0.923578	0.096143
	H83	H	0.387840	0.915143	0.910681
	H84	H	0.621954	0.909896	0.103201
	H85	H	0.384772	0.097356	0.098640
	H86	H	0.617217	0.097172	0.910317
	H87	H	0.385515	0.913355	0.905274
	H88	H	0.912192	0.106154	0.619962
	H89	H	0.097114	0.102727	0.384140
	H90	H	0.090186	0.921804	0.615650
	H91	H	0.901367	0.915842	0.386690
	H92	H	0.096374	0.623882	0.908291
	H93	H	0.098759	0.388911	0.091066
	H94	H	0.910077	0.622359	0.098920
	H95	H	0.908758	0.388459	0.911620
	H96	H	0.406377	0.122512	0.592416
	H97	H	0.586669	0.890196	0.596290
	H98	H	0.591162	0.119677	0.416128
	H99	H	0.407266	0.888504	0.407826
	H100	H	0.589869	0.409913	0.118452
	H101	H	0.598980	0.606139	0.882612
	H102	H	0.400911	0.598592	0.120421
	H103	H	0.405584	0.420032	0.887215
	H104	H	0.120489	0.604255	0.411738
	H105	H	0.886749	0.598731	0.593756
	H106	H	0.118493	0.408676	0.590941
	H107	H	0.886079	0.419733	0.398914
	H108	H	0.913741	0.619734	0.095408
	H109	H	0.098193	0.385737	0.101156
	H110	H	0.092629	0.622616	0.909715
	H111	H	0.909661	0.388015	0.910505
	H112	H	0.089225	0.904582	0.620344
	H113	H	0.097804	0.094070	0.386869
	H114	H	0.897008	0.097158	0.621321
	H115	H	0.914896	0.915598	0.390917
	H116	H	0.619831	0.097435	0.903823
	H117	H	0.386127	0.100014	0.093075
	H118	H	0.616825	0.909414	0.087178
	H119	H	0.385879	0.909885	0.910052
	C120	C	0.380218	0.014188	0.623587
	C121	C	0.622407	0.997145	0.622362
	C122	C	0.622659	0.014102	0.380383
	C123	C	0.379803	0.997303	0.380541
	C124	C	0.622684	0.384394	0.010573
	C125	C	0.625027	0.627748	0.993920
	C126	C	0.381193	0.626987	0.009994
	C127	C	0.379920	0.383503	0.993050
	C128	C	0.010524	0.627018	0.381331
	C129	C	0.994139	0.626321	0.625295
	C130	C	0.011240	0.383529	0.624641
	C131	C	0.994629	0.383809	0.381104
	C132	C	0.880946	0.513023	0.124917
	C133	C	0.124184	0.496648	0.124355
	C134	C	0.123335	0.514654	0.881994
	C135	C	0.880610	0.496592	0.882002
	C136	C	0.122859	0.884583	0.511288
	C137	C	0.123499	0.127154	0.494181
	C138	C	0.879739	0.126252	0.510735
	C139	C	0.878670	0.882768	0.494649
	C140	C	0.510741	0.127258	0.879615
	C141	C	0.493771	0.127101	0.123475
	C142	C	0.510454	0.884633	0.123669
	C143	C	0.494371	0.884206	0.879723
	C144	C	0.381389	0.891284	0.679560
	C145	C	0.620682	0.120879	0.677515
	C146	C	0.620201	0.890620	0.325090
	C147	C	0.382725	0.120411	0.325275
	C148	C	0.678988	0.385893	0.888434
	C149	C	0.679794	0.625819	0.116535
	C150	C	0.325946	0.624509	0.887599
	C151	C	0.325202	0.385940	0.116095
	C152	C	0.887302	0.680840	0.384725
	C153	C	0.117126	0.682445	0.621619
	C154	C	0.888094	0.328390	0.621970
	C155	C	0.117553	0.328879	0.383789
	C156	C	0.888946	0.384510	0.681085
	C157	C	0.117358	0.625140	0.679821
	C158	C	0.888046	0.624732	0.325527
	C159	C	0.117684	0.386074	0.325801
	C160	C	0.384902	0.681479	0.886886
	C161	C	0.621991	0.683277	0.116477
	C162	C	0.619805	0.330297	0.887379
	C163	C	0.382420	0.327829	0.115699
	C164	C	0.678255	0.890784	0.381693
	C165	C	0.677890	0.121140	0.619797
	C166	C	0.324433	0.890766	0.621195
	C167	C	0.325503	0.120826	0.382997
	C168	C	0.882194	0.389645	0.180603
	C169	C	0.121676	0.620263	0.178937
	C170	C	0.120953	0.390885	0.826649
	C171	C	0.883055	0.619769	0.826394
	C172	C	0.177730	0.886250	0.388500
	C173	C	0.179244	0.125872	0.616495
	C174	C	0.825614	0.123807	0.387531
	C175	C	0.822274	0.884790	0.616954
	C176	C	0.387712	0.181538	0.883267
	C177	C	0.617249	0.182572	0.119617
	C178	C	0.387437	0.829111	0.120154
	C179	C	0.617390	0.829994	0.882268
	C180	C	0.387545	0.885848	0.178682
	C181	C	0.616187	0.127108	0.179802
	C182	C	0.387942	0.125249	0.824906
	C183	C	0.616620	0.886606	0.823406
	C184	C	0.883094	0.182052	0.388034
	C185	C	0.120511	0.181863	0.617168
	C186	C	0.119180	0.829390	0.388466
	C187	C	0.880679	0.827591	0.617661
	C188	C	0.177949	0.391194	0.883825
	C189	C	0.179251	0.620404	0.121667
	C190	C	0.824676	0.389766	0.122680
	C191	C	0.826471	0.620141	0.884769
	C192	C	0.402901	0.100385	0.601012
	C193	C	0.599280	0.911337	0.599939
	C194	C	0.600839	0.100191	0.402853
	C195	C	0.401387	0.910905	0.402495
	C196	C	0.600388	0.406553	0.096167
	C197	C	0.602878	0.605086	0.908266
	C198	C	0.402950	0.605209	0.095736
	C199	C	0.401577	0.405643	0.907354
	C200	C	0.096522	0.605234	0.403233
	C201	C	0.908276	0.603392	0.603974
	C202	C	0.097121	0.406040	0.602764
	C203	C	0.909057	0.405934	0.403519
	C204	C	0.903952	0.598860	0.102569
	C205	C	0.102044	0.410280	0.102717
	C206	C	0.101554	0.600706	0.903848
	C207	C	0.903097	0.410641	0.904412
	C208	C	0.101151	0.906863	0.597140
	C209	C	0.101307	0.104866	0.408610
	C210	C	0.900900	0.103980	0.596550
	C211	C	0.901708	0.904988	0.409288
	C212	C	0.596779	0.105479	0.901077
	C213	C	0.408259	0.103896	0.101738
	C214	C	0.596152	0.907661	0.101992
	C215	C	0.408534	0.906091	0.902208
	Zn216	Zn	0.501886	0.006220	0.751327
	Zn217	Zn	0.501741	0.005736	0.252523
	Zn218	Zn	0.752106	0.504972	0.003073
	Zn219	Zn	0.251804	0.505723	0.002482
	Zn220	Zn	0.001625	0.754978	0.504002
	Zn221	Zn	0.002401	0.255022	0.502519
	Zn222	Zn	0.002915	0.504986	0.754177
	Zn223	Zn	0.003122	0.504766	0.252845
	Zn224	Zn	0.503238	0.756061	0.001711
	Zn225	Zn	0.502307	0.255246	0.001070
	Zn226	Zn	0.750366	0.005009	0.501646
	Zn227	Zn	0.251841	0.006103	0.502326
	N228	N	0.415323	0.969070	0.680936
	N229	N	0.587048	0.042949	0.679331
	N230	N	0.586529	0.968287	0.324201
	N231	N	0.415843	0.042585	0.323679
	N232	N	0.680792	0.418879	0.966130
	N233	N	0.681763	0.592076	0.039288
	N234	N	0.323466	0.591644	0.965100
	N235	N	0.323362	0.419592	0.038886
	N236	N	0.964372	0.682340	0.418795
	N237	N	0.039463	0.683362	0.588764
	N238	N	0.965166	0.327415	0.587701
	N239	N	0.040158	0.327338	0.417651
	N240	N	0.966513	0.418306	0.682719
	N241	N	0.039909	0.590806	0.682107
	N242	N	0.965869	0.591967	0.323199
	N243	N	0.040242	0.419505	0.324169
	N244	N	0.418548	0.683121	0.964112
	N245	N	0.588658	0.684578	0.039133
	N246	N	0.585731	0.329042	0.964389
	N247	N	0.415891	0.326132	0.038312
	N248	N	0.680046	0.968598	0.415313
	N249	N	0.678850	0.043339	0.586072
	N250	N	0.323740	0.968304	0.587156
	N251	N	0.323486	0.043133	0.416574
	N252	N	0.916451	0.467323	0.182214
	N253	N	0.087913	0.542391	0.180522
	N254	N	0.087633	0.468787	0.825208
	N255	N	0.916079	0.541966	0.824595
	N256	N	0.179939	0.919910	0.465842
	N257	N	0.181063	0.092411	0.539093
	N258	N	0.823541	0.089876	0.464721
	N259	N	0.820909	0.918260	0.539584
	N260	N	0.465024	0.182662	0.916827
	N261	N	0.540144	0.182822	0.085514
	N262	N	0.464801	0.828360	0.086444
	N263	N	0.540410	0.828640	0.916746
	N264	N	0.464995	0.919839	0.180636
	N265	N	0.538646	0.093258	0.182216
	N266	N	0.465445	0.092106	0.822602
	N267	N	0.539015	0.919548	0.821770
	N268	N	0.915812	0.183754	0.465627
	N269	N	0.086326	0.182544	0.540140
	N270	N	0.085683	0.828373	0.465859
	N271	N	0.915179	0.826271	0.540707
	N272	N	0.179280	0.468766	0.917786
	N273	N	0.180972	0.542554	0.088545
	N274	N	0.823768	0.467332	0.088745
	N275	N	0.824942	0.542416	0.918750
	O276	O	0.607229	0.473715	0.421924
	H277	H	0.618563	0.468545	0.417310
	H278	H	0.617431	0.477209	0.427891
	O279	O	0.000585	-0.060252	0.048238
	H280	H	0.006806	-0.061205	0.041566
	H281	H	-0.004901	-0.061553	0.048995
	O282	O	0.564731	0.542696	0.462870
	H283	H	0.569004	0.536709	0.467605
	H284	H	0.570989	0.538349	0.460423
	O285	O	0.564354	0.457027	0.470868
	H286	H	0.563958	0.461657	0.468144
	H287	H	0.566203	0.458878	0.470422
	O288	O	0.975053	-0.020405	0.075897
	H289	H	0.981573	-0.018355	0.070331
	H290	H	0.972807	-0.029383	0.086282
	O291	O	-0.406747	0.512772	-0.508883
	H292	H	-0.393155	0.513223	-0.514677
	H293	H	-0.410005	0.518665	-0.510700
	O294	O	0.607127	0.535789	0.512908
	H295	H	0.610274	0.542655	0.519768
	H296	H	0.599123	0.533488	0.519177
	O297	O	0.031907	0.996552	0.047673
	H298	H	0.034136	0.987211	0.054739
	H299	H	0.037977	0.991680	0.045185
	O300	O	0.981135	0.015684	1.020057
	H301	H	0.981964	0.015669	1.020773
	H302	H	0.975590	0.014298	1.020393
	O303	O	0.548465	0.547430	0.477035
	H304	H	0.549706	0.552325	0.465539
	H305	H	0.543326	0.553529	0.474679
	O306	O	0.009230	0.980590	1.061098
	H307	H	0.003280	0.980668	1.058143
	H308	H	0.010326	0.992010	1.066253
	O309	O	0.569712	0.564721	0.501769
	H310	H	0.559851	0.556871	0.496408
	H311	H	0.572655	0.563404	0.502222
