data_Molecule from HDF5

_cell_length_a		16.146711
_cell_length_b		16.299117
_cell_length_c		16.318051
_cell_angle_alpha	90.215494
_cell_angle_beta	89.804634
_cell_angle_gamma	89.988063
_symmetry_space_group_name_H-M	'P 1'
_symmetry_Int_Tables_number		1

loop_
	_symmetry_equiv_pos_as_xyz
	x,y,z

loop_
	_atom_site_label
	_atom_site_type_symbol
	_atom_site_fract_x
	_atom_site_fract_y
	_atom_site_fract_z
	H0	H	0.405568	0.844291	0.710550
	H1	H	0.607453	0.169815	0.708124
	H2	H	0.608715	0.844143	0.275467
	H3	H	0.407221	0.170169	0.278130
	H4	H	0.721833	0.410373	0.828265
	H5	H	0.723635	0.607542	0.156086
	H6	H	0.295291	0.604585	0.828205
	H7	H	0.294627	0.412102	0.156741
	H8	H	0.843558	0.719454	0.394909
	H9	H	0.172719	0.722321	0.591539
	H10	H	0.843501	0.294653	0.590734
	H11	H	0.172565	0.291668	0.391775
	H12	H	0.845235	0.406005	0.708060
	H13	H	0.172942	0.606662	0.706450
	H14	H	0.844470	0.605621	0.278747
	H15	H	0.172851	0.406029	0.276563
	H16	H	0.409902	0.722938	0.829325
	H17	H	0.606979	0.723608	0.156259
	H18	H	0.611529	0.288610	0.830922
	H19	H	0.408538	0.293691	0.156495
	H20	H	0.720820	0.842461	0.394881
	H21	H	0.720600	0.170121	0.590621
	H22	H	0.292285	0.843017	0.591568
	H23	H	0.295906	0.171186	0.398870
	H24	H	0.908054	0.343526	0.207006
	H25	H	0.107880	0.669689	0.207348
	H26	H	0.110120	0.343956	0.775342
	H27	H	0.908611	0.669353	0.776636
	H28	H	0.223186	0.909104	0.329070
	H29	H	0.219589	0.105141	0.656934
	H30	H	0.794538	0.102092	0.328520
	H31	H	0.792928	0.909964	0.656389
	H32	H	0.343992	0.221266	0.896676
	H33	H	0.673465	0.221164	0.092236
	H34	H	0.343694	0.795078	0.092301
	H35	H	0.673074	0.792005	0.891475
	H36	H	0.343707	0.909000	0.207327
	H37	H	0.673134	0.105647	0.206827
	H38	H	0.343904	0.107537	0.779710
	H39	H	0.672376	0.906730	0.776666
	H40	H	0.907692	0.221995	0.329166
	H41	H	0.106180	0.223699	0.655076
	H42	H	0.108065	0.791765	0.328459
	H43	H	0.905737	0.790080	0.655069
	H44	H	0.223651	0.343762	0.893514
	H45	H	0.220109	0.671698	0.089762
	H46	H	0.794552	0.343622	0.089216
	H47	H	0.795446	0.671076	0.895734
	H48	H	0.409756	0.125025	0.589297
	H49	H	0.607366	0.889173	0.579040
	H50	H	0.599657	0.121781	0.404586
	H51	H	0.422859	0.892567	0.398866
	H52	H	0.601318	0.407103	0.111525
	H53	H	0.597867	0.601285	0.877929
	H54	H	0.404410	0.607879	0.112218
	H55	H	0.419661	0.412913	0.877067
	H56	H	0.126775	0.596075	0.393620
	H57	H	0.888397	0.609490	0.582926
	H58	H	0.129591	0.421522	0.601262
	H59	H	0.891437	0.409540	0.406501
	H60	H	0.130712	0.395818	0.579226
	H61	H	0.895134	0.592342	0.578018
	H62	H	0.127833	0.605276	0.400875
	H63	H	0.893296	0.422925	0.398678
	H64	H	0.413668	0.593008	0.106907
	H65	H	0.603473	0.603545	0.875213
	H66	H	0.607971	0.418698	0.109448
	H67	H	0.415485	0.411860	0.876420
	H68	H	0.604508	0.125008	0.397488
	H69	H	0.600323	0.886772	0.596240
	H70	H	0.417434	0.123080	0.591585
	H71	H	0.412595	0.891722	0.405224
	H72	H	0.919866	0.623886	0.089413
	H73	H	0.102730	0.389386	0.085891
	H74	H	0.110580	0.624347	0.905717
	H75	H	0.917127	0.390976	0.898193
	H76	H	0.093210	0.914627	0.606644
	H77	H	0.099601	0.097677	0.377296
	H78	H	0.911794	0.102126	0.609320
	H79	H	0.907848	0.904503	0.371957
	H80	H	0.628176	0.101795	0.897181
	H81	H	0.392349	0.099286	0.084517
	H82	H	0.626671	0.910075	0.080258
	H83	H	0.390491	0.911941	0.903004
	H84	H	0.624029	0.921216	0.082811
	H85	H	0.390021	0.099532	0.089949
	H86	H	0.625048	0.099937	0.905730
	H87	H	0.392469	0.917822	0.904784
	H88	H	0.914690	0.100160	0.608242
	H89	H	0.099889	0.101785	0.376365
	H90	H	0.100084	0.909089	0.610118
	H91	H	0.911357	0.921989	0.378465
	H92	H	0.102171	0.627492	0.887034
	H93	H	0.100084	0.390584	0.086183
	H94	H	0.917314	0.621673	0.082971
	H95	H	0.916902	0.390376	0.899413
	H96	H	0.415131	0.121531	0.583938
	H97	H	0.589974	0.893695	0.583159
	H98	H	0.596299	0.122953	0.396531
	H99	H	0.412463	0.887519	0.394054
	H100	H	0.594617	0.417815	0.106386
	H101	H	0.603107	0.596901	0.877229
	H102	H	0.422572	0.608748	0.109079
	H103	H	0.416739	0.415297	0.877251
	H104	H	0.123961	0.595876	0.404792
	H105	H	0.889357	0.595692	0.596034
	H106	H	0.119346	0.426771	0.569447
	H107	H	0.886991	0.410177	0.391458
	H108	H	0.913199	0.624848	0.087985
	H109	H	0.101702	0.390025	0.083439
	H110	H	0.090479	0.618550	0.903168
	H111	H	0.915740	0.390630	0.898017
	H112	H	0.101311	0.917726	0.607172
	H113	H	0.103027	0.099294	0.376131
	H114	H	0.915036	0.104080	0.608965
	H115	H	0.924722	0.908935	0.377850
	H116	H	0.623953	0.093330	0.898814
	H117	H	0.389249	0.104483	0.086531
	H118	H	0.628449	0.913995	0.091561
	H119	H	0.390794	0.916416	0.898812
	C120	C	0.384739	0.015447	0.616658
	C121	C	0.628304	0.998123	0.614528
	C122	C	0.629351	0.015207	0.370622
	C123	C	0.386874	0.998580	0.371585
	C124	C	0.630588	0.385459	0.001297
	C125	C	0.630202	0.629463	0.984614
	C126	C	0.385910	0.630219	0.000966
	C127	C	0.387318	0.385830	0.984905
	C128	C	0.017407	0.627729	0.371015
	C129	C	0.999810	0.628446	0.614022
	C130	C	0.017287	0.385999	0.612562
	C131	C	0.999585	0.385185	0.370076
	C132	C	0.886948	0.515561	0.114641
	C133	C	0.130333	0.498227	0.114041
	C134	C	0.130517	0.515710	0.869748
	C135	C	0.887717	0.498510	0.870614
	C136	C	0.128772	0.885241	0.500346
	C137	C	0.129103	0.128966	0.484270
	C138	C	0.885281	0.129298	0.500847
	C139	C	0.885460	0.884107	0.483937
	C140	C	0.517128	0.127839	0.872411
	C141	C	0.499671	0.129430	0.115508
	C142	C	0.517189	0.886643	0.113966
	C143	C	0.499993	0.885948	0.871831
	C144	C	0.386052	0.892711	0.672011
	C145	C	0.626897	0.121106	0.669792
	C146	C	0.627961	0.892661	0.314407
	C147	C	0.388376	0.121593	0.316750
	C148	C	0.685349	0.388662	0.877860
	C149	C	0.685439	0.627494	0.107397
	C150	C	0.332224	0.626134	0.877419
	C151	C	0.331761	0.390221	0.107739
	C152	C	0.893189	0.682435	0.374160
	C153	C	0.123551	0.684402	0.611700
	C154	C	0.893137	0.331554	0.610661
	C155	C	0.123349	0.329337	0.371524
	C156	C	0.893808	0.387120	0.668943
	C157	C	0.123892	0.626627	0.668654
	C158	C	0.893522	0.625659	0.316542
	C159	C	0.123676	0.386476	0.314460
	C160	C	0.389003	0.685055	0.877968
	C161	C	0.627689	0.685459	0.107529
	C162	C	0.629792	0.328649	0.878959
	C163	C	0.388889	0.331639	0.107900
	C164	C	0.683690	0.891785	0.373650
	C165	C	0.683172	0.121260	0.611383
	C166	C	0.329893	0.892103	0.612775
	C167	C	0.332907	0.122259	0.376686
	C168	C	0.888205	0.392684	0.169260
	C169	C	0.128337	0.621056	0.169478
	C170	C	0.129392	0.392592	0.813853
	C171	C	0.888840	0.621063	0.814871
	C172	C	0.184997	0.888331	0.377566
	C173	C	0.182783	0.126147	0.607603
	C174	C	0.831432	0.124345	0.377473
	C175	C	0.830025	0.888155	0.607345
	C176	C	0.393155	0.183777	0.875594
	C177	C	0.624116	0.183521	0.112427
	C178	C	0.393070	0.832101	0.112476
	C179	C	0.623509	0.829842	0.871929
	C180	C	0.393068	0.888984	0.169363
	C181	C	0.623800	0.126480	0.169645
	C182	C	0.393071	0.126984	0.817571
	C183	C	0.623192	0.887132	0.814857
	C184	C	0.887676	0.184025	0.378001
	C185	C	0.126395	0.185110	0.606690
	C186	C	0.127690	0.829992	0.377380
	C187	C	0.886338	0.828750	0.606589
	C188	C	0.186086	0.392452	0.872452
	C189	C	0.183690	0.622075	0.110410
	C190	C	0.831522	0.392752	0.110743
	C191	C	0.833055	0.622112	0.874458
	C192	C	0.407287	0.101121	0.594762
	C193	C	0.605695	0.912159	0.592652
	C194	C	0.606887	0.100963	0.392948
	C195	C	0.409371	0.912748	0.392978
	C196	C	0.607868	0.407798	0.086964
	C197	C	0.607933	0.607090	0.898947
	C198	C	0.407310	0.609448	0.087059
	C199	C	0.410472	0.407172	0.898833
	C200	C	0.103922	0.605396	0.393102
	C201	C	0.913372	0.605771	0.592079
	C202	C	0.104065	0.408420	0.589968
	C203	C	0.913133	0.407766	0.392213
	C204	C	0.910102	0.601470	0.093202
	C205	C	0.108029	0.412199	0.091792
	C206	C	0.107891	0.601186	0.892063
	C207	C	0.909945	0.412835	0.892161
	C208	C	0.105145	0.907428	0.585920
	C209	C	0.107285	0.106288	0.398730
	C210	C	0.907278	0.108322	0.586621
	C211	C	0.908147	0.905443	0.398188
	C212	C	0.603309	0.104921	0.894136
	C213	C	0.412947	0.107661	0.093448
	C214	C	0.603855	0.908545	0.091428
	C215	C	0.413553	0.908758	0.895292
	Zn216	Zn	0.507767	0.006800	0.744056
	Zn217	Zn	0.508094	0.007138	0.242202
	Zn218	Zn	0.759114	0.507631	-0.007610
	Zn219	Zn	0.258016	0.507361	-0.007752
	Zn220	Zn	0.007954	0.755613	0.492249
	Zn221	Zn	0.008166	0.258352	0.491994
	Zn222	Zn	0.008980	0.506291	0.741116
	Zn223	Zn	0.008895	0.506446	0.242930
	Zn224	Zn	0.508451	0.758807	-0.006817
	Zn225	Zn	0.509089	0.256358	-0.006283
	Zn226	Zn	0.756773	0.006509	0.493061
	Zn227	Zn	0.257634	0.006717	0.493229
	N228	N	0.419516	0.970322	0.674499
	N229	N	0.593388	0.043480	0.671739
	N230	N	0.594702	0.970271	0.312551
	N231	N	0.421238	0.043606	0.313613
	N232	N	0.685762	0.423423	0.954880
	N233	N	0.687269	0.593763	0.029963
	N234	N	0.330150	0.592866	0.954760
	N235	N	0.330952	0.423281	0.030302
	N236	N	0.971252	0.683834	0.407420
	N237	N	0.045338	0.685621	0.578599
	N238	N	0.971012	0.330965	0.576237
	N239	N	0.045338	0.328670	0.405689
	N240	N	0.972131	0.420251	0.670240
	N241	N	0.045965	0.592493	0.670216
	N242	N	0.971727	0.592190	0.314553
	N243	N	0.045598	0.420376	0.313309
	N244	N	0.421695	0.687706	0.955799
	N245	N	0.593939	0.686706	0.030203
	N246	N	0.596388	0.326589	0.956669
	N247	N	0.422596	0.328715	0.030340
	N248	N	0.684567	0.969021	0.408109
	N249	N	0.684110	0.043741	0.577662
	N250	N	0.328855	0.969349	0.579157
	N251	N	0.331755	0.044940	0.409961
	N252	N	0.921914	0.470204	0.171814
	N253	N	0.095707	0.543113	0.171776
	N254	N	0.095668	0.470137	0.812052
	N255	N	0.922190	0.543375	0.812517
	N256	N	0.185878	0.921765	0.455141
	N257	N	0.184703	0.091877	0.530526
	N258	N	0.829593	0.091217	0.454792
	N259	N	0.829118	0.921576	0.530116
	N260	N	0.471310	0.184563	0.908882
	N261	N	0.545768	0.185679	0.079679
	N262	N	0.471170	0.830589	0.078438
	N263	N	0.545913	0.829420	0.906980
	N264	N	0.471351	0.922254	0.170362
	N265	N	0.545467	0.093334	0.171582
	N266	N	0.471055	0.092933	0.815469
	N267	N	0.545124	0.921287	0.814787
	N268	N	0.920519	0.187329	0.455681
	N269	N	0.093896	0.187072	0.528879
	N270	N	0.093400	0.827960	0.454698
	N271	N	0.919850	0.825839	0.528966
	N272	N	0.186900	0.469819	0.906592
	N273	N	0.184973	0.544483	0.076624
	N274	N	0.830685	0.470280	0.077541
	N275	N	0.832089	0.544873	0.908123
	O276	O	1.061828	0.975798	-0.037510
	H277	H	1.058096	0.976103	-0.032366
	H278	H	1.068875	0.965251	-0.035020
	O279	O	0.030291	0.023703	0.958566
	H280	H	0.028434	0.029235	0.954273
	H281	H	0.026970	0.025376	0.948978
	O282	O	0.013741	-0.007981	-0.031086
	H283	H	0.019261	-0.015993	-0.044647
	H284	H	0.012440	-0.005145	-0.026251
	O285	O	0.520604	0.452099	0.382790
	H286	H	0.529603	0.449988	0.377680
	H287	H	0.521042	0.443427	0.383411
	O288	O	0.089919	-0.014376	-0.017325
	H289	H	0.088610	-0.017027	-0.017491
	H290	H	0.101913	-0.021187	-0.029061
	O291	O	-0.090426	1.010045	-0.016742
	H292	H	-0.097562	1.014438	-0.015292
	H293	H	-0.091220	1.014832	-0.009255
	O294	O	0.103442	0.936579	0.017986
	H295	H	0.107397	0.932140	0.007490
	H296	H	0.107744	0.942152	0.022201
	O297	O	0.572335	0.513500	0.515628
	H298	H	0.575376	0.519488	0.520075
	H299	H	0.577783	0.506182	0.510708
	O300	O	0.454611	0.507889	0.476949
	H301	H	0.447721	0.502864	0.475776
	H302	H	0.452520	0.504126	0.473346
	O303	O	1.051920	-0.004450	0.970748
	H304	H	1.052217	-0.003507	0.967302
	H305	H	1.054272	-0.005639	0.973401
	O306	O	-0.013471	0.942600	0.984517
	H307	H	-0.013668	0.942410	0.985678
	H308	H	-0.016217	0.940372	0.985332
	O309	O	-0.463684	0.546569	1.553648
	H310	H	-0.456598	0.545342	1.549897
	H311	H	-0.459826	0.550223	1.557206
	O312	O	0.021586	-0.004252	0.967499
	H313	H	0.026998	-0.000659	0.966038
	H314	H	0.019570	0.000567	0.970199
	O315	O	0.522356	0.488067	0.508053
	H316	H	0.519884	0.490922	0.505366
	H317	H	0.525224	0.490344	0.514795
	O318	O	0.035341	-0.092088	0.909295
	H319	H	0.029905	-0.096425	0.920943
	H320	H	0.035206	-0.091543	0.908947
	O321	O	0.540610	0.503243	0.450395
	H322	H	0.536140	0.511163	0.446200
	H323	H	0.541982	0.503547	0.458289
	O324	O	0.139932	-0.747634	1.174586
	H325	H	0.148953	-0.745973	1.174925
	H326	H	0.137434	-0.751449	1.179369
	O327	O	0.989158	0.978923	0.939610
	H328	H	0.995833	0.972055	0.940073
	H329	H	0.987161	0.976274	0.941098
	O330	O	0.482568	0.496254	0.529934
	H331	H	0.483318	0.495633	0.532042
	H332	H	0.482243	0.502910	0.520478
	O333	O	0.572812	0.521663	0.469711
	H334	H	0.574156	0.525291	0.474298
	H335	H	0.579769	0.532798	0.468627
	O336	O	0.564260	0.506104	0.531989
	H337	H	0.554974	0.504802	0.536123
	H338	H	0.566270	0.510366	0.540618
	O339	O	0.525606	0.541606	0.510906
	H340	H	0.519301	0.537120	0.507334
	H341	H	0.535451	0.545167	0.509082
	O342	O	0.523515	0.543668	0.533542
	H343	H	0.533971	0.541841	0.526204
	H344	H	0.521905	0.536589	0.540155
	O345	O	0.536733	0.470160	0.421698
	H346	H	0.541150	0.465294	0.414325
	H347	H	0.529832	0.469066	0.427124
