data_Molecule from HDF5

_cell_length_a		16.347684
_cell_length_b		16.348011
_cell_length_c		16.130902
_cell_angle_alpha	89.836240
_cell_angle_beta	89.771996
_cell_angle_gamma	89.662935
_symmetry_space_group_name_H-M	'P 1'
_symmetry_Int_Tables_number		1

loop_
	_symmetry_equiv_pos_as_xyz
	x,y,z

loop_
	_atom_site_label
	_atom_site_type_symbol
	_atom_site_fract_x
	_atom_site_fract_y
	_atom_site_fract_z
	H0	H	0.412406	0.835621	0.717733
	H1	H	0.605515	0.162672	0.718177
	H2	H	0.610625	0.837483	0.286623
	H3	H	0.410274	0.162257	0.288024
	H4	H	0.727866	0.394315	0.841158
	H5	H	0.721212	0.596582	0.168339
	H6	H	0.292646	0.600463	0.839392
	H7	H	0.290944	0.397084	0.166963
	H8	H	0.847819	0.717964	0.403696
	H9	H	0.172115	0.714375	0.604823
	H10	H	0.847593	0.281476	0.606569
	H11	H	0.171346	0.280677	0.400258
	H12	H	0.845832	0.400093	0.719911
	H13	H	0.172361	0.595640	0.717443
	H14	H	0.845189	0.598392	0.291099
	H15	H	0.172321	0.400591	0.287472
	H16	H	0.406184	0.715094	0.839938
	H17	H	0.608104	0.713949	0.167022
	H18	H	0.610473	0.283446	0.839511
	H19	H	0.406745	0.282067	0.167015
	H20	H	0.728274	0.837807	0.401042
	H21	H	0.724898	0.161888	0.604365
	H22	H	0.293165	0.836472	0.606629
	H23	H	0.289915	0.160544	0.400781
	H24	H	0.911793	0.335767	0.220773
	H25	H	0.103605	0.663288	0.216049
	H26	H	0.107890	0.336304	0.788890
	H27	H	0.908289	0.662292	0.789211
	H28	H	0.225944	0.898736	0.340223
	H29	H	0.221991	0.097311	0.667786
	H30	H	0.793481	0.101775	0.338962
	H31	H	0.794006	0.900056	0.667492
	H32	H	0.347868	0.218246	0.900632
	H33	H	0.670443	0.215690	0.105303
	H34	H	0.345918	0.782316	0.106707
	H35	H	0.669066	0.779415	0.900464
	H36	H	0.346533	0.900806	0.220881
	H37	H	0.672524	0.096726	0.217178
	H38	H	0.345948	0.097859	0.790057
	H39	H	0.671645	0.900085	0.789711
	H40	H	0.908898	0.216724	0.339062
	H41	H	0.108996	0.212866	0.667462
	H42	H	0.110370	0.784519	0.339392
	H43	H	0.910467	0.786642	0.668521
	H44	H	0.227665	0.338180	0.900669
	H45	H	0.224742	0.661105	0.105078
	H46	H	0.792193	0.335230	0.107476
	H47	H	0.790332	0.660732	0.904460
	H48	H	0.412577	0.117456	0.601437
	H49	H	0.600291	0.886208	0.592557
	H50	H	0.610207	0.113844	0.424788
	H51	H	0.424915	0.885783	0.410798
	H52	H	0.600167	0.404616	0.121951
	H53	H	0.592000	0.583561	0.890865
	H54	H	0.412942	0.591384	0.121453
	H55	H	0.421429	0.405141	0.887427
	H56	H	0.126835	0.596595	0.409150
	H57	H	0.892163	0.593477	0.601473
	H58	H	0.124921	0.393061	0.585628
	H59	H	0.894995	0.408495	0.414698
	H60	H	0.118630	0.418717	0.589634
	H61	H	0.893005	0.599199	0.593933
	H62	H	0.123670	0.590757	0.414334
	H63	H	0.894445	0.407578	0.413454
	H64	H	0.415249	0.587509	0.119980
	H65	H	0.598192	0.598266	0.885075
	H66	H	0.600180	0.408622	0.120117
	H67	H	0.413760	0.407279	0.884690
	H68	H	0.607499	0.121042	0.398216
	H69	H	0.607805	0.883911	0.594168
	H70	H	0.419132	0.112205	0.594196
	H71	H	0.416214	0.885978	0.420470
	H72	H	0.913473	0.612736	0.090607
	H73	H	0.089174	0.390267	0.086562
	H74	H	0.099302	0.614883	0.909283
	H75	H	0.912586	0.384261	0.919024
	H76	H	0.105140	0.900658	0.624526
	H77	H	0.103780	0.092835	0.384884
	H78	H	0.929702	0.089931	0.615282
	H79	H	0.913639	0.909195	0.384050
	H80	H	0.628994	0.095425	0.903329
	H81	H	0.393624	0.096712	0.090081
	H82	H	0.623756	0.905901	0.095590
	H83	H	0.389966	0.904289	0.907239
	H84	H	0.624329	0.901501	0.092249
	H85	H	0.397148	0.084568	0.091776
	H86	H	0.623304	0.096681	0.919306
	H87	H	0.392011	0.902820	0.914225
	H88	H	0.911902	0.100991	0.624783
	H89	H	0.102158	0.085103	0.386963
	H90	H	0.104834	0.910473	0.621184
	H91	H	0.922582	0.911562	0.388984
	H92	H	0.099866	0.614650	0.912463
	H93	H	0.112781	0.381780	0.088302
	H94	H	0.907991	0.615701	0.096851
	H95	H	0.914847	0.380852	0.906831
	H96	H	0.409675	0.115250	0.591198
	H97	H	0.601736	0.883136	0.599276
	H98	H	0.587318	0.109369	0.412176
	H99	H	0.412600	0.881405	0.408281
	H100	H	0.596228	0.406159	0.120726
	H101	H	0.607572	0.584457	0.885631
	H102	H	0.417157	0.591462	0.120709
	H103	H	0.419393	0.412598	0.889195
	H104	H	0.125022	0.588938	0.406857
	H105	H	0.895162	0.590121	0.593029
	H106	H	0.129320	0.404052	0.610497
	H107	H	0.894396	0.406856	0.415797
	H108	H	0.915700	0.613759	0.099363
	H109	H	0.097870	0.380759	0.108333
	H110	H	0.102465	0.616347	0.910325
	H111	H	0.924399	0.386065	0.914260
	H112	H	0.096446	0.904734	0.620673
	H113	H	0.095805	0.090858	0.387186
	H114	H	0.909760	0.078646	0.618084
	H115	H	0.921058	0.902740	0.385518
	H116	H	0.622279	0.082225	0.910889
	H117	H	0.392112	0.090631	0.101748
	H118	H	0.621853	0.906343	0.090232
	H119	H	0.393950	0.909713	0.911163
	C120	C	0.386477	0.007183	0.625224
	C121	C	0.631295	0.991367	0.625085
	C122	C	0.632166	0.008026	0.381138
	C123	C	0.387538	0.990957	0.381981
	C124	C	0.629896	0.376444	0.012718
	C125	C	0.628237	0.618072	0.995297
	C126	C	0.386033	0.620071	0.012195
	C127	C	0.387577	0.377826	0.995109
	C128	C	0.017500	0.621647	0.381891
	C129	C	1.001110	0.621492	0.625372
	C130	C	0.017413	0.376050	0.625854
	C131	C	1.001407	0.377590	0.382963
	C132	C	0.884737	0.506699	0.126447
	C133	C	0.129179	0.491232	0.124334
	C134	C	0.130515	0.508000	0.881215
	C135	C	0.886608	0.490562	0.882937
	C136	C	0.131627	0.876561	0.513095
	C137	C	0.130107	0.119224	0.494847
	C138	C	0.887651	0.120897	0.511145
	C139	C	0.889288	0.878968	0.494794
	C140	C	0.517449	0.120842	0.881878
	C141	C	0.501164	0.120386	0.124829
	C142	C	0.516622	0.876302	0.124514
	C143	C	0.499412	0.876287	0.881546
	C144	C	0.390950	0.884771	0.680660
	C145	C	0.626856	0.114056	0.680247
	C146	C	0.630935	0.885772	0.324761
	C147	C	0.389497	0.113149	0.325585
	C148	C	0.688262	0.375976	0.889803
	C149	C	0.683663	0.616557	0.118986
	C150	C	0.330404	0.619784	0.888649
	C151	C	0.329727	0.377767	0.118062
	C152	C	0.895973	0.678973	0.383703
	C153	C	0.123462	0.676252	0.624270
	C154	C	0.896120	0.319604	0.625803
	C155	C	0.123261	0.320060	0.381572
	C156	C	0.894880	0.379047	0.682099
	C157	C	0.123567	0.616948	0.680215
	C158	C	0.894689	0.619341	0.327717
	C159	C	0.123767	0.379631	0.325611
	C160	C	0.386955	0.676748	0.888939
	C161	C	0.627128	0.674846	0.118424
	C162	C	0.630016	0.320657	0.889019
	C163	C	0.387315	0.320279	0.117999
	C164	C	0.689390	0.886048	0.381626
	C165	C	0.686551	0.113431	0.623834
	C166	C	0.331448	0.885122	0.625368
	C167	C	0.329795	0.112400	0.381871
	C168	C	0.889127	0.384287	0.183047
	C169	C	0.125378	0.614154	0.179062
	C170	C	0.128389	0.385264	0.826267
	C171	C	0.888314	0.613448	0.827391
	C172	C	0.187747	0.878645	0.389349
	C173	C	0.185161	0.117579	0.618431
	C174	C	0.831957	0.120801	0.387954
	C175	C	0.832653	0.880675	0.618540
	C176	C	0.395912	0.178654	0.882042
	C177	C	0.622426	0.177103	0.124506
	C178	C	0.394474	0.820940	0.125146
	C179	C	0.620848	0.818741	0.881678
	C180	C	0.395015	0.879237	0.182641
	C181	C	0.623625	0.117467	0.179861
	C182	C	0.394947	0.118945	0.826917
	C183	C	0.622057	0.878560	0.826142
	C184	C	0.889197	0.178429	0.388138
	C185	C	0.128904	0.175149	0.618180
	C186	C	0.130434	0.821842	0.388861
	C187	C	0.890335	0.823927	0.619070
	C188	C	0.188106	0.386236	0.881787
	C189	C	0.185328	0.613176	0.123696
	C190	C	0.830081	0.384312	0.126441
	C191	C	0.828850	0.612239	0.883821
	C192	C	0.407443	0.092754	0.602085
	C193	C	0.609605	0.906377	0.602180
	C194	C	0.608597	0.092781	0.404759
	C195	C	0.410913	0.906280	0.406334
	C196	C	0.605716	0.399591	0.098584
	C197	C	0.605779	0.595332	0.909181
	C198	C	0.408508	0.596766	0.098526
	C199	C	0.411318	0.401343	0.909484
	C200	C	0.103057	0.598721	0.403690
	C201	C	0.915704	0.600528	0.602519
	C202	C	0.102356	0.398660	0.602145
	C203	C	0.916907	0.400784	0.407454
	C204	C	0.906224	0.591892	0.102679
	C205	C	0.106621	0.406165	0.101218
	C206	C	0.107347	0.593095	0.903970
	C207	C	0.910394	0.405831	0.906364
	C208	C	0.108805	0.898598	0.599551
	C209	C	0.107241	0.096321	0.408583
	C210	C	0.910442	0.096917	0.597203
	C211	C	0.912305	0.901255	0.408547
	C212	C	0.602745	0.098107	0.904441
	C213	C	0.416345	0.097362	0.101374
	C214	C	0.601402	0.898177	0.099973
	C215	C	0.414009	0.898945	0.904330
	Zn216	Zn	0.508375	-0.000661	0.753816
	Zn217	Zn	0.510079	-0.000936	0.253187
	Zn218	Zn	0.756723	0.497219	0.004145
	Zn219	Zn	0.258875	0.499599	0.002996
	Zn220	Zn	0.010036	0.750303	0.504083
	Zn221	Zn	0.010102	0.247072	0.503347
	Zn222	Zn	0.008295	0.499515	0.753741
	Zn223	Zn	0.008485	0.499021	0.253847
	Zn224	Zn	0.506857	0.746740	0.003348
	Zn225	Zn	0.509073	0.249469	0.003141
	Zn226	Zn	0.760852	-0.000178	0.502952
	Zn227	Zn	0.257541	-0.001249	0.504089
	N228	N	0.424559	0.961721	0.680694
	N229	N	0.593107	0.037297	0.681132
	N230	N	0.596139	0.962439	0.324251
	N231	N	0.424822	0.036544	0.325652
	N232	N	0.688342	0.409870	0.967597
	N233	N	0.684324	0.581788	0.041328
	N234	N	0.329625	0.585266	0.966462
	N235	N	0.329690	0.413063	0.040689
	N236	N	0.973549	0.680492	0.416536
	N237	N	0.046234	0.679012	0.590701
	N238	N	0.973389	0.317546	0.591864
	N239	N	0.046464	0.318722	0.416706
	N240	N	0.971462	0.413286	0.682648
	N241	N	0.046423	0.583636	0.681009
	N242	N	0.971382	0.584490	0.326430
	N243	N	0.047116	0.414752	0.326387
	N244	N	0.420805	0.677012	0.966921
	N245	N	0.593493	0.676046	0.040458
	N246	N	0.594468	0.320735	0.966504
	N247	N	0.422588	0.320249	0.040574
	N248	N	0.690433	0.963071	0.415828
	N249	N	0.689340	0.036256	0.590174
	N250	N	0.328544	0.962175	0.591303
	N251	N	0.328390	0.035427	0.416367
	N252	N	0.922413	0.461227	0.183141
	N253	N	0.091245	0.537361	0.179673
	N254	N	0.093418	0.461876	0.825793
	N255	N	0.923378	0.536572	0.826454
	N256	N	0.188776	0.911712	0.467503
	N257	N	0.185995	0.083616	0.540507
	N258	N	0.830729	0.086069	0.465587
	N259	N	0.831762	0.914074	0.540186
	N260	N	0.473164	0.179907	0.915448
	N261	N	0.545244	0.178880	0.090835
	N262	N	0.471199	0.818851	0.089870
	N263	N	0.543562	0.817148	0.915369
	N264	N	0.471869	0.912939	0.182388
	N265	N	0.547087	0.082897	0.180118
	N266	N	0.471472	0.083529	0.826963
	N267	N	0.545550	0.913788	0.826004
	N268	N	0.923091	0.178386	0.466167
	N269	N	0.095266	0.176138	0.540199
	N270	N	0.096384	0.820191	0.466981
	N271	N	0.925124	0.822944	0.541408
	N272	N	0.189642	0.463511	0.915352
	N273	N	0.187926	0.535707	0.090365
	N274	N	0.827256	0.461530	0.092035
	N275	N	0.827929	0.535061	0.917634
	O276	O	0.954940	0.101998	0.904191
	H277	H	0.956883	0.113510	0.898994
	H278	H	0.960322	0.107508	0.897462
	O279	O	-0.046687	1.049043	-0.154386
	H280	H	-0.030340	1.045853	-0.159519
	H281	H	-0.050994	1.065060	-0.153427
	O282	O	0.524500	0.506230	0.365757
	H283	H	0.523565	0.500956	0.361961
	H284	H	0.520042	0.513382	0.367106
	O285	O	0.461507	0.541846	0.461294
	H286	H	0.458058	0.542795	0.466183
	H287	H	0.454557	0.541540	0.462028
	O288	O	0.576048	0.595955	0.533342
	H289	H	0.589105	0.603883	0.532297
	H290	H	0.586758	0.601088	0.516133
	O291	O	-0.068471	0.022045	0.901195
	H292	H	-0.068340	0.022453	0.891908
	H293	H	-0.071971	0.032377	0.895890
	O294	O	0.602155	1.554166	0.587537
	H295	H	0.599471	1.550300	0.587405
	H296	H	0.602056	1.545428	0.575755
	O297	O	0.885065	1.012092	0.081737
	H298	H	0.887759	1.008631	0.075023
	H299	H	0.859957	1.010950	0.082042
	O300	O	0.451249	0.474143	0.517607
	H301	H	0.455756	0.468379	0.513808
	H302	H	0.443435	0.469416	0.523281
	O303	O	0.110442	-0.003217	1.072461
	H304	H	0.105103	-0.000426	1.068386
	H305	H	0.117196	0.001264	1.079061
	O306	O	0.554653	0.448982	0.629780
	H307	H	0.555725	0.443723	0.624802
	H308	H	0.562677	0.458188	0.617563
	O309	O	0.530018	0.525864	0.419694
	H310	H	0.513962	0.531329	0.410147
	H311	H	0.525432	0.531076	0.437038
	O312	O	1.512268	0.381940	1.485023
	H313	H	1.526206	0.384179	1.491660
	H314	H	1.514006	0.379417	1.481627
	O315	O	1.074759	0.927682	-0.015031
	H316	H	1.067816	0.914572	-0.022703
	H317	H	1.074515	0.916561	-0.002504
	O318	O	0.554948	0.460774	0.403058
	H319	H	0.562010	0.458017	0.391435
	H320	H	0.560831	0.446666	0.410138
	O321	O	0.494486	0.626681	0.607358
	H322	H	0.502654	0.639143	0.615372
	H323	H	0.498381	0.612752	0.608596
	O324	O	0.072846	1.006072	1.138751
	H325	H	0.066917	1.004615	1.134493
	H326	H	0.070442	1.003116	1.129198
	O327	O	-0.088841	0.908105	1.074829
	H328	H	-0.085073	0.917144	1.063271
	H329	H	-0.083978	0.900672	1.076100
	O330	O	-0.016449	-0.026497	-0.105835
	H331	H	-0.006143	-0.020355	-0.095644
	H332	H	-0.004963	-0.024840	-0.099850
	O333	O	0.566784	0.406969	0.381047
	H334	H	0.563193	0.411051	0.382403
	H335	H	0.569146	0.419395	0.385987
	O336	O	0.033466	-0.110507	0.003809
	H337	H	0.029783	-0.111876	-0.007599
	H338	H	0.026560	-0.108076	0.004357
	O339	O	-0.452500	-0.361220	0.528117
	H340	H	-0.450230	-0.346557	0.534732
	H341	H	-0.446828	-0.372158	0.531067
	O342	O	0.107713	1.078135	-0.033322
	H343	H	0.106933	1.070643	-0.030032
	H344	H	0.114718	1.076744	-0.029780
	O345	O	0.003113	1.028649	1.028877
	H346	H	0.002322	1.029408	1.048784
	H347	H	-0.003315	1.042296	1.025276
	O348	O	-0.014132	0.924395	-0.042128
	H349	H	-0.013205	0.931480	-0.038168
	H350	H	-0.020603	0.910175	-0.046677
	O351	O	0.413486	0.584936	0.389193
	H352	H	0.394102	0.587672	0.381654
	H353	H	0.420314	0.594631	0.384601
	O354	O	-0.024957	1.116414	-0.000611
	H355	H	-0.035458	1.107881	-0.000506
	H356	H	-0.022328	1.126642	-0.001666
	O357	O	0.450279	0.463864	0.564895
	H358	H	0.439411	0.460593	0.575092
	H359	H	0.434478	0.451162	0.558681
	O360	O	0.407358	0.513344	0.521834
	H361	H	0.398447	0.519695	0.530638
	H362	H	0.400522	0.526818	0.499978
	O363	O	0.576162	0.512776	0.528624
	H364	H	0.579020	0.518715	0.532744
	H365	H	0.563718	0.524661	0.538912
	O366	O	0.563021	0.543420	0.532824
	H367	H	0.575351	0.540165	0.529751
	H368	H	0.553419	0.547211	0.529103
	O369	O	0.954365	-0.049823	0.040246
	H370	H	0.950430	-0.051642	0.045555
	H371	H	0.945266	-0.064719	0.042286
	O372	O	0.527349	0.423526	0.500179
	H373	H	0.518172	0.418607	0.494094
	H374	H	0.537503	0.419911	0.504176
	O375	O	1.053718	0.049032	1.122360
	H376	H	1.057451	0.048563	1.122525
	H377	H	1.056123	0.057599	1.134011
	O378	O	0.143744	0.896344	-0.008152
	H379	H	0.146376	0.913250	-0.006233
	H380	H	0.147293	0.889063	-0.018259
	O381	O	0.427492	0.560988	0.568804
	H382	H	0.419921	0.554406	0.577437
	H383	H	0.436526	0.556749	0.559976
	O384	O	1.006259	1.007945	0.097781
	H385	H	0.995600	1.005666	0.099178
	H386	H	0.998746	1.009888	0.091956
	O387	O	1.015783	0.009027	0.959543
	H388	H	1.019356	0.008016	0.963515
	H389	H	1.021113	0.002503	0.969328
	O390	O	1.450632	0.436611	-0.576495
	H391	H	1.455118	0.448158	-0.569702
	H392	H	1.451671	0.435877	-0.577095
	O393	O	0.482025	0.415214	0.485800
	H394	H	0.475856	0.411586	0.488742
	H395	H	0.483130	0.417804	0.480206
