data_Molecule from HDF5

_cell_length_a		16.251387
_cell_length_b		16.303138
_cell_length_c		16.250644
_cell_angle_alpha	89.928730
_cell_angle_beta	90.083139
_cell_angle_gamma	89.800660
_symmetry_space_group_name_H-M	'P 1'
_symmetry_Int_Tables_number		1

loop_
	_symmetry_equiv_pos_as_xyz
	x,y,z

loop_
	_atom_site_label
	_atom_site_type_symbol
	_atom_site_fract_x
	_atom_site_fract_y
	_atom_site_fract_z
	H0	H	0.404796	0.833036	0.712429
	H1	H	0.601378	0.160301	0.713198
	H2	H	0.601206	0.833133	0.284366
	H3	H	0.404622	0.160360	0.283422
	H4	H	0.717922	0.397275	0.834597
	H5	H	0.716432	0.594969	0.162127
	H6	H	0.287433	0.596081	0.834570
	H7	H	0.290530	0.399780	0.162923
	H8	H	0.840151	0.714044	0.396730
	H9	H	0.167731	0.710069	0.595789
	H10	H	0.839268	0.283698	0.596060
	H11	H	0.166410	0.281158	0.398085
	H12	H	0.839342	0.398908	0.711796
	H13	H	0.166655	0.595494	0.712408
	H14	H	0.838969	0.596750	0.282375
	H15	H	0.167210	0.399190	0.284186
	H16	H	0.401588	0.712515	0.834604
	H17	H	0.600144	0.709989	0.162364
	H18	H	0.601818	0.282134	0.834795
	H19	H	0.406193	0.283813	0.163023
	H20	H	0.718422	0.833876	0.399471
	H21	H	0.716997	0.160749	0.596305
	H22	H	0.289175	0.833333	0.596243
	H23	H	0.287699	0.159937	0.398171
	H24	H	0.904005	0.334241	0.212976
	H25	H	0.100383	0.660868	0.211579
	H26	H	0.100988	0.332581	0.784637
	H27	H	0.903075	0.660180	0.780944
	H28	H	0.216719	0.899638	0.333223
	H29	H	0.217702	0.095534	0.660958
	H30	H	0.788216	0.096643	0.334652
	H31	H	0.788979	0.897188	0.661063
	H32	H	0.339505	0.212725	0.898773
	H33	H	0.667069	0.209851	0.097702
	H34	H	0.338482	0.783571	0.096956
	H35	H	0.665936	0.781153	0.899706
	H36	H	0.339059	0.899687	0.212058
	H37	H	0.667161	0.093683	0.211527
	H38	H	0.339083	0.095149	0.783732
	H39	H	0.667127	0.897774	0.784814
	H40	H	0.902416	0.212537	0.334691
	H41	H	0.103333	0.212266	0.660753
	H42	H	0.102729	0.782164	0.333817
	H43	H	0.904388	0.781724	0.660951
	H44	H	0.218981	0.333537	0.899177
	H45	H	0.216845	0.661063	0.095627
	H46	H	0.789987	0.333379	0.096032
	H47	H	0.786429	0.660122	0.897281
	H48	H	0.414443	0.114496	0.600677
	H49	H	0.606429	0.877793	0.592552
	H50	H	0.595583	0.114207	0.402931
	H51	H	0.412596	0.881442	0.408428
	H52	H	0.602455	0.408784	0.115412
	H53	H	0.599080	0.581242	0.883454
	H54	H	0.407669	0.601078	0.118901
	H55	H	0.410340	0.409274	0.883349
	H56	H	0.117553	0.589821	0.413511
	H57	H	0.886971	0.585511	0.594839
	H58	H	0.121658	0.405050	0.595914
	H59	H	0.884544	0.395573	0.407692
	H60	H	0.120893	0.397540	0.589015
	H61	H	0.884479	0.596793	0.589178
	H62	H	0.118833	0.582264	0.399370
	H63	H	0.890100	0.411552	0.409832
	H64	H	0.401341	0.582454	0.115856
	H65	H	0.585308	0.589561	0.883828
	H66	H	0.590451	0.405946	0.113165
	H67	H	0.415760	0.401711	0.882448
	H68	H	0.596542	0.113578	0.404908
	H69	H	0.588411	0.881146	0.597569
	H70	H	0.416172	0.108222	0.582813
	H71	H	0.405614	0.879164	0.405626
	H72	H	0.912038	0.616599	0.103922
	H73	H	0.096154	0.380214	0.094975
	H74	H	0.095633	0.614211	0.900324
	H75	H	0.900717	0.375689	0.897255
	H76	H	0.085876	0.899274	0.612327
	H77	H	0.091158	0.093272	0.381076
	H78	H	0.922315	0.092399	0.612511
	H79	H	0.910791	0.916430	0.384890
	H80	H	0.623087	0.096989	0.903004
	H81	H	0.385424	0.088458	0.093534
	H82	H	0.622028	0.906694	0.101842
	H83	H	0.385301	0.899217	0.905787
	H84	H	0.622205	0.891403	0.089329
	H85	H	0.385287	0.093662	0.089334
	H86	H	0.616642	0.088056	0.913774
	H87	H	0.387419	0.907042	0.908728
	H88	H	0.904417	0.099406	0.619247
	H89	H	0.099465	0.091092	0.378812
	H90	H	0.104510	0.896052	0.619377
	H91	H	0.921525	0.899477	0.382215
	H92	H	0.091842	0.612104	0.905695
	H93	H	0.094112	0.381567	0.089293
	H94	H	0.920388	0.608148	0.082392
	H95	H	0.923485	0.383250	0.899112
	H96	H	0.399584	0.115987	0.589003
	H97	H	0.593932	0.885340	0.580579
	H98	H	0.598536	0.113808	0.403450
	H99	H	0.411874	0.879323	0.401537
	H100	H	0.598025	0.396288	0.117100
	H101	H	0.598529	0.596427	0.878242
	H102	H	0.419566	0.587748	0.111479
	H103	H	0.406694	0.401862	0.879615
	H104	H	0.123301	0.597355	0.400247
	H105	H	0.889273	0.587022	0.582277
	H106	H	0.117610	0.406797	0.586046
	H107	H	0.883733	0.406031	0.394851
	H108	H	0.896161	0.616357	0.084085
	H109	H	0.100429	0.380018	0.089752
	H110	H	0.098671	0.612696	0.906601
	H111	H	0.909561	0.384427	0.918259
	H112	H	0.099180	0.913986	0.611629
	H113	H	0.093629	0.084979	0.382128
	H114	H	0.906154	0.079907	0.613091
	H115	H	0.902316	0.900149	0.376652
	H116	H	0.619165	0.083347	0.899868
	H117	H	0.388216	0.088203	0.086970
	H118	H	0.615593	0.908620	0.083533
	H119	H	0.384442	0.905914	0.900037
	C120	C	0.381346	0.005013	0.619675
	C121	C	0.625000	0.988695	0.619656
	C122	C	0.625333	0.005490	0.375816
	C123	C	0.381044	0.988085	0.376126
	C124	C	0.625436	0.374706	0.006957
	C125	C	0.623157	0.617652	0.989919
	C126	C	0.380279	0.619169	0.006874
	C127	C	0.382362	0.375820	0.990467
	C128	C	0.011672	0.619113	0.375292
	C129	C	0.994995	0.618205	0.618152
	C130	C	0.011667	0.375116	0.618918
	C131	C	0.994462	0.375506	0.375731
	C132	C	0.881738	0.505768	0.118798
	C133	C	0.124650	0.489009	0.119552
	C134	C	0.124942	0.505183	0.875711
	C135	C	0.881009	0.488720	0.875521
	C136	C	0.124964	0.875208	0.506000
	C137	C	0.123939	0.118533	0.488930
	C138	C	0.881676	0.119219	0.506826
	C139	C	0.882311	0.875785	0.488909
	C140	C	0.511580	0.118486	0.876579
	C141	C	0.494598	0.118024	0.119372
	C142	C	0.511115	0.874840	0.119665
	C143	C	0.493941	0.875109	0.876630
	C144	C	0.384271	0.881965	0.674723
	C145	C	0.622296	0.111485	0.675395
	C146	C	0.622485	0.882362	0.321390
	C147	C	0.383811	0.111219	0.321052
	C148	C	0.680012	0.377087	0.883561
	C149	C	0.678770	0.615479	0.113111
	C150	C	0.324926	0.616761	0.883511
	C151	C	0.327674	0.378902	0.113846
	C152	C	0.888637	0.675504	0.376749
	C153	C	0.118197	0.673106	0.616420
	C154	C	0.888373	0.320893	0.616778
	C155	C	0.117660	0.319601	0.377960
	C156	C	0.888373	0.378105	0.674132
	C157	C	0.118042	0.615560	0.673966
	C158	C	0.888032	0.616899	0.320332
	C159	C	0.117986	0.378307	0.321310
	C160	C	0.381647	0.674575	0.883697
	C161	C	0.620749	0.672123	0.113425
	C162	C	0.622742	0.319572	0.883835
	C163	C	0.384949	0.321042	0.113780
	C164	C	0.680493	0.882710	0.378847
	C165	C	0.679986	0.111569	0.617557
	C166	C	0.327004	0.882117	0.616549
	C167	C	0.325749	0.111155	0.377963
	C168	C	0.884064	0.382915	0.174576
	C169	C	0.121205	0.612042	0.174073
	C170	C	0.122400	0.381844	0.821188
	C171	C	0.882872	0.611547	0.819662
	C172	C	0.179482	0.878335	0.382391
	C173	C	0.179654	0.116161	0.612062
	C174	C	0.825845	0.116806	0.383575
	C175	C	0.827112	0.877372	0.612292
	C176	C	0.388245	0.174257	0.878502
	C177	C	0.617941	0.172454	0.117837
	C178	C	0.387666	0.820812	0.117443
	C179	C	0.617082	0.819048	0.878991
	C180	C	0.387886	0.878593	0.174448
	C181	C	0.617963	0.114484	0.174276
	C182	C	0.387936	0.115843	0.821511
	C183	C	0.617686	0.877344	0.822135
	C184	C	0.882967	0.174369	0.383427
	C185	C	0.122856	0.174080	0.612030
	C186	C	0.122739	0.820345	0.382566
	C187	C	0.884441	0.820049	0.612211
	C188	C	0.180677	0.382303	0.878494
	C189	C	0.178945	0.612314	0.116293
	C190	C	0.827227	0.382439	0.116692
	C191	C	0.824752	0.611452	0.877202
	C192	C	0.403529	0.090809	0.597480
	C193	C	0.602681	0.903407	0.596971
	C194	C	0.603324	0.091576	0.397415
	C195	C	0.403405	0.902239	0.398552
	C196	C	0.603342	0.396965	0.092893
	C197	C	0.600821	0.595525	0.903973
	C198	C	0.402985	0.596913	0.093152
	C199	C	0.404466	0.397820	0.904222
	C200	C	0.097668	0.596503	0.397748
	C201	C	0.909050	0.596311	0.595548
	C202	C	0.097866	0.396744	0.596930
	C203	C	0.908387	0.397807	0.397606
	C204	C	0.903250	0.591445	0.096593
	C205	C	0.103335	0.402970	0.097651
	C206	C	0.102189	0.590938	0.897827
	C207	C	0.904234	0.403265	0.898198
	C208	C	0.103039	0.896722	0.592189
	C209	C	0.101385	0.096446	0.402810
	C210	C	0.904391	0.097145	0.592755
	C211	C	0.904756	0.898468	0.403400
	C212	C	0.597238	0.096052	0.898828
	C213	C	0.408527	0.096463	0.096558
	C214	C	0.597673	0.895856	0.097891
	C215	C	0.407877	0.897331	0.898402
	Zn216	Zn	0.503325	-0.003446	0.748169
	Zn217	Zn	0.502764	-0.003431	0.247549
	Zn218	Zn	0.752428	0.497255	-0.001930
	Zn219	Zn	0.253340	0.496923	-0.001700
	Zn220	Zn	0.003549	0.746855	0.497009
	Zn221	Zn	0.002762	0.247054	0.497694
	Zn222	Zn	0.003048	0.496699	0.746997
	Zn223	Zn	0.002828	0.497527	0.247615
	Zn224	Zn	0.502348	0.746474	-0.001968
	Zn225	Zn	0.503360	0.246765	-0.001311
	Zn226	Zn	0.754330	-0.002882	0.498349
	Zn227	Zn	0.252349	-0.002735	0.497586
	N228	N	0.417536	0.959374	0.676633
	N229	N	0.588837	0.034167	0.676849
	N230	N	0.588826	0.959752	0.319525
	N231	N	0.417538	0.033701	0.319822
	N232	N	0.682120	0.410564	0.961214
	N233	N	0.680026	0.582121	0.035263
	N234	N	0.324158	0.583059	0.961089
	N235	N	0.326054	0.412252	0.035951
	N236	N	0.966526	0.677057	0.410189
	N237	N	0.040653	0.674682	0.582253
	N238	N	0.965963	0.319110	0.583034
	N239	N	0.039808	0.317723	0.410993
	N240	N	0.966107	0.411234	0.675539
	N241	N	0.040471	0.582102	0.675150
	N242	N	0.965549	0.582783	0.319251
	N243	N	0.040479	0.412351	0.319869
	N244	N	0.415490	0.676183	0.961516
	N245	N	0.587085	0.674043	0.035731
	N246	N	0.589498	0.318063	0.961560
	N247	N	0.418311	0.319188	0.036100
	N248	N	0.682282	0.960277	0.412090
	N249	N	0.681770	0.034174	0.583761
	N250	N	0.324872	0.959798	0.583103
	N251	N	0.324044	0.033626	0.411679
	N252	N	0.917322	0.460472	0.175963
	N253	N	0.088274	0.534564	0.176038
	N254	N	0.088386	0.459240	0.819427
	N255	N	0.917111	0.534188	0.818408
	N256	N	0.181104	0.911652	0.460083
	N257	N	0.180506	0.082254	0.534566
	N258	N	0.824999	0.083094	0.461228
	N259	N	0.825656	0.911418	0.534927
	N260	N	0.465945	0.176097	0.912065
	N261	N	0.540174	0.174672	0.084160
	N262	N	0.465352	0.818541	0.083889
	N263	N	0.539353	0.817683	0.912138
	N264	N	0.465726	0.911333	0.176043
	N265	N	0.540194	0.081340	0.175487
	N266	N	0.465478	0.081854	0.820196
	N267	N	0.540073	0.911377	0.820349
	N268	N	0.917065	0.175949	0.460884
	N269	N	0.088952	0.175593	0.534385
	N270	N	0.089571	0.818192	0.460390
	N271	N	0.918238	0.818908	0.534589
	N272	N	0.182164	0.459828	0.911838
	N273	N	0.181046	0.534694	0.083018
	N274	N	0.825533	0.459724	0.082593
	N275	N	0.823617	0.534150	0.911279
	O276	O	0.963200	1.018803	-0.038257
	H277	H	0.961332	1.023479	-0.050038
	H278	H	0.965450	1.024640	-0.032957
	O279	O	-0.002950	-0.011414	-0.028288
	H280	H	0.001365	-0.013065	-0.024317
	H281	H	-0.005001	-0.008718	-0.030220
	O282	O	-0.071259	-0.024145	1.024713
	H283	H	-0.067060	-0.015682	1.025965
	H284	H	-0.077014	-0.028488	1.021754
	O285	O	0.462497	0.497818	0.533985
	H286	H	0.462527	0.491332	0.537487
	H287	H	0.447192	0.496929	0.539302
	O288	O	0.510479	0.524997	0.559528
	H289	H	0.515538	0.519426	0.563300
	H290	H	0.515027	0.523685	0.562502
	O291	O	0.473427	0.538345	0.554780
	H292	H	0.461648	0.543008	0.555873
	H293	H	0.464818	0.543596	0.546806
	O294	O	-0.016193	-0.009500	-0.018742
	H295	H	-0.020002	-0.012931	-0.013768
	H296	H	-0.013405	-0.006114	-0.019152
	O297	O	0.524455	0.563465	0.565992
	H298	H	0.522765	0.561526	0.573892
	H299	H	0.526825	0.571853	0.572450
	O300	O	-0.000337	1.046985	0.953436
	H301	H	-0.004567	1.041695	0.952527
	H302	H	0.005998	1.040237	0.953798
	O303	O	0.495019	0.485565	0.573007
	H304	H	0.503972	0.492111	0.570498
	H305	H	0.502342	0.494997	0.579883
	O306	O	0.010974	-0.040144	1.033286
	H307	H	0.017790	-0.047034	1.036445
	H308	H	0.007170	-0.037199	1.034838
	O309	O	0.957632	1.040618	1.014923
	H310	H	0.953736	1.044468	1.013177
	H311	H	0.953573	1.036004	1.022169
	O312	O	0.494974	0.487332	0.544177
	H313	H	0.505073	0.493205	0.540037
	H314	H	0.493974	0.489704	0.545504
	O315	O	0.496865	0.566389	0.588787
	H316	H	0.488419	0.559035	0.585784
	H317	H	0.494936	0.555246	0.585688
	O318	O	-0.011867	0.950110	-0.039951
	H319	H	-0.017194	0.952599	-0.053803
	H320	H	-0.013777	0.949170	-0.048717
	O321	O	0.915264	0.971473	-0.035086
	H322	H	0.921939	0.968939	-0.033332
	H323	H	0.912989	0.979357	-0.034206
