data_Molecule from HDF5

_cell_length_a		16.322438
_cell_length_b		16.412062
_cell_length_c		16.467220
_cell_angle_alpha	89.965939
_cell_angle_beta	89.849254
_cell_angle_gamma	90.072511
_symmetry_space_group_name_H-M	'P 1'
_symmetry_Int_Tables_number		1

loop_
	_symmetry_equiv_pos_as_xyz
	x,y,z

loop_
	_atom_site_label
	_atom_site_type_symbol
	_atom_site_fract_x
	_atom_site_fract_y
	_atom_site_fract_z
	H0	H	0.391290	0.838697	0.717657
	H1	H	0.610885	0.153718	0.717982
	H2	H	0.611367	0.840299	0.269206
	H3	H	0.393429	0.154651	0.269236
	H4	H	0.721721	0.393790	0.835810
	H5	H	0.723262	0.604821	0.151230
	H6	H	0.279521	0.602841	0.835696
	H7	H	0.274655	0.389080	0.150478
	H8	H	0.842807	0.719043	0.389114
	H9	H	0.160227	0.721388	0.602713
	H10	H	0.843259	0.276676	0.598726
	H11	H	0.161251	0.276950	0.387318
	H12	H	0.840546	0.394071	0.711866
	H13	H	0.159508	0.605699	0.717818
	H14	H	0.841807	0.602977	0.274757
	H15	H	0.157645	0.385774	0.266320
	H16	H	0.393503	0.720708	0.836351
	H17	H	0.606902	0.720380	0.150848
	H18	H	0.610104	0.273005	0.836681
	H19	H	0.388431	0.270127	0.149334
	H20	H	0.726597	0.840056	0.385787
	H21	H	0.723481	0.155666	0.598779
	H22	H	0.277837	0.838414	0.599584
	H23	H	0.279123	0.155284	0.387063
	H24	H	0.888757	0.340335	0.219569
	H25	H	0.105217	0.655219	0.215902
	H26	H	0.108278	0.339958	0.771293
	H27	H	0.894618	0.657031	0.773436
	H28	H	0.221615	0.893481	0.334389
	H29	H	0.223208	0.101571	0.652303
	H30	H	0.783244	0.102115	0.335022
	H31	H	0.779920	0.892580	0.651815
	H32	H	0.341561	0.218001	0.887370
	H33	H	0.658717	0.221509	0.101256
	H34	H	0.340826	0.778842	0.098704
	H35	H	0.660894	0.778231	0.891136
	H36	H	0.343541	0.892071	0.217052
	H37	H	0.660869	0.105010	0.214370
	H38	H	0.341542	0.101405	0.772619
	H39	H	0.658941	0.887333	0.769514
	H40	H	0.897655	0.220433	0.335779
	H41	H	0.109883	0.220735	0.651728
	H42	H	0.111441	0.772043	0.337460
	H43	H	0.895641	0.775105	0.651525
	H44	H	0.222821	0.338738	0.887593
	H45	H	0.219732	0.656568	0.097632
	H46	H	0.775352	0.339618	0.101151
	H47	H	0.781276	0.657667	0.892281
	H48	H	0.413251	0.109370	0.583880
	H49	H	0.583125	0.886687	0.580781
	H50	H	0.586829	0.108403	0.407009
	H51	H	0.410834	0.883992	0.407948
	H52	H	0.586031	0.411162	0.105080
	H53	H	0.590227	0.582410	0.882210
	H54	H	0.411147	0.590037	0.107304
	H55	H	0.410498	0.404095	0.878965
	H56	H	0.112357	0.581368	0.411909
	H57	H	0.891246	0.580291	0.578043
	H58	H	0.118094	0.408584	0.588292
	H59	H	0.889595	0.407668	0.411430
	H60	H	0.116526	0.407246	0.580030
	H61	H	0.885788	0.584694	0.591833
	H62	H	0.114867	0.579304	0.400300
	H63	H	0.889631	0.413390	0.406682
	H64	H	0.408222	0.587506	0.108207
	H65	H	0.584410	0.590440	0.880847
	H66	H	0.584458	0.408690	0.105511
	H67	H	0.409574	0.413715	0.882297
	H68	H	0.598347	0.112149	0.406448
	H69	H	0.594771	0.884252	0.576316
	H70	H	0.415662	0.108508	0.582316
	H71	H	0.416234	0.884863	0.400715
	H72	H	0.912193	0.609894	0.086233
	H73	H	0.080451	0.387699	0.076557
	H74	H	0.088453	0.610012	0.905687
	H75	H	0.916281	0.385831	0.904051
	H76	H	0.086535	0.916644	0.602416
	H77	H	0.090070	0.090654	0.380782
	H78	H	0.913394	0.082247	0.605273
	H79	H	0.909999	0.909252	0.380370
	H80	H	0.613833	0.083378	0.905455
	H81	H	0.390967	0.080619	0.077410
	H82	H	0.618617	0.905609	0.087270
	H83	H	0.383845	0.908865	0.897464
	H84	H	0.614352	0.905460	0.076081
	H85	H	0.387214	0.080078	0.086415
	H86	H	0.614221	0.083852	0.905207
	H87	H	0.385972	0.902510	0.909126
	H88	H	0.918079	0.089657	0.606470
	H89	H	0.093290	0.086098	0.380364
	H90	H	0.083821	0.902311	0.606343
	H91	H	0.918009	0.911584	0.382726
	H92	H	0.089369	0.610560	0.904449
	H93	H	0.091570	0.383825	0.078463
	H94	H	0.913250	0.609221	0.083371
	H95	H	0.907622	0.384550	0.908198
	H96	H	0.412370	0.108810	0.580967
	H97	H	0.591715	0.881159	0.588457
	H98	H	0.591294	0.113468	0.396236
	H99	H	0.419097	0.887549	0.408446
	H100	H	0.586801	0.408499	0.106768
	H101	H	0.593952	0.590216	0.878164
	H102	H	0.411304	0.586134	0.106436
	H103	H	0.418659	0.409066	0.884405
	H104	H	0.116790	0.590109	0.405073
	H105	H	0.886178	0.594559	0.579602
	H106	H	0.114167	0.414779	0.583286
	H107	H	0.885924	0.407104	0.404922
	H108	H	0.910633	0.610758	0.083205
	H109	H	0.083221	0.383812	0.087510
	H110	H	0.087219	0.610355	0.904670
	H111	H	0.909316	0.382163	0.898915
	H112	H	0.097079	0.908465	0.609185
	H113	H	0.088403	0.085760	0.382335
	H114	H	0.910000	0.088843	0.608711
	H115	H	0.916289	0.903329	0.380150
	H116	H	0.613756	0.084138	0.905588
	H117	H	0.386356	0.088208	0.081676
	H118	H	0.613834	0.915444	0.082472
	H119	H	0.390127	0.915289	0.907240
	C120	C	0.379735	0.004517	0.615218
	C121	C	0.623353	0.988556	0.615011
	C122	C	0.624766	0.006412	0.370759
	C123	C	0.381931	0.989430	0.372904
	C124	C	0.620356	0.376296	0.001906
	C125	C	0.621872	0.619717	0.985152
	C126	C	0.378314	0.619968	0.002716
	C127	C	0.378104	0.374963	0.984960
	C128	C	0.009876	0.617276	0.373705
	C129	C	0.992614	0.619764	0.616527
	C130	C	0.010831	0.377132	0.615673
	C131	C	0.993122	0.376155	0.373005
	C132	C	0.877581	0.506016	0.116963
	C133	C	0.119177	0.489350	0.114238
	C134	C	0.122230	0.505869	0.871853
	C135	C	0.879105	0.489622	0.872888
	C136	C	0.123070	0.875479	0.501904
	C137	C	0.124344	0.120002	0.485282
	C138	C	0.882073	0.119235	0.502162
	C139	C	0.881101	0.875905	0.485013
	C140	C	0.509231	0.117067	0.872284
	C141	C	0.492685	0.118194	0.114804
	C142	C	0.510529	0.876300	0.115157
	C143	C	0.491774	0.875767	0.872157
	C144	C	0.374836	0.886075	0.676545
	C145	C	0.627718	0.106436	0.677068
	C146	C	0.628394	0.887877	0.309641
	C147	C	0.376941	0.107629	0.310629
	C148	C	0.682185	0.374212	0.883301
	C149	C	0.682706	0.622590	0.103765
	C150	C	0.318765	0.621637	0.883409
	C151	C	0.315635	0.371273	0.103275
	C152	C	0.890414	0.678503	0.371282
	C153	C	0.112215	0.681169	0.620429
	C154	C	0.890838	0.316650	0.617339
	C155	C	0.112795	0.315767	0.368879
	C156	C	0.889601	0.375075	0.673781
	C157	C	0.112017	0.623185	0.677477
	C158	C	0.889866	0.620767	0.314137
	C159	C	0.110707	0.370346	0.308662
	C160	C	0.375817	0.680413	0.883860
	C161	C	0.624423	0.680055	0.103751
	C162	C	0.626309	0.314185	0.883895
	C163	C	0.372378	0.311990	0.102734
	C164	C	0.685827	0.887442	0.367984
	C165	C	0.683802	0.107762	0.617312
	C166	C	0.318069	0.885816	0.617692
	C167	C	0.320042	0.108164	0.369469
	C168	C	0.872147	0.387614	0.178490
	C169	C	0.123131	0.607885	0.175399
	C170	C	0.125880	0.387235	0.811136
	C171	C	0.876963	0.609266	0.813472
	C172	C	0.182841	0.873958	0.382535
	C173	C	0.183982	0.121093	0.604441
	C174	C	0.822747	0.120892	0.382604
	C175	C	0.820152	0.873916	0.604451
	C176	C	0.389461	0.177867	0.869440
	C177	C	0.611558	0.180528	0.118406
	C178	C	0.389447	0.817645	0.117481
	C179	C	0.612536	0.816773	0.871218
	C180	C	0.390882	0.873781	0.176418
	C181	C	0.612607	0.122223	0.174790
	C182	C	0.389497	0.119939	0.811966
	C183	C	0.611560	0.871441	0.811027
	C184	C	0.879740	0.179801	0.383097
	C185	C	0.127817	0.180619	0.604015
	C186	C	0.128155	0.813305	0.384362
	C187	C	0.877645	0.815449	0.604243
	C188	C	0.183080	0.386739	0.869369
	C189	C	0.179902	0.608612	0.116504
	C190	C	0.815721	0.387053	0.119374
	C191	C	0.820409	0.609686	0.872864
	C192	C	0.406251	0.087477	0.589779
	C193	C	0.597356	0.905644	0.589182
	C194	C	0.599437	0.089606	0.396027
	C195	C	0.407981	0.906990	0.398460
	C196	C	0.593563	0.402008	0.084188
	C197	C	0.596678	0.594708	0.901989
	C198	C	0.403051	0.594976	0.085656
	C199	C	0.405080	0.401377	0.903158
	C200	C	0.092877	0.591254	0.398825
	C201	C	0.909522	0.594010	0.590573
	C202	C	0.094601	0.402588	0.590815
	C203	C	0.910028	0.402055	0.400004
	C204	C	0.904084	0.588509	0.091563
	C205	C	0.092707	0.406773	0.088351
	C206	C	0.096081	0.588667	0.897655
	C207	C	0.903923	0.405978	0.896894
	C208	C	0.096636	0.901437	0.584590
	C209	C	0.098217	0.094665	0.402492
	C210	C	0.906784	0.094185	0.584997
	C211	C	0.907097	0.900917	0.402639
	C212	C	0.592184	0.091218	0.898006
	C213	C	0.409946	0.091002	0.089116
	C214	C	0.593699	0.901485	0.089340
	C215	C	0.408464	0.901431	0.897261
	Zn216	Zn	0.501185	-0.003769	0.743607
	Zn217	Zn	0.502141	-0.002172	0.242441
	Zn218	Zn	0.749659	0.497242	-0.005718
	Zn219	Zn	0.249763	0.497404	-0.006199
	Zn220	Zn	0.002446	0.746483	0.493999
	Zn221	Zn	0.002772	0.249227	0.494583
	Zn222	Zn	0.000405	0.497780	0.743569
	Zn223	Zn	-0.000244	0.496485	0.244939
	Zn224	Zn	0.500225	0.748356	-0.006196
	Zn225	Zn	0.500403	0.245782	-0.006297
	Zn226	Zn	0.752536	-0.002008	0.493314
	Zn227	Zn	0.251682	-0.003035	0.493072
	N228	N	0.412599	0.960949	0.674927
	N229	N	0.590799	0.031145	0.675718
	N230	N	0.591044	0.962931	0.311277
	N231	N	0.415068	0.033043	0.312848
	N232	N	0.678955	0.411850	0.957732
	N233	N	0.681156	0.585574	0.028957
	N234	N	0.320185	0.584683	0.958304
	N235	N	0.318873	0.409671	0.029122
	N236	N	0.966096	0.676676	0.407640
	N237	N	0.036969	0.679351	0.583271
	N238	N	0.967390	0.317498	0.582298
	N239	N	0.038847	0.319522	0.408368
	N240	N	0.965293	0.411824	0.673018
	N241	N	0.036564	0.585864	0.675161
	N242	N	0.965055	0.583263	0.315487
	N243	N	0.035115	0.407313	0.311248
	N244	N	0.412069	0.679456	0.959124
	N245	N	0.587481	0.678409	0.028879
	N246	N	0.588701	0.315376	0.958753
	N247	N	0.410419	0.314001	0.028176
	N248	N	0.683728	0.962264	0.405196
	N249	N	0.681363	0.033145	0.579658
	N250	N	0.321241	0.960479	0.579893
	N251	N	0.323194	0.033884	0.407685
	N252	N	0.909858	0.462295	0.177166
	N253	N	0.086321	0.532561	0.174213
	N254	N	0.088819	0.462429	0.812393
	N255	N	0.913088	0.533587	0.813654
	N256	N	0.179811	0.911901	0.456962
	N257	N	0.182129	0.084634	0.529430
	N258	N	0.823966	0.083901	0.457515
	N259	N	0.821888	0.910432	0.529405
	N260	N	0.465057	0.176445	0.906038
	N261	N	0.535983	0.178149	0.081845
	N262	N	0.465049	0.818804	0.080509
	N263	N	0.537089	0.819178	0.908290
	N264	N	0.467204	0.909074	0.175431
	N265	N	0.537544	0.084292	0.172792
	N266	N	0.465091	0.083105	0.813380
	N267	N	0.535556	0.907240	0.811222
	N268	N	0.915976	0.178795	0.458376
	N269	N	0.091626	0.180277	0.528691
	N270	N	0.092025	0.814107	0.459826
	N271	N	0.914676	0.816259	0.529168
	N272	N	0.180810	0.461736	0.906373
	N273	N	0.177911	0.533728	0.079359
	N274	N	0.818763	0.461870	0.081818
	N275	N	0.821575	0.534272	0.908967
	O276	O	0.017890	0.969470	0.185915
	H277	H	-0.012319	0.971823	0.197493
	H278	H	0.012322	0.974261	0.188518
	O279	O	0.584631	0.462223	0.707075
	H280	H	0.578626	0.459355	0.694445
	H281	H	0.572118	0.430064	0.715341
	O282	O	0.477516	0.278805	0.713203
	H283	H	0.453567	0.273531	0.723985
	H284	H	0.448257	0.265519	0.728846
	O285	O	0.790172	1.188559	-0.016838
	H286	H	0.775219	1.188070	-0.012653
	H287	H	0.787657	1.191650	-0.003646
	O288	O	0.304656	0.422239	0.427002
	H289	H	0.327639	0.429130	0.404990
	H290	H	0.309265	0.423833	0.417533
	O291	O	0.683261	0.424836	0.635721
	H292	H	0.677291	0.432211	0.628779
	H293	H	0.670648	0.425337	0.641065
	O294	O	1.114391	0.893984	1.040428
	H295	H	1.104022	0.904030	1.046403
	H296	H	1.123744	0.882869	1.052080
	O297	O	0.409511	0.650055	0.595600
	H298	H	0.403667	0.638808	0.577404
	H299	H	0.392793	0.648921	0.585279
	O300	O	0.467207	0.334608	0.461374
	H301	H	0.471660	0.332004	0.464503
	H302	H	0.470504	0.326088	0.452173
	O303	O	0.576733	0.513564	0.500680
	H304	H	0.591605	0.512427	0.502724
	H305	H	0.573274	0.489460	0.484368
	O306	O	0.017137	-0.059327	0.957452
	H307	H	0.027538	-0.049647	0.955632
	H308	H	0.021390	-0.056525	0.978631
	O309	O	0.817268	-0.137781	0.172341
	H310	H	0.810378	-0.156114	0.171736
	H311	H	0.831346	-0.147307	0.155637
	O312	O	0.551657	0.551218	0.279931
	H313	H	0.583477	0.547453	0.291154
	H314	H	0.551828	0.579393	0.272241
	O315	O	0.706868	0.301229	0.473879
	H316	H	0.702206	0.301411	0.503729
	H317	H	0.708455	0.292062	0.483908
	O318	O	0.134704	-0.137683	-0.076366
	H319	H	0.140069	-0.143476	-0.102159
	H320	H	0.156261	-0.144326	-0.082939
	O321	O	0.478606	0.711933	0.279291
	H322	H	0.501984	0.717215	0.302911
	H323	H	0.471501	0.740985	0.253568
	O324	O	0.892083	0.195452	0.799720
	H325	H	0.881206	0.192754	0.796117
	H326	H	0.870772	0.186878	0.815045
	O327	O	0.797609	0.336610	0.822754
	H328	H	0.773867	0.334860	0.839364
	H329	H	0.799154	0.319201	0.796422
	O330	O	-0.120252	0.826905	1.102118
	H331	H	-0.112034	0.831596	1.099909
	H332	H	-0.125753	0.810339	1.104894
	O333	O	0.016621	0.884538	-0.174638
	H334	H	0.012620	0.884447	-0.189254
	H335	H	0.011384	0.900662	-0.185069
	O336	O	1.012278	1.145666	0.135950
	H337	H	1.022031	1.149720	0.136196
	H338	H	1.016252	1.155731	0.128227
	O339	O	0.074579	1.095957	0.893325
	H340	H	0.065065	1.109141	0.880887
	H341	H	0.060802	1.092970	0.896679
	O342	O	0.288374	0.591768	0.517671
	H343	H	0.289500	0.560531	0.518152
	H344	H	0.286140	0.578538	0.526899
	O345	O	-0.117369	-0.172223	0.947942
	H346	H	-0.117851	-0.181125	0.943455
	H347	H	-0.109214	-0.149937	0.935203
	O348	O	0.700207	0.401199	0.297511
	H349	H	0.683029	0.381699	0.289633
	H350	H	0.705191	0.390852	0.314520
	O351	O	1.041400	0.981668	-0.062138
	H352	H	1.054059	0.998430	-0.048366
	H353	H	1.042918	0.961144	-0.062130
	O354	O	1.115088	1.109763	0.978930
	H355	H	1.095558	1.097871	0.974856
	H356	H	1.110377	1.117209	0.976006
	O357	O	-0.001924	-0.031678	-0.083288
	H358	H	-0.003142	-0.020607	-0.090742
	H359	H	0.012917	-0.008989	-0.070363
	O360	O	0.600794	0.301095	0.300679
	H361	H	0.579021	0.310570	0.302014
	H362	H	0.599248	0.299008	0.299617
	O363	O	1.068450	0.150332	-0.049981
	H364	H	1.072491	0.148069	-0.055719
	H365	H	1.063315	0.165932	-0.046717
	O366	O	-0.710827	-0.496270	1.660218
	H367	H	-0.679163	-0.486459	1.663488
	H368	H	-0.728634	-0.503203	1.675400
	O369	O	1.096236	-0.151403	1.039083
	H370	H	1.101347	-0.149491	1.040437
	H371	H	1.104519	-0.154132	1.032252
	O372	O	0.282286	0.517519	0.278029
	H373	H	0.253416	0.520407	0.244384
	H374	H	0.294636	0.557180	0.295090
	O375	O	-0.059257	-0.079002	0.924195
	H376	H	-0.037276	-0.097452	0.914067
	H377	H	-0.072079	-0.082395	0.910689
	O378	O	0.556728	0.694328	0.445567
	H379	H	0.561321	0.698175	0.457650
	H380	H	0.580614	0.689028	0.460310
	O381	O	0.314756	0.679384	0.305961
	H382	H	0.348567	0.678539	0.305658
	H383	H	0.316588	0.692841	0.348771
	O384	O	0.715337	0.707044	0.519946
	H385	H	0.713682	0.697507	0.564270
	H386	H	0.743217	0.732011	0.527277
	O387	O	0.435999	0.391682	0.299367
	H388	H	0.461651	0.429636	0.293656
	H389	H	0.400815	0.397387	0.285624
	O390	O	1.091491	0.978257	0.065420
	H391	H	1.081378	0.991121	0.069972
	H392	H	1.082764	0.960379	0.051380
	O393	O	0.921216	0.012678	1.101455
	H394	H	0.914329	0.011945	1.105269
	H395	H	0.912588	-0.001840	1.103681
	O396	O	0.291178	0.288094	0.516985
	H397	H	0.283269	0.288452	0.497954
	H398	H	0.286122	0.275104	0.499818
	O399	O	0.319412	0.316374	0.677062
	H400	H	0.308002	0.305986	0.623369
	H401	H	0.305910	0.359074	0.686314
	O402	O	0.795395	1.008232	0.005890
	H403	H	0.813015	0.999621	0.009119
	H404	H	0.793613	1.004986	0.029110
	O405	O	0.561567	0.287099	0.568014
	H406	H	0.539844	0.276296	0.558558
	H407	H	0.545333	0.282326	0.597700
	O408	O	0.336719	0.705624	0.474503
	H409	H	0.334128	0.675624	0.481473
	H410	H	0.300987	0.723893	0.477220
	O411	O	1.197073	1.133230	1.059021
	H412	H	1.198580	1.116957	1.061426
	H413	H	1.214380	1.140100	1.070643
	O414	O	0.521863	0.705125	0.706688
	H415	H	0.517973	0.720785	0.688610
	H416	H	0.511272	0.731870	0.715534
	O417	O	0.135345	0.813381	0.859612
	H418	H	0.116249	0.819459	0.856997
	H419	H	0.138715	0.836552	0.852715
	O420	O	-0.191262	1.000738	0.912379
	H421	H	-0.200643	0.992829	0.916356
	H422	H	-0.214748	0.993059	0.924172
	O423	O	0.041457	1.086858	-0.026216
	H424	H	0.056949	1.084083	-0.035285
	H425	H	0.028856	1.096746	-0.030763
	O426	O	0.452391	0.555736	0.683683
	H427	H	0.466366	0.576972	0.676572
	H428	H	0.475739	0.552921	0.690178
	O429	O	0.584473	0.483268	0.356637
	H430	H	0.584611	0.464748	0.364062
	H431	H	0.603190	0.471739	0.349925
	O432	O	0.685058	0.676615	0.675442
	H433	H	0.680198	0.646216	0.686660
	H434	H	0.659116	0.661159	0.682318
	O435	O	0.129861	0.191298	0.141313
	H436	H	0.114901	0.199559	0.163548
	H437	H	0.146095	0.171790	0.146562
	O438	O	-0.484182	1.383784	1.382276
	H439	H	-0.486126	1.390791	1.362040
	H440	H	-0.466086	1.367347	1.363790
	O441	O	0.698563	0.581789	0.419283
	H442	H	0.706036	0.602968	0.435374
	H443	H	0.693268	0.576630	0.396282
