data_Molecule from HDF5

_cell_length_a		16.607608
_cell_length_b		16.726428
_cell_length_c		16.592993
_cell_angle_alpha	89.779792
_cell_angle_beta	89.992426
_cell_angle_gamma	90.029533
_symmetry_space_group_name_H-M	'P 1'
_symmetry_Int_Tables_number		1

loop_
	_symmetry_equiv_pos_as_xyz
	x,y,z

loop_
	_atom_site_label
	_atom_site_type_symbol
	_atom_site_fract_x
	_atom_site_fract_y
	_atom_site_fract_z
	H0	H	0.395583	0.843193	0.733283
	H1	H	0.604658	0.154490	0.722214
	H2	H	0.606903	0.839549	0.287305
	H3	H	0.396998	0.149198	0.284429
	H4	H	0.724561	0.391158	0.853107
	H5	H	0.723327	0.600170	0.161647
	H6	H	0.281243	0.600923	0.849750
	H7	H	0.283058	0.393493	0.163870
	H8	H	0.846447	0.716052	0.402360
	H9	H	0.156750	0.716939	0.612991
	H10	H	0.845915	0.276981	0.608625
	H11	H	0.156361	0.272076	0.396192
	H12	H	0.845920	0.391945	0.725142
	H13	H	0.158410	0.598117	0.726641
	H14	H	0.846643	0.600238	0.286231
	H15	H	0.158807	0.393299	0.286353
	H16	H	0.395002	0.719223	0.850567
	H17	H	0.608580	0.718201	0.159505
	H18	H	0.608828	0.274829	0.852157
	H19	H	0.399150	0.277342	0.164493
	H20	H	0.721806	0.838786	0.405237
	H21	H	0.720096	0.154248	0.605003
	H22	H	0.276819	0.844104	0.619650
	H23	H	0.279732	0.148031	0.400119
	H24	H	0.900102	0.340811	0.228405
	H25	H	0.108008	0.650643	0.228145
	H26	H	0.103897	0.339654	0.789414
	H27	H	0.893220	0.647500	0.782088
	H28	H	0.225019	0.889347	0.353055
	H29	H	0.225121	0.100661	0.661466
	H30	H	0.790494	0.092590	0.345613
	H31	H	0.787310	0.897067	0.665782
	H32	H	0.346328	0.214961	0.902805
	H33	H	0.660317	0.213705	0.108165
	H34	H	0.347496	0.775031	0.110494
	H35	H	0.657751	0.774186	0.899668
	H36	H	0.347063	0.892314	0.225437
	H37	H	0.661052	0.096190	0.223346
	H38	H	0.347756	0.100424	0.785479
	H39	H	0.660937	0.896240	0.789212
	H40	H	0.904743	0.210652	0.346521
	H41	H	0.108582	0.216435	0.661463
	H42	H	0.109295	0.773484	0.352791
	H43	H	0.900229	0.777374	0.664336
	H44	H	0.221084	0.340027	0.905789
	H45	H	0.227167	0.649233	0.114272
	H46	H	0.781912	0.340679	0.113101
	H47	H	0.779044	0.647661	0.899972
	H48	H	0.419956	0.104844	0.596510
	H49	H	0.595552	0.884639	0.598556
	H50	H	0.596778	0.108943	0.409608
	H51	H	0.414162	0.882918	0.414823
	H52	H	0.592127	0.409464	0.119134
	H53	H	0.589142	0.590716	0.892797
	H54	H	0.417081	0.583197	0.114982
	H55	H	0.406075	0.409310	0.893580
	H56	H	0.114091	0.587837	0.422215
	H57	H	0.891261	0.581567	0.597356
	H58	H	0.117369	0.402135	0.600753
	H59	H	0.894119	0.408114	0.423375
	H60	H	0.114405	0.402237	0.592399
	H61	H	0.887576	0.588124	0.598420
	H62	H	0.112269	0.582045	0.420258
	H63	H	0.889897	0.408509	0.411010
	H64	H	0.415426	0.587429	0.117556
	H65	H	0.596344	0.578338	0.894214
	H66	H	0.586744	0.403124	0.118676
	H67	H	0.418647	0.406808	0.896884
	H68	H	0.592599	0.106352	0.414663
	H69	H	0.596784	0.884290	0.599057
	H70	H	0.416815	0.102304	0.587653
	H71	H	0.419571	0.886704	0.419482
	H72	H	0.913842	0.603948	0.088701
	H73	H	0.092650	0.385314	0.097553
	H74	H	0.095839	0.607900	0.917083
	H75	H	0.912272	0.382822	0.917828
	H76	H	0.083533	0.904843	0.616338
	H77	H	0.085798	0.087687	0.395602
	H78	H	0.910785	0.084483	0.617862
	H79	H	0.912933	0.903657	0.394382
	H80	H	0.613174	0.087168	0.925161
	H81	H	0.387826	0.093109	0.099087
	H82	H	0.614459	0.910499	0.096134
	H83	H	0.394523	0.912116	0.921278
	H84	H	0.616740	0.903280	0.096526
	H85	H	0.393342	0.086729	0.090438
	H86	H	0.615810	0.080677	0.909146
	H87	H	0.391236	0.909008	0.913454
	H88	H	0.914576	0.090326	0.618839
	H89	H	0.096424	0.085969	0.392988
	H90	H	0.093298	0.902846	0.622155
	H91	H	0.911881	0.902684	0.393581
	H92	H	0.090449	0.607532	0.912053
	H93	H	0.089388	0.386614	0.096254
	H94	H	0.904255	0.610191	0.097144
	H95	H	0.915689	0.384366	0.917307
	H96	H	0.411139	0.106758	0.594126
	H97	H	0.595716	0.884664	0.600064
	H98	H	0.599481	0.108162	0.415973
	H99	H	0.411993	0.885239	0.422285
	H100	H	0.594288	0.402115	0.121585
	H101	H	0.582999	0.579524	0.898897
	H102	H	0.412794	0.583560	0.117387
	H103	H	0.410852	0.397336	0.891912
	H104	H	0.114303	0.586285	0.416159
	H105	H	0.890536	0.586476	0.591751
	H106	H	0.113874	0.409823	0.597061
	H107	H	0.888153	0.397342	0.418050
	H108	H	0.917149	0.607411	0.101961
	H109	H	0.092139	0.386148	0.094231
	H110	H	0.088792	0.605616	0.919407
	H111	H	0.913341	0.384523	0.920579
	H112	H	0.091940	0.913313	0.616581
	H113	H	0.091021	0.078081	0.397975
	H114	H	0.907917	0.089999	0.621145
	H115	H	0.911040	0.904174	0.394272
	H116	H	0.620436	0.097408	0.912434
	H117	H	0.391019	0.081798	0.101163
	H118	H	0.613788	0.905641	0.090208
	H119	H	0.391097	0.903794	0.921455
	C120	C	0.382083	0.003864	0.628419
	C121	C	0.625437	0.988746	0.627764
	C122	C	0.626072	0.003962	0.384138
	C123	C	0.382386	0.986678	0.385917
	C124	C	0.623504	0.373986	0.016505
	C125	C	0.623139	0.616172	0.997204
	C126	C	0.381831	0.617167	0.013697
	C127	C	0.381161	0.374212	0.998495
	C128	C	0.010729	0.617633	0.386335
	C129	C	0.993156	0.616598	0.628096
	C130	C	0.011457	0.373881	0.627086
	C131	C	0.994389	0.374477	0.385457
	C132	C	0.880727	0.504488	0.128878
	C133	C	0.124085	0.488022	0.128471
	C134	C	0.123444	0.504423	0.885081
	C135	C	0.880588	0.485697	0.885370
	C136	C	0.123133	0.874204	0.516028
	C137	C	0.123983	0.116314	0.498073
	C138	C	0.882260	0.116955	0.513849
	C139	C	0.881607	0.874209	0.498591
	C140	C	0.512686	0.119126	0.884212
	C141	C	0.494781	0.116638	0.127966
	C142	C	0.511669	0.874371	0.126711
	C143	C	0.495250	0.876212	0.885946
	C144	C	0.377869	0.889174	0.692036
	C145	C	0.624080	0.107251	0.683415
	C146	C	0.625800	0.886389	0.326826
	C147	C	0.379054	0.102717	0.324734
	C148	C	0.684236	0.372364	0.899521
	C149	C	0.683319	0.618828	0.114605
	C150	C	0.321288	0.619255	0.896617
	C151	C	0.322690	0.374210	0.116808
	C152	C	0.893246	0.676573	0.384000
	C153	C	0.110320	0.676537	0.631056
	C154	C	0.893235	0.315933	0.627495
	C155	C	0.110690	0.313925	0.380778
	C156	C	0.893202	0.373070	0.685503
	C157	C	0.110881	0.617540	0.687439
	C158	C	0.893438	0.619130	0.326201
	C159	C	0.111824	0.373915	0.325709
	C160	C	0.377725	0.678224	0.897069
	C161	C	0.626494	0.677296	0.113656
	C162	C	0.626630	0.314721	0.899225
	C163	C	0.380142	0.316254	0.117162
	C164	C	0.683134	0.886044	0.385299
	C165	C	0.681597	0.107062	0.625263
	C166	C	0.319097	0.889363	0.635184
	C167	C	0.320821	0.102180	0.382349
	C168	C	0.880203	0.387422	0.188669
	C169	C	0.126590	0.604263	0.188233
	C170	C	0.123439	0.386481	0.828118
	C171	C	0.876454	0.601319	0.823504
	C172	C	0.184494	0.871398	0.399517
	C173	C	0.184702	0.118858	0.614786
	C174	C	0.828156	0.113376	0.393628
	C175	C	0.825380	0.876275	0.617967
	C176	C	0.394019	0.176228	0.883697
	C177	C	0.613296	0.174306	0.127873
	C178	C	0.394286	0.815258	0.128731
	C179	C	0.611708	0.815327	0.882537
	C180	C	0.393902	0.873265	0.185922
	C181	C	0.613489	0.115792	0.184948
	C182	C	0.394578	0.119243	0.825503
	C183	C	0.613333	0.875759	0.827439
	C184	C	0.884731	0.172190	0.394148
	C185	C	0.126981	0.176490	0.614782
	C186	C	0.126909	0.813804	0.399576
	C187	C	0.881687	0.817185	0.617476
	C188	C	0.181606	0.386833	0.885810
	C189	C	0.185598	0.603539	0.131448
	C190	C	0.821905	0.387262	0.131326
	C191	C	0.819464	0.601493	0.881975
	C192	C	0.408496	0.083865	0.600613
	C193	C	0.602532	0.906120	0.605760
	C194	C	0.602834	0.086490	0.406986
	C195	C	0.408030	0.905918	0.411595
	C196	C	0.598226	0.398302	0.098499
	C197	C	0.596890	0.590351	0.916196
	C198	C	0.407672	0.591769	0.095466
	C199	C	0.405079	0.397672	0.915776
	C200	C	0.092356	0.592567	0.411957
	C201	C	0.911217	0.592200	0.603103
	C202	C	0.093803	0.397785	0.603535
	C203	C	0.912004	0.398097	0.410244
	C204	C	0.904992	0.585911	0.103346
	C205	C	0.098523	0.407101	0.103390
	C206	C	0.098763	0.585907	0.909375
	C207	C	0.906330	0.404926	0.911273
	C208	C	0.097005	0.899871	0.597332
	C209	C	0.098375	0.091183	0.416713
	C210	C	0.904508	0.094760	0.597533
	C211	C	0.905179	0.896872	0.415778
	C212	C	0.595034	0.095236	0.908511
	C213	C	0.412134	0.093905	0.103777
	C214	C	0.593601	0.899249	0.101636
	C215	C	0.413385	0.901247	0.911449
	Zn216	Zn	0.503827	-0.003095	0.756742
	Zn217	Zn	0.503114	-0.005269	0.256266
	Zn218	Zn	0.751925	0.495097	0.007573
	Zn219	Zn	0.252954	0.496398	0.006496
	Zn220	Zn	0.002268	0.745370	0.507464
	Zn221	Zn	0.003294	0.245526	0.505664
	Zn222	Zn	0.001668	0.494473	0.756079
	Zn223	Zn	0.002699	0.496601	0.257828
	Zn224	Zn	0.502629	0.745735	0.005314
	Zn225	Zn	0.502374	0.245972	0.007281
	Zn226	Zn	0.754057	-0.004125	0.506235
	Zn227	Zn	0.252765	-0.005508	0.507421
	N228	N	0.416826	0.961390	0.687658
	N229	N	0.589988	0.032604	0.685248
	N230	N	0.591129	0.960889	0.325883
	N231	N	0.416880	0.029844	0.326828
	N232	N	0.682708	0.408198	0.973743
	N233	N	0.681469	0.581425	0.041265
	N234	N	0.323538	0.582028	0.970431
	N235	N	0.322991	0.409488	0.041921
	N236	N	0.967468	0.676026	0.420414
	N237	N	0.035829	0.676245	0.595126
	N238	N	0.967933	0.315796	0.591953
	N239	N	0.036714	0.314279	0.417489
	N240	N	0.967721	0.408280	0.685547
	N241	N	0.036900	0.581136	0.685987
	N242	N	0.967700	0.583461	0.327249
	N243	N	0.038276	0.410980	0.328461
	N244	N	0.414826	0.676830	0.970916
	N245	N	0.589820	0.675841	0.039559
	N246	N	0.589643	0.315502	0.973103
	N247	N	0.415578	0.315862	0.042302
	N248	N	0.683788	0.960479	0.419909
	N249	N	0.683092	0.032243	0.591701
	N250	N	0.321787	0.961663	0.596060
	N251	N	0.322663	0.028989	0.419659
	N252	N	0.915877	0.461388	0.187583
	N253	N	0.089015	0.531457	0.186387
	N254	N	0.088435	0.460773	0.827247
	N255	N	0.913867	0.528221	0.825356
	N256	N	0.182471	0.908188	0.473180
	N257	N	0.182956	0.082181	0.541116
	N258	N	0.826269	0.080004	0.469369
	N259	N	0.824701	0.910641	0.542798
	N260	N	0.468697	0.176787	0.919371
	N261	N	0.538199	0.175319	0.093238
	N262	N	0.468698	0.815587	0.092664
	N263	N	0.536910	0.815261	0.917774
	N264	N	0.468177	0.909212	0.184825
	N265	N	0.538672	0.080872	0.185179
	N266	N	0.469504	0.084738	0.825479
	N267	N	0.539661	0.912627	0.829067
	N268	N	0.917195	0.174844	0.470188
	N269	N	0.089965	0.175417	0.540942
	N270	N	0.089386	0.815337	0.473086
	N271	N	0.915638	0.815443	0.542218
	N272	N	0.181998	0.461346	0.920476
	N273	N	0.184304	0.530114	0.094796
	N274	N	0.821918	0.461158	0.094947
	N275	N	0.821989	0.528605	0.920047
	O276	O	-0.219545	1.038465	-0.217767
	H277	H	-0.223589	1.066647	-0.217758
	H278	H	-0.241236	1.057864	-0.237510
	O279	O	0.037873	0.208573	0.211401
	H280	H	0.036290	0.209027	0.218576
	H281	H	0.035101	0.203824	0.206998
	O282	O	0.966014	0.217424	0.783689
	H283	H	0.935719	0.222434	0.778722
	H284	H	0.952418	0.235122	0.765343
	O285	O	0.692554	0.307540	0.703352
	H286	H	0.666704	0.331927	0.704238
	H287	H	0.680101	0.319532	0.666194
	O288	O	0.330842	0.509101	0.399679
	H289	H	0.326456	0.509515	0.384622
	H290	H	0.332418	0.531904	0.420314
	O291	O	0.285141	0.718401	0.485762
	H292	H	0.291568	0.707303	0.451244
	H293	H	0.255436	0.747056	0.472588
	O294	O	1.034344	-0.231928	0.786925
	H295	H	1.018842	-0.237108	0.791320
	H296	H	1.024084	-0.246000	0.772671
	O297	O	0.504119	0.491530	0.736416
	H298	H	0.486348	0.494555	0.724969
	H299	H	0.497814	0.495782	0.737560
	O300	O	-0.044676	0.228168	1.046400
	H301	H	-0.030252	0.223525	1.039745
	H302	H	-0.027914	0.220836	1.034952
	O303	O	0.466635	0.718518	0.285854
	H304	H	0.458940	0.732327	0.285725
	H305	H	0.448858	0.732467	0.272693
	O306	O	0.562168	0.318948	0.483350
	H307	H	0.582576	0.307565	0.484005
	H308	H	0.572733	0.323764	0.474337
	O309	O	0.354196	0.413442	0.501181
	H310	H	0.352609	0.402662	0.510469
	H311	H	0.366550	0.408718	0.486641
	O312	O	0.498718	0.476159	0.736483
	H313	H	0.485274	0.466806	0.727239
	H314	H	0.485908	0.480856	0.736770
	O315	O	1.027154	1.048773	0.797625
	H316	H	1.001109	1.035896	0.792679
	H317	H	1.009247	1.074862	0.791323
	O318	O	1.140137	1.033304	0.152949
	H319	H	1.151398	1.029828	0.151757
	H320	H	1.127210	1.031208	0.154388
	O321	O	0.535913	0.716527	0.723421
	H322	H	0.524216	0.728392	0.755347
	H323	H	0.530249	0.706932	0.715098
	O324	O	1.000400	0.978499	0.075191
	H325	H	0.984974	0.981608	0.065408
	H326	H	1.008017	0.972958	0.073013
	O327	O	-0.054365	-0.098239	0.908764
	H328	H	-0.061104	-0.106675	0.900656
	H329	H	-0.059086	-0.085049	0.904194
	O330	O	0.733936	0.264288	0.461770
	H331	H	0.754165	0.250163	0.441552
	H332	H	0.747775	0.257045	0.442490
	O333	O	0.474448	0.274403	0.734801
	H334	H	0.468249	0.272452	0.716422
	H335	H	0.474420	0.252598	0.764497
	O336	O	0.487859	0.276604	0.581088
	H337	H	0.497620	0.283166	0.587014
	H338	H	0.494448	0.284129	0.571443
	O339	O	0.994770	0.200689	0.969635
	H340	H	1.004240	0.208641	0.946596
	H341	H	1.003020	0.200592	0.956337
	O342	O	0.054105	-0.175795	0.113055
	H343	H	0.069467	-0.165279	0.104198
	H344	H	0.064929	-0.168603	0.122191
	O345	O	0.009184	1.100878	0.908761
	H346	H	0.024088	1.106828	0.897189
	H347	H	0.008037	1.108309	0.910227
	O348	O	0.210546	-0.221181	-0.208792
	H349	H	0.164285	-0.219893	-0.208806
	H350	H	0.212314	-0.178770	-0.196340
	O351	O	0.365001	0.488544	0.570885
	H352	H	0.355870	0.497865	0.547298
	H353	H	0.368485	0.493226	0.557693
	O354	O	0.133751	-0.071944	1.154671
	H355	H	0.125666	-0.047854	1.148262
	H356	H	0.121529	-0.077350	1.157067
	O357	O	0.323018	0.678774	0.677147
	H358	H	0.293549	0.704331	0.703219
	H359	H	0.318426	0.666907	0.651300
	O360	O	0.726489	0.721675	0.549012
	H361	H	0.734895	0.736636	0.546822
	H362	H	0.733357	0.731417	0.566684
	O363	O	-0.204114	0.205612	-0.203821
	H364	H	-0.237747	0.239734	-0.231720
	H365	H	-0.207506	0.212115	-0.154932
	O366	O	0.462811	0.528155	0.453344
	H367	H	0.464101	0.529860	0.439003
	H368	H	0.463518	0.530818	0.448855
	O369	O	0.709633	0.285881	0.297006
	H370	H	0.710483	0.271180	0.284930
	H371	H	0.726913	0.305858	0.277777
	O372	O	0.783651	0.959277	-0.015260
	H373	H	0.794775	0.949387	-0.023660
	H374	H	0.790667	0.964671	-0.041217
	O375	O	1.192926	0.191409	-0.181976
	H376	H	1.225319	0.219160	-0.216892
	H377	H	1.186162	0.154389	-0.181455
	O378	O	0.258115	0.255084	0.265865
	H379	H	0.266782	0.270967	0.280341
	H380	H	0.236183	0.239921	0.265836
	O381	O	-0.172616	0.811332	0.822454
	H382	H	-0.181383	0.789385	0.818052
	H383	H	-0.172525	0.794000	0.828983
	O384	O	0.923538	-0.060437	0.808265
	H385	H	0.896845	-0.060108	0.809889
	H386	H	0.913314	-0.077548	0.802241
	O387	O	1.219479	0.773607	-0.016882
	H388	H	1.234001	0.767724	-0.038863
	H389	H	1.228472	0.781639	-0.040882
	O390	O	0.544342	0.269981	0.282724
	H391	H	0.570877	0.267315	0.287336
	H392	H	0.537478	0.252620	0.257489
	O393	O	0.375742	0.313483	0.342502
	H394	H	0.378248	0.311738	0.347529
	H395	H	0.390544	0.315005	0.340063
	O396	O	-0.019705	0.760420	1.003008
	H397	H	-0.002897	0.751099	1.020236
	H398	H	-0.009628	0.774729	1.000565
	O399	O	0.217253	0.111572	1.221604
	H400	H	0.203505	0.111287	1.232139
	H401	H	0.214687	0.097239	1.221848
	O402	O	0.536375	0.720665	0.437253
	H403	H	0.524225	0.727925	0.452576
	H404	H	0.524545	0.719311	0.433764
	O405	O	0.812527	0.056313	1.062524
	H406	H	0.811281	0.043688	1.045362
	H407	H	0.811941	0.027128	1.065114
	O408	O	0.225888	0.219455	0.045158
	H409	H	0.235234	0.229179	0.070952
	H410	H	0.234447	0.239955	0.045789
	O411	O	0.715645	0.706262	0.728502
	H412	H	0.686696	0.709600	0.707759
	H413	H	0.703952	0.671697	0.731682
	O414	O	0.703140	0.528095	0.719399
	H415	H	0.714402	0.518934	0.733276
	H416	H	0.688776	0.522232	0.700106
	O417	O	0.702903	0.540321	0.529116
	H418	H	0.694516	0.539609	0.528575
	H419	H	0.705283	0.536497	0.516178
	O420	O	0.571564	0.370706	0.567559
	H421	H	0.579461	0.362651	0.545634
	H422	H	0.558161	0.369430	0.559873
	O423	O	-0.127397	0.110487	1.199772
	H424	H	-0.131289	0.092751	1.174226
	H425	H	-0.130471	0.094040	1.199752
	O426	O	0.287472	0.535016	0.333208
	H427	H	0.325480	0.532954	0.330114
	H428	H	0.271005	0.532532	0.315905
	O429	O	0.790743	0.789917	1.211367
	H430	H	0.764339	0.760820	1.227959
	H431	H	0.816322	0.780598	1.190853
	O432	O	0.567109	0.561263	0.277408
	H433	H	0.561369	0.552019	0.277381
	H434	H	0.559604	0.570198	0.269859
	O435	O	0.192883	0.805294	0.196429
	H436	H	0.181614	0.827304	0.174845
	H437	H	0.170759	0.822880	0.182946
	O438	O	-0.095256	0.118851	0.196930
	H439	H	-0.089876	0.120377	0.186655
	H440	H	-0.094995	0.105953	0.191345
	O441	O	-0.197050	0.196076	-0.040454
	H442	H	-0.201042	0.190387	-0.021920
	H443	H	-0.192094	0.205162	-0.025676
	O444	O	0.632770	0.603066	0.501677
	H445	H	0.645355	0.624175	0.519307
	H446	H	0.615290	0.610713	0.507273
	O447	O	0.211697	1.040010	0.879860
	H448	H	0.218115	1.046132	0.900387
	H449	H	0.181438	1.051211	0.876873
	O450	O	-0.218244	0.773750	1.033858
	H451	H	-0.226995	0.754987	1.035505
	H452	H	-0.220760	0.778894	1.029508
	O453	O	0.279169	0.452434	0.729287
	H454	H	0.245506	0.452032	0.757618
	H455	H	0.287667	0.461435	0.708319
	O456	O	0.294311	0.285053	0.714657
	H457	H	0.311567	0.287348	0.685563
	H458	H	0.309749	0.316961	0.715418
	O459	O	0.971105	0.772048	0.229745
	H460	H	0.969665	0.770991	0.234288
	H461	H	0.966404	0.755389	0.240982
	O462	O	0.718447	0.452964	0.286984
	H463	H	0.725736	0.463654	0.280783
	H464	H	0.733424	0.449082	0.286458
	O465	O	0.784639	-0.036691	0.224313
	H466	H	0.781191	-0.067620	0.219862
	H467	H	0.760648	-0.055223	0.243401
	O468	O	0.691874	0.684459	0.313558
	H469	H	0.674381	0.669455	0.314832
	H470	H	0.672929	0.678448	0.343366
	O471	O	0.276624	0.277221	0.531290
	H472	H	0.264871	0.275795	0.532379
	H473	H	0.276372	0.261734	0.537344
	O474	O	0.294280	0.707543	0.295284
	H475	H	0.260823	0.737533	0.262516
	H476	H	0.304776	0.676592	0.292592
	O477	O	0.705510	0.492851	1.490552
	H478	H	0.687582	0.499022	1.481387
	H479	H	0.703906	0.505573	1.500531
	O480	O	0.479466	0.560514	0.604112
	H481	H	0.479301	0.561569	0.604323
	H482	H	0.460668	0.578249	0.606085
	O483	O	0.443474	0.447288	0.425013
	H484	H	0.445644	0.439325	0.423257
	H485	H	0.449962	0.449235	0.417445
	O486	O	0.451755	0.738849	0.570077
	H487	H	0.445882	0.743056	0.583308
	H488	H	0.425088	0.738181	0.583504
	O489	O	1.168686	0.994121	0.046500
	H490	H	1.167729	0.996228	0.039452
	H491	H	1.169736	0.994724	0.038455
	O492	O	-0.041414	-0.089951	0.075860
	H493	H	-0.051217	-0.075103	0.077245
	H494	H	-0.039814	-0.106212	0.066742
	O495	O	0.085480	0.933268	0.942055
	H496	H	0.070468	0.941993	0.941772
	H497	H	0.081129	0.952093	0.932973
	O498	O	1.211999	0.962827	0.856627
	H499	H	1.214001	0.996482	0.861164
	H500	H	1.203536	0.972703	0.851980
	O501	O	0.443308	0.458182	0.280871
	H502	H	0.459950	0.443695	0.276268
	H503	H	0.441218	0.467295	0.303032
