data_Molecule from HDF5

_cell_length_a		16.223025
_cell_length_b		16.343934
_cell_length_c		16.198994
_cell_angle_alpha	90.350809
_cell_angle_beta	90.082148
_cell_angle_gamma	89.870943
_symmetry_space_group_name_H-M	'P 1'
_symmetry_Int_Tables_number		1

loop_
	_symmetry_equiv_pos_as_xyz
	x,y,z

loop_
	_atom_site_label
	_atom_site_type_symbol
	_atom_site_fract_x
	_atom_site_fract_y
	_atom_site_fract_z
	H0	H	0.391894	0.840613	0.713185
	H1	H	0.586423	0.167934	0.714638
	H2	H	0.590389	0.841506	0.283766
	H3	H	0.392359	0.168477	0.286553
	H4	H	0.705832	0.404339	0.836208
	H5	H	0.705552	0.602319	0.165024
	H6	H	0.276542	0.601204	0.835987
	H7	H	0.278518	0.405039	0.164424
	H8	H	0.826955	0.720317	0.400965
	H9	H	0.155029	0.721166	0.601041
	H10	H	0.827267	0.291329	0.601075
	H11	H	0.153150	0.288164	0.399344
	H12	H	0.826615	0.408965	0.713239
	H13	H	0.155813	0.603807	0.715259
	H14	H	0.826520	0.602506	0.287079
	H15	H	0.155377	0.404557	0.286878
	H16	H	0.391029	0.717857	0.835487
	H17	H	0.593657	0.721322	0.163567
	H18	H	0.593166	0.286978	0.836048
	H19	H	0.393509	0.290134	0.164131
	H20	H	0.707973	0.842492	0.399340
	H21	H	0.703611	0.168601	0.600037
	H22	H	0.274170	0.841298	0.597702
	H23	H	0.275078	0.168852	0.401688
	H24	H	0.895127	0.339927	0.214023
	H25	H	0.089878	0.667588	0.216480
	H26	H	0.091333	0.341483	0.782948
	H27	H	0.892033	0.667980	0.788083
	H28	H	0.202282	0.907302	0.335410
	H29	H	0.204048	0.105321	0.664409
	H30	H	0.776064	0.102185	0.335672
	H31	H	0.777180	0.910111	0.664675
	H32	H	0.328084	0.219515	0.900440
	H33	H	0.656099	0.217548	0.099690
	H34	H	0.327672	0.788525	0.099311
	H35	H	0.655118	0.786163	0.898068
	H36	H	0.325820	0.907885	0.211866
	H37	H	0.654558	0.102284	0.215653
	H38	H	0.325565	0.099571	0.788619
	H39	H	0.655109	0.902956	0.783066
	H40	H	0.889622	0.219602	0.336093
	H41	H	0.089447	0.221487	0.663552
	H42	H	0.090047	0.788788	0.336680
	H43	H	0.889219	0.791279	0.664649
	H44	H	0.207175	0.340144	0.900790
	H45	H	0.207387	0.667245	0.100624
	H46	H	0.777794	0.340023	0.097945
	H47	H	0.774905	0.665907	0.903531
	H48	H	0.391995	0.122688	0.596267
	H49	H	0.578540	0.891351	0.587051
	H50	H	0.583750	0.123943	0.398121
	H51	H	0.400729	0.890214	0.405304
	H52	H	0.587323	0.409709	0.118298
	H53	H	0.585801	0.592146	0.883657
	H54	H	0.396806	0.596709	0.117276
	H55	H	0.398137	0.414295	0.883868
	H56	H	0.107523	0.595764	0.407233
	H57	H	0.873292	0.605907	0.589856
	H58	H	0.104966	0.423401	0.592382
	H59	H	0.872560	0.415743	0.401024
	H60	H	0.111396	0.407710	0.600090
	H61	H	0.876759	0.593568	0.590387
	H62	H	0.108682	0.601116	0.409514
	H63	H	0.870903	0.405405	0.408163
	H64	H	0.403444	0.594698	0.115313
	H65	H	0.578851	0.593975	0.884995
	H66	H	0.583953	0.411495	0.116577
	H67	H	0.404015	0.408882	0.883206
	H68	H	0.573318	0.116868	0.410853
	H69	H	0.589650	0.888501	0.587867
	H70	H	0.399487	0.120641	0.597866
	H71	H	0.393607	0.890237	0.410539
	H72	H	0.892131	0.621366	0.093512
	H73	H	0.082178	0.389550	0.091981
	H74	H	0.081538	0.618671	0.908757
	H75	H	0.896498	0.389790	0.916465
	H76	H	0.078552	0.910541	0.617764
	H77	H	0.070602	0.100321	0.385287
	H78	H	0.890077	0.104750	0.621317
	H79	H	0.905786	0.917913	0.387185
	H80	H	0.609423	0.098569	0.907565
	H81	H	0.370766	0.107993	0.093573
	H82	H	0.609409	0.909947	0.096771
	H83	H	0.376595	0.918608	0.901686
	H84	H	0.607315	0.908342	0.087017
	H85	H	0.377304	0.096453	0.083868
	H86	H	0.607226	0.094796	0.908903
	H87	H	0.371027	0.901681	0.902966
	H88	H	0.896904	0.093027	0.615642
	H89	H	0.089359	0.106834	0.378538
	H90	H	0.086895	0.912432	0.618900
	H91	H	0.901688	0.903694	0.381485
	H92	H	0.086519	0.618721	0.912284
	H93	H	0.090734	0.387849	0.091172
	H94	H	0.901045	0.620516	0.100283
	H95	H	0.892555	0.383543	0.899699
	H96	H	0.396552	0.118293	0.590165
	H97	H	0.582908	0.887428	0.596690
	H98	H	0.590292	0.120694	0.414107
	H99	H	0.393167	0.886891	0.402717
	H100	H	0.583053	0.407670	0.118353
	H101	H	0.583319	0.598910	0.882965
	H102	H	0.402054	0.601071	0.117256
	H103	H	0.396944	0.407241	0.881498
	H104	H	0.106024	0.596625	0.413116
	H105	H	0.872348	0.599145	0.600271
	H106	H	0.106335	0.408387	0.581778
	H107	H	0.876146	0.416117	0.412635
	H108	H	0.902358	0.616778	0.089688
	H109	H	0.086262	0.385959	0.098492
	H110	H	0.086233	0.620881	0.906427
	H111	H	0.908948	0.389589	0.903437
	H112	H	0.081686	0.918558	0.615771
	H113	H	0.087227	0.086375	0.383896
	H114	H	0.903920	0.105667	0.617498
	H115	H	0.890886	0.915344	0.382360
	H116	H	0.609331	0.095523	0.904882
	H117	H	0.372701	0.093472	0.099715
	H118	H	0.605981	0.917342	0.091203
	H119	H	0.377785	0.909673	0.917425
	C120	C	0.367719	0.012365	0.622117
	C121	C	0.611831	0.996575	0.620956
	C122	C	0.612211	0.012992	0.378153
	C123	C	0.368187	0.997176	0.378077
	C124	C	0.613750	0.380928	0.008995
	C125	C	0.612595	0.624577	0.992229
	C126	C	0.370721	0.625629	0.008197
	C127	C	0.371383	0.382439	0.991542
	C128	C	-0.000892	0.626364	0.380436
	C129	C	0.982687	0.628055	0.622962
	C130	C	-0.000615	0.385117	0.620753
	C131	C	0.981966	0.383444	0.378919
	C132	C	0.870295	0.511729	0.122452
	C133	C	0.114565	0.495962	0.123068
	C134	C	0.113878	0.511869	0.879093
	C135	C	0.869858	0.495390	0.878921
	C136	C	0.111235	0.884189	0.508794
	C137	C	0.111163	0.127265	0.491072
	C138	C	0.868299	0.128298	0.509233
	C139	C	0.869495	0.884039	0.492124
	C140	C	0.499674	0.124691	0.878959
	C141	C	0.482571	0.126614	0.121281
	C142	C	0.499320	0.883165	0.120733
	C143	C	0.483180	0.880811	0.877702
	C144	C	0.370825	0.889554	0.675930
	C145	C	0.607828	0.119178	0.676997
	C146	C	0.610437	0.890383	0.322214
	C147	C	0.371368	0.119718	0.323696
	C148	C	0.668152	0.384053	0.885094
	C149	C	0.668010	0.622681	0.115724
	C150	C	0.314508	0.622166	0.884960
	C151	C	0.316528	0.385167	0.115340
	C152	C	0.875730	0.682089	0.381304
	C153	C	0.105979	0.683235	0.621281
	C154	C	0.875956	0.330122	0.619657
	C155	C	0.104724	0.326647	0.379861
	C156	C	0.875850	0.388373	0.675885
	C157	C	0.106365	0.625196	0.678447
	C158	C	0.875604	0.623505	0.324662
	C159	C	0.105744	0.385111	0.324321
	C160	C	0.371417	0.680158	0.884758
	C161	C	0.612274	0.681892	0.115037
	C162	C	0.612499	0.325361	0.885357
	C163	C	0.373183	0.327456	0.114902
	C164	C	0.669031	0.890751	0.379458
	C165	C	0.666053	0.119540	0.619811
	C166	C	0.312290	0.889878	0.618602
	C167	C	0.313317	0.119997	0.381341
	C168	C	0.874026	0.388658	0.176444
	C169	C	0.111148	0.618950	0.178255
	C170	C	0.111345	0.389540	0.822269
	C171	C	0.871464	0.618707	0.825371
	C172	C	0.165430	0.886362	0.384884
	C173	C	0.166461	0.125495	0.615215
	C174	C	0.813249	0.124112	0.384996
	C175	C	0.814291	0.888169	0.615747
	C176	C	0.376430	0.180509	0.880949
	C177	C	0.606785	0.180216	0.119638
	C178	C	0.376202	0.826947	0.119324
	C179	C	0.606409	0.824816	0.878547
	C180	C	0.375207	0.886174	0.175229
	C181	C	0.606061	0.122949	0.177240
	C182	C	0.375378	0.121336	0.825193
	C183	C	0.606246	0.882743	0.821452
	C184	C	0.869675	0.182342	0.385406
	C185	C	0.109841	0.183570	0.614717
	C186	C	0.109714	0.827406	0.385650
	C187	C	0.869969	0.829124	0.615510
	C188	C	0.169033	0.389025	0.880517
	C189	C	0.169326	0.618602	0.120588
	C190	C	0.815355	0.388896	0.119264
	C191	C	0.813129	0.617891	0.882246
	C192	C	0.389421	0.098243	0.601091
	C193	C	0.590147	0.910982	0.597615
	C194	C	0.589097	0.098386	0.401032
	C195	C	0.389604	0.911318	0.399914
	C196	C	0.591495	0.403114	0.095534
	C197	C	0.589516	0.601573	0.905968
	C198	C	0.394053	0.604061	0.094337
	C199	C	0.393403	0.403679	0.905280
	C200	C	0.085144	0.604361	0.403241
	C201	C	0.896465	0.606056	0.600367
	C202	C	0.085429	0.406847	0.598110
	C203	C	0.895561	0.405792	0.400905
	C204	C	0.892078	0.597372	0.100817
	C205	C	0.092697	0.410043	0.100615
	C206	C	0.091424	0.597362	0.902395
	C207	C	0.892628	0.410078	0.900359
	C208	C	0.088902	0.907098	0.595147
	C209	C	0.088887	0.104531	0.404914
	C210	C	0.890373	0.107452	0.595681
	C211	C	0.892606	0.905972	0.405923
	C212	C	0.586223	0.102793	0.900660
	C213	C	0.396108	0.105496	0.098904
	C214	C	0.585237	0.905397	0.098352
	C215	C	0.397490	0.903516	0.900537
	Zn216	Zn	0.490778	0.003537	0.750160
	Zn217	Zn	0.490003	0.004630	0.249243
	Zn218	Zn	0.740815	0.503135	0.000224
	Zn219	Zn	0.243320	0.503646	0.000589
	Zn220	Zn	-0.009751	0.755756	0.501394
	Zn221	Zn	-0.010127	0.255841	0.500064
	Zn222	Zn	-0.008607	0.505349	0.750077
	Zn223	Zn	-0.008111	0.504449	0.251389
	Zn224	Zn	0.491959	0.754045	-0.000157
	Zn225	Zn	0.492256	0.254141	-0.000365
	Zn226	Zn	0.741634	0.005674	0.500049
	Zn227	Zn	0.238780	0.005326	0.499867
	N228	N	0.404294	0.966752	0.678215
	N229	N	0.574815	0.041776	0.677761
	N230	N	0.575623	0.967231	0.321647
	N231	N	0.404538	0.042210	0.321361
	N232	N	0.669055	0.417836	0.963049
	N233	N	0.668127	0.587629	0.038306
	N234	N	0.313863	0.589228	0.962911
	N235	N	0.315102	0.418629	0.037663
	N236	N	0.953388	0.683767	0.415371
	N237	N	0.028020	0.685277	0.587920
	N238	N	0.953889	0.327808	0.586026
	N239	N	0.026803	0.325584	0.413324
	N240	N	0.953519	0.422015	0.676599
	N241	N	0.028564	0.591626	0.679616
	N242	N	0.953296	0.589425	0.323953
	N243	N	0.028344	0.419654	0.323529
	N244	N	0.405891	0.682223	0.962361
	N245	N	0.578570	0.683136	0.036981
	N246	N	0.579259	0.323491	0.963468
	N247	N	0.406762	0.325702	0.036957
	N248	N	0.670201	0.968036	0.413616
	N249	N	0.668380	0.042284	0.585332
	N250	N	0.310352	0.967273	0.585628
	N251	N	0.311266	0.042708	0.414511
	N252	N	0.907354	0.465984	0.178498
	N253	N	0.078027	0.541682	0.179905
	N254	N	0.077999	0.467154	0.821058
	N255	N	0.906017	0.541742	0.823004
	N256	N	0.166452	0.920953	0.462516
	N257	N	0.167674	0.091288	0.537365
	N258	N	0.812330	0.090985	0.462957
	N259	N	0.813956	0.921609	0.537996
	N260	N	0.454723	0.182642	0.913623
	N261	N	0.529071	0.182715	0.085799
	N262	N	0.454317	0.824925	0.086195
	N263	N	0.528809	0.823402	0.912569
	N264	N	0.452748	0.920157	0.176331
	N265	N	0.527865	0.090249	0.178472
	N266	N	0.452944	0.087253	0.823863
	N267	N	0.528628	0.916870	0.820637
	N268	N	0.903060	0.184993	0.463443
	N269	N	0.076209	0.184851	0.536745
	N270	N	0.076708	0.826150	0.463901
	N271	N	0.903496	0.826528	0.537614
	N272	N	0.170722	0.466205	0.914886
	N273	N	0.171566	0.540982	0.086921
	N274	N	0.812690	0.466449	0.086626
	N275	N	0.812052	0.540400	0.914801
	O276	O	0.506425	0.563669	0.469920
	H277	H	0.502763	0.557443	0.470155
	H278	H	0.506587	0.563985	0.475867
	O279	O	0.474994	0.540614	0.425184
	H280	H	0.466555	0.544884	0.420082
	H281	H	0.482759	0.541584	0.429894
	O282	O	0.410483	0.438192	0.490548
	H283	H	0.411495	0.433190	0.481260
	H284	H	0.411369	0.429913	0.494976
	O285	O	0.011427	0.908982	0.971257
	H286	H	0.005973	0.908668	0.972661
	H287	H	0.006215	0.913596	0.976028
	O288	O	0.539290	0.610642	0.547306
	H289	H	0.528909	0.610461	0.549419
	H290	H	0.537973	0.613607	0.560694
	O291	O	0.443754	0.498682	1.470550
	H292	H	0.450830	0.503841	1.459811
	H293	H	0.438300	0.503775	1.463814
	O294	O	0.462399	0.514724	0.465734
	H295	H	0.461647	0.512697	0.457507
	H296	H	0.463712	0.503672	0.467356
	O297	O	0.529563	0.554329	0.486951
	H298	H	0.531108	0.559545	0.490396
	H299	H	0.534867	0.544832	0.478043
	O300	O	0.538510	0.411106	0.507133
	H301	H	0.546051	0.407228	0.500424
	H302	H	0.542304	0.411858	0.499635
	O303	O	0.431018	0.582077	0.460949
	H304	H	0.433321	0.579866	0.473194
	H305	H	0.447187	0.585316	0.462264
	O306	O	0.978852	-0.096558	0.977822
	H307	H	0.976940	-0.102636	0.980685
	H308	H	0.984487	-0.104876	0.971905
	O309	O	0.533294	0.483116	0.613768
	H310	H	0.527888	0.483857	0.615263
	H311	H	0.531251	0.484234	0.607919
	O312	O	0.427437	0.495145	0.365393
	H313	H	0.427281	0.498243	0.369609
	H314	H	0.411687	0.499903	0.359929
	O315	O	1.052980	-0.072562	0.948924
	H316	H	1.050250	-0.079135	0.957332
	H317	H	1.049526	-0.073566	0.956492
	O318	O	0.520962	-0.593917	-0.528849
	H319	H	0.529188	-0.587943	-0.533984
	H320	H	0.524832	-0.597889	-0.522492
	O321	O	0.466340	0.515323	0.593054
	H322	H	0.461930	0.516203	0.590399
	H323	H	0.457963	0.520828	0.582265
	O324	O	1.053143	-0.109513	-0.055075
	H325	H	1.060778	-0.114174	-0.053931
	H326	H	1.057749	-0.109664	-0.060444
	O327	O	1.012931	0.887981	-0.105510
	H328	H	1.020778	0.885587	-0.120157
	H329	H	1.018935	0.887361	-0.108995
	O330	O	0.478130	0.492861	0.576828
	H331	H	0.480964	0.493511	0.584185
	H332	H	0.473683	0.491288	0.579630
	O333	O	0.550848	0.557764	0.536930
	H334	H	0.549030	0.568348	0.541522
	H335	H	0.551340	0.557123	0.542276
