data_Molecule from HDF5

_cell_length_a		16.216268
_cell_length_b		16.254041
_cell_length_c		16.319526
_cell_angle_alpha	90.526504
_cell_angle_beta	90.073882
_cell_angle_gamma	90.457644
_symmetry_space_group_name_H-M	'P 1'
_symmetry_Int_Tables_number		1

loop_
	_symmetry_equiv_pos_as_xyz
	x,y,z

loop_
	_atom_site_label
	_atom_site_type_symbol
	_atom_site_fract_x
	_atom_site_fract_y
	_atom_site_fract_z
	H0	H	0.402659	0.834797	0.720690
	H1	H	0.607272	0.161062	0.724180
	H2	H	0.606461	0.835601	0.286376
	H3	H	0.406711	0.161201	0.291158
	H4	H	0.717144	0.398841	0.839745
	H5	H	0.725035	0.600310	0.165241
	H6	H	0.289316	0.596728	0.841781
	H7	H	0.287200	0.395233	0.165530
	H8	H	0.841446	0.709947	0.404632
	H9	H	0.168818	0.713486	0.603626
	H10	H	0.842882	0.280393	0.603943
	H11	H	0.169830	0.282003	0.403774
	H12	H	0.840776	0.396683	0.715821
	H13	H	0.167190	0.601796	0.722358
	H14	H	0.840613	0.593435	0.289669
	H15	H	0.167948	0.393661	0.285093
	H16	H	0.406922	0.712689	0.842186
	H17	H	0.609785	0.716430	0.166856
	H18	H	0.606077	0.280246	0.842572
	H19	H	0.404788	0.282489	0.167629
	H20	H	0.716314	0.832614	0.406002
	H21	H	0.724101	0.160197	0.608597
	H22	H	0.288969	0.833969	0.602396
	H23	H	0.291713	0.161153	0.408023
	H24	H	0.901540	0.333047	0.218344
	H25	H	0.109452	0.658907	0.224228
	H26	H	0.104889	0.333945	0.784603
	H27	H	0.905742	0.660341	0.788665
	H28	H	0.218905	0.897062	0.341848
	H29	H	0.222742	0.100295	0.668117
	H30	H	0.789224	0.093767	0.342967
	H31	H	0.790244	0.898302	0.668799
	H32	H	0.342225	0.210238	0.908522
	H33	H	0.670131	0.216449	0.106587
	H34	H	0.344994	0.779304	0.107392
	H35	H	0.669771	0.783618	0.904292
	H36	H	0.343033	0.896946	0.219457
	H37	H	0.669840	0.102870	0.224474
	H38	H	0.341876	0.098131	0.791795
	H39	H	0.667609	0.897740	0.787812
	H40	H	0.904345	0.210985	0.342541
	H41	H	0.108682	0.217389	0.667100
	H42	H	0.105969	0.780223	0.342093
	H43	H	0.905488	0.781541	0.667952
	H44	H	0.220029	0.333562	0.901261
	H45	H	0.222629	0.659708	0.105625
	H46	H	0.788402	0.332849	0.098363
	H47	H	0.791447	0.660766	0.904481
	H48	H	0.412902	0.112254	0.592018
	H49	H	0.595845	0.883677	0.593010
	H50	H	0.595147	0.114352	0.409736
	H51	H	0.410596	0.879508	0.406350
	H52	H	0.599632	0.415514	0.118953
	H53	H	0.595049	0.584315	0.890937
	H54	H	0.415172	0.588966	0.118963
	H55	H	0.402987	0.405256	0.886497
	H56	H	0.122569	0.589877	0.410097
	H57	H	0.886889	0.584927	0.602498
	H58	H	0.122413	0.405238	0.596753
	H59	H	0.890394	0.397678	0.418250
	H60	H	0.121396	0.408382	0.592295
	H61	H	0.886170	0.595663	0.597265
	H62	H	0.120750	0.589699	0.416097
	H63	H	0.891556	0.411458	0.411261
	H64	H	0.416200	0.590870	0.120138
	H65	H	0.594465	0.597780	0.887344
	H66	H	0.591731	0.405201	0.119388
	H67	H	0.420168	0.412679	0.892742
	H68	H	0.594406	0.111556	0.421000
	H69	H	0.600001	0.878813	0.600122
	H70	H	0.408151	0.117174	0.604422
	H71	H	0.418126	0.882600	0.411812
	H72	H	0.912912	0.614618	0.101922
	H73	H	0.086333	0.383719	0.092496
	H74	H	0.093515	0.612827	0.909156
	H75	H	0.904666	0.379518	0.913546
	H76	H	0.103276	0.901324	0.624072
	H77	H	0.099147	0.104209	0.384498
	H78	H	0.911794	0.090938	0.622366
	H79	H	0.899800	0.902819	0.385987
	H80	H	0.620612	0.083827	0.913658
	H81	H	0.396423	0.080989	0.087252
	H82	H	0.622319	0.906397	0.092175
	H83	H	0.390633	0.904717	0.918774
	H84	H	0.622069	0.914459	0.096882
	H85	H	0.388576	0.083534	0.111192
	H86	H	0.624827	0.093411	0.910337
	H87	H	0.388917	0.908652	0.910881
	H88	H	0.916297	0.085763	0.619649
	H89	H	0.110865	0.077976	0.388297
	H90	H	0.097954	0.914506	0.618349
	H91	H	0.916649	0.912035	0.393961
	H92	H	0.095656	0.610734	0.918049
	H93	H	0.101371	0.380806	0.088033
	H94	H	0.921242	0.610948	0.098049
	H95	H	0.910710	0.378134	0.900450
	H96	H	0.421893	0.112785	0.603369
	H97	H	0.590425	0.882382	0.600866
	H98	H	0.605160	0.115763	0.416352
	H99	H	0.409285	0.881472	0.415631
	H100	H	0.603732	0.404451	0.122239
	H101	H	0.607058	0.590645	0.884928
	H102	H	0.414099	0.590429	0.120104
	H103	H	0.419040	0.394031	0.887830
	H104	H	0.120170	0.584491	0.412702
	H105	H	0.890706	0.585919	0.591620
	H106	H	0.122330	0.410847	0.596532
	H107	H	0.885563	0.399320	0.404154
	H108	H	0.912832	0.612600	0.093002
	H109	H	0.096398	0.377741	0.102566
	H110	H	0.101833	0.613594	0.911855
	H111	H	0.918326	0.383751	0.911400
	H112	H	0.089011	0.902080	0.619860
	H113	H	0.083288	0.082569	0.396091
	H114	H	0.918532	0.092910	0.620530
	H115	H	0.917362	0.892897	0.388064
	H116	H	0.621572	0.092085	0.920787
	H117	H	0.387080	0.103431	0.096009
	H118	H	0.625643	0.906405	0.101381
	H119	H	0.387368	0.900167	0.911512
	C120	C	0.383537	0.006194	0.627607
	C121	C	0.626638	0.989257	0.628270
	C122	C	0.627069	0.005957	0.384821
	C123	C	0.384000	0.989181	0.383303
	C124	C	0.626858	0.377750	0.012635
	C125	C	0.629209	0.621182	0.995063
	C126	C	0.384752	0.619273	0.012707
	C127	C	0.383837	0.374879	0.996244
	C128	C	0.013317	0.616581	0.383480
	C129	C	0.995879	0.619339	0.626359
	C130	C	0.013924	0.377163	0.624100
	C131	C	0.996958	0.373435	0.381147
	C132	C	0.884061	0.504680	0.124913
	C133	C	0.126669	0.487969	0.125864
	C134	C	0.126475	0.505120	0.881673
	C135	C	0.883150	0.488663	0.880602
	C136	C	0.126317	0.875907	0.513049
	C137	C	0.128123	0.119388	0.496875
	C138	C	0.884892	0.117890	0.513666
	C139	C	0.882642	0.873933	0.497013
	C140	C	0.514345	0.118804	0.885658
	C141	C	0.498413	0.120526	0.128292
	C142	C	0.515494	0.878016	0.126148
	C143	C	0.496750	0.875808	0.883697
	C144	C	0.383410	0.883475	0.682612
	C145	C	0.626603	0.112017	0.685289
	C146	C	0.625854	0.883827	0.325946
	C147	C	0.386423	0.112327	0.328881
	C148	C	0.680403	0.378849	0.889086
	C149	C	0.686159	0.620241	0.117089
	C150	C	0.328160	0.616853	0.890371
	C151	C	0.326347	0.376168	0.117533
	C152	C	0.890023	0.671721	0.384975
	C153	C	0.119469	0.675907	0.624379
	C154	C	0.891480	0.319349	0.623223
	C155	C	0.120404	0.318888	0.383241
	C156	C	0.890487	0.377244	0.679162
	C157	C	0.118595	0.620201	0.683246
	C158	C	0.889777	0.614000	0.327549
	C159	C	0.119492	0.374677	0.324252
	C160	C	0.386437	0.674707	0.890730
	C161	C	0.628869	0.677841	0.117838
	C162	C	0.625530	0.319517	0.890848
	C163	C	0.384758	0.319729	0.118449
	C164	C	0.680385	0.882358	0.385741
	C165	C	0.684905	0.111717	0.627817
	C166	C	0.327007	0.882872	0.623694
	C167	C	0.328976	0.112155	0.386913
	C168	C	0.883022	0.381664	0.179528
	C169	C	0.128141	0.610021	0.184858
	C170	C	0.125141	0.382877	0.823404
	C171	C	0.886093	0.611666	0.826446
	C172	C	0.181398	0.877258	0.390612
	C173	C	0.184655	0.119562	0.619265
	C174	C	0.827779	0.114737	0.391364
	C175	C	0.827749	0.877129	0.619772
	C176	C	0.391433	0.173639	0.887846
	C177	C	0.621240	0.178002	0.126846
	C178	C	0.393265	0.819033	0.126152
	C179	C	0.620260	0.820985	0.884624
	C180	C	0.392444	0.877519	0.182109
	C181	C	0.620950	0.121491	0.185468
	C182	C	0.391250	0.117703	0.829658
	C183	C	0.619361	0.877945	0.826874
	C184	C	0.885241	0.172780	0.391169
	C185	C	0.127960	0.178207	0.618595
	C186	C	0.125196	0.818850	0.390902
	C187	C	0.885277	0.819216	0.619368
	C188	C	0.182396	0.382572	0.881604
	C189	C	0.184473	0.610661	0.125870
	C190	C	0.826780	0.381695	0.119889
	C191	C	0.829181	0.611827	0.884167
	C192	C	0.407394	0.091841	0.606188
	C193	C	0.602609	0.903739	0.604637
	C194	C	0.604746	0.091640	0.408590
	C195	C	0.406132	0.903340	0.404777
	C196	C	0.604840	0.401294	0.097970
	C197	C	0.605636	0.598053	0.909891
	C198	C	0.408131	0.596650	0.097598
	C199	C	0.407316	0.397368	0.910859
	C200	C	0.098828	0.594587	0.406129
	C201	C	0.910073	0.595845	0.603646
	C202	C	0.099723	0.401261	0.601819
	C203	C	0.911317	0.396106	0.404360
	C204	C	0.908526	0.590312	0.103846
	C205	C	0.101956	0.402868	0.101455
	C206	C	0.103651	0.590391	0.905925
	C207	C	0.904862	0.402643	0.902150
	C208	C	0.103449	0.899148	0.598649
	C209	C	0.104532	0.095201	0.411661
	C210	C	0.908652	0.096278	0.598691
	C211	C	0.904567	0.896092	0.411479
	C212	C	0.600182	0.096368	0.908398
	C213	C	0.412819	0.096370	0.105102
	C214	C	0.601090	0.902036	0.103291
	C215	C	0.411334	0.897927	0.907028
	Zn216	Zn	0.504235	-0.001908	0.756895
	Zn217	Zn	0.506760	-0.001689	0.255710
	Zn218	Zn	0.755447	0.497754	0.002354
	Zn219	Zn	0.255080	0.496326	0.003627
	Zn220	Zn	0.004979	0.746211	0.504480
	Zn221	Zn	0.006349	0.247876	0.504551
	Zn222	Zn	0.004559	0.496957	0.753003
	Zn223	Zn	0.005087	0.495847	0.254421
	Zn224	Zn	0.506869	0.749076	0.005475
	Zn225	Zn	0.506371	0.248047	0.005686
	Zn226	Zn	0.755115	-0.003453	0.505821
	Zn227	Zn	0.255578	-0.003168	0.505277
	N228	N	0.417744	0.961145	0.685104
	N229	N	0.591373	0.034838	0.685809
	N230	N	0.593371	0.961752	0.325230
	N231	N	0.419891	0.034916	0.326514
	N232	N	0.681408	0.414277	0.965927
	N233	N	0.686640	0.585892	0.039821
	N234	N	0.326984	0.583119	0.967403
	N235	N	0.325833	0.409829	0.040481
	N236	N	0.967773	0.673631	0.418922
	N237	N	0.042170	0.675480	0.589670
	N238	N	0.969212	0.318958	0.589774
	N239	N	0.043206	0.318119	0.417960
	N240	N	0.967818	0.412710	0.679625
	N241	N	0.040956	0.585680	0.684609
	N242	N	0.967297	0.580282	0.326634
	N243	N	0.041745	0.407934	0.322954
	N244	N	0.421008	0.676227	0.967690
	N245	N	0.594044	0.678522	0.040922
	N246	N	0.592938	0.318462	0.968703
	N247	N	0.420035	0.319098	0.041916
	N248	N	0.681242	0.959265	0.421750
	N249	N	0.685021	0.034178	0.592983
	N250	N	0.326754	0.960245	0.590269
	N251	N	0.327462	0.034595	0.420146
	N252	N	0.917956	0.458937	0.182665
	N253	N	0.092886	0.532654	0.185053
	N254	N	0.091156	0.460091	0.823214
	N255	N	0.918726	0.533808	0.824005
	N256	N	0.182373	0.911773	0.467859
	N257	N	0.184971	0.083848	0.542525
	N258	N	0.827440	0.081314	0.468446
	N259	N	0.826322	0.910660	0.542744
	N260	N	0.469054	0.174461	0.921933
	N261	N	0.543986	0.177582	0.092037
	N262	N	0.470672	0.819381	0.091955
	N263	N	0.542989	0.819421	0.919173
	N264	N	0.469557	0.913630	0.182323
	N265	N	0.543528	0.086442	0.186415
	N266	N	0.468843	0.084210	0.828255
	N267	N	0.541725	0.911079	0.825953
	N268	N	0.920006	0.174982	0.468144
	N269	N	0.093645	0.178245	0.541520
	N270	N	0.091293	0.818016	0.468153
	N271	N	0.918516	0.817059	0.541969
	N272	N	0.183535	0.459817	0.916898
	N273	N	0.183563	0.533813	0.089936
	N274	N	0.827238	0.459358	0.086613
	N275	N	0.827227	0.534228	0.916981
	O276	O	0.877162	-0.136418	1.045077
	H277	H	0.870748	-0.134710	1.034218
	H278	H	0.870888	-0.129117	1.037602
	O279	O	0.154187	1.098240	0.057585
	H280	H	0.156159	1.098381	0.057692
	H281	H	0.151997	1.096861	0.055238
	O282	O	0.403537	0.427497	0.427947
	H283	H	0.392138	0.418931	0.427314
	H284	H	0.397687	0.420972	0.422840
	O285	O	0.512627	0.484026	0.607125
	H286	H	0.512152	0.484432	0.605528
	H287	H	0.503236	0.479016	0.603757
	O288	O	0.546241	0.580435	0.570054
	H289	H	0.544618	0.588316	0.569072
	H290	H	0.538865	0.584509	0.579454
	O291	O	-0.147041	-0.097734	0.970441
	H292	H	-0.156379	-0.081976	0.980084
	H293	H	-0.134773	-0.086809	0.970621
	O294	O	0.639840	1.638714	0.627583
	H295	H	0.639146	1.637845	0.647404
	H296	H	0.633605	1.635236	0.636742
	O297	O	1.128797	0.943606	0.086251
	H298	H	1.136116	0.939562	0.074848
	H299	H	1.130683	0.942287	0.087595
	O300	O	0.503197	0.411615	0.565827
	H301	H	0.513401	0.415977	0.562873
	H302	H	0.506807	0.403066	0.559256
	O303	O	-0.066268	-0.092276	1.160400
	H304	H	-0.069813	-0.105054	1.163127
	H305	H	-0.071120	-0.091609	1.150160
	O306	O	0.369580	0.531031	0.582803
	H307	H	0.357813	0.529010	0.589625
	H308	H	0.375762	0.505304	0.575679
	O309	O	0.470743	0.605080	0.620800
	H310	H	0.475228	0.597180	0.625939
	H311	H	0.458505	0.612899	0.619755
	O312	O	1.442295	0.479660	1.566854
	H313	H	1.457815	0.481151	1.562314
	H314	H	1.441851	0.478162	1.554735
	O315	O	1.147735	0.892461	0.039117
	H316	H	1.136885	0.902847	0.031051
	H317	H	1.152678	0.889276	0.024592
	O318	O	0.637724	0.348096	0.383825
	H319	H	0.640987	0.352995	0.361829
	H320	H	0.620887	0.356182	0.376500
	O321	O	0.519863	0.526827	0.430721
	H322	H	0.512142	0.523742	0.431593
	H323	H	0.521240	0.529942	0.441595
	O324	O	0.030180	1.017667	1.030503
	H325	H	0.025018	1.012744	1.044630
	H326	H	0.031621	1.008879	1.015701
	O327	O	-0.036158	0.969482	1.071583
	H328	H	-0.027835	0.966528	1.066121
	H329	H	-0.038395	0.967848	1.068594
	O330	O	0.024364	-0.071349	0.049033
	H331	H	0.030044	-0.069764	0.048899
	H332	H	0.012864	-0.074472	0.051673
	O333	O	0.527343	0.414820	0.467221
	H334	H	0.531209	0.421927	0.466315
	H335	H	0.528797	0.414075	0.463910
	O336	O	0.002730	0.070825	0.076200
	H337	H	0.007613	0.082901	0.086568
	H338	H	0.005798	0.062317	0.075758
	O339	O	0.036352	-0.022459	-0.133938
	H340	H	0.023803	-0.022488	-0.141405
	H341	H	0.041615	-0.018507	-0.131270
	O342	O	-0.041181	0.923889	0.073822
	H343	H	-0.038337	0.913267	0.081751
	H344	H	-0.045274	0.921291	0.063415
	O345	O	0.105877	1.013947	0.973697
	H346	H	0.116518	1.013828	0.966328
	H347	H	0.108654	1.016264	0.981264
	O348	O	-0.115903	1.096452	-0.038784
	H349	H	-0.116540	1.098145	-0.034904
	H350	H	-0.114904	1.104603	-0.032586
	O351	O	0.456437	0.425940	0.490684
	H352	H	0.458753	0.440566	0.496057
	H353	H	0.462955	0.430078	0.482180
	O354	O	0.139535	0.994670	-0.123502
	H355	H	0.145777	1.000342	-0.131142
	H356	H	0.132837	1.000866	-0.122932
	O357	O	0.427658	0.410407	0.384388
	H358	H	0.427692	0.417410	0.381800
	H359	H	0.434174	0.408321	0.382787
	O360	O	0.423518	0.436654	0.560789
	H361	H	0.409778	0.436221	0.576423
	H362	H	0.424815	0.417053	0.558117
	O363	O	0.539402	0.585237	0.535856
	H364	H	0.550272	0.589490	0.543317
	H365	H	0.540803	0.597838	0.535948
	O366	O	0.584877	0.345102	0.421390
	H367	H	0.598203	0.343616	0.406132
	H368	H	0.588035	0.355349	0.418379
	O369	O	1.063343	0.019086	0.022136
	H370	H	1.071805	0.006007	0.023364
	H371	H	1.064734	0.020944	0.031798
	O372	O	0.396095	0.509361	0.413773
	H373	H	0.394838	0.508287	0.410895
	H374	H	0.414732	0.512476	0.432138
	O375	O	0.974324	0.038609	1.035701
	H376	H	0.975217	0.029328	1.047350
	H377	H	0.975509	0.026500	1.043630
	O378	O	0.044764	1.013819	-0.020462
	H379	H	0.034545	1.017205	-0.024246
	H380	H	0.056314	1.008119	-0.022620
	O381	O	0.605120	0.563666	0.621050
	H382	H	0.609647	0.553980	0.620237
	H383	H	0.592042	0.565344	0.622473
	O384	O	1.014261	1.108980	-0.112396
	H385	H	1.009537	1.095690	-0.106080
	H386	H	1.013725	1.115924	-0.112581
	O387	O	0.949138	0.086170	0.932002
	H388	H	0.948270	0.094142	0.930828
	H389	H	0.948190	0.101380	0.935647
	O390	O	1.417963	0.598437	-0.594645
	H391	H	1.415933	0.593972	-0.615875
	H392	H	1.407477	0.621672	-0.601780
	O393	O	0.607206	0.602846	0.450952
	H394	H	0.613205	0.608587	0.465116
	H395	H	0.602144	0.591005	0.457286
