data_Molecule from HDF5

_cell_length_a		16.505881
_cell_length_b		16.502063
_cell_length_c		16.608066
_cell_angle_alpha	90.078378
_cell_angle_beta	89.887637
_cell_angle_gamma	90.044549
_symmetry_space_group_name_H-M	'P 1'
_symmetry_Int_Tables_number		1

loop_
	_symmetry_equiv_pos_as_xyz
	x,y,z

loop_
	_atom_site_label
	_atom_site_type_symbol
	_atom_site_fract_x
	_atom_site_fract_y
	_atom_site_fract_z
	H0	H	0.392851	0.819394	0.736858
	H1	H	0.607702	0.131605	0.736882
	H2	H	0.604929	0.819210	0.292527
	H3	H	0.399899	0.136183	0.296630
	H4	H	0.723184	0.373566	0.858742
	H5	H	0.723847	0.584760	0.170018
	H6	H	0.279247	0.581698	0.858993
	H7	H	0.279788	0.371862	0.171605
	H8	H	0.843973	0.697206	0.409790
	H9	H	0.158654	0.696931	0.618743
	H10	H	0.843466	0.255823	0.620231
	H11	H	0.156349	0.251652	0.407498
	H12	H	0.844886	0.371825	0.737518
	H13	H	0.157374	0.583669	0.737224
	H14	H	0.844423	0.580976	0.293145
	H15	H	0.155850	0.365813	0.289963
	H16	H	0.396648	0.696896	0.857958
	H17	H	0.604105	0.698632	0.170864
	H18	H	0.606886	0.256896	0.857968
	H19	H	0.395662	0.254443	0.171296
	H20	H	0.721182	0.818549	0.409352
	H21	H	0.724268	0.132018	0.620587
	H22	H	0.280763	0.817867	0.617049
	H23	H	0.282786	0.135819	0.412650
	H24	H	0.894505	0.318857	0.236043
	H25	H	0.108720	0.631311	0.240809
	H26	H	0.105330	0.320674	0.794792
	H27	H	0.895408	0.633455	0.792868
	H28	H	0.220054	0.872026	0.356746
	H29	H	0.220228	0.078304	0.670979
	H30	H	0.778680	0.081881	0.358133
	H31	H	0.775491	0.868114	0.668969
	H32	H	0.344824	0.197325	0.911761
	H33	H	0.660012	0.196630	0.116996
	H34	H	0.343014	0.756711	0.118322
	H35	H	0.658674	0.756042	0.909233
	H36	H	0.343831	0.871834	0.235381
	H37	H	0.659559	0.082243	0.234562
	H38	H	0.344447	0.080887	0.794236
	H39	H	0.656759	0.869596	0.790258
	H40	H	0.893855	0.200060	0.359487
	H41	H	0.103096	0.195111	0.671692
	H42	H	0.101513	0.756902	0.356772
	H43	H	0.894542	0.753330	0.670940
	H44	H	0.220203	0.319794	0.912830
	H45	H	0.222707	0.633074	0.122401
	H46	H	0.777251	0.320724	0.121419
	H47	H	0.779988	0.634484	0.910349
	H48	H	0.412542	0.088527	0.605083
	H49	H	0.587451	0.862971	0.605392
	H50	H	0.592771	0.088349	0.428421
	H51	H	0.407601	0.864036	0.426379
	H52	H	0.586203	0.392193	0.123778
	H53	H	0.591657	0.572227	0.899780
	H54	H	0.409382	0.563122	0.126399
	H55	H	0.412364	0.380594	0.901562
	H56	H	0.115538	0.565320	0.420396
	H57	H	0.892218	0.558681	0.599983
	H58	H	0.113831	0.389195	0.607921
	H59	H	0.890375	0.395438	0.424318
	H60	H	0.114582	0.382923	0.604176
	H61	H	0.886272	0.562893	0.613712
	H62	H	0.111745	0.567833	0.434145
	H63	H	0.885297	0.383031	0.421709
	H64	H	0.416142	0.564966	0.124522
	H65	H	0.597175	0.562468	0.902082
	H66	H	0.586338	0.382697	0.127982
	H67	H	0.404695	0.388840	0.901798
	H68	H	0.592551	0.090763	0.421635
	H69	H	0.582278	0.866456	0.600466
	H70	H	0.410961	0.088840	0.602833
	H71	H	0.407824	0.862075	0.418756
	H72	H	0.916414	0.588196	0.107252
	H73	H	0.093061	0.361258	0.106326
	H74	H	0.090333	0.589796	0.928604
	H75	H	0.912915	0.366941	0.930826
	H76	H	0.089349	0.879828	0.628200
	H77	H	0.085687	0.062516	0.403759
	H78	H	0.908703	0.071197	0.628907
	H79	H	0.906510	0.880277	0.399296
	H80	H	0.614303	0.063785	0.922661
	H81	H	0.388997	0.069090	0.104669
	H82	H	0.615001	0.886255	0.104498
	H83	H	0.390089	0.888820	0.928284
	H84	H	0.612143	0.887826	0.100034
	H85	H	0.389840	0.064337	0.102602
	H86	H	0.616257	0.067467	0.923570
	H87	H	0.388716	0.889763	0.924345
	H88	H	0.906851	0.057819	0.625593
	H89	H	0.089900	0.070212	0.401456
	H90	H	0.096906	0.885462	0.628845
	H91	H	0.910076	0.895620	0.405284
	H92	H	0.091061	0.591335	0.925008
	H93	H	0.085328	0.364173	0.106354
	H94	H	0.915137	0.586682	0.101519
	H95	H	0.910069	0.363746	0.924518
	H96	H	0.410209	0.089548	0.605636
	H97	H	0.589844	0.864208	0.597491
	H98	H	0.586509	0.088209	0.424747
	H99	H	0.414753	0.864568	0.422078
	H100	H	0.594887	0.388309	0.128064
	H101	H	0.585844	0.563459	0.905507
	H102	H	0.411664	0.569942	0.127571
	H103	H	0.415183	0.390416	0.905955
	H104	H	0.109531	0.554699	0.428312
	H105	H	0.886658	0.572890	0.601792
	H106	H	0.111812	0.388573	0.600564
	H107	H	0.890876	0.385694	0.433803
	H108	H	0.910995	0.589595	0.104871
	H109	H	0.090205	0.365185	0.099559
	H110	H	0.087418	0.589194	0.925578
	H111	H	0.917401	0.366275	0.924361
	H112	H	0.089118	0.888686	0.625389
	H113	H	0.094136	0.062350	0.401988
	H114	H	0.919041	0.063825	0.623189
	H115	H	0.920997	0.883838	0.405317
	H116	H	0.613604	0.065411	0.925955
	H117	H	0.388034	0.064497	0.107662
	H118	H	0.612189	0.891067	0.104356
	H119	H	0.387891	0.885747	0.926263
	C120	C	0.378808	-0.015221	0.635966
	C121	C	0.620696	0.967650	0.634368
	C122	C	0.622598	-0.014950	0.392437
	C123	C	0.379547	0.968548	0.392610
	C124	C	0.622125	0.356254	0.023054
	C125	C	0.623161	0.599033	1.005810
	C126	C	0.379506	0.598321	0.023067
	C127	C	0.379104	0.354545	1.006601
	C128	C	0.008683	0.595404	0.394706
	C129	C	0.992460	0.597992	0.636841
	C130	C	0.009478	0.355336	0.636293
	C131	C	0.991929	0.353858	0.393254
	C132	C	0.880486	0.484793	0.136474
	C133	C	0.122599	0.467110	0.137731
	C134	C	0.121468	0.485808	0.894882
	C135	C	0.880258	0.469033	0.894055
	C136	C	0.122248	0.854346	0.522915
	C137	C	0.121434	0.096622	0.505986
	C138	C	0.878543	0.097575	0.523116
	C139	C	0.879334	0.853990	0.506294
	C140	C	0.510316	0.097185	0.893093
	C141	C	0.493527	0.098203	0.135784
	C142	C	0.509152	0.855987	0.135195
	C143	C	0.492567	0.855200	0.893139
	C144	C	0.375736	0.866553	0.696227
	C145	C	0.625236	0.085001	0.696255
	C146	C	0.624139	0.866536	0.332434
	C147	C	0.380205	0.088395	0.335531
	C148	C	0.682557	0.355054	0.905568
	C149	C	0.682991	0.602234	0.123644
	C150	C	0.319327	0.600126	0.905929
	C151	C	0.319441	0.352774	0.124606
	C152	C	0.890836	0.656552	0.391898
	C153	C	0.110956	0.657940	0.638136
	C154	C	0.890640	0.296110	0.638330
	C155	C	0.109275	0.292065	0.389611
	C156	C	0.891453	0.353107	0.697081
	C157	C	0.110472	0.601318	0.696790
	C158	C	0.891034	0.598854	0.333879
	C159	C	0.109081	0.349087	0.331147
	C160	C	0.377802	0.657612	0.905179
	C161	C	0.624078	0.659223	0.123715
	C162	C	0.624354	0.297276	0.904999
	C163	C	0.377518	0.294810	0.124401
	C164	C	0.681637	0.866047	0.390558
	C165	C	0.683042	0.085007	0.638246
	C166	C	0.319672	0.865765	0.636698
	C167	C	0.321843	0.088101	0.393162
	C168	C	0.876797	0.366364	0.196241
	C169	C	0.126348	0.584643	0.199686
	C170	C	0.123668	0.367568	0.835004
	C171	C	0.877181	0.586786	0.833475
	C172	C	0.180488	0.853460	0.404032
	C173	C	0.180617	0.097566	0.624115
	C174	C	0.818539	0.100135	0.405265
	C175	C	0.817210	0.850544	0.623016
	C176	C	0.391769	0.157117	0.892355
	C177	C	0.612341	0.157345	0.136420
	C178	C	0.390656	0.796191	0.137055
	C179	C	0.611108	0.795474	0.890514
	C180	C	0.390920	0.853554	0.195261
	C181	C	0.612171	0.100300	0.194942
	C182	C	0.391635	0.099679	0.833976
	C183	C	0.610133	0.852071	0.831450
	C184	C	0.875732	0.159021	0.406083
	C185	C	0.122321	0.155254	0.624513
	C186	C	0.121657	0.796231	0.403966
	C187	C	0.876007	0.793258	0.623632
	C188	C	0.180184	0.366899	0.893966
	C189	C	0.182908	0.585479	0.140635
	C190	C	0.818553	0.367168	0.139195
	C191	C	0.820073	0.587330	0.892157
	C192	C	0.404033	0.067302	0.611390
	C193	C	0.594112	0.885849	0.608330
	C194	C	0.597640	0.067543	0.417707
	C195	C	0.403333	0.885300	0.415856
	C196	C	0.596543	0.380648	0.105328
	C197	C	0.598761	0.573470	0.923938
	C198	C	0.405042	0.573317	0.105062
	C199	C	0.403889	0.379399	0.924578
	C200	C	0.090794	0.569688	0.420151
	C201	C	0.909842	0.572231	0.612100
	C202	C	0.091882	0.379928	0.611446
	C203	C	0.910126	0.380546	0.419220
	C204	C	0.906517	0.566771	0.111588
	C205	C	0.096715	0.384951	0.111795
	C206	C	0.096780	0.568476	0.919464
	C207	C	0.906050	0.386942	0.919476
	C208	C	0.098754	0.877951	0.605733
	C209	C	0.096992	0.072102	0.423839
	C210	C	0.904022	0.071597	0.604712
	C211	C	0.905039	0.879355	0.424482
	C212	C	0.593163	0.072413	0.917033
	C213	C	0.410616	0.073269	0.111828
	C214	C	0.591590	0.881153	0.110119
	C215	C	0.410452	0.880756	0.918963
	Zn216	Zn	0.500661	-0.024168	0.764192
	Zn217	Zn	0.501476	-0.022978	0.264025
	Zn218	Zn	0.751830	0.477313	0.015743
	Zn219	Zn	0.250487	0.476569	0.015498
	Zn220	Zn	0.001105	0.724970	0.514531
	Zn221	Zn	0.000291	0.226099	0.515261
	Zn222	Zn	0.001234	0.476974	0.764992
	Zn223	Zn	0.000446	0.475473	0.265292
	Zn224	Zn	0.500774	0.726883	0.014194
	Zn225	Zn	0.501664	0.225937	0.014541
	Zn226	Zn	0.750348	-0.024899	0.514171
	Zn227	Zn	0.251259	-0.023952	0.513808
	N228	N	0.411720	0.941760	0.696063
	N229	N	0.587220	0.011064	0.693910
	N230	N	0.588610	0.941741	0.333277
	N231	N	0.414990	0.012945	0.334622
	N232	N	0.681273	0.391122	0.980167
	N233	N	0.682739	0.565645	0.049236
	N234	N	0.320103	0.564325	0.980462
	N235	N	0.320093	0.389099	0.050319
	N236	N	0.964972	0.654317	0.429143
	N237	N	0.036407	0.655995	0.601586
	N238	N	0.965071	0.297148	0.601325
	N239	N	0.035276	0.294726	0.427500
	N240	N	0.966425	0.389136	0.695961
	N241	N	0.035594	0.564709	0.696071
	N242	N	0.965370	0.561610	0.335565
	N243	N	0.035054	0.386992	0.333442
	N244	N	0.414351	0.656660	0.979338
	N245	N	0.587821	0.657471	0.049545
	N246	N	0.587615	0.297886	0.979159
	N247	N	0.413686	0.295508	0.049887
	N248	N	0.681111	0.940981	0.426815
	N249	N	0.680405	0.010928	0.600456
	N250	N	0.321389	0.940212	0.599936
	N251	N	0.321080	0.012440	0.427549
	N252	N	0.914694	0.440471	0.194629
	N253	N	0.089804	0.509763	0.198126
	N254	N	0.087814	0.442540	0.835290
	N255	N	0.913970	0.512215	0.834609
	N256	N	0.181331	0.888598	0.479110
	N257	N	0.180378	0.062100	0.549287
	N258	N	0.820203	0.062463	0.479047
	N259	N	0.819144	0.887577	0.549058
	N260	N	0.466642	0.155905	0.928201
	N261	N	0.537472	0.156171	0.100625
	N262	N	0.465266	0.797578	0.100487
	N263	N	0.537015	0.797220	0.928088
	N264	N	0.465621	0.890132	0.194396
	N265	N	0.537064	0.064217	0.194775
	N266	N	0.466446	0.063345	0.834162
	N267	N	0.535230	0.888301	0.832947
	N268	N	0.912066	0.157495	0.480254
	N269	N	0.086416	0.154938	0.550110
	N270	N	0.086420	0.796516	0.478778
	N271	N	0.914009	0.795466	0.550043
	N272	N	0.178978	0.441442	0.930369
	N273	N	0.180751	0.511320	0.102952
	N274	N	0.820618	0.441710	0.102712
	N275	N	0.822127	0.513114	0.929398
	O276	O	1.135928	0.962212	-0.146611
	H277	H	1.142498	0.962989	-0.132592
	H278	H	1.139864	0.959766	-0.167031
	O279	O	0.475754	0.687111	0.304992
	H280	H	0.455171	0.694193	0.296928
	H281	H	0.476587	0.697400	0.303848
	O282	O	1.212898	0.180576	0.215335
	H283	H	1.167277	0.186587	0.224022
	H284	H	1.215719	0.184758	0.168741
	O285	O	0.009648	0.898703	0.008854
	H286	H	-0.002827	0.901781	0.009095
	H287	H	0.014389	0.900162	-0.006918
	O288	O	0.889859	0.176428	0.884750
	H289	H	0.908503	0.178685	0.892797
	H290	H	0.885781	0.188138	0.895321
	O291	O	-0.217073	-0.055343	0.238990
	H292	H	-0.211374	-0.086368	0.219564
	H293	H	-0.257198	-0.052862	0.273991
	O294	O	-0.207506	0.001803	-0.197107
	H295	H	-0.231884	0.006445	-0.206304
	H296	H	-0.208872	0.014592	-0.191256
	O297	O	0.547895	0.689649	0.459042
	H298	H	0.548733	0.691627	0.480490
	H299	H	0.532684	0.696015	0.455474
	O300	O	-0.215791	-0.240938	0.044197
	H301	H	-0.234620	-0.253098	0.057441
	H302	H	-0.223632	-0.247448	0.060486
	O303	O	-0.009630	-0.244048	0.003716
	H304	H	-0.033667	-0.241772	0.003931
	H305	H	0.002836	-0.246309	-0.008440
	O306	O	0.210891	0.187183	0.040007
	H307	H	0.212542	0.194526	0.031048
	H308	H	0.211837	0.187078	0.034350
	O309	O	1.128106	0.105034	-0.184500
	H310	H	1.116668	0.107526	-0.174486
	H311	H	1.114392	0.100072	-0.171613
	O312	O	0.319742	0.587326	0.632176
	H313	H	0.311309	0.581890	0.637402
	H314	H	0.321589	0.569350	0.636801
	O315	O	0.701857	0.508740	0.707811
	H316	H	0.707966	0.492897	0.700833
	H317	H	0.691156	0.492824	0.703337
	O318	O	1.384588	1.353598	0.631579
	H319	H	1.389945	1.360975	0.619156
	H320	H	1.376729	1.342278	0.611649
	O321	O	-0.037102	0.771744	1.217502
	H322	H	-0.016303	0.760648	1.213110
	H323	H	-0.017038	0.777697	1.207753
	O324	O	1.186178	-0.170600	1.129667
	H325	H	1.178555	-0.157363	1.122672
	H326	H	1.184733	-0.178880	1.112280
	O327	O	0.281976	0.438684	0.465192
	H328	H	0.278586	0.416998	0.483550
	H329	H	0.289671	0.467196	0.493736
	O330	O	-0.575137	1.548734	0.728319
	H331	H	-0.582815	1.532963	0.719723
	H332	H	-0.572924	1.566255	0.728440
	O333	O	0.190469	0.782529	0.821076
	H334	H	0.203363	0.801678	0.801630
	H335	H	0.152544	0.790587	0.812855
	O336	O	0.471245	1.301613	0.295124
	H337	H	0.458503	1.292298	0.281250
	H338	H	0.446939	1.300893	0.286713
	O339	O	0.023129	1.160523	-0.155093
	H340	H	0.003916	1.154297	-0.171858
	H341	H	-0.001831	1.166313	-0.133823
	O342	O	0.456943	0.277121	-0.280522
	H343	H	0.469589	0.276942	-0.292500
	H344	H	0.468350	0.273383	-0.276172
	O345	O	0.677849	0.392192	0.362093
	H346	H	0.689013	0.409822	0.351283
	H347	H	0.682603	0.408008	0.369147
	O348	O	0.635492	0.644630	0.649889
	H349	H	0.639417	0.618311	0.653141
	H350	H	0.652366	0.653743	0.636794
	O351	O	0.128508	-0.008480	0.897277
	H352	H	0.113498	0.009118	0.912766
	H353	H	0.140387	-0.018997	0.889162
	O354	O	1.374894	0.305487	1.357439
	H355	H	1.370771	0.310153	1.353945
	H356	H	1.365432	0.319581	1.372854
	O357	O	-0.317036	0.297153	-0.299692
	H358	H	-0.339167	0.313024	-0.309068
	H359	H	-0.326131	0.314006	-0.325880
	O360	O	0.217935	-0.244513	0.979929
	H361	H	0.251701	-0.275557	0.974266
	H362	H	0.210432	-0.237872	0.930319
	O363	O	0.709613	0.326252	0.450453
	H364	H	0.688098	0.342694	0.430125
	H365	H	0.729196	0.314488	0.443376
	O366	O	0.842484	0.190973	1.011079
	H367	H	0.838455	0.199079	1.015694
	H368	H	0.853328	0.179382	0.986000
	O369	O	-0.205245	0.177203	0.807907
	H370	H	-0.182656	0.180378	0.821774
	H371	H	-0.232803	0.197161	0.779183
	O372	O	0.153294	0.893278	1.128603
	H373	H	0.154146	0.888002	1.117434
	H374	H	0.158510	0.900637	1.134147
	O375	O	0.638147	0.276701	-0.682141
	H376	H	0.610000	0.272417	-0.691933
	H377	H	0.652400	0.303242	-0.692524
	O378	O	-0.224902	0.947165	0.008862
	H379	H	-0.223489	0.954643	0.029900
	H380	H	-0.228935	0.948209	-0.001535
	O381	O	0.711350	1.687761	0.536056
	H382	H	0.722013	1.708239	0.536380
	H383	H	0.714137	1.678161	0.553957
	O384	O	1.250885	1.229594	0.763934
	H385	H	1.226738	1.203218	0.782431
	H386	H	1.293000	1.232135	0.761937
	O387	O	0.016826	1.163321	1.014393
	H388	H	0.030618	1.163401	1.033744
	H389	H	0.000020	1.157162	1.002691
	O390	O	0.024490	0.772201	0.812689
	H391	H	0.006519	0.778747	0.799854
	H392	H	0.017967	0.762347	0.811329
	O393	O	0.552965	0.491983	-0.511066
	H394	H	0.555606	0.497604	-0.520206
	H395	H	0.541119	0.511565	-0.511274
	O396	O	0.959402	0.938985	0.781795
	H397	H	0.959297	0.944671	0.769323
	H398	H	0.948679	0.933945	0.780878
	O399	O	0.281158	0.453727	0.728365
	H400	H	0.266374	0.444170	0.740942
	H401	H	0.281947	0.417651	0.735044
	O402	O	1.539694	0.428540	1.743552
	H403	H	1.536376	0.439678	1.747973
	H404	H	1.520060	0.427788	1.736298
	O405	O	0.350353	0.534885	0.537609
	H406	H	0.350647	0.543944	0.544000
	H407	H	0.355057	0.546136	0.545565
	O408	O	1.087422	-0.013548	0.102949
	H409	H	1.077435	-0.014516	0.115553
	H410	H	1.090861	-0.012413	0.092700
	O411	O	0.457753	1.319213	-0.517552
	H412	H	0.463852	1.321180	-0.529018
	H413	H	0.441193	1.320740	-0.533976
	O414	O	0.226659	0.010016	0.241568
	H415	H	0.237416	0.027412	0.254423
	H416	H	0.242405	0.034697	0.252523
	O417	O	0.850393	0.157420	0.215711
	H418	H	0.848683	0.157334	0.207844
	H419	H	0.838577	0.159258	0.224786
	O420	O	1.669368	-0.424913	0.456110
	H421	H	1.664476	-0.434838	0.460213
	H422	H	1.649424	-0.430574	0.463683
	O423	O	1.306094	0.674002	0.317535
	H424	H	1.291411	0.641740	0.308133
	H425	H	1.307577	0.675630	0.297770
	O426	O	0.275732	0.259056	0.547102
	H427	H	0.274375	0.250143	0.565809
	H428	H	0.270317	0.235506	0.546543
	O429	O	0.622211	0.506476	0.446034
	H430	H	0.622687	0.499047	0.447077
	H431	H	0.619032	0.520363	0.449136
	O432	O	1.425134	0.673673	1.582875
	H433	H	1.407893	0.678704	1.574675
	H434	H	1.432105	0.675168	1.600691
	O435	O	-0.030195	0.022053	0.233246
	H436	H	-0.060394	0.005986	0.235741
	H437	H	-0.029314	0.015264	0.234522
	O438	O	0.679532	0.382382	0.518463
	H439	H	0.675716	0.394448	0.496318
	H440	H	0.683324	0.358024	0.500870
	O441	O	0.800440	0.775824	0.216735
	H442	H	0.802657	0.757042	0.219825
	H443	H	0.836029	0.787980	0.221366
	O444	O	0.673457	0.563068	0.325564
	H445	H	0.670798	0.567661	0.315213
	H446	H	0.672711	0.575044	0.334571
	O447	O	0.279465	0.696477	0.481413
	H448	H	0.243006	0.731258	0.475123
	H449	H	0.297833	0.690208	0.441398
	O450	O	0.983897	-0.095901	0.040731
	H451	H	1.006084	-0.091268	0.040425
	H452	H	0.973059	-0.090554	0.017511
	O453	O	0.553392	0.248999	0.579931
	H454	H	0.551971	0.244887	0.568213
	H455	H	0.566694	0.249875	0.570107
	O456	O	-0.466497	0.692425	0.728461
	H457	H	-0.448270	0.693904	0.723376
	H458	H	-0.464806	0.712114	0.749028
	O459	O	0.831154	0.949450	0.930644
	H460	H	0.826563	0.947599	0.931323
	H461	H	0.818677	0.952163	0.930641
	O462	O	0.767758	0.736389	0.774873
	H463	H	0.763164	0.733356	0.774850
	H464	H	0.762685	0.734390	0.793450
	O465	O	0.281928	0.507795	0.295496
	H466	H	0.265274	0.486032	0.318336
	H467	H	0.250459	0.496678	0.282846
	O468	O	1.142418	1.968042	0.060612
	H469	H	1.127454	1.962883	0.055228
	H470	H	1.151488	1.970142	0.074949
	O471	O	0.506669	0.488661	0.300803
	H472	H	0.490467	0.494904	0.293199
	H473	H	0.489337	0.500127	0.317913
	O474	O	0.908789	1.022711	0.070464
	H475	H	0.913952	1.020104	0.059842
	H476	H	0.904994	1.010646	0.088026
	O477	O	0.047195	0.175657	1.217099
	H478	H	0.030729	0.160223	1.219586
	H479	H	0.026243	0.174727	1.230881
