data_Molecule from HDF5

_cell_length_a		16.347264
_cell_length_b		16.232487
_cell_length_c		16.283206
_cell_angle_alpha	89.937042
_cell_angle_beta	90.076315
_cell_angle_gamma	90.088574
_symmetry_space_group_name_H-M	'P 1'
_symmetry_Int_Tables_number		1

loop_
	_symmetry_equiv_pos_as_xyz
	x,y,z

loop_
	_atom_site_label
	_atom_site_type_symbol
	_atom_site_fract_x
	_atom_site_fract_y
	_atom_site_fract_z
	H0	H	0.398162	0.847760	0.716285
	H1	H	0.595916	0.176094	0.716577
	H2	H	0.594726	0.848450	0.288830
	H3	H	0.400325	0.176201	0.288719
	H4	H	0.712497	0.414101	0.839876
	H5	H	0.712731	0.610946	0.166679
	H6	H	0.282381	0.612490	0.840599
	H7	H	0.283703	0.412943	0.166967
	H8	H	0.833203	0.726015	0.404717
	H9	H	0.160014	0.727158	0.600487
	H10	H	0.834246	0.297226	0.602169
	H11	H	0.160288	0.298066	0.405818
	H12	H	0.834471	0.413913	0.718213
	H13	H	0.159966	0.612730	0.718287
	H14	H	0.833767	0.610210	0.288065
	H15	H	0.159866	0.412617	0.287759
	H16	H	0.400660	0.725257	0.838935
	H17	H	0.595061	0.725546	0.166687
	H18	H	0.596484	0.297982	0.839429
	H19	H	0.400901	0.298246	0.167067
	H20	H	0.710235	0.847757	0.404926
	H21	H	0.713611	0.175418	0.602581
	H22	H	0.280856	0.848519	0.602124
	H23	H	0.282339	0.175906	0.401466
	H24	H	0.900433	0.348187	0.216117
	H25	H	0.094810	0.676881	0.217139
	H26	H	0.096419	0.348112	0.788993
	H27	H	0.899324	0.675853	0.789380
	H28	H	0.210367	0.913864	0.338237
	H29	H	0.214337	0.112150	0.665011
	H30	H	0.782609	0.112023	0.339593
	H31	H	0.781432	0.911519	0.665357
	H32	H	0.334611	0.226682	0.905062
	H33	H	0.660686	0.225839	0.100101
	H34	H	0.334621	0.796093	0.101248
	H35	H	0.660858	0.798695	0.905479
	H36	H	0.334885	0.912167	0.218333
	H37	H	0.660562	0.110552	0.217342
	H38	H	0.334942	0.111848	0.786659
	H39	H	0.660149	0.913851	0.788500
	H40	H	0.899962	0.225624	0.338630
	H41	H	0.095225	0.225316	0.667069
	H42	H	0.093376	0.798085	0.339108
	H43	H	0.899549	0.799590	0.666194
	H44	H	0.212400	0.348210	0.905708
	H45	H	0.213598	0.676356	0.103057
	H46	H	0.782726	0.348908	0.103573
	H47	H	0.784022	0.675602	0.904102
	H48	H	0.406905	0.128863	0.600238
	H49	H	0.597405	0.892882	0.596935
	H50	H	0.591514	0.126940	0.420763
	H51	H	0.401808	0.896739	0.417632
	H52	H	0.610716	0.422210	0.124859
	H53	H	0.594548	0.609449	0.884068
	H54	H	0.404467	0.608380	0.121162
	H55	H	0.398816	0.418490	0.884819
	H56	H	0.114136	0.610717	0.411362
	H57	H	0.879481	0.604460	0.599845
	H58	H	0.107171	0.433788	0.591110
	H59	H	0.879048	0.421532	0.398983
	H60	H	0.118360	0.417669	0.611373
	H61	H	0.880479	0.608362	0.597405
	H62	H	0.109710	0.602224	0.416021
	H63	H	0.878649	0.408801	0.413342
	H64	H	0.403120	0.601689	0.120227
	H65	H	0.594872	0.602162	0.886143
	H66	H	0.580062	0.434973	0.111520
	H67	H	0.405640	0.425936	0.889156
	H68	H	0.600345	0.134046	0.404016
	H69	H	0.584243	0.894788	0.600883
	H70	H	0.409365	0.125836	0.589522
	H71	H	0.398125	0.892350	0.405785
	H72	H	0.897419	0.633934	0.102492
	H73	H	0.090644	0.394873	0.099096
	H74	H	0.088108	0.627989	0.910618
	H75	H	0.900497	0.392360	0.906294
	H76	H	0.094317	0.909357	0.622659
	H77	H	0.084052	0.107276	0.386964
	H78	H	0.887851	0.102072	0.623319
	H79	H	0.903152	0.921358	0.385780
	H80	H	0.610322	0.102570	0.918663
	H81	H	0.383052	0.102141	0.093610
	H82	H	0.618672	0.911907	0.106173
	H83	H	0.381705	0.920491	0.908260
	H84	H	0.611597	0.914430	0.085262
	H85	H	0.379232	0.105178	0.101738
	H86	H	0.614050	0.098302	0.902222
	H87	H	0.380699	0.917523	0.909318
	H88	H	0.912928	0.091125	0.613436
	H89	H	0.094423	0.109710	0.383718
	H90	H	0.097931	0.928448	0.618165
	H91	H	0.904821	0.918042	0.384958
	H92	H	0.092056	0.628828	0.913591
	H93	H	0.089223	0.396990	0.094530
	H94	H	0.914488	0.628221	0.099647
	H95	H	0.911680	0.396127	0.909640
	H96	H	0.399213	0.129473	0.592349
	H97	H	0.588319	0.898212	0.587936
	H98	H	0.581319	0.127842	0.403938
	H99	H	0.410749	0.896368	0.407499
	H100	H	0.582501	0.400306	0.122806
	H101	H	0.588359	0.606054	0.887212
	H102	H	0.408659	0.604735	0.118843
	H103	H	0.409131	0.415949	0.886431
	H104	H	0.112811	0.601792	0.405248
	H105	H	0.881773	0.604439	0.595550
	H106	H	0.114037	0.406858	0.586438
	H107	H	0.885852	0.427135	0.416586
	H108	H	0.901555	0.627525	0.085947
	H109	H	0.093566	0.395347	0.095400
	H110	H	0.092227	0.630087	0.908556
	H111	H	0.902388	0.396507	0.917604
	H112	H	0.079136	0.921050	0.615529
	H113	H	0.092477	0.099249	0.387022
	H114	H	0.910827	0.119557	0.621814
	H115	H	0.900778	0.918349	0.384359
	H116	H	0.617294	0.114279	0.907644
	H117	H	0.380064	0.110803	0.094434
	H118	H	0.610991	0.931101	0.099102
	H119	H	0.382277	0.920448	0.911775
	C120	C	0.375589	0.020140	0.623420
	C121	C	0.618908	1.003562	0.623984
	C122	C	0.618735	0.020927	0.381339
	C123	C	0.375326	1.003591	0.380938
	C124	C	0.619905	0.390590	0.011693
	C125	C	0.620245	0.634033	0.994165
	C126	C	0.376548	0.633968	0.011928
	C127	C	0.376265	0.391064	0.994930
	C128	C	0.004829	0.633923	0.381680
	C129	C	0.988440	0.634401	0.625612
	C130	C	0.005458	0.390862	0.624933
	C131	C	0.988783	0.390595	0.381502
	C132	C	0.876127	0.521276	0.124797
	C133	C	0.119844	0.504221	0.125390
	C134	C	0.119481	0.520587	0.882005
	C135	C	0.877119	0.503582	0.882635
	C136	C	0.118521	0.890780	0.510781
	C137	C	0.118938	0.134024	0.494162
	C138	C	0.875812	0.133246	0.511310
	C139	C	0.875050	0.890873	0.493569
	C140	C	0.506196	0.134141	0.880625
	C141	C	0.488950	0.133766	0.124444
	C142	C	0.505924	0.890076	0.124831
	C143	C	0.489223	0.890720	0.881274
	C144	C	0.377681	0.896815	0.678811
	C145	C	0.616368	0.126992	0.679041
	C146	C	0.615177	0.897219	0.326921
	C147	C	0.379120	0.127252	0.326262
	C148	C	0.674717	0.393520	0.888606
	C149	C	0.674604	0.631273	0.117792
	C150	C	0.320337	0.632641	0.889233
	C151	C	0.321607	0.392889	0.118086
	C152	C	0.881904	0.688332	0.384278
	C153	C	0.111234	0.689391	0.621649
	C154	C	0.882868	0.335529	0.622256
	C155	C	0.111592	0.335852	0.384830
	C156	C	0.883013	0.393308	0.680192
	C157	C	0.111321	0.632379	0.680110
	C158	C	0.882306	0.631101	0.325997
	C159	C	0.111402	0.392705	0.326070
	C160	C	0.379562	0.688315	0.888312
	C161	C	0.616357	0.688379	0.117797
	C162	C	0.617037	0.335826	0.888282
	C163	C	0.380070	0.336148	0.118128
	C164	C	0.672730	0.897041	0.384338
	C165	C	0.674737	0.126735	0.622168
	C166	C	0.319737	0.897104	0.621507
	C167	C	0.320267	0.126879	0.382138
	C168	C	0.879073	0.397416	0.178993
	C169	C	0.116325	0.627727	0.180026
	C170	C	0.116883	0.397141	0.827103
	C171	C	0.879456	0.626995	0.827327
	C172	C	0.172874	0.893222	0.387554
	C173	C	0.175376	0.132113	0.616617
	C174	C	0.820666	0.131773	0.388040
	C175	C	0.819717	0.892101	0.616483
	C176	C	0.383363	0.189351	0.883630
	C177	C	0.612035	0.187981	0.121133
	C178	C	0.383235	0.834252	0.121928
	C179	C	0.612034	0.836323	0.884640
	C180	C	0.383219	0.892221	0.179795
	C181	C	0.611898	0.130825	0.179291
	C182	C	0.383714	0.132610	0.824659
	C183	C	0.611698	0.893384	0.826347
	C184	C	0.878701	0.188810	0.387919
	C185	C	0.116291	0.188347	0.617820
	C186	C	0.114961	0.835682	0.387825
	C187	C	0.878205	0.836166	0.616902
	C188	C	0.174584	0.397231	0.884859
	C189	C	0.175028	0.627533	0.123279
	C190	C	0.820827	0.397867	0.122943
	C191	C	0.821884	0.626716	0.884177
	C192	C	0.398404	0.106087	0.600611
	C193	C	0.596593	0.917464	0.601869
	C194	C	0.597511	0.107278	0.403102
	C195	C	0.397149	0.917407	0.403708
	C196	C	0.597813	0.412720	0.097618
	C197	C	0.598892	0.612419	0.908131
	C198	C	0.398827	0.611492	0.097690
	C199	C	0.397967	0.413644	0.908948
	C200	C	0.090100	0.611679	0.404244
	C201	C	0.902583	0.612138	0.604073
	C202	C	0.091115	0.412865	0.602864
	C203	C	0.903164	0.412737	0.403311
	C204	C	0.898093	0.607665	0.102628
	C205	C	0.097600	0.418027	0.102812
	C206	C	0.097403	0.606741	0.904489
	C207	C	0.898737	0.417378	0.904656
	C208	C	0.096775	0.913010	0.596858
	C209	C	0.096772	0.111972	0.408169
	C210	C	0.897418	0.110824	0.597140
	C211	C	0.896616	0.912788	0.407496
	C212	C	0.591619	0.111652	0.902851
	C213	C	0.403095	0.112313	0.103092
	C214	C	0.591632	0.912705	0.103318
	C215	C	0.403637	0.912996	0.903259
	Zn216	Zn	0.497143	0.011773	0.752014
	Zn217	Zn	0.497065	0.012180	0.253268
	Zn218	Zn	0.748708	0.512062	0.003553
	Zn219	Zn	0.248197	0.512601	0.004025
	Zn220	Zn	-0.003633	0.762704	0.503105
	Zn221	Zn	-0.002845	0.261623	0.503419
	Zn222	Zn	-0.002536	0.512257	0.753757
	Zn223	Zn	-0.002698	0.512476	0.252535
	Zn224	Zn	0.497839	0.761975	0.002819
	Zn225	Zn	0.497834	0.262648	0.002713
	Zn226	Zn	0.747420	0.012017	0.502124
	Zn227	Zn	0.247337	0.012403	0.501724
	N228	N	0.411761	0.974518	0.680091
	N229	N	0.582133	0.049526	0.680004
	N230	N	0.582156	0.975048	0.325077
	N231	N	0.412469	0.049533	0.325293
	N232	N	0.676578	0.426818	0.966284
	N233	N	0.677275	0.598176	0.040035
	N234	N	0.318570	0.599098	0.966925
	N235	N	0.319244	0.426195	0.040317
	N236	N	0.959139	0.690254	0.418143
	N237	N	0.033811	0.690782	0.588472
	N238	N	0.960053	0.333894	0.588590
	N239	N	0.034483	0.334482	0.418535
	N240	N	0.960178	0.426989	0.681876
	N241	N	0.033879	0.599127	0.682766
	N242	N	0.959611	0.597951	0.324306
	N243	N	0.034173	0.426411	0.324132
	N244	N	0.413612	0.689317	0.965540
	N245	N	0.583392	0.690194	0.040031
	N246	N	0.583576	0.333972	0.965862
	N247	N	0.413363	0.334938	0.040596
	N248	N	0.675034	0.975025	0.417501
	N249	N	0.676555	0.049049	0.588614
	N250	N	0.318361	0.974851	0.587968
	N251	N	0.318040	0.049001	0.415482
	N252	N	0.912910	0.474967	0.180104
	N253	N	0.082707	0.549765	0.181508
	N254	N	0.083548	0.474909	0.825247
	N255	N	0.913152	0.549374	0.826277
	N256	N	0.175069	0.926838	0.465106
	N257	N	0.176971	0.098968	0.538787
	N258	N	0.818492	0.098264	0.465696
	N259	N	0.817677	0.925600	0.538745
	N260	N	0.460561	0.190652	0.917524
	N261	N	0.534845	0.189926	0.087640
	N262	N	0.460494	0.832964	0.088518
	N263	N	0.534879	0.834892	0.918300
	N264	N	0.460461	0.926221	0.181660
	N265	N	0.534255	0.097778	0.181453
	N266	N	0.460887	0.099190	0.822654
	N267	N	0.534251	0.926253	0.823927
	N268	N	0.912488	0.189600	0.465420
	N269	N	0.082451	0.189865	0.540478
	N270	N	0.082066	0.833970	0.465438
	N271	N	0.911977	0.835366	0.539555
	N272	N	0.176400	0.475058	0.918253
	N273	N	0.177163	0.549798	0.090130
	N274	N	0.818931	0.475978	0.089885
	N275	N	0.820170	0.549012	0.917899
	O276	O	0.394647	0.494866	0.443006
	H277	H	0.395393	0.500654	0.447143
	H278	H	0.387720	0.498845	0.438246
	O279	O	0.038077	-0.017589	-0.057456
	H280	H	0.039353	-0.017694	-0.049615
	H281	H	0.039675	-0.006066	-0.051434
	O282	O	1.016265	-0.010896	0.968293
	H283	H	1.016082	-0.019676	0.957110
	H284	H	1.016101	-0.008411	0.971180
	O285	O	1.006274	0.012715	0.948806
	H286	H	1.011223	0.017930	0.946442
	H287	H	1.000574	0.007717	0.948757
	O288	O	1.415255	0.494881	-0.519376
	H289	H	1.413296	0.497655	-0.515963
	H290	H	1.404211	0.501429	-0.516886
	O291	O	-0.578623	0.512541	-0.529208
	H292	H	-0.583748	0.518301	-0.528143
	H293	H	-0.580973	0.515739	-0.528628
	O294	O	0.428294	0.476931	0.518680
	H295	H	0.424525	0.471764	0.529766
	H296	H	0.422641	0.473721	0.515743
	O297	O	0.241560	0.578475	-0.313744
	H298	H	0.241093	0.571346	-0.317001
	H299	H	0.242786	0.582206	-0.322419
	O300	O	0.989150	-0.009513	0.992035
	H301	H	0.981968	-0.011643	0.995204
	H302	H	0.996152	-0.020130	0.983525
	O303	O	0.404905	0.450720	0.522019
	H304	H	0.407460	0.451054	0.507521
	H305	H	0.409263	0.444172	0.528060
	O306	O	-0.002735	1.010844	0.991601
	H307	H	-0.008814	1.013239	0.983230
	H308	H	-0.001418	1.010171	0.998744
	O309	O	0.391633	0.519877	0.541525
	H310	H	0.389358	0.512176	0.548781
	H311	H	0.384667	0.509429	0.547201
