data_Molecule from HDF5

_cell_length_a		16.291584
_cell_length_b		16.307198
_cell_length_c		16.382118
_cell_angle_alpha	89.796335
_cell_angle_beta	89.925642
_cell_angle_gamma	90.077225
_symmetry_space_group_name_H-M	'P 1'
_symmetry_Int_Tables_number		1

loop_
	_symmetry_equiv_pos_as_xyz
	x,y,z

loop_
	_atom_site_label
	_atom_site_type_symbol
	_atom_site_fract_x
	_atom_site_fract_y
	_atom_site_fract_z
	H0	H	0.385569	0.829841	0.726324
	H1	H	0.594559	0.150845	0.720464
	H2	H	0.598603	0.828724	0.283606
	H3	H	0.385775	0.147841	0.281510
	H4	H	0.711492	0.386807	0.841675
	H5	H	0.711389	0.589043	0.163938
	H6	H	0.273733	0.592927	0.842146
	H7	H	0.271325	0.383284	0.163009
	H8	H	0.830542	0.705406	0.401609
	H9	H	0.151818	0.708712	0.608814
	H10	H	0.829311	0.273033	0.603367
	H11	H	0.152814	0.268773	0.398270
	H12	H	0.831014	0.384745	0.721677
	H13	H	0.152399	0.592932	0.722111
	H14	H	0.831376	0.591871	0.283555
	H15	H	0.153823	0.385494	0.283322
	H16	H	0.389393	0.709237	0.842319
	H17	H	0.597394	0.707473	0.163082
	H18	H	0.597711	0.268465	0.842793
	H19	H	0.389528	0.268493	0.163828
	H20	H	0.710697	0.827257	0.402555
	H21	H	0.709063	0.151408	0.605323
	H22	H	0.272507	0.828304	0.609830
	H23	H	0.271664	0.148071	0.399225
	H24	H	0.891121	0.327895	0.221278
	H25	H	0.097489	0.649680	0.220648
	H26	H	0.095182	0.327087	0.784506
	H27	H	0.891921	0.650471	0.784548
	H28	H	0.211239	0.885411	0.344635
	H29	H	0.208116	0.089323	0.666459
	H30	H	0.775633	0.088767	0.342897
	H31	H	0.775147	0.888003	0.666873
	H32	H	0.331696	0.207573	0.900678
	H33	H	0.654702	0.203897	0.104326
	H34	H	0.330150	0.769621	0.104948
	H35	H	0.656051	0.774229	0.902591
	H36	H	0.330543	0.883001	0.223391
	H37	H	0.652799	0.091608	0.222364
	H38	H	0.330873	0.092031	0.786352
	H39	H	0.653900	0.889076	0.785769
	H40	H	0.889388	0.206590	0.342724
	H41	H	0.092981	0.207427	0.664872
	H42	H	0.094352	0.770887	0.343550
	H43	H	0.890630	0.769543	0.665779
	H44	H	0.211629	0.327810	0.899964
	H45	H	0.209641	0.650995	0.102248
	H46	H	0.776917	0.326508	0.103203
	H47	H	0.777376	0.651105	0.901222
	H48	H	0.402610	0.101847	0.587654
	H49	H	0.582167	0.874726	0.594782
	H50	H	0.582688	0.103642	0.413253
	H51	H	0.408249	0.873215	0.407699
	H52	H	0.581780	0.398885	0.115861
	H53	H	0.589628	0.586590	0.884146
	H54	H	0.403039	0.579777	0.116575
	H55	H	0.398959	0.404208	0.889839
	H56	H	0.108721	0.580099	0.410332
	H57	H	0.875132	0.577022	0.598214
	H58	H	0.106237	0.407338	0.597735
	H59	H	0.878631	0.397995	0.416485
	H60	H	0.110543	0.391265	0.595866
	H61	H	0.876540	0.581715	0.591438
	H62	H	0.107100	0.580771	0.413713
	H63	H	0.878390	0.404199	0.408667
	H64	H	0.401061	0.574881	0.116248
	H65	H	0.588289	0.574428	0.888942
	H66	H	0.584634	0.392923	0.118484
	H67	H	0.410104	0.399743	0.892644
	H68	H	0.582418	0.103378	0.411935
	H69	H	0.584089	0.873073	0.595656
	H70	H	0.395259	0.106398	0.596240
	H71	H	0.406012	0.877226	0.422283
	H72	H	0.906035	0.601548	0.086769
	H73	H	0.083360	0.371549	0.098059
	H74	H	0.076705	0.600034	0.915868
	H75	H	0.902107	0.371109	0.905584
	H76	H	0.077123	0.897235	0.617680
	H77	H	0.081513	0.073107	0.391940
	H78	H	0.900497	0.082228	0.619712
	H79	H	0.900821	0.891465	0.388343
	H80	H	0.607756	0.076688	0.909615
	H81	H	0.380401	0.068638	0.089750
	H82	H	0.603033	0.903002	0.089024
	H83	H	0.376083	0.900987	0.907114
	H84	H	0.608689	0.900943	0.101872
	H85	H	0.374047	0.078461	0.102462
	H86	H	0.608934	0.082902	0.911482
	H87	H	0.376296	0.891228	0.916920
	H88	H	0.898672	0.080333	0.620132
	H89	H	0.077252	0.082245	0.390508
	H90	H	0.082905	0.894629	0.620737
	H91	H	0.895223	0.901007	0.389564
	H92	H	0.090025	0.605275	0.914927
	H93	H	0.077382	0.375804	0.092849
	H94	H	0.894736	0.606539	0.092708
	H95	H	0.906262	0.375341	0.913859
	H96	H	0.407157	0.103687	0.598547
	H97	H	0.582397	0.874188	0.597948
	H98	H	0.581750	0.103288	0.412373
	H99	H	0.394697	0.872076	0.414467
	H100	H	0.588225	0.399066	0.117621
	H101	H	0.577982	0.582159	0.889058
	H102	H	0.406589	0.576031	0.114653
	H103	H	0.401908	0.392504	0.887175
	H104	H	0.106794	0.577055	0.411784
	H105	H	0.878396	0.574327	0.591201
	H106	H	0.102874	0.398987	0.583570
	H107	H	0.875342	0.394125	0.407808
	H108	H	0.906006	0.605568	0.099893
	H109	H	0.085582	0.374738	0.089471
	H110	H	0.080977	0.605191	0.903605
	H111	H	0.896960	0.372613	0.913642
	H112	H	0.082905	0.901524	0.618148
	H113	H	0.086710	0.080427	0.388180
	H114	H	0.901559	0.079397	0.618758
	H115	H	0.905972	0.900717	0.392556
	H116	H	0.607491	0.078492	0.915351
	H117	H	0.377136	0.085380	0.086727
	H118	H	0.608682	0.891178	0.092833
	H119	H	0.380614	0.903902	0.919464
	C120	C	0.370603	-0.002425	0.625886
	C121	C	0.613294	0.980858	0.625907
	C122	C	0.614119	-0.002847	0.381879
	C123	C	0.370741	0.979686	0.382688
	C124	C	0.615696	0.366173	0.011316
	C125	C	0.615551	0.610975	0.994096
	C126	C	0.372090	0.609231	0.010507
	C127	C	0.371491	0.366829	0.995361
	C128	C	0.000999	0.610218	0.381346
	C129	C	0.983281	0.608986	0.624423
	C130	C	0.000241	0.367710	0.624026
	C131	C	0.983994	0.367525	0.380591
	C132	C	0.872337	0.497526	0.123459
	C133	C	0.114093	0.480420	0.123709
	C134	C	0.114004	0.497025	0.880583
	C135	C	0.871672	0.480076	0.880803
	C136	C	0.112910	0.866513	0.513275
	C137	C	0.113283	0.110070	0.496195
	C138	C	0.870343	0.110390	0.512572
	C139	C	0.870039	0.867021	0.496339
	C140	C	0.501594	0.111056	0.881276
	C141	C	0.483622	0.108649	0.124289
	C142	C	0.500544	0.865943	0.126070
	C143	C	0.484373	0.868391	0.882908
	C144	C	0.368153	0.877224	0.686095
	C145	C	0.613442	0.102467	0.682460
	C146	C	0.616063	0.876594	0.323551
	C147	C	0.367809	0.099836	0.321903
	C148	C	0.673009	0.366724	0.890098
	C149	C	0.672682	0.609209	0.115411
	C150	C	0.313056	0.611613	0.890139
	C151	C	0.311502	0.365185	0.115214
	C152	C	0.879124	0.667424	0.381643
	C153	C	0.103693	0.668946	0.626510
	C154	C	0.878330	0.310673	0.623655
	C155	C	0.104926	0.308547	0.379816
	C156	C	0.879034	0.366580	0.682359
	C157	C	0.104283	0.611061	0.682949
	C158	C	0.879774	0.610898	0.322862
	C159	C	0.105387	0.366596	0.322614
	C160	C	0.370961	0.669313	0.890137
	C161	C	0.615779	0.668035	0.115199
	C162	C	0.616039	0.308113	0.890604
	C163	C	0.370359	0.308059	0.115925
	C164	C	0.672274	0.875993	0.382715
	C165	C	0.670557	0.102558	0.624867
	C166	C	0.311562	0.876614	0.628164
	C167	C	0.311275	0.100176	0.380777
	C168	C	0.871940	0.375980	0.181817
	C169	C	0.116126	0.601505	0.181733
	C170	C	0.114571	0.375599	0.822985
	C171	C	0.872100	0.602098	0.823340
	C172	C	0.172209	0.866014	0.392794
	C173	C	0.170128	0.109445	0.617655
	C174	C	0.814101	0.108806	0.390967
	C175	C	0.813344	0.867677	0.618189
	C176	C	0.379979	0.168759	0.881576
	C177	C	0.605571	0.166074	0.124418
	C178	C	0.378978	0.807839	0.125431
	C179	C	0.606818	0.812287	0.883248
	C180	C	0.379007	0.864552	0.184025
	C181	C	0.604734	0.109607	0.182665
	C182	C	0.379723	0.111290	0.824435
	C183	C	0.605964	0.869311	0.825108
	C184	C	0.870740	0.167413	0.391051
	C185	C	0.112705	0.168049	0.616932
	C186	C	0.113867	0.808941	0.392301
	C187	C	0.870749	0.809027	0.617836
	C188	C	0.172225	0.375839	0.880655
	C189	C	0.171424	0.602344	0.122273
	C190	C	0.815309	0.375214	0.123096
	C191	C	0.815365	0.602447	0.881507
	C192	C	0.394835	0.081951	0.601211
	C193	C	0.589636	0.896001	0.602866
	C194	C	0.589456	0.081545	0.405697
	C195	C	0.395841	0.895914	0.407677
	C196	C	0.591781	0.389909	0.095456
	C197	C	0.592084	0.587888	0.909478
	C198	C	0.396422	0.584073	0.094014
	C199	C	0.396497	0.391715	0.911577
	C200	C	0.085474	0.586263	0.405065
	C201	C	0.898620	0.584614	0.600397
	C202	C	0.084584	0.392080	0.599586
	C203	C	0.899562	0.391699	0.404249
	C204	C	0.895637	0.582550	0.099925
	C205	C	0.089288	0.395949	0.100284
	C206	C	0.089763	0.581525	0.904478
	C207	C	0.894928	0.395153	0.904139
	C208	C	0.088225	0.890716	0.597204
	C209	C	0.089064	0.085754	0.412060
	C210	C	0.893667	0.087494	0.597362
	C211	C	0.893786	0.890748	0.412182
	C212	C	0.586320	0.086627	0.905017
	C213	C	0.399057	0.084612	0.099967
	C214	C	0.584743	0.891093	0.101747
	C215	C	0.399780	0.891915	0.907290
	Zn216	Zn	0.492095	-0.010540	0.753550
	Zn217	Zn	0.491751	-0.011870	0.253774
	Zn218	Zn	0.743945	0.488705	0.002284
	Zn219	Zn	0.242343	0.488925	0.002541
	Zn220	Zn	-0.008452	0.737785	0.504158
	Zn221	Zn	-0.008456	0.239617	0.503125
	Zn222	Zn	-0.007630	0.488253	0.752321
	Zn223	Zn	-0.006728	0.489196	0.251979
	Zn224	Zn	0.492907	0.738446	0.003089
	Zn225	Zn	0.493182	0.237953	0.003624
	Zn226	Zn	0.741763	-0.010549	0.505159
	Zn227	Zn	0.241976	-0.011755	0.505236
	N228	N	0.404384	0.953428	0.684669
	N229	N	0.578349	0.025796	0.683073
	N230	N	0.580532	0.952961	0.322938
	N231	N	0.404301	0.023960	0.323164
	N232	N	0.672957	0.402189	0.966049
	N233	N	0.672414	0.574252	0.039099
	N234	N	0.313869	0.574776	0.965715
	N235	N	0.312219	0.400995	0.039180
	N236	N	0.955469	0.667439	0.417194
	N237	N	0.027429	0.667680	0.590606
	N238	N	0.954548	0.311417	0.587855
	N239	N	0.028469	0.309037	0.415250
	N240	N	0.955867	0.401614	0.682580
	N241	N	0.028517	0.574249	0.681530
	N242	N	0.956684	0.576134	0.322366
	N243	N	0.029197	0.402716	0.323040
	N244	N	0.407236	0.667726	0.965787
	N245	N	0.581089	0.669248	0.038743
	N246	N	0.580841	0.307789	0.966959
	N247	N	0.406907	0.308927	0.040277
	N248	N	0.670890	0.952066	0.418665
	N249	N	0.670401	0.025974	0.590189
	N250	N	0.313030	0.952402	0.591282
	N251	N	0.312654	0.024492	0.417893
	N252	N	0.906481	0.453032	0.182152
	N253	N	0.081157	0.524727	0.182732
	N254	N	0.079072	0.452060	0.822911
	N255	N	0.906289	0.524947	0.822730
	N256	N	0.171699	0.901001	0.468966
	N257	N	0.170375	0.074247	0.541494
	N258	N	0.813757	0.074084	0.467469
	N259	N	0.812651	0.902621	0.541781
	N260	N	0.456905	0.168908	0.916081
	N261	N	0.529339	0.165580	0.088653
	N262	N	0.455647	0.808403	0.090163
	N263	N	0.530069	0.811403	0.918417
	N264	N	0.455732	0.899856	0.184529
	N265	N	0.527769	0.074810	0.182851
	N266	N	0.456445	0.076086	0.824267
	N267	N	0.529029	0.903528	0.824857
	N268	N	0.904813	0.168576	0.467813
	N269	N	0.078260	0.168763	0.540231
	N270	N	0.077812	0.808976	0.468324
	N271	N	0.905246	0.808396	0.541101
	N272	N	0.172237	0.452380	0.915381
	N273	N	0.170448	0.525818	0.087249
	N274	N	0.815632	0.451649	0.087377
	N275	N	0.814981	0.525665	0.916355
	O276	O	-0.036020	-0.084991	-0.022669
	H277	H	-0.033389	-0.082288	-0.016983
	H278	H	-0.033197	-0.091107	-0.030830
	O279	O	0.688730	0.455558	0.402575
	H280	H	0.690585	0.433622	0.386970
	H281	H	0.688870	0.463195	0.410440
	O282	O	1.023275	0.091201	0.035593
	H283	H	1.020687	0.090727	0.026799
	H284	H	1.023173	0.100408	0.035376
	O285	O	-0.028561	0.924946	0.021923
	H286	H	-0.033950	0.930489	0.017817
	H287	H	-0.044560	0.922273	0.023559
	O288	O	0.538859	0.344792	0.329401
	H289	H	0.523796	0.361533	0.323035
	H290	H	0.541394	0.324940	0.316607
	O291	O	1.038119	0.119180	1.101605
	H292	H	1.035913	0.120717	1.102570
	H293	H	1.033249	0.115983	1.106472
	O294	O	1.080827	1.003118	1.102212
	H295	H	1.076805	1.002451	1.102444
	H296	H	1.085539	1.001065	1.102487
	O297	O	-0.084722	0.081771	-0.073276
	H298	H	-0.090697	0.080908	-0.072189
	H299	H	-0.100716	0.086445	-0.088178
	O300	O	0.487046	0.413803	0.657403
	H301	H	0.498139	0.440699	0.648632
	H302	H	0.489761	0.407150	0.667540
	O303	O	-0.109539	1.085284	0.906805
	H304	H	-0.108812	1.089530	0.911196
	H305	H	-0.111691	1.086816	0.908829
	O306	O	0.489959	0.599553	0.515542
	H307	H	0.475171	0.608351	0.517007
	H308	H	0.472689	0.596462	0.500204
	O309	O	1.067523	-0.025543	0.032921
	H310	H	1.065658	-0.033847	0.038356
	H311	H	1.065807	-0.016360	0.030362
	O312	O	0.015088	-0.083884	0.988278
	H313	H	0.005626	-0.079218	0.996228
	H314	H	0.009524	-0.086980	0.982482
	O315	O	0.498668	0.631316	0.443046
	H316	H	0.492551	0.635317	0.436442
	H317	H	0.496020	0.623512	0.451539
	O318	O	0.321916	0.571732	0.398546
	H319	H	0.327173	0.562145	0.403663
	H320	H	0.319654	0.558370	0.388854
	O321	O	0.642994	0.619568	0.545280
	H322	H	0.632498	0.633145	0.536773
	H323	H	0.641184	0.612670	0.539879
	O324	O	0.362083	0.606182	0.318260
	H325	H	0.365375	0.600835	0.321915
	H326	H	0.353372	0.587518	0.324595
	O327	O	-0.121694	0.899203	1.029900
	H328	H	-0.119775	0.889067	1.041446
	H329	H	-0.129365	0.891850	1.036765
	O330	O	0.987885	0.987410	1.064916
	H331	H	0.978870	0.978872	1.077388
	H332	H	0.996175	0.981535	1.060435
	O333	O	-0.067522	1.071619	0.993189
	H334	H	-0.066948	1.082362	0.995635
	H335	H	-0.074397	1.060062	0.988194
	O336	O	1.047531	1.086180	1.023433
	H337	H	1.037509	1.073999	1.014662
	H338	H	1.054824	1.090557	1.023538
	O339	O	0.412986	0.399038	0.416831
	H340	H	0.413383	0.400096	0.434803
	H341	H	0.417357	0.390073	0.428496
	O342	O	1.491445	0.623502	-0.312952
	H343	H	1.503671	0.637186	-0.315595
	H344	H	1.501615	0.627768	-0.311439
	O345	O	0.000558	0.990835	0.181668
	H346	H	0.019306	0.994617	0.194120
	H347	H	-0.000360	1.015045	0.180099
	O348	O	0.929358	1.043206	0.922556
	H349	H	0.925301	1.029317	0.927575
	H350	H	0.928011	1.033236	0.910847
	O351	O	1.055831	0.905879	0.078262
	H352	H	1.060905	0.916938	0.085625
	H353	H	1.065879	0.902890	0.086279
	O354	O	0.649547	0.364920	0.319450
	H355	H	0.637680	0.375016	0.326247
	H356	H	0.621994	0.369395	0.308969
	O357	O	0.482690	0.392380	0.453192
	H358	H	0.471972	0.397631	0.445590
	H359	H	0.489461	0.377849	0.465160
	O360	O	-0.039665	0.020869	0.097269
	H361	H	-0.050114	0.030797	0.088960
	H362	H	-0.043902	0.027433	0.101102
	O363	O	0.577613	0.418174	0.574205
	H364	H	0.592756	0.418495	0.558242
	H365	H	0.574641	0.430403	0.587742
	O366	O	0.461052	0.345582	0.518107
	H367	H	0.461538	0.348893	0.518507
	H368	H	0.451825	0.348315	0.542955
	O369	O	0.660184	0.300576	0.422469
	H370	H	0.645834	0.311551	0.401485
	H371	H	0.666995	0.291497	0.424634
	O372	O	0.302421	0.667037	0.431919
	H373	H	0.282156	0.678819	0.440212
	H374	H	0.300967	0.649126	0.412400
	O375	O	0.407337	0.483358	0.554335
	H376	H	0.412057	0.476904	0.558842
	H377	H	0.394450	0.481544	0.563231
	O378	O	0.339796	0.319370	0.671507
	H379	H	0.348063	0.339467	0.681731
	H380	H	0.357982	0.328482	0.685894
	O381	O	0.367696	0.546406	0.569216
	H382	H	0.382622	0.561956	0.576689
	H383	H	0.364699	0.541106	0.570016
	O384	O	0.372187	1.491686	-0.393942
	H385	H	0.364967	1.497649	-0.378765
	H386	H	0.376269	1.499276	-0.388055
	O387	O	0.502197	0.643288	1.332516
	H388	H	0.496412	0.645349	1.312726
	H389	H	0.471288	0.648775	1.341556
	O390	O	0.685540	0.593559	-0.498322
	H391	H	0.691268	0.577616	-0.497510
	H392	H	0.669668	0.600942	-0.505680
	O393	O	0.607444	1.584100	-0.323518
	H394	H	0.612817	1.590837	-0.326229
	H395	H	0.603175	1.586573	-0.321277
	O396	O	0.528310	0.619180	0.634450
	H397	H	0.539332	0.610286	0.622358
	H398	H	0.534010	0.637185	0.618971
	O399	O	0.284843	0.296010	0.515384
	H400	H	0.255069	0.276039	0.528331
	H401	H	0.299923	0.301903	0.551734
	O402	O	0.941135	0.926824	1.040183
	H403	H	0.927390	0.924322	1.046239
	H404	H	0.947157	0.923252	1.041918
	O405	O	0.546216	0.414124	0.566030
	H406	H	0.540602	0.408739	0.551063
	H407	H	0.547849	0.410294	0.571031
