data_Molecule from HDF5

_cell_length_a		16.320034
_cell_length_b		16.427131
_cell_length_c		16.446867
_cell_angle_alpha	90.051400
_cell_angle_beta	89.959675
_cell_angle_gamma	90.139775
_symmetry_space_group_name_H-M	'P 1'
_symmetry_Int_Tables_number		1

loop_
	_symmetry_equiv_pos_as_xyz
	x,y,z

loop_
	_atom_site_label
	_atom_site_type_symbol
	_atom_site_fract_x
	_atom_site_fract_y
	_atom_site_fract_z
	H0	H	0.394068	0.852238	0.714061
	H1	H	0.605598	0.170047	0.711290
	H2	H	0.605388	0.851705	0.269735
	H3	H	0.396885	0.169292	0.269493
	H4	H	0.719621	0.408699	0.829491
	H5	H	0.721339	0.612393	0.148606
	H6	H	0.281941	0.614836	0.830233
	H7	H	0.279764	0.403448	0.147072
	H8	H	0.840922	0.725825	0.387926
	H9	H	0.161282	0.732324	0.596259
	H10	H	0.841025	0.291166	0.594197
	H11	H	0.160741	0.288202	0.386165
	H12	H	0.842412	0.405366	0.711000
	H13	H	0.162163	0.615362	0.710950
	H14	H	0.841545	0.609893	0.271442
	H15	H	0.159523	0.400203	0.266804
	H16	H	0.395507	0.732253	0.831345
	H17	H	0.604308	0.728833	0.149836
	H18	H	0.610073	0.287208	0.832541
	H19	H	0.396445	0.288044	0.147538
	H20	H	0.718687	0.850106	0.389143
	H21	H	0.721791	0.169607	0.595238
	H22	H	0.279441	0.850307	0.595646
	H23	H	0.281556	0.170369	0.388512
	H24	H	0.895802	0.349827	0.209900
	H25	H	0.108401	0.666330	0.213695
	H26	H	0.109100	0.351379	0.767607
	H27	H	0.899820	0.669020	0.770489
	H28	H	0.222499	0.904474	0.332235
	H29	H	0.220362	0.114234	0.649637
	H30	H	0.784199	0.110036	0.329764
	H31	H	0.781734	0.906384	0.650471
	H32	H	0.343457	0.233305	0.883734
	H33	H	0.661490	0.232176	0.097019
	H34	H	0.342269	0.788333	0.097958
	H35	H	0.662140	0.794392	0.888995
	H36	H	0.342233	0.905444	0.211819
	H37	H	0.661320	0.115657	0.211638
	H38	H	0.342078	0.117234	0.769783
	H39	H	0.660168	0.906775	0.769622
	H40	H	0.893776	0.231428	0.331793
	H41	H	0.105315	0.230007	0.648855
	H42	H	0.105547	0.788760	0.331900
	H43	H	0.895638	0.787350	0.649118
	H44	H	0.224614	0.351057	0.883921
	H45	H	0.223010	0.668684	0.094902
	H46	H	0.780260	0.350399	0.093436
	H47	H	0.785197	0.670451	0.888463
	H48	H	0.409194	0.123098	0.578305
	H49	H	0.587394	0.897890	0.578960
	H50	H	0.587339	0.123111	0.399622
	H51	H	0.414803	0.896996	0.397079
	H52	H	0.597131	0.417294	0.106328
	H53	H	0.597610	0.596906	0.875543
	H54	H	0.409815	0.600291	0.103855
	H55	H	0.424716	0.417125	0.878960
	H56	H	0.115503	0.598994	0.403548
	H57	H	0.890749	0.594425	0.575521
	H58	H	0.116597	0.416149	0.577189
	H59	H	0.889358	0.423394	0.400964
	H60	H	0.114919	0.422763	0.576874
	H61	H	0.887421	0.594923	0.585528
	H62	H	0.114765	0.595371	0.401695
	H63	H	0.885133	0.418134	0.396693
	H64	H	0.413930	0.595962	0.100548
	H65	H	0.585520	0.602694	0.877639
	H66	H	0.592523	0.429102	0.100566
	H67	H	0.407838	0.417467	0.872798
	H68	H	0.593382	0.123465	0.404761
	H69	H	0.591892	0.896645	0.580238
	H70	H	0.410552	0.124672	0.582868
	H71	H	0.413694	0.899575	0.405327
	H72	H	0.908931	0.624355	0.081585
	H73	H	0.088982	0.397635	0.078435
	H74	H	0.085954	0.620687	0.901389
	H75	H	0.914348	0.398412	0.903958
	H76	H	0.092587	0.920727	0.604958
	H77	H	0.090958	0.098932	0.376678
	H78	H	0.910129	0.105775	0.605933
	H79	H	0.911421	0.919080	0.377921
	H80	H	0.610910	0.093380	0.907106
	H81	H	0.388799	0.102920	0.074053
	H82	H	0.616039	0.922070	0.082138
	H83	H	0.388113	0.926753	0.901371
	H84	H	0.617764	0.918144	0.082890
	H85	H	0.390423	0.092937	0.079295
	H86	H	0.616748	0.096812	0.894068
	H87	H	0.384798	0.918612	0.900491
	H88	H	0.907535	0.095893	0.603053
	H89	H	0.089961	0.097843	0.378254
	H90	H	0.086536	0.923685	0.601509
	H91	H	0.910927	0.915416	0.376306
	H92	H	0.094128	0.622391	0.905157
	H93	H	0.091001	0.397306	0.075969
	H94	H	0.916230	0.622954	0.084248
	H95	H	0.905070	0.393707	0.899129
	H96	H	0.413530	0.121834	0.579845
	H97	H	0.588132	0.897114	0.583611
	H98	H	0.593897	0.126220	0.397263
	H99	H	0.407111	0.896084	0.400832
	H100	H	0.583640	0.417854	0.102215
	H101	H	0.595853	0.610398	0.871913
	H102	H	0.416063	0.602218	0.102639
	H103	H	0.414877	0.431690	0.880599
	H104	H	0.116706	0.598417	0.400013
	H105	H	0.887110	0.603406	0.579827
	H106	H	0.117945	0.420834	0.582424
	H107	H	0.887342	0.416450	0.404094
	H108	H	0.914002	0.620287	0.077051
	H109	H	0.091780	0.394969	0.078184
	H110	H	0.092578	0.624542	0.896525
	H111	H	0.914549	0.394376	0.893503
	H112	H	0.086392	0.916839	0.604096
	H113	H	0.089032	0.099409	0.377090
	H114	H	0.916810	0.098918	0.601121
	H115	H	0.908187	0.918326	0.376313
	H116	H	0.617035	0.106387	0.905086
	H117	H	0.385455	0.101602	0.084987
	H118	H	0.615196	0.918775	0.079350
	H119	H	0.388148	0.920831	0.907632
	C120	C	0.378498	0.018411	0.612939
	C121	C	0.621707	1.002339	0.612348
	C122	C	0.622640	0.019019	0.369353
	C123	C	0.379888	1.002513	0.369536
	C124	C	0.623668	0.389002	-0.001498
	C125	C	0.623809	0.633104	0.980940
	C126	C	0.380297	0.632365	-0.002114
	C127	C	0.381604	0.388371	0.981264
	C128	C	0.009982	0.628676	0.369928
	C129	C	0.994103	0.630568	0.611940
	C130	C	0.010441	0.388906	0.610812
	C131	C	0.992215	0.386580	0.368560
	C132	C	0.880313	0.517390	0.111634
	C133	C	0.123771	0.500648	0.110993
	C134	C	0.123907	0.517786	0.868472
	C135	C	0.880623	0.501221	0.868139
	C136	C	0.121298	0.888494	0.498769
	C137	C	0.121683	0.130915	0.481947
	C138	C	0.879481	0.131312	0.498373
	C139	C	0.878515	0.886688	0.482222
	C140	C	0.509970	0.131544	0.869788
	C141	C	0.493610	0.131398	0.111418
	C142	C	0.510648	0.888094	0.113184
	C143	C	0.492635	0.890962	0.870807
	C144	C	0.376171	0.899408	0.673369
	C145	C	0.624061	0.122080	0.671732
	C146	C	0.623784	0.899070	0.310058
	C147	C	0.378468	0.122092	0.309961
	C148	C	0.681510	0.388751	0.877932
	C149	C	0.681939	0.632306	0.101102
	C150	C	0.321165	0.633708	0.878297
	C151	C	0.320342	0.385637	0.099798
	C152	C	0.889137	0.686898	0.368724
	C153	C	0.113756	0.691725	0.614042
	C154	C	0.889337	0.330648	0.612723
	C155	C	0.112840	0.327476	0.367083
	C156	C	0.890133	0.387374	0.670917
	C157	C	0.114194	0.633424	0.671274
	C158	C	0.889359	0.629120	0.311024
	C159	C	0.112213	0.383281	0.307903
	C160	C	0.377586	0.692611	0.878996
	C161	C	0.623613	0.689928	0.101665
	C162	C	0.626951	0.328249	0.879592
	C163	C	0.378249	0.328013	0.100065
	C164	C	0.680283	0.898354	0.369233
	C165	C	0.681945	0.121833	0.613741
	C166	C	0.319039	0.898527	0.614427
	C167	C	0.321042	0.122476	0.368890
	C168	C	0.877693	0.397640	0.170246
	C169	C	0.126478	0.619234	0.172705
	C170	C	0.126883	0.398737	0.807644
	C171	C	0.880472	0.621257	0.809852
	C172	C	0.182360	0.886028	0.379659
	C173	C	0.180815	0.132695	0.601842
	C174	C	0.821663	0.130589	0.378213
	C175	C	0.820476	0.886810	0.602316
	C176	C	0.390726	0.192761	0.866330
	C177	C	0.613524	0.191915	0.114566
	C178	C	0.390407	0.828288	0.115647
	C179	C	0.613674	0.832884	0.869300
	C180	C	0.390202	0.886741	0.172460
	C181	C	0.613718	0.133875	0.171508
	C182	C	0.390097	0.134968	0.809381
	C183	C	0.612707	0.888853	0.810146
	C184	C	0.876853	0.190769	0.379148
	C185	C	0.123397	0.190233	0.601575
	C186	C	0.124403	0.828207	0.379445
	C187	C	0.876781	0.827314	0.601517
	C188	C	0.184432	0.398568	0.865563
	C189	C	0.183351	0.620527	0.113383
	C190	C	0.820153	0.397899	0.112092
	C191	C	0.823347	0.621978	0.868549
	C192	C	0.403914	0.101781	0.587660
	C193	C	0.596214	0.918934	0.587801
	C194	C	0.598429	0.102598	0.393608
	C195	C	0.404590	0.919136	0.394010
	C196	C	0.598542	0.414112	0.081417
	C197	C	0.599996	0.610005	0.896969
	C198	C	0.405974	0.606880	0.080704
	C199	C	0.408125	0.414517	0.898934
	C200	C	0.093814	0.604594	0.394486
	C201	C	0.910129	0.604977	0.587264
	C202	C	0.094607	0.412920	0.586079
	C203	C	0.908955	0.411895	0.393342
	C204	C	0.905782	0.600896	0.087885
	C205	C	0.097981	0.418211	0.085104
	C206	C	0.098321	0.600842	0.893914
	C207	C	0.904314	0.417474	0.892042
	C208	C	0.095786	0.913237	0.581465
	C209	C	0.097077	0.106005	0.398877
	C210	C	0.904428	0.107186	0.582028
	C211	C	0.903075	0.910510	0.398329
	C212	C	0.593353	0.106106	0.894948
	C213	C	0.409929	0.106210	0.086696
	C214	C	0.594660	0.912639	0.088560
	C215	C	0.408991	0.915293	0.895836
	Zn216	Zn	0.500425	0.010848	0.741592
	Zn217	Zn	0.501693	0.010925	0.239852
	Zn218	Zn	0.751933	0.510024	-0.010531
	Zn219	Zn	0.252461	0.509726	-0.011221
	Zn220	Zn	0.001001	0.758382	0.490609
	Zn221	Zn	0.000977	0.259804	0.490494
	Zn222	Zn	0.003127	0.509127	0.739750
	Zn223	Zn	0.001580	0.507635	0.240236
	Zn224	Zn	0.501282	0.761476	-0.009949
	Zn225	Zn	0.502773	0.259643	-0.009928
	Zn226	Zn	0.751140	0.009816	0.490996
	Zn227	Zn	0.250394	0.010093	0.490767
	N228	N	0.412106	0.975183	0.672592
	N229	N	0.587352	0.046750	0.671072
	N230	N	0.588766	0.975013	0.309912
	N231	N	0.414377	0.046529	0.310273
	N232	N	0.679690	0.425900	0.952829
	N233	N	0.682262	0.597653	0.025020
	N234	N	0.322575	0.597078	0.953311
	N235	N	0.322293	0.422479	0.024864
	N236	N	0.965095	0.686742	0.404621
	N237	N	0.037872	0.689823	0.577780
	N238	N	0.965094	0.331291	0.576160
	N239	N	0.037270	0.329387	0.404095
	N240	N	0.966408	0.423102	0.669694
	N241	N	0.038786	0.596092	0.669837
	N242	N	0.965616	0.593779	0.311359
	N243	N	0.036486	0.419393	0.308728
	N244	N	0.413717	0.691946	0.954604
	N245	N	0.588500	0.690718	0.025912
	N246	N	0.591586	0.328357	0.955409
	N247	N	0.415442	0.329506	0.025269
	N248	N	0.679636	0.973860	0.405395
	N249	N	0.680783	0.046234	0.577742
	N250	N	0.320457	0.973684	0.577605
	N251	N	0.321804	0.047076	0.405032
	N252	N	0.914411	0.472877	0.169948
	N253	N	0.090334	0.543606	0.171562
	N254	N	0.090197	0.473928	0.809289
	N255	N	0.915135	0.545040	0.809204
	N256	N	0.180864	0.922458	0.454883
	N257	N	0.179909	0.096383	0.526608
	N258	N	0.823172	0.094228	0.453445
	N259	N	0.821583	0.922933	0.526921
	N260	N	0.466195	0.190750	0.903172
	N261	N	0.537842	0.190564	0.077906
	N262	N	0.466333	0.829067	0.079532
	N263	N	0.538195	0.834068	0.906412
	N264	N	0.466071	0.922982	0.171344
	N265	N	0.537986	0.097085	0.169899
	N266	N	0.465294	0.097663	0.811407
	N267	N	0.536411	0.924148	0.810903
	N268	N	0.912112	0.191157	0.455019
	N269	N	0.087353	0.189363	0.526055
	N270	N	0.087223	0.829410	0.454330
	N271	N	0.911965	0.827013	0.525593
	N272	N	0.182770	0.473696	0.902414
	N273	N	0.182041	0.545664	0.075996
	N274	N	0.821556	0.473652	0.076447
	N275	N	0.823145	0.546228	0.903899
	O276	O	-0.182042	1.146068	-0.195148
	H277	H	-0.191194	1.146499	-0.172066
	H278	H	-0.144853	1.165025	-0.200071
	O279	O	0.453555	0.536574	0.546786
	H280	H	0.443880	0.528433	0.540244
	H281	H	0.440943	0.537529	0.546617
	O282	O	-0.073415	-0.132297	-0.158092
	H283	H	-0.090434	-0.121771	-0.150317
	H284	H	-0.073792	-0.134400	-0.168839
	O285	O	0.980741	1.085944	0.076468
	H286	H	0.969000	1.082580	0.065906
	H287	H	0.980165	1.092831	0.078629
	O288	O	0.478357	0.716579	0.294055
	H289	H	0.477416	0.745731	0.279136
	H290	H	0.497434	0.707161	0.319505
	O291	O	0.459990	0.333898	0.362522
	H292	H	0.456928	0.322939	0.353313
	H293	H	0.440031	0.356380	0.351584
	O294	O	1.081437	1.070584	0.815649
	H295	H	1.107183	1.063041	0.810638
	H296	H	1.071138	1.077809	0.810922
	O297	O	0.489476	0.316585	0.602458
	H298	H	0.489143	0.313405	0.611024
	H299	H	0.471563	0.317900	0.593455
	O300	O	0.451185	0.306149	0.512102
	H301	H	0.456389	0.309552	0.500285
	H302	H	0.449269	0.296970	0.520624
	O303	O	0.897592	0.110372	1.151746
	H304	H	0.888391	0.105762	1.163767
	H305	H	0.903189	0.095302	1.146035
	O306	O	0.150911	0.216483	1.102392
	H307	H	0.152792	0.213782	1.108574
	H308	H	0.168715	0.227107	1.105764
	O309	O	0.668069	-0.691180	0.474046
	H310	H	0.676922	-0.700825	0.459038
	H311	H	0.656759	-0.691410	0.479051
	O312	O	0.340727	0.662927	0.487425
	H313	H	0.333351	0.677033	0.493545
	H314	H	0.363887	0.660416	0.492632
	O315	O	0.449636	0.500894	0.479077
	H316	H	0.444610	0.508222	0.477986
	H317	H	0.443911	0.491029	0.477972
	O318	O	-0.007213	0.146569	0.054590
	H319	H	0.001630	0.148551	0.057195
	H320	H	-0.017744	0.146666	0.062253
	O321	O	0.662540	0.534458	0.682710
	H322	H	0.648883	0.520584	0.666914
	H323	H	0.669680	0.513642	0.692397
	O324	O	0.973513	0.099648	0.877911
	H325	H	0.954758	0.099682	0.867530
	H326	H	0.987449	0.134329	0.887549
	O327	O	1.006118	-0.175341	1.161853
	H328	H	1.011410	-0.179642	1.166668
	H329	H	1.017651	-0.166775	1.142901
	O330	O	0.056260	0.896248	0.903602
	H331	H	0.044917	0.899630	0.881477
	H332	H	0.051950	0.927907	0.905084
	O333	O	-0.080552	1.035860	0.006468
	H334	H	-0.081918	1.043338	0.005670
	H335	H	-0.078396	1.041656	0.003913
	O336	O	0.913610	0.992207	0.193105
	H337	H	0.906971	0.979442	0.201849
	H338	H	0.904523	1.000563	0.190622
	O339	O	-0.199555	1.192260	0.978816
	H340	H	-0.221798	1.202188	0.975190
	H341	H	-0.194325	1.179213	0.983362
	O342	O	0.428990	0.405490	0.486490
	H343	H	0.420318	0.403721	0.480327
	H344	H	0.412153	0.407091	0.483499
	O345	O	0.047334	0.036339	1.074141
	H346	H	0.042339	0.042583	1.063598
	H347	H	0.042422	0.040141	1.083378
	O348	O	0.396095	0.701753	0.494863
	H349	H	0.398837	0.695831	0.507169
	H350	H	0.400843	0.701420	0.497631
	O351	O	1.074429	0.843259	0.014646
	H352	H	1.079797	0.852066	0.008080
	H353	H	1.054268	0.844688	0.005004
	O354	O	0.842326	0.806295	1.168625
	H355	H	0.848190	0.792307	1.192678
	H356	H	0.864564	0.797132	1.185278
	O357	O	-0.322345	-0.314071	0.301344
	H358	H	-0.332523	-0.336408	0.312150
	H359	H	-0.333173	-0.315527	0.321122
	O360	O	0.316314	0.690235	0.310027
	H361	H	0.349433	0.701693	0.296658
	H362	H	0.314290	0.701956	0.343742
	O363	O	1.073546	0.110316	-0.045937
	H364	H	1.078705	0.092829	-0.052068
	H365	H	1.066859	0.104466	-0.056419
	O366	O	-0.545674	-0.648858	1.605854
	H367	H	-0.543658	-0.653351	1.565682
	H368	H	-0.566083	-0.635894	1.610265
	O369	O	1.208561	0.073189	1.199115
	H370	H	1.215545	0.081976	1.217245
	H371	H	1.209924	0.065993	1.210254
	O372	O	0.518918	0.649666	0.668269
	H373	H	0.512313	0.657954	0.670375
	H374	H	0.524057	0.639444	0.681150
	O375	O	-0.117416	-0.019666	0.901655
	H376	H	-0.107034	-0.022294	0.897204
	H377	H	-0.138259	-0.016264	0.897333
	O378	O	0.323438	0.479717	0.666781
	H379	H	0.326653	0.472194	0.660917
	H380	H	0.317317	0.486499	0.679118
	O381	O	0.319962	0.332933	0.455702
	H382	H	0.324551	0.339783	0.445496
	H383	H	0.324291	0.334866	0.456503
	O384	O	0.566784	0.486002	0.568712
	H385	H	0.569857	0.496781	0.562140
	H386	H	0.556375	0.487709	0.560974
	O387	O	0.484372	0.499257	0.294228
	H388	H	0.476845	0.497088	0.294793
	H389	H	0.475155	0.509845	0.285384
	O390	O	1.027430	1.015764	0.092240
	H391	H	1.011683	0.998612	0.086813
	H392	H	1.022245	1.010919	0.090827
	O393	O	0.807654	-0.184569	1.028168
	H394	H	0.788984	-0.196820	1.035277
	H395	H	0.818480	-0.188602	1.059915
	O396	O	0.458373	0.546298	0.565054
	H397	H	0.473515	0.537752	0.575315
	H398	H	0.454251	0.546534	0.553459
	O399	O	0.557405	0.544997	0.570919
	H400	H	0.548836	0.537624	0.578062
	H401	H	0.552345	0.546522	0.566974
	O402	O	1.167673	0.947102	-0.214925
	H403	H	1.165004	0.925524	-0.232370
	H404	H	1.173507	0.926601	-0.220909
	O405	O	0.285223	0.531549	0.274522
	H406	H	0.251203	0.540857	0.242867
	H407	H	0.291609	0.569659	0.289624
	O408	O	0.637570	0.527099	0.586903
	H409	H	0.650011	0.524428	0.599673
	H410	H	0.640525	0.504133	0.583703
	O411	O	1.105186	0.971703	1.026901
	H412	H	1.093082	0.963325	1.043637
	H413	H	1.115740	0.979847	1.012101
	O414	O	0.700590	0.711125	0.513783
	H415	H	0.711766	0.711966	0.525760
	H416	H	0.708931	0.716497	0.539473
	O417	O	0.107021	0.821893	0.839468
	H418	H	0.063760	0.822061	0.829082
	H419	H	0.104657	0.809377	0.869858
	O420	O	-0.089298	0.928299	0.859958
	H421	H	-0.110005	0.925559	0.881785
	H422	H	-0.085766	0.955793	0.843375
	O423	O	-0.052289	1.203829	-0.156167
	H424	H	-0.037586	1.208614	-0.146936
	H425	H	-0.038080	1.204753	-0.142882
	O426	O	0.574702	0.667233	0.627625
	H427	H	0.570219	0.673638	0.634570
	H428	H	0.573669	0.637380	0.630830
	O429	O	0.629983	0.509982	0.375111
	H430	H	0.641457	0.494019	0.382161
	H431	H	0.623779	0.499533	0.372306
	O432	O	1.205266	-0.149299	-0.029148
	H433	H	1.221375	-0.152642	-0.027811
	H434	H	1.199859	-0.159918	-0.021003
	O435	O	0.164954	0.168435	0.033196
	H436	H	0.152468	0.167346	0.036118
	H437	H	0.170156	0.146773	0.033915
	O438	O	-0.387934	1.641615	1.412974
	H439	H	-0.390085	1.650080	1.429638
	H440	H	-0.383524	1.636269	1.427708
	O441	O	0.670516	0.340211	0.345287
	H442	H	0.651048	0.338814	0.365735
	H443	H	0.668143	0.334743	0.339038
