data_Molecule from HDF5

_cell_length_a		16.257831
_cell_length_b		16.315690
_cell_length_c		16.235542
_cell_angle_alpha	90.111619
_cell_angle_beta	90.010051
_cell_angle_gamma	89.939036
_symmetry_space_group_name_H-M	'P 1'
_symmetry_Int_Tables_number		1

loop_
	_symmetry_equiv_pos_as_xyz
	x,y,z

loop_
	_atom_site_label
	_atom_site_type_symbol
	_atom_site_fract_x
	_atom_site_fract_y
	_atom_site_fract_z
	H0	H	0.391207	0.839392	0.705925
	H1	H	0.588563	0.166146	0.705208
	H2	H	0.588347	0.839586	0.275721
	H3	H	0.390937	0.166453	0.277732
	H4	H	0.707761	0.401933	0.830020
	H5	H	0.705320	0.602174	0.156875
	H6	H	0.276595	0.601182	0.828592
	H7	H	0.278038	0.405407	0.157838
	H8	H	0.826438	0.717164	0.393335
	H9	H	0.153389	0.719095	0.592669
	H10	H	0.825916	0.288454	0.592387
	H11	H	0.153786	0.286271	0.393866
	H12	H	0.826926	0.405401	0.708032
	H13	H	0.154876	0.601641	0.706757
	H14	H	0.826990	0.600948	0.277566
	H15	H	0.155357	0.404447	0.279746
	H16	H	0.391531	0.716803	0.827976
	H17	H	0.590270	0.718973	0.155728
	H18	H	0.591323	0.288477	0.828574
	H19	H	0.390640	0.285787	0.155177
	H20	H	0.705642	0.838289	0.390965
	H21	H	0.704260	0.165744	0.590620
	H22	H	0.275300	0.839274	0.589780
	H23	H	0.273815	0.165370	0.392540
	H24	H	0.893873	0.338904	0.207125
	H25	H	0.090250	0.665433	0.209754
	H26	H	0.091075	0.339785	0.777871
	H27	H	0.892577	0.666088	0.779244
	H28	H	0.203482	0.902495	0.327653
	H29	H	0.204218	0.100476	0.656661
	H30	H	0.776687	0.099494	0.327904
	H31	H	0.776775	0.905740	0.657281
	H32	H	0.327968	0.219056	0.890919
	H33	H	0.654990	0.217735	0.090793
	H34	H	0.326946	0.788770	0.089035
	H35	H	0.654495	0.786736	0.891765
	H36	H	0.326135	0.905789	0.203896
	H37	H	0.654723	0.100438	0.205863
	H38	H	0.327223	0.100892	0.777197
	H39	H	0.655022	0.905444	0.776823
	H40	H	0.890942	0.217758	0.328379
	H41	H	0.088948	0.217854	0.656540
	H42	H	0.087999	0.786556	0.328810
	H43	H	0.890651	0.787519	0.656683
	H44	H	0.206989	0.340277	0.893234
	H45	H	0.205917	0.666235	0.094084
	H46	H	0.775014	0.339701	0.094050
	H47	H	0.776548	0.665790	0.895850
	H48	H	0.398429	0.116813	0.580261
	H49	H	0.581940	0.885753	0.586284
	H50	H	0.582622	0.118406	0.396502
	H51	H	0.397203	0.886165	0.393221
	H52	H	0.580111	0.412557	0.108051
	H53	H	0.587255	0.596423	0.873982
	H54	H	0.388200	0.591115	0.110413
	H55	H	0.410154	0.407939	0.879465
	H56	H	0.101764	0.588117	0.412912
	H57	H	0.872363	0.597596	0.588771
	H58	H	0.103732	0.411905	0.577646
	H59	H	0.876637	0.409031	0.408964
	H60	H	0.107844	0.413673	0.592258
	H61	H	0.874016	0.596961	0.583447
	H62	H	0.108754	0.588513	0.388563
	H63	H	0.874220	0.417945	0.395467
	H64	H	0.408103	0.591549	0.104550
	H65	H	0.584232	0.589979	0.876789
	H66	H	0.581411	0.406742	0.110024
	H67	H	0.389550	0.402491	0.871732
	H68	H	0.582093	0.117196	0.401673
	H69	H	0.581472	0.887542	0.582029
	H70	H	0.393046	0.120245	0.583985
	H71	H	0.400632	0.887888	0.399462
	H72	H	0.900568	0.615906	0.080629
	H73	H	0.085466	0.385820	0.087669
	H74	H	0.080265	0.620876	0.892358
	H75	H	0.898966	0.385539	0.897071
	H76	H	0.092643	0.916118	0.609973
	H77	H	0.081127	0.098875	0.375185
	H78	H	0.892131	0.098122	0.611014
	H79	H	0.894173	0.908610	0.374566
	H80	H	0.606630	0.099303	0.906564
	H81	H	0.374509	0.101648	0.079670
	H82	H	0.610067	0.915749	0.096727
	H83	H	0.373637	0.907410	0.896228
	H84	H	0.610217	0.896081	0.080970
	H85	H	0.376865	0.090982	0.080466
	H86	H	0.605857	0.088293	0.895861
	H87	H	0.374549	0.908332	0.901022
	H88	H	0.896606	0.092480	0.608451
	H89	H	0.085657	0.093884	0.375808
	H90	H	0.073696	0.915478	0.604347
	H91	H	0.898312	0.910546	0.376582
	H92	H	0.080683	0.616883	0.906157
	H93	H	0.083666	0.386896	0.085931
	H94	H	0.892041	0.620365	0.086295
	H95	H	0.903332	0.388546	0.901872
	H96	H	0.398996	0.118754	0.587338
	H97	H	0.585863	0.885350	0.583538
	H98	H	0.586476	0.118974	0.399912
	H99	H	0.394372	0.885412	0.399937
	H100	H	0.586319	0.410904	0.110299
	H101	H	0.579412	0.596450	0.876775
	H102	H	0.399068	0.608264	0.112842
	H103	H	0.394319	0.423907	0.878373
	H104	H	0.110478	0.609498	0.402487
	H105	H	0.874190	0.592674	0.587190
	H106	H	0.109278	0.400220	0.585606
	H107	H	0.870685	0.402366	0.395243
	H108	H	0.901657	0.619301	0.091291
	H109	H	0.086124	0.386420	0.084637
	H110	H	0.092200	0.620857	0.900054
	H111	H	0.896441	0.385799	0.903599
	H112	H	0.082086	0.899629	0.612271
	H113	H	0.078697	0.092603	0.377602
	H114	H	0.899891	0.099444	0.609609
	H115	H	0.898103	0.905836	0.375487
	H116	H	0.612228	0.101969	0.892552
	H117	H	0.372936	0.095851	0.089265
	H118	H	0.602340	0.918575	0.073139
	H119	H	0.374294	0.911745	0.897468
	C120	C	0.368367	0.011058	0.612566
	C121	C	0.611614	0.994268	0.612574
	C122	C	0.612500	0.010367	0.369680
	C123	C	0.368288	0.994321	0.369450
	C124	C	0.612148	0.381489	0.001090
	C125	C	0.612036	0.623393	0.984337
	C126	C	0.369496	0.625018	0.001030
	C127	C	0.369374	0.382065	0.984693
	C128	C	-0.001275	0.623697	0.372039
	C129	C	0.982042	0.624566	0.614882
	C130	C	-0.001366	0.380743	0.614315
	C131	C	0.982214	0.380929	0.371419
	C132	C	0.869368	0.511020	0.115085
	C133	C	0.113000	0.494388	0.115025
	C134	C	0.113125	0.511566	0.870946
	C135	C	0.869929	0.494457	0.871815
	C136	C	0.110946	0.880927	0.500427
	C137	C	0.111194	0.124068	0.484161
	C138	C	0.867780	0.124635	0.501101
	C139	C	0.868618	0.880793	0.484121
	C140	C	0.499732	0.124750	0.869638
	C141	C	0.482633	0.124828	0.112680
	C142	C	0.499130	0.881849	0.112132
	C143	C	0.482496	0.880765	0.869350
	C144	C	0.370886	0.888181	0.668200
	C145	C	0.608769	0.117368	0.667509
	C146	C	0.609296	0.887931	0.313823
	C147	C	0.370464	0.117479	0.314985
	C148	C	0.669041	0.382676	0.878541
	C149	C	0.667097	0.622061	0.107837
	C150	C	0.314213	0.621798	0.877606
	C151	C	0.315014	0.384524	0.108260
	C152	C	0.875359	0.678960	0.373428
	C153	C	0.104800	0.680642	0.612803
	C154	C	0.875087	0.326276	0.612469
	C155	C	0.105176	0.324703	0.373548
	C156	C	0.875686	0.384264	0.669882
	C157	C	0.105653	0.621980	0.669425
	C158	C	0.875497	0.621180	0.316122
	C159	C	0.106015	0.383596	0.317089
	C160	C	0.371529	0.679107	0.877085
	C161	C	0.610358	0.680617	0.106810
	C162	C	0.611139	0.326173	0.877669
	C163	C	0.371291	0.325237	0.107091
	C164	C	0.667382	0.887414	0.371596
	C165	C	0.666365	0.117193	0.610482
	C166	C	0.313401	0.887889	0.610329
	C167	C	0.312166	0.116808	0.372154
	C168	C	0.872492	0.387778	0.169810
	C169	C	0.110647	0.616973	0.171211
	C170	C	0.111101	0.388869	0.815368
	C171	C	0.872090	0.617267	0.817145
	C172	C	0.165631	0.882557	0.376874
	C173	C	0.166642	0.121380	0.607497
	C174	C	0.813590	0.121059	0.377155
	C175	C	0.813669	0.883930	0.607905
	C176	C	0.376758	0.180910	0.870969
	C177	C	0.606023	0.179622	0.110918
	C178	C	0.375617	0.826865	0.109464
	C179	C	0.605668	0.825197	0.871239
	C180	C	0.375185	0.884668	0.166728
	C181	C	0.605836	0.121727	0.168360
	C182	C	0.376166	0.121814	0.814906
	C183	C	0.605998	0.883963	0.814328
	C184	C	0.870433	0.179514	0.377308
	C185	C	0.109086	0.179087	0.607774
	C186	C	0.108414	0.824694	0.377490
	C187	C	0.870492	0.825684	0.607817
	C188	C	0.168634	0.388777	0.873098
	C189	C	0.167633	0.617547	0.113369
	C190	C	0.813728	0.388164	0.113296
	C191	C	0.814468	0.617079	0.875121
	C192	C	0.390413	0.096485	0.590456
	C193	C	0.589570	0.908346	0.590531
	C194	C	0.590250	0.096252	0.392715
	C195	C	0.390759	0.908602	0.391025
	C196	C	0.589197	0.403567	0.087213
	C197	C	0.590039	0.600879	0.898138
	C198	C	0.391926	0.603462	0.087052
	C199	C	0.391605	0.404709	0.898743
	C200	C	0.084642	0.601853	0.394582
	C201	C	0.895868	0.602281	0.592799
	C202	C	0.084608	0.402098	0.591805
	C203	C	0.896253	0.403304	0.393403
	C204	C	0.891630	0.596420	0.092719
	C205	C	0.091476	0.408618	0.092653
	C206	C	0.090811	0.597416	0.892940
	C207	C	0.892772	0.408922	0.894232
	C208	C	0.089046	0.903649	0.586734
	C209	C	0.088413	0.101658	0.398369
	C210	C	0.889723	0.103130	0.587262
	C211	C	0.890408	0.902157	0.397814
	C212	C	0.585874	0.103031	0.891847
	C213	C	0.396945	0.102607	0.089992
	C214	C	0.585153	0.903788	0.090021
	C215	C	0.396532	0.902796	0.891717
	Zn216	Zn	0.490438	0.002974	0.741349
	Zn217	Zn	0.489882	0.003105	0.240892
	Zn218	Zn	0.740605	0.502054	-0.006153
	Zn219	Zn	0.241061	0.503644	-0.006822
	Zn220	Zn	-0.010421	0.752402	0.492983
	Zn221	Zn	-0.010443	0.252347	0.492941
	Zn222	Zn	-0.008815	0.502661	0.742716
	Zn223	Zn	-0.008644	0.502514	0.243343
	Zn224	Zn	0.490886	0.752554	-0.008588
	Zn225	Zn	0.491633	0.253457	-0.008683
	Zn226	Zn	0.740584	0.001953	0.492586
	Zn227	Zn	0.239561	0.002077	0.491431
	N228	N	0.404357	0.965670	0.669898
	N229	N	0.575227	0.040030	0.669020
	N230	N	0.575755	0.965391	0.312673
	N231	N	0.404690	0.040280	0.313115
	N232	N	0.669765	0.416367	0.956293
	N233	N	0.668278	0.587381	0.030644
	N234	N	0.312799	0.588862	0.955644
	N235	N	0.313648	0.418941	0.031057
	N236	N	0.952778	0.680451	0.407610
	N237	N	0.026969	0.682148	0.579419
	N238	N	0.952643	0.323965	0.578678
	N239	N	0.027248	0.323137	0.406710
	N240	N	0.953470	0.417510	0.671075
	N241	N	0.028304	0.587901	0.670702
	N242	N	0.953119	0.587413	0.315033
	N243	N	0.028696	0.417907	0.315581
	N244	N	0.405345	0.681244	0.954588
	N245	N	0.576671	0.681433	0.028930
	N246	N	0.576396	0.325318	0.954965
	N247	N	0.404376	0.323326	0.028909
	N248	N	0.669464	0.964872	0.405405
	N249	N	0.668392	0.039653	0.577308
	N250	N	0.311672	0.965073	0.576555
	N251	N	0.310615	0.039173	0.405040
	N252	N	0.906537	0.464841	0.170966
	N253	N	0.077107	0.539626	0.172087
	N254	N	0.077217	0.466199	0.814084
	N255	N	0.906023	0.540071	0.815168
	N256	N	0.167423	0.916797	0.454368
	N257	N	0.167770	0.087600	0.529601
	N258	N	0.811908	0.087651	0.455027
	N259	N	0.812605	0.917557	0.530285
	N260	N	0.454597	0.182920	0.904329
	N261	N	0.528446	0.181801	0.077192
	N262	N	0.453504	0.824851	0.076422
	N263	N	0.527883	0.823089	0.904452
	N264	N	0.452957	0.918147	0.168572
	N265	N	0.528006	0.088606	0.169631
	N266	N	0.453494	0.087881	0.813827
	N267	N	0.528416	0.917785	0.812948
	N268	N	0.903349	0.181911	0.455179
	N269	N	0.075333	0.180862	0.530154
	N270	N	0.075048	0.823902	0.455389
	N271	N	0.903990	0.823612	0.529948
	N272	N	0.170077	0.466080	0.906863
	N273	N	0.169508	0.540149	0.079392
	N274	N	0.811482	0.465844	0.080301
	N275	N	0.813011	0.539587	0.908443
	O276	O	0.492929	0.512554	0.516076
	H277	H	0.490081	0.523040	0.510459
	H278	H	0.485127	0.518864	0.509294
	O279	O	0.475750	0.551226	0.561659
	H280	H	0.480936	0.549608	0.563245
	H281	H	0.473333	0.545212	0.569231
	O282	O	0.475199	0.551553	0.481140
	H283	H	0.473308	0.536122	0.490966
	H284	H	0.479267	0.544988	0.481560
	O285	O	0.086355	1.018342	1.015407
	H286	H	0.084727	1.017169	1.015493
	H287	H	0.092241	1.017741	1.014898
	O288	O	0.481665	0.519889	0.408582
	H289	H	0.482651	0.517973	0.396214
	H290	H	0.488703	0.525342	0.422491
	O291	O	0.413985	0.504288	1.548253
	H292	H	0.406284	0.499206	1.555056
	H293	H	0.419390	0.509203	1.545036
	O294	O	0.468115	0.512106	0.490042
	H295	H	0.462196	0.507105	0.496520
	H296	H	0.457155	0.516375	0.486407
	O297	O	0.567035	0.454719	0.427338
	H298	H	0.584169	0.443603	0.425432
	H299	H	0.562176	0.458450	0.434433
	O300	O	0.504975	0.436428	0.496677
	H301	H	0.506608	0.436440	0.496831
	H302	H	0.515718	0.431024	0.494552
	O303	O	0.494057	0.423023	0.488128
	H304	H	0.500943	0.430755	0.494289
	H305	H	0.500708	0.427731	0.489048
	O306	O	1.057089	0.024003	0.980178
	H307	H	1.059242	0.028359	0.987388
	H308	H	1.063845	0.015056	0.979214
	O309	O	0.527196	0.507808	0.480113
	H310	H	0.515008	0.518774	0.470418
	H311	H	0.529524	0.504705	0.475452
	O312	O	0.500860	0.549381	0.483878
	H313	H	0.504838	0.544994	0.478028
	H314	H	0.505745	0.551131	0.488952
	O315	O	0.494111	0.550598	1.463859
	H316	H	0.496784	0.544961	1.457387
	H317	H	0.490785	0.545486	1.463584
	O318	O	0.495534	-0.454389	-0.473502
	H319	H	0.505450	-0.443090	-0.465736
	H320	H	0.498306	-0.459672	-0.468959
	O321	O	0.440446	0.495340	0.566648
	H322	H	0.434711	0.494012	0.568708
	H323	H	0.428079	0.492297	0.563137
	O324	O	1.509572	-0.507904	0.460858
	H325	H	1.503372	-0.513341	0.457621
	H326	H	1.510923	-0.508857	0.458134
	O327	O	1.035533	0.989534	0.013083
	H328	H	1.037391	0.988367	0.011273
	H329	H	1.032663	0.988625	0.011101
	O330	O	0.473269	0.442332	0.474727
	H331	H	0.473296	0.436498	0.462186
	H332	H	0.478393	0.448509	0.471351
	O333	O	0.498153	0.384973	0.538022
	H334	H	0.489057	0.379065	0.543884
	H335	H	0.495640	0.390547	0.541743
