data_Molecule from HDF5

_cell_length_a		16.191349
_cell_length_b		16.304640
_cell_length_c		16.319915
_cell_angle_alpha	90.296447
_cell_angle_beta	89.979458
_cell_angle_gamma	89.790659
_symmetry_space_group_name_H-M	'P 1'
_symmetry_Int_Tables_number		1

loop_
	_symmetry_equiv_pos_as_xyz
	x,y,z

loop_
	_atom_site_label
	_atom_site_type_symbol
	_atom_site_fract_x
	_atom_site_fract_y
	_atom_site_fract_z
	H0	H	0.389932	0.841836	0.716216
	H1	H	0.590551	0.167519	0.717957
	H2	H	0.590871	0.842548	0.282709
	H3	H	0.388339	0.168082	0.285992
	H4	H	0.702648	0.406998	0.837026
	H5	H	0.703242	0.603703	0.164815
	H6	H	0.274860	0.603044	0.836431
	H7	H	0.276199	0.410049	0.164373
	H8	H	0.824911	0.718551	0.402646
	H9	H	0.154324	0.719132	0.598697
	H10	H	0.825439	0.291203	0.599733
	H11	H	0.152859	0.288078	0.399548
	H12	H	0.824869	0.406794	0.714183
	H13	H	0.152843	0.605811	0.716988
	H14	H	0.824588	0.603185	0.286983
	H15	H	0.153433	0.405330	0.286272
	H16	H	0.389481	0.721774	0.837544
	H17	H	0.587002	0.720393	0.164852
	H18	H	0.591574	0.286793	0.839493
	H19	H	0.389950	0.291890	0.164022
	H20	H	0.703759	0.841027	0.401872
	H21	H	0.701744	0.169267	0.598911
	H22	H	0.275256	0.841456	0.598166
	H23	H	0.275285	0.168741	0.404141
	H24	H	0.890845	0.341607	0.214019
	H25	H	0.086736	0.667900	0.216243
	H26	H	0.090271	0.341911	0.782889
	H27	H	0.886371	0.667588	0.784851
	H28	H	0.205090	0.905408	0.336219
	H29	H	0.204177	0.105181	0.663589
	H30	H	0.775769	0.101270	0.336310
	H31	H	0.775711	0.907900	0.663869
	H32	H	0.325698	0.220045	0.902432
	H33	H	0.654530	0.218204	0.098458
	H34	H	0.325364	0.793653	0.100188
	H35	H	0.654748	0.790188	0.902973
	H36	H	0.325761	0.908919	0.213839
	H37	H	0.653986	0.104181	0.214940
	H38	H	0.325768	0.103403	0.786739
	H39	H	0.654896	0.903573	0.785436
	H40	H	0.890387	0.219149	0.337227
	H41	H	0.089069	0.221650	0.662028
	H42	H	0.089952	0.787616	0.337087
	H43	H	0.889888	0.790346	0.662630
	H44	H	0.204627	0.341416	0.901149
	H45	H	0.200504	0.669788	0.097441
	H46	H	0.776714	0.341287	0.096662
	H47	H	0.773703	0.668261	0.903797
	H48	H	0.393014	0.117715	0.579755
	H49	H	0.584941	0.887336	0.596386
	H50	H	0.579884	0.121972	0.403839
	H51	H	0.402316	0.890861	0.411173
	H52	H	0.577667	0.419313	0.114371
	H53	H	0.586664	0.599687	0.883269
	H54	H	0.394639	0.597178	0.114887
	H55	H	0.390753	0.413216	0.882999
	H56	H	0.107683	0.599640	0.408761
	H57	H	0.873841	0.598281	0.590466
	H58	H	0.104011	0.417862	0.588096
	H59	H	0.872113	0.412541	0.407587
	H60	H	0.107131	0.415232	0.596178
	H61	H	0.872180	0.597384	0.596192
	H62	H	0.104632	0.593640	0.410112
	H63	H	0.872186	0.412310	0.406490
	H64	H	0.398622	0.604332	0.116980
	H65	H	0.580027	0.591267	0.887447
	H66	H	0.579032	0.403805	0.119252
	H67	H	0.402147	0.418069	0.888080
	H68	H	0.579047	0.119971	0.410590
	H69	H	0.579755	0.889242	0.593253
	H70	H	0.387889	0.126522	0.604743
	H71	H	0.392456	0.887422	0.407337
	H72	H	0.903118	0.621936	0.104066
	H73	H	0.082930	0.386767	0.097253
	H74	H	0.074940	0.621418	0.900099
	H75	H	0.896837	0.388352	0.905929
	H76	H	0.082869	0.912714	0.615392
	H77	H	0.079382	0.092458	0.385873
	H78	H	0.895067	0.101325	0.617974
	H79	H	0.893480	0.916548	0.384342
	H80	H	0.608128	0.093824	0.905536
	H81	H	0.370434	0.104044	0.096854
	H82	H	0.605273	0.917033	0.089386
	H83	H	0.372447	0.908598	0.910215
	H84	H	0.608551	0.913788	0.098482
	H85	H	0.372911	0.099921	0.090017
	H86	H	0.607964	0.101374	0.907634
	H87	H	0.376386	0.918645	0.911491
	H88	H	0.894734	0.097285	0.616479
	H89	H	0.079464	0.101422	0.383109
	H90	H	0.082187	0.912643	0.615526
	H91	H	0.903147	0.910373	0.385150
	H92	H	0.076691	0.616674	0.916865
	H93	H	0.080723	0.389321	0.091360
	H94	H	0.901032	0.617428	0.084828
	H95	H	0.898124	0.388729	0.905886
	H96	H	0.412348	0.118106	0.598321
	H97	H	0.585294	0.888774	0.590081
	H98	H	0.585649	0.122650	0.407936
	H99	H	0.400549	0.887919	0.400189
	H100	H	0.592337	0.413587	0.120040
	H101	H	0.575558	0.602075	0.886246
	H102	H	0.390446	0.603177	0.119364
	H103	H	0.401570	0.405390	0.883530
	H104	H	0.106916	0.595162	0.404147
	H105	H	0.871014	0.603468	0.594039
	H106	H	0.106939	0.409114	0.589907
	H107	H	0.871048	0.411583	0.406754
	H108	H	0.885645	0.624855	0.095912
	H109	H	0.087000	0.387550	0.091616
	H110	H	0.089930	0.623690	0.907521
	H111	H	0.897500	0.389226	0.906572
	H112	H	0.082840	0.912766	0.615962
	H113	H	0.087748	0.096262	0.381877
	H114	H	0.897865	0.099216	0.615990
	H115	H	0.893201	0.905449	0.380630
	H116	H	0.604926	0.095523	0.912821
	H117	H	0.372066	0.096205	0.097764
	H118	H	0.608373	0.906883	0.090659
	H119	H	0.372288	0.915547	0.902480
	C120	C	0.368721	0.012862	0.622448
	C121	C	0.611329	0.996767	0.622155
	C122	C	0.611216	0.013422	0.378223
	C123	C	0.368366	0.996891	0.378798
	C124	C	0.611641	0.383476	0.009697
	C125	C	0.609760	0.626612	0.993349
	C126	C	0.366570	0.629044	0.008743
	C127	C	0.368992	0.384186	0.992605
	C128	C	-0.002285	0.625287	0.379502
	C129	C	0.980989	0.627583	0.622076
	C130	C	-0.002511	0.385167	0.620353
	C131	C	0.980482	0.383119	0.378583
	C132	C	0.868126	0.513453	0.122534
	C133	C	0.111325	0.496455	0.122191
	C134	C	0.110809	0.512924	0.878423
	C135	C	0.867428	0.496571	0.878477
	C136	C	0.111955	0.882825	0.508061
	C137	C	0.111268	0.126309	0.491471
	C138	C	0.867103	0.127102	0.508768
	C139	C	0.867817	0.883219	0.491212
	C140	C	0.498547	0.126058	0.879895
	C141	C	0.480914	0.127627	0.122715
	C142	C	0.498669	0.885118	0.121790
	C143	C	0.482084	0.884171	0.879423
	C144	C	0.370538	0.890273	0.677558
	C145	C	0.609270	0.119348	0.678427
	C146	C	0.610033	0.890819	0.322049
	C147	C	0.369285	0.119385	0.324119
	C148	C	0.666221	0.385989	0.886501
	C149	C	0.665420	0.624472	0.116212
	C150	C	0.312384	0.624742	0.885378
	C151	C	0.313963	0.388632	0.115445
	C152	C	0.874012	0.680577	0.382383
	C153	C	0.104859	0.682328	0.619815
	C154	C	0.874440	0.329252	0.619392
	C155	C	0.103966	0.326823	0.380194
	C156	C	0.874163	0.386807	0.676367
	C157	C	0.104018	0.625656	0.678390
	C158	C	0.874015	0.623643	0.324528
	C159	C	0.104067	0.384657	0.323407
	C160	C	0.369380	0.683630	0.885981
	C161	C	0.607668	0.682332	0.116267
	C162	C	0.610758	0.326309	0.887519
	C163	C	0.370697	0.329888	0.115422
	C164	C	0.666465	0.890255	0.380988
	C165	C	0.664604	0.120256	0.618964
	C166	C	0.313340	0.890210	0.618894
	C167	C	0.312774	0.119671	0.382627
	C168	C	0.870769	0.390170	0.176156
	C169	C	0.107645	0.619325	0.177875
	C170	C	0.110193	0.390645	0.821462
	C171	C	0.867832	0.618948	0.823454
	C172	C	0.167393	0.884807	0.385159
	C173	C	0.166340	0.124852	0.614406
	C174	C	0.812871	0.122978	0.385533
	C175	C	0.813225	0.887117	0.614863
	C176	C	0.374653	0.181696	0.881916
	C177	C	0.605082	0.181689	0.119843
	C178	C	0.374666	0.830948	0.119674
	C179	C	0.605660	0.827814	0.881993
	C180	C	0.374683	0.888584	0.176232
	C181	C	0.604716	0.125120	0.177823
	C182	C	0.374893	0.123979	0.824271
	C183	C	0.605599	0.883875	0.823623
	C184	C	0.870116	0.181056	0.385777
	C185	C	0.109331	0.182835	0.613693
	C186	C	0.110102	0.826395	0.385561
	C187	C	0.870090	0.828800	0.614327
	C188	C	0.166954	0.390294	0.880302
	C189	C	0.164263	0.620196	0.118880
	C190	C	0.814183	0.390108	0.117690
	C191	C	0.811761	0.619489	0.882543
	C192	C	0.391121	0.098600	0.600730
	C193	C	0.589740	0.910789	0.599859
	C194	C	0.588372	0.099331	0.400977
	C195	C	0.391669	0.910958	0.399999
	C196	C	0.589363	0.405681	0.095611
	C197	C	0.587262	0.604365	0.907759
	C198	C	0.388266	0.607899	0.094726
	C199	C	0.391719	0.405707	0.906836
	C200	C	0.084210	0.602918	0.401370
	C201	C	0.894617	0.606124	0.600069
	C202	C	0.083613	0.407706	0.597802
	C203	C	0.894107	0.405517	0.400632
	C204	C	0.890241	0.599349	0.101217
	C205	C	0.090095	0.410188	0.099802
	C206	C	0.087323	0.598500	0.901416
	C207	C	0.890527	0.410859	0.899753
	C208	C	0.089280	0.905918	0.593387
	C209	C	0.088884	0.103367	0.405766
	C210	C	0.889454	0.105623	0.594538
	C211	C	0.890015	0.904612	0.405534
	C212	C	0.584604	0.103547	0.902338
	C213	C	0.394302	0.106281	0.101201
	C214	C	0.585030	0.906323	0.099396
	C215	C	0.396085	0.907451	0.901538
	Zn216	Zn	0.491028	0.004568	0.751074
	Zn217	Zn	0.489783	0.005659	0.249952
	Zn218	Zn	0.739345	0.505079	0.001000
	Zn219	Zn	0.239354	0.505575	0.000092
	Zn220	Zn	-0.010365	0.754697	0.500058
	Zn221	Zn	-0.010892	0.255373	0.500107
	Zn222	Zn	-0.010947	0.505120	0.749697
	Zn223	Zn	-0.010998	0.504188	0.250719
	Zn224	Zn	0.489381	0.756895	0.000990
	Zn225	Zn	0.489832	0.255009	0.001344
	Zn226	Zn	0.739337	0.005309	0.500662
	Zn227	Zn	0.240021	0.005060	0.500017
	N228	N	0.403987	0.967727	0.680113
	N229	N	0.577013	0.041472	0.680565
	N230	N	0.576544	0.968485	0.320282
	N231	N	0.403279	0.041908	0.321662
	N232	N	0.666833	0.420675	0.963473
	N233	N	0.666559	0.590324	0.038977
	N234	N	0.310423	0.591805	0.962619
	N235	N	0.312846	0.421732	0.038050
	N236	N	0.952048	0.681843	0.415683
	N237	N	0.027328	0.683518	0.585451
	N238	N	0.952294	0.328025	0.585210
	N239	N	0.026128	0.325691	0.413804
	N240	N	0.951658	0.420718	0.677006
	N241	N	0.026072	0.592603	0.680049
	N242	N	0.951925	0.589663	0.322814
	N243	N	0.026306	0.418965	0.322421
	N244	N	0.402223	0.686428	0.963706
	N245	N	0.573885	0.683831	0.038926
	N246	N	0.577374	0.324807	0.964986
	N247	N	0.404490	0.327285	0.037982
	N248	N	0.667147	0.967606	0.415428
	N249	N	0.666168	0.042974	0.584775
	N250	N	0.312157	0.967416	0.585499
	N251	N	0.312244	0.042432	0.415910
	N252	N	0.903747	0.467741	0.178931
	N253	N	0.075845	0.541193	0.180255
	N254	N	0.075855	0.467940	0.820561
	N255	N	0.901950	0.541552	0.821042
	N256	N	0.168444	0.919362	0.462295
	N257	N	0.167705	0.090474	0.537154
	N258	N	0.810894	0.090253	0.462998
	N259	N	0.811313	0.920148	0.537390
	N260	N	0.452327	0.183003	0.915916
	N261	N	0.527072	0.183506	0.086357
	N262	N	0.452752	0.828659	0.086479
	N263	N	0.527967	0.827805	0.916127
	N264	N	0.452819	0.921342	0.177826
	N265	N	0.526543	0.092580	0.180051
	N266	N	0.452948	0.090170	0.822814
	N267	N	0.527782	0.918250	0.821948
	N268	N	0.902907	0.183899	0.463552
	N269	N	0.075840	0.183948	0.536338
	N270	N	0.076649	0.824978	0.463057
	N271	N	0.903271	0.826125	0.536746
	N272	N	0.167594	0.467496	0.914917
	N273	N	0.166475	0.542823	0.084893
	N274	N	0.812317	0.467778	0.085054
	N275	N	0.811714	0.542546	0.916481
	O276	O	0.500544	0.585784	0.527860
	H277	H	0.505643	0.581351	0.529487
	H278	H	0.496104	0.596485	0.527487
	O279	O	0.474557	0.394278	0.526095
	H280	H	0.476907	0.396369	0.527663
	H281	H	0.471149	0.399981	0.532543
	O282	O	0.491852	0.517455	0.540215
	H283	H	0.498775	0.516146	0.547592
	H284	H	0.495853	0.528955	0.526529
	O285	O	0.041347	0.950880	0.888811
	H286	H	0.042150	0.942815	0.891446
	H287	H	0.044461	0.949350	0.883365
	O288	O	0.555249	0.561678	0.572466
	H289	H	0.544716	0.565453	0.592250
	H290	H	0.549423	0.562356	0.578213
	O291	O	0.425686	0.454699	1.538344
	H292	H	0.424918	0.463001	1.529853
	H293	H	0.422230	0.448289	1.548897
	O294	O	0.485569	0.442321	0.538554
	H295	H	0.486655	0.452630	0.539368
	H296	H	0.475613	0.441538	0.538422
	O297	O	0.507250	0.530479	0.507960
	H298	H	0.504263	0.535301	0.500783
	H299	H	0.508149	0.521013	0.504543
	O300	O	0.469092	0.487547	0.474178
	H301	H	0.465374	0.481912	0.470742
	H302	H	0.478320	0.494532	0.474428
	O303	O	0.543922	0.460142	0.485944
	H304	H	0.542601	0.455416	0.484069
	H305	H	0.546584	0.463753	0.489019
	O306	O	1.023070	-0.082410	0.897940
	H307	H	1.026552	-0.090430	0.890173
	H308	H	1.029797	-0.081751	0.893035
	O309	O	0.395025	0.490124	0.450723
	H310	H	0.388535	0.498661	0.447213
	H311	H	0.392788	0.480550	0.451928
	O312	O	0.557244	0.595496	0.560527
	H313	H	0.551374	0.587744	0.550366
	H314	H	0.562374	0.592158	0.559606
	O315	O	1.060701	-0.070094	0.937378
	H316	H	1.059806	-0.082680	0.937699
	H317	H	1.062058	-0.068738	0.934925
	O318	O	0.535493	-0.529360	-0.535369
	H319	H	0.543616	-0.527369	-0.538707
	H320	H	0.533399	-0.527537	-0.534091
	O321	O	0.442069	0.526798	0.582825
	H322	H	0.444737	0.517296	0.585035
	H323	H	0.442861	0.537535	0.577301
	O324	O	1.100994	-0.128507	-0.126470
	H325	H	1.108389	-0.124316	-0.125385
	H326	H	1.102260	-0.133445	-0.130000
	O327	O	1.092109	0.903807	-0.126415
	H328	H	1.089141	0.912031	-0.121130
	H329	H	1.088337	0.906721	-0.130233
	O330	O	0.527548	0.501367	0.419330
	H331	H	0.532255	0.507116	0.428051
	H332	H	0.529903	0.489432	0.415884
	O333	O	0.412686	0.489354	0.521433
	H334	H	0.411942	0.486557	0.519174
	H335	H	0.409146	0.481895	0.521005
