data_Molecule from HDF5

_cell_length_a		16.297541
_cell_length_b		16.274873
_cell_length_c		16.305245
_cell_angle_alpha	89.929250
_cell_angle_beta	89.974602
_cell_angle_gamma	89.915626
_symmetry_space_group_name_H-M	'P 1'
_symmetry_Int_Tables_number		1

loop_
	_symmetry_equiv_pos_as_xyz
	x,y,z

loop_
	_atom_site_label
	_atom_site_type_symbol
	_atom_site_fract_x
	_atom_site_fract_y
	_atom_site_fract_z
	H0	H	0.404158	0.842904	0.715165
	H1	H	0.600675	0.171301	0.715250
	H2	H	0.600862	0.844100	0.286537
	H3	H	0.403660	0.171258	0.287017
	H4	H	0.717228	0.410207	0.836907
	H5	H	0.717677	0.605385	0.164051
	H6	H	0.287538	0.607325	0.837790
	H7	H	0.288013	0.409158	0.164294
	H8	H	0.838509	0.721942	0.402928
	H9	H	0.165917	0.721604	0.597779
	H10	H	0.839029	0.294418	0.599912
	H11	H	0.166155	0.293672	0.403576
	H12	H	0.840110	0.408644	0.717140
	H13	H	0.166055	0.606695	0.715054
	H14	H	0.839181	0.605847	0.287002
	H15	H	0.166288	0.410700	0.287752
	H16	H	0.405012	0.722317	0.837231
	H17	H	0.601212	0.721443	0.164429
	H18	H	0.602102	0.293834	0.836807
	H19	H	0.405995	0.294327	0.164887
	H20	H	0.717402	0.844213	0.401989
	H21	H	0.716154	0.171267	0.599251
	H22	H	0.287905	0.843168	0.598888
	H23	H	0.287864	0.171386	0.403326
	H24	H	0.905622	0.344246	0.215666
	H25	H	0.100534	0.671804	0.214969
	H26	H	0.102722	0.344494	0.786162
	H27	H	0.905912	0.671979	0.787650
	H28	H	0.215450	0.910694	0.337167
	H29	H	0.215771	0.105706	0.664421
	H30	H	0.787627	0.106109	0.337501
	H31	H	0.787845	0.909531	0.664476
	H32	H	0.339586	0.224231	0.901838
	H33	H	0.667341	0.220051	0.096907
	H34	H	0.338506	0.793495	0.099404
	H35	H	0.666397	0.793507	0.903820
	H36	H	0.338356	0.910630	0.215177
	H37	H	0.666155	0.105660	0.215425
	H38	H	0.338691	0.106074	0.786945
	H39	H	0.666724	0.910376	0.787551
	H40	H	0.903994	0.222451	0.337484
	H41	H	0.098433	0.220945	0.664284
	H42	H	0.099568	0.795057	0.336307
	H43	H	0.903829	0.792558	0.663724
	H44	H	0.217651	0.344331	0.903144
	H45	H	0.215639	0.672246	0.097237
	H46	H	0.790594	0.343326	0.098354
	H47	H	0.789183	0.671159	0.902977
	H48	H	0.408004	0.122985	0.590671
	H49	H	0.601601	0.888206	0.598520
	H50	H	0.596700	0.124099	0.408181
	H51	H	0.404092	0.888883	0.403789
	H52	H	0.595546	0.416031	0.115853
	H53	H	0.591211	0.597222	0.887114
	H54	H	0.404936	0.597536	0.118576
	H55	H	0.406182	0.413644	0.883005
	H56	H	0.120784	0.608374	0.408518
	H57	H	0.887596	0.598234	0.592278
	H58	H	0.120242	0.409325	0.592227
	H59	H	0.884280	0.416925	0.401915
	H60	H	0.117108	0.417898	0.589802
	H61	H	0.885816	0.600283	0.597334
	H62	H	0.116314	0.598577	0.412506
	H63	H	0.885182	0.409597	0.409376
	H64	H	0.412998	0.599145	0.115375
	H65	H	0.595281	0.607000	0.883439
	H66	H	0.596178	0.409907	0.117636
	H67	H	0.410461	0.420658	0.885881
	H68	H	0.593826	0.124149	0.406388
	H69	H	0.589131	0.891879	0.597699
	H70	H	0.405520	0.124578	0.595886
	H71	H	0.414798	0.891770	0.405254
	H72	H	0.912231	0.622853	0.091831
	H73	H	0.090057	0.392258	0.096267
	H74	H	0.093416	0.623456	0.909469
	H75	H	0.907749	0.392256	0.914530
	H76	H	0.093511	0.921995	0.614001
	H77	H	0.101837	0.095305	0.383174
	H78	H	0.908635	0.100276	0.617322
	H79	H	0.906755	0.901968	0.379837
	H80	H	0.619125	0.103644	0.909298
	H81	H	0.383956	0.101619	0.099420
	H82	H	0.614664	0.916047	0.086443
	H83	H	0.386110	0.912831	0.911497
	H84	H	0.618890	0.920228	0.100512
	H85	H	0.385922	0.106525	0.091847
	H86	H	0.616761	0.097774	0.908995
	H87	H	0.387306	0.918278	0.906400
	H88	H	0.907853	0.103001	0.617118
	H89	H	0.087589	0.098719	0.387569
	H90	H	0.089240	0.908772	0.617047
	H91	H	0.898245	0.923033	0.383082
	H92	H	0.098788	0.624610	0.907875
	H93	H	0.099495	0.392107	0.087850
	H94	H	0.905673	0.625103	0.092687
	H95	H	0.906069	0.387663	0.903135
	H96	H	0.411934	0.123099	0.595738
	H97	H	0.596457	0.892686	0.587424
	H98	H	0.593372	0.123351	0.409042
	H99	H	0.407403	0.891743	0.413776
	H100	H	0.600651	0.414339	0.117776
	H101	H	0.602002	0.597856	0.883239
	H102	H	0.408218	0.605520	0.118820
	H103	H	0.414188	0.413478	0.885230
	H104	H	0.120474	0.599066	0.401644
	H105	H	0.885321	0.603500	0.592639
	H106	H	0.120229	0.416230	0.598537
	H107	H	0.888408	0.419094	0.411898
	H108	H	0.910114	0.625860	0.098595
	H109	H	0.102215	0.388129	0.100395
	H110	H	0.094832	0.625236	0.904457
	H111	H	0.917579	0.392119	0.906213
	H112	H	0.101931	0.912857	0.619402
	H113	H	0.096138	0.109781	0.381919
	H114	H	0.906201	0.101214	0.617853
	H115	H	0.919533	0.918537	0.389343
	H116	H	0.619944	0.100224	0.903812
	H117	H	0.388013	0.097357	0.092425
	H118	H	0.620916	0.906206	0.096144
	H119	H	0.384381	0.911889	0.904707
	C120	C	0.380174	0.015121	0.622774
	C121	C	0.623485	0.999590	0.622366
	C122	C	0.623538	0.015811	0.379433
	C123	C	0.380532	0.999003	0.379629
	C124	C	0.625647	0.385461	0.008837
	C125	C	0.624250	0.628961	0.992573
	C126	C	0.381106	0.629064	0.009273
	C127	C	0.382149	0.387331	0.993076
	C128	C	0.010915	0.629906	0.378870
	C129	C	0.994155	0.629508	0.622244
	C130	C	0.011203	0.386261	0.622529
	C131	C	0.994004	0.386487	0.379321
	C132	C	0.881889	0.516217	0.122260
	C133	C	0.124541	0.499339	0.122304
	C134	C	0.124902	0.516327	0.878982
	C135	C	0.882274	0.499196	0.879498
	C136	C	0.123143	0.886477	0.508583
	C137	C	0.123110	0.129063	0.492506
	C138	C	0.879679	0.130083	0.509639
	C139	C	0.880447	0.886292	0.492218
	C140	C	0.510713	0.129603	0.878968
	C141	C	0.494591	0.129670	0.122628
	C142	C	0.510370	0.885750	0.122894
	C143	C	0.494312	0.885997	0.879433
	C144	C	0.383248	0.892085	0.677541
	C145	C	0.620889	0.122582	0.677184
	C146	C	0.621440	0.892736	0.324305
	C147	C	0.383300	0.122618	0.324920
	C148	C	0.680115	0.388962	0.885793
	C149	C	0.679695	0.625940	0.115438
	C150	C	0.326062	0.627222	0.886238
	C151	C	0.326826	0.389292	0.115772
	C152	C	0.887441	0.684306	0.381981
	C153	C	0.117134	0.684192	0.618860
	C154	C	0.888018	0.331873	0.620366
	C155	C	0.117409	0.331437	0.382755
	C156	C	0.888521	0.388791	0.678491
	C157	C	0.117249	0.626679	0.676874
	C158	C	0.887910	0.626639	0.324431
	C159	C	0.117505	0.389342	0.325090
	C160	C	0.384328	0.684282	0.886080
	C161	C	0.621627	0.683427	0.115746
	C162	C	0.623082	0.330948	0.885919
	C163	C	0.385013	0.331985	0.115857
	C164	C	0.679220	0.893033	0.381808
	C165	C	0.678263	0.122568	0.619549
	C166	C	0.325344	0.892206	0.619808
	C167	C	0.325749	0.122573	0.382402
	C168	C	0.884548	0.392821	0.177685
	C169	C	0.121118	0.623058	0.176856
	C170	C	0.122840	0.393083	0.824344
	C171	C	0.884926	0.622642	0.824772
	C172	C	0.177595	0.889913	0.385657
	C173	C	0.178097	0.126446	0.615474
	C174	C	0.825151	0.127370	0.386372
	C175	C	0.825795	0.889036	0.615521
	C176	C	0.388079	0.185697	0.881320
	C177	C	0.618172	0.182963	0.118562
	C178	C	0.387210	0.831422	0.119740
	C179	C	0.617571	0.831313	0.882705
	C180	C	0.387216	0.889141	0.177539
	C181	C	0.617493	0.126118	0.177326
	C182	C	0.387601	0.127247	0.824317
	C183	C	0.617699	0.889306	0.825057
	C184	C	0.882509	0.185294	0.386453
	C185	C	0.119741	0.183501	0.615578
	C186	C	0.119870	0.832372	0.385314
	C187	C	0.883074	0.830837	0.615233
	C188	C	0.180237	0.393177	0.882093
	C189	C	0.178205	0.623352	0.118592
	C190	C	0.827266	0.392512	0.119627
	C191	C	0.827340	0.622482	0.882188
	C192	C	0.402153	0.101600	0.600624
	C193	C	0.601903	0.913171	0.600932
	C194	C	0.600961	0.101613	0.401168
	C195	C	0.402351	0.912918	0.401186
	C196	C	0.603927	0.406996	0.094863
	C197	C	0.602513	0.607159	0.906742
	C198	C	0.402375	0.607150	0.095135
	C199	C	0.403904	0.409572	0.907006
	C200	C	0.097050	0.608335	0.400838
	C201	C	0.908330	0.607200	0.600495
	C202	C	0.097060	0.407961	0.600155
	C203	C	0.908177	0.408660	0.401350
	C204	C	0.903190	0.602264	0.100659
	C205	C	0.103407	0.413293	0.101127
	C206	C	0.102287	0.602279	0.901004
	C207	C	0.904202	0.412974	0.901400
	C208	C	0.101318	0.908196	0.594738
	C209	C	0.101545	0.107463	0.406395
	C210	C	0.901176	0.108095	0.595222
	C211	C	0.901911	0.907936	0.406330
	C212	C	0.596513	0.107020	0.901019
	C213	C	0.408228	0.108124	0.100942
	C214	C	0.596067	0.907793	0.100967
	C215	C	0.408156	0.907894	0.901181
	Zn216	Zn	0.502275	0.007548	0.751161
	Zn217	Zn	0.502073	0.007532	0.251485
	Zn218	Zn	0.753509	0.507383	0.000348
	Zn219	Zn	0.252726	0.507763	0.000859
	Zn220	Zn	0.001925	0.757584	0.500228
	Zn221	Zn	0.001675	0.258055	0.500941
	Zn222	Zn	0.003278	0.507561	0.750779
	Zn223	Zn	0.002966	0.507811	0.250723
	Zn224	Zn	0.502614	0.757112	0.001272
	Zn225	Zn	0.503122	0.258232	0.000479
	Zn226	Zn	0.751738	0.007886	0.500876
	Zn227	Zn	0.251876	0.007626	0.500732
	N228	N	0.416554	0.969762	0.679500
	N229	N	0.587536	0.044822	0.679120
	N230	N	0.587276	0.970077	0.322726
	N231	N	0.416631	0.044817	0.322968
	N232	N	0.681818	0.422249	0.963322
	N233	N	0.681436	0.592752	0.037785
	N234	N	0.323773	0.593784	0.963779
	N235	N	0.324747	0.422648	0.038199
	N236	N	0.964959	0.686331	0.415169
	N237	N	0.039506	0.686065	0.585701
	N238	N	0.965245	0.330297	0.586089
	N239	N	0.039580	0.329641	0.415941
	N240	N	0.966051	0.421865	0.679812
	N241	N	0.039840	0.593107	0.678828
	N242	N	0.965713	0.593630	0.322422
	N243	N	0.040053	0.422869	0.323123
	N244	N	0.418041	0.685297	0.963343
	N245	N	0.587919	0.685344	0.038425
	N246	N	0.589793	0.328802	0.963442
	N247	N	0.418806	0.330827	0.038438
	N248	N	0.680421	0.970575	0.415307
	N249	N	0.679911	0.045157	0.586226
	N250	N	0.323561	0.969959	0.586208
	N251	N	0.323760	0.044835	0.415629
	N252	N	0.917420	0.470342	0.179579
	N253	N	0.088504	0.545097	0.179503
	N254	N	0.089291	0.470717	0.822091
	N255	N	0.918071	0.544725	0.822790
	N256	N	0.179664	0.922742	0.463314
	N257	N	0.180296	0.093473	0.537790
	N258	N	0.823129	0.093786	0.463772
	N259	N	0.823863	0.922698	0.538026
	N260	N	0.465615	0.187053	0.914794
	N261	N	0.540614	0.185305	0.085395
	N262	N	0.464772	0.829313	0.086332
	N263	N	0.539887	0.829010	0.915620
	N264	N	0.464763	0.922229	0.179568
	N265	N	0.539423	0.093739	0.179949
	N266	N	0.464878	0.093177	0.822779
	N267	N	0.540053	0.922575	0.823068
	N268	N	0.915689	0.187264	0.464078
	N269	N	0.086309	0.185216	0.538176
	N270	N	0.086603	0.830191	0.462997
	N271	N	0.916302	0.829059	0.537763
	N272	N	0.181532	0.470805	0.915305
	N273	N	0.180495	0.545726	0.085458
	N274	N	0.825177	0.470283	0.085901
	N275	N	0.825369	0.544782	0.915416
	O276	O	0.534124	-0.540949	0.485415
	H277	H	0.535097	-0.538673	0.490755
	H278	H	0.537080	-0.543319	0.492126
	O279	O	0.514327	0.435600	0.485876
	H280	H	0.512452	0.432530	0.473318
	H281	H	0.507899	0.451334	0.486500
	O282	O	0.536180	0.447351	0.507692
	H283	H	0.537948	0.446622	0.516600
	H284	H	0.536363	0.437828	0.508941
	O285	O	0.544419	0.430945	0.537640
	H286	H	0.550746	0.425216	0.526830
	H287	H	0.545002	0.423261	0.537390
