data_Molecule from HDF5

_cell_length_a		16.034352
_cell_length_b		16.467227
_cell_length_c		16.192060
_cell_angle_alpha	89.606464
_cell_angle_beta	89.612844
_cell_angle_gamma	89.806062
_symmetry_space_group_name_H-M	'P 1'
_symmetry_Int_Tables_number		1

loop_
	_symmetry_equiv_pos_as_xyz
	x,y,z

loop_
	_atom_site_label
	_atom_site_type_symbol
	_atom_site_fract_x
	_atom_site_fract_y
	_atom_site_fract_z
	H0	H	0.397940	0.841142	0.716996
	H1	H	0.597243	0.164828	0.711625
	H2	H	0.601636	0.839721	0.281732
	H3	H	0.398860	0.162735	0.279928
	H4	H	0.713351	0.407968	0.833027
	H5	H	0.707980	0.595546	0.164433
	H6	H	0.289042	0.599306	0.832439
	H7	H	0.287783	0.406539	0.163622
	H8	H	0.834381	0.718852	0.396314
	H9	H	0.163175	0.716492	0.598901
	H10	H	0.834219	0.285858	0.601241
	H11	H	0.162444	0.284937	0.394730
	H12	H	0.832976	0.403557	0.712616
	H13	H	0.165737	0.596191	0.706705
	H14	H	0.833165	0.600911	0.285042
	H15	H	0.164754	0.404212	0.285551
	H16	H	0.397336	0.720604	0.835116
	H17	H	0.601381	0.719008	0.160227
	H18	H	0.604479	0.285630	0.834738
	H19	H	0.395120	0.283550	0.160237
	H20	H	0.715243	0.839565	0.400287
	H21	H	0.711170	0.165715	0.591620
	H22	H	0.284817	0.839827	0.596684
	H23	H	0.284815	0.164682	0.398766
	H24	H	0.899982	0.339934	0.216660
	H25	H	0.099550	0.663541	0.213126
	H26	H	0.101722	0.339348	0.782210
	H27	H	0.898975	0.662626	0.780194
	H28	H	0.210954	0.909215	0.331963
	H29	H	0.209745	0.097126	0.662893
	H30	H	0.789385	0.099422	0.330490
	H31	H	0.786755	0.906937	0.663156
	H32	H	0.335771	0.220857	0.895733
	H33	H	0.663795	0.216680	0.098541
	H34	H	0.334328	0.786315	0.100777
	H35	H	0.663332	0.786372	0.894851
	H36	H	0.333313	0.904699	0.211187
	H37	H	0.666020	0.095566	0.206818
	H38	H	0.332234	0.101494	0.786602
	H39	H	0.665638	0.906391	0.785844
	H40	H	0.895725	0.223497	0.335513
	H41	H	0.100248	0.218090	0.660796
	H42	H	0.103285	0.785347	0.335263
	H43	H	0.893901	0.783795	0.660565
	H44	H	0.215837	0.339251	0.900846
	H45	H	0.211264	0.664950	0.091934
	H46	H	0.784731	0.339445	0.099320
	H47	H	0.785813	0.664250	0.900103
	H48	H	0.402900	0.118948	0.596586
	H49	H	0.593837	0.886639	0.593601
	H50	H	0.602419	0.121614	0.395948
	H51	H	0.411544	0.888879	0.407283
	H52	H	0.584596	0.407411	0.113663
	H53	H	0.601103	0.596520	0.878335
	H54	H	0.405393	0.600551	0.117841
	H55	H	0.405913	0.412861	0.879939
	H56	H	0.115341	0.594335	0.412123
	H57	H	0.879936	0.591127	0.592538
	H58	H	0.120836	0.410268	0.604022
	H59	H	0.880509	0.408289	0.413479
	H60	H	0.120527	0.393629	0.583013
	H61	H	0.877715	0.599306	0.591051
	H62	H	0.116348	0.589810	0.401905
	H63	H	0.881790	0.415971	0.409493
	H64	H	0.402234	0.592891	0.115348
	H65	H	0.588833	0.589370	0.884558
	H66	H	0.590923	0.401173	0.117583
	H67	H	0.414831	0.411685	0.882475
	H68	H	0.582821	0.116445	0.394256
	H69	H	0.589959	0.887782	0.594059
	H70	H	0.409086	0.116378	0.591536
	H71	H	0.401108	0.885840	0.408944
	H72	H	0.912881	0.614158	0.088856
	H73	H	0.098232	0.385401	0.088553
	H74	H	0.091734	0.618686	0.892548
	H75	H	0.905735	0.384494	0.902736
	H76	H	0.088438	0.903824	0.616103
	H77	H	0.082400	0.094993	0.383284
	H78	H	0.906905	0.097148	0.614711
	H79	H	0.910968	0.910107	0.381034
	H80	H	0.619514	0.097785	0.903750
	H81	H	0.380829	0.098019	0.086124
	H82	H	0.616805	0.908475	0.086579
	H83	H	0.381095	0.917130	0.901374
	H84	H	0.617614	0.908885	0.088583
	H85	H	0.382281	0.090994	0.088596
	H86	H	0.617168	0.095325	0.906677
	H87	H	0.375473	0.900552	0.905658
	H88	H	0.903696	0.094625	0.615177
	H89	H	0.091868	0.104643	0.377763
	H90	H	0.092031	0.907384	0.615855
	H91	H	0.909802	0.905832	0.379812
	H92	H	0.086476	0.613813	0.906166
	H93	H	0.094730	0.384264	0.099895
	H94	H	0.898216	0.617755	0.088265
	H95	H	0.913410	0.388290	0.905015
	H96	H	0.401413	0.117868	0.588200
	H97	H	0.591280	0.887666	0.590677
	H98	H	0.591797	0.114029	0.411762
	H99	H	0.405776	0.884739	0.399219
	H100	H	0.593640	0.409866	0.115133
	H101	H	0.587398	0.603984	0.880220
	H102	H	0.410622	0.594793	0.113823
	H103	H	0.410304	0.403998	0.879003
	H104	H	0.120046	0.600781	0.404302
	H105	H	0.881879	0.594408	0.585119
	H106	H	0.111338	0.418469	0.579510
	H107	H	0.879158	0.409285	0.404823
	H108	H	0.906066	0.619404	0.100629
	H109	H	0.087534	0.388393	0.092235
	H110	H	0.101396	0.617741	0.904766
	H111	H	0.906254	0.386705	0.910995
	H112	H	0.087194	0.908047	0.613812
	H113	H	0.095771	0.090895	0.380394
	H114	H	0.906575	0.094263	0.613313
	H115	H	0.905900	0.909950	0.379831
	H116	H	0.617929	0.093575	0.902945
	H117	H	0.378657	0.095939	0.092755
	H118	H	0.618367	0.907104	0.087306
	H119	H	0.383947	0.910418	0.918218
	C120	C	0.375591	0.010870	0.621279
	C121	C	0.620471	0.994410	0.619654
	C122	C	0.621990	0.010029	0.373456
	C123	C	0.377115	0.993250	0.375710
	C124	C	0.621343	0.379078	0.006994
	C125	C	0.620278	0.623778	0.989386
	C126	C	0.377767	0.624584	0.007014
	C127	C	0.379696	0.381073	0.989106
	C128	C	0.008013	0.624157	0.376554
	C129	C	0.989898	0.622449	0.617905
	C130	C	0.007958	0.379331	0.619358
	C131	C	0.990074	0.381985	0.378888
	C132	C	0.876934	0.510104	0.122174
	C133	C	0.121449	0.493652	0.120402
	C134	C	0.123068	0.509754	0.873849
	C135	C	0.878772	0.493445	0.876783
	C136	C	0.120100	0.879312	0.506771
	C137	C	0.118949	0.124061	0.489191
	C138	C	0.876747	0.124749	0.505991
	C139	C	0.878181	0.880259	0.488931
	C140	C	0.508269	0.124070	0.876465
	C141	C	0.490105	0.122501	0.117944
	C142	C	0.508371	0.879515	0.118448
	C143	C	0.489924	0.880909	0.877639
	C144	C	0.377937	0.889329	0.677981
	C145	C	0.617581	0.116470	0.673620
	C146	C	0.621235	0.888183	0.319546
	C147	C	0.379040	0.114876	0.318936
	C148	C	0.677182	0.384777	0.882925
	C149	C	0.672694	0.618237	0.114256
	C150	C	0.324490	0.621381	0.882318
	C151	C	0.324345	0.384849	0.113592
	C152	C	0.883552	0.680210	0.377439
	C153	C	0.113998	0.677839	0.617317
	C154	C	0.883308	0.324292	0.619730
	C155	C	0.113652	0.324269	0.376889
	C156	C	0.882815	0.382699	0.675152
	C157	C	0.115377	0.617987	0.671038
	C158	C	0.882796	0.621333	0.322393
	C159	C	0.115000	0.383919	0.322907
	C160	C	0.378736	0.681207	0.883598
	C161	C	0.619383	0.679414	0.112296
	C162	C	0.622555	0.324209	0.883545
	C163	C	0.377985	0.323720	0.111909
	C164	C	0.677916	0.888161	0.378324
	C165	C	0.674072	0.116961	0.613643
	C166	C	0.321473	0.888629	0.618335
	C167	C	0.322314	0.115788	0.378140
	C168	C	0.879473	0.388216	0.178261
	C169	C	0.118917	0.615365	0.174791
	C170	C	0.121687	0.387908	0.819724
	C171	C	0.879703	0.614838	0.819753
	C172	C	0.174986	0.885664	0.381983
	C173	C	0.173090	0.119007	0.613265
	C174	C	0.824387	0.121126	0.381041
	C175	C	0.823176	0.884635	0.613366
	C176	C	0.384142	0.180929	0.877441
	C177	C	0.614843	0.177771	0.117006
	C178	C	0.383867	0.824373	0.119320
	C179	C	0.614131	0.824818	0.876497
	C180	C	0.383178	0.883099	0.174234
	C181	C	0.615734	0.117994	0.171403
	C182	C	0.382596	0.121655	0.823137
	C183	C	0.615248	0.884598	0.822182
	C184	C	0.877464	0.182644	0.383222
	C185	C	0.118368	0.179032	0.612332
	C186	C	0.121527	0.824288	0.383592
	C187	C	0.876574	0.823444	0.611961
	C188	C	0.178856	0.387899	0.878567
	C189	C	0.174647	0.616195	0.114584
	C190	C	0.822161	0.388084	0.119852
	C191	C	0.823372	0.615488	0.879415
	C192	C	0.397695	0.095947	0.598580
	C193	C	0.598351	0.909393	0.598672
	C194	C	0.599111	0.095252	0.394524
	C195	C	0.399609	0.908418	0.398381
	C196	C	0.596917	0.399908	0.093349
	C197	C	0.598558	0.602988	0.903263
	C198	C	0.399701	0.602580	0.093220
	C199	C	0.403544	0.403148	0.902769
	C200	C	0.094778	0.601773	0.399423
	C201	C	0.902503	0.601116	0.596149
	C202	C	0.095013	0.400822	0.595757
	C203	C	0.903137	0.404543	0.402519
	C204	C	0.899202	0.595068	0.099375
	C205	C	0.099938	0.408202	0.099744
	C206	C	0.100102	0.594845	0.894973
	C207	C	0.901810	0.408489	0.899607
	C208	C	0.096272	0.900341	0.592900
	C209	C	0.096524	0.103123	0.402812
	C210	C	0.899244	0.102147	0.592245
	C211	C	0.901973	0.902196	0.402561
	C212	C	0.595555	0.102007	0.898179
	C213	C	0.403218	0.101247	0.095759
	C214	C	0.595358	0.901763	0.094478
	C215	C	0.402617	0.903030	0.901396
	Zn216	Zn	0.498418	0.002848	0.750198
	Zn217	Zn	0.499189	0.000619	0.245196
	Zn218	Zn	0.748572	0.501707	-0.001258
	Zn219	Zn	0.251133	0.502390	-0.002493
	Zn220	Zn	-0.001351	0.750815	0.498101
	Zn221	Zn	-0.001718	0.252948	0.498241
	Zn222	Zn	-0.000616	0.501256	0.745327
	Zn223	Zn	-0.000962	0.502160	0.251139
	Zn224	Zn	0.498890	0.752413	-0.002352
	Zn225	Zn	0.499431	0.250923	-0.002488
	Zn226	Zn	0.750402	0.002335	0.496589
	Zn227	Zn	0.246995	0.002361	0.497516
	N228	N	0.410780	0.966342	0.679795
	N229	N	0.584735	0.039370	0.677288
	N230	N	0.587082	0.964907	0.316567
	N231	N	0.412599	0.037784	0.317330
	N232	N	0.676311	0.418020	0.960636
	N233	N	0.673570	0.584193	0.037027
	N234	N	0.323659	0.586679	0.959809
	N235	N	0.325204	0.419793	0.036135
	N236	N	0.962474	0.682261	0.410354
	N237	N	0.034945	0.680676	0.585122
	N238	N	0.961951	0.322190	0.585519
	N239	N	0.034983	0.323208	0.411234
	N240	N	0.961439	0.416110	0.675184
	N241	N	0.037069	0.584086	0.671593
	N242	N	0.961153	0.587209	0.321608
	N243	N	0.037120	0.419198	0.324007
	N244	N	0.411105	0.683432	0.962023
	N245	N	0.587619	0.683129	0.033617
	N246	N	0.588391	0.320509	0.961790
	N247	N	0.411556	0.321192	0.033519
	N248	N	0.678526	0.964986	0.411233
	N249	N	0.676119	0.040016	0.580909
	N250	N	0.319721	0.965267	0.583754
	N251	N	0.321180	0.039439	0.412988
	N252	N	0.912672	0.465161	0.179979
	N253	N	0.086565	0.538028	0.178699
	N254	N	0.087882	0.464725	0.816425
	N255	N	0.913359	0.537918	0.818036
	N256	N	0.174386	0.919167	0.459613
	N257	N	0.173642	0.085461	0.535597
	N258	N	0.823793	0.085958	0.458382
	N259	N	0.823994	0.919327	0.535890
	N260	N	0.463328	0.182790	0.909716
	N261	N	0.535749	0.180852	0.084627
	N262	N	0.462848	0.821819	0.085504
	N263	N	0.535073	0.822460	0.910252
	N264	N	0.461634	0.916637	0.174022
	N265	N	0.537341	0.084287	0.172255
	N266	N	0.460796	0.086949	0.822470
	N267	N	0.536793	0.918702	0.822679
	N268	N	0.909101	0.185319	0.462037
	N269	N	0.085449	0.182030	0.534298
	N270	N	0.088352	0.820190	0.462166
	N271	N	0.910231	0.820759	0.533475
	N272	N	0.179761	0.464641	0.911667
	N273	N	0.176541	0.539529	0.081699
	N274	N	0.820426	0.464807	0.085623
	N275	N	0.822790	0.538999	0.914312
	O276	O	-0.049772	0.023631	-0.068699
	H277	H	-0.052339	0.017875	-0.070415
	H278	H	-0.046573	0.021371	-0.070285
	O279	O	0.400666	0.641837	0.409568
	H280	H	0.396737	0.639569	0.408152
	H281	H	0.396110	0.631295	0.409101
	O282	O	0.535249	0.430981	0.513937
	H283	H	0.535272	0.429425	0.515837
	H284	H	0.530897	0.430953	0.520414
	O285	O	-0.039986	0.943583	0.918818
	H286	H	-0.034359	0.947677	0.922871
	H287	H	-0.043931	0.947385	0.902375
	O288	O	0.533822	0.441240	0.443765
	H289	H	0.533713	0.442701	0.444505
	H290	H	0.532984	0.437930	0.438959
	O291	O	0.947931	1.092267	0.990528
	H292	H	0.938016	1.097398	0.985470
	H293	H	0.942307	1.084954	0.996487
	O294	O	0.970471	0.976748	0.971180
	H295	H	0.968827	0.977955	0.968163
	H296	H	0.975155	0.975654	0.967608
	O297	O	0.954641	-0.025403	1.019475
	H298	H	0.952153	-0.025932	1.027855
	H299	H	0.960159	-0.029212	1.004751
	O300	O	0.409596	0.587584	0.387994
	H301	H	0.392385	0.583194	0.381199
	H302	H	0.416828	0.595609	0.377506
	O303	O	1.021592	0.005297	-0.028356
	H304	H	1.023305	-0.001508	-0.020221
	H305	H	1.031303	0.008921	-0.024437
	O306	O	-0.003850	1.004349	1.020608
	H307	H	-0.002819	1.005418	1.026727
	H308	H	-0.009493	1.000550	1.017321
	O309	O	0.531783	0.494817	0.506975
	H310	H	0.529708	0.498997	0.508241
	H311	H	0.542797	0.490766	0.507208
	O312	O	1.006605	0.048065	0.914845
	H313	H	1.013785	0.054777	0.900465
	H314	H	0.997862	0.050597	0.926483
	O315	O	0.508223	0.546852	0.507052
	H316	H	0.508700	0.549635	0.503035
	H317	H	0.511379	0.549472	0.498686
	O318	O	0.482730	0.450221	0.514588
	H319	H	0.465795	0.450581	0.511158
	H320	H	0.485235	0.447051	0.519996
	O321	O	0.987543	0.939028	1.088531
	H322	H	0.982340	0.933102	1.097852
	H323	H	0.979371	0.944789	1.078625
	O324	O	0.524259	0.559318	0.562796
	H325	H	0.516324	0.571499	0.559348
	H326	H	0.518677	0.563328	0.557488
	O327	O	0.620436	0.427067	0.510648
	H328	H	0.616434	0.415116	0.509289
	H329	H	0.621237	0.419747	0.519299
	O330	O	0.910679	-0.082275	1.013339
	H331	H	0.906321	-0.075412	1.006636
	H332	H	0.903913	-0.096256	1.007474
	O333	O	1.022127	1.022016	-0.018675
	H334	H	1.021551	1.020917	-0.028753
	H335	H	1.010352	1.014412	-0.023131
	O336	O	0.477437	0.494195	0.501446
	H337	H	0.493277	0.494558	0.501911
	H338	H	0.474226	0.506511	0.494209
	O339	O	0.578485	0.458374	0.493958
	H340	H	0.577784	0.464277	0.507872
	H341	H	0.589718	0.451033	0.495609
	O342	O	0.046118	0.900329	0.051670
	H343	H	0.053253	0.898948	0.048963
	H344	H	0.052558	0.899001	0.060309
	O345	O	-0.010845	0.044879	0.014676
	H346	H	-0.008726	0.048308	0.005179
	H347	H	-0.020880	0.044866	0.016288
	O348	O	0.426654	0.504875	0.585013
	H349	H	0.422668	0.501943	0.578074
	H350	H	0.422024	0.512093	0.595186
	O351	O	0.475388	0.421867	0.415178
	H352	H	0.481713	0.424972	0.409172
	H353	H	0.473597	0.415413	0.419612
	O354	O	0.491606	0.544410	0.602330
	H355	H	0.494289	0.548413	0.591719
	H356	H	0.476668	0.539688	0.589783
	O357	O	0.514826	0.558658	0.426320
	H358	H	0.515786	0.556300	0.424147
	H359	H	0.520130	0.554944	0.429695
	O360	O	-0.010743	0.080478	-0.041073
	H361	H	-0.018853	0.083570	-0.038518
	H362	H	-0.014241	0.084876	-0.034916
	O363	O	0.500469	0.519717	0.590627
	H364	H	0.495060	0.519887	0.585154
	H365	H	0.509482	0.518446	0.597797
	O366	O	-0.060112	-0.007120	0.940274
	H367	H	-0.054375	-0.001484	0.941862
	H368	H	-0.051840	0.002548	0.938183
	O369	O	0.403908	0.485198	0.443634
	H370	H	0.405182	0.482102	0.441491
	H371	H	0.396540	0.485368	0.454133
