data_Molecule from HDF5

_cell_length_a		16.123308
_cell_length_b		16.592945
_cell_length_c		16.267676
_cell_angle_alpha	89.989610
_cell_angle_beta	90.164196
_cell_angle_gamma	89.810701
_symmetry_space_group_name_H-M	'P 1'
_symmetry_Int_Tables_number		1

loop_
	_symmetry_equiv_pos_as_xyz
	x,y,z

loop_
	_atom_site_label
	_atom_site_type_symbol
	_atom_site_fract_x
	_atom_site_fract_y
	_atom_site_fract_z
	H0	H	0.392571	0.843594	0.725559
	H1	H	0.602101	0.159689	0.724537
	H2	H	0.601803	0.841879	0.283971
	H3	H	0.397442	0.161775	0.286243
	H4	H	0.710698	0.399397	0.840320
	H5	H	0.712271	0.597660	0.166056
	H6	H	0.282076	0.598485	0.840465
	H7	H	0.286955	0.406736	0.168789
	H8	H	0.836320	0.720205	0.395392
	H9	H	0.160492	0.717161	0.606126
	H10	H	0.838597	0.277606	0.609645
	H11	H	0.161479	0.281784	0.398555
	H12	H	0.834523	0.397197	0.719235
	H13	H	0.161954	0.598139	0.717957
	H14	H	0.833377	0.598883	0.287230
	H15	H	0.162737	0.400808	0.287793
	H16	H	0.384966	0.724323	0.845011
	H17	H	0.603206	0.720561	0.162916
	H18	H	0.602574	0.278112	0.844238
	H19	H	0.391857	0.282085	0.165136
	H20	H	0.717515	0.841155	0.402750
	H21	H	0.718712	0.160413	0.607077
	H22	H	0.280801	0.841261	0.603098
	H23	H	0.280771	0.162018	0.404013
	H24	H	0.894884	0.340161	0.222838
	H25	H	0.100891	0.658260	0.222945
	H26	H	0.100744	0.340597	0.784096
	H27	H	0.891631	0.657018	0.780481
	H28	H	0.211324	0.904073	0.338301
	H29	H	0.211041	0.096562	0.666898
	H30	H	0.782615	0.100131	0.340511
	H31	H	0.785374	0.902285	0.666361
	H32	H	0.335447	0.220117	0.899648
	H33	H	0.659598	0.220462	0.109072
	H34	H	0.335207	0.782672	0.109344
	H35	H	0.656489	0.776683	0.895082
	H36	H	0.333289	0.904625	0.217905
	H37	H	0.662615	0.098998	0.217806
	H38	H	0.334376	0.102238	0.786756
	H39	H	0.660135	0.897532	0.786812
	H40	H	0.893075	0.222001	0.342459
	H41	H	0.107369	0.221450	0.662083
	H42	H	0.104413	0.780046	0.340848
	H43	H	0.891212	0.777606	0.661093
	H44	H	0.215986	0.340322	0.904462
	H45	H	0.214660	0.659709	0.105159
	H46	H	0.778290	0.340013	0.104299
	H47	H	0.775932	0.658101	0.898594
	H48	H	0.411812	0.115540	0.603965
	H49	H	0.590611	0.889766	0.592840
	H50	H	0.585889	0.114124	0.408787
	H51	H	0.409337	0.887750	0.406478
	H52	H	0.599051	0.413327	0.121587
	H53	H	0.586763	0.593237	0.886861
	H54	H	0.408553	0.594086	0.119472
	H55	H	0.402811	0.413065	0.888123
	H56	H	0.112683	0.587544	0.414743
	H57	H	0.883998	0.588685	0.584459
	H58	H	0.116327	0.413503	0.601470
	H59	H	0.884573	0.412971	0.417319
	H60	H	0.116444	0.400017	0.588905
	H61	H	0.881437	0.587563	0.595094
	H62	H	0.116345	0.591704	0.408518
	H63	H	0.881986	0.409993	0.409726
	H64	H	0.408588	0.595414	0.120604
	H65	H	0.582989	0.586746	0.890107
	H66	H	0.577171	0.416612	0.113341
	H67	H	0.414892	0.409490	0.890709
	H68	H	0.590988	0.112842	0.415504
	H69	H	0.589495	0.887701	0.596784
	H70	H	0.411701	0.109209	0.586505
	H71	H	0.406027	0.889585	0.412819
	H72	H	0.903381	0.612931	0.095834
	H73	H	0.080651	0.390593	0.091736
	H74	H	0.088940	0.613877	0.909277
	H75	H	0.902208	0.385911	0.912041
	H76	H	0.087706	0.912734	0.616077
	H77	H	0.079779	0.089794	0.389647
	H78	H	0.908868	0.089189	0.618255
	H79	H	0.905926	0.914871	0.388231
	H80	H	0.611292	0.085042	0.916539
	H81	H	0.380322	0.092660	0.097716
	H82	H	0.610820	0.914755	0.088075
	H83	H	0.385213	0.917371	0.918338
	H84	H	0.615602	0.909624	0.098932
	H85	H	0.380497	0.097544	0.093836
	H86	H	0.616399	0.094095	0.910508
	H87	H	0.379940	0.913638	0.910130
	H88	H	0.916163	0.090981	0.615633
	H89	H	0.087299	0.100797	0.384080
	H90	H	0.082460	0.902473	0.616726
	H91	H	0.916741	0.909384	0.389963
	H92	H	0.086013	0.612819	0.909479
	H93	H	0.100462	0.385505	0.088685
	H94	H	0.908704	0.611438	0.096254
	H95	H	0.907184	0.385760	0.906939
	H96	H	0.396689	0.116697	0.593492
	H97	H	0.586855	0.889991	0.594764
	H98	H	0.594067	0.116752	0.407903
	H99	H	0.402278	0.885774	0.407089
	H100	H	0.583607	0.396797	0.122454
	H101	H	0.578889	0.593665	0.888682
	H102	H	0.406337	0.594654	0.118719
	H103	H	0.406369	0.400991	0.885684
	H104	H	0.114957	0.595754	0.415740
	H105	H	0.879905	0.597578	0.590192
	H106	H	0.109360	0.416280	0.584686
	H107	H	0.882084	0.404601	0.416202
	H108	H	0.905834	0.611255	0.091444
	H109	H	0.091470	0.381911	0.107340
	H110	H	0.088111	0.612669	0.911621
	H111	H	0.908896	0.388423	0.913405
	H112	H	0.093396	0.903424	0.620545
	H113	H	0.094280	0.087868	0.386631
	H114	H	0.911328	0.095991	0.618785
	H115	H	0.907589	0.903079	0.384520
	H116	H	0.613273	0.094852	0.921739
	H117	H	0.381915	0.092018	0.091856
	H118	H	0.613973	0.902863	0.088369
	H119	H	0.381697	0.908194	0.919515
	C120	C	0.375895	0.009235	0.625472
	C121	C	0.620586	0.993286	0.626086
	C122	C	0.621158	0.009158	0.380777
	C123	C	0.375597	0.993626	0.380017
	C124	C	0.617738	0.378298	0.012533
	C125	C	0.616732	0.621430	0.994476
	C126	C	0.374885	0.623936	0.012543
	C127	C	0.377094	0.379252	0.995475
	C128	C	0.006676	0.621434	0.381345
	C129	C	0.989217	0.621222	0.622170
	C130	C	0.006978	0.378774	0.623268
	C131	C	0.990565	0.379115	0.382651
	C132	C	0.875474	0.507027	0.124810
	C133	C	0.120738	0.491345	0.126078
	C134	C	0.119111	0.507834	0.880665
	C135	C	0.874309	0.490952	0.879122
	C136	C	0.119267	0.877465	0.510633
	C137	C	0.119144	0.122369	0.493914
	C138	C	0.879266	0.122695	0.511307
	C139	C	0.878478	0.879096	0.494068
	C140	C	0.506337	0.122210	0.884051
	C141	C	0.489106	0.123224	0.124890
	C142	C	0.505750	0.880070	0.123568
	C143	C	0.488703	0.880084	0.883102
	C144	C	0.375015	0.890282	0.684415
	C145	C	0.621746	0.112330	0.685057
	C146	C	0.621252	0.889571	0.323223
	C147	C	0.377216	0.113895	0.324574
	C148	C	0.673858	0.379212	0.889635
	C149	C	0.674955	0.618998	0.116572
	C150	C	0.318417	0.620529	0.890110
	C151	C	0.322685	0.383992	0.119073
	C152	C	0.884467	0.679875	0.378722
	C153	C	0.111598	0.678529	0.624579
	C154	C	0.885991	0.318534	0.626406
	C155	C	0.112785	0.320904	0.380504
	C156	C	0.884059	0.377805	0.681286
	C157	C	0.112187	0.619054	0.680239
	C158	C	0.883084	0.619574	0.324673
	C159	C	0.113343	0.380169	0.325298
	C160	C	0.369780	0.683164	0.892300
	C161	C	0.620174	0.680022	0.115470
	C162	C	0.619907	0.318872	0.891648
	C163	C	0.375091	0.322162	0.117242
	C164	C	0.678966	0.889299	0.382163
	C165	C	0.679400	0.112768	0.626173
	C166	C	0.319062	0.889083	0.623714
	C167	C	0.319058	0.113995	0.383049
	C168	C	0.875997	0.387464	0.182968
	C169	C	0.120133	0.610714	0.183789
	C170	C	0.119815	0.388215	0.823578
	C171	C	0.872563	0.609942	0.820263
	C172	C	0.175086	0.881565	0.387795
	C173	C	0.175298	0.118684	0.616980
	C174	C	0.820931	0.121019	0.389140
	C175	C	0.822137	0.881128	0.616724
	C176	C	0.383967	0.180338	0.881716
	C177	C	0.611423	0.180777	0.126597
	C178	C	0.383561	0.822967	0.126072
	C179	C	0.608891	0.818107	0.878536
	C180	C	0.382682	0.883228	0.180596
	C181	C	0.613052	0.120675	0.180864
	C182	C	0.383495	0.121780	0.825610
	C183	C	0.610788	0.878380	0.824528
	C184	C	0.875903	0.181451	0.390139
	C185	C	0.123363	0.180693	0.614725
	C186	C	0.121660	0.820017	0.389076
	C187	C	0.875404	0.819531	0.614352
	C188	C	0.177362	0.388194	0.883118
	C189	C	0.176775	0.611710	0.125036
	C190	C	0.817576	0.387521	0.124320
	C191	C	0.815016	0.610191	0.878987
	C192	C	0.399864	0.092208	0.601646
	C193	C	0.596108	0.910855	0.601768
	C194	C	0.597176	0.092939	0.403897
	C195	C	0.399067	0.909407	0.402307
	C196	C	0.593566	0.402004	0.097122
	C197	C	0.590513	0.598117	0.910200
	C198	C	0.400321	0.601426	0.097655
	C199	C	0.400789	0.401467	0.910247
	C200	C	0.092480	0.598422	0.406005
	C201	C	0.903856	0.598109	0.597221
	C202	C	0.092013	0.402944	0.598847
	C203	C	0.904933	0.402420	0.407437
	C204	C	0.899126	0.590240	0.101151
	C205	C	0.097879	0.407873	0.102679
	C206	C	0.094595	0.591376	0.903570
	C207	C	0.898945	0.408230	0.903607
	C208	C	0.095042	0.899798	0.595753
	C209	C	0.094300	0.099516	0.408762
	C210	C	0.904753	0.098999	0.595591
	C211	C	0.903002	0.902295	0.409542
	C212	C	0.591556	0.098281	0.909128
	C213	C	0.403136	0.100678	0.101456
	C214	C	0.591237	0.902477	0.099066
	C215	C	0.404211	0.905697	0.908749
	Zn216	Zn	0.498054	0.001279	0.755843
	Zn217	Zn	0.498649	0.001621	0.251147
	Zn218	Zn	0.745507	0.499030	0.002090
	Zn219	Zn	0.249376	0.500563	0.003921
	Zn220	Zn	-0.001675	0.749706	0.501267
	Zn221	Zn	-0.000088	0.251184	0.502959
	Zn222	Zn	-0.002965	0.499253	0.750196
	Zn223	Zn	-0.001658	0.499490	0.255064
	Zn224	Zn	0.495897	0.751655	0.002727
	Zn225	Zn	0.497292	0.250846	0.004793
	Zn226	Zn	0.750894	0.001086	0.503622
	Zn227	Zn	0.245984	0.000863	0.502779
	N228	N	0.409721	0.965736	0.685338
	N229	N	0.586134	0.037319	0.685424
	N230	N	0.586289	0.965265	0.322096
	N231	N	0.411489	0.037928	0.322614
	N232	N	0.672605	0.415585	0.965433
	N233	N	0.672728	0.583355	0.040392
	N234	N	0.321254	0.584518	0.966060
	N235	N	0.323571	0.418757	0.042332
	N236	N	0.962659	0.681518	0.412870
	N237	N	0.034027	0.680106	0.589402
	N238	N	0.963360	0.318821	0.591234
	N239	N	0.035203	0.320253	0.415229
	N240	N	0.960262	0.414574	0.679310
	N241	N	0.034789	0.584329	0.679156
	N242	N	0.960157	0.584092	0.326124
	N243	N	0.036207	0.415590	0.326567
	N244	N	0.404299	0.685363	0.969759
	N245	N	0.584841	0.682047	0.038298
	N246	N	0.585639	0.318327	0.969031
	N247	N	0.408045	0.318966	0.039282
	N248	N	0.678956	0.964726	0.417231
	N249	N	0.679131	0.037782	0.590203
	N250	N	0.319372	0.963893	0.587512
	N251	N	0.317883	0.037894	0.416697
	N252	N	0.911044	0.463007	0.183702
	N253	N	0.085840	0.534981	0.184518
	N254	N	0.084224	0.463581	0.822167
	N255	N	0.908612	0.534898	0.820250
	N256	N	0.173924	0.916501	0.464403
	N257	N	0.172637	0.082772	0.540784
	N258	N	0.822643	0.085391	0.465371
	N259	N	0.824012	0.917596	0.540910
	N260	N	0.461303	0.180691	0.917323
	N261	N	0.533333	0.182373	0.092587
	N262	N	0.461118	0.820862	0.091387
	N263	N	0.531716	0.819039	0.914288
	N264	N	0.459808	0.918209	0.179009
	N265	N	0.536094	0.085513	0.179832
	N266	N	0.460710	0.086218	0.826856
	N267	N	0.535108	0.916219	0.827332
	N268	N	0.911272	0.182582	0.467211
	N269	N	0.089421	0.182999	0.537196
	N270	N	0.087818	0.817266	0.466618
	N271	N	0.909495	0.817999	0.537006
	N272	N	0.177101	0.463647	0.917849
	N273	N	0.177381	0.536429	0.089781
	N274	N	0.817291	0.462656	0.088932
	N275	N	0.815934	0.535220	0.914960
	O276	O	0.606548	0.447169	0.486387
	H277	H	0.611689	0.446167	0.486104
	H278	H	0.596459	0.445675	0.489489
	O279	O	0.350003	0.654042	0.399383
	H280	H	0.331662	0.667288	0.395038
	H281	H	0.353317	0.653439	0.401882
	O282	O	1.043957	0.076267	1.002967
	H283	H	1.058380	0.074560	1.012335
	H284	H	1.045640	0.051390	0.998871
	O285	O	0.541493	0.346639	0.579538
	H286	H	0.533533	0.347803	0.586129
	H287	H	0.535068	0.353097	0.574802
	O288	O	1.007756	0.858649	0.873064
	H289	H	0.995830	0.865607	0.878437
	H290	H	1.005779	0.847642	0.864826
	O291	O	-0.065958	0.065678	0.860313
	H292	H	-0.065966	0.063329	0.869377
	H293	H	-0.066994	0.054684	0.859584
	O294	O	0.342957	0.428858	0.628449
	H295	H	0.339890	0.429104	0.641301
	H296	H	0.341351	0.426999	0.609690
	O297	O	0.374870	0.547253	0.406300
	H298	H	0.374210	0.558099	0.416136
	H299	H	0.384973	0.548017	0.399002
	O300	O	0.644597	0.531745	0.606102
	H301	H	0.648224	0.532095	0.615226
	H302	H	0.642180	0.534085	0.609474
	O303	O	1.141294	-0.038955	0.158262
	H304	H	1.141129	-0.037715	0.137008
	H305	H	1.138999	-0.044633	0.151028
	O306	O	0.518910	0.556817	0.634525
	H307	H	0.510468	0.547308	0.641275
	H308	H	0.523494	0.558621	0.638945
	O309	O	0.451543	0.367510	0.403526
	H310	H	0.433433	0.376290	0.402164
	H311	H	0.463742	0.374500	0.410997
	O312	O	-0.050884	0.052565	-0.108511
	H313	H	-0.061286	0.039240	-0.092644
	H314	H	-0.055274	0.059557	-0.117631
	O315	O	0.604462	0.543098	0.500612
	H316	H	0.600776	0.531768	0.506268
	H317	H	0.599547	0.535735	0.489410
	O318	O	-0.113715	1.087239	0.967280
	H319	H	-0.111778	1.106176	0.978346
	H320	H	-0.135151	1.086386	0.961819
	O321	O	0.471509	0.496334	0.493314
	H322	H	0.471164	0.493132	0.494655
	H323	H	0.474588	0.495692	0.488960
	O324	O	-0.117592	1.061224	-0.087251
	H325	H	-0.129178	1.064216	-0.109831
	H326	H	-0.127211	1.051621	-0.079925
	O327	O	0.849932	1.090165	-0.047467
	H328	H	0.858729	1.085565	-0.039121
	H329	H	0.840317	1.093216	-0.034418
	O330	O	0.112182	-0.078977	1.084600
	H331	H	0.119862	-0.076188	1.090690
	H332	H	0.129063	-0.083738	1.080579
	O333	O	0.002574	0.084447	1.083057
	H334	H	0.000395	0.088534	1.098476
	H335	H	-0.003368	0.093501	1.080191
	O336	O	0.437935	0.469911	0.486800
	H337	H	0.417895	0.471307	0.495073
	H338	H	0.430268	0.484765	0.491795
	O339	O	0.973271	-0.136324	-0.072560
	H340	H	0.971520	-0.136439	-0.061607
	H341	H	0.960560	-0.142881	-0.075064
	O342	O	0.115796	-0.185162	-0.121572
	H343	H	0.119158	-0.192205	-0.148900
	H344	H	0.083032	-0.195899	-0.118296
	O345	O	1.023837	-0.135830	1.038925
	H346	H	1.013851	-0.125145	1.026980
	H347	H	1.023238	-0.145662	1.031133
	O348	O	1.131894	1.210178	-0.004730
	H349	H	1.149311	1.223838	0.011043
	H350	H	1.117867	1.205926	0.017551
	O351	O	0.507883	0.401635	0.476478
	H352	H	0.516385	0.385991	0.491056
	H353	H	0.503094	0.390018	0.467140
	O354	O	0.927430	-0.075715	1.158211
	H355	H	0.946630	-0.068874	1.162072
	H356	H	0.936289	-0.081247	1.154991
	O357	O	0.599117	0.568116	0.485829
	H358	H	0.601096	0.555615	0.485982
	H359	H	0.592250	0.561794	0.472572
	O360	O	0.398587	0.440816	0.618265
	H361	H	0.394205	0.436684	0.617666
	H362	H	0.402288	0.445473	0.627634
	O363	O	0.196335	0.793562	0.948415
	H364	H	0.199780	0.787963	0.930491
	H365	H	0.209483	0.785566	0.934882
	O366	O	0.619798	0.691235	0.672934
	H367	H	0.634763	0.685100	0.656269
	H368	H	0.615495	0.690180	0.664711
	O369	O	-0.566329	0.553440	0.396485
	H370	H	-0.574921	0.550241	0.400561
	H371	H	-0.559754	0.548885	0.387346
	O372	O	0.560344	0.355737	0.415965
	H373	H	0.560073	0.343672	0.413327
	H374	H	0.545799	0.355961	0.419730
	O375	O	0.549716	0.425160	0.461311
	H376	H	0.562972	0.416307	0.467657
	H377	H	0.560784	0.439056	0.461437
	O378	O	1.141939	0.964135	-0.181281
	H379	H	1.138211	0.957322	-0.178434
	H380	H	1.130738	0.975529	-0.188627
	O381	O	0.881409	-0.123315	0.116679
	H382	H	0.873731	-0.129217	0.108956
	H383	H	0.892161	-0.108449	0.126817
	O384	O	0.513334	1.323898	-0.524827
	H385	H	0.523834	1.329450	-0.532681
	H386	H	0.512962	1.318017	-0.512706
	O387	O	-0.167922	-0.126595	0.147640
	H388	H	-0.174082	-0.133297	0.140059
	H389	H	-0.156303	-0.137957	0.165548
	O390	O	0.045360	1.077439	0.104956
	H391	H	0.045347	1.081235	0.097119
	H392	H	0.048032	1.073410	0.102534
	O393	O	1.412471	0.690776	0.446393
	H394	H	1.397626	0.696177	0.453707
	H395	H	1.413446	0.695816	0.458686
	O396	O	0.489978	0.577685	0.588631
	H397	H	0.502355	0.570047	0.588251
	H398	H	0.503430	0.583889	0.579492
	O399	O	-0.015775	1.087504	1.040347
	H400	H	-0.014005	1.091769	1.024109
	H401	H	-0.028039	1.070693	1.045326
	O402	O	0.498205	0.684581	0.530546
	H403	H	0.496837	0.691617	0.541987
	H404	H	0.512051	0.684113	0.527438
	O405	O	0.893720	1.091667	-0.110944
	H406	H	0.907692	1.106386	-0.100078
	H407	H	0.901706	1.087621	-0.109419
	O408	O	0.899702	0.933851	-0.073405
	H409	H	0.890341	0.932634	-0.068398
	H410	H	0.899948	0.931068	-0.074088
	O411	O	0.933945	0.015041	1.015906
	H412	H	0.934400	0.023987	1.014471
	H413	H	0.934552	0.010810	1.008639
	O414	O	0.109402	0.144195	1.188354
	H415	H	0.125630	0.132423	1.180083
	H416	H	0.116255	0.153752	1.212664
	O417	O	0.659931	0.582377	0.488585
	H418	H	0.651939	0.580241	0.480648
	H419	H	0.660146	0.580027	0.461458
