data_Molecule from HDF5

_cell_length_a		16.271069
_cell_length_b		16.249246
_cell_length_c		16.348681
_cell_angle_alpha	89.974555
_cell_angle_beta	90.011355
_cell_angle_gamma	90.025946
_symmetry_space_group_name_H-M	'P 1'
_symmetry_Int_Tables_number		1

loop_
	_symmetry_equiv_pos_as_xyz
	x,y,z

loop_
	_atom_site_label
	_atom_site_type_symbol
	_atom_site_fract_x
	_atom_site_fract_y
	_atom_site_fract_z
	H0	H	0.402382	0.835722	0.713573
	H1	H	0.599440	0.163951	0.714636
	H2	H	0.598123	0.835575	0.286258
	H3	H	0.401533	0.164146	0.285001
	H4	H	0.713867	0.401928	0.836729
	H5	H	0.714758	0.597846	0.163245
	H6	H	0.285592	0.597946	0.836833
	H7	H	0.284414	0.401000	0.162748
	H8	H	0.835476	0.713340	0.402806
	H9	H	0.163960	0.712830	0.595856
	H10	H	0.835467	0.287114	0.596009
	H11	H	0.164397	0.286615	0.402004
	H12	H	0.836264	0.401658	0.714436
	H13	H	0.163506	0.598257	0.713726
	H14	H	0.836306	0.599047	0.285302
	H15	H	0.163564	0.400782	0.283878
	H16	H	0.402236	0.713951	0.836923
	H17	H	0.596471	0.713271	0.164073
	H18	H	0.597460	0.285254	0.837255
	H19	H	0.402426	0.285639	0.163612
	H20	H	0.712772	0.835079	0.404096
	H21	H	0.713675	0.164703	0.596805
	H22	H	0.285908	0.836129	0.597430
	H23	H	0.286339	0.164726	0.403249
	H24	H	0.900779	0.335961	0.215246
	H25	H	0.098645	0.664087	0.213874
	H26	H	0.099821	0.337241	0.784390
	H27	H	0.901546	0.663539	0.785659
	H28	H	0.213869	0.902950	0.336829
	H29	H	0.214783	0.098125	0.663090
	H30	H	0.785198	0.098138	0.336291
	H31	H	0.786448	0.903846	0.663312
	H32	H	0.335878	0.212917	0.903354
	H33	H	0.664416	0.212816	0.097249
	H34	H	0.335836	0.786983	0.096156
	H35	H	0.664453	0.785506	0.902411
	H36	H	0.335851	0.901928	0.213482
	H37	H	0.663898	0.098976	0.214349
	H38	H	0.336255	0.098939	0.784997
	H39	H	0.664260	0.901476	0.785399
	H40	H	0.902808	0.214297	0.336286
	H41	H	0.096397	0.212573	0.663794
	H42	H	0.096569	0.787161	0.336413
	H43	H	0.902258	0.786045	0.663446
	H44	H	0.212870	0.335799	0.902422
	H45	H	0.213972	0.663657	0.097880
	H46	H	0.785932	0.335403	0.097631
	H47	H	0.787239	0.664100	0.903020
	H48	H	0.408955	0.117830	0.599805
	H49	H	0.589331	0.886070	0.588552
	H50	H	0.583833	0.114073	0.403810
	H51	H	0.414508	0.884963	0.402041
	H52	H	0.598303	0.402850	0.118388
	H53	H	0.591784	0.597405	0.883442
	H54	H	0.402923	0.591137	0.116532
	H55	H	0.408063	0.416479	0.887631
	H56	H	0.118901	0.606653	0.411207
	H57	H	0.883105	0.584955	0.600734
	H58	H	0.115554	0.408115	0.590459
	H59	H	0.880377	0.406207	0.396945
	H60	H	0.116544	0.409565	0.596332
	H61	H	0.879419	0.602474	0.596586
	H62	H	0.110504	0.583366	0.413907
	H63	H	0.883599	0.399803	0.413587
	H64	H	0.409638	0.592665	0.115112
	H65	H	0.598478	0.592236	0.883467
	H66	H	0.595837	0.412665	0.115236
	H67	H	0.413643	0.399105	0.883904
	H68	H	0.595685	0.114950	0.415837
	H69	H	0.600576	0.881458	0.593706
	H70	H	0.410638	0.114734	0.589611
	H71	H	0.405517	0.885506	0.414831
	H72	H	0.906316	0.619294	0.101290
	H73	H	0.095300	0.383407	0.090464
	H74	H	0.087734	0.617983	0.899456
	H75	H	0.908392	0.381314	0.899885
	H76	H	0.094055	0.903756	0.617218
	H77	H	0.098562	0.098254	0.380778
	H78	H	0.899978	0.100732	0.619855
	H79	H	0.906391	0.911164	0.385331
	H80	H	0.619200	0.104388	0.908236
	H81	H	0.387767	0.078333	0.093175
	H82	H	0.618087	0.902464	0.093324
	H83	H	0.385989	0.907913	0.911058
	H84	H	0.615731	0.909003	0.091325
	H85	H	0.378000	0.099480	0.106113
	H86	H	0.612106	0.086391	0.915652
	H87	H	0.383669	0.910765	0.901699
	H88	H	0.902436	0.085535	0.614744
	H89	H	0.096214	0.088280	0.385168
	H90	H	0.095955	0.907535	0.615880
	H91	H	0.909430	0.903156	0.383430
	H92	H	0.089620	0.614264	0.914195
	H93	H	0.092304	0.382442	0.097128
	H94	H	0.914905	0.613469	0.091170
	H95	H	0.911995	0.385334	0.910666
	H96	H	0.400965	0.118908	0.592105
	H97	H	0.589514	0.881934	0.600927
	H98	H	0.599149	0.120361	0.399799
	H99	H	0.399690	0.879824	0.401659
	H100	H	0.588109	0.404877	0.115404
	H101	H	0.591153	0.589639	0.886034
	H102	H	0.405446	0.597507	0.118266
	H103	H	0.396347	0.403775	0.880656
	H104	H	0.119417	0.591058	0.392269
	H105	H	0.886223	0.591830	0.583607
	H106	H	0.117887	0.403613	0.594190
	H107	H	0.887856	0.417038	0.409226
	H108	H	0.900871	0.616307	0.088012
	H109	H	0.088081	0.384882	0.091806
	H110	H	0.101002	0.619881	0.905912
	H111	H	0.900350	0.381755	0.909520
	H112	H	0.091512	0.907403	0.615690
	H113	H	0.088337	0.096324	0.385007
	H114	H	0.914509	0.096190	0.614000
	H115	H	0.901356	0.904725	0.381729
	H116	H	0.618027	0.087918	0.896372
	H117	H	0.384923	0.101197	0.080452
	H118	H	0.618071	0.907445	0.097993
	H119	H	0.382362	0.901856	0.904566
	C120	C	0.378823	0.008382	0.621551
	C121	C	0.621476	0.991797	0.621863
	C122	C	0.621193	0.008073	0.378769
	C123	C	0.378822	0.992173	0.378666
	C124	C	0.622160	0.378060	0.008280
	C125	C	0.621947	0.621585	0.992044
	C126	C	0.378103	0.621688	0.008544
	C127	C	0.377906	0.378140	0.991997
	C128	C	0.008090	0.621743	0.377844
	C129	C	0.991023	0.621371	0.621526
	C130	C	0.008300	0.378617	0.621523
	C131	C	0.992182	0.379078	0.378279
	C132	C	0.878598	0.508146	0.121957
	C133	C	0.121223	0.491466	0.121713
	C134	C	0.121203	0.508634	0.878682
	C135	C	0.878385	0.491415	0.878662
	C136	C	0.121517	0.878592	0.508223
	C137	C	0.121918	0.122065	0.491543
	C138	C	0.878071	0.122175	0.507919
	C139	C	0.878131	0.878461	0.491740
	C140	C	0.508115	0.121212	0.878598
	C141	C	0.492049	0.121160	0.121390
	C142	C	0.508550	0.878390	0.121720
	C143	C	0.492282	0.878150	0.877978
	C144	C	0.382158	0.884617	0.675608
	C145	C	0.619133	0.115490	0.676245
	C146	C	0.618475	0.884315	0.324260
	C147	C	0.381125	0.115599	0.323461
	C148	C	0.676417	0.380966	0.885434
	C149	C	0.676820	0.618507	0.114917
	C150	C	0.323658	0.618495	0.885476
	C151	C	0.322687	0.380720	0.114349
	C152	C	0.884472	0.675841	0.381725
	C153	C	0.114985	0.675628	0.617357
	C154	C	0.884543	0.324244	0.617652
	C155	C	0.115586	0.324399	0.381403
	C156	C	0.884964	0.381050	0.676406
	C157	C	0.114534	0.619138	0.676185
	C158	C	0.884860	0.618960	0.323342
	C159	C	0.115235	0.381430	0.323111
	C160	C	0.381736	0.675873	0.885437
	C161	C	0.618370	0.675954	0.115096
	C162	C	0.618531	0.323155	0.885718
	C163	C	0.381381	0.323522	0.114945
	C164	C	0.675481	0.884077	0.382528
	C165	C	0.676078	0.115542	0.618056
	C166	C	0.324517	0.884648	0.617810
	C167	C	0.324023	0.115874	0.381975
	C168	C	0.880637	0.384674	0.177068
	C169	C	0.119147	0.614926	0.176352
	C170	C	0.119099	0.385484	0.823407
	C171	C	0.881006	0.614762	0.823787
	C172	C	0.175958	0.882065	0.385274
	C173	C	0.176413	0.118705	0.614663
	C174	C	0.823508	0.118894	0.385020
	C175	C	0.823597	0.881976	0.614620
	C176	C	0.384908	0.175771	0.881907
	C177	C	0.615284	0.175705	0.118089
	C178	C	0.384700	0.824520	0.117451
	C179	C	0.615637	0.823277	0.881575
	C180	C	0.384950	0.881354	0.175853
	C181	C	0.615197	0.118960	0.176265
	C182	C	0.384995	0.118731	0.823663
	C183	C	0.615565	0.880876	0.823478
	C184	C	0.881797	0.176463	0.384811
	C185	C	0.118234	0.176055	0.614897
	C186	C	0.117775	0.824705	0.385052
	C187	C	0.881212	0.823810	0.614628
	C188	C	0.175604	0.385141	0.881651
	C189	C	0.176451	0.614862	0.118791
	C190	C	0.823934	0.384423	0.118457
	C191	C	0.824464	0.614969	0.882242
	C192	C	0.400419	0.094999	0.600115
	C193	C	0.599686	0.905416	0.600727
	C194	C	0.599348	0.094211	0.400204
	C195	C	0.400338	0.905858	0.399874
	C196	C	0.600351	0.400324	0.094296
	C197	C	0.600131	0.599683	0.906399
	C198	C	0.399583	0.600181	0.094445
	C199	C	0.399778	0.400026	0.906051
	C200	C	0.094130	0.600023	0.399495
	C201	C	0.905126	0.599447	0.600095
	C202	C	0.094318	0.400535	0.600024
	C203	C	0.906026	0.401219	0.400097
	C204	C	0.900829	0.594174	0.100010
	C205	C	0.098591	0.405444	0.099589
	C206	C	0.099194	0.594942	0.900215
	C207	C	0.900558	0.405130	0.900228
	C208	C	0.100038	0.899853	0.594051
	C209	C	0.100586	0.100679	0.405868
	C210	C	0.899402	0.100427	0.593898
	C211	C	0.899621	0.899931	0.405550
	C212	C	0.594527	0.099248	0.900264
	C213	C	0.405766	0.099189	0.099804
	C214	C	0.594952	0.900042	0.100437
	C215	C	0.405999	0.900360	0.899392
	Zn216	Zn	0.500307	0.000276	0.749812
	Zn217	Zn	0.500131	-0.000203	0.249929
	Zn218	Zn	0.750511	0.499675	-0.000094
	Zn219	Zn	0.249298	0.500248	0.000082
	Zn220	Zn	-0.000494	0.749655	0.499698
	Zn221	Zn	0.000363	0.250557	0.499665
	Zn222	Zn	-0.000145	0.500166	0.750627
	Zn223	Zn	0.000114	0.500046	0.249988
	Zn224	Zn	0.500347	0.749820	-0.000007
	Zn225	Zn	0.500018	0.249613	0.000334
	Zn226	Zn	0.749519	0.000016	0.500056
	Zn227	Zn	0.250535	0.000034	0.500096
	N228	N	0.414949	0.962671	0.678002
	N229	N	0.585976	0.037660	0.678714
	N230	N	0.585409	0.962318	0.321790
	N231	N	0.414141	0.037784	0.320997
	N232	N	0.678684	0.414294	0.962709
	N233	N	0.678985	0.585354	0.037485
	N234	N	0.321522	0.585341	0.962915
	N235	N	0.320588	0.413866	0.036959
	N236	N	0.962186	0.677772	0.414806
	N237	N	0.037325	0.677147	0.584130
	N238	N	0.962016	0.322622	0.584278
	N239	N	0.038023	0.322796	0.414959
	N240	N	0.962820	0.414131	0.679052
	N241	N	0.036733	0.585932	0.678668
	N242	N	0.962623	0.585922	0.321103
	N243	N	0.037475	0.414642	0.321183
	N244	N	0.414625	0.678177	0.962928
	N245	N	0.584977	0.677749	0.037837
	N246	N	0.585477	0.321449	0.963098
	N247	N	0.415012	0.321809	0.037731
	N248	N	0.677240	0.961878	0.415646
	N249	N	0.677700	0.037724	0.584883
	N250	N	0.322156	0.962586	0.585024
	N251	N	0.322406	0.038230	0.415423
	N252	N	0.914065	0.462409	0.178977
	N253	N	0.085469	0.537227	0.178239
	N254	N	0.086123	0.463489	0.821217
	N255	N	0.913993	0.536881	0.821532
	N256	N	0.178353	0.914805	0.462736
	N257	N	0.178842	0.085836	0.537222
	N258	N	0.821184	0.085823	0.462533
	N259	N	0.821937	0.915279	0.537262
	N260	N	0.462502	0.177322	0.915321
	N261	N	0.537663	0.177150	0.084696
	N262	N	0.462429	0.822747	0.084375
	N263	N	0.537898	0.821626	0.914768
	N264	N	0.462990	0.913984	0.178780
	N265	N	0.537595	0.085635	0.178293
	N266	N	0.462749	0.085540	0.821588
	N267	N	0.537924	0.914128	0.821149
	N268	N	0.914900	0.178629	0.462249
	N269	N	0.084699	0.177861	0.537598
	N270	N	0.084620	0.822345	0.462410
	N271	N	0.914120	0.821443	0.537174
	N272	N	0.176713	0.462562	0.915624
	N273	N	0.177702	0.537201	0.085388
	N274	N	0.822534	0.462127	0.084838
	N275	N	0.822740	0.537254	0.915321
