data_Molecule from HDF5

_cell_length_a		16.690550
_cell_length_b		16.630206
_cell_length_c		16.454787
_cell_angle_alpha	90.125090
_cell_angle_beta	90.138964
_cell_angle_gamma	90.126143
_symmetry_space_group_name_H-M	'P 1'
_symmetry_Int_Tables_number		1

loop_
	_symmetry_equiv_pos_as_xyz
	x,y,z

loop_
	_atom_site_label
	_atom_site_type_symbol
	_atom_site_fract_x
	_atom_site_fract_y
	_atom_site_fract_z
	H0	H	0.408509	0.850655	0.705990
	H1	H	0.610690	0.166112	0.706012
	H2	H	0.611369	0.852285	0.269839
	H3	H	0.407982	0.165712	0.270406
	H4	H	0.731561	0.404969	0.832663
	H5	H	0.735317	0.618542	0.144867
	H6	H	0.289630	0.613219	0.832833
	H7	H	0.286864	0.398803	0.144168
	H8	H	0.856023	0.731340	0.382033
	H9	H	0.163924	0.735124	0.597876
	H10	H	0.854513	0.290957	0.590212
	H11	H	0.165610	0.286001	0.381325
	H12	H	0.852405	0.411275	0.704306
	H13	H	0.164801	0.615273	0.712330
	H14	H	0.857171	0.614138	0.265777
	H15	H	0.166210	0.403399	0.266917
	H16	H	0.405304	0.729226	0.832608
	H17	H	0.618502	0.731951	0.145577
	H18	H	0.614924	0.289838	0.831846
	H19	H	0.404716	0.286091	0.145218
	H20	H	0.731354	0.853853	0.383237
	H21	H	0.731955	0.164255	0.593935
	H22	H	0.290047	0.852215	0.591593
	H23	H	0.289179	0.165133	0.383297
	H24	H	0.909213	0.353181	0.208332
	H25	H	0.119775	0.663661	0.213482
	H26	H	0.112044	0.352321	0.769620
	H27	H	0.907797	0.666518	0.769882
	H28	H	0.228322	0.905129	0.330590
	H29	H	0.229357	0.112429	0.647050
	H30	H	0.788276	0.115372	0.332864
	H31	H	0.792079	0.906766	0.647509
	H32	H	0.358904	0.233494	0.879169
	H33	H	0.666222	0.229529	0.094433
	H34	H	0.357380	0.781989	0.098443
	H35	H	0.666354	0.786813	0.884379
	H36	H	0.355394	0.900663	0.212600
	H37	H	0.666092	0.112221	0.209826
	H38	H	0.356671	0.113477	0.766070
	H39	H	0.668079	0.905560	0.769122
	H40	H	0.905339	0.230622	0.332434
	H41	H	0.113572	0.227480	0.647476
	H42	H	0.113444	0.789030	0.331218
	H43	H	0.908079	0.791712	0.647820
	H44	H	0.231946	0.353419	0.881812
	H45	H	0.237798	0.661893	0.099117
	H46	H	0.789363	0.355049	0.095829
	H47	H	0.788781	0.665276	0.883921
	H48	H	0.418899	0.122876	0.582081
	H49	H	0.601994	0.895970	0.577884
	H50	H	0.599833	0.121144	0.400391
	H51	H	0.421625	0.897619	0.400911
	H52	H	0.602426	0.419835	0.103621
	H53	H	0.600355	0.593888	0.877569
	H54	H	0.432162	0.595141	0.098654
	H55	H	0.421331	0.419239	0.875659
	H56	H	0.123389	0.604354	0.403454
	H57	H	0.896709	0.603138	0.582299
	H58	H	0.123072	0.416770	0.579001
	H59	H	0.901708	0.420388	0.403176
	H60	H	0.121846	0.419914	0.578938
	H61	H	0.899172	0.603723	0.574972
	H62	H	0.118806	0.596911	0.407883
	H63	H	0.901218	0.422167	0.398953
	H64	H	0.421644	0.601987	0.104499
	H65	H	0.596031	0.595820	0.878500
	H66	H	0.600238	0.421184	0.101742
	H67	H	0.421939	0.423442	0.877646
	H68	H	0.600932	0.121002	0.400500
	H69	H	0.601096	0.896103	0.577188
	H70	H	0.423709	0.118876	0.577129
	H71	H	0.416966	0.896466	0.402701
	H72	H	0.928588	0.620265	0.080147
	H73	H	0.105029	0.395389	0.078978
	H74	H	0.101611	0.620447	0.902175
	H75	H	0.920586	0.400006	0.903518
	H76	H	0.095751	0.920681	0.601117
	H77	H	0.104217	0.092912	0.375806
	H78	H	0.924906	0.103106	0.601582
	H79	H	0.920029	0.917691	0.375464
	H80	H	0.622868	0.101466	0.901532
	H81	H	0.400844	0.096812	0.075676
	H82	H	0.620919	0.915249	0.072210
	H83	H	0.400238	0.920655	0.896238
	H84	H	0.616981	0.927210	0.074422
	H85	H	0.398569	0.096895	0.077482
	H86	H	0.621389	0.097148	0.902005
	H87	H	0.398437	0.913692	0.897050
	H88	H	0.916427	0.101552	0.604480
	H89	H	0.093630	0.098573	0.377594
	H90	H	0.102164	0.920527	0.603289
	H91	H	0.918418	0.920751	0.375156
	H92	H	0.099784	0.620003	0.902712
	H93	H	0.094718	0.398283	0.080105
	H94	H	0.922275	0.619312	0.071066
	H95	H	0.914768	0.395788	0.898753
	H96	H	0.416278	0.121160	0.574640
	H97	H	0.602024	0.895921	0.576817
	H98	H	0.600852	0.121462	0.399643
	H99	H	0.417736	0.895891	0.397969
	H100	H	0.599394	0.418712	0.103389
	H101	H	0.599540	0.598574	0.875951
	H102	H	0.420456	0.589003	0.100940
	H103	H	0.425148	0.419708	0.877687
	H104	H	0.122361	0.595912	0.398745
	H105	H	0.899397	0.597239	0.578921
	H106	H	0.123662	0.418807	0.581547
	H107	H	0.899656	0.417705	0.400069
	H108	H	0.918039	0.623893	0.080497
	H109	H	0.099506	0.400461	0.070819
	H110	H	0.101400	0.620231	0.904227
	H111	H	0.922430	0.397350	0.895821
	H112	H	0.099925	0.925757	0.599417
	H113	H	0.102713	0.104722	0.372263
	H114	H	0.921025	0.094899	0.600771
	H115	H	0.921676	0.920512	0.375942
	H116	H	0.623219	0.098192	0.897708
	H117	H	0.399979	0.099108	0.076126
	H118	H	0.622153	0.920349	0.083533
	H119	H	0.401115	0.917747	0.902673
	C120	C	0.388670	0.017153	0.609716
	C121	C	0.632221	0.999908	0.609528
	C122	C	0.631579	0.017945	0.367932
	C123	C	0.387821	1.000200	0.367946
	C124	C	0.632463	0.388373	-0.001462
	C125	C	0.632026	0.629824	0.980878
	C126	C	0.390895	0.628487	-0.002004
	C127	C	0.389831	0.387070	0.980300
	C128	C	0.019177	0.630895	0.369057
	C129	C	1.001546	0.632946	0.611781
	C130	C	0.019057	0.388545	0.610105
	C131	C	1.002979	0.387499	0.367917
	C132	C	0.890488	0.518416	0.110407
	C133	C	0.134020	0.500089	0.110856
	C134	C	0.132154	0.517602	0.868891
	C135	C	0.888479	0.501300	0.867811
	C136	C	0.130530	0.889499	0.497317
	C137	C	0.131724	0.130198	0.479883
	C138	C	0.889382	0.131064	0.497914
	C139	C	0.889668	0.888890	0.480665
	C140	C	0.520029	0.130546	0.867363
	C141	C	0.502031	0.130030	0.109910
	C142	C	0.518107	0.887229	0.110325
	C143	C	0.503110	0.886356	0.867250
	C144	C	0.388753	0.898378	0.667498
	C145	C	0.631202	0.118678	0.667313
	C146	C	0.631518	0.899644	0.308950
	C147	C	0.388447	0.118570	0.309417
	C148	C	0.691605	0.386670	0.879925
	C149	C	0.693964	0.634786	0.098207
	C150	C	0.329820	0.631394	0.880051
	C151	C	0.328179	0.382193	0.097459
	C152	C	0.902711	0.690880	0.364624
	C153	C	0.117999	0.693719	0.615450
	C154	C	0.900963	0.330875	0.609444
	C155	C	0.119116	0.326680	0.364309
	C156	C	0.899857	0.390583	0.665964
	C157	C	0.118231	0.634675	0.672503
	C158	C	0.903355	0.632738	0.306674
	C159	C	0.119716	0.385167	0.307249
	C160	C	0.387401	0.689065	0.879883
	C161	C	0.636190	0.691688	0.098513
	C162	C	0.633790	0.329147	0.879522
	C163	C	0.386634	0.325911	0.097987
	C164	C	0.690827	0.900375	0.365568
	C165	C	0.691332	0.117749	0.611934
	C166	C	0.329782	0.899127	0.610611
	C167	C	0.329228	0.118035	0.365512
	C168	C	0.889520	0.400660	0.169622
	C169	C	0.137930	0.616782	0.172798
	C170	C	0.131741	0.399684	0.808786
	C171	C	0.888035	0.619412	0.808904
	C172	C	0.189330	0.886809	0.378181
	C173	C	0.190001	0.131228	0.599385
	C174	C	0.828799	0.133447	0.379807
	C175	C	0.831691	0.888348	0.600013
	C176	C	0.404508	0.191988	0.862574
	C177	C	0.619419	0.189379	0.112503
	C178	C	0.403014	0.823978	0.115266
	C179	C	0.620048	0.827007	0.865620
	C180	C	0.402148	0.883054	0.172121
	C181	C	0.619210	0.131288	0.170189
	C182	C	0.403385	0.132222	0.806398
	C183	C	0.620784	0.885815	0.808332
	C184	C	0.887144	0.190471	0.379526
	C185	C	0.132401	0.188377	0.599603
	C186	C	0.131652	0.829440	0.378415
	C187	C	0.889279	0.830989	0.600214
	C188	C	0.191438	0.400167	0.864799
	C189	C	0.196458	0.616034	0.115933
	C190	C	0.829848	0.401535	0.113683
	C191	C	0.829291	0.618791	0.865787
	C192	C	0.412697	0.099463	0.585206
	C193	C	0.608412	0.917505	0.584615
	C194	C	0.607524	0.099931	0.393043
	C195	C	0.411924	0.918158	0.393232
	C196	C	0.607716	0.412919	0.081310
	C197	C	0.606004	0.603761	0.898840
	C198	C	0.417233	0.602737	0.080050
	C199	C	0.415621	0.413309	0.898347
	C200	C	0.100443	0.606169	0.395723
	C201	C	0.919675	0.608497	0.586029
	C202	C	0.101381	0.411885	0.586706
	C203	C	0.922041	0.412859	0.393473
	C204	C	0.915702	0.599937	0.084794
	C205	C	0.107305	0.419074	0.084220
	C206	C	0.107921	0.598958	0.895330
	C207	C	0.912532	0.419270	0.892239
	C208	C	0.106248	0.915024	0.579675
	C209	C	0.107186	0.105649	0.396776
	C210	C	0.913825	0.106582	0.580815
	C211	C	0.913344	0.912679	0.397310
	C212	C	0.601524	0.105651	0.893163
	C213	C	0.420838	0.104802	0.083748
	C214	C	0.599002	0.913457	0.084033
	C215	C	0.421258	0.910384	0.891511
	Zn216	Zn	0.511422	0.008046	0.738259
	Zn217	Zn	0.509487	0.008911	0.239583
	Zn218	Zn	0.760666	0.509858	-0.010233
	Zn219	Zn	0.261940	0.508041	-0.010535
	Zn220	Zn	0.010357	0.760880	0.489451
	Zn221	Zn	0.011284	0.258624	0.489099
	Zn222	Zn	0.010405	0.510285	0.739784
	Zn223	Zn	0.012605	0.509635	0.239106
	Zn224	Zn	0.511490	0.757329	-0.010421
	Zn225	Zn	0.511474	0.259817	-0.010855
	Zn226	Zn	0.761334	0.009495	0.488555
	Zn227	Zn	0.259407	0.009162	0.488478
	N228	N	0.424466	0.972989	0.667511
	N229	N	0.595592	0.044197	0.666131
	N230	N	0.595424	0.973646	0.310326
	N231	N	0.424048	0.044201	0.310519
	N232	N	0.690973	0.422777	0.954971
	N233	N	0.691536	0.596897	0.024133
	N234	N	0.331901	0.594615	0.954642
	N235	N	0.329901	0.419531	0.023188
	N236	N	0.975781	0.689711	0.402779
	N237	N	0.044021	0.693127	0.578905
	N238	N	0.976078	0.329196	0.575932
	N239	N	0.045559	0.328063	0.401360
	N240	N	0.974464	0.425548	0.666967
	N241	N	0.044661	0.597638	0.670196
	N242	N	0.976971	0.596069	0.309281
	N243	N	0.046535	0.422468	0.308985
	N244	N	0.424639	0.687665	0.954429
	N245	N	0.597976	0.688424	0.024595
	N246	N	0.597836	0.329994	0.954444
	N247	N	0.424295	0.328650	0.023941
	N248	N	0.691131	0.975006	0.401485
	N249	N	0.692372	0.042720	0.577022
	N250	N	0.329479	0.974078	0.575734
	N251	N	0.328809	0.043448	0.401161
	N252	N	0.926496	0.474458	0.167913
	N253	N	0.099692	0.543687	0.169727
	N254	N	0.095784	0.473972	0.810619
	N255	N	0.923989	0.545256	0.809985
	N256	N	0.188524	0.923685	0.452860
	N257	N	0.189866	0.095947	0.523848
	N258	N	0.830096	0.097110	0.454515
	N259	N	0.831546	0.923463	0.524539
	N260	N	0.478114	0.190953	0.899901
	N261	N	0.545439	0.189034	0.075888
	N262	N	0.476019	0.826741	0.077231
	N263	N	0.545853	0.826942	0.901184
	N264	N	0.474726	0.921942	0.169068
	N265	N	0.545201	0.094945	0.168769
	N266	N	0.476325	0.094460	0.809302
	N267	N	0.546875	0.921871	0.808926
	N268	N	0.923956	0.189291	0.454064
	N269	N	0.096948	0.188153	0.524157
	N270	N	0.095723	0.830762	0.453447
	N271	N	0.924161	0.830688	0.524664
	N272	N	0.192009	0.474414	0.901308
	N273	N	0.194069	0.542304	0.078224
	N274	N	0.830258	0.475930	0.077638
	N275	N	0.829107	0.544253	0.901408
	O276	O	-0.152417	0.997858	0.213944
	H277	H	-0.165350	0.991047	0.216611
	H278	H	-0.168841	0.997953	0.213077
	O279	O	0.655045	0.389683	0.450630
	H280	H	0.642599	0.393940	0.465966
	H281	H	0.660673	0.383654	0.453667
	O282	O	0.618257	-0.696843	1.316783
	H283	H	0.631502	-0.703007	1.308885
	H284	H	0.622742	-0.707374	1.310030
	O285	O	0.289719	0.518027	0.553619
	H286	H	0.295330	0.502059	0.543983
	H287	H	0.285544	0.492333	0.566057
	O288	O	0.314200	0.435230	0.435968
	H289	H	0.309359	0.424144	0.425360
	H290	H	0.318952	0.426712	0.428619
	O291	O	0.695041	0.693768	0.304710
	H292	H	0.702826	0.701408	0.287266
	H293	H	0.702997	0.692585	0.304364
	O294	O	0.963670	0.227476	0.773687
	H295	H	0.938593	0.231360	0.761663
	H296	H	0.939291	0.239853	0.760990
	O297	O	0.580754	0.564024	0.530951
	H298	H	0.581546	0.576325	0.526512
	H299	H	0.579114	0.576556	0.517868
	O300	O	-0.285344	-0.291448	0.692842
	H301	H	-0.271590	-0.282398	0.701001
	H302	H	-0.282868	-0.305211	0.656725
	O303	O	0.446506	0.718954	0.514586
	H304	H	0.444011	0.714671	0.534740
	H305	H	0.471683	0.719456	0.513980
	O306	O	0.730364	0.729586	0.530157
	H307	H	0.740783	0.744237	0.524761
	H308	H	0.743626	0.718088	0.518480
	O309	O	0.514482	0.498353	0.263527
	H310	H	0.500145	0.505852	0.264472
	H311	H	0.532961	0.481417	0.261628
	O312	O	0.542321	0.722333	0.712853
	H313	H	0.544496	0.747433	0.742182
	H314	H	0.585163	0.720367	0.704370
	O315	O	0.908179	1.113066	1.113310
	H316	H	0.901287	1.095129	1.112716
	H317	H	0.894546	1.133952	1.118929
	O318	O	0.713639	0.522793	0.648168
	H319	H	0.719774	0.534095	0.657043
	H320	H	0.711458	0.507211	0.648017
	O321	O	0.045772	1.212437	1.200516
	H322	H	0.024603	1.208984	1.191088
	H323	H	0.027685	1.228273	1.207724
	O324	O	0.957371	0.907476	0.086877
	H325	H	0.943818	0.893793	0.091294
	H326	H	0.973185	0.904503	0.092949
	O327	O	-0.498805	0.550560	0.686362
	H328	H	-0.490016	0.573664	0.694412
	H329	H	-0.514919	0.568714	0.691056
	O330	O	0.376505	0.299653	0.694776
	H331	H	0.355578	0.270790	0.725138
	H332	H	0.387531	0.298888	0.692328
	O333	O	0.398448	0.341213	0.407449
	H334	H	0.388965	0.342159	0.425474
	H335	H	0.400801	0.353403	0.407472
	O336	O	0.888045	0.225918	0.018673
	H337	H	0.875301	0.234992	-0.006578
	H338	H	0.898572	0.229591	-0.007129
	O339	O	0.982483	-0.198724	0.896965
	H340	H	0.989203	-0.206387	0.880269
	H341	H	1.004641	-0.194869	0.896790
	O342	O	-0.201201	-0.202699	0.200598
	H343	H	-0.167170	-0.185902	0.202794
	H344	H	-0.202575	-0.195579	0.166454
	O345	O	0.066321	1.062913	0.869879
	H346	H	0.066603	1.063299	0.878900
	H347	H	0.059303	1.059480	0.868497
	O348	O	0.121023	0.153278	0.797452
	H349	H	0.111113	0.135397	0.804891
	H350	H	0.097883	0.160180	0.796047
	O351	O	0.546523	0.626705	0.284002
	H352	H	0.568350	0.614823	0.274312
	H353	H	0.546186	0.623141	0.279019
	O354	O	-0.425599	0.451221	0.668298
	H355	H	-0.454032	0.458152	0.679330
	H356	H	-0.422058	0.462251	0.673232
	O357	O	0.205969	0.083436	0.179595
	H358	H	0.188505	0.096236	0.181514
	H359	H	0.225779	0.080295	0.197613
	O360	O	0.057609	-0.210648	1.002538
	H361	H	0.065606	-0.196721	0.997967
	H362	H	0.058794	-0.212378	0.997363
	O363	O	0.069058	0.030985	0.096775
	H364	H	0.087829	0.041403	0.098598
	H365	H	0.059760	0.037389	0.107798
	O366	O	0.715358	0.535652	0.491889
	H367	H	0.706610	0.535599	0.485330
	H368	H	0.710636	0.536989	0.485919
	O369	O	0.884603	-0.015830	-0.200447
	H370	H	0.893040	-0.025021	-0.203133
	H371	H	0.894288	-0.010465	-0.173383
	O372	O	0.796230	1.222703	0.199397
	H373	H	0.798231	1.211693	0.189610
	H374	H	0.802283	1.229417	0.190213
	O375	O	0.843935	-0.169688	-0.189850
	H376	H	0.857827	-0.154395	-0.171694
	H377	H	0.852047	-0.171752	-0.189452
	O378	O	0.718181	0.326211	0.392803
	H379	H	0.745439	0.299388	0.370277
	H380	H	0.712343	0.318716	0.424413
	O381	O	-0.171013	0.808587	1.039664
	H382	H	-0.165804	0.817537	1.032967
	H383	H	-0.169027	0.804822	1.029402
	O384	O	0.795536	0.165472	0.984017
	H385	H	0.779986	0.177777	0.966414
	H386	H	0.795789	0.166079	0.952629
	O387	O	0.810369	0.990221	-0.049832
	H388	H	0.816147	0.995597	-0.057958
	H389	H	0.815331	0.991205	-0.060903
	O390	O	0.318946	0.697792	0.673655
	H391	H	0.314412	0.696978	0.654326
	H392	H	0.302896	0.698944	0.683758
	O393	O	0.424514	0.500821	0.692828
	H394	H	0.410731	0.521234	0.697093
	H395	H	0.418785	0.519174	0.694120
	O396	O	0.042602	0.882882	0.796178
	H397	H	0.047889	0.889420	0.795124
	H398	H	0.060430	0.867858	0.791243
	O399	O	0.233777	0.220908	1.003311
	H400	H	0.244270	0.233961	1.021462
	H401	H	0.234077	0.228239	1.028322
	O402	O	0.295494	0.525900	0.272510
	H403	H	0.305422	0.549974	0.277384
	H404	H	0.269089	0.534131	0.250213
	O405	O	0.992836	-0.201247	1.187818
	H406	H	1.008452	-0.191104	1.181381
	H407	H	0.992383	-0.212115	1.195271
	O408	O	0.216833	-0.193755	-0.214378
	H409	H	0.219329	-0.189708	-0.201999
	H410	H	0.208865	-0.175098	-0.198058
	O411	O	0.576634	0.735004	0.447783
	H412	H	0.577649	0.734580	0.456966
	H413	H	0.592976	0.729512	0.429488
	O414	O	0.798256	0.221847	0.784510
	H415	H	0.768439	0.245592	0.750883
	H416	H	0.789094	0.172225	0.774051
	O417	O	0.702977	0.320968	0.659202
	H418	H	0.677199	0.342814	0.649680
	H419	H	0.693426	0.334292	0.630367
	O420	O	0.295072	0.716142	0.460608
	H421	H	0.298228	0.719426	0.477866
	H422	H	0.296743	0.715497	0.472574
	O423	O	-0.189237	0.042845	0.773786
	H424	H	-0.198434	0.033401	0.751827
	H425	H	-0.168649	0.025929	0.770813
	O426	O	0.416312	0.620712	0.366278
	H427	H	0.429768	0.620673	0.370366
	H428	H	0.421758	0.609494	0.377854
	O429	O	1.190611	0.809870	1.163322
	H430	H	1.179085	0.811824	1.154205
	H431	H	1.200867	0.795768	1.188002
	O432	O	0.692404	0.459430	0.456222
	H433	H	0.681054	0.470305	0.452157
	H434	H	0.691577	0.455370	0.457677
	O435	O	-0.121963	1.003635	0.015514
	H436	H	-0.119776	1.017033	0.001304
	H437	H	-0.129780	1.016590	0.021154
	O438	O	0.490085	0.294345	0.605907
	H439	H	0.505858	0.302151	0.621693
	H440	H	0.484902	0.297230	0.600801
	O441	O	0.237356	0.061406	-0.080802
	H442	H	0.234584	0.064537	-0.055789
	H443	H	0.247045	0.059715	-0.072196
	O444	O	0.732652	0.474581	0.284346
	H445	H	0.735771	0.450939	0.274680
	H446	H	0.745493	0.469322	0.272965
	O447	O	0.230328	1.133618	1.203275
	H448	H	0.240101	1.162999	1.223750
	H449	H	0.213662	1.131639	1.221531
	O450	O	0.224718	0.790313	0.961562
	H451	H	0.240941	0.779639	0.969776
	H452	H	0.226827	0.794164	0.967110
	O453	O	0.246812	-0.054735	1.038952
	H454	H	0.251394	-0.064323	1.047599
	H455	H	0.246997	-0.044853	1.068038
	O456	O	0.087726	0.020971	1.024297
	H457	H	0.090086	0.021216	1.019970
	H458	H	0.095649	0.028780	1.037263
	O459	O	0.945412	0.997364	-0.018593
	H460	H	0.957954	1.004619	-0.013837
	H461	H	0.948506	0.993385	-0.006054
	O462	O	0.319062	0.706554	0.295000
	H463	H	0.339449	0.705018	0.302590
	H464	H	0.324196	0.696280	0.324596
	O465	O	0.988153	0.010856	0.177578
	H466	H	0.974872	0.006482	0.187810
	H467	H	0.993649	0.011371	0.180046
	O468	O	0.342258	0.473947	0.619746
	H469	H	0.338023	0.444441	0.607006
	H470	H	0.321608	0.481939	0.633082
	O471	O	0.284888	0.288085	0.517157
	H472	H	0.290147	0.297586	0.544935
	H473	H	0.258660	0.258247	0.525865
	O474	O	0.379029	0.386750	0.287918
	H475	H	0.396739	0.404124	0.305203
	H476	H	0.370404	0.404498	0.292437
	O477	O	0.469630	0.502945	1.528585
	H478	H	0.464088	0.512648	1.548552
	H479	H	0.478796	0.512995	1.521682
	O480	O	0.526317	0.302178	0.392057
	H481	H	0.526750	0.296273	0.387789
	H482	H	0.518353	0.318640	0.378837
	O483	O	0.251407	0.241350	0.755574
	H484	H	0.243654	0.244841	0.765182
	H485	H	0.223625	0.217303	0.779408
	O486	O	1.232957	-0.026114	0.771882
	H487	H	1.231079	-0.024947	0.800013
	H488	H	1.269511	-0.020876	0.740595
	O489	O	1.030325	1.236190	-0.018787
	H490	H	1.036727	1.239336	-0.028329
	H491	H	1.035371	1.230430	-0.023689
