data_Molecule from HDF5

_cell_length_a		16.279411
_cell_length_b		16.291420
_cell_length_c		16.178636
_cell_angle_alpha	89.123345
_cell_angle_beta	90.611017
_cell_angle_gamma	90.058091
_symmetry_space_group_name_H-M	'P 1'
_symmetry_Int_Tables_number		1

loop_
	_symmetry_equiv_pos_as_xyz
	x,y,z

loop_
	_atom_site_label
	_atom_site_type_symbol
	_atom_site_fract_x
	_atom_site_fract_y
	_atom_site_fract_z
	H0	H	0.408414	0.838655	0.719647
	H1	H	0.606441	0.165679	0.715016
	H2	H	0.603011	0.837105	0.293464
	H3	H	0.405760	0.164161	0.283183
	H4	H	0.717366	0.406210	0.839175
	H5	H	0.722812	0.600414	0.166492
	H6	H	0.287834	0.606755	0.839862
	H7	H	0.294192	0.401049	0.167944
	H8	H	0.842077	0.717545	0.400848
	H9	H	0.168565	0.716452	0.604472
	H10	H	0.843249	0.281494	0.605822
	H11	H	0.168731	0.286768	0.406354
	H12	H	0.841684	0.400581	0.717699
	H13	H	0.169078	0.597176	0.719171
	H14	H	0.842564	0.602376	0.284843
	H15	H	0.170043	0.405834	0.293316
	H16	H	0.403774	0.720922	0.840003
	H17	H	0.606159	0.714403	0.167856
	H18	H	0.604640	0.291479	0.838411
	H19	H	0.406027	0.283046	0.165120
	H20	H	0.719996	0.838510	0.408091
	H21	H	0.723775	0.163473	0.603100
	H22	H	0.291518	0.837500	0.604194
	H23	H	0.287171	0.162669	0.395924
	H24	H	0.907158	0.338689	0.220307
	H25	H	0.105113	0.666300	0.216948
	H26	H	0.102574	0.336881	0.795262
	H27	H	0.905044	0.663660	0.782957
	H28	H	0.218720	0.901099	0.338625
	H29	H	0.225997	0.098675	0.664915
	H30	H	0.789352	0.103375	0.339534
	H31	H	0.791980	0.897157	0.667379
	H32	H	0.342721	0.221612	0.896540
	H33	H	0.668778	0.217730	0.102689
	H34	H	0.343099	0.784120	0.104696
	H35	H	0.668128	0.787295	0.905589
	H36	H	0.343144	0.900607	0.217710
	H37	H	0.669564	0.099932	0.217786
	H38	H	0.342304	0.103164	0.782571
	H39	H	0.670560	0.907760	0.793702
	H40	H	0.903924	0.219921	0.340445
	H41	H	0.109886	0.212453	0.667924
	H42	H	0.103521	0.788919	0.338846
	H43	H	0.906300	0.781841	0.666158
	H44	H	0.222254	0.340391	0.906288
	H45	H	0.223017	0.665379	0.104034
	H46	H	0.790244	0.338764	0.104842
	H47	H	0.788397	0.665120	0.898429
	H48	H	0.411826	0.114059	0.579109
	H49	H	0.595879	0.887140	0.597009
	H50	H	0.607847	0.120421	0.411888
	H51	H	0.414485	0.885014	0.409042
	H52	H	0.596578	0.408339	0.119825
	H53	H	0.594068	0.596525	0.886454
	H54	H	0.411049	0.588817	0.120360
	H55	H	0.417234	0.413685	0.887280
	H56	H	0.121760	0.595132	0.411742
	H57	H	0.888618	0.597391	0.591543
	H58	H	0.122656	0.412555	0.607362
	H59	H	0.889593	0.406148	0.417956
	H60	H	0.125086	0.396956	0.600782
	H61	H	0.891837	0.589704	0.587546
	H62	H	0.122622	0.596673	0.411405
	H63	H	0.892328	0.416378	0.413517
	H64	H	0.419370	0.592988	0.118971
	H65	H	0.596200	0.599843	0.884937
	H66	H	0.598521	0.408749	0.120710
	H67	H	0.408760	0.409669	0.883434
	H68	H	0.595252	0.119603	0.399430
	H69	H	0.602625	0.885251	0.596997
	H70	H	0.408305	0.120555	0.595118
	H71	H	0.410710	0.885041	0.414153
	H72	H	0.908692	0.621271	0.096917
	H73	H	0.103224	0.386077	0.097055
	H74	H	0.093911	0.617992	0.908314
	H75	H	0.911149	0.384413	0.908762
	H76	H	0.091002	0.900693	0.619712
	H77	H	0.089949	0.090320	0.389495
	H78	H	0.906994	0.097406	0.625688
	H79	H	0.914513	0.912257	0.387747
	H80	H	0.621109	0.094598	0.908378
	H81	H	0.392956	0.090193	0.084460
	H82	H	0.621366	0.907045	0.094149
	H83	H	0.389395	0.909692	0.912752
	H84	H	0.622269	0.912276	0.098251
	H85	H	0.389590	0.088900	0.097532
	H86	H	0.622536	0.100070	0.907679
	H87	H	0.390229	0.913809	0.911568
	H88	H	0.912618	0.079655	0.617304
	H89	H	0.092644	0.102404	0.385185
	H90	H	0.108991	0.904967	0.623475
	H91	H	0.910470	0.907705	0.384748
	H92	H	0.095778	0.617436	0.912767
	H93	H	0.100073	0.385236	0.103221
	H94	H	0.920011	0.616576	0.095058
	H95	H	0.911905	0.386764	0.915337
	H96	H	0.424247	0.114929	0.591797
	H97	H	0.597975	0.883823	0.603098
	H98	H	0.591947	0.114811	0.417110
	H99	H	0.407758	0.883508	0.408563
	H100	H	0.597330	0.409923	0.119781
	H101	H	0.599093	0.596199	0.885625
	H102	H	0.412501	0.598775	0.123918
	H103	H	0.408382	0.419483	0.886537
	H104	H	0.121353	0.596843	0.412832
	H105	H	0.889119	0.589490	0.596325
	H106	H	0.118790	0.408977	0.590786
	H107	H	0.887397	0.409025	0.406397
	H108	H	0.911560	0.616535	0.085680
	H109	H	0.096050	0.387612	0.097164
	H110	H	0.099376	0.618847	0.909777
	H111	H	0.905300	0.383789	0.913268
	H112	H	0.096988	0.917893	0.616291
	H113	H	0.102163	0.093143	0.384530
	H114	H	0.926292	0.094039	0.618357
	H115	H	0.908471	0.914086	0.386190
	H116	H	0.621778	0.098528	0.913198
	H117	H	0.387936	0.100880	0.090736
	H118	H	0.624041	0.905675	0.100301
	H119	H	0.388486	0.910659	0.908606
	C120	C	0.385586	0.009338	0.621237
	C121	C	0.628767	0.992965	0.626185
	C122	C	0.626809	0.010009	0.382251
	C123	C	0.382124	0.991977	0.378710
	C124	C	0.626233	0.381605	0.011469
	C125	C	0.626539	0.624540	0.994356
	C126	C	0.383918	0.624555	0.012585
	C127	C	0.383383	0.382119	0.993941
	C128	C	0.014489	0.625296	0.380652
	C129	C	0.997431	0.621533	0.623335
	C130	C	0.014430	0.376534	0.627881
	C131	C	0.997635	0.381534	0.384065
	C132	C	0.883815	0.510599	0.124132
	C133	C	0.128436	0.494129	0.126867
	C134	C	0.126097	0.510292	0.883087
	C135	C	0.881414	0.493009	0.880587
	C136	C	0.126617	0.879601	0.511326
	C137	C	0.127249	0.122614	0.494335
	C138	C	0.884720	0.121759	0.512561
	C139	C	0.883275	0.879494	0.494346
	C140	C	0.514026	0.127151	0.878195
	C141	C	0.497560	0.122868	0.122263
	C142	C	0.514668	0.878772	0.126100
	C143	C	0.497249	0.882459	0.882976
	C144	C	0.387577	0.887171	0.680642
	C145	C	0.626657	0.116373	0.678520
	C146	C	0.623918	0.886538	0.329652
	C147	C	0.384839	0.114846	0.321355
	C148	C	0.680408	0.385393	0.888160
	C149	C	0.683759	0.620998	0.117863
	C150	C	0.326349	0.625777	0.889026
	C151	C	0.330343	0.381343	0.118190
	C152	C	0.891234	0.680511	0.380639
	C153	C	0.119985	0.677487	0.623448
	C154	C	0.891791	0.320335	0.625457
	C155	C	0.120211	0.325541	0.386448
	C156	C	0.891058	0.379420	0.681334
	C157	C	0.120328	0.618213	0.680576
	C158	C	0.891282	0.623052	0.323220
	C159	C	0.120759	0.384570	0.330045
	C160	C	0.384053	0.682557	0.889079
	C161	C	0.625704	0.677546	0.118539
	C162	C	0.624250	0.328205	0.887952
	C163	C	0.385740	0.322180	0.116493
	C164	C	0.682002	0.886993	0.386641
	C165	C	0.685323	0.115246	0.622944
	C166	C	0.329854	0.886623	0.622827
	C167	C	0.325527	0.114141	0.377165
	C168	C	0.886309	0.387763	0.182066
	C169	C	0.125886	0.617127	0.180473
	C170	C	0.123547	0.386648	0.831167
	C171	C	0.884158	0.615143	0.821887
	C172	C	0.181031	0.882089	0.387761
	C173	C	0.186617	0.119220	0.616678
	C174	C	0.827489	0.122801	0.389017
	C175	C	0.829123	0.878453	0.618075
	C176	C	0.391555	0.183294	0.877463
	C177	C	0.620220	0.179113	0.122039
	C178	C	0.391929	0.822697	0.123836
	C179	C	0.619843	0.826452	0.885799
	C180	C	0.391884	0.880392	0.180472
	C181	C	0.620518	0.120383	0.179369
	C182	C	0.391480	0.124608	0.820561
	C183	C	0.621066	0.886244	0.830009
	C184	C	0.884305	0.180776	0.389397
	C185	C	0.128453	0.175605	0.618229
	C186	C	0.123629	0.825837	0.387796
	C187	C	0.886021	0.820926	0.617399
	C188	C	0.183073	0.388268	0.886763
	C189	C	0.184767	0.616620	0.124591
	C190	C	0.828003	0.387820	0.124493
	C191	C	0.826504	0.615984	0.879615
	C192	C	0.408162	0.094383	0.596012
	C193	C	0.605728	0.907431	0.605160
	C194	C	0.604677	0.095897	0.403279
	C195	C	0.404399	0.906498	0.403279
	C196	C	0.603999	0.402878	0.097987
	C197	C	0.603222	0.603641	0.908150
	C198	C	0.407355	0.600411	0.098635
	C199	C	0.404945	0.407084	0.907918
	C200	C	0.099746	0.602863	0.404686
	C201	C	0.911968	0.598773	0.598975
	C202	C	0.100115	0.399455	0.606130
	C203	C	0.912042	0.403972	0.406171
	C204	C	0.906599	0.595903	0.099734
	C205	C	0.106269	0.408677	0.105473
	C206	C	0.103234	0.595912	0.904101
	C207	C	0.902977	0.407252	0.905265
	C208	C	0.105137	0.901407	0.597601
	C209	C	0.102159	0.101450	0.408548
	C210	C	0.908409	0.097378	0.598177
	C211	C	0.904714	0.904136	0.408512
	C212	C	0.599809	0.104540	0.902631
	C213	C	0.412236	0.100104	0.097939
	C214	C	0.600270	0.901467	0.104027
	C215	C	0.411582	0.904927	0.904530
	Zn216	Zn	0.506013	0.002804	0.752244
	Zn217	Zn	0.505879	0.001276	0.252558
	Zn218	Zn	0.753920	0.502288	0.002829
	Zn219	Zn	0.255867	0.503478	0.004386
	Zn220	Zn	0.005610	0.752685	0.502431
	Zn221	Zn	0.006000	0.250511	0.504535
	Zn222	Zn	0.004680	0.499844	0.753762
	Zn223	Zn	0.005824	0.502651	0.253875
	Zn224	Zn	0.505237	0.751961	0.003918
	Zn225	Zn	0.505415	0.254068	0.001260
	Zn226	Zn	0.755713	0.001045	0.503932
	Zn227	Zn	0.254355	0.000236	0.501277
	N228	N	0.421484	0.964574	0.679984
	N229	N	0.592316	0.039355	0.680970
	N230	N	0.590417	0.963995	0.326826
	N231	N	0.419086	0.037768	0.321978
	N232	N	0.681579	0.418099	0.966069
	N233	N	0.684560	0.588833	0.039805
	N234	N	0.326110	0.590440	0.966857
	N235	N	0.328722	0.417821	0.041013
	N236	N	0.968602	0.682095	0.415719
	N237	N	0.042618	0.679367	0.588477
	N238	N	0.969569	0.318395	0.593144
	N239	N	0.042586	0.323592	0.419383
	N240	N	0.968431	0.413495	0.683200
	N241	N	0.042975	0.584040	0.680554
	N242	N	0.968808	0.589542	0.322843
	N243	N	0.043484	0.418803	0.328482
	N244	N	0.418880	0.682017	0.966802
	N245	N	0.590840	0.679850	0.040652
	N246	N	0.591024	0.325844	0.965820
	N247	N	0.418093	0.322520	0.038227
	N248	N	0.684174	0.964874	0.418426
	N249	N	0.686664	0.037488	0.590957
	N250	N	0.328758	0.963494	0.586422
	N251	N	0.323571	0.036698	0.412118
	N252	N	0.920484	0.465116	0.181804
	N253	N	0.091518	0.540090	0.182097
	N254	N	0.088619	0.463388	0.828893
	N255	N	0.917508	0.537644	0.822482
	N256	N	0.182980	0.914965	0.465577
	N257	N	0.186072	0.087209	0.538545
	N258	N	0.827657	0.086737	0.466453
	N259	N	0.827256	0.914380	0.540662
	N260	N	0.469033	0.184899	0.912489
	N261	N	0.542880	0.180643	0.087021
	N262	N	0.469452	0.821366	0.090798
	N263	N	0.541821	0.823760	0.917612
	N264	N	0.469058	0.914844	0.182043
	N265	N	0.543196	0.086124	0.179616
	N266	N	0.468763	0.090580	0.820824
	N267	N	0.543843	0.920745	0.828489
	N268	N	0.919129	0.180394	0.467143
	N269	N	0.092248	0.177916	0.541026
	N270	N	0.090483	0.824362	0.465550
	N271	N	0.919036	0.821675	0.539590
	N272	N	0.184636	0.466184	0.918420
	N273	N	0.186415	0.539370	0.091761
	N274	N	0.826208	0.465155	0.089313
	N275	N	0.824895	0.538936	0.915664
	O276	O	0.471937	0.544729	0.595430
	H277	H	0.470524	0.550504	0.595820
	H278	H	0.468137	0.536273	0.594355
	O279	O	0.488534	0.490886	0.517757
	H280	H	0.503023	0.485346	0.520590
	H281	H	0.489019	0.483271	0.529171
	O282	O	0.978330	0.899835	0.123715
	H283	H	0.980321	0.900049	0.120937
	H284	H	0.982392	0.897764	0.130922
	O285	O	1.010192	0.003572	0.918858
	H286	H	1.007143	-0.005968	0.921047
	H287	H	1.003329	0.010645	0.912688
	O288	O	0.493375	0.471242	0.450485
	H289	H	0.485953	0.455806	0.459440
	H290	H	0.491428	0.461859	0.445150
	O291	O	0.593897	0.514760	0.574899
	H292	H	0.590038	0.534432	0.573518
	H293	H	0.607552	0.519500	0.593627
	O294	O	0.486906	0.466945	0.425686
	H295	H	0.492883	0.481881	0.413726
	H296	H	0.479495	0.474257	0.419206
	O297	O	-0.044005	-0.140684	1.030163
	H298	H	-0.046416	-0.146032	1.023639
	H299	H	-0.037318	-0.143504	1.018928
	O300	O	0.016756	0.076612	-0.035467
	H301	H	0.017963	0.070241	-0.027937
	H302	H	0.012703	0.083493	-0.033272
	O303	O	0.905713	1.017762	0.020768
	H304	H	0.901089	1.018171	0.025293
	H305	H	0.907078	1.016656	0.030599
	O306	O	0.127377	1.049356	1.176319
	H307	H	0.130528	1.060892	1.176458
	H308	H	0.133217	1.056376	1.177585
	O309	O	0.483841	0.546943	0.452474
	H310	H	0.485077	0.542662	0.458899
	H311	H	0.474069	0.559035	0.449784
	O312	O	-0.028885	-0.027516	0.017542
	H313	H	-0.030459	-0.026124	0.013918
	H314	H	-0.017005	-0.033992	0.024075
	O315	O	1.040686	0.086721	0.098033
	H316	H	1.038799	0.094959	0.102174
	H317	H	1.033524	0.087725	0.081152
	O318	O	0.972309	1.021295	0.961286
	H319	H	0.964710	1.012950	0.956235
	H320	H	0.963230	1.020236	0.972897
	O321	O	-0.088413	-0.019548	0.982315
	H322	H	-0.090099	-0.035873	0.987609
	H323	H	-0.089340	-0.020688	0.971567
	O324	O	0.471578	0.382315	0.498452
	H325	H	0.471017	0.378523	0.514773
	H326	H	0.453467	0.383150	0.486434
	O327	O	-0.036414	0.161324	-0.139428
	H328	H	-0.046400	0.176036	-0.155997
	H329	H	-0.052242	0.167143	-0.137081
	O330	O	0.547685	0.605901	0.498142
	H331	H	0.543128	0.605604	0.494260
	H332	H	0.545438	0.609185	0.484297
	O333	O	0.103664	1.002729	0.959139
	H334	H	0.099194	0.994380	0.959692
	H335	H	0.099846	1.009494	0.942125
	O336	O	0.058303	0.006338	-0.007489
	H337	H	0.061019	0.007863	0.000472
	H338	H	0.045552	0.026685	-0.008857
	O339	O	0.513818	0.564522	0.514962
	H340	H	0.512325	0.558649	0.515500
	H341	H	0.522327	0.570172	0.519388
	O342	O	1.041281	1.023322	0.929842
	H343	H	1.046193	1.025448	0.928174
	H344	H	1.034659	1.020937	0.938485
	O345	O	1.035656	0.974792	-0.011056
	H346	H	1.049610	0.976797	-0.017345
	H347	H	1.043355	0.987112	-0.002036
	O348	O	0.576167	0.603846	0.456745
	H349	H	0.564889	0.606192	0.451943
	H350	H	0.574614	0.604136	0.455358
	O351	O	0.398249	0.407424	0.583959
	H352	H	0.409363	0.403482	0.588189
	H353	H	0.396947	0.398997	0.584068
	O354	O	0.699988	0.383597	0.627713
	H355	H	0.702162	0.381911	0.623252
	H356	H	0.698164	0.390269	0.620387
	O357	O	1.134433	-0.072836	0.960907
	H358	H	1.151018	-0.083198	0.966236
	H359	H	1.126314	-0.059464	0.963779
	O360	O	0.517160	0.402284	0.550851
	H361	H	0.528151	0.398465	0.569914
	H362	H	0.527506	0.406663	0.544647
	O363	O	0.471924	0.555103	0.449716
	H364	H	0.470678	0.556555	0.454617
	H365	H	0.472174	0.558636	0.448865
	O366	O	0.406414	1.378396	0.566734
	H367	H	0.404661	1.372271	0.560837
	H368	H	0.411793	1.385441	0.576724
	O369	O	0.858493	0.004260	1.084050
	H370	H	0.857061	-0.006787	1.095026
	H371	H	0.871133	-0.015236	1.085196
	O372	O	0.127377	0.028513	0.055685
	H373	H	0.138746	0.040217	0.051633
	H374	H	0.135016	0.023599	0.058887
	O375	O	0.878359	0.022618	0.059278
	H376	H	0.874589	0.020134	0.050671
	H377	H	0.878822	0.014668	0.078100
	O378	O	0.575465	0.532298	0.480891
	H379	H	0.572700	0.541290	0.486659
	H380	H	0.570611	0.528044	0.483362
	O381	O	0.481901	0.370384	0.515842
	H382	H	0.476578	0.362785	0.510204
	H383	H	0.483434	0.370376	0.519969
