data_Molecule from HDF5

_cell_length_a		16.279332
_cell_length_b		16.297222
_cell_length_c		16.270720
_cell_angle_alpha	90.033334
_cell_angle_beta	89.887145
_cell_angle_gamma	90.051804
_symmetry_space_group_name_H-M	'P 1'
_symmetry_Int_Tables_number		1

loop_
	_symmetry_equiv_pos_as_xyz
	x,y,z

loop_
	_atom_site_label
	_atom_site_type_symbol
	_atom_site_fract_x
	_atom_site_fract_y
	_atom_site_fract_z
	H0	H	0.404003	0.845217	0.713380
	H1	H	0.599695	0.172751	0.714943
	H2	H	0.599370	0.845520	0.285412
	H3	H	0.404165	0.172677	0.286206
	H4	H	0.717554	0.408345	0.836752
	H5	H	0.714272	0.606667	0.163881
	H6	H	0.286989	0.607529	0.836440
	H7	H	0.286306	0.410358	0.163164
	H8	H	0.837896	0.723613	0.400546
	H9	H	0.165190	0.723970	0.597984
	H10	H	0.837827	0.294610	0.598000
	H11	H	0.165421	0.294754	0.400780
	H12	H	0.837901	0.411344	0.713353
	H13	H	0.165742	0.607542	0.713679
	H14	H	0.837855	0.607801	0.285100
	H15	H	0.165123	0.410776	0.285057
	H16	H	0.403038	0.722903	0.835767
	H17	H	0.599561	0.723849	0.163301
	H18	H	0.599863	0.293920	0.836072
	H19	H	0.402614	0.295116	0.163497
	H20	H	0.715811	0.845414	0.401186
	H21	H	0.716095	0.172564	0.599184
	H22	H	0.286245	0.845606	0.598082
	H23	H	0.289370	0.173506	0.403250
	H24	H	0.902614	0.344821	0.214290
	H25	H	0.099502	0.672934	0.214341
	H26	H	0.098305	0.344944	0.786109
	H27	H	0.903415	0.672319	0.785327
	H28	H	0.216039	0.910247	0.335424
	H29	H	0.214277	0.106807	0.663761
	H30	H	0.787926	0.106874	0.335224
	H31	H	0.786032	0.909684	0.663569
	H32	H	0.336916	0.222800	0.900926
	H33	H	0.663949	0.224526	0.097983
	H34	H	0.336707	0.795688	0.095853
	H35	H	0.664982	0.794078	0.899420
	H36	H	0.336684	0.911172	0.213280
	H37	H	0.665023	0.107336	0.212672
	H38	H	0.337416	0.106227	0.785915
	H39	H	0.664994	0.910813	0.784294
	H40	H	0.904123	0.222456	0.335560
	H41	H	0.098751	0.223114	0.663413
	H42	H	0.101250	0.793529	0.336114
	H43	H	0.901649	0.793339	0.663068
	H44	H	0.213763	0.344617	0.903406
	H45	H	0.216727	0.672279	0.099465
	H46	H	0.786024	0.345694	0.099619
	H47	H	0.787353	0.672262	0.901988
	H48	H	0.403323	0.125836	0.589459
	H49	H	0.584154	0.893709	0.600314
	H50	H	0.599440	0.128484	0.398799
	H51	H	0.403544	0.892860	0.410418
	H52	H	0.589722	0.420662	0.113570
	H53	H	0.591354	0.597245	0.885628
	H54	H	0.405049	0.599155	0.116584
	H55	H	0.409915	0.403948	0.880198
	H56	H	0.117470	0.595528	0.403143
	H57	H	0.883835	0.603861	0.595093
	H58	H	0.118537	0.412430	0.590740
	H59	H	0.885607	0.423559	0.402473
	H60	H	0.117482	0.418813	0.591498
	H61	H	0.886316	0.602295	0.589710
	H62	H	0.120852	0.608229	0.403866
	H63	H	0.881659	0.407821	0.400958
	H64	H	0.412890	0.602042	0.114158
	H65	H	0.592898	0.606321	0.882341
	H66	H	0.590957	0.409371	0.117201
	H67	H	0.395813	0.419449	0.880282
	H68	H	0.587098	0.124244	0.405163
	H69	H	0.591628	0.897406	0.580075
	H70	H	0.405307	0.128026	0.598631
	H71	H	0.407033	0.890595	0.400649
	H72	H	0.900587	0.626949	0.093847
	H73	H	0.098360	0.389878	0.096899
	H74	H	0.097603	0.624005	0.913932
	H75	H	0.915635	0.396081	0.912808
	H76	H	0.086937	0.921076	0.612159
	H77	H	0.092426	0.104411	0.382834
	H78	H	0.907465	0.103043	0.616711
	H79	H	0.909997	0.915633	0.383595
	H80	H	0.616133	0.094737	0.903930
	H81	H	0.384098	0.100561	0.094888
	H82	H	0.620609	0.915672	0.100230
	H83	H	0.382847	0.911764	0.904052
	H84	H	0.618061	0.908895	0.086875
	H85	H	0.383289	0.104550	0.092813
	H86	H	0.620494	0.107284	0.901872
	H87	H	0.386850	0.914281	0.911403
	H88	H	0.907639	0.101696	0.615158
	H89	H	0.098724	0.104743	0.381438
	H90	H	0.092903	0.908273	0.617187
	H91	H	0.908548	0.914964	0.382684
	H92	H	0.099903	0.628820	0.901594
	H93	H	0.088887	0.394548	0.094757
	H94	H	0.912982	0.625985	0.099323
	H95	H	0.900669	0.391072	0.910292
	H96	H	0.412465	0.123430	0.592445
	H97	H	0.604524	0.888500	0.595372
	H98	H	0.599956	0.124679	0.412901
	H99	H	0.413287	0.894290	0.407645
	H100	H	0.599508	0.416991	0.117520
	H101	H	0.599913	0.599620	0.881603
	H102	H	0.406707	0.607033	0.118511
	H103	H	0.415259	0.423427	0.886904
	H104	H	0.115073	0.601814	0.414053
	H105	H	0.885835	0.598176	0.594710
	H106	H	0.119398	0.415129	0.596300
	H107	H	0.886447	0.413544	0.415558
	H108	H	0.911153	0.621993	0.086074
	H109	H	0.096661	0.394021	0.087008
	H110	H	0.087854	0.623158	0.904949
	H111	H	0.911365	0.390984	0.897995
	H112	H	0.101342	0.920482	0.616842
	H113	H	0.096143	0.098901	0.383729
	H114	H	0.908627	0.103037	0.616343
	H115	H	0.908085	0.917513	0.384022
	H116	H	0.615757	0.103754	0.914098
	H117	H	0.385489	0.101099	0.090163
	H118	H	0.613868	0.923548	0.089098
	H119	H	0.385408	0.919928	0.904669
	C120	C	0.379106	0.017770	0.621518
	C121	C	0.622188	1.001433	0.621005
	C122	C	0.623304	0.017296	0.377699
	C123	C	0.379842	1.000610	0.378166
	C124	C	0.622453	0.387011	0.008006
	C125	C	0.622907	0.630249	0.991222
	C126	C	0.379991	0.630518	0.007990
	C127	C	0.379088	0.387182	0.991151
	C128	C	0.009679	0.630113	0.378302
	C129	C	0.993374	0.630622	0.621552
	C130	C	0.010217	0.387390	0.620837
	C131	C	0.993082	0.387306	0.378058
	C132	C	0.879759	0.516724	0.121707
	C133	C	0.123191	0.500888	0.121560
	C134	C	0.122931	0.517197	0.878152
	C135	C	0.880305	0.500648	0.878311
	C136	C	0.122974	0.887549	0.507738
	C137	C	0.123193	0.130681	0.490999
	C138	C	0.879916	0.130477	0.507785
	C139	C	0.879292	0.886922	0.491507
	C140	C	0.509190	0.130268	0.878281
	C141	C	0.492366	0.130734	0.121126
	C142	C	0.509300	0.887316	0.120629
	C143	C	0.492961	0.887031	0.877343
	C144	C	0.382504	0.894221	0.676061
	C145	C	0.620068	0.124114	0.676713
	C146	C	0.620286	0.894368	0.322770
	C147	C	0.383002	0.123974	0.323686
	C148	C	0.678936	0.388682	0.885327
	C149	C	0.676862	0.627622	0.114788
	C150	C	0.324866	0.627875	0.885062
	C151	C	0.324367	0.389780	0.114546
	C152	C	0.886438	0.685016	0.380747
	C153	C	0.116524	0.685951	0.618640
	C154	C	0.886763	0.332589	0.618527
	C155	C	0.116511	0.332565	0.380403
	C156	C	0.886789	0.390518	0.675815
	C157	C	0.116601	0.628595	0.676390
	C158	C	0.886624	0.627968	0.322943
	C159	C	0.116503	0.390464	0.323226
	C160	C	0.382525	0.685189	0.884780
	C161	C	0.620005	0.685822	0.114389
	C162	C	0.620467	0.331929	0.884881
	C163	C	0.382049	0.332531	0.114442
	C164	C	0.678002	0.894215	0.380660
	C165	C	0.677799	0.123950	0.619062
	C166	C	0.324418	0.894240	0.618687
	C167	C	0.325952	0.124283	0.381690
	C168	C	0.882191	0.393976	0.176698
	C169	C	0.120176	0.624005	0.176486
	C170	C	0.119639	0.393845	0.823527
	C171	C	0.882855	0.623456	0.823143
	C172	C	0.178449	0.889488	0.384535
	C173	C	0.177031	0.127545	0.614589
	C174	C	0.825844	0.127005	0.384187
	C175	C	0.823606	0.889293	0.614441
	C176	C	0.385961	0.184961	0.880847
	C177	C	0.615380	0.186197	0.118479
	C178	C	0.385834	0.832842	0.117379
	C179	C	0.616164	0.831983	0.879177
	C180	C	0.385907	0.890148	0.175815
	C181	C	0.615848	0.127984	0.175393
	C182	C	0.385959	0.126981	0.823779
	C183	C	0.616163	0.890029	0.821987
	C184	C	0.883245	0.184806	0.384219
	C185	C	0.119685	0.185399	0.614431
	C186	C	0.121231	0.831595	0.384846
	C187	C	0.881362	0.831604	0.614414
	C188	C	0.176899	0.393800	0.881496
	C189	C	0.178636	0.623688	0.119485
	C190	C	0.824337	0.394208	0.119573
	C191	C	0.825415	0.623702	0.881316
	C192	C	0.400658	0.103461	0.599833
	C193	C	0.599980	0.915586	0.598594
	C194	C	0.601760	0.103643	0.399340
	C195	C	0.401402	0.914899	0.399988
	C196	C	0.599996	0.409206	0.093797
	C197	C	0.601110	0.607876	0.905408
	C198	C	0.401778	0.608861	0.094321
	C199	C	0.400790	0.408953	0.904764
	C200	C	0.095542	0.608264	0.400365
	C201	C	0.907543	0.608156	0.599567
	C202	C	0.096181	0.409026	0.599202
	C203	C	0.906964	0.408696	0.399882
	C204	C	0.901874	0.602789	0.099491
	C205	C	0.101229	0.415070	0.099359
	C206	C	0.101318	0.603045	0.900259
	C207	C	0.902541	0.414934	0.900566
	C208	C	0.100370	0.910091	0.593287
	C209	C	0.102028	0.109108	0.404960
	C210	C	0.901561	0.109005	0.593835
	C211	C	0.902219	0.909314	0.405592
	C212	C	0.595352	0.108400	0.900183
	C213	C	0.406515	0.108403	0.099125
	C214	C	0.595312	0.909552	0.098538
	C215	C	0.407248	0.908914	0.899970
	Zn216	Zn	0.501184	0.009244	0.749644
	Zn217	Zn	0.501209	0.009299	0.249268
	Zn218	Zn	0.751477	0.508718	-0.000116
	Zn219	Zn	0.251844	0.509180	-0.000318
	Zn220	Zn	0.001403	0.758888	0.499450
	Zn221	Zn	0.001498	0.259112	0.499443
	Zn222	Zn	0.001971	0.508973	0.749230
	Zn223	Zn	0.001138	0.509015	0.249781
	Zn224	Zn	0.501798	0.758574	-0.000884
	Zn225	Zn	0.500517	0.259050	-0.000570
	Zn226	Zn	0.751036	0.009229	0.499976
	Zn227	Zn	0.251387	0.008940	0.499397
	N228	N	0.415880	0.971862	0.677796
	N229	N	0.586459	0.046646	0.678074
	N230	N	0.587087	0.972012	0.320807
	N231	N	0.415899	0.046412	0.321252
	N232	N	0.680396	0.422258	0.963055
	N233	N	0.678974	0.593710	0.037316
	N234	N	0.323474	0.594456	0.962716
	N235	N	0.322287	0.423006	0.036899
	N236	N	0.963851	0.686592	0.414512
	N237	N	0.038848	0.687450	0.585386
	N238	N	0.964321	0.330553	0.585060
	N239	N	0.038805	0.330380	0.413681
	N240	N	0.964531	0.423922	0.677448
	N241	N	0.038906	0.594976	0.678374
	N242	N	0.964211	0.594536	0.321251
	N243	N	0.038790	0.423684	0.321394
	N244	N	0.416067	0.687014	0.962300
	N245	N	0.587359	0.687726	0.036511
	N246	N	0.585899	0.330937	0.961968
	N247	N	0.415387	0.331080	0.036698
	N248	N	0.680156	0.971915	0.413746
	N249	N	0.679119	0.046622	0.585115
	N250	N	0.322184	0.971736	0.585480
	N251	N	0.323948	0.046564	0.414848
	N252	N	0.915649	0.471496	0.178209
	N253	N	0.086559	0.546610	0.178066
	N254	N	0.086852	0.471589	0.821165
	N255	N	0.916414	0.545978	0.821502
	N256	N	0.179608	0.923600	0.461765
	N257	N	0.179521	0.094309	0.536853
	N258	N	0.823739	0.093784	0.461978
	N259	N	0.822277	0.922972	0.536826
	N260	N	0.463627	0.187031	0.914141
	N261	N	0.537594	0.188129	0.085570
	N262	N	0.463559	0.830899	0.083957
	N263	N	0.538672	0.830044	0.913082
	N264	N	0.463697	0.923389	0.177740
	N265	N	0.538406	0.094093	0.177032
	N266	N	0.463623	0.093846	0.822012
	N267	N	0.538563	0.923409	0.820727
	N268	N	0.916410	0.186946	0.461902
	N269	N	0.086815	0.187371	0.536694
	N270	N	0.087419	0.830162	0.462571
	N271	N	0.915273	0.830012	0.536918
	N272	N	0.179067	0.471370	0.914952
	N273	N	0.180323	0.546265	0.085760
	N274	N	0.822756	0.471649	0.085948
	N275	N	0.823537	0.546294	0.914763
	O276	O	0.516340	0.561673	0.461982
	H277	H	0.511144	0.575928	0.451722
	H278	H	0.512208	0.554916	0.462913
	O279	O	0.001596	-0.054832	-0.020871
	H280	H	-0.001462	-0.064804	-0.021173
	H281	H	0.007863	-0.056423	-0.024011
	O282	O	1.011030	-0.042798	0.987796
	H283	H	1.022052	-0.040204	0.988921
	H284	H	0.999710	-0.051948	0.981736
	O285	O	0.556043	0.566135	0.489816
	H286	H	0.555781	0.564237	0.485778
	H287	H	0.558524	0.573564	0.486943
	O288	O	1.012714	-0.043262	0.000210
	H289	H	1.010819	-0.040643	0.005973
	H290	H	1.013870	-0.049200	-0.002408
	O291	O	-0.446617	0.533138	-0.477016
	H292	H	-0.443798	0.533663	-0.473816
	H293	H	-0.441535	0.541031	-0.477158
	O294	O	0.563890	0.547640	0.529103
	H295	H	0.563681	0.553708	0.536587
	H296	H	0.569372	0.548280	0.521581
	O297	O	-0.023397	0.946013	-0.001740
	H298	H	-0.024637	0.942212	-0.004000
	H299	H	-0.021636	0.950154	0.004810
	O300	O	0.939149	-0.062123	1.011364
	H301	H	0.935174	-0.064621	1.013180
	H302	H	0.934620	-0.055218	1.018825
	O303	O	0.562350	0.514138	0.494421
	H304	H	0.564275	0.502757	0.495383
	H305	H	0.557285	0.515968	0.487653
	O306	O	-0.042190	0.970062	1.062216
	H307	H	-0.046694	0.981711	1.058924
	H308	H	-0.033055	0.969742	1.063808
	O309	O	0.509617	0.581814	0.478960
	H310	H	0.511542	0.578498	0.494452
	H311	H	0.510457	0.580460	0.479580
