data_Molecule from HDF5

_cell_length_a		16.273125
_cell_length_b		16.269443
_cell_length_c		16.422323
_cell_angle_alpha	89.859397
_cell_angle_beta	89.812704
_cell_angle_gamma	89.900236
_symmetry_space_group_name_H-M	'P 1'
_symmetry_Int_Tables_number		1

loop_
	_symmetry_equiv_pos_as_xyz
	x,y,z

loop_
	_atom_site_label
	_atom_site_type_symbol
	_atom_site_fract_x
	_atom_site_fract_y
	_atom_site_fract_z
	H0	H	0.393999	0.838376	0.721876
	H1	H	0.597640	0.162891	0.718518
	H2	H	0.600692	0.839825	0.282215
	H3	H	0.389454	0.161015	0.284622
	H4	H	0.708965	0.401702	0.840554
	H5	H	0.709888	0.603940	0.162217
	H6	H	0.273328	0.604037	0.840363
	H7	H	0.270392	0.397796	0.162210
	H8	H	0.831769	0.718311	0.401098
	H9	H	0.156261	0.712274	0.603539
	H10	H	0.829785	0.282127	0.601383
	H11	H	0.157161	0.284418	0.402024
	H12	H	0.829495	0.396050	0.719993
	H13	H	0.153420	0.599010	0.719854
	H14	H	0.830237	0.602323	0.285412
	H15	H	0.152610	0.393787	0.280592
	H16	H	0.391099	0.720150	0.840253
	H17	H	0.593624	0.719807	0.162742
	H18	H	0.591085	0.286318	0.838965
	H19	H	0.384573	0.279294	0.160923
	H20	H	0.710806	0.837248	0.402376
	H21	H	0.710844	0.162445	0.601439
	H22	H	0.278929	0.836320	0.606130
	H23	H	0.276226	0.160330	0.401746
	H24	H	0.884745	0.337917	0.221727
	H25	H	0.094816	0.659910	0.222031
	H26	H	0.092137	0.337530	0.787553
	H27	H	0.886726	0.659935	0.781727
	H28	H	0.216356	0.894428	0.342944
	H29	H	0.209579	0.096283	0.665477
	H30	H	0.777413	0.101045	0.340905
	H31	H	0.776696	0.897962	0.663499
	H32	H	0.328255	0.215190	0.902051
	H33	H	0.654804	0.218657	0.099035
	H34	H	0.329987	0.786823	0.104069
	H35	H	0.654878	0.784675	0.902265
	H36	H	0.333273	0.898645	0.223327
	H37	H	0.655127	0.107065	0.220436
	H38	H	0.332529	0.104602	0.781943
	H39	H	0.656451	0.900544	0.786933
	H40	H	0.893784	0.216959	0.341041
	H41	H	0.096512	0.217068	0.663946
	H42	H	0.100011	0.777926	0.342701
	H43	H	0.894663	0.781935	0.664150
	H44	H	0.208764	0.339729	0.900147
	H45	H	0.206729	0.662876	0.103309
	H46	H	0.772531	0.338069	0.102439
	H47	H	0.778742	0.664476	0.903603
	H48	H	0.400454	0.112094	0.583958
	H49	H	0.589912	0.882918	0.594320
	H50	H	0.589897	0.117416	0.410980
	H51	H	0.410399	0.885279	0.412391
	H52	H	0.585482	0.412311	0.115888
	H53	H	0.579211	0.599262	0.886759
	H54	H	0.391690	0.592199	0.117361
	H55	H	0.397684	0.406508	0.885094
	H56	H	0.108716	0.586016	0.407645
	H57	H	0.882103	0.586199	0.582366
	H58	H	0.104530	0.407868	0.582519
	H59	H	0.880926	0.416176	0.415696
	H60	H	0.106958	0.418964	0.603978
	H61	H	0.876747	0.581327	0.601564
	H62	H	0.108103	0.589692	0.411866
	H63	H	0.875106	0.407291	0.403175
	H64	H	0.401865	0.587842	0.113157
	H65	H	0.588290	0.594654	0.885263
	H66	H	0.575856	0.413928	0.112695
	H67	H	0.396767	0.413963	0.887572
	H68	H	0.583435	0.116946	0.407391
	H69	H	0.582805	0.883298	0.600291
	H70	H	0.396203	0.119643	0.600148
	H71	H	0.406544	0.884890	0.415560
	H72	H	0.898771	0.615348	0.094942
	H73	H	0.079494	0.386191	0.087592
	H74	H	0.085016	0.616706	0.911254
	H75	H	0.898751	0.381576	0.904443
	H76	H	0.085713	0.906752	0.617056
	H77	H	0.084296	0.090344	0.389766
	H78	H	0.897215	0.089206	0.617740
	H79	H	0.909799	0.912056	0.390742
	H80	H	0.609423	0.092872	0.905828
	H81	H	0.376930	0.092643	0.094673
	H82	H	0.606683	0.911330	0.089416
	H83	H	0.375299	0.907906	0.906722
	H84	H	0.608664	0.914261	0.094357
	H85	H	0.379924	0.087077	0.091027
	H86	H	0.610110	0.097888	0.909333
	H87	H	0.378540	0.910936	0.916344
	H88	H	0.906161	0.086450	0.614769
	H89	H	0.088177	0.092243	0.388503
	H90	H	0.085204	0.904794	0.616576
	H91	H	0.904467	0.903115	0.386825
	H92	H	0.080850	0.618688	0.904292
	H93	H	0.081873	0.384249	0.092402
	H94	H	0.901939	0.615124	0.095701
	H95	H	0.903626	0.386136	0.913828
	H96	H	0.412691	0.113334	0.596072
	H97	H	0.581759	0.887456	0.591238
	H98	H	0.583171	0.113852	0.414039
	H99	H	0.405722	0.883243	0.410734
	H100	H	0.578140	0.404832	0.116081
	H101	H	0.580693	0.588871	0.890518
	H102	H	0.401207	0.599337	0.116867
	H103	H	0.403631	0.410519	0.888683
	H104	H	0.106194	0.584261	0.411932
	H105	H	0.873130	0.600808	0.594139
	H106	H	0.113683	0.395513	0.601458
	H107	H	0.876873	0.400078	0.417503
	H108	H	0.900850	0.614290	0.092847
	H109	H	0.076172	0.385866	0.092335
	H110	H	0.076168	0.614888	0.910929
	H111	H	0.893003	0.383240	0.914186
	H112	H	0.086999	0.904907	0.616788
	H113	H	0.087591	0.087637	0.389415
	H114	H	0.904972	0.096161	0.617836
	H115	H	0.898945	0.912049	0.387741
	H116	H	0.607994	0.092104	0.912223
	H117	H	0.378591	0.087102	0.097994
	H118	H	0.609567	0.908464	0.092944
	H119	H	0.378787	0.918168	0.908614
	C120	C	0.373248	0.008067	0.624659
	C121	C	0.615550	0.991870	0.624081
	C122	C	0.616296	0.009091	0.380977
	C123	C	0.374627	0.990931	0.382427
	C124	C	0.611147	0.380658	0.008868
	C125	C	0.612976	0.623709	0.993856
	C126	C	0.368657	0.623808	0.009636
	C127	C	0.367821	0.379076	0.993290
	C128	C	0.001084	0.619172	0.380874
	C129	C	0.984339	0.619033	0.623201
	C130	C	0.000629	0.376803	0.624892
	C131	C	0.984640	0.377312	0.381089
	C132	C	0.869200	0.508097	0.124547
	C133	C	0.110881	0.491981	0.121673
	C134	C	0.111325	0.509454	0.880212
	C135	C	0.869311	0.491134	0.880731
	C136	C	0.117779	0.874714	0.511338
	C137	C	0.116583	0.119754	0.495251
	C138	C	0.872683	0.121107	0.510356
	C139	C	0.873510	0.877848	0.494682
	C140	C	0.501694	0.123414	0.879455
	C141	C	0.484877	0.122445	0.124130
	C142	C	0.501733	0.880287	0.124155
	C143	C	0.484852	0.881293	0.881184
	C144	C	0.373963	0.886534	0.683090
	C145	C	0.616124	0.114354	0.679830
	C146	C	0.618250	0.887749	0.322156
	C147	C	0.372062	0.112554	0.324426
	C148	C	0.669276	0.381839	0.888157
	C149	C	0.671120	0.623307	0.114211
	C150	C	0.312080	0.623860	0.888568
	C151	C	0.309259	0.378608	0.113733
	C152	C	0.879830	0.678545	0.381791
	C153	C	0.106802	0.674577	0.622750
	C154	C	0.878434	0.319938	0.622411
	C155	C	0.107432	0.321434	0.381900
	C156	C	0.878271	0.376972	0.681079
	C157	C	0.105608	0.618073	0.680873
	C158	C	0.879152	0.620997	0.324052
	C159	C	0.105291	0.375919	0.321414
	C160	C	0.370451	0.681872	0.888777
	C161	C	0.612888	0.680761	0.114637
	C162	C	0.611088	0.324121	0.887578
	C163	C	0.366331	0.319491	0.113187
	C164	C	0.673102	0.886265	0.381958
	C165	C	0.672461	0.114027	0.621713
	C166	C	0.316912	0.885495	0.625217
	C167	C	0.315159	0.112157	0.382436
	C168	C	0.867010	0.386279	0.182287
	C169	C	0.112163	0.612632	0.181015
	C170	C	0.111741	0.386677	0.824958
	C171	C	0.869028	0.612551	0.822149
	C172	C	0.176938	0.874779	0.390934
	C173	C	0.172250	0.117547	0.616716
	C174	C	0.816048	0.120366	0.389301
	C175	C	0.815763	0.878037	0.615501
	C176	C	0.377984	0.178214	0.881055
	C177	C	0.606187	0.180680	0.120862
	C178	C	0.379195	0.824263	0.124001
	C179	C	0.606649	0.823319	0.882418
	C180	C	0.380866	0.879751	0.183476
	C181	C	0.606426	0.124961	0.181170
	C182	C	0.380151	0.123104	0.821569
	C183	C	0.607527	0.881242	0.825282
	C184	C	0.873807	0.178363	0.389239
	C185	C	0.115652	0.177418	0.616077
	C186	C	0.118846	0.817092	0.390672
	C187	C	0.874343	0.820364	0.615745
	C188	C	0.169900	0.387942	0.880933
	C189	C	0.168127	0.613967	0.122114
	C190	C	0.810837	0.386546	0.123173
	C191	C	0.814995	0.614645	0.882532
	C192	C	0.396371	0.092966	0.600393
	C193	C	0.591803	0.906692	0.601721
	C194	C	0.592465	0.093894	0.404188
	C195	C	0.400145	0.906373	0.405965
	C196	C	0.586883	0.403764	0.093063
	C197	C	0.589592	0.600857	0.909511
	C198	C	0.391564	0.600035	0.093825
	C199	C	0.392288	0.403313	0.908973
	C200	C	0.085589	0.593983	0.403778
	C201	C	0.899215	0.595964	0.599644
	C202	C	0.086282	0.400459	0.602433
	C203	C	0.899887	0.400933	0.405112
	C204	C	0.893598	0.593003	0.101520
	C205	C	0.086340	0.407436	0.097714
	C206	C	0.087475	0.594672	0.902220
	C207	C	0.891868	0.405845	0.903985
	C208	C	0.093079	0.898496	0.595044
	C209	C	0.093446	0.096747	0.410963
	C210	C	0.895977	0.097500	0.594891
	C211	C	0.897422	0.901912	0.410418
	C212	C	0.586893	0.100963	0.902481
	C213	C	0.400364	0.096653	0.101165
	C214	C	0.586329	0.904409	0.099491
	C215	C	0.399813	0.905298	0.903911
	Zn216	Zn	0.494856	0.001800	0.752076
	Zn217	Zn	0.495015	0.000686	0.253226
	Zn218	Zn	0.741403	0.501162	0.001959
	Zn219	Zn	0.239226	0.501799	0.001286
	Zn220	Zn	-0.005423	0.747263	0.502493
	Zn221	Zn	-0.005656	0.249291	0.502636
	Zn222	Zn	-0.009069	0.499112	0.753078
	Zn223	Zn	-0.008395	0.497755	0.251938
	Zn224	Zn	0.491590	0.753021	0.002460
	Zn225	Zn	0.490697	0.250552	0.000855
	Zn226	Zn	0.743447	-0.000319	0.502496
	Zn227	Zn	0.246096	-0.002100	0.503137
	N228	N	0.408019	0.963944	0.683240
	N229	N	0.581488	0.037347	0.681417
	N230	N	0.584077	0.965089	0.321049
	N231	N	0.408492	0.036240	0.324485
	N232	N	0.669439	0.416171	0.964526
	N233	N	0.671512	0.588735	0.037989
	N234	N	0.310805	0.588606	0.964687
	N235	N	0.310069	0.414839	0.037798
	N236	N	0.956777	0.677695	0.416112
	N237	N	0.030305	0.675243	0.587610
	N238	N	0.955739	0.319772	0.588353
	N239	N	0.031255	0.322239	0.418332
	N240	N	0.955400	0.411444	0.682680
	N241	N	0.028258	0.584275	0.681415
	N242	N	0.955503	0.584685	0.323176
	N243	N	0.027951	0.409986	0.320730
	N244	N	0.404820	0.682153	0.965131
	N245	N	0.577521	0.681203	0.038813
	N246	N	0.575371	0.323526	0.963637
	N247	N	0.401761	0.319531	0.037137
	N248	N	0.672231	0.962685	0.417631
	N249	N	0.672214	0.036948	0.587707
	N250	N	0.316283	0.961989	0.589743
	N251	N	0.316781	0.035510	0.417833
	N252	N	0.902114	0.463078	0.183603
	N253	N	0.077280	0.535619	0.181008
	N254	N	0.076086	0.463110	0.824394
	N255	N	0.901834	0.534702	0.820666
	N256	N	0.176526	0.909898	0.466959
	N257	N	0.172817	0.082645	0.540675
	N258	N	0.815195	0.085604	0.465814
	N259	N	0.814913	0.912902	0.539122
	N260	N	0.454298	0.178319	0.916555
	N261	N	0.529315	0.179408	0.086479
	N262	N	0.455424	0.824410	0.087897
	N263	N	0.529432	0.823279	0.916508
	N264	N	0.458266	0.913766	0.183613
	N265	N	0.529805	0.089366	0.183164
	N266	N	0.458006	0.089999	0.820139
	N267	N	0.530699	0.916561	0.824387
	N268	N	0.908447	0.178768	0.465468
	N269	N	0.081771	0.179039	0.539383
	N270	N	0.083000	0.816782	0.466430
	N271	N	0.909342	0.820218	0.539543
	N272	N	0.169713	0.465211	0.914686
	N273	N	0.167146	0.538113	0.085918
	N274	N	0.812214	0.463229	0.088003
	N275	N	0.814978	0.538186	0.918271
	O276	O	0.722646	0.674331	0.714288
	H277	H	0.726743	0.675054	0.719356
	H278	H	0.724000	0.683809	0.713079
	O279	O	0.600032	0.671708	0.526865
	H280	H	0.597236	0.659820	0.531593
	H281	H	0.610981	0.678305	0.539077
	O282	O	0.856592	-0.029304	0.968381
	H283	H	0.864227	-0.029382	0.965547
	H284	H	0.852164	-0.031250	0.972542
	O285	O	0.629537	0.471592	0.487151
	H286	H	0.633382	0.482908	0.489240
	H287	H	0.639714	0.483671	0.488632
	O288	O	0.961517	0.810648	1.157918
	H289	H	0.967061	0.788123	1.175277
	H290	H	0.964450	0.810209	1.144280
	O291	O	0.098186	-0.150895	0.864014
	H292	H	0.108809	-0.149031	0.865075
	H293	H	0.100707	-0.153213	0.856854
	O294	O	0.599308	0.379307	0.330817
	H295	H	0.605032	0.370652	0.328359
	H296	H	0.615617	0.373457	0.321138
	O297	O	0.455479	0.353859	0.514194
	H298	H	0.459240	0.348557	0.505387
	H299	H	0.461556	0.350197	0.520366
	O300	O	0.317412	0.483787	0.620594
	H301	H	0.314413	0.483753	0.613220
	H302	H	0.310701	0.473172	0.615621
	O303	O	0.802360	-0.023274	0.099305
	H304	H	0.794026	-0.018862	0.110216
	H305	H	0.789150	-0.034304	0.098486
	O306	O	0.349488	0.489078	0.366105
	H307	H	0.352531	0.523959	0.368363
	H308	H	0.323327	0.495460	0.351198
	O309	O	0.385434	0.506120	0.677152
	H310	H	0.366103	0.503725	0.685177
	H311	H	0.402330	0.506723	0.676476
	O312	O	0.134959	-0.067147	-0.002868
	H313	H	0.132174	-0.046972	0.012019
	H314	H	0.149856	-0.071302	-0.016139
	O315	O	0.435733	0.472816	0.465170
	H316	H	0.432187	0.478970	0.457829
	H317	H	0.436637	0.469103	0.458429
	O318	O	-0.014504	1.123988	1.066805
	H319	H	-0.021007	1.132647	1.069826
	H320	H	-0.019458	1.115801	1.071046
	O321	O	0.515999	0.466265	0.472285
	H322	H	0.499326	0.460315	0.471199
	H323	H	0.508752	0.462586	0.488125
	O324	O	-0.148133	1.050066	-0.113294
	H325	H	-0.135705	1.030441	-0.119216
	H326	H	-0.155976	1.056237	-0.125655
	O327	O	1.539634	0.511412	-0.625741
	H328	H	1.543477	0.502592	-0.649299
	H329	H	1.532763	0.509330	-0.627322
	O330	O	-0.024560	0.007086	0.999278
	H331	H	-0.014615	0.004820	1.002683
	H332	H	-0.030752	0.018292	1.000904
	O333	O	0.003479	0.079191	1.099047
	H334	H	0.002304	0.069364	1.099802
	H335	H	0.000665	0.072985	1.079968
	O336	O	0.510670	0.478484	0.689196
	H337	H	0.513754	0.476118	0.689182
	H338	H	0.513458	0.482209	0.692026
	O339	O	1.193764	0.104242	0.015184
	H340	H	1.185592	0.110486	0.032493
	H341	H	1.208062	0.123041	0.019648
	O342	O	-0.177039	-0.177375	0.066865
	H343	H	-0.152929	-0.183417	0.065877
	H344	H	-0.184190	-0.186080	0.072296
	O345	O	1.553650	0.318354	1.365663
	H346	H	1.560932	0.317185	1.375933
	H347	H	1.562312	0.313660	1.351418
	O348	O	1.097001	0.959493	0.138562
	H349	H	1.107790	0.954796	0.138087
	H350	H	1.097332	0.963389	0.145447
	O351	O	0.446971	0.666220	0.346497
	H352	H	0.467810	0.660756	0.337772
	H353	H	0.465128	0.653364	0.344392
	O354	O	0.970928	-0.084694	1.098358
	H355	H	0.966224	-0.076056	1.095760
	H356	H	0.974902	-0.085315	1.083336
	O357	O	0.498235	0.621684	0.467290
	H358	H	0.489166	0.617476	0.464287
	H359	H	0.503689	0.612099	0.475412
	O360	O	0.530812	0.420372	0.518640
	H361	H	0.532883	0.427076	0.537159
	H362	H	0.505546	0.424549	0.518183
	O363	O	0.033294	0.976451	0.819365
	H364	H	0.034871	0.979058	0.818496
	H365	H	0.041915	0.974721	0.814480
	O366	O	0.594501	0.394746	0.420534
	H367	H	0.600808	0.392716	0.419129
	H368	H	0.591308	0.394698	0.421096
	O369	O	-0.670253	0.645141	0.518472
	H370	H	-0.686210	0.658226	0.519558
	H371	H	-0.663026	0.633958	0.524968
	O372	O	0.552121	0.620064	0.611871
	H373	H	0.543745	0.634765	0.612713
	H374	H	0.539205	0.622362	0.617304
	O375	O	0.314889	0.683975	0.364734
	H376	H	0.340020	0.687849	0.349204
	H377	H	0.312901	0.690226	0.386028
	O378	O	1.170818	0.947543	-0.078047
	H379	H	1.179810	0.954604	-0.078889
	H380	H	1.172572	0.962898	-0.073603
	O381	O	0.874380	-0.020794	-0.097915
	H382	H	0.887579	-0.032733	-0.085821
	H383	H	0.883701	-0.016645	-0.097696
	O384	O	0.529378	1.418394	-0.610389
	H385	H	0.532733	1.410017	-0.598688
	H386	H	0.535037	1.395253	-0.617163
	O387	O	0.105361	0.112186	0.173782
	H388	H	0.105375	0.088341	0.184037
	H389	H	0.076867	0.124606	0.176236
	O390	O	-0.059344	1.120584	0.056030
	H391	H	-0.064647	1.120753	0.043558
	H392	H	-0.045915	1.116661	0.060621
	O393	O	1.541099	0.554873	0.600538
	H394	H	1.528611	0.542655	0.577502
	H395	H	1.559871	0.566383	0.611332
	O396	O	0.380984	0.575214	0.545483
	H397	H	0.377939	0.565917	0.547420
	H398	H	0.374978	0.576247	0.525768
	O399	O	0.054668	1.025198	0.994593
	H400	H	0.057346	1.030051	0.986305
	H401	H	0.054448	1.036336	0.992966
	O402	O	0.651480	0.373313	0.453778
	H403	H	0.655771	0.359593	0.464997
	H404	H	0.658812	0.385517	0.443930
	O405	O	0.936937	1.030882	0.017176
	H406	H	0.926398	1.011847	0.023368
	H407	H	0.928472	1.033926	0.015002
	O408	O	0.996093	1.121989	-0.047064
	H409	H	0.999925	1.122592	-0.042926
	H410	H	0.983462	1.127383	-0.062519
	O411	O	0.968679	0.114333	0.879379
	H412	H	0.968397	0.117130	0.885290
	H413	H	0.967006	0.115701	0.867986
	O414	O	-0.019392	-0.092899	1.165973
	H415	H	-0.016597	-0.086847	1.152404
	H416	H	-0.028465	-0.102610	1.160684
	O417	O	0.455993	0.356945	0.605352
	H418	H	0.443997	0.361272	0.600764
	H419	H	0.442082	0.363765	0.605834
