data_Molecule from HDF5

_cell_length_a		16.274629
_cell_length_b		16.335589
_cell_length_c		16.282027
_cell_angle_alpha	90.058594
_cell_angle_beta	89.992840
_cell_angle_gamma	90.075498
_symmetry_space_group_name_H-M	'P 1'
_symmetry_Int_Tables_number		1

loop_
	_symmetry_equiv_pos_as_xyz
	x,y,z

loop_
	_atom_site_label
	_atom_site_type_symbol
	_atom_site_fract_x
	_atom_site_fract_y
	_atom_site_fract_z
	H0	H	0.401076	0.836674	0.714700
	H1	H	0.597208	0.163604	0.714130
	H2	H	0.597096	0.836737	0.285830
	H3	H	0.402676	0.164196	0.286943
	H4	H	0.713007	0.403043	0.835861
	H5	H	0.713757	0.597999	0.164092
	H6	H	0.286575	0.596191	0.836366
	H7	H	0.286343	0.402975	0.163810
	H8	H	0.836444	0.714556	0.400985
	H9	H	0.164276	0.713110	0.596575
	H10	H	0.837206	0.284327	0.598791
	H11	H	0.164483	0.286213	0.401315
	H12	H	0.836100	0.402212	0.713314
	H13	H	0.164118	0.597148	0.713195
	H14	H	0.835738	0.596768	0.286439
	H15	H	0.164357	0.403154	0.285670
	H16	H	0.400956	0.714533	0.836810
	H17	H	0.598139	0.714701	0.163488
	H18	H	0.598341	0.285785	0.836297
	H19	H	0.402099	0.286938	0.164387
	H20	H	0.713304	0.835996	0.402673
	H21	H	0.714666	0.163191	0.598270
	H22	H	0.285061	0.836254	0.597054
	H23	H	0.285217	0.162938	0.402346
	H24	H	0.902056	0.336565	0.213477
	H25	H	0.097174	0.663812	0.213446
	H26	H	0.096907	0.336122	0.786063
	H27	H	0.902609	0.663183	0.786090
	H28	H	0.213360	0.902976	0.336131
	H29	H	0.213324	0.097162	0.664189
	H30	H	0.787443	0.097517	0.335317
	H31	H	0.786048	0.903078	0.663544
	H32	H	0.336034	0.213806	0.902663
	H33	H	0.664027	0.215256	0.099192
	H34	H	0.336472	0.785091	0.098461
	H35	H	0.663329	0.785356	0.901599
	H36	H	0.336008	0.902008	0.214946
	H37	H	0.664297	0.096467	0.212858
	H38	H	0.335675	0.096501	0.787587
	H39	H	0.663648	0.901867	0.786022
	H40	H	0.902461	0.214680	0.336696
	H41	H	0.099426	0.215283	0.663298
	H42	H	0.097021	0.787312	0.335727
	H43	H	0.900828	0.785059	0.662846
	H44	H	0.213939	0.336342	0.902447
	H45	H	0.213215	0.664064	0.096899
	H46	H	0.785208	0.336960	0.097327
	H47	H	0.785737	0.662912	0.901686
	H48	H	0.403502	0.116894	0.593475
	H49	H	0.592679	0.884725	0.592999
	H50	H	0.602117	0.120174	0.401379
	H51	H	0.405001	0.884386	0.408796
	H52	H	0.597795	0.408632	0.116555
	H53	H	0.591386	0.592052	0.884097
	H54	H	0.412193	0.590803	0.114983
	H55	H	0.408190	0.407623	0.884280
	H56	H	0.118429	0.596358	0.403412
	H57	H	0.883666	0.590491	0.594662
	H58	H	0.116721	0.403422	0.589875
	H59	H	0.884664	0.404572	0.413443
	H60	H	0.115282	0.410857	0.591928
	H61	H	0.882215	0.595954	0.594790
	H62	H	0.116280	0.595291	0.409425
	H63	H	0.884956	0.411733	0.403768
	H64	H	0.406795	0.599903	0.118890
	H65	H	0.592101	0.594385	0.883475
	H66	H	0.589465	0.409571	0.115398
	H67	H	0.406988	0.404827	0.883702
	H68	H	0.586381	0.115811	0.401260
	H69	H	0.593283	0.883514	0.593217
	H70	H	0.407096	0.116710	0.596769
	H71	H	0.405097	0.882623	0.403682
	H72	H	0.906245	0.615782	0.091235
	H73	H	0.085202	0.384820	0.097262
	H74	H	0.091052	0.612460	0.914837
	H75	H	0.901008	0.384652	0.915521
	H76	H	0.098824	0.903554	0.619617
	H77	H	0.092552	0.091455	0.384023
	H78	H	0.901551	0.098246	0.619740
	H79	H	0.912652	0.906719	0.385547
	H80	H	0.617777	0.096184	0.903928
	H81	H	0.381321	0.106104	0.087321
	H82	H	0.619265	0.906842	0.101794
	H83	H	0.384986	0.915632	0.903418
	H84	H	0.617313	0.899118	0.088159
	H85	H	0.387783	0.083846	0.086507
	H86	H	0.616081	0.095885	0.911517
	H87	H	0.379060	0.897722	0.901694
	H88	H	0.904549	0.085118	0.615194
	H89	H	0.091916	0.096051	0.383184
	H90	H	0.092998	0.911505	0.615204
	H91	H	0.903609	0.900666	0.380283
	H92	H	0.103762	0.619212	0.904904
	H93	H	0.095298	0.385890	0.084308
	H94	H	0.903591	0.617861	0.095347
	H95	H	0.901067	0.379734	0.898110
	H96	H	0.408181	0.114953	0.592111
	H97	H	0.593284	0.884119	0.594193
	H98	H	0.595309	0.114218	0.414993
	H99	H	0.409075	0.884662	0.406454
	H100	H	0.591740	0.402372	0.118157
	H101	H	0.593406	0.592276	0.884033
	H102	H	0.401124	0.590515	0.117848
	H103	H	0.405722	0.406770	0.883135
	H104	H	0.115990	0.590634	0.405573
	H105	H	0.884693	0.593595	0.589858
	H106	H	0.118299	0.406113	0.597013
	H107	H	0.880663	0.400739	0.402784
	H108	H	0.909054	0.616412	0.095344
	H109	H	0.100581	0.380232	0.098891
	H110	H	0.087957	0.616575	0.898229
	H111	H	0.915849	0.386520	0.905743
	H112	H	0.089361	0.902271	0.616524
	H113	H	0.096089	0.093693	0.382169
	H114	H	0.914812	0.095956	0.614521
	H115	H	0.902365	0.911916	0.383551
	H116	H	0.615642	0.089018	0.907167
	H117	H	0.380425	0.093426	0.106691
	H118	H	0.612552	0.914280	0.089054
	H119	H	0.385881	0.904294	0.918121
	C120	C	0.378122	0.008160	0.621674
	C121	C	0.621427	0.991888	0.621558
	C122	C	0.622286	0.008501	0.377727
	C123	C	0.378327	0.991898	0.378558
	C124	C	0.621224	0.378782	0.008296
	C125	C	0.621130	0.621222	0.991906
	C126	C	0.378440	0.621409	0.008843
	C127	C	0.378454	0.378263	0.991776
	C128	C	0.008284	0.621699	0.378207
	C129	C	0.991787	0.621463	0.621015
	C130	C	0.008577	0.378188	0.621404
	C131	C	0.992038	0.378416	0.378243
	C132	C	0.878074	0.508291	0.121566
	C133	C	0.121764	0.491977	0.121351
	C134	C	0.121847	0.507956	0.878284
	C135	C	0.877898	0.491437	0.877943
	C136	C	0.121758	0.878359	0.508603
	C137	C	0.121751	0.121452	0.491705
	C138	C	0.878904	0.121253	0.508060
	C139	C	0.878160	0.878417	0.491358
	C140	C	0.508198	0.121546	0.879075
	C141	C	0.491878	0.122080	0.121539
	C142	C	0.508166	0.878489	0.121584
	C143	C	0.491623	0.878031	0.879014
	C144	C	0.380582	0.885070	0.676473
	C145	C	0.618546	0.114719	0.676527
	C146	C	0.618630	0.885358	0.323108
	C147	C	0.381585	0.115243	0.324430
	C148	C	0.675583	0.382039	0.884765
	C149	C	0.676189	0.618798	0.115125
	C150	C	0.324029	0.617888	0.885314
	C151	C	0.323940	0.381896	0.115157
	C152	C	0.885108	0.676376	0.380835
	C153	C	0.115158	0.675973	0.617871
	C154	C	0.885658	0.322621	0.619161
	C155	C	0.115606	0.324140	0.381026
	C156	C	0.885350	0.380732	0.676258
	C157	C	0.115296	0.618083	0.675327
	C158	C	0.884549	0.617757	0.323966
	C159	C	0.115476	0.382134	0.323524
	C160	C	0.381055	0.676067	0.885284
	C161	C	0.618971	0.676737	0.114970
	C162	C	0.618515	0.323879	0.885084
	C163	C	0.381468	0.324339	0.115177
	C164	C	0.676040	0.885208	0.381408
	C165	C	0.677024	0.114587	0.619183
	C166	C	0.323197	0.885060	0.618117
	C167	C	0.323414	0.114641	0.381741
	C168	C	0.881370	0.385245	0.175919
	C169	C	0.118231	0.615212	0.175632
	C170	C	0.117794	0.384669	0.824078
	C171	C	0.881325	0.614631	0.823605
	C172	C	0.175558	0.882239	0.384837
	C173	C	0.175933	0.118143	0.615255
	C174	C	0.824594	0.118245	0.384659
	C175	C	0.823640	0.881782	0.614713
	C176	C	0.384847	0.175972	0.882047
	C177	C	0.615117	0.176837	0.119275
	C178	C	0.384983	0.823450	0.118969
	C179	C	0.614697	0.823263	0.881267
	C180	C	0.384838	0.881539	0.176535
	C181	C	0.615448	0.118173	0.175718
	C182	C	0.384766	0.118172	0.824601
	C183	C	0.614805	0.881342	0.824020
	C184	C	0.881705	0.176172	0.385038
	C185	C	0.119461	0.176739	0.614825
	C186	C	0.118005	0.824752	0.384707
	C187	C	0.880875	0.823726	0.614612
	C188	C	0.176115	0.384973	0.881515
	C189	C	0.176140	0.614927	0.118047
	C190	C	0.823532	0.385329	0.118081
	C191	C	0.823453	0.614380	0.881122
	C192	C	0.399996	0.093955	0.600496
	C193	C	0.599477	0.906238	0.600060
	C194	C	0.600752	0.094511	0.399260
	C195	C	0.400003	0.906128	0.399794
	C196	C	0.599423	0.400472	0.094450
	C197	C	0.598938	0.599385	0.906053
	C198	C	0.400286	0.600099	0.094990
	C199	C	0.400316	0.400036	0.905694
	C200	C	0.094560	0.600318	0.399845
	C201	C	0.905737	0.599693	0.599507
	C202	C	0.094676	0.400309	0.599458
	C203	C	0.905693	0.399641	0.400259
	C204	C	0.900020	0.594376	0.100220
	C205	C	0.099972	0.405798	0.099790
	C206	C	0.100518	0.593997	0.899578
	C207	C	0.899707	0.405739	0.899878
	C208	C	0.100139	0.899513	0.594862
	C209	C	0.099991	0.100094	0.405359
	C210	C	0.900623	0.099633	0.594250
	C211	C	0.899938	0.899882	0.405231
	C212	C	0.594233	0.100012	0.901064
	C213	C	0.405546	0.100632	0.099799
	C214	C	0.594343	0.900445	0.099510
	C215	C	0.405372	0.899544	0.901227
	Zn216	Zn	0.499668	-0.000400	0.750852
	Zn217	Zn	0.499806	0.000389	0.249875
	Zn218	Zn	0.749622	0.500112	-0.000260
	Zn219	Zn	0.250539	0.500157	-0.000141
	Zn220	Zn	0.000240	0.750482	0.499991
	Zn221	Zn	0.000897	0.249939	0.499704
	Zn222	Zn	-0.000283	0.499932	0.749755
	Zn223	Zn	0.000195	0.500104	0.250009
	Zn224	Zn	0.499973	0.749536	0.000504
	Zn225	Zn	0.499836	0.250022	0.000251
	Zn226	Zn	0.750396	0.000031	0.499796
	Zn227	Zn	0.249705	0.000047	0.499930
	N228	N	0.413919	0.962622	0.679086
	N229	N	0.584643	0.037512	0.678163
	N230	N	0.585754	0.962979	0.320859
	N231	N	0.415238	0.037953	0.322275
	N232	N	0.677508	0.415326	0.962452
	N233	N	0.677402	0.584734	0.037717
	N234	N	0.322673	0.584436	0.962792
	N235	N	0.322042	0.414739	0.037361
	N236	N	0.962926	0.678774	0.413888
	N237	N	0.037483	0.678049	0.584725
	N238	N	0.963347	0.321042	0.585570
	N239	N	0.037665	0.321725	0.414300
	N240	N	0.962638	0.414725	0.677573
	N241	N	0.037491	0.584873	0.677571
	N242	N	0.962294	0.584659	0.322122
	N243	N	0.037792	0.415179	0.321905
	N244	N	0.414159	0.678416	0.963099
	N245	N	0.585592	0.678462	0.037440
	N246	N	0.585495	0.321787	0.962880
	N247	N	0.414836	0.322236	0.037559
	N248	N	0.678207	0.962676	0.414717
	N249	N	0.678878	0.037208	0.585631
	N250	N	0.321382	0.962485	0.585101
	N251	N	0.321432	0.037146	0.414585
	N252	N	0.914525	0.462745	0.178153
	N253	N	0.085056	0.537737	0.177817
	N254	N	0.084845	0.462276	0.821797
	N255	N	0.914511	0.537260	0.821461
	N256	N	0.177687	0.915024	0.462729
	N257	N	0.177274	0.084423	0.537646
	N258	N	0.822765	0.084844	0.462254
	N259	N	0.822063	0.915123	0.537212
	N260	N	0.462676	0.178271	0.915022
	N261	N	0.537265	0.179297	0.086329
	N262	N	0.462624	0.821724	0.085424
	N263	N	0.537045	0.821268	0.914920
	N264	N	0.462369	0.915185	0.178026
	N265	N	0.537718	0.084856	0.177337
	N266	N	0.462296	0.084626	0.822996
	N267	N	0.537154	0.914541	0.822632
	N268	N	0.914826	0.178353	0.462731
	N269	N	0.086237	0.178726	0.537103
	N270	N	0.085236	0.822211	0.462634
	N271	N	0.914002	0.821394	0.536844
	N272	N	0.178764	0.462616	0.914327
	N273	N	0.178414	0.537221	0.085094
	N274	N	0.821236	0.462959	0.085326
	N275	N	0.821450	0.536832	0.914338
