data_Molecule from HDF5

_cell_length_a		16.071607
_cell_length_b		16.346903
_cell_length_c		16.307925
_cell_angle_alpha	89.676184
_cell_angle_beta	89.875569
_cell_angle_gamma	90.143391
_symmetry_space_group_name_H-M	'P 1'
_symmetry_Int_Tables_number		1

loop_
	_symmetry_equiv_pos_as_xyz
	x,y,z

loop_
	_atom_site_label
	_atom_site_type_symbol
	_atom_site_fract_x
	_atom_site_fract_y
	_atom_site_fract_z
	H0	H	0.405096	0.841570	0.712553
	H1	H	0.608724	0.166507	0.710733
	H2	H	0.608539	0.841697	0.279166
	H3	H	0.405790	0.165439	0.276277
	H4	H	0.722088	0.406222	0.830221
	H5	H	0.720294	0.597041	0.158900
	H6	H	0.296248	0.599126	0.829620
	H7	H	0.291656	0.401882	0.157815
	H8	H	0.842441	0.719740	0.393384
	H9	H	0.172793	0.718761	0.591665
	H10	H	0.842852	0.289264	0.595958
	H11	H	0.172940	0.291712	0.395118
	H12	H	0.843076	0.404540	0.710476
	H13	H	0.173081	0.604720	0.706284
	H14	H	0.842502	0.604444	0.279238
	H15	H	0.173243	0.407531	0.281536
	H16	H	0.406954	0.721110	0.832807
	H17	H	0.610154	0.719071	0.156847
	H18	H	0.608893	0.287038	0.831975
	H19	H	0.405620	0.283854	0.157195
	H20	H	0.720575	0.840552	0.398616
	H21	H	0.720611	0.168281	0.590514
	H22	H	0.291522	0.841137	0.592771
	H23	H	0.296242	0.168644	0.397273
	H24	H	0.905868	0.341961	0.212703
	H25	H	0.109724	0.666282	0.208804
	H26	H	0.109165	0.341921	0.776490
	H27	H	0.907740	0.666851	0.778098
	H28	H	0.219096	0.912890	0.329386
	H29	H	0.220435	0.100998	0.659244
	H30	H	0.795724	0.101384	0.330061
	H31	H	0.794241	0.906943	0.658802
	H32	H	0.342409	0.216538	0.895696
	H33	H	0.672233	0.216007	0.093342
	H34	H	0.342977	0.785538	0.096656
	H35	H	0.673170	0.790163	0.895401
	H36	H	0.341738	0.902811	0.209900
	H37	H	0.672471	0.101066	0.207247
	H38	H	0.341822	0.101401	0.781778
	H39	H	0.672050	0.904853	0.779654
	H40	H	0.906160	0.222798	0.332051
	H41	H	0.107289	0.220288	0.657616
	H42	H	0.109149	0.790832	0.331078
	H43	H	0.904738	0.786004	0.656279
	H44	H	0.219199	0.338212	0.898966
	H45	H	0.224233	0.665427	0.091063
	H46	H	0.795671	0.338826	0.091232
	H47	H	0.794152	0.666781	0.896111
	H48	H	0.412175	0.120909	0.588274
	H49	H	0.599833	0.886073	0.597062
	H50	H	0.592802	0.121314	0.388214
	H51	H	0.414828	0.887569	0.400143
	H52	H	0.601002	0.404928	0.112039
	H53	H	0.595342	0.594311	0.880567
	H54	H	0.421314	0.593043	0.108489
	H55	H	0.405302	0.414163	0.877017
	H56	H	0.130186	0.601519	0.389670
	H57	H	0.890640	0.595443	0.584365
	H58	H	0.122453	0.419118	0.581039
	H59	H	0.890314	0.416646	0.401220
	H60	H	0.127831	0.414270	0.593706
	H61	H	0.889466	0.595132	0.587749
	H62	H	0.125918	0.606860	0.409176
	H63	H	0.887959	0.409528	0.400578
	H64	H	0.415995	0.598739	0.111617
	H65	H	0.600046	0.604410	0.876247
	H66	H	0.602649	0.409213	0.111147
	H67	H	0.425376	0.413742	0.882989
	H68	H	0.594698	0.115708	0.410857
	H69	H	0.591841	0.891615	0.585538
	H70	H	0.416886	0.121238	0.592162
	H71	H	0.415456	0.888438	0.403061
	H72	H	0.914741	0.619088	0.084503
	H73	H	0.092735	0.390009	0.084515
	H74	H	0.106098	0.617750	0.909587
	H75	H	0.910816	0.382277	0.885525
	H76	H	0.098277	0.915380	0.609542
	H77	H	0.106163	0.093893	0.378075
	H78	H	0.909909	0.102585	0.613281
	H79	H	0.916050	0.905102	0.376351
	H80	H	0.623416	0.088688	0.903508
	H81	H	0.388566	0.101894	0.080067
	H82	H	0.626492	0.910706	0.092834
	H83	H	0.392075	0.919404	0.903909
	H84	H	0.625841	0.906526	0.084576
	H85	H	0.392570	0.085014	0.083440
	H86	H	0.629082	0.097833	0.893526
	H87	H	0.385541	0.906110	0.896615
	H88	H	0.912919	0.091844	0.609379
	H89	H	0.092099	0.099819	0.380282
	H90	H	0.094534	0.907275	0.609536
	H91	H	0.908443	0.913186	0.375853
	H92	H	0.109106	0.623770	0.890491
	H93	H	0.106684	0.385942	0.086943
	H94	H	0.912711	0.621146	0.088508
	H95	H	0.931417	0.392362	0.901904
	H96	H	0.417300	0.118754	0.586399
	H97	H	0.605775	0.887735	0.583837
	H98	H	0.613361	0.124425	0.398841
	H99	H	0.412558	0.887718	0.402242
	H100	H	0.598136	0.408018	0.109953
	H101	H	0.606990	0.594689	0.876310
	H102	H	0.413648	0.591066	0.110576
	H103	H	0.416048	0.396918	0.875100
	H104	H	0.121336	0.587785	0.403645
	H105	H	0.888600	0.598119	0.585889
	H106	H	0.126839	0.404839	0.582376
	H107	H	0.890083	0.411854	0.407679
	H108	H	0.917264	0.619399	0.089069
	H109	H	0.097130	0.384753	0.097604
	H110	H	0.090817	0.617545	0.897789
	H111	H	0.905374	0.387974	0.912418
	H112	H	0.103839	0.908674	0.612595
	H113	H	0.103725	0.108606	0.375348
	H114	H	0.921663	0.100450	0.609879
	H115	H	0.919214	0.914994	0.380441
	H116	H	0.626272	0.102251	0.906698
	H117	H	0.385203	0.095203	0.096333
	H118	H	0.623355	0.914868	0.084922
	H119	H	0.390471	0.906138	0.912073
	C120	C	0.385411	0.012766	0.617210
	C121	C	0.629228	0.995697	0.617165
	C122	C	0.629204	0.012434	0.372119
	C123	C	0.385830	0.995822	0.372702
	C124	C	0.629577	0.380096	0.002913
	C125	C	0.629857	0.625017	0.985744
	C126	C	0.387147	0.623786	0.002649
	C127	C	0.385996	0.379378	0.986344
	C128	C	0.016246	0.626958	0.371961
	C129	C	0.999045	0.625486	0.614399
	C130	C	0.016304	0.383487	0.615512
	C131	C	0.999031	0.384267	0.374117
	C132	C	0.886024	0.511879	0.116291
	C133	C	0.129248	0.494481	0.117102
	C134	C	0.130097	0.511724	0.871285
	C135	C	0.886739	0.495356	0.871822
	C136	C	0.128527	0.883559	0.502473
	C137	C	0.129898	0.128009	0.486013
	C138	C	0.886011	0.126935	0.503108
	C139	C	0.885609	0.882416	0.485519
	C140	C	0.516643	0.124363	0.873139
	C141	C	0.498323	0.122957	0.115059
	C142	C	0.515953	0.880948	0.116899
	C143	C	0.498585	0.882303	0.874539
	C144	C	0.385770	0.890030	0.673477
	C145	C	0.627930	0.118142	0.672172
	C146	C	0.627386	0.890120	0.317699
	C147	C	0.387050	0.117702	0.315783
	C148	C	0.684729	0.384640	0.879501
	C149	C	0.683949	0.619714	0.109574
	C150	C	0.332668	0.620854	0.879259
	C151	C	0.329767	0.381603	0.109076
	C152	C	0.891840	0.682108	0.373382
	C153	C	0.123463	0.681089	0.611661
	C154	C	0.892121	0.327436	0.615117
	C155	C	0.123488	0.329553	0.375506
	C156	C	0.892304	0.384684	0.672004
	C157	C	0.123711	0.624325	0.668834
	C158	C	0.891854	0.624674	0.316875
	C159	C	0.123528	0.387071	0.318809
	C160	C	0.387878	0.681301	0.880625
	C161	C	0.628999	0.680128	0.108595
	C162	C	0.628522	0.325220	0.880406
	C163	C	0.386592	0.323044	0.108719
	C164	C	0.683741	0.889580	0.376822
	C165	C	0.683854	0.118869	0.612680
	C166	C	0.329430	0.889788	0.614245
	C167	C	0.332630	0.119293	0.376140
	C168	C	0.886588	0.389793	0.173437
	C169	C	0.128658	0.617568	0.170702
	C170	C	0.128597	0.389972	0.815424
	C171	C	0.888294	0.618206	0.816495
	C172	C	0.183135	0.889495	0.378874
	C173	C	0.183910	0.123306	0.609734
	C174	C	0.832094	0.123322	0.379399
	C175	C	0.831142	0.885535	0.609357
	C176	C	0.391757	0.179176	0.875497
	C177	C	0.622833	0.178309	0.113378
	C178	C	0.391890	0.824427	0.115674
	C179	C	0.623301	0.827337	0.875394
	C180	C	0.391416	0.882528	0.172147
	C181	C	0.622993	0.121012	0.169675
	C182	C	0.391589	0.121956	0.818926
	C183	C	0.622951	0.884750	0.818282
	C184	C	0.887211	0.183361	0.380268
	C185	C	0.127563	0.182541	0.609048
	C186	C	0.128079	0.829177	0.379669
	C187	C	0.885902	0.825270	0.607969
	C188	C	0.183316	0.387812	0.876134
	C189	C	0.185782	0.617050	0.112372
	C190	C	0.832011	0.388288	0.112902
	C191	C	0.832013	0.618211	0.875480
	C192	C	0.408575	0.098216	0.595285
	C193	C	0.606042	0.910310	0.595248
	C194	C	0.606885	0.098333	0.393223
	C195	C	0.407870	0.909976	0.395277
	C196	C	0.607290	0.401187	0.088785
	C197	C	0.607465	0.604074	0.900052
	C198	C	0.410086	0.600795	0.088049
	C199	C	0.408857	0.401805	0.900401
	C200	C	0.103235	0.605090	0.394146
	C201	C	0.911969	0.602922	0.592470
	C202	C	0.103120	0.406043	0.592457
	C203	C	0.911874	0.406314	0.396632
	C204	C	0.908354	0.597651	0.093745
	C205	C	0.105843	0.409039	0.096071
	C206	C	0.108331	0.597395	0.892913
	C207	C	0.909271	0.409785	0.893605
	C208	C	0.105458	0.904216	0.588441
	C209	C	0.107581	0.106868	0.400061
	C210	C	0.908269	0.104813	0.588598
	C211	C	0.908012	0.904648	0.399798
	C212	C	0.603567	0.102776	0.894919
	C213	C	0.411283	0.100626	0.093106
	C214	C	0.602867	0.903942	0.094208
	C215	C	0.411935	0.904147	0.897563
	Zn216	Zn	0.507255	0.003490	0.745879
	Zn217	Zn	0.506801	0.003734	0.243413
	Zn218	Zn	0.758326	0.502822	-0.005782
	Zn219	Zn	0.257876	0.502001	-0.005665
	Zn220	Zn	0.007365	0.753687	0.493564
	Zn221	Zn	0.007520	0.256096	0.494568
	Zn222	Zn	0.008196	0.505001	0.742554
	Zn223	Zn	0.007495	0.504650	0.245808
	Zn224	Zn	0.508160	0.753812	-0.004976
	Zn225	Zn	0.507578	0.250903	-0.005285
	Zn226	Zn	0.757872	0.004741	0.494708
	Zn227	Zn	0.257593	0.005220	0.494474
	N228	N	0.419809	0.967335	0.675346
	N229	N	0.594758	0.040508	0.675210
	N230	N	0.594410	0.967683	0.314503
	N231	N	0.419439	0.039842	0.313612
	N232	N	0.685425	0.418179	0.956702
	N233	N	0.684631	0.586031	0.032464
	N234	N	0.332320	0.585604	0.956068
	N235	N	0.329440	0.416046	0.031950
	N236	N	0.970258	0.683619	0.407046
	N237	N	0.044803	0.681891	0.578420
	N238	N	0.970322	0.326628	0.580539
	N239	N	0.044871	0.327668	0.409167
	N240	N	0.970508	0.419013	0.672195
	N241	N	0.045204	0.590488	0.670613
	N242	N	0.970425	0.591407	0.315619
	N243	N	0.045076	0.420423	0.317928
	N244	N	0.420860	0.683396	0.958431
	N245	N	0.596100	0.683633	0.030767
	N246	N	0.594994	0.322327	0.957962
	N247	N	0.420792	0.321587	0.031258
	N248	N	0.685004	0.966738	0.410064
	N249	N	0.684667	0.041890	0.578940
	N250	N	0.329037	0.966981	0.580112
	N251	N	0.331835	0.042481	0.410963
	N252	N	0.919583	0.467612	0.175683
	N253	N	0.094481	0.540280	0.173767
	N254	N	0.096856	0.468004	0.812124
	N255	N	0.921349	0.540768	0.813867
	N256	N	0.183757	0.922579	0.456351
	N257	N	0.185653	0.090392	0.532247
	N258	N	0.830992	0.089130	0.456663
	N259	N	0.830576	0.920244	0.532260
	N260	N	0.470545	0.181025	0.908438
	N261	N	0.544332	0.179621	0.080186
	N262	N	0.470534	0.823346	0.081996
	N263	N	0.544967	0.825452	0.909375
	N264	N	0.469615	0.916843	0.173090
	N265	N	0.544545	0.087193	0.170659
	N266	N	0.470036	0.088641	0.817259
	N267	N	0.544557	0.918371	0.817638
	N268	N	0.920207	0.185605	0.457976
	N269	N	0.094846	0.185711	0.531029
	N270	N	0.094800	0.825611	0.457547
	N271	N	0.919064	0.823146	0.530093
	N272	N	0.184706	0.464630	0.910105
	N273	N	0.186460	0.539557	0.079838
	N274	N	0.831566	0.465133	0.078236
	N275	N	0.830612	0.540818	0.908984
	O276	O	0.068697	-0.033739	-0.016555
	H277	H	0.069762	-0.025928	-0.016745
	H278	H	0.064747	-0.033203	-0.005067
	O279	O	0.533953	0.554890	0.573113
	H280	H	0.540005	0.549086	0.582164
	H281	H	0.523073	0.546861	0.577704
	O282	O	0.515562	0.451736	0.453528
	H283	H	0.522516	0.452766	0.452285
	H284	H	0.500586	0.454152	0.473909
	O285	O	1.053324	-0.044153	1.005345
	H286	H	1.052815	-0.038161	1.006995
	H287	H	1.057337	-0.046410	1.002796
	O288	O	0.464947	0.429789	0.573395
	H289	H	0.457118	0.431382	0.588240
	H290	H	0.463187	0.433551	0.571693
	O291	O	0.578010	0.563952	0.492752
	H292	H	0.583948	0.571530	0.498549
	H293	H	0.572163	0.565036	0.489512
	O294	O	0.507942	-0.363551	0.521517
	H295	H	0.508655	-0.371677	0.527331
	H296	H	0.512783	-0.360216	0.521478
	O297	O	-0.013934	-0.006439	0.015731
	H298	H	-0.025525	-0.009621	0.022786
	H299	H	-0.007985	-0.003231	0.016165
	O300	O	0.447490	0.510991	0.492480
	H301	H	0.446598	0.507113	0.487527
	H302	H	0.456008	0.514789	0.493553
	O303	O	0.565883	0.485246	0.389205
	H304	H	0.564897	0.486866	0.383970
	H305	H	0.568533	0.494859	0.379990
	O306	O	0.950490	-0.024106	-0.080528
	H307	H	0.954520	-0.034208	-0.085985
	H308	H	0.948686	-0.025730	-0.083969
	O309	O	-0.015137	-0.010288	1.007225
	H310	H	-0.012732	-0.009613	1.004435
	H311	H	-0.016174	-0.005384	0.999212
	O312	O	0.970481	0.883762	1.027270
	H313	H	0.966259	0.886332	1.035266
	H314	H	0.967544	0.874775	1.035460
	O315	O	0.551387	0.456950	0.530067
	H316	H	0.561137	0.463322	0.529771
	H317	H	0.544793	0.451578	0.537837
	O318	O	0.472390	0.425953	0.559077
	H319	H	0.479518	0.431821	0.539530
	H320	H	0.476268	0.419998	0.564997
	O321	O	0.511696	1.453684	1.493607
	H322	H	0.516403	1.449460	1.488680
	H323	H	0.497802	1.450390	1.487114
	O324	O	0.466441	0.589026	0.464298
	H325	H	0.464437	0.579599	0.469399
	H326	H	0.458732	0.591145	0.458777
	O327	O	0.526111	0.589687	0.496440
	H328	H	0.522866	0.603034	0.500498
	H329	H	0.525659	0.588347	0.511026
	O330	O	0.465130	0.370383	0.505325
	H331	H	0.460226	0.364262	0.516316
	H332	H	0.457970	0.381859	0.500620
	O333	O	0.488870	0.541916	0.581377
	H334	H	0.493467	0.537618	0.579902
	H335	H	0.490448	0.541052	0.584271
	O336	O	0.411655	0.451597	0.461094
	H337	H	0.420523	0.436165	0.449884
	H338	H	0.415457	0.458551	0.448760
	O339	O	0.942436	1.042794	-0.097886
	H340	H	0.937940	1.041571	-0.088849
	H341	H	0.943557	1.046729	-0.100906
	O342	O	0.597905	0.428934	0.420877
	H343	H	0.600174	0.429408	0.417365
	H344	H	0.610523	0.429134	0.425784
	O345	O	0.543574	0.604073	0.468895
	H346	H	0.524096	0.601405	0.472862
	H347	H	0.541570	0.612751	0.479502
	O348	O	-0.001558	-0.018486	0.021628
	H349	H	0.000536	-0.026547	0.033073
	H350	H	-0.000996	-0.009515	0.022548
	O351	O	0.065292	0.972600	0.932060
	H352	H	0.060961	0.959851	0.925430
	H353	H	0.062723	0.976872	0.928536
	O354	O	0.569387	0.510328	0.439992
	H355	H	0.573056	0.504407	0.443864
	H356	H	0.570739	0.498258	0.428889
	O357	O	-0.042873	0.930927	1.065673
	H358	H	-0.045283	0.920843	1.066998
	H359	H	-0.044058	0.922592	1.061360
