data_Molecule from HDF5

_cell_length_a		16.455526
_cell_length_b		16.543654
_cell_length_c		16.334846
_cell_angle_alpha	89.986515
_cell_angle_beta	89.791526
_cell_angle_gamma	89.968246
_symmetry_space_group_name_H-M	'P 1'
_symmetry_Int_Tables_number		1

loop_
	_symmetry_equiv_pos_as_xyz
	x,y,z

loop_
	_atom_site_label
	_atom_site_type_symbol
	_atom_site_fract_x
	_atom_site_fract_y
	_atom_site_fract_z
	H0	H	0.391620	0.848593	0.723503
	H1	H	0.604396	0.161746	0.721612
	H2	H	0.609338	0.850386	0.274778
	H3	H	0.393584	0.162366	0.276855
	H4	H	0.720742	0.400403	0.841710
	H5	H	0.722674	0.613804	0.158029
	H6	H	0.277507	0.612065	0.843033
	H7	H	0.275402	0.398674	0.158474
	H8	H	0.845882	0.732279	0.389266
	H9	H	0.157026	0.730374	0.609409
	H10	H	0.844500	0.281536	0.609383
	H11	H	0.157782	0.281601	0.389180
	H12	H	0.844160	0.397409	0.724748
	H13	H	0.156820	0.614141	0.725083
	H14	H	0.841988	0.611128	0.279125
	H15	H	0.157804	0.399780	0.274617
	H16	H	0.390876	0.729119	0.843341
	H17	H	0.607884	0.729768	0.157955
	H18	H	0.606058	0.284042	0.841679
	H19	H	0.388497	0.280077	0.157843
	H20	H	0.727494	0.850861	0.388789
	H21	H	0.724407	0.160638	0.608350
	H22	H	0.273189	0.850959	0.610463
	H23	H	0.277295	0.162856	0.391980
	H24	H	0.893299	0.349026	0.222141
	H25	H	0.103206	0.663480	0.220657
	H26	H	0.106985	0.349820	0.777036
	H27	H	0.891950	0.661828	0.776097
	H28	H	0.225390	0.899368	0.341999
	H29	H	0.219245	0.110887	0.659038
	H30	H	0.779678	0.112029	0.341603
	H31	H	0.776720	0.897062	0.656542
	H32	H	0.343986	0.230335	0.890888
	H33	H	0.656058	0.231253	0.108209
	H34	H	0.343572	0.781643	0.113178
	H35	H	0.655525	0.781917	0.892264
	H36	H	0.343502	0.899670	0.226292
	H37	H	0.658581	0.112070	0.220920
	H38	H	0.341351	0.109350	0.780155
	H39	H	0.657041	0.900290	0.778706
	H40	H	0.892114	0.230142	0.342533
	H41	H	0.107642	0.229605	0.657250
	H42	H	0.111099	0.781920	0.341768
	H43	H	0.891161	0.780367	0.655397
	H44	H	0.225935	0.351132	0.890929
	H45	H	0.224607	0.660743	0.111921
	H46	H	0.774845	0.349716	0.108736
	H47	H	0.774175	0.661099	0.890288
	H48	H	0.412302	0.117850	0.592162
	H49	H	0.589502	0.890443	0.590955
	H50	H	0.591086	0.117666	0.412790
	H51	H	0.412914	0.892995	0.408531
	H52	H	0.589773	0.419470	0.114620
	H53	H	0.585463	0.593825	0.887830
	H54	H	0.416680	0.599391	0.114174
	H55	H	0.419997	0.412825	0.887703
	H56	H	0.113046	0.595331	0.412866
	H57	H	0.891297	0.592938	0.580627
	H58	H	0.113344	0.414272	0.585361
	H59	H	0.888453	0.414204	0.413933
	H60	H	0.111105	0.421293	0.581912
	H61	H	0.890493	0.589004	0.588766
	H62	H	0.112368	0.591216	0.411286
	H63	H	0.889596	0.418791	0.413593
	H64	H	0.405669	0.593404	0.117215
	H65	H	0.586670	0.595100	0.886972
	H66	H	0.582622	0.420599	0.112272
	H67	H	0.405811	0.414774	0.884052
	H68	H	0.592067	0.118068	0.411996
	H69	H	0.585434	0.894354	0.586485
	H70	H	0.411406	0.117092	0.587695
	H71	H	0.420437	0.898887	0.416708
	H72	H	0.909570	0.619051	0.090101
	H73	H	0.089659	0.395643	0.081447
	H74	H	0.088972	0.617937	0.914028
	H75	H	0.913678	0.394571	0.912914
	H76	H	0.086742	0.915139	0.613736
	H77	H	0.084861	0.093053	0.387897
	H78	H	0.911632	0.101113	0.616228
	H79	H	0.910847	0.917466	0.384631
	H80	H	0.615997	0.099094	0.907187
	H81	H	0.387156	0.093887	0.090178
	H82	H	0.610474	0.921201	0.086257
	H83	H	0.388416	0.921935	0.914438
	H84	H	0.613499	0.915179	0.088842
	H85	H	0.387592	0.095587	0.086449
	H86	H	0.611159	0.096170	0.918549
	H87	H	0.383704	0.915933	0.907527
	H88	H	0.907816	0.088735	0.613627
	H89	H	0.090224	0.100138	0.383112
	H90	H	0.088921	0.920699	0.611731
	H91	H	0.917080	0.922928	0.389277
	H92	H	0.087409	0.617916	0.912091
	H93	H	0.090363	0.391521	0.089333
	H94	H	0.912072	0.617031	0.087162
	H95	H	0.908822	0.393674	0.915169
	H96	H	0.408727	0.119225	0.590627
	H97	H	0.592389	0.893306	0.584839
	H98	H	0.590183	0.118324	0.411806
	H99	H	0.408700	0.895557	0.420521
	H100	H	0.585087	0.413973	0.115023
	H101	H	0.587409	0.593108	0.887269
	H102	H	0.415072	0.587359	0.110768
	H103	H	0.413718	0.425568	0.890511
	H104	H	0.114948	0.594525	0.408448
	H105	H	0.887196	0.597683	0.587304
	H106	H	0.113182	0.420680	0.590657
	H107	H	0.887151	0.417093	0.409999
	H108	H	0.907272	0.617777	0.085768
	H109	H	0.082960	0.395277	0.087069
	H110	H	0.086340	0.616607	0.914158
	H111	H	0.909764	0.392702	0.909920
	H112	H	0.083544	0.919272	0.610076
	H113	H	0.094098	0.091047	0.385213
	H114	H	0.920047	0.092335	0.610224
	H115	H	0.919552	0.914325	0.386423
	H116	H	0.611055	0.088032	0.909703
	H117	H	0.388830	0.091762	0.086912
	H118	H	0.611249	0.915631	0.082036
	H119	H	0.385733	0.912519	0.916957
	C120	C	0.377068	0.014497	0.622998
	C121	C	0.621702	0.996133	0.620829
	C122	C	0.623935	0.014799	0.377748
	C123	C	0.380523	0.998569	0.380745
	C124	C	0.619417	0.385280	0.009066
	C125	C	0.620288	0.627351	0.991598
	C126	C	0.378759	0.626862	0.009890
	C127	C	0.378175	0.384189	0.991866
	C128	C	0.009500	0.627366	0.377739
	C129	C	0.992268	0.627334	0.620992
	C130	C	0.009166	0.384664	0.620600
	C131	C	0.992099	0.383984	0.377979
	C132	C	0.876677	0.514443	0.121680
	C133	C	0.120562	0.497463	0.120681
	C134	C	0.122104	0.514747	0.878767
	C135	C	0.877604	0.496985	0.878484
	C136	C	0.122272	0.884346	0.508154
	C137	C	0.121681	0.127405	0.490707
	C138	C	0.880163	0.126939	0.508554
	C139	C	0.880852	0.884123	0.490518
	C140	C	0.508342	0.126604	0.879304
	C141	C	0.491555	0.127307	0.121355
	C142	C	0.508557	0.884055	0.121990
	C143	C	0.490080	0.883559	0.879190
	C144	C	0.373994	0.896079	0.683551
	C145	C	0.623441	0.114393	0.681878
	C146	C	0.627500	0.897459	0.315151
	C147	C	0.376520	0.115660	0.318186
	C148	C	0.680855	0.382162	0.889532
	C149	C	0.682207	0.631048	0.110332
	C150	C	0.317558	0.630341	0.890690
	C151	C	0.315935	0.380773	0.111010
	C152	C	0.891984	0.689880	0.373365
	C153	C	0.109645	0.689898	0.626620
	C154	C	0.891517	0.322596	0.626013
	C155	C	0.110560	0.322697	0.372632
	C156	C	0.891196	0.380601	0.683452
	C157	C	0.109643	0.631688	0.684222
	C158	C	0.890048	0.629723	0.318056
	C159	C	0.110566	0.381138	0.315246
	C160	C	0.373949	0.688782	0.890893
	C161	C	0.624933	0.689229	0.110230
	C162	C	0.623718	0.324244	0.889673
	C163	C	0.372281	0.321681	0.110338
	C164	C	0.686262	0.897616	0.372060
	C165	C	0.683009	0.113928	0.625177
	C166	C	0.314825	0.897350	0.627109
	C167	C	0.318337	0.115973	0.375713
	C168	C	0.874681	0.396375	0.182387
	C169	C	0.122611	0.615584	0.181889
	C170	C	0.125525	0.396998	0.817074
	C171	C	0.874254	0.614508	0.816556
	C172	C	0.184724	0.881122	0.389380
	C173	C	0.180777	0.129452	0.610681
	C174	C	0.819453	0.129980	0.389289
	C175	C	0.817827	0.879670	0.608972
	C176	C	0.390554	0.188380	0.874952
	C177	C	0.609313	0.189732	0.125370
	C178	C	0.390624	0.822677	0.128469
	C179	C	0.608465	0.822507	0.874935
	C180	C	0.390704	0.881356	0.185216
	C181	C	0.610829	0.130054	0.181266
	C182	C	0.389408	0.128508	0.819264
	C183	C	0.608963	0.881290	0.818264
	C184	C	0.875494	0.188832	0.389737
	C185	C	0.124783	0.188454	0.609964
	C186	C	0.127852	0.822622	0.389357
	C187	C	0.874573	0.821158	0.608307
	C188	C	0.184820	0.397824	0.873629
	C189	C	0.182893	0.614350	0.127182
	C190	C	0.815376	0.396931	0.125914
	C191	C	0.815421	0.614210	0.873632
	C192	C	0.403164	0.096498	0.597353
	C193	C	0.596554	0.914214	0.594887
	C194	C	0.598522	0.096684	0.404481
	C195	C	0.406511	0.917072	0.407595
	C196	C	0.593419	0.410739	0.092182
	C197	C	0.594061	0.601304	0.908991
	C198	C	0.405064	0.600822	0.092379
	C199	C	0.405339	0.410205	0.909246
	C200	C	0.091757	0.601256	0.403449
	C201	C	0.910831	0.600614	0.593559
	C202	C	0.091220	0.411117	0.593682
	C203	C	0.910073	0.409414	0.404777
	C204	C	0.902383	0.596611	0.095197
	C205	C	0.094952	0.415453	0.093828
	C206	C	0.095235	0.596306	0.905798
	C207	C	0.903475	0.415054	0.904963
	C208	C	0.094405	0.910668	0.590455
	C209	C	0.096877	0.102018	0.407283
	C210	C	0.905892	0.101524	0.591552
	C211	C	0.908105	0.910616	0.408100
	C212	C	0.591306	0.101551	0.904736
	C213	C	0.409347	0.101179	0.095453
	C214	C	0.590435	0.910056	0.093991
	C215	C	0.407428	0.909215	0.905577
	Zn216	Zn	0.499551	0.005040	0.750649
	Zn217	Zn	0.500920	0.006163	0.250369
	Zn218	Zn	0.748269	0.505648	0.000207
	Zn219	Zn	0.250249	0.506179	0.001033
	Zn220	Zn	0.001635	0.755593	0.498933
	Zn221	Zn	0.000875	0.255303	0.499872
	Zn222	Zn	0.000536	0.505641	0.749942
	Zn223	Zn	-0.000044	0.505729	0.249473
	Zn224	Zn	0.498772	0.755861	0.001027
	Zn225	Zn	0.499621	0.255766	0.000100
	Zn226	Zn	0.752507	0.005131	0.499442
	Zn227	Zn	0.249769	0.006183	0.500146
	N228	N	0.412181	0.969977	0.681163
	N229	N	0.585908	0.040313	0.679314
	N230	N	0.589545	0.971382	0.318545
	N231	N	0.414607	0.041820	0.321121
	N232	N	0.678307	0.419326	0.964703
	N233	N	0.679523	0.593385	0.035540
	N234	N	0.320383	0.592610	0.965403
	N235	N	0.319284	0.418605	0.036112
	N236	N	0.967193	0.688583	0.409537
	N237	N	0.035711	0.687288	0.588013
	N238	N	0.965868	0.324999	0.587604
	N239	N	0.035893	0.324013	0.410907
	N240	N	0.965340	0.418808	0.680108
	N241	N	0.035324	0.593744	0.681256
	N242	N	0.964198	0.591523	0.320555
	N243	N	0.036002	0.418391	0.318349
	N244	N	0.411044	0.687055	0.966292
	N245	N	0.587152	0.687217	0.035366
	N246	N	0.586178	0.325901	0.965062
	N247	N	0.410380	0.323587	0.035329
	N248	N	0.684185	0.971588	0.410206
	N249	N	0.682366	0.039339	0.588058
	N250	N	0.316534	0.971992	0.590437
	N251	N	0.320785	0.042075	0.414151
	N252	N	0.911941	0.470490	0.179994
	N253	N	0.084578	0.541738	0.178052
	N254	N	0.087397	0.470825	0.820027
	N255	N	0.912232	0.540519	0.819518
	N256	N	0.181417	0.918700	0.464389
	N257	N	0.179035	0.092369	0.535352
	N258	N	0.822301	0.092106	0.464088
	N259	N	0.821669	0.917992	0.534665
	N260	N	0.465576	0.186968	0.911718
	N261	N	0.534074	0.188388	0.089311
	N262	N	0.465131	0.824098	0.090223
	N263	N	0.533389	0.823848	0.911988
	N264	N	0.465077	0.918966	0.181250
	N265	N	0.536486	0.092159	0.178990
	N266	N	0.463619	0.090389	0.821941
	N267	N	0.534099	0.918252	0.820563
	N268	N	0.912507	0.187238	0.464956
	N269	N	0.089168	0.187566	0.534081
	N270	N	0.089633	0.824655	0.464325
	N271	N	0.912989	0.823824	0.533541
	N272	N	0.182840	0.472141	0.911123
	N273	N	0.181643	0.539984	0.089654
	N274	N	0.816446	0.471654	0.089048
	N275	N	0.817212	0.539931	0.911166
	O276	O	0.525991	0.548111	0.282974
	H277	H	0.518252	0.552688	0.280082
	H278	H	0.504619	0.539022	0.284015
	O279	O	1.018051	0.214723	1.196987
	H280	H	1.006140	0.234371	1.198161
	H281	H	1.004105	0.210267	1.202172
	O282	O	0.715841	0.580780	0.483733
	H283	H	0.723829	0.564358	0.475305
	H284	H	0.685998	0.573677	0.482099
	O285	O	0.300750	0.537736	0.300451
	H286	H	0.303911	0.520332	0.283949
	H287	H	0.293400	0.523752	0.317020
	O288	O	0.780841	1.055794	0.080776
	H289	H	0.790288	1.046071	0.085966
	H290	H	0.779242	1.079928	0.074920
	O291	O	0.449645	0.587150	0.675120
	H292	H	0.463753	0.579940	0.673668
	H293	H	0.455335	0.592038	0.675786
	O294	O	-0.062735	0.038313	1.090320
	H295	H	-0.056325	0.013802	1.091324
	H296	H	-0.073656	0.035313	1.086517
	O297	O	0.522652	0.298213	0.493935
	H298	H	0.520789	0.292575	0.485252
	H299	H	0.527433	0.292669	0.476778
	O300	O	0.974972	0.796173	0.204475
	H301	H	0.987385	0.777136	0.206490
	H302	H	0.991312	0.802989	0.212353
	O303	O	0.436268	0.693429	0.586398
	H304	H	0.440769	0.684074	0.579326
	H305	H	0.422333	0.696729	0.583171
	O306	O	0.537530	0.438080	0.701951
	H307	H	0.536676	0.434644	0.699565
	H308	H	0.564329	0.448719	0.705265
	O309	O	0.281167	0.287892	0.523913
	H310	H	0.280771	0.282147	0.558722
	H311	H	0.263114	0.269707	0.534806
	O312	O	0.209732	0.983429	0.796861
	H313	H	0.227937	0.990742	0.793195
	H314	H	0.190607	1.003442	0.784373
	O315	O	0.450730	0.385430	0.395886
	H316	H	0.440607	0.375056	0.391128
	H317	H	0.438126	0.380598	0.388395
	O318	O	0.915239	-0.205885	-0.091128
	H319	H	0.894570	-0.203704	-0.080219
	H320	H	0.915279	-0.193121	-0.072515
	O321	O	-0.186578	-0.171616	0.179796
	H322	H	-0.143170	-0.177843	0.183915
	H323	H	-0.199589	-0.142894	0.194752
	O324	O	0.523025	0.287007	0.296120
	H325	H	0.542500	0.267058	0.282305
	H326	H	0.548131	0.281090	0.293250
	O327	O	0.709753	0.298142	0.483760
	H328	H	0.735563	0.272240	0.490146
	H329	H	0.709893	0.324931	0.504546
	O330	O	-0.003729	1.006661	0.211294
	H331	H	0.009350	1.014197	0.211719
	H332	H	-0.018739	0.993511	0.208795
	O333	O	0.680567	0.684492	0.680669
	H334	H	0.672378	0.696659	0.647627
	H335	H	0.651356	0.688716	0.667942
	O336	O	-0.016577	0.203727	-0.196336
	H337	H	-0.006456	0.214192	-0.217536
	H338	H	-0.008103	0.208421	-0.162764
	O339	O	-0.205524	1.026994	0.796087
	H340	H	-0.219640	1.017841	0.775022
	H341	H	-0.189282	1.009899	0.806604
	O342	O	0.217292	0.784066	0.984386
	H343	H	0.245916	0.760043	0.971239
	H344	H	0.213713	0.788410	0.938715
	O345	O	1.014207	0.794417	-0.200606
	H346	H	0.989084	0.783614	-0.168472
	H347	H	1.009899	0.764880	-0.221008
	O348	O	0.355057	0.685837	0.341782
	H349	H	0.340975	0.668373	0.361277
	H350	H	0.370381	0.672671	0.325959
	O351	O	0.178837	0.824620	0.829100
	H352	H	0.184814	0.873846	0.823589
	H353	H	0.128690	0.814511	0.813748
	O354	O	-0.289589	0.667535	0.455829
	H355	H	-0.275564	0.675973	0.446993
	H356	H	-0.285172	0.625954	0.453084
	O357	O	-0.046583	-0.051477	0.775143
	H358	H	-0.043364	-0.076916	0.780747
	H359	H	-0.039520	-0.055252	0.776880
	O360	O	0.355417	0.513572	0.677744
	H361	H	0.342551	0.517508	0.673558
	H362	H	0.367306	0.527914	0.689737
	O363	O	0.021614	-0.140578	1.010706
	H364	H	0.048110	-0.140267	1.013864
	H365	H	0.016045	-0.140911	1.027104
	O366	O	0.805339	0.207252	0.804971
	H367	H	0.842443	0.211617	0.803740
	H368	H	0.802974	0.171293	0.798491
	O369	O	0.305567	0.346934	0.690648
	H370	H	0.327805	0.351193	0.697336
	H371	H	0.308441	0.381664	0.688593
	O372	O	1.061238	0.061560	0.797092
	H373	H	1.055382	0.057949	0.805934
	H374	H	1.042359	0.068364	0.796895
	O375	O	0.710314	0.459043	0.291857
	H376	H	0.725323	0.465077	0.264540
	H377	H	0.696542	0.478340	0.292099
	O378	O	0.523674	0.721693	0.716509
	H379	H	0.504282	0.725728	0.703551
	H380	H	0.527129	0.744985	0.736721
	O381	O	0.339298	0.557955	0.553176
	H382	H	0.338272	0.575438	0.538160
	H383	H	0.346432	0.546169	0.541680
	O384	O	0.655438	0.332591	0.334928
	H385	H	0.668960	0.376681	0.326097
	H386	H	0.666327	0.322826	0.376649
	O387	O	-0.179673	0.211124	0.986513
	H388	H	-0.182668	0.211025	0.977824
	H389	H	-0.185708	0.213475	0.963495
	O390	O	0.211778	0.215763	0.015838
	H391	H	0.213268	0.208180	0.033146
	H392	H	0.230880	0.234318	0.015348
	O393	O	0.791965	0.975339	0.934738
	H394	H	0.791131	0.981598	0.949710
	H395	H	0.781063	0.964182	0.943276
	O396	O	1.031605	0.011204	-0.006091
	H397	H	1.034301	0.004256	-0.001132
	H398	H	1.040291	0.011919	-0.019122
	O399	O	0.871870	0.200946	1.101642
	H400	H	0.862886	0.210594	1.079238
	H401	H	0.872984	0.184093	1.096942
	O402	O	1.158980	0.951598	1.014469
	H403	H	1.173980	0.950051	1.002314
	H404	H	1.162537	0.961536	1.009475
	O405	O	1.164393	1.147628	-0.096605
	H406	H	1.167382	1.150098	-0.076128
	H407	H	1.175103	1.150272	-0.101153
	O408	O	1.183661	0.185800	0.178894
	H409	H	1.191066	0.168238	0.158581
	H410	H	1.131919	0.195834	0.191855
	O411	O	0.829144	0.971076	0.211473
	H412	H	0.824409	0.969147	0.198039
	H413	H	0.817082	0.975089	0.233044
	O414	O	0.484755	0.716534	0.288527
	H415	H	0.488348	0.732330	0.281640
	H416	H	0.464224	0.724826	0.289587
	O417	O	0.479479	0.448604	0.507916
	H418	H	0.470302	0.433995	0.504726
	H419	H	0.479278	0.432962	0.504641
	O420	O	-0.210026	-0.210447	0.015665
	H421	H	-0.219290	-0.229189	0.033410
	H422	H	-0.217229	-0.212734	0.037189
	O423	O	0.718335	0.526578	0.711455
	H424	H	0.751414	0.530747	0.748422
	H425	H	0.707729	0.576216	0.697227
	O426	O	0.285117	0.456815	0.458084
	H427	H	0.293600	0.430521	0.453350
	H428	H	0.275758	0.447581	0.476103
	O429	O	0.286321	0.711833	0.487828
	H430	H	0.255417	0.738905	0.489956
	H431	H	0.297930	0.697100	0.471669
	O432	O	0.688120	0.411921	0.607138
	H433	H	0.678363	0.437923	0.625612
	H434	H	0.686150	0.419586	0.620506
	O435	O	0.490193	0.457516	0.387212
	H436	H	0.481506	0.464703	0.398094
	H437	H	0.497830	0.421660	0.383051
	O438	O	0.202977	0.027116	0.189828
	H439	H	0.214053	0.027683	0.196527
	H440	H	0.205675	0.039522	0.182194
	O441	O	1.151043	-0.076098	0.129530
	H442	H	1.138814	-0.071663	0.126309
	H443	H	1.172007	-0.065140	0.120682
	O444	O	0.023561	1.172061	0.959999
	H445	H	0.025441	1.160997	0.966134
	H446	H	0.017676	1.161205	0.962737
	O447	O	0.557620	0.515888	0.478581
	H448	H	0.555548	0.513682	0.475095
	H449	H	0.545412	0.507631	0.490577
	O450	O	0.567485	0.718947	0.432520
	H451	H	0.591638	0.714444	0.442372
	H452	H	0.553356	0.711874	0.427761
	O453	O	0.449986	0.312971	0.696542
	H454	H	0.476968	0.319920	0.691140
	H455	H	0.454436	0.313899	0.704562
