data_Molecule from HDF5

_cell_length_a		16.194313
_cell_length_b		16.119760
_cell_length_c		16.458632
_cell_angle_alpha	89.701926
_cell_angle_beta	89.947636
_cell_angle_gamma	89.738008
_symmetry_space_group_name_H-M	'P 1'
_symmetry_Int_Tables_number		1

loop_
	_symmetry_equiv_pos_as_xyz
	x,y,z

loop_
	_atom_site_label
	_atom_site_type_symbol
	_atom_site_fract_x
	_atom_site_fract_y
	_atom_site_fract_z
	H0	H	0.402345	0.834129	0.726079
	H1	H	0.605629	0.161283	0.718736
	H2	H	0.609050	0.833180	0.288820
	H3	H	0.402030	0.160546	0.287820
	H4	H	0.723417	0.395198	0.843071
	H5	H	0.720442	0.591476	0.168251
	H6	H	0.288653	0.598192	0.843324
	H7	H	0.289202	0.395259	0.165781
	H8	H	0.841582	0.711152	0.406369
	H9	H	0.170493	0.705056	0.600111
	H10	H	0.840814	0.282997	0.603283
	H11	H	0.168933	0.281463	0.407248
	H12	H	0.843720	0.391790	0.723803
	H13	H	0.167465	0.598325	0.721803
	H14	H	0.843211	0.599759	0.286275
	H15	H	0.167700	0.389821	0.286651
	H16	H	0.405377	0.714863	0.843936
	H17	H	0.603612	0.709511	0.168668
	H18	H	0.605945	0.281342	0.842447
	H19	H	0.407080	0.279743	0.165886
	H20	H	0.720526	0.831445	0.408899
	H21	H	0.719356	0.161542	0.602878
	H22	H	0.294168	0.830259	0.603836
	H23	H	0.291466	0.161552	0.408142
	H24	H	0.901379	0.332770	0.224646
	H25	H	0.107048	0.659066	0.220670
	H26	H	0.108344	0.332035	0.789178
	H27	H	0.903056	0.660086	0.787769
	H28	H	0.224104	0.895429	0.343974
	H29	H	0.221434	0.094457	0.667686
	H30	H	0.788585	0.097695	0.344078
	H31	H	0.787667	0.892499	0.666837
	H32	H	0.342355	0.212447	0.905260
	H33	H	0.671147	0.208215	0.100356
	H34	H	0.341328	0.784211	0.104919
	H35	H	0.670668	0.782600	0.908697
	H36	H	0.344002	0.892967	0.224962
	H37	H	0.668715	0.099493	0.222538
	H38	H	0.343444	0.102013	0.787189
	H39	H	0.668774	0.893145	0.787651
	H40	H	0.904934	0.213458	0.344003
	H41	H	0.103897	0.210160	0.667791
	H42	H	0.106376	0.780529	0.342884
	H43	H	0.906090	0.776943	0.667122
	H44	H	0.221842	0.331745	0.906464
	H45	H	0.217708	0.661393	0.101882
	H46	H	0.793534	0.329665	0.102810
	H47	H	0.792232	0.661344	0.907230
	H48	H	0.413085	0.111690	0.590305
	H49	H	0.595908	0.877818	0.603271
	H50	H	0.594553	0.114538	0.407138
	H51	H	0.416628	0.878323	0.409998
	H52	H	0.592755	0.409748	0.115479
	H53	H	0.602547	0.590031	0.889026
	H54	H	0.407908	0.587473	0.120500
	H55	H	0.414849	0.404763	0.889047
	H56	H	0.123623	0.588537	0.411129
	H57	H	0.889647	0.585325	0.592695
	H58	H	0.124340	0.400047	0.600629
	H59	H	0.890224	0.413570	0.411858
	H60	H	0.121695	0.403658	0.593803
	H61	H	0.888760	0.580987	0.599773
	H62	H	0.121780	0.584266	0.412250
	H63	H	0.886228	0.403779	0.407566
	H64	H	0.414473	0.586692	0.118790
	H65	H	0.596969	0.584196	0.893382
	H66	H	0.594950	0.390674	0.120690
	H67	H	0.412683	0.405741	0.888886
	H68	H	0.592278	0.111244	0.414835
	H69	H	0.590720	0.881806	0.596018
	H70	H	0.407813	0.116905	0.599911
	H71	H	0.419624	0.880730	0.414312
	H72	H	0.911476	0.615266	0.103337
	H73	H	0.097377	0.377589	0.100712
	H74	H	0.092745	0.613740	0.908131
	H75	H	0.923617	0.380955	0.911568
	H76	H	0.101173	0.892463	0.622558
	H77	H	0.097414	0.082632	0.393040
	H78	H	0.915672	0.090607	0.619638
	H79	H	0.907475	0.908574	0.390661
	H80	H	0.621948	0.087793	0.914252
	H81	H	0.387320	0.092851	0.100611
	H82	H	0.621506	0.911581	0.099497
	H83	H	0.387168	0.903505	0.908180
	H84	H	0.625436	0.900678	0.102555
	H85	H	0.391044	0.087664	0.090828
	H86	H	0.623024	0.083702	0.907752
	H87	H	0.390671	0.904860	0.919637
	H88	H	0.909485	0.088488	0.621464
	H89	H	0.092824	0.092703	0.391534
	H90	H	0.106708	0.904840	0.621668
	H91	H	0.920309	0.907637	0.394871
	H92	H	0.093695	0.611684	0.914278
	H93	H	0.092883	0.379582	0.096411
	H94	H	0.921679	0.609966	0.095951
	H95	H	0.910483	0.378208	0.919272
	H96	H	0.419601	0.112797	0.600847
	H97	H	0.601142	0.879055	0.594992
	H98	H	0.601039	0.115155	0.413934
	H99	H	0.413897	0.879379	0.415234
	H100	H	0.610815	0.403547	0.122949
	H101	H	0.594488	0.592376	0.891374
	H102	H	0.412049	0.593133	0.120838
	H103	H	0.414438	0.406295	0.891115
	H104	H	0.122717	0.585073	0.407942
	H105	H	0.886787	0.589957	0.600042
	H106	H	0.121407	0.407795	0.600916
	H107	H	0.889698	0.403962	0.418530
	H108	H	0.909295	0.611932	0.090757
	H109	H	0.098465	0.377942	0.094511
	H110	H	0.099173	0.614452	0.911004
	H111	H	0.911098	0.374913	0.904810
	H112	H	0.093210	0.902515	0.616979
	H113	H	0.103357	0.091362	0.388905
	H114	H	0.913502	0.084260	0.618717
	H115	H	0.913631	0.897082	0.389491
	H116	H	0.625044	0.091339	0.908192
	H117	H	0.390643	0.081253	0.100507
	H118	H	0.620881	0.902885	0.092175
	H119	H	0.391519	0.913423	0.911979
	C120	C	0.384353	0.005339	0.627069
	C121	C	0.625791	0.988298	0.626353
	C122	C	0.626798	0.005083	0.383676
	C123	C	0.385205	0.987930	0.383914
	C124	C	0.628596	0.373206	0.012625
	C125	C	0.627288	0.617501	0.998090
	C126	C	0.382301	0.619457	0.013634
	C127	C	0.384288	0.374695	0.996126
	C128	C	0.014552	0.617100	0.382037
	C129	C	0.996596	0.615004	0.625474
	C130	C	0.014403	0.373982	0.627298
	C131	C	0.996505	0.375522	0.383499
	C132	C	0.884401	0.503947	0.126106
	C133	C	0.126000	0.487087	0.125949
	C134	C	0.126011	0.504618	0.882823
	C135	C	0.884215	0.486946	0.882518
	C136	C	0.129376	0.871870	0.513363
	C137	C	0.127163	0.117551	0.497658
	C138	C	0.883220	0.118034	0.513690
	C139	C	0.884182	0.873865	0.497736
	C140	C	0.515060	0.118274	0.881993
	C141	C	0.497688	0.116970	0.125799
	C142	C	0.514640	0.875361	0.127615
	C143	C	0.497702	0.876167	0.884088
	C144	C	0.384230	0.882272	0.685824
	C145	C	0.624802	0.112134	0.681042
	C146	C	0.627820	0.881755	0.327828
	C147	C	0.383661	0.111526	0.327015
	C148	C	0.684779	0.375396	0.891353
	C149	C	0.682776	0.613438	0.119785
	C150	C	0.326535	0.618714	0.891998
	C151	C	0.327526	0.375285	0.117453
	C152	C	0.890995	0.673498	0.385278
	C153	C	0.120933	0.669168	0.622000
	C154	C	0.890659	0.319093	0.624696
	C155	C	0.119762	0.318602	0.386193
	C156	C	0.891960	0.373174	0.684622
	C157	C	0.119347	0.615958	0.682284
	C158	C	0.891830	0.618303	0.325399
	C159	C	0.119145	0.372862	0.326327
	C160	C	0.384706	0.676610	0.892154
	C161	C	0.624575	0.671846	0.120097
	C162	C	0.626547	0.318553	0.891004
	C163	C	0.386495	0.318006	0.117533
	C164	C	0.683365	0.881053	0.387323
	C165	C	0.681505	0.112298	0.623457
	C166	C	0.330328	0.880329	0.625076
	C167	C	0.328981	0.112049	0.387024
	C168	C	0.883419	0.381156	0.184590
	C169	C	0.125762	0.610405	0.181942
	C170	C	0.126711	0.380961	0.827614
	C171	C	0.883954	0.610734	0.826016
	C172	C	0.185535	0.875035	0.392215
	C173	C	0.183262	0.114886	0.619256
	C174	C	0.826758	0.117490	0.392324
	C175	C	0.826810	0.873399	0.618748
	C176	C	0.391643	0.174535	0.884921
	C177	C	0.621591	0.171589	0.121979
	C178	C	0.391061	0.820596	0.125739
	C179	C	0.621330	0.820062	0.887250
	C180	C	0.392218	0.874989	0.185131
	C181	C	0.620484	0.117619	0.182817
	C182	C	0.392142	0.119787	0.825982
	C183	C	0.620279	0.874931	0.826954
	C184	C	0.884415	0.175292	0.392397
	C185	C	0.124843	0.172626	0.619246
	C186	C	0.126739	0.817704	0.391567
	C187	C	0.885683	0.815922	0.618847
	C188	C	0.183518	0.380975	0.885924
	C189	C	0.181109	0.611571	0.123046
	C190	C	0.829722	0.379524	0.124080
	C191	C	0.829037	0.611560	0.885834
	C192	C	0.406837	0.091570	0.603901
	C193	C	0.602698	0.901822	0.604563
	C194	C	0.602915	0.091517	0.405497
	C195	C	0.409756	0.901805	0.406482
	C196	C	0.606161	0.394876	0.097683
	C197	C	0.604674	0.595500	0.913241
	C198	C	0.404847	0.595866	0.098142
	C199	C	0.407162	0.398717	0.911684
	C200	C	0.100537	0.593052	0.404026
	C201	C	0.910784	0.592060	0.603831
	C202	C	0.100215	0.397011	0.604907
	C203	C	0.910975	0.400040	0.406093
	C204	C	0.907325	0.590063	0.103260
	C205	C	0.103182	0.400835	0.103701
	C206	C	0.102180	0.590998	0.904701
	C207	C	0.907982	0.400591	0.905162
	C208	C	0.107005	0.893658	0.598390
	C209	C	0.104650	0.095334	0.413096
	C210	C	0.906163	0.094573	0.597908
	C211	C	0.907112	0.897523	0.413424
	C212	C	0.600951	0.094538	0.903641
	C213	C	0.411900	0.093782	0.103679
	C214	C	0.600307	0.898368	0.104732
	C215	C	0.411929	0.900217	0.906562
	Zn216	Zn	0.505717	-0.002491	0.754872
	Zn217	Zn	0.506003	-0.003061	0.255262
	Zn218	Zn	0.757688	0.494959	0.004717
	Zn219	Zn	0.253936	0.496455	0.004803
	Zn220	Zn	0.006161	0.743259	0.505012
	Zn221	Zn	0.004745	0.247763	0.505311
	Zn222	Zn	0.005170	0.495306	0.754435
	Zn223	Zn	0.005569	0.494849	0.254129
	Zn224	Zn	0.505387	0.748054	0.006152
	Zn225	Zn	0.506291	0.245001	0.003548
	Zn226	Zn	0.754281	-0.003655	0.506152
	Zn227	Zn	0.257586	-0.004089	0.505336
	N228	N	0.416711	0.961012	0.687435
	N229	N	0.591065	0.033794	0.683136
	N230	N	0.593438	0.960028	0.325509
	N231	N	0.418045	0.033231	0.324849
	N232	N	0.685963	0.408856	0.967952
	N233	N	0.684609	0.580484	0.042884
	N234	N	0.324825	0.584018	0.968488
	N235	N	0.326285	0.409984	0.041024
	N236	N	0.968291	0.672788	0.419766
	N237	N	0.043779	0.668924	0.587261
	N238	N	0.967753	0.319531	0.589640
	N239	N	0.042450	0.319998	0.421040
	N240	N	0.969853	0.406650	0.686304
	N241	N	0.041181	0.582823	0.684600
	N242	N	0.969703	0.583920	0.323374
	N243	N	0.041482	0.407322	0.324395
	N244	N	0.418343	0.677474	0.968849
	N245	N	0.590931	0.674603	0.043228
	N246	N	0.592441	0.316965	0.967571
	N247	N	0.420987	0.317389	0.040994
	N248	N	0.682721	0.958798	0.421282
	N249	N	0.682164	0.034191	0.590081
	N250	N	0.330286	0.957772	0.589240
	N251	N	0.329650	0.034113	0.421310
	N252	N	0.916844	0.459483	0.185916
	N253	N	0.092291	0.532040	0.183962
	N254	N	0.091825	0.458910	0.825565
	N255	N	0.917363	0.531988	0.823674
	N256	N	0.187314	0.907996	0.469085
	N257	N	0.184641	0.081260	0.542685
	N258	N	0.825790	0.082705	0.468747
	N259	N	0.825565	0.908530	0.542481
	N260	N	0.469069	0.173690	0.919223
	N261	N	0.544270	0.171575	0.087348
	N262	N	0.468136	0.820504	0.090613
	N263	N	0.543933	0.820439	0.921826
	N264	N	0.470128	0.908417	0.186508
	N265	N	0.542443	0.084494	0.185416
	N266	N	0.469788	0.085419	0.823978
	N267	N	0.542335	0.909274	0.824854
	N268	N	0.919065	0.175788	0.468699
	N269	N	0.090505	0.174484	0.542728
	N270	N	0.092303	0.815627	0.468027
	N271	N	0.920682	0.815965	0.542536
	N272	N	0.183104	0.458876	0.919609
	N273	N	0.181490	0.533915	0.088887
	N274	N	0.830200	0.456787	0.088476
	N275	N	0.829058	0.533638	0.920129
	O276	O	1.027231	0.034879	1.060444
	H277	H	1.046011	0.037633	1.053760
	H278	H	1.025004	0.028119	1.057383
	O279	O	0.002341	1.023963	-0.006298
	H280	H	0.008033	1.029623	-0.002645
	H281	H	0.008835	1.028673	-0.021162
	O282	O	0.563179	0.637969	0.464344
	H283	H	0.563988	0.641913	0.460655
	H284	H	0.549094	0.641062	0.468388
	O285	O	0.438794	0.462213	0.585492
	H286	H	0.443736	0.457365	0.574205
	H287	H	0.425835	0.456962	0.589944
	O288	O	0.545635	0.602050	0.569206
	H289	H	0.559387	0.600275	0.573436
	H290	H	0.550767	0.598060	0.571470
	O291	O	0.108401	0.045269	0.976337
	H292	H	0.099985	0.041644	0.968054
	H293	H	0.112838	0.060910	0.996578
	O294	O	0.523126	1.418156	0.419962
	H295	H	0.529712	1.417813	0.412918
	H296	H	0.521071	1.428532	0.416434
	O297	O	0.950803	1.024758	0.075910
	H298	H	0.947476	1.028246	0.080290
	H299	H	0.952126	1.020348	0.077104
	O300	O	0.568604	0.464420	0.597264
	H301	H	0.582988	0.467881	0.601218
	H302	H	0.562978	0.458272	0.589544
	O303	O	0.088399	0.008748	1.087458
	H304	H	0.086220	0.017430	1.090169
	H305	H	0.081067	0.004206	1.085760
	O306	O	0.438808	0.463303	0.589459
	H307	H	0.428410	0.459318	0.601347
	H308	H	0.438122	0.447860	0.591611
	O309	O	0.569136	0.445340	0.511196
	H310	H	0.567651	0.443433	0.512545
	H311	H	0.567233	0.453100	0.513340
	O312	O	1.491447	0.476571	1.532794
	H313	H	1.494326	0.474852	1.526548
	H314	H	1.481284	0.474186	1.540480
	O315	O	1.023247	1.099046	-0.031516
	H316	H	1.037432	1.095374	-0.017705
	H317	H	1.010723	1.093595	-0.023764
	O318	O	0.500284	0.470888	0.421428
	H319	H	0.503227	0.467875	0.423702
	H320	H	0.502206	0.473198	0.424690
	O321	O	0.498059	0.602509	0.435969
	H322	H	0.503083	0.605401	0.428599
	H323	H	0.504189	0.591969	0.435794
	O324	O	-0.108822	1.058827	0.943034
	H325	H	-0.119140	1.058958	0.936406
	H326	H	-0.108835	1.074172	0.937532
	O327	O	0.039674	1.020204	1.001351
	H328	H	0.027839	1.021250	1.006017
	H329	H	0.047146	1.008772	0.988732
	O330	O	-0.026195	-0.077817	-0.071590
	H331	H	-0.017119	-0.085331	-0.074693
	H332	H	-0.030218	-0.087458	-0.066879
	O333	O	0.553378	0.524683	0.462453
	H334	H	0.545601	0.533065	0.451992
	H335	H	0.557289	0.521286	0.452877
	O336	O	0.020127	-0.129180	0.068786
	H337	H	0.015113	-0.133850	0.065873
	H338	H	0.025214	-0.137028	0.056498
	O339	O	-0.147668	0.007158	-0.046061
	H340	H	-0.137508	0.023223	-0.042728
	H341	H	-0.174221	0.009862	-0.054248
	O342	O	0.141467	1.038658	0.141467
	H343	H	0.140350	1.030608	0.132530
	H344	H	0.145354	1.037408	0.148418
	O345	O	0.055362	0.998383	1.109362
	H346	H	0.060903	0.994754	1.099126
	H347	H	0.042890	0.984659	1.120387
	O348	O	0.028747	1.177547	0.067956
	H349	H	0.028834	1.170650	0.095810
	H350	H	0.029219	1.181537	0.061454
	O351	O	0.611263	0.381206	0.484500
	H352	H	0.613141	0.394639	0.486246
	H353	H	0.628124	0.381677	0.483669
	O354	O	-0.063640	0.900053	0.008599
	H355	H	-0.068534	0.900083	0.014054
	H356	H	-0.071744	0.906170	0.005089
	O357	O	0.481148	0.409665	0.489736
	H358	H	0.481588	0.423058	0.489531
	H359	H	0.485434	0.400990	0.479443
	O360	O	0.664677	0.551393	0.513654
	H361	H	0.659289	0.565614	0.519626
	H362	H	0.665223	0.559803	0.507406
	O363	O	0.407939	0.631246	0.447429
	H364	H	0.404691	0.633027	0.447555
	H365	H	0.406779	0.637990	0.454444
	O366	O	0.531644	0.537636	0.549096
	H367	H	0.528066	0.549981	0.554118
	H368	H	0.542331	0.537400	0.547916
	O369	O	1.077018	-0.107090	-0.045887
	H370	H	1.077660	-0.102970	-0.055448
	H371	H	1.088214	-0.116884	-0.056605
	O372	O	0.379733	0.610700	0.437182
	H373	H	0.375429	0.611912	0.447349
	H374	H	0.374662	0.602172	0.439412
	O375	O	0.890525	-0.115546	1.084947
	H376	H	0.882443	-0.123241	1.090634
	H377	H	0.889169	-0.109797	1.084078
	O378	O	-0.062579	0.955256	-0.102209
	H379	H	-0.043402	0.957953	-0.087920
	H380	H	-0.057169	0.952094	-0.084797
	O381	O	0.408978	0.428658	0.572968
	H382	H	0.403959	0.425100	0.571053
	H383	H	0.408512	0.420340	0.578006
	O384	O	1.136510	1.003410	-0.139693
	H385	H	1.145803	1.012975	-0.136171
	H386	H	1.147669	1.002453	-0.157102
	O387	O	1.004655	-0.018625	1.004372
	H388	H	1.001937	-0.009724	0.992647
	H389	H	1.001818	-0.017495	1.001131
	O390	O	1.513678	0.499292	-0.454305
	H391	H	1.503990	0.494914	-0.460450
	H392	H	1.517672	0.505352	-0.441506
	O393	O	0.424475	0.434933	0.467810
	H394	H	0.424547	0.434884	0.460447
	H395	H	0.418337	0.442625	0.462886
