data_Molecule from HDF5

_cell_length_a		16.307173
_cell_length_b		16.347616
_cell_length_c		16.554199
_cell_angle_alpha	90.059522
_cell_angle_beta	90.126557
_cell_angle_gamma	89.985778
_symmetry_space_group_name_H-M	'P 1'
_symmetry_Int_Tables_number		1

loop_
	_symmetry_equiv_pos_as_xyz
	x,y,z

loop_
	_atom_site_label
	_atom_site_type_symbol
	_atom_site_fract_x
	_atom_site_fract_y
	_atom_site_fract_z
	H0	H	0.387938	0.840406	0.720733
	H1	H	0.610398	0.152915	0.722130
	H2	H	0.611325	0.839448	0.270748
	H3	H	0.390506	0.153475	0.270480
	H4	H	0.721946	0.387992	0.838001
	H5	H	0.723064	0.603222	0.151566
	H6	H	0.274148	0.605180	0.838251
	H7	H	0.275164	0.388108	0.151368
	H8	H	0.840759	0.719844	0.385667
	H9	H	0.158005	0.717815	0.600733
	H10	H	0.840437	0.273859	0.600765
	H11	H	0.159733	0.276957	0.391097
	H12	H	0.841606	0.385729	0.718374
	H13	H	0.154919	0.608096	0.721410
	H14	H	0.842655	0.606085	0.268066
	H15	H	0.157257	0.387091	0.271366
	H16	H	0.387543	0.723358	0.840197
	H17	H	0.605549	0.719102	0.152171
	H18	H	0.607293	0.271001	0.838920
	H19	H	0.389767	0.269749	0.150401
	H20	H	0.723703	0.838626	0.388636
	H21	H	0.720946	0.156091	0.602297
	H22	H	0.278030	0.838512	0.600633
	H23	H	0.278943	0.156680	0.390407
	H24	H	0.890428	0.337567	0.216503
	H25	H	0.108612	0.653445	0.218488
	H26	H	0.104558	0.336590	0.772646
	H27	H	0.887293	0.652790	0.767658
	H28	H	0.221665	0.890594	0.338975
	H29	H	0.222112	0.104654	0.652408
	H30	H	0.775024	0.102557	0.337944
	H31	H	0.778475	0.892045	0.654434
	H32	H	0.340992	0.219060	0.888347
	H33	H	0.659295	0.217462	0.101812
	H34	H	0.339011	0.776571	0.100474
	H35	H	0.658735	0.775910	0.891796
	H36	H	0.341759	0.886524	0.220361
	H37	H	0.659003	0.103163	0.218066
	H38	H	0.343256	0.108658	0.768886
	H39	H	0.657945	0.888079	0.773985
	H40	H	0.891814	0.218162	0.336830
	H41	H	0.104860	0.219163	0.652024
	H42	H	0.105391	0.773864	0.339134
	H43	H	0.892876	0.773038	0.652737
	H44	H	0.218323	0.335609	0.890829
	H45	H	0.219414	0.655401	0.098594
	H46	H	0.780347	0.335519	0.095112
	H47	H	0.776236	0.655263	0.887629
	H48	H	0.413949	0.110038	0.584229
	H49	H	0.583933	0.887425	0.576330
	H50	H	0.582356	0.105654	0.414509
	H51	H	0.409253	0.882983	0.408106
	H52	H	0.584881	0.407280	0.105696
	H53	H	0.588113	0.587711	0.881770
	H54	H	0.413844	0.579982	0.103642
	H55	H	0.411139	0.405735	0.882795
	H56	H	0.114016	0.585296	0.406443
	H57	H	0.886616	0.579020	0.582114
	H58	H	0.112006	0.407963	0.580179
	H59	H	0.887423	0.411081	0.409336
	H60	H	0.111043	0.413430	0.583988
	H61	H	0.883750	0.584769	0.584096
	H62	H	0.111360	0.582801	0.408177
	H63	H	0.883943	0.411787	0.399391
	H64	H	0.413571	0.590909	0.107609
	H65	H	0.587321	0.582998	0.883412
	H66	H	0.590761	0.404923	0.108422
	H67	H	0.408854	0.409062	0.883270
	H68	H	0.593402	0.111951	0.407574
	H69	H	0.596290	0.879800	0.585354
	H70	H	0.413559	0.110440	0.583980
	H71	H	0.412939	0.882418	0.403883
	H72	H	0.920742	0.605380	0.081271
	H73	H	0.091674	0.380845	0.082609
	H74	H	0.082234	0.608834	0.902333
	H75	H	0.913558	0.386572	0.912923
	H76	H	0.083158	0.906413	0.606134
	H77	H	0.086148	0.084273	0.384080
	H78	H	0.907698	0.084810	0.607333
	H79	H	0.915983	0.911659	0.388078
	H80	H	0.609188	0.077878	0.913205
	H81	H	0.386502	0.083717	0.082112
	H82	H	0.612614	0.907202	0.081961
	H83	H	0.383883	0.907425	0.906810
	H84	H	0.611788	0.911574	0.084286
	H85	H	0.387628	0.080868	0.082613
	H86	H	0.615025	0.079674	0.900513
	H87	H	0.387242	0.912483	0.910108
	H88	H	0.914171	0.083306	0.604346
	H89	H	0.088144	0.090335	0.380871
	H90	H	0.090699	0.906056	0.609965
	H91	H	0.911634	0.902209	0.382799
	H92	H	0.084266	0.606946	0.909477
	H93	H	0.084457	0.381457	0.089028
	H94	H	0.907517	0.609110	0.075858
	H95	H	0.904116	0.380212	0.903779
	H96	H	0.413654	0.110234	0.584745
	H97	H	0.581021	0.883100	0.592483
	H98	H	0.580761	0.109850	0.400980
	H99	H	0.415010	0.885460	0.408465
	H100	H	0.590746	0.411884	0.106427
	H101	H	0.583703	0.586207	0.883980
	H102	H	0.404142	0.584607	0.108715
	H103	H	0.413073	0.409700	0.884376
	H104	H	0.112050	0.581409	0.404519
	H105	H	0.885998	0.583978	0.578092
	H106	H	0.114244	0.408152	0.586582
	H107	H	0.883118	0.402770	0.404392
	H108	H	0.910627	0.612250	0.089562
	H109	H	0.083306	0.384673	0.079816
	H110	H	0.089154	0.610275	0.905431
	H111	H	0.918112	0.383219	0.898716
	H112	H	0.088277	0.913272	0.606443
	H113	H	0.092452	0.085130	0.381393
	H114	H	0.912634	0.090135	0.607086
	H115	H	0.905440	0.912123	0.383165
	H116	H	0.615335	0.090188	0.910100
	H117	H	0.386920	0.082466	0.084629
	H118	H	0.613711	0.907496	0.086647
	H119	H	0.385748	0.913130	0.903772
	C120	C	0.378824	0.005906	0.617523
	C121	C	0.620836	0.988033	0.617630
	C122	C	0.620313	0.004905	0.374448
	C123	C	0.378309	0.988233	0.373673
	C124	C	0.621001	0.374693	0.003479
	C125	C	0.620118	0.618397	0.986610
	C126	C	0.376290	0.618970	0.003382
	C127	C	0.377111	0.373737	0.986588
	C128	C	0.007752	0.617362	0.372627
	C129	C	0.990033	0.616939	0.615873
	C130	C	0.007615	0.375583	0.615758
	C131	C	0.990189	0.375034	0.372533
	C132	C	0.879142	0.503933	0.114768
	C133	C	0.120565	0.487121	0.116483
	C134	C	0.118770	0.504020	0.873407
	C135	C	0.877271	0.487423	0.871724
	C136	C	0.120790	0.875063	0.504148
	C137	C	0.121370	0.119226	0.486250
	C138	C	0.877306	0.119075	0.502990
	C139	C	0.877876	0.875338	0.488152
	C140	C	0.508572	0.117287	0.873978
	C141	C	0.491966	0.116486	0.116381
	C142	C	0.507623	0.875286	0.117151
	C143	C	0.490535	0.876457	0.874501
	C144	C	0.372458	0.887552	0.679481
	C145	C	0.626335	0.106135	0.680383
	C146	C	0.626874	0.886555	0.312020
	C147	C	0.373455	0.106516	0.311520
	C148	C	0.681780	0.370681	0.885323
	C149	C	0.682317	0.621521	0.104259
	C150	C	0.314138	0.623032	0.885865
	C151	C	0.315027	0.369821	0.103961
	C152	C	0.888819	0.679545	0.368361
	C153	C	0.109610	0.678602	0.619322
	C154	C	0.888425	0.313950	0.618636
	C155	C	0.111018	0.315488	0.371621
	C156	C	0.888835	0.369835	0.677544
	C157	C	0.108155	0.623551	0.679312
	C158	C	0.889620	0.622756	0.309581
	C159	C	0.109852	0.370262	0.311942
	C160	C	0.370674	0.682347	0.886802
	C161	C	0.623586	0.679077	0.104848
	C162	C	0.624712	0.312065	0.885996
	C163	C	0.372566	0.311067	0.103578
	C164	C	0.682975	0.886276	0.370961
	C165	C	0.681634	0.107746	0.620723
	C166	C	0.317341	0.886763	0.619732
	C167	C	0.318109	0.107982	0.371452
	C168	C	0.874420	0.384899	0.175206
	C169	C	0.125203	0.605996	0.177464
	C170	C	0.122589	0.384405	0.812646
	C171	C	0.871378	0.606021	0.809292
	C172	C	0.181782	0.872184	0.386340
	C173	C	0.181822	0.122086	0.604980
	C174	C	0.815214	0.121405	0.385217
	C175	C	0.818204	0.873095	0.606874
	C176	C	0.389077	0.179250	0.870408
	C177	C	0.611248	0.177710	0.119893
	C178	C	0.387306	0.815346	0.119169
	C179	C	0.610232	0.814816	0.872329
	C180	C	0.388772	0.870594	0.178699
	C181	C	0.611116	0.120486	0.177744
	C182	C	0.390185	0.123757	0.810971
	C183	C	0.610102	0.871336	0.813995
	C184	C	0.873788	0.178780	0.384491
	C185	C	0.123451	0.179491	0.604810
	C186	C	0.123762	0.814063	0.386254
	C187	C	0.875045	0.813637	0.605813
	C188	C	0.179107	0.383898	0.871671
	C189	C	0.180466	0.607069	0.117690
	C190	C	0.819145	0.383788	0.115011
	C191	C	0.816073	0.607193	0.869242
	C192	C	0.405862	0.088661	0.591666
	C193	C	0.594664	0.905202	0.592009
	C194	C	0.593025	0.087458	0.400311
	C195	C	0.404895	0.905344	0.399285
	C196	C	0.595832	0.400638	0.085324
	C197	C	0.593706	0.592926	0.904485
	C198	C	0.403011	0.592685	0.085268
	C199	C	0.403544	0.400522	0.904916
	C200	C	0.090698	0.590879	0.398830
	C201	C	0.907234	0.590189	0.589327
	C202	C	0.090710	0.402184	0.590639
	C203	C	0.906826	0.401017	0.397135
	C204	C	0.905417	0.587254	0.089678
	C205	C	0.094148	0.403958	0.091119
	C206	C	0.092740	0.586936	0.898485
	C207	C	0.904216	0.404773	0.897671
	C208	C	0.094662	0.900999	0.586185
	C209	C	0.096271	0.093945	0.403690
	C210	C	0.903763	0.093591	0.584993
	C211	C	0.903520	0.901282	0.406122
	C212	C	0.591317	0.090373	0.900430
	C213	C	0.408707	0.090000	0.090560
	C214	C	0.590972	0.901305	0.091729
	C215	C	0.407305	0.903225	0.899842
	Zn216	Zn	0.499706	-0.003816	0.745469
	Zn217	Zn	0.499744	-0.003707	0.245447
	Zn218	Zn	0.750102	0.496832	-0.006030
	Zn219	Zn	0.248259	0.495974	-0.005894
	Zn220	Zn	-0.001130	0.745256	0.495057
	Zn221	Zn	-0.000424	0.248029	0.493865
	Zn222	Zn	-0.001450	0.495937	0.743693
	Zn223	Zn	-0.000592	0.495333	0.244499
	Zn224	Zn	0.498574	0.748116	-0.004600
	Zn225	Zn	0.499919	0.244963	-0.004729
	Zn226	Zn	0.748463	-0.003042	0.496032
	Zn227	Zn	0.250536	-0.002620	0.495865
	N228	N	0.409912	0.962886	0.678251
	N229	N	0.589537	0.030628	0.678720
	N230	N	0.588641	0.961442	0.314010
	N231	N	0.410000	0.030728	0.312615
	N232	N	0.679514	0.409200	0.959130
	N233	N	0.680530	0.584673	0.029567
	N234	N	0.317383	0.584313	0.959388
	N235	N	0.317812	0.408062	0.030161
	N236	N	0.963352	0.676244	0.407025
	N237	N	0.035094	0.674500	0.580396
	N238	N	0.963198	0.317464	0.580643
	N239	N	0.035511	0.317959	0.408454
	N240	N	0.964047	0.407557	0.675773
	N241	N	0.032708	0.586072	0.677390
	N242	N	0.964863	0.585075	0.311979
	N243	N	0.033908	0.406539	0.312314
	N244	N	0.408284	0.680212	0.961038
	N245	N	0.585965	0.677528	0.030470
	N246	N	0.587338	0.314507	0.960369
	N247	N	0.410411	0.313265	0.029473
	N248	N	0.679180	0.960911	0.409190
	N249	N	0.678598	0.033174	0.582290
	N250	N	0.321103	0.961314	0.581922
	N251	N	0.320845	0.033221	0.409235
	N252	N	0.910823	0.460732	0.175208
	N253	N	0.088678	0.530114	0.176857
	N254	N	0.086047	0.460148	0.813344
	N255	N	0.908498	0.530564	0.810536
	N256	N	0.180066	0.909518	0.460724
	N257	N	0.180785	0.085357	0.530343
	N258	N	0.817268	0.084998	0.460138
	N259	N	0.819786	0.910660	0.532727
	N260	N	0.463758	0.175478	0.908857
	N261	N	0.535848	0.175557	0.082773
	N262	N	0.462265	0.818303	0.081428
	N263	N	0.534815	0.817857	0.909352
	N264	N	0.464745	0.906884	0.177796
	N265	N	0.535734	0.082985	0.175569
	N266	N	0.465556	0.086114	0.812936
	N267	N	0.534488	0.908666	0.815032
	N268	N	0.911640	0.177451	0.458622
	N269	N	0.086587	0.177749	0.530045
	N270	N	0.086561	0.815821	0.460634
	N271	N	0.910977	0.814776	0.530740
	N272	N	0.176913	0.459142	0.908677
	N273	N	0.177835	0.531957	0.080658
	N274	N	0.821887	0.459102	0.078174
	N275	N	0.819450	0.532494	0.907120
	O276	O	0.322495	0.668261	0.318027
	H277	H	0.309422	0.681931	0.350418
	H278	H	0.365970	0.670798	0.323605
	O279	O	0.578372	0.484231	0.524017
	H280	H	0.580720	0.496196	0.520757
	H281	H	0.585223	0.475434	0.511487
	O282	O	0.518273	0.472467	0.585013
	H283	H	0.520001	0.487131	0.568690
	H284	H	0.514047	0.468829	0.576155
	O285	O	0.877106	1.011286	-0.185496
	H286	H	0.861588	1.013136	-0.182282
	H287	H	0.882813	1.026004	-0.189057
	O288	O	0.500525	0.345518	0.562008
	H289	H	0.510293	0.364722	0.548651
	H290	H	0.498379	0.358573	0.542742
	O291	O	0.346049	0.566103	0.607811
	H292	H	0.337139	0.558019	0.614402
	H293	H	0.343533	0.561393	0.605994
	O294	O	0.930637	1.017613	0.849901
	H295	H	0.917227	1.007503	0.864383
	H296	H	0.945846	1.004339	0.841742
	O297	O	0.301515	0.387397	0.690156
	H298	H	0.341150	0.360696	0.689188
	H299	H	0.280095	0.375645	0.675851
	O300	O	0.710104	0.479373	0.281571
	H301	H	0.726428	0.474307	0.262309
	H302	H	0.703050	0.451901	0.288591
	O303	O	0.706208	0.516735	0.710989
	H304	H	0.723887	0.510283	0.727828
	H305	H	0.711269	0.497158	0.697344
	O306	O	0.106185	0.030401	0.910812
	H307	H	0.109302	-0.004456	0.925106
	H308	H	0.094897	0.043436	0.917554
	O309	O	1.028462	-0.183716	0.199021
	H310	H	1.014832	-0.203775	0.218777
	H311	H	1.043022	-0.189625	0.174299
	O312	O	0.378926	0.505581	0.622099
	H313	H	0.367866	0.506116	0.638124
	H314	H	0.386719	0.474287	0.629888
	O315	O	0.517519	0.292878	0.289044
	H316	H	0.522407	0.289117	0.262756
	H317	H	0.508218	0.314646	0.273157
	O318	O	0.179070	-0.180896	-0.186997
	H319	H	0.132051	-0.188966	-0.198349
	H320	H	0.183046	-0.164535	-0.166304
	O321	O	0.719118	0.718393	0.519001
	H322	H	0.711951	0.711950	0.565366
	H323	H	0.751343	0.747482	0.531574
	O324	O	1.019687	-0.025916	1.147094
	H325	H	1.047435	-0.022608	1.145575
	H326	H	1.026636	-0.052311	1.150329
	O327	O	0.677961	0.678699	0.672622
	H328	H	0.662203	0.650905	0.686332
	H329	H	0.649912	0.662716	0.685510
	O330	O	0.202090	0.992896	0.816090
	H331	H	0.200892	0.978493	0.835234
	H332	H	0.228859	0.989502	0.786454
	O333	O	-0.008232	0.849593	-0.184228
	H334	H	-0.019690	0.840939	-0.168028
	H335	H	-0.013494	0.832615	-0.183861
	O336	O	0.909606	0.956663	-0.044307
	H337	H	0.908864	0.961952	-0.067102
	H338	H	0.911115	0.965410	-0.023810
	O339	O	-0.160219	1.056128	1.151316
	H340	H	-0.150151	1.066949	1.177918
	H341	H	-0.155624	1.065455	1.139203
	O342	O	0.620303	0.405374	0.554102
	H343	H	0.606479	0.408247	0.536248
	H344	H	0.605500	0.414456	0.556737
	O345	O	0.119982	0.057905	0.954145
	H346	H	0.115741	0.056239	0.947366
	H347	H	0.125873	0.054574	0.941223
	O348	O	0.294527	0.299487	0.509761
	H349	H	0.291503	0.287582	0.501386
	H350	H	0.291745	0.304149	0.488094
	O351	O	1.198873	1.056173	0.198818
	H352	H	1.219918	1.059619	0.210960
	H353	H	1.199608	1.084825	0.184945
	O354	O	0.797420	0.789307	1.056066
	H355	H	0.788788	0.789614	1.070675
	H356	H	0.785651	0.784599	1.065874
	O357	O	-0.046919	0.138123	-0.190915
	H358	H	-0.040200	0.116283	-0.197930
	H359	H	-0.050625	0.126502	-0.213808
	O360	O	0.557142	0.704436	0.472897
	H361	H	0.582150	0.710425	0.475923
	H362	H	0.552338	0.703385	0.478795
	O363	O	0.879499	-0.057789	0.183774
	H364	H	0.887512	-0.027481	0.185185
	H365	H	0.915857	-0.055108	0.202847
	O366	O	-0.183644	-0.369366	1.360526
	H367	H	-0.180978	-0.361262	1.358237
	H368	H	-0.189348	-0.367258	1.345317
	O369	O	1.040066	0.135435	1.135687
	H370	H	1.045060	0.116528	1.126248
	H371	H	1.049924	0.164915	1.131044
	O372	O	0.476979	0.712833	0.278942
	H373	H	0.483175	0.736338	0.275010
	H374	H	0.476126	0.711072	0.279633
	O375	O	-0.176241	0.019956	0.972543
	H376	H	-0.164605	-0.000933	0.964014
	H377	H	-0.167315	0.028149	0.970578
	O378	O	0.401600	0.655559	0.526813
	H379	H	0.427459	0.650106	0.521888
	H380	H	0.413232	0.645813	0.551163
	O381	O	-0.118565	1.182116	-0.008933
	H382	H	-0.103130	1.181124	-0.032758
	H383	H	-0.123428	1.183001	-0.014974
	O384	O	0.576453	0.573512	0.283144
	H385	H	0.598943	0.558484	0.277385
	H386	H	0.573164	0.595343	0.290976
	O387	O	0.512830	0.319626	0.506483
	H388	H	0.502080	0.337426	0.487237
	H389	H	0.502276	0.309626	0.501089
	O390	O	1.042773	1.104671	0.163574
	H391	H	1.038012	1.120852	0.162977
	H392	H	1.038453	1.105367	0.160026
	O393	O	1.094038	-0.218172	1.024699
	H394	H	1.088011	-0.214900	0.992171
	H395	H	1.120792	-0.220962	1.011609
	O396	O	0.432684	0.439780	0.275387
	H397	H	0.443961	0.463467	0.277370
	H398	H	0.405831	0.457813	0.274091
	O399	O	0.448601	0.442150	0.683371
	H400	H	0.451993	0.437690	0.674236
	H401	H	0.439113	0.430164	0.699489
	O402	O	1.204779	0.841869	-0.001441
	H403	H	1.213149	0.854692	0.000974
	H404	H	1.223600	0.823669	0.004093
	O405	O	0.708294	0.282702	0.470301
	H406	H	0.716308	0.262831	0.469937
	H407	H	0.702830	0.278835	0.487475
	O408	O	0.523897	0.492544	0.442541
	H409	H	0.521601	0.499200	0.417878
	H410	H	0.539254	0.518138	0.447876
	O411	O	0.978408	1.088378	0.846337
	H412	H	0.972549	1.088089	0.841067
	H413	H	0.996369	1.086855	0.848025
	O414	O	0.503635	0.680092	0.707492
	H415	H	0.476811	0.655814	0.703086
	H416	H	0.494132	0.700532	0.739952
	O417	O	-0.028596	0.786646	0.948225
	H418	H	-0.021014	0.801130	0.961897
	H419	H	-0.046600	0.781411	0.959631
	O420	O	-0.040165	1.102384	1.002609
	H421	H	-0.040606	1.092556	1.015462
	H422	H	-0.044141	1.111139	0.996608
	O423	O	0.112587	1.181125	0.087191
	H424	H	0.072635	1.186970	0.085840
	H425	H	0.110906	1.199138	0.064875
	O426	O	0.376181	0.681687	0.496457
	H427	H	0.380376	0.684386	0.499837
	H428	H	0.366837	0.687127	0.510104
	O429	O	0.283514	0.525991	0.292041
	H430	H	0.255775	0.539268	0.264161
	H431	H	0.287427	0.568161	0.299933
	O432	O	0.422799	0.312639	0.687374
	H433	H	0.429961	0.297995	0.651935
	H434	H	0.447948	0.307069	0.700599
	O435	O	0.099143	-0.041909	0.086519
	H436	H	0.089365	-0.030993	0.090396
	H437	H	0.098408	-0.027118	0.109873
	O438	O	-0.319371	1.317977	1.309855
	H439	H	-0.313476	1.315100	1.352730
	H440	H	-0.349154	1.311845	1.299387
	O441	O	0.337375	0.515364	0.472963
	H442	H	0.334186	0.499510	0.467535
	H443	H	0.328999	0.539322	0.478302
