data_Molecule from HDF5

_cell_length_a		16.276804
_cell_length_b		16.417181
_cell_length_c		16.382617
_cell_angle_alpha	90.215292
_cell_angle_beta	89.722371
_cell_angle_gamma	90.053640
_symmetry_space_group_name_H-M	'P 1'
_symmetry_Int_Tables_number		1

loop_
	_symmetry_equiv_pos_as_xyz
	x,y,z

loop_
	_atom_site_label
	_atom_site_type_symbol
	_atom_site_fract_x
	_atom_site_fract_y
	_atom_site_fract_z
	H0	H	0.385576	0.847691	0.724919
	H1	H	0.597143	0.165063	0.721203
	H2	H	0.603605	0.848685	0.275093
	H3	H	0.389273	0.165813	0.283693
	H4	H	0.714035	0.402324	0.840446
	H5	H	0.718742	0.613482	0.159409
	H6	H	0.277952	0.605752	0.840955
	H7	H	0.274768	0.401507	0.161782
	H8	H	0.838826	0.728202	0.393006
	H9	H	0.156919	0.725179	0.606137
	H10	H	0.835469	0.285475	0.606054
	H11	H	0.156299	0.283625	0.396650
	H12	H	0.836190	0.399600	0.722524
	H13	H	0.158576	0.606643	0.719094
	H14	H	0.836973	0.608884	0.281297
	H15	H	0.155611	0.396405	0.279307
	H16	H	0.388040	0.726568	0.843316
	H17	H	0.604679	0.731717	0.158714
	H18	H	0.601370	0.281759	0.844288
	H19	H	0.389550	0.287338	0.162546
	H20	H	0.717860	0.846871	0.392142
	H21	H	0.715091	0.164227	0.606140
	H22	H	0.273719	0.845375	0.606179
	H23	H	0.275382	0.165390	0.400926
	H24	H	0.890345	0.344826	0.221566
	H25	H	0.105241	0.661034	0.225691
	H26	H	0.101568	0.343653	0.779675
	H27	H	0.895161	0.663210	0.781924
	H28	H	0.214463	0.902751	0.342085
	H29	H	0.211052	0.108243	0.662941
	H30	H	0.774932	0.109226	0.341805
	H31	H	0.774920	0.901427	0.661230
	H32	H	0.332836	0.223837	0.902603
	H33	H	0.655349	0.226629	0.107871
	H34	H	0.334874	0.784529	0.108404
	H35	H	0.653270	0.782432	0.891434
	H36	H	0.332772	0.904910	0.220424
	H37	H	0.654545	0.113281	0.223145
	H38	H	0.331559	0.108919	0.785541
	H39	H	0.652446	0.899511	0.777785
	H40	H	0.890096	0.225151	0.342327
	H41	H	0.098324	0.226049	0.660716
	H42	H	0.106705	0.781676	0.343644
	H43	H	0.891566	0.784415	0.660917
	H44	H	0.213543	0.342139	0.900079
	H45	H	0.214076	0.663972	0.103938
	H46	H	0.773614	0.345869	0.105449
	H47	H	0.776453	0.663651	0.895646
	H48	H	0.395819	0.119551	0.585482
	H49	H	0.577928	0.894452	0.586493
	H50	H	0.581192	0.117263	0.412621
	H51	H	0.405089	0.891453	0.409528
	H52	H	0.587855	0.417938	0.116801
	H53	H	0.585260	0.597067	0.887575
	H54	H	0.411631	0.594771	0.113754
	H55	H	0.410441	0.413003	0.888738
	H56	H	0.110105	0.593912	0.416167
	H57	H	0.881091	0.598375	0.588823
	H58	H	0.115672	0.408406	0.595939
	H59	H	0.880748	0.415600	0.410473
	H60	H	0.108905	0.411298	0.581755
	H61	H	0.884499	0.589733	0.586869
	H62	H	0.109428	0.588171	0.413928
	H63	H	0.880537	0.412801	0.413123
	H64	H	0.404255	0.600032	0.117824
	H65	H	0.586067	0.590826	0.889037
	H66	H	0.582201	0.419308	0.113645
	H67	H	0.404911	0.410049	0.886140
	H68	H	0.584002	0.117110	0.416001
	H69	H	0.587143	0.891383	0.587704
	H70	H	0.398950	0.124227	0.603131
	H71	H	0.408374	0.893106	0.411170
	H72	H	0.906825	0.620225	0.097178
	H73	H	0.081956	0.391872	0.087767
	H74	H	0.087209	0.617183	0.910435
	H75	H	0.908375	0.392475	0.915306
	H76	H	0.079791	0.913748	0.615044
	H77	H	0.090275	0.092075	0.386423
	H78	H	0.896487	0.089783	0.616191
	H79	H	0.908100	0.918509	0.389005
	H80	H	0.609972	0.090212	0.903418
	H81	H	0.375021	0.107237	0.097873
	H82	H	0.608037	0.918418	0.087521
	H83	H	0.376866	0.909299	0.912755
	H84	H	0.608082	0.919697	0.086110
	H85	H	0.383032	0.096759	0.083518
	H86	H	0.610474	0.103022	0.914561
	H87	H	0.382744	0.917193	0.920750
	H88	H	0.914758	0.090203	0.610713
	H89	H	0.080996	0.091872	0.389551
	H90	H	0.086070	0.912624	0.618315
	H91	H	0.910340	0.913012	0.387387
	H92	H	0.088779	0.618067	0.909327
	H93	H	0.087608	0.390141	0.087599
	H94	H	0.916872	0.613884	0.089894
	H95	H	0.899601	0.388935	0.910127
	H96	H	0.412424	0.116447	0.594006
	H97	H	0.580658	0.890898	0.594921
	H98	H	0.585514	0.119368	0.412349
	H99	H	0.405358	0.892439	0.413350
	H100	H	0.583167	0.413260	0.116450
	H101	H	0.580330	0.593719	0.890160
	H102	H	0.402635	0.590763	0.115233
	H103	H	0.404672	0.416187	0.888399
	H104	H	0.112123	0.592900	0.410505
	H105	H	0.881636	0.591965	0.595905
	H106	H	0.109846	0.422697	0.592459
	H107	H	0.883114	0.416227	0.413472
	H108	H	0.905128	0.616461	0.084428
	H109	H	0.084614	0.389429	0.092789
	H110	H	0.086907	0.617652	0.908455
	H111	H	0.909195	0.389288	0.905113
	H112	H	0.084398	0.918623	0.614665
	H113	H	0.084403	0.099593	0.385937
	H114	H	0.906029	0.105590	0.618230
	H115	H	0.904393	0.914152	0.386864
	H116	H	0.603828	0.088068	0.919364
	H117	H	0.380126	0.088571	0.101238
	H118	H	0.607185	0.920174	0.088251
	H119	H	0.380345	0.921441	0.908795
	C120	C	0.370819	0.014531	0.624873
	C121	C	0.614662	0.996954	0.622243
	C122	C	0.617137	0.013914	0.379049
	C123	C	0.373898	0.997782	0.381249
	C124	C	0.616811	0.384240	0.010358
	C125	C	0.617603	0.628028	0.992943
	C126	C	0.374184	0.626089	0.010028
	C127	C	0.374231	0.383140	0.993650
	C128	C	0.005463	0.624945	0.380289
	C129	C	0.988631	0.625112	0.622086
	C130	C	0.004922	0.383084	0.622039
	C131	C	0.987221	0.382282	0.380008
	C132	C	0.875615	0.512280	0.122253
	C133	C	0.117751	0.495271	0.122429
	C134	C	0.118795	0.511676	0.878444
	C135	C	0.875082	0.495547	0.879022
	C136	C	0.117030	0.883370	0.510548
	C137	C	0.116356	0.126323	0.493095
	C138	C	0.873732	0.126632	0.509895
	C139	C	0.874482	0.882891	0.492681
	C140	C	0.501799	0.126138	0.881837
	C141	C	0.485699	0.129095	0.125188
	C142	C	0.502388	0.886548	0.121436
	C143	C	0.484954	0.883465	0.879878
	C144	C	0.368200	0.894766	0.684361
	C145	C	0.616197	0.116949	0.681852
	C146	C	0.620829	0.895732	0.316272
	C147	C	0.371271	0.117811	0.322988
	C148	C	0.675543	0.382730	0.889235
	C149	C	0.678740	0.631644	0.111713
	C150	C	0.316223	0.625658	0.889462
	C151	C	0.314342	0.382853	0.113991
	C152	C	0.886363	0.687119	0.376082
	C153	C	0.109270	0.684910	0.624033
	C154	C	0.883684	0.324608	0.624452
	C155	C	0.107864	0.322524	0.377687
	C156	C	0.884092	0.381433	0.682321
	C157	C	0.109764	0.626030	0.680487
	C158	C	0.885307	0.627471	0.320398
	C159	C	0.107661	0.378824	0.319396
	C160	C	0.371125	0.686033	0.890650
	C161	C	0.621653	0.690454	0.111368
	C162	C	0.619382	0.323078	0.891006
	C163	C	0.371631	0.326074	0.114395
	C164	C	0.677818	0.894736	0.374729
	C165	C	0.675037	0.116619	0.624630
	C166	C	0.312231	0.893878	0.625382
	C167	C	0.314369	0.117568	0.381484
	C168	C	0.872460	0.392545	0.181547
	C169	C	0.121878	0.613801	0.184319
	C170	C	0.119816	0.391494	0.819820
	C171	C	0.875113	0.615603	0.820703
	C172	C	0.176235	0.882831	0.390155
	C173	C	0.172935	0.127111	0.614279
	C174	C	0.814255	0.127850	0.389845
	C175	C	0.814546	0.881932	0.612965
	C176	C	0.380927	0.184827	0.882734
	C177	C	0.606941	0.187517	0.125989
	C178	C	0.382325	0.825577	0.125459
	C179	C	0.605109	0.823059	0.874980
	C180	C	0.381496	0.885212	0.181420
	C181	C	0.606698	0.130904	0.183481
	C182	C	0.380426	0.127419	0.824484
	C183	C	0.604821	0.881136	0.817841
	C184	C	0.871741	0.185660	0.390056
	C185	C	0.116762	0.185969	0.613302
	C186	C	0.122038	0.822860	0.390913
	C187	C	0.872487	0.823623	0.612662
	C188	C	0.175916	0.390941	0.879357
	C189	C	0.176379	0.615568	0.123593
	C190	C	0.814231	0.393172	0.123852
	C191	C	0.816577	0.615944	0.877651
	C192	C	0.395341	0.098266	0.601094
	C193	C	0.589290	0.913845	0.596966
	C194	C	0.591207	0.096429	0.406019
	C195	C	0.399127	0.914132	0.404711
	C196	C	0.591957	0.409627	0.093869
	C197	C	0.591421	0.601528	0.910230
	C198	C	0.399004	0.602047	0.093706
	C199	C	0.399430	0.406435	0.909526
	C200	C	0.088796	0.599106	0.405975
	C201	C	0.904331	0.600392	0.597505
	C202	C	0.089358	0.407036	0.597207
	C203	C	0.903382	0.407604	0.405216
	C204	C	0.902014	0.595100	0.097502
	C205	C	0.092175	0.412173	0.096770
	C206	C	0.094749	0.595905	0.902440
	C207	C	0.898644	0.412072	0.903233
	C208	C	0.090999	0.907755	0.594044
	C209	C	0.092388	0.101541	0.409102
	C210	C	0.898434	0.102210	0.593354
	C211	C	0.900035	0.907888	0.409560
	C212	C	0.586025	0.100938	0.905604
	C213	C	0.401208	0.104546	0.101118
	C214	C	0.585955	0.912115	0.094990
	C215	C	0.401802	0.908851	0.906365
	Zn216	Zn	0.492992	0.005638	0.751948
	Zn217	Zn	0.494785	0.007106	0.251097
	Zn218	Zn	0.746079	0.505775	0.000973
	Zn219	Zn	0.246583	0.503474	0.001511
	Zn220	Zn	-0.002403	0.754161	0.501214
	Zn221	Zn	-0.004624	0.254709	0.500939
	Zn222	Zn	-0.003322	0.503382	0.750085
	Zn223	Zn	-0.003412	0.503195	0.251618
	Zn224	Zn	0.494717	0.755840	0.001645
	Zn225	Zn	0.494867	0.255270	0.003383
	Zn226	Zn	0.745123	0.004829	0.501220
	Zn227	Zn	0.244123	0.004629	0.502341
	N228	N	0.403697	0.970809	0.684504
	N229	N	0.579619	0.041489	0.680753
	N230	N	0.583777	0.970870	0.318904
	N231	N	0.407876	0.042328	0.322841
	N232	N	0.674257	0.419872	0.964546
	N233	N	0.676266	0.593471	0.036974
	N234	N	0.317744	0.589238	0.964992
	N235	N	0.315892	0.417612	0.037824
	N236	N	0.962117	0.685669	0.412642
	N237	N	0.032856	0.684543	0.588524
	N238	N	0.959712	0.325475	0.587615
	N239	N	0.031873	0.324449	0.414606
	N240	N	0.960689	0.416966	0.681063
	N241	N	0.033627	0.589642	0.679538
	N242	N	0.960569	0.589528	0.322891
	N243	N	0.031699	0.415247	0.320582
	N244	N	0.406628	0.686281	0.966684
	N245	N	0.584590	0.688424	0.036214
	N246	N	0.583794	0.323704	0.967301
	N247	N	0.408370	0.326000	0.038639
	N248	N	0.675585	0.969232	0.413258
	N249	N	0.674119	0.041089	0.588113
	N250	N	0.313549	0.969425	0.589331
	N251	N	0.315876	0.041908	0.417070
	N252	N	0.909858	0.467702	0.180689
	N253	N	0.086249	0.537884	0.183748
	N254	N	0.084989	0.467685	0.819192
	N255	N	0.910835	0.539887	0.821575
	N256	N	0.173217	0.919894	0.465486
	N257	N	0.172919	0.090850	0.538518
	N258	N	0.815295	0.091770	0.465494
	N259	N	0.815574	0.918026	0.537404
	N260	N	0.457561	0.184279	0.917512
	N261	N	0.530421	0.186699	0.090570
	N262	N	0.458465	0.826359	0.088850
	N263	N	0.529564	0.824293	0.912546
	N264	N	0.457177	0.922513	0.178875
	N265	N	0.530249	0.095534	0.183231
	N266	N	0.456784	0.091612	0.823790
	N267	N	0.528931	0.917897	0.820477
	N268	N	0.907860	0.185105	0.465651
	N269	N	0.082268	0.185444	0.536891
	N270	N	0.085941	0.823071	0.466888
	N271	N	0.908436	0.823447	0.536577
	N272	N	0.175355	0.466838	0.915064
	N273	N	0.173742	0.540846	0.085755
	N274	N	0.816111	0.468552	0.087738
	N275	N	0.816375	0.540311	0.913357
	O276	O	0.478459	0.362983	0.621346
	H277	H	0.475008	0.378557	0.628566
	H278	H	0.471122	0.366817	0.634335
	O279	O	0.483111	0.453379	0.421171
	H280	H	0.500843	0.452759	0.436964
	H281	H	0.491669	0.447458	0.413254
	O282	O	0.352163	0.327158	0.450201
	H283	H	0.343981	0.308201	0.461435
	H284	H	0.362025	0.326650	0.442882
	O285	O	1.066946	-0.124742	-0.059106
	H286	H	1.063133	-0.131499	-0.040022
	H287	H	1.052397	-0.124397	-0.056928
	O288	O	0.082339	-0.100715	0.950891
	H289	H	0.079479	-0.096430	0.966629
	H290	H	0.063693	-0.115404	0.942385
	O291	O	0.351343	0.593341	0.542617
	H292	H	0.371617	0.598378	0.543551
	H293	H	0.334338	0.616644	0.549568
	O294	O	0.520052	0.325843	0.300022
	H295	H	0.530454	0.314724	0.288772
	H296	H	0.529618	0.320284	0.302701
	O297	O	0.844722	0.869021	1.161285
	H298	H	0.833821	0.886823	1.157923
	H299	H	0.829518	0.861643	1.148551
	O300	O	-0.034234	0.140840	0.084381
	H301	H	-0.046304	0.129511	0.074167
	H302	H	-0.038818	0.152967	0.071045
	O303	O	0.424047	0.543112	0.547654
	H304	H	0.422566	0.552152	0.545218
	H305	H	0.439223	0.551888	0.558058
	O306	O	0.854472	0.190241	-0.184509
	H307	H	0.854635	0.201030	-0.154095
	H308	H	0.891346	0.200818	-0.186739
	O309	O	0.490901	0.634179	0.454541
	H310	H	0.503901	0.625392	0.455712
	H311	H	0.482243	0.631732	0.445291
	O312	O	0.796981	0.961569	-0.070710
	H313	H	0.814425	0.985148	-0.067562
	H314	H	0.779857	0.965439	-0.099769
	O315	O	0.522089	0.480554	0.407305
	H316	H	0.522710	0.482205	0.396890
	H317	H	0.534157	0.477027	0.410314
	O318	O	0.707967	0.720569	0.527320
	H319	H	0.727195	0.740040	0.527380
	H320	H	0.710938	0.716961	0.532207
	O321	O	1.038291	-0.046362	0.815889
	H322	H	1.058912	-0.050513	0.820056
	H323	H	1.047580	-0.051561	0.819506
	O324	O	-0.026724	-0.166898	1.208208
	H325	H	-0.027507	-0.191446	1.237518
	H326	H	-0.046829	-0.147297	1.204861
	O327	O	0.599363	0.309593	0.534932
	H328	H	0.593070	0.302508	0.524418
	H329	H	0.592615	0.297180	0.534588
	O330	O	0.598152	0.508720	0.683980
	H331	H	0.590734	0.500227	0.679861
	H332	H	0.601047	0.515175	0.687768
	O333	O	1.114149	1.066392	1.077218
	H334	H	1.115117	1.057731	1.082407
	H335	H	1.111780	1.059929	1.080398
	O336	O	0.535362	0.607880	0.587074
	H337	H	0.552979	0.609190	0.589573
	H338	H	0.531572	0.597029	0.567574
	O339	O	0.968468	-0.099865	1.049212
	H340	H	0.961594	-0.107426	1.059106
	H341	H	0.968388	-0.097870	1.053067
	O342	O	0.158794	1.086403	1.078457
	H343	H	0.166581	1.070605	1.080995
	H344	H	0.161641	1.086044	1.062050
	O345	O	0.036180	0.940795	0.976523
	H346	H	0.042801	0.947857	0.965320
	H347	H	0.029627	0.938131	0.991638
	O348	O	0.614302	0.571940	0.365198
	H349	H	0.621715	0.585923	0.365815
	H350	H	0.600357	0.560053	0.363974
	O351	O	-0.118827	0.113416	0.030590
	H352	H	-0.104285	0.104262	0.032890
	H353	H	-0.116749	0.098573	0.051316
	O354	O	1.015761	1.018617	-0.026199
	H355	H	1.021207	1.036222	-0.031677
	H356	H	1.013104	1.019977	-0.022777
	O357	O	0.046793	1.119189	-0.083391
	H358	H	0.050029	1.110564	-0.089540
	H359	H	0.053943	1.122812	-0.077039
	O360	O	0.655952	0.624709	0.685233
	H361	H	0.657797	0.614280	0.669948
	H362	H	0.670879	0.611186	0.689235
	O363	O	0.361385	0.395799	0.471296
	H364	H	0.360340	0.376833	0.485150
	H365	H	0.370257	0.424247	0.479434
	O366	O	0.381093	0.441350	0.691918
	H367	H	0.379610	0.439701	0.684301
	H368	H	0.373142	0.464407	0.687699
	O369	O	0.526408	0.308674	0.610760
	H370	H	0.508909	0.311048	0.621042
	H371	H	0.515399	0.301823	0.620767
	O372	O	0.676489	0.385740	0.356119
	H373	H	0.683376	0.404981	0.356204
	H374	H	0.667438	0.386686	0.355323
	O375	O	0.330937	0.523642	0.341095
	H376	H	0.303656	0.516237	0.321369
	H377	H	0.340742	0.504791	0.356941
	O378	O	0.540456	0.346716	0.472266
	H379	H	0.539753	0.347374	0.480386
	H380	H	0.540350	0.363817	0.474248
	O381	O	0.323071	0.515774	0.668319
	H382	H	0.320165	0.523479	0.676727
	H383	H	0.335820	0.520559	0.667758
	O384	O	0.042918	1.019557	1.045480
	H385	H	0.043226	1.016557	1.041541
	H386	H	0.052281	1.019628	1.041002
	O387	O	0.840744	0.918405	-0.063396
	H388	H	0.839008	0.935162	-0.074541
	H389	H	0.847361	0.915343	-0.073460
	O390	O	0.533330	0.707283	0.712770
	H391	H	0.539356	0.729852	0.728926
	H392	H	0.556248	0.702973	0.707832
	O393	O	1.624045	-0.464781	0.340957
	H394	H	1.622417	-0.455467	0.339668
	H395	H	1.623865	-0.461989	0.332837
	O396	O	-0.001102	1.160701	1.060223
	H397	H	0.019724	1.162440	1.064091
	H398	H	0.004352	1.157905	1.062454
	O399	O	0.606727	0.553986	0.495628
	H400	H	0.612758	0.541612	0.473538
	H401	H	0.600606	0.562599	0.492454
	O402	O	1.158428	-0.153153	1.010530
	H403	H	1.159083	-0.153838	1.019785
	H404	H	1.151385	-0.166938	1.016729
	O405	O	0.081823	0.167673	-0.029570
	H406	H	0.091468	0.168430	-0.027632
	H407	H	0.092167	0.162785	-0.027843
	O408	O	1.141165	1.036806	0.937622
	H409	H	1.140542	1.013712	0.942198
	H410	H	1.152789	1.036739	0.907924
	O411	O	0.790870	1.176657	-0.057596
	H412	H	0.797526	1.174080	-0.041789
	H413	H	0.773806	1.190673	-0.055680
	O414	O	-0.072707	-0.154798	0.839070
	H415	H	-0.062888	-0.154205	0.836467
	H416	H	-0.084135	-0.132658	0.850397
	O417	O	0.485969	0.569491	0.592465
	H418	H	0.491300	0.565741	0.615761
	H419	H	0.494367	0.570525	0.586024
	O420	O	-0.203578	0.803938	0.038064
	H421	H	-0.212992	0.809069	0.018877
	H422	H	-0.227243	0.804355	0.032093
	O423	O	1.350290	-0.330849	-0.675240
	H424	H	1.336163	-0.343956	-0.662340
	H425	H	1.346793	-0.345654	-0.664852
	O426	O	-0.129952	-0.026182	1.199454
	H427	H	-0.127375	-0.006374	1.206631
	H428	H	-0.131925	-0.019850	1.211643
	O429	O	0.486216	0.709874	0.323872
	H430	H	0.472770	0.708473	0.325661
	H431	H	0.470063	0.717005	0.318709
