data_Molecule from HDF5

_cell_length_a		16.369729
_cell_length_b		16.268730
_cell_length_c		16.261369
_cell_angle_alpha	89.966840
_cell_angle_beta	89.957042
_cell_angle_gamma	90.153396
_symmetry_space_group_name_H-M	'P 1'
_symmetry_Int_Tables_number		1

loop_
	_symmetry_equiv_pos_as_xyz
	x,y,z

loop_
	_atom_site_label
	_atom_site_type_symbol
	_atom_site_fract_x
	_atom_site_fract_y
	_atom_site_fract_z
	H0	H	0.405089	0.841676	0.711487
	H1	H	0.598108	0.170830	0.711958
	H2	H	0.596919	0.841924	0.286624
	H3	H	0.404485	0.170420	0.286565
	H4	H	0.716020	0.407844	0.836221
	H5	H	0.716363	0.605458	0.162950
	H6	H	0.287164	0.604454	0.836461
	H7	H	0.286847	0.406672	0.163583
	H8	H	0.838216	0.719766	0.402114
	H9	H	0.165091	0.720855	0.597393
	H10	H	0.837942	0.292321	0.596820
	H11	H	0.164716	0.292513	0.401229
	H12	H	0.838122	0.407268	0.714331
	H13	H	0.165173	0.602316	0.712838
	H14	H	0.838610	0.604423	0.284618
	H15	H	0.164319	0.408857	0.284131
	H16	H	0.404823	0.719029	0.835662
	H17	H	0.598307	0.718986	0.164189
	H18	H	0.598796	0.292695	0.835481
	H19	H	0.403550	0.292727	0.164077
	H20	H	0.716008	0.842381	0.399218
	H21	H	0.716608	0.169921	0.598290
	H22	H	0.285685	0.843204	0.598551
	H23	H	0.287424	0.169883	0.401336
	H24	H	0.904479	0.342265	0.212306
	H25	H	0.098610	0.670320	0.211188
	H26	H	0.096414	0.340976	0.788126
	H27	H	0.906582	0.671091	0.787566
	H28	H	0.215432	0.908725	0.335740
	H29	H	0.216189	0.105696	0.663115
	H30	H	0.787028	0.105045	0.335788
	H31	H	0.785954	0.907268	0.662853
	H32	H	0.337750	0.219383	0.903485
	H33	H	0.663921	0.220258	0.097786
	H34	H	0.338280	0.790836	0.097264
	H35	H	0.664737	0.792575	0.902243
	H36	H	0.337836	0.906852	0.213652
	H37	H	0.663905	0.103593	0.213610
	H38	H	0.337515	0.103350	0.785309
	H39	H	0.664094	0.908094	0.784402
	H40	H	0.904894	0.218680	0.334693
	H41	H	0.098100	0.219852	0.663447
	H42	H	0.099111	0.793153	0.335359
	H43	H	0.903297	0.792416	0.663519
	H44	H	0.215909	0.342173	0.900343
	H45	H	0.217455	0.668642	0.097973
	H46	H	0.786005	0.342619	0.098649
	H47	H	0.787634	0.669935	0.901021
	H48	H	0.394610	0.126310	0.590265
	H49	H	0.588738	0.891904	0.591414
	H50	H	0.594081	0.121782	0.405687
	H51	H	0.411866	0.890359	0.405499
	H52	H	0.607299	0.422559	0.117363
	H53	H	0.596103	0.601156	0.881979
	H54	H	0.406976	0.602718	0.118240
	H55	H	0.406064	0.413341	0.882291
	H56	H	0.118445	0.595068	0.396501
	H57	H	0.886647	0.594999	0.594222
	H58	H	0.118303	0.406213	0.592666
	H59	H	0.888591	0.420527	0.408467
	H60	H	0.115231	0.415978	0.589221
	H61	H	0.885109	0.601997	0.595239
	H62	H	0.120241	0.609587	0.406124
	H63	H	0.883060	0.411087	0.397152
	H64	H	0.404638	0.594824	0.116818
	H65	H	0.596383	0.597901	0.883192
	H66	H	0.581698	0.418372	0.111058
	H67	H	0.409315	0.413920	0.884077
	H68	H	0.596139	0.122665	0.408643
	H69	H	0.597314	0.890508	0.586740
	H70	H	0.413507	0.125394	0.604924
	H71	H	0.405081	0.890553	0.411565
	H72	H	0.910920	0.624553	0.100795
	H73	H	0.095126	0.386251	0.099920
	H74	H	0.097882	0.624339	0.903814
	H75	H	0.911891	0.388992	0.899781
	H76	H	0.096248	0.919011	0.614980
	H77	H	0.095980	0.097082	0.383157
	H78	H	0.910086	0.101947	0.615823
	H79	H	0.905799	0.916275	0.382929
	H80	H	0.616458	0.092978	0.900455
	H81	H	0.382244	0.106051	0.095606
	H82	H	0.615136	0.912428	0.088393
	H83	H	0.384584	0.920253	0.894471
	H84	H	0.616110	0.917178	0.095505
	H85	H	0.387199	0.097752	0.087418
	H86	H	0.619931	0.107753	0.902583
	H87	H	0.381616	0.898809	0.904555
	H88	H	0.904774	0.099440	0.617461
	H89	H	0.093010	0.101647	0.383115
	H90	H	0.088807	0.911287	0.615630
	H91	H	0.911123	0.913205	0.383863
	H92	H	0.092845	0.622082	0.905589
	H93	H	0.086467	0.392619	0.089067
	H94	H	0.913001	0.619791	0.085752
	H95	H	0.909642	0.392347	0.913193
	H96	H	0.415224	0.118323	0.583123
	H97	H	0.596169	0.887777	0.596913
	H98	H	0.597086	0.123783	0.405415
	H99	H	0.403553	0.887301	0.403443
	H100	H	0.596307	0.398427	0.121268
	H101	H	0.593171	0.599391	0.883964
	H102	H	0.412924	0.597043	0.115165
	H103	H	0.408098	0.410906	0.882644
	H104	H	0.113917	0.594924	0.413306
	H105	H	0.886574	0.599722	0.589608
	H106	H	0.118679	0.414619	0.599721
	H107	H	0.885324	0.405036	0.411607
	H108	H	0.899192	0.624942	0.090498
	H109	H	0.101131	0.388856	0.086572
	H110	H	0.097040	0.621720	0.908932
	H111	H	0.899271	0.387119	0.905635
	H112	H	0.099106	0.909567	0.618134
	H113	H	0.098308	0.101952	0.380991
	H114	H	0.908746	0.096112	0.614727
	H115	H	0.906723	0.909954	0.381098
	H116	H	0.614227	0.099426	0.913899
	H117	H	0.384852	0.094566	0.098841
	H118	H	0.619628	0.908902	0.095627
	H119	H	0.389973	0.917016	0.917632
	C120	C	0.379994	0.014837	0.620626
	C121	C	0.622824	0.998030	0.620453
	C122	C	0.623022	0.014324	0.378226
	C123	C	0.379516	0.997774	0.378632
	C124	C	0.622954	0.384764	0.008103
	C125	C	0.623485	0.628020	0.991129
	C126	C	0.380341	0.626633	0.008142
	C127	C	0.379895	0.384489	0.991552
	C128	C	0.009711	0.627769	0.377626
	C129	C	0.993644	0.627636	0.621186
	C130	C	0.009388	0.383900	0.621752
	C131	C	0.993422	0.384392	0.377377
	C132	C	0.879668	0.514684	0.120712
	C133	C	0.122701	0.497469	0.120199
	C134	C	0.123185	0.514046	0.878095
	C135	C	0.879790	0.497963	0.878139
	C136	C	0.122673	0.885161	0.507959
	C137	C	0.123268	0.128308	0.491059
	C138	C	0.880355	0.127253	0.507640
	C139	C	0.879350	0.884360	0.490879
	C140	C	0.509106	0.127861	0.877798
	C141	C	0.492462	0.127715	0.121761
	C142	C	0.508991	0.884145	0.121282
	C143	C	0.493218	0.884017	0.877570
	C144	C	0.383636	0.891007	0.674581
	C145	C	0.619520	0.121649	0.675115
	C146	C	0.618570	0.890869	0.323774
	C147	C	0.383341	0.121336	0.323974
	C148	C	0.677413	0.387750	0.884654
	C149	C	0.678049	0.625494	0.114377
	C150	C	0.325653	0.624373	0.884916
	C151	C	0.324240	0.386196	0.114571
	C152	C	0.887113	0.682569	0.380815
	C153	C	0.116450	0.682731	0.618283
	C154	C	0.886662	0.329327	0.618346
	C155	C	0.115974	0.330193	0.380532
	C156	C	0.886832	0.386562	0.676635
	C157	C	0.116430	0.624336	0.675696
	C158	C	0.887235	0.624919	0.322840
	C159	C	0.115900	0.387882	0.322459
	C160	C	0.383755	0.681507	0.884717
	C161	C	0.619827	0.682240	0.114853
	C162	C	0.619320	0.330471	0.884415
	C163	C	0.382670	0.329923	0.114930
	C164	C	0.677940	0.891310	0.379748
	C165	C	0.678361	0.121243	0.618578
	C166	C	0.324542	0.891716	0.618296
	C167	C	0.325156	0.121116	0.380843
	C168	C	0.883021	0.391156	0.175074
	C169	C	0.119549	0.621207	0.174225
	C170	C	0.118792	0.390360	0.824291
	C171	C	0.884235	0.621799	0.824209
	C172	C	0.177221	0.888150	0.384491
	C173	C	0.177658	0.125442	0.614516
	C174	C	0.825442	0.125088	0.384417
	C175	C	0.824449	0.887248	0.614245
	C176	C	0.386272	0.181989	0.881527
	C177	C	0.615214	0.182565	0.118610
	C178	C	0.386774	0.828770	0.118004
	C179	C	0.615818	0.829835	0.880718
	C180	C	0.386441	0.886562	0.175749
	C181	C	0.615256	0.124915	0.176329
	C182	C	0.386191	0.124198	0.823305
	C183	C	0.615451	0.887089	0.822079
	C184	C	0.883749	0.181587	0.383899
	C185	C	0.119625	0.182686	0.614589
	C186	C	0.119922	0.830464	0.384483
	C187	C	0.882455	0.829940	0.614274
	C188	C	0.177824	0.390831	0.880340
	C189	C	0.178616	0.620444	0.118153
	C190	C	0.824693	0.391246	0.118174
	C191	C	0.825494	0.621271	0.880700
	C192	C	0.401452	0.101236	0.599196
	C193	C	0.600686	0.912291	0.598224
	C194	C	0.601830	0.100401	0.400184
	C195	C	0.400738	0.911506	0.400521
	C196	C	0.601397	0.406605	0.094262
	C197	C	0.601828	0.605840	0.905382
	C198	C	0.401891	0.604785	0.094442
	C199	C	0.401346	0.406399	0.905164
	C200	C	0.095554	0.606163	0.399109
	C201	C	0.908283	0.605445	0.599397
	C202	C	0.095424	0.405782	0.600304
	C203	C	0.907542	0.405879	0.399258
	C204	C	0.901255	0.600825	0.098820
	C205	C	0.100742	0.411555	0.098410
	C206	C	0.102052	0.600405	0.899663
	C207	C	0.900545	0.411681	0.899852
	C208	C	0.101017	0.906862	0.594089
	C209	C	0.101993	0.106782	0.404720
	C210	C	0.901814	0.105666	0.593948
	C211	C	0.901357	0.906615	0.404623
	C212	C	0.594653	0.106448	0.899274
	C213	C	0.406800	0.105902	0.100282
	C214	C	0.594832	0.906414	0.099473
	C215	C	0.407386	0.905689	0.899220
	Zn216	Zn	0.501343	0.006424	0.748494
	Zn217	Zn	0.500725	0.005973	0.250181
	Zn218	Zn	0.751264	0.506351	-0.000310
	Zn219	Zn	0.251591	0.505381	-0.000618
	Zn220	Zn	0.001472	0.756551	0.499292
	Zn221	Zn	0.001005	0.255769	0.499483
	Zn222	Zn	0.001410	0.505966	0.750035
	Zn223	Zn	0.001325	0.506095	0.248472
	Zn224	Zn	0.501714	0.755159	0.000037
	Zn225	Zn	0.500668	0.256500	0.000280
	Zn226	Zn	0.751597	0.006515	0.499566
	Zn227	Zn	0.251240	0.006548	0.499495
	N228	N	0.417273	0.968618	0.676088
	N229	N	0.585800	0.044066	0.676402
	N230	N	0.585318	0.968376	0.322482
	N231	N	0.416432	0.043571	0.322490
	N232	N	0.679697	0.420715	0.962436
	N233	N	0.680814	0.592892	0.036464
	N234	N	0.323532	0.590775	0.962534
	N235	N	0.322544	0.419659	0.036762
	N236	N	0.964464	0.684516	0.414046
	N237	N	0.039075	0.685084	0.585061
	N238	N	0.963824	0.327658	0.584824
	N239	N	0.038704	0.327994	0.413991
	N240	N	0.964153	0.419910	0.678668
	N241	N	0.039298	0.590755	0.677534
	N242	N	0.964361	0.591481	0.320825
	N243	N	0.038728	0.421103	0.320742
	N244	N	0.416978	0.683000	0.962409
	N245	N	0.586420	0.683708	0.037316
	N246	N	0.586172	0.328290	0.962316
	N247	N	0.416493	0.328812	0.037469
	N248	N	0.680723	0.969090	0.413049
	N249	N	0.680589	0.043419	0.585433
	N250	N	0.322417	0.969670	0.585239
	N251	N	0.322660	0.043330	0.413903
	N252	N	0.916338	0.468931	0.176846
	N253	N	0.085577	0.543763	0.175682
	N254	N	0.085466	0.467873	0.822927
	N255	N	0.917164	0.543975	0.822426
	N256	N	0.179076	0.921600	0.462192
	N257	N	0.180047	0.092465	0.536703
	N258	N	0.823036	0.092138	0.462334
	N259	N	0.822460	0.920511	0.536343
	N260	N	0.463604	0.184597	0.914454
	N261	N	0.537870	0.184444	0.085438
	N262	N	0.464177	0.827468	0.084839
	N263	N	0.538798	0.827873	0.914355
	N264	N	0.463619	0.920106	0.178114
	N265	N	0.538055	0.091353	0.178331
	N266	N	0.463572	0.091285	0.820831
	N267	N	0.538106	0.920172	0.820006
	N268	N	0.917235	0.182940	0.461541
	N269	N	0.086501	0.184516	0.536917
	N270	N	0.086285	0.828933	0.462098
	N271	N	0.915704	0.828077	0.536507
	N272	N	0.180759	0.468924	0.913021
	N273	N	0.180700	0.542778	0.085076
	N274	N	0.822404	0.469234	0.085318
	N275	N	0.822504	0.543325	0.913261
	O276	O	0.605451	-0.470441	0.536359
	H277	H	0.606069	-0.466666	0.541933
	H278	H	0.612792	-0.472794	0.545662
	O279	O	0.561086	0.522416	0.552926
	H280	H	0.560689	0.514025	0.543338
	H281	H	0.562348	0.527385	0.554734
	O282	O	0.569965	0.480157	0.566264
	H283	H	0.565007	0.474759	0.568574
	H284	H	0.576018	0.481183	0.569306
	O285	O	0.571278	0.492933	0.567636
	H286	H	0.572482	0.494905	0.568165
	H287	H	0.573612	0.496262	0.561984
