data_Molecule from HDF5

_cell_length_a		16.259744
_cell_length_b		16.162302
_cell_length_c		16.397301
_cell_angle_alpha	89.828020
_cell_angle_beta	89.837160
_cell_angle_gamma	89.734139
_symmetry_space_group_name_H-M	'P 1'
_symmetry_Int_Tables_number		1

loop_
	_symmetry_equiv_pos_as_xyz
	x,y,z

loop_
	_atom_site_label
	_atom_site_type_symbol
	_atom_site_fract_x
	_atom_site_fract_y
	_atom_site_fract_z
	H0	H	0.404645	0.829853	0.727729
	H1	H	0.605717	0.155933	0.725914
	H2	H	0.610229	0.829517	0.294936
	H3	H	0.403002	0.155468	0.291784
	H4	H	0.722114	0.391133	0.846851
	H5	H	0.720874	0.591085	0.170911
	H6	H	0.288312	0.595697	0.847579
	H7	H	0.286670	0.389693	0.170527
	H8	H	0.840536	0.709554	0.411719
	H9	H	0.169717	0.706191	0.604555
	H10	H	0.841486	0.279396	0.607728
	H11	H	0.169181	0.278503	0.408641
	H12	H	0.841814	0.393701	0.725382
	H13	H	0.166548	0.598490	0.727104
	H14	H	0.841405	0.597745	0.291858
	H15	H	0.167124	0.392028	0.289828
	H16	H	0.404157	0.711522	0.848200
	H17	H	0.603364	0.705619	0.172470
	H18	H	0.606231	0.275183	0.847804
	H19	H	0.406946	0.277779	0.172827
	H20	H	0.721636	0.829164	0.412244
	H21	H	0.717305	0.158225	0.607455
	H22	H	0.290955	0.829097	0.610774
	H23	H	0.288927	0.156303	0.408652
	H24	H	0.902333	0.330858	0.227541
	H25	H	0.105096	0.657458	0.223036
	H26	H	0.106990	0.330871	0.790702
	H27	H	0.901970	0.657230	0.792213
	H28	H	0.225900	0.891952	0.349474
	H29	H	0.221196	0.094476	0.671477
	H30	H	0.787611	0.096251	0.348215
	H31	H	0.788675	0.891152	0.670819
	H32	H	0.341706	0.208205	0.912096
	H33	H	0.669816	0.205615	0.107848
	H34	H	0.340992	0.779220	0.108969
	H35	H	0.669424	0.776831	0.912055
	H36	H	0.344836	0.888524	0.230717
	H37	H	0.668042	0.093412	0.227226
	H38	H	0.343361	0.096593	0.792155
	H39	H	0.667846	0.888972	0.792075
	H40	H	0.905716	0.210383	0.346995
	H41	H	0.104461	0.209671	0.670731
	H42	H	0.106585	0.779549	0.346414
	H43	H	0.906482	0.777113	0.670813
	H44	H	0.219764	0.328472	0.909208
	H45	H	0.219614	0.657097	0.106567
	H46	H	0.793004	0.327588	0.106466
	H47	H	0.789493	0.657460	0.909532
	H48	H	0.430101	0.105190	0.603056
	H49	H	0.594925	0.877004	0.600506
	H50	H	0.604290	0.111353	0.421301
	H51	H	0.422772	0.878966	0.419245
	H52	H	0.589800	0.409748	0.118830
	H53	H	0.594831	0.580346	0.896026
	H54	H	0.412123	0.581031	0.122832
	H55	H	0.407600	0.402803	0.893349
	H56	H	0.121581	0.585353	0.410631
	H57	H	0.891335	0.585497	0.594710
	H58	H	0.121236	0.400587	0.601917
	H59	H	0.890757	0.406421	0.419489
	H60	H	0.120074	0.403778	0.596190
	H61	H	0.889883	0.580479	0.604799
	H62	H	0.120899	0.587867	0.416061
	H63	H	0.888536	0.404448	0.413143
	H64	H	0.414589	0.584225	0.123692
	H65	H	0.595184	0.588335	0.893691
	H66	H	0.593773	0.384444	0.127460
	H67	H	0.417766	0.404453	0.897320
	H68	H	0.594175	0.111919	0.408198
	H69	H	0.601917	0.875371	0.600654
	H70	H	0.405889	0.108162	0.587926
	H71	H	0.414941	0.877566	0.426676
	H72	H	0.910550	0.609918	0.098170
	H73	H	0.094537	0.377070	0.100054
	H74	H	0.095476	0.609660	0.917789
	H75	H	0.921110	0.381127	0.924231
	H76	H	0.099924	0.901730	0.624771
	H77	H	0.097697	0.089343	0.393455
	H78	H	0.908867	0.089439	0.626979
	H79	H	0.910437	0.907167	0.394922
	H80	H	0.623670	0.082890	0.911614
	H81	H	0.389934	0.083371	0.103394
	H82	H	0.624209	0.900240	0.110880
	H83	H	0.390603	0.906776	0.918726
	H84	H	0.623159	0.891806	0.099578
	H85	H	0.388934	0.083573	0.103133
	H86	H	0.620822	0.086956	0.921740
	H87	H	0.388836	0.901030	0.914145
	H88	H	0.910724	0.081139	0.623616
	H89	H	0.101981	0.082847	0.393334
	H90	H	0.096258	0.900767	0.624043
	H91	H	0.917882	0.902375	0.395194
	H92	H	0.098145	0.610836	0.916081
	H93	H	0.096299	0.376636	0.099884
	H94	H	0.910637	0.610892	0.101850
	H95	H	0.904033	0.373844	0.917111
	H96	H	0.405964	0.116469	0.615054
	H97	H	0.597705	0.874839	0.606172
	H98	H	0.588583	0.105609	0.422375
	H99	H	0.413026	0.874021	0.416948
	H100	H	0.614394	0.401888	0.128557
	H101	H	0.601579	0.583725	0.893179
	H102	H	0.409956	0.584614	0.125151
	H103	H	0.415636	0.394221	0.892930
	H104	H	0.119765	0.582234	0.415434
	H105	H	0.886273	0.591584	0.603467
	H106	H	0.119161	0.406408	0.601969
	H107	H	0.888416	0.399765	0.418339
	H108	H	0.913969	0.609963	0.099852
	H109	H	0.095406	0.376259	0.101644
	H110	H	0.095547	0.610168	0.915138
	H111	H	0.919919	0.375114	0.906602
	H112	H	0.098164	0.898178	0.625380
	H113	H	0.094875	0.082378	0.396007
	H114	H	0.917066	0.088016	0.622999
	H115	H	0.910581	0.899411	0.392036
	H116	H	0.618941	0.076568	0.919331
	H117	H	0.389860	0.083458	0.103166
	H118	H	0.619293	0.904994	0.099361
	H119	H	0.389186	0.899936	0.921439
	C120	C	0.384500	0.001707	0.631853
	C121	C	0.626452	0.984176	0.631138
	C122	C	0.627220	0.001617	0.388688
	C123	C	0.385162	0.984267	0.389790
	C124	C	0.628461	0.369265	0.017920
	C125	C	0.626363	0.613069	1.001271
	C126	C	0.383021	0.614325	0.017350
	C127	C	0.383713	0.370456	1.001560
	C128	C	0.013077	0.616009	0.385735
	C129	C	0.996653	0.615662	0.630001
	C130	C	0.013085	0.373265	0.630093
	C131	C	0.997006	0.372951	0.386868
	C132	C	0.883129	0.501773	0.129738
	C133	C	0.125259	0.484955	0.129361
	C134	C	0.126000	0.501839	0.886859
	C135	C	0.883811	0.484627	0.886482
	C136	C	0.128154	0.871125	0.517987
	C137	C	0.127656	0.114884	0.500994
	C138	C	0.882826	0.116275	0.517875
	C139	C	0.884064	0.872446	0.500814
	C140	C	0.513716	0.113373	0.888327
	C141	C	0.497416	0.112923	0.131821
	C142	C	0.514301	0.869879	0.132788
	C143	C	0.496962	0.871190	0.888303
	C144	C	0.385026	0.878582	0.689046
	C145	C	0.625432	0.107240	0.687496
	C146	C	0.628585	0.878627	0.332571
	C147	C	0.384237	0.106619	0.331040
	C148	C	0.684196	0.370850	0.895566
	C149	C	0.682541	0.611224	0.122809
	C150	C	0.326904	0.614680	0.895828
	C151	C	0.325908	0.370584	0.122585
	C152	C	0.889662	0.671933	0.389983
	C153	C	0.120165	0.670011	0.626447
	C154	C	0.890291	0.317389	0.628202
	C155	C	0.119880	0.316281	0.388456
	C156	C	0.890566	0.374197	0.686772
	C157	C	0.118553	0.616116	0.687384
	C158	C	0.890103	0.616435	0.330358
	C159	C	0.118851	0.372846	0.329226
	C160	C	0.384522	0.672498	0.896328
	C161	C	0.624031	0.668098	0.123520
	C162	C	0.626507	0.313192	0.896045
	C163	C	0.385812	0.314804	0.123777
	C164	C	0.684073	0.878390	0.391173
	C165	C	0.680770	0.108514	0.628575
	C166	C	0.328551	0.878382	0.630853
	C167	C	0.327458	0.107216	0.389319
	C168	C	0.883771	0.379287	0.187861
	C169	C	0.124571	0.608240	0.185025
	C170	C	0.125675	0.379175	0.829898
	C171	C	0.883401	0.608193	0.830735
	C172	C	0.186236	0.872451	0.396950
	C173	C	0.183132	0.114143	0.622930
	C174	C	0.826162	0.115803	0.396482
	C175	C	0.827720	0.872462	0.622723
	C176	C	0.390953	0.170409	0.890932
	C177	C	0.620465	0.168333	0.128967
	C178	C	0.390902	0.815360	0.130580
	C179	C	0.620084	0.814666	0.890934
	C180	C	0.392605	0.869966	0.190891
	C181	C	0.619561	0.112702	0.188468
	C182	C	0.391738	0.114660	0.831329
	C183	C	0.619311	0.870281	0.831136
	C184	C	0.884996	0.172751	0.396004
	C185	C	0.125427	0.171625	0.622542
	C186	C	0.127039	0.816245	0.395647
	C187	C	0.885788	0.815208	0.622451
	C188	C	0.182171	0.378252	0.888493
	C189	C	0.181565	0.608115	0.127038
	C190	C	0.829268	0.377570	0.127821
	C191	C	0.827344	0.608283	0.888903
	C192	C	0.407394	0.087503	0.608696
	C193	C	0.604597	0.898072	0.608971
	C194	C	0.602900	0.087622	0.410843
	C195	C	0.409729	0.898894	0.413951
	C196	C	0.605904	0.392080	0.102654
	C197	C	0.604001	0.590682	0.916332
	C198	C	0.405654	0.590250	0.102063
	C199	C	0.406820	0.393683	0.916567
	C200	C	0.098555	0.592004	0.407533
	C201	C	0.911094	0.592691	0.607514
	C202	C	0.098089	0.396617	0.606836
	C203	C	0.911362	0.396663	0.410258
	C204	C	0.905267	0.587932	0.106541
	C205	C	0.102068	0.398907	0.106961
	C206	C	0.102953	0.587941	0.909574
	C207	C	0.907860	0.398873	0.909211
	C208	C	0.104781	0.893677	0.602667
	C209	C	0.105070	0.091572	0.416356
	C210	C	0.905603	0.093003	0.602684
	C211	C	0.906422	0.896051	0.416005
	C212	C	0.599035	0.089158	0.911053
	C213	C	0.411857	0.090126	0.109807
	C214	C	0.599875	0.892482	0.109817
	C215	C	0.411808	0.895403	0.911318
	Zn216	Zn	0.505539	-0.007519	0.759453
	Zn217	Zn	0.506406	-0.008391	0.261079
	Zn218	Zn	0.756498	0.492053	0.008033
	Zn219	Zn	0.254449	0.492457	0.008167
	Zn220	Zn	0.005300	0.743392	0.508089
	Zn221	Zn	0.005669	0.243993	0.509040
	Zn222	Zn	0.004641	0.494636	0.758708
	Zn223	Zn	0.003916	0.494388	0.257529
	Zn224	Zn	0.504956	0.742948	0.010553
	Zn225	Zn	0.505682	0.241439	0.010156
	Zn226	Zn	0.754422	-0.006222	0.510420
	Zn227	Zn	0.256394	-0.006593	0.510550
	N228	N	0.418914	0.956217	0.689704
	N229	N	0.592490	0.029058	0.689350
	N230	N	0.593841	0.956291	0.330934
	N231	N	0.419328	0.029103	0.331163
	N232	N	0.685877	0.404801	0.972296
	N233	N	0.684330	0.577720	0.045708
	N234	N	0.325918	0.578974	0.972057
	N235	N	0.324435	0.404462	0.045423
	N236	N	0.966998	0.672131	0.423392
	N237	N	0.043394	0.669753	0.591313
	N238	N	0.967487	0.316501	0.593720
	N239	N	0.042895	0.316442	0.423670
	N240	N	0.968058	0.408074	0.688065
	N241	N	0.040712	0.583107	0.689537
	N242	N	0.967901	0.582443	0.327545
	N243	N	0.041260	0.407146	0.328094
	N244	N	0.418520	0.672418	0.972985
	N245	N	0.589813	0.669477	0.047008
	N246	N	0.592749	0.311834	0.973058
	N247	N	0.420885	0.314644	0.047354
	N248	N	0.683415	0.956044	0.425269
	N249	N	0.681922	0.030916	0.594437
	N250	N	0.327768	0.955995	0.596174
	N251	N	0.328067	0.030181	0.425330
	N252	N	0.916366	0.457727	0.189287
	N253	N	0.090436	0.530584	0.186651
	N254	N	0.091858	0.457228	0.828635
	N255	N	0.917624	0.530386	0.828951
	N256	N	0.187090	0.905904	0.473906
	N257	N	0.184718	0.079644	0.546289
	N258	N	0.824612	0.081365	0.473369
	N259	N	0.826323	0.907155	0.546050
	N260	N	0.467803	0.169717	0.925702
	N261	N	0.543375	0.168804	0.094648
	N262	N	0.467662	0.815132	0.095236
	N263	N	0.542873	0.814959	0.925643
	N264	N	0.470385	0.903011	0.192498
	N265	N	0.542133	0.078873	0.190371
	N266	N	0.469091	0.079939	0.829720
	N267	N	0.541803	0.904728	0.829333
	N268	N	0.919666	0.172848	0.472362
	N269	N	0.091672	0.172298	0.545846
	N270	N	0.091571	0.815328	0.471888
	N271	N	0.920181	0.815237	0.545829
	N272	N	0.182539	0.455663	0.923210
	N273	N	0.181953	0.530451	0.092890
	N274	N	0.828660	0.454687	0.092527
	N275	N	0.827460	0.530359	0.923144
	O276	O	0.912080	0.053787	0.863103
	H277	H	0.912778	0.060789	0.857660
	H278	H	0.913251	0.066461	0.862930
	O279	O	-0.008868	0.966307	0.048916
	H280	H	-0.011621	0.956716	0.037151
	H281	H	-0.010088	0.958940	0.052372
	O282	O	0.582773	0.420642	0.511479
	H283	H	0.594478	0.415804	0.499615
	H284	H	0.582968	0.418644	0.508075
	O285	O	0.538263	0.440017	0.563320
	H286	H	0.548429	0.430965	0.554230
	H287	H	0.544926	0.444353	0.563316
	O288	O	0.559999	0.501077	0.396473
	H289	H	0.554542	0.515341	0.396754
	H290	H	0.578321	0.496778	0.398403
	O291	O	0.036096	-0.064930	0.919229
	H292	H	0.036554	-0.055751	0.924583
	H293	H	0.031997	-0.082215	0.917372
	O294	O	0.547314	1.408659	0.439683
	H295	H	0.540597	1.413808	0.448636
	H296	H	0.552512	1.409951	0.435887
	O297	O	0.967691	0.886327	0.126761
	H298	H	0.963006	0.892043	0.128014
	H299	H	0.953525	0.891676	0.119785
	O300	O	0.490468	0.477914	0.506100
	H301	H	0.488769	0.480741	0.514543
	H302	H	0.493740	0.476669	0.503646
	O303	O	0.557974	0.576967	0.486685
	H304	H	0.559184	0.579749	0.486224
	H305	H	0.553825	0.580978	0.486410
	O306	O	0.383967	0.381721	0.550045
	H307	H	0.379684	0.371289	0.559604
	H308	H	0.378053	0.385637	0.542237
	O309	O	0.454895	0.499530	0.491889
	H310	H	0.447188	0.496683	0.485012
	H311	H	0.464199	0.491073	0.491291
	O312	O	1.172180	0.833670	1.223285
	H313	H	1.175442	0.838618	1.236392
	H314	H	1.175758	0.838766	1.223920
	O315	O	1.000577	0.839058	0.084135
	H316	H	0.997087	0.832243	0.101595
	H317	H	0.985033	0.828901	0.079478
	O318	O	0.591785	0.385976	0.413988
	H319	H	0.588452	0.375724	0.416079
	H320	H	0.590778	0.383068	0.422365
	O321	O	0.457839	0.514665	0.487554
	H322	H	0.448281	0.511421	0.490246
	H323	H	0.456940	0.510547	0.480505
	O324	O	-0.033926	1.006813	0.981107
	H325	H	-0.039159	1.018663	0.980849
	H326	H	-0.045544	1.009028	0.975493
	O327	O	0.013817	1.099902	0.974749
	H328	H	0.016813	1.098542	0.980770
	H329	H	0.010667	1.115628	0.976273
	O330	O	-0.036117	0.066011	0.015494
	H331	H	-0.033296	0.084574	0.015521
	H332	H	-0.036908	0.060735	-0.000063
	O333	O	0.445700	0.544213	0.444785
	H334	H	0.446356	0.541491	0.439507
	H335	H	0.445811	0.550431	0.451586
	O336	O	-0.072545	-0.049410	0.091533
	H337	H	-0.075460	-0.047607	0.099055
	H338	H	-0.067134	-0.054982	0.092095
	O339	O	0.062203	0.051577	0.059354
	H340	H	0.061155	0.057397	0.064045
	H341	H	0.065147	0.039901	0.068036
	O342	O	-0.123471	1.010935	-0.085422
	H343	H	-0.132258	1.024934	-0.093072
	H344	H	-0.110434	1.027037	-0.078542
	O345	O	0.170932	0.976124	0.955127
	H346	H	0.173776	0.973961	0.960046
	H347	H	0.183457	0.962355	0.958789
	O348	O	0.039319	0.921416	0.151411
	H349	H	0.024587	0.915606	0.155481
	H350	H	0.023481	0.922040	0.155965
	O351	O	0.517058	0.545711	0.564112
	H352	H	0.521223	0.542359	0.568669
	H353	H	0.524558	0.540823	0.551562
	O354	O	0.023179	1.052612	-0.119133
	H355	H	0.035710	1.043815	-0.117371
	H356	H	0.034103	1.038180	-0.122953
	O357	O	0.489879	0.519980	0.616232
	H358	H	0.479514	0.523075	0.621217
	H359	H	0.489738	0.506926	0.615674
	O360	O	0.373073	0.515043	0.593288
	H361	H	0.372607	0.510595	0.598411
	H362	H	0.369607	0.507608	0.588691
	O363	O	0.561706	0.598046	0.579568
	H364	H	0.565978	0.605272	0.582604
	H365	H	0.566317	0.594214	0.598981
	O366	O	0.517041	0.544550	0.566196
	H367	H	0.511103	0.554615	0.550352
	H368	H	0.522323	0.551812	0.577671
	O369	O	1.081553	0.023176	-0.013180
	H370	H	1.075674	0.038489	-0.017115
	H371	H	1.082023	0.021610	-0.013627
	O372	O	0.549882	0.522357	0.407649
	H373	H	0.543198	0.526474	0.398308
	H374	H	0.555771	0.526065	0.422378
	O375	O	1.025807	0.011581	1.163287
	H376	H	1.024024	0.010401	1.161241
	H377	H	1.025652	0.009185	1.155427
	O378	O	-0.016207	1.066477	-0.016326
	H379	H	-0.003886	1.068788	-0.022481
	H380	H	-0.011624	1.067535	-0.012026
	O381	O	0.573169	0.423307	0.595658
	H382	H	0.565224	0.441824	0.594865
	H383	H	0.564103	0.415551	0.591217
	O384	O	0.945458	0.947802	-0.032775
	H385	H	0.950536	0.949534	-0.039180
	H386	H	0.942475	0.949356	-0.042616
	O387	O	1.120782	0.025044	1.058417
	H388	H	1.125898	0.025614	1.052955
	H389	H	1.132871	0.006051	1.064189
	O390	O	1.469693	0.494667	-0.584958
	H391	H	1.470458	0.509793	-0.575985
	H392	H	1.458133	0.499628	-0.597286
	O393	O	0.415063	0.407482	0.552632
	H394	H	0.402862	0.408526	0.544704
	H395	H	0.419720	0.401832	0.549118
