data_Molecule from HDF5

_cell_length_a		16.165323
_cell_length_b		16.213106
_cell_length_c		16.352771
_cell_angle_alpha	89.750584
_cell_angle_beta	89.380411
_cell_angle_gamma	90.257978
_symmetry_space_group_name_H-M	'P 1'
_symmetry_Int_Tables_number		1

loop_
	_symmetry_equiv_pos_as_xyz
	x,y,z

loop_
	_atom_site_label
	_atom_site_type_symbol
	_atom_site_fract_x
	_atom_site_fract_y
	_atom_site_fract_z
	H0	H	0.381364	0.833699	0.716760
	H1	H	0.583888	0.160527	0.709768
	H2	H	0.588279	0.833485	0.281159
	H3	H	0.384016	0.158330	0.280482
	H4	H	0.704689	0.399638	0.834162
	H5	H	0.700705	0.595890	0.160184
	H6	H	0.275358	0.594730	0.833989
	H7	H	0.268026	0.394816	0.159558
	H8	H	0.821785	0.710114	0.401448
	H9	H	0.151265	0.712046	0.594171
	H10	H	0.822495	0.280073	0.600843
	H11	H	0.151475	0.284809	0.399122
	H12	H	0.823383	0.394682	0.716331
	H13	H	0.152394	0.596244	0.709250
	H14	H	0.823005	0.598502	0.283254
	H15	H	0.149921	0.395311	0.280304
	H16	H	0.389145	0.713271	0.835228
	H17	H	0.586754	0.712700	0.159445
	H18	H	0.586491	0.284225	0.832791
	H19	H	0.383941	0.278625	0.158913
	H20	H	0.698922	0.831577	0.399876
	H21	H	0.700303	0.160171	0.594114
	H22	H	0.270321	0.833095	0.597888
	H23	H	0.275205	0.160733	0.401395
	H24	H	0.882182	0.333866	0.216862
	H25	H	0.086578	0.660792	0.210929
	H26	H	0.089734	0.333507	0.780590
	H27	H	0.888668	0.659691	0.781503
	H28	H	0.203974	0.898303	0.336491
	H29	H	0.198576	0.094774	0.661877
	H30	H	0.773906	0.094708	0.334188
	H31	H	0.768082	0.896662	0.660568
	H32	H	0.321610	0.209978	0.899850
	H33	H	0.650864	0.211257	0.092178
	H34	H	0.323351	0.779548	0.099008
	H35	H	0.652077	0.785668	0.898108
	H36	H	0.323317	0.893255	0.216700
	H37	H	0.650665	0.096920	0.210295
	H38	H	0.321295	0.094862	0.786373
	H39	H	0.649007	0.896122	0.779345
	H40	H	0.887449	0.213864	0.335479
	H41	H	0.083846	0.211931	0.660859
	H42	H	0.087023	0.782685	0.335463
	H43	H	0.884470	0.779826	0.660867
	H44	H	0.200024	0.332621	0.899486
	H45	H	0.199933	0.660814	0.093425
	H46	H	0.769940	0.332694	0.097956
	H47	H	0.778074	0.662335	0.901126
	H48	H	0.388408	0.114317	0.589655
	H49	H	0.574173	0.881355	0.585246
	H50	H	0.581333	0.115131	0.398098
	H51	H	0.385707	0.876913	0.411121
	H52	H	0.584029	0.403444	0.113942
	H53	H	0.582778	0.591744	0.882030
	H54	H	0.395749	0.591981	0.113457
	H55	H	0.394138	0.396402	0.878296
	H56	H	0.106526	0.591647	0.397888
	H57	H	0.872055	0.584441	0.584888
	H58	H	0.103957	0.399388	0.585323
	H59	H	0.867962	0.409453	0.402196
	H60	H	0.101520	0.409784	0.587971
	H61	H	0.870182	0.581363	0.597259
	H62	H	0.103115	0.593353	0.408253
	H63	H	0.868059	0.398855	0.408139
	H64	H	0.389722	0.587438	0.114318
	H65	H	0.582838	0.592054	0.879153
	H66	H	0.574020	0.408851	0.109992
	H67	H	0.386408	0.407506	0.880087
	H68	H	0.572692	0.111472	0.403968
	H69	H	0.581958	0.876919	0.592300
	H70	H	0.392425	0.116407	0.598529
	H71	H	0.397464	0.877009	0.397253
	H72	H	0.893452	0.613284	0.088946
	H73	H	0.078508	0.380698	0.082655
	H74	H	0.070941	0.610008	0.906047
	H75	H	0.906360	0.381799	0.903076
	H76	H	0.068191	0.913434	0.608858
	H77	H	0.084954	0.089206	0.382543
	H78	H	0.890332	0.086114	0.613686
	H79	H	0.898833	0.906077	0.384392
	H80	H	0.603125	0.087411	0.901339
	H81	H	0.368668	0.089079	0.090280
	H82	H	0.603165	0.908154	0.088569
	H83	H	0.370804	0.901379	0.917010
	H84	H	0.604471	0.905819	0.091899
	H85	H	0.370670	0.085230	0.088970
	H86	H	0.604879	0.090477	0.899099
	H87	H	0.370002	0.913038	0.903758
	H88	H	0.894088	0.088114	0.612997
	H89	H	0.078174	0.089660	0.382788
	H90	H	0.071871	0.890351	0.616940
	H91	H	0.894291	0.895596	0.379773
	H92	H	0.091063	0.615598	0.908489
	H93	H	0.081100	0.376875	0.095505
	H94	H	0.893384	0.615423	0.094640
	H95	H	0.893332	0.382911	0.917114
	H96	H	0.398017	0.112504	0.590964
	H97	H	0.571600	0.878556	0.596064
	H98	H	0.582184	0.113560	0.408712
	H99	H	0.401964	0.883666	0.413453
	H100	H	0.574155	0.397548	0.112729
	H101	H	0.582870	0.591526	0.880841
	H102	H	0.395992	0.585007	0.111693
	H103	H	0.400060	0.407138	0.883608
	H104	H	0.101933	0.583874	0.404991
	H105	H	0.867713	0.593412	0.593348
	H106	H	0.106696	0.402681	0.594888
	H107	H	0.871965	0.409502	0.413503
	H108	H	0.898512	0.612379	0.092620
	H109	H	0.067848	0.382211	0.092363
	H110	H	0.082338	0.618442	0.890221
	H111	H	0.888599	0.375899	0.899985
	H112	H	0.090113	0.906759	0.617588
	H113	H	0.081679	0.095270	0.381028
	H114	H	0.890861	0.090270	0.613478
	H115	H	0.887211	0.905201	0.380642
	H116	H	0.604098	0.092271	0.903592
	H117	H	0.368849	0.085636	0.093487
	H118	H	0.603897	0.904025	0.087636
	H119	H	0.364716	0.896250	0.901399
	C120	C	0.363095	0.006008	0.622018
	C121	C	0.605655	0.987496	0.618756
	C122	C	0.607981	0.005062	0.375199
	C123	C	0.365825	0.987378	0.377668
	C124	C	0.608325	0.375343	0.005011
	C125	C	0.610314	0.619931	0.988415
	C126	C	0.365939	0.617726	0.005643
	C127	C	0.363269	0.373787	0.987947
	C128	C	-0.004764	0.618553	0.376032
	C129	C	0.978620	0.617256	0.619358
	C130	C	-0.004211	0.374304	0.620303
	C131	C	0.977905	0.376250	0.377565
	C132	C	0.864020	0.505501	0.121240
	C133	C	0.106141	0.488053	0.118369
	C134	C	0.109888	0.506112	0.874108
	C135	C	0.867302	0.488284	0.877164
	C136	C	0.107125	0.875170	0.507004
	C137	C	0.108940	0.119309	0.489697
	C138	C	0.864048	0.117784	0.506150
	C139	C	0.863315	0.873422	0.489128
	C140	C	0.495011	0.118388	0.874831
	C141	C	0.477806	0.117237	0.118372
	C142	C	0.495575	0.874906	0.119744
	C143	C	0.477554	0.875682	0.877087
	C144	C	0.363026	0.882526	0.677871
	C145	C	0.604261	0.111184	0.672613
	C146	C	0.607513	0.882074	0.319293
	C147	C	0.366062	0.110122	0.320186
	C148	C	0.665824	0.378773	0.882561
	C149	C	0.663674	0.616631	0.111225
	C150	C	0.311937	0.615520	0.883086
	C151	C	0.306571	0.375156	0.110759
	C152	C	0.871130	0.672811	0.380111
	C153	C	0.102127	0.673858	0.615187
	C154	C	0.871654	0.318291	0.620163
	C155	C	0.102018	0.321651	0.379118
	C156	C	0.872481	0.374869	0.678151
	C157	C	0.102768	0.616035	0.672327
	C158	C	0.871888	0.617129	0.321296
	C159	C	0.101033	0.376295	0.319498
	C160	C	0.369148	0.674073	0.883498
	C161	C	0.606977	0.674742	0.110871
	C162	C	0.607205	0.321137	0.881932
	C163	C	0.364482	0.317451	0.110530
	C164	C	0.662497	0.881211	0.378405
	C165	C	0.661974	0.111141	0.615051
	C166	C	0.307326	0.882297	0.619344
	C167	C	0.311494	0.111154	0.380190
	C168	C	0.863496	0.382653	0.177860
	C169	C	0.106088	0.611668	0.173367
	C170	C	0.108667	0.382472	0.818964
	C171	C	0.869089	0.611384	0.820641
	C172	C	0.164635	0.877986	0.384740
	C173	C	0.161957	0.115688	0.612869
	C174	C	0.810637	0.115710	0.383178
	C175	C	0.806739	0.875896	0.611979
	C176	C	0.370872	0.172884	0.878959
	C177	C	0.601846	0.173001	0.113318
	C178	C	0.372318	0.817844	0.119101
	C179	C	0.602093	0.822008	0.877774
	C180	C	0.372425	0.874119	0.177821
	C181	C	0.601422	0.116708	0.172681
	C182	C	0.370792	0.115648	0.822455
	C183	C	0.600607	0.877481	0.819038
	C184	C	0.867134	0.174932	0.384007
	C185	C	0.104979	0.174000	0.612355
	C186	C	0.106570	0.820465	0.384359
	C187	C	0.864515	0.817880	0.612129
	C188	C	0.163579	0.381937	0.877938
	C189	C	0.162087	0.611952	0.114721
	C190	C	0.807657	0.382024	0.118572
	C191	C	0.814068	0.612686	0.880055
	C192	C	0.386295	0.092204	0.599743
	C193	C	0.582758	0.901155	0.597412
	C194	C	0.585373	0.090985	0.397194
	C195	C	0.388491	0.901365	0.400556
	C196	C	0.584349	0.396796	0.090085
	C197	C	0.589126	0.598240	0.902807
	C198	C	0.387489	0.594873	0.091323
	C199	C	0.386628	0.396874	0.902671
	C200	C	0.081450	0.596146	0.397427
	C201	C	0.892117	0.593478	0.598146
	C202	C	0.081849	0.397264	0.596459
	C203	C	0.891763	0.399062	0.401144
	C204	C	0.887945	0.591668	0.098664
	C205	C	0.082800	0.402211	0.096638
	C206	C	0.088102	0.592322	0.895359
	C207	C	0.889592	0.402498	0.899887
	C208	C	0.083581	0.897017	0.592353
	C209	C	0.087827	0.097815	0.404247
	C210	C	0.885561	0.095107	0.591470
	C211	C	0.886438	0.895850	0.403633
	C212	C	0.581767	0.096597	0.895383
	C213	C	0.391543	0.093771	0.097230
	C214	C	0.581616	0.899063	0.096311
	C215	C	0.390900	0.897260	0.900597
	Zn216	Zn	0.484704	-0.003512	0.748526
	Zn217	Zn	0.486520	-0.003677	0.248335
	Zn218	Zn	0.738069	0.497546	-0.002672
	Zn219	Zn	0.235273	0.496829	-0.002639
	Zn220	Zn	-0.013962	0.745458	0.498253
	Zn221	Zn	-0.013836	0.247403	0.498215
	Zn222	Zn	-0.012039	0.496336	0.747860
	Zn223	Zn	-0.013096	0.496832	0.248507
	Zn224	Zn	0.487691	0.747422	-0.002412
	Zn225	Zn	0.485603	0.245983	-0.003848
	Zn226	Zn	0.734606	-0.004085	0.496533
	Zn227	Zn	0.237473	-0.002895	0.499113
	N228	N	0.396704	0.960634	0.679777
	N229	N	0.570115	0.033351	0.675055
	N230	N	0.574186	0.959988	0.317361
	N231	N	0.399228	0.032109	0.318674
	N232	N	0.666689	0.411688	0.959944
	N233	N	0.666024	0.583414	0.033949
	N234	N	0.309986	0.580993	0.960133
	N235	N	0.305582	0.409345	0.033611
	N236	N	0.948827	0.673982	0.413220
	N237	N	0.023753	0.674441	0.582864
	N238	N	0.949193	0.317688	0.584906
	N239	N	0.024334	0.321514	0.414555
	N240	N	0.950539	0.409060	0.678323
	N241	N	0.024865	0.581611	0.674927
	N242	N	0.950157	0.583868	0.318760
	N243	N	0.023012	0.409658	0.318533
	N244	N	0.402010	0.675578	0.960721
	N245	N	0.574438	0.676932	0.033424
	N246	N	0.572008	0.318820	0.958987
	N247	N	0.398864	0.316473	0.033204
	N248	N	0.662911	0.958636	0.412422
	N249	N	0.663217	0.033021	0.582343
	N250	N	0.307264	0.959844	0.585209
	N251	N	0.311255	0.033772	0.415316
	N252	N	0.897716	0.460462	0.179605
	N253	N	0.072080	0.533688	0.175680
	N254	N	0.075832	0.460505	0.816428
	N255	N	0.901537	0.533139	0.818786
	N256	N	0.165318	0.911233	0.462009
	N257	N	0.164606	0.082367	0.535631
	N258	N	0.808502	0.080899	0.460041
	N259	N	0.805935	0.909798	0.534673
	N260	N	0.449237	0.174677	0.911057
	N261	N	0.523849	0.173352	0.080299
	N262	N	0.449915	0.818185	0.083918
	N263	N	0.524635	0.821244	0.913548
	N264	N	0.450167	0.908995	0.178341
	N265	N	0.523290	0.082834	0.176061
	N266	N	0.448970	0.082606	0.819727
	N267	N	0.522049	0.909815	0.818290
	N268	N	0.899683	0.176323	0.461444
	N269	N	0.072615	0.176239	0.534909
	N270	N	0.071484	0.818600	0.461374
	N271	N	0.898876	0.816092	0.534786
	N272	N	0.164488	0.459598	0.911673
	N273	N	0.162302	0.534158	0.081277
	N274	N	0.807939	0.459673	0.084021
	N275	N	0.812439	0.535071	0.914202
	O276	O	0.057457	0.013733	-0.011556
	H277	H	0.052558	0.025035	-0.018695
	H278	H	0.060207	0.013691	-0.005481
	O279	O	0.973708	0.042765	-0.058825
	H280	H	0.973060	0.047035	-0.061706
	H281	H	0.977596	0.037460	-0.061739
	O282	O	0.612749	0.418476	0.443493
	H283	H	0.610035	0.407490	0.434312
	H284	H	0.620126	0.409999	0.446137
	O285	O	0.485099	1.483139	0.620112
	H286	H	0.482630	1.483286	0.621446
	H287	H	0.483274	1.487519	0.615929
	O288	O	0.573182	0.368873	0.433140
	H289	H	0.559694	0.378778	0.434624
	H290	H	0.561436	0.359733	0.439682
	O291	O	1.033247	1.089436	0.999964
	H292	H	1.025748	1.092506	1.001576
	H293	H	1.035425	1.092166	1.009150
	O294	O	0.911903	1.024060	1.005893
	H295	H	0.905052	1.031978	1.010767
	H296	H	0.909562	1.023878	1.004458
	O297	O	1.376786	0.512260	1.509245
	H298	H	1.372725	0.511417	1.519703
	H299	H	1.381278	0.514213	1.514548
	O300	O	0.501229	0.576353	0.493496
	H301	H	0.499042	0.567457	0.476372
	H302	H	0.497876	0.587937	0.493207
	O303	O	0.935389	0.082806	-0.013807
	H304	H	0.936180	0.078187	-0.023333
	H305	H	0.934426	0.082428	-0.017284
	O306	O	-0.054292	0.872828	1.072504
	H307	H	-0.048587	0.866396	1.069563
	H308	H	-0.049853	0.872520	1.086254
	O309	O	0.992801	0.950457	0.973858
	H310	H	0.981767	0.948792	0.968617
	H311	H	1.011774	0.947525	0.962129
	O312	O	1.013272	-0.075564	1.043458
	H313	H	1.012234	-0.069589	1.042086
	H314	H	1.018838	-0.070297	1.053802
	O315	O	0.523847	0.374639	0.379258
	H316	H	0.524497	0.371213	0.378717
	H317	H	0.512667	0.390710	0.378956
	O318	O	0.450819	0.467990	0.518437
	H319	H	0.440660	0.469324	0.514264
	H320	H	0.445932	0.465384	0.524010
	O321	O	0.990480	1.018835	0.983739
	H322	H	0.978789	1.023427	0.981003
	H323	H	0.983043	1.015702	0.986049
	O324	O	0.402522	0.468366	0.485280
	H325	H	0.411168	0.478028	0.484394
	H326	H	0.403313	0.475504	0.481608
	O327	O	0.557976	0.506594	0.427063
	H328	H	0.561760	0.498271	0.427084
	H329	H	0.555683	0.505178	0.432226
	O330	O	0.942079	0.013559	0.980976
	H331	H	0.930732	0.019108	0.986625
	H332	H	0.943083	0.015964	0.964516
	O333	O	1.007871	1.035182	0.000167
	H334	H	1.002336	1.016272	0.001648
	H335	H	1.001711	1.046825	-0.009133
	O336	O	0.391529	0.531553	0.541835
	H337	H	0.397019	0.527248	0.540563
	H338	H	0.405244	0.541236	0.553997
	O339	O	0.546904	0.410035	0.489831
	H340	H	0.532152	0.404933	0.484096
	H341	H	0.557065	0.401196	0.488790
	O342	O	0.044094	1.103188	-0.035583
	H343	H	0.039293	1.097574	-0.026327
	H344	H	0.055058	1.101405	-0.045856
	O345	O	-0.048336	0.038161	0.032795
	H346	H	-0.039398	0.029306	0.037840
	H347	H	-0.049978	0.041867	0.031204
	O348	O	0.574504	0.541047	0.446104
	H349	H	0.590239	0.539375	0.432109
	H350	H	0.575784	0.513767	0.454730
	O351	O	0.470068	0.492725	0.522978
	H352	H	0.473856	0.492245	0.520546
	H353	H	0.474710	0.490929	0.528552
	O354	O	0.538367	0.477916	0.431655
	H355	H	0.537669	0.478233	0.434511
	H356	H	0.545204	0.484008	0.431798
	O357	O	0.535659	0.567416	0.540702
	H358	H	0.535661	0.566756	0.536990
	H359	H	0.541290	0.565074	0.526899
	O360	O	-0.052749	-0.073720	0.010924
	H361	H	-0.050008	-0.090044	0.005777
	H362	H	-0.057492	-0.078330	0.020280
	O363	O	0.406663	0.563607	0.467224
	H364	H	0.412797	0.551115	0.458336
	H365	H	0.397329	0.566447	0.478992
	O366	O	-0.123312	-0.016172	1.031969
	H367	H	-0.125898	-0.004627	1.033637
	H368	H	-0.130983	-0.020732	1.035127
	O369	O	0.462465	0.468338	0.442744
	H370	H	0.460490	0.472718	0.459708
	H371	H	0.460227	0.485279	0.436093
