data_Molecule from HDF5

_cell_length_a		16.295886
_cell_length_b		16.263133
_cell_length_c		16.279848
_cell_angle_alpha	89.760290
_cell_angle_beta	90.449932
_cell_angle_gamma	90.024803
_symmetry_space_group_name_H-M	'P 1'
_symmetry_Int_Tables_number		1

loop_
	_symmetry_equiv_pos_as_xyz
	x,y,z

loop_
	_atom_site_label
	_atom_site_type_symbol
	_atom_site_fract_x
	_atom_site_fract_y
	_atom_site_fract_z
	H0	H	0.403228	0.830809	0.724392
	H1	H	0.607331	0.155153	0.725403
	H2	H	0.606640	0.831361	0.292304
	H3	H	0.403632	0.156407	0.289642
	H4	H	0.717942	0.391446	0.844269
	H5	H	0.722370	0.592128	0.169852
	H6	H	0.283898	0.595676	0.846864
	H7	H	0.289362	0.390630	0.170834
	H8	H	0.841948	0.711654	0.403409
	H9	H	0.167098	0.707932	0.608760
	H10	H	0.841188	0.275467	0.607061
	H11	H	0.166403	0.277974	0.409241
	H12	H	0.839841	0.392180	0.721331
	H13	H	0.164159	0.595276	0.727526
	H14	H	0.840827	0.594517	0.289100
	H15	H	0.165235	0.391406	0.292063
	H16	H	0.399355	0.711905	0.846969
	H17	H	0.607716	0.707742	0.170333
	H18	H	0.601259	0.278078	0.843384
	H19	H	0.405212	0.275369	0.169907
	H20	H	0.721980	0.832111	0.405880
	H21	H	0.721913	0.156163	0.607956
	H22	H	0.287028	0.831318	0.610682
	H23	H	0.286170	0.156071	0.404203
	H24	H	0.903645	0.329528	0.223276
	H25	H	0.104334	0.655100	0.223110
	H26	H	0.101499	0.329481	0.792458
	H27	H	0.899290	0.654528	0.788593
	H28	H	0.219989	0.893159	0.344997
	H29	H	0.222955	0.093989	0.669745
	H30	H	0.786190	0.096037	0.345278
	H31	H	0.788795	0.892108	0.669307
	H32	H	0.341151	0.208109	0.904115
	H33	H	0.666998	0.207405	0.106463
	H34	H	0.342042	0.775105	0.109874
	H35	H	0.665893	0.774567	0.908182
	H36	H	0.342111	0.892889	0.223758
	H37	H	0.667006	0.092962	0.223573
	H38	H	0.343250	0.095916	0.785951
	H39	H	0.666907	0.891308	0.792551
	H40	H	0.904126	0.208910	0.344366
	H41	H	0.105864	0.208351	0.671062
	H42	H	0.104915	0.776959	0.344116
	H43	H	0.905112	0.776283	0.669265
	H44	H	0.218881	0.329868	0.907324
	H45	H	0.221508	0.653885	0.111080
	H46	H	0.789398	0.327792	0.105803
	H47	H	0.784537	0.654362	0.904326
	H48	H	0.406660	0.109618	0.591349
	H49	H	0.601412	0.875759	0.600124
	H50	H	0.597249	0.113223	0.408123
	H51	H	0.405442	0.877752	0.420984
	H52	H	0.591741	0.401289	0.121932
	H53	H	0.592808	0.581354	0.892833
	H54	H	0.418256	0.577608	0.120959
	H55	H	0.404657	0.402778	0.890659
	H56	H	0.116258	0.578110	0.417024
	H57	H	0.889098	0.589186	0.589870
	H58	H	0.119219	0.406210	0.607414
	H59	H	0.887604	0.407448	0.410961
	H60	H	0.121558	0.393551	0.602497
	H61	H	0.890447	0.577280	0.596073
	H62	H	0.121752	0.586644	0.410898
	H63	H	0.885379	0.394875	0.412153
	H64	H	0.415349	0.590282	0.125099
	H65	H	0.591118	0.583207	0.893070
	H66	H	0.596974	0.394549	0.125136
	H67	H	0.412049	0.403388	0.893348
	H68	H	0.587621	0.107078	0.417326
	H69	H	0.592959	0.877588	0.603367
	H70	H	0.415956	0.111454	0.606248
	H71	H	0.411233	0.875028	0.408206
	H72	H	0.909844	0.607869	0.094486
	H73	H	0.099688	0.371516	0.110354
	H74	H	0.093509	0.608254	0.916665
	H75	H	0.905489	0.372492	0.907713
	H76	H	0.102046	0.899229	0.625783
	H77	H	0.091240	0.089035	0.391940
	H78	H	0.912819	0.081104	0.622575
	H79	H	0.907680	0.910046	0.391776
	H80	H	0.620745	0.084247	0.911182
	H81	H	0.386686	0.089234	0.098727
	H82	H	0.620048	0.897541	0.097609
	H83	H	0.390075	0.900320	0.921351
	H84	H	0.619324	0.903746	0.101000
	H85	H	0.390370	0.082037	0.092516
	H86	H	0.620258	0.090102	0.917505
	H87	H	0.391067	0.909033	0.916742
	H88	H	0.916693	0.086429	0.623507
	H89	H	0.099009	0.087029	0.390322
	H90	H	0.095769	0.907571	0.620231
	H91	H	0.920486	0.903935	0.394059
	H92	H	0.091520	0.608403	0.917318
	H93	H	0.085165	0.379707	0.099653
	H94	H	0.910418	0.609364	0.099978
	H95	H	0.918853	0.378317	0.913720
	H96	H	0.423116	0.103781	0.592528
	H97	H	0.595639	0.879615	0.594329
	H98	H	0.600981	0.109925	0.422352
	H99	H	0.420050	0.881367	0.418692
	H100	H	0.600674	0.403084	0.123493
	H101	H	0.593306	0.583964	0.892003
	H102	H	0.405627	0.580445	0.125882
	H103	H	0.409186	0.396851	0.889324
	H104	H	0.118094	0.588385	0.421737
	H105	H	0.885168	0.587467	0.602822
	H106	H	0.116467	0.403884	0.593867
	H107	H	0.889777	0.401182	0.422141
	H108	H	0.914566	0.607354	0.097187
	H109	H	0.102597	0.376454	0.091438
	H110	H	0.093924	0.607504	0.918263
	H111	H	0.906176	0.377891	0.922220
	H112	H	0.091792	0.897430	0.621959
	H113	H	0.094183	0.081675	0.393905
	H114	H	0.910498	0.086681	0.625341
	H115	H	0.910065	0.896804	0.388016
	H116	H	0.618653	0.081986	0.918546
	H117	H	0.388054	0.079198	0.102775
	H118	H	0.621677	0.898498	0.104281
	H119	H	0.387326	0.901939	0.911971
	C120	C	0.384264	0.001518	0.628000
	C121	C	0.626788	0.984702	0.629546
	C122	C	0.625467	0.002465	0.386740
	C123	C	0.382282	0.985145	0.384876
	C124	C	0.624778	0.370693	0.015594
	C125	C	0.624590	0.613104	0.999585
	C126	C	0.381569	0.614221	0.017099
	C127	C	0.380906	0.370710	0.998861
	C128	C	0.011630	0.615125	0.385022
	C129	C	0.994903	0.614755	0.628211
	C130	C	0.011612	0.371095	0.629585
	C131	C	0.994787	0.371578	0.386138
	C132	C	0.882253	0.500297	0.127353
	C133	C	0.125373	0.483396	0.129927
	C134	C	0.122962	0.500899	0.887503
	C135	C	0.879602	0.483676	0.884331
	C136	C	0.126204	0.871639	0.515499
	C137	C	0.126102	0.115286	0.499321
	C138	C	0.882880	0.114988	0.516362
	C139	C	0.883308	0.872511	0.498528
	C140	C	0.512921	0.115202	0.884193
	C141	C	0.495565	0.113679	0.127982
	C142	C	0.513328	0.870275	0.130644
	C143	C	0.496123	0.872090	0.887041
	C144	C	0.383834	0.879595	0.685993
	C145	C	0.626488	0.106937	0.686437
	C146	C	0.625314	0.880065	0.330531
	C147	C	0.383228	0.107450	0.327522
	C148	C	0.680035	0.372098	0.892907
	C149	C	0.683473	0.611912	0.121260
	C150	C	0.323010	0.614579	0.895358
	C151	C	0.326897	0.371087	0.121825
	C152	C	0.890281	0.672774	0.384254
	C153	C	0.117684	0.670632	0.628507
	C154	C	0.889495	0.314016	0.627471
	C155	C	0.117317	0.315453	0.388523
	C156	C	0.888769	0.372326	0.684015
	C157	C	0.116371	0.614440	0.687696
	C158	C	0.889660	0.614167	0.327563
	C159	C	0.116808	0.372384	0.330407
	C160	C	0.380503	0.672530	0.895472
	C161	C	0.626077	0.669517	0.121523
	C162	C	0.622073	0.315337	0.892611
	C163	C	0.384323	0.313435	0.121332
	C164	C	0.683029	0.880393	0.387114
	C165	C	0.683799	0.107178	0.628357
	C166	C	0.325910	0.879881	0.629270
	C167	C	0.325126	0.107439	0.384883
	C168	C	0.883779	0.377799	0.184235
	C169	C	0.124297	0.605982	0.185893
	C170	C	0.121731	0.378406	0.830575
	C171	C	0.879923	0.606027	0.827215
	C172	C	0.181976	0.873070	0.393204
	C173	C	0.184174	0.114039	0.621419
	C174	C	0.824964	0.115446	0.393965
	C175	C	0.827294	0.872506	0.620786
	C176	C	0.390540	0.171115	0.884065
	C177	C	0.618172	0.169832	0.126999
	C178	C	0.390903	0.813610	0.129420
	C179	C	0.617641	0.813784	0.888174
	C180	C	0.390727	0.872175	0.186046
	C181	C	0.618196	0.112932	0.185211
	C182	C	0.391250	0.114545	0.825735
	C183	C	0.618157	0.871779	0.830676
	C184	C	0.883653	0.171609	0.393570
	C185	C	0.125704	0.170712	0.622020
	C186	C	0.124332	0.815648	0.392782
	C187	C	0.884956	0.814954	0.620719
	C188	C	0.179873	0.378404	0.888253
	C189	C	0.182641	0.605449	0.129974
	C190	C	0.826947	0.377103	0.125804
	C191	C	0.822706	0.605884	0.884786
	C192	C	0.408176	0.086355	0.603674
	C193	C	0.603449	0.899788	0.606208
	C194	C	0.602119	0.087767	0.409296
	C195	C	0.405485	0.900091	0.409031
	C196	C	0.602879	0.392954	0.101222
	C197	C	0.599601	0.589654	0.914732
	C198	C	0.405937	0.589730	0.101936
	C199	C	0.402337	0.394074	0.913312
	C200	C	0.096774	0.591116	0.409414
	C201	C	0.910260	0.591537	0.603509
	C202	C	0.096841	0.394245	0.607608
	C203	C	0.909463	0.394591	0.408535
	C204	C	0.904978	0.585928	0.104036
	C205	C	0.102508	0.398126	0.107214
	C206	C	0.099838	0.585933	0.910714
	C207	C	0.903133	0.398335	0.907685
	C208	C	0.103357	0.894532	0.600448
	C209	C	0.102004	0.092389	0.414143
	C210	C	0.906470	0.091392	0.601738
	C211	C	0.906003	0.896670	0.413401
	C212	C	0.598038	0.091936	0.908565
	C213	C	0.410487	0.090372	0.104772
	C214	C	0.598294	0.893222	0.107702
	C215	C	0.411405	0.896532	0.909853
	Zn216	Zn	0.504660	-0.007155	0.757052
	Zn217	Zn	0.504800	-0.006820	0.257813
	Zn218	Zn	0.752761	0.491829	0.006664
	Zn219	Zn	0.253015	0.492559	0.008722
	Zn220	Zn	0.004287	0.743603	0.506622
	Zn221	Zn	0.003924	0.243066	0.508253
	Zn222	Zn	0.001884	0.492720	0.757294
	Zn223	Zn	0.003123	0.492754	0.256747
	Zn224	Zn	0.503906	0.742365	0.008317
	Zn225	Zn	0.503634	0.242266	0.006860
	Zn226	Zn	0.754539	-0.006404	0.507163
	Zn227	Zn	0.254760	-0.006540	0.507594
	N228	N	0.419378	0.956289	0.685333
	N229	N	0.591892	0.029903	0.687359
	N230	N	0.590034	0.956974	0.330118
	N231	N	0.418061	0.030460	0.327456
	N232	N	0.681897	0.405716	0.970319
	N233	N	0.682596	0.577531	0.044220
	N234	N	0.323376	0.579380	0.972327
	N235	N	0.324582	0.405823	0.044724
	N236	N	0.967173	0.673317	0.419326
	N237	N	0.041183	0.670972	0.592213
	N238	N	0.966732	0.313253	0.594384
	N239	N	0.040473	0.315010	0.422785
	N240	N	0.965742	0.407215	0.685513
	N241	N	0.039120	0.580515	0.687806
	N242	N	0.966448	0.578995	0.327837
	N243	N	0.039579	0.406616	0.328751
	N244	N	0.416347	0.672353	0.972180
	N245	N	0.590231	0.670482	0.044702
	N246	N	0.588223	0.314469	0.969768
	N247	N	0.417343	0.312871	0.043719
	N248	N	0.683000	0.957315	0.421597
	N249	N	0.684077	0.030227	0.593417
	N250	N	0.326056	0.956753	0.593836
	N251	N	0.324419	0.030284	0.419858
	N252	N	0.917316	0.455455	0.185363
	N253	N	0.089346	0.529007	0.186245
	N254	N	0.086961	0.455508	0.829921
	N255	N	0.914520	0.529069	0.826689
	N256	N	0.183399	0.907018	0.470406
	N257	N	0.184507	0.080341	0.544005
	N258	N	0.824353	0.080985	0.471275
	N259	N	0.825816	0.907085	0.543617
	N260	N	0.467196	0.171612	0.919643
	N261	N	0.541007	0.170441	0.092152
	N262	N	0.468120	0.812210	0.095812
	N263	N	0.540798	0.813923	0.922479
	N264	N	0.467771	0.906406	0.187209
	N265	N	0.540974	0.078646	0.186026
	N266	N	0.468628	0.080639	0.825494
	N267	N	0.541508	0.907282	0.829775
	N268	N	0.919043	0.171241	0.470602
	N269	N	0.090609	0.171702	0.545098
	N270	N	0.090449	0.814525	0.469976
	N271	N	0.918958	0.814716	0.543678
	N272	N	0.181045	0.455638	0.922722
	N273	N	0.183595	0.528274	0.095988
	N274	N	0.826231	0.454290	0.090846
	N275	N	0.822478	0.528707	0.919535
	O276	O	1.112262	-0.124441	0.919116
	H277	H	1.117838	-0.121207	0.920359
	H278	H	1.105409	-0.116974	0.926259
	O279	O	-0.039697	0.965368	-0.110009
	H280	H	-0.028632	0.965850	-0.114469
	H281	H	-0.053627	0.955093	-0.115572
	O282	O	0.577778	0.535104	0.509827
	H283	H	0.587201	0.532138	0.502638
	H284	H	0.570542	0.533270	0.517745
	O285	O	0.380893	0.433727	0.651393
	H286	H	0.384302	0.447824	0.642346
	H287	H	0.394393	0.437997	0.663520
	O288	O	0.458459	0.444896	0.431969
	H289	H	0.457423	0.430375	0.433678
	H290	H	0.454076	0.452124	0.420772
	O291	O	-0.044228	0.041490	1.068179
	H292	H	-0.046270	0.036245	1.069471
	H293	H	-0.038957	0.048721	1.063787
	O294	O	0.488535	1.532422	0.552635
	H295	H	0.485451	1.522227	0.553238
	H296	H	0.496526	1.545086	0.558393
	O297	O	1.025980	0.982796	0.013626
	H298	H	1.029137	0.994748	0.009488
	H299	H	1.032886	0.975723	0.020327
	O300	O	0.419409	0.503284	0.441475
	H301	H	0.424250	0.497444	0.443729
	H302	H	0.408007	0.503795	0.445958
	O303	O	0.616743	0.580457	0.620677
	H304	H	0.617095	0.565180	0.624191
	H305	H	0.619989	0.576231	0.615266
	O306	O	0.503859	0.628157	0.697273
	H307	H	0.507067	0.622044	0.692009
	H308	H	0.520783	0.634546	0.698362
	O309	O	0.647867	0.484311	0.533020
	H310	H	0.644716	0.472855	0.517297
	H311	H	0.657897	0.480530	0.544789
	O312	O	1.436040	0.483919	1.464814
	H313	H	1.437457	0.492428	1.460599
	H314	H	1.436932	0.492203	1.461710
	O315	O	0.959687	0.912001	-0.043118
	H316	H	0.961157	0.899522	-0.030263
	H317	H	0.965771	0.904465	-0.061364
	O318	O	0.476376	0.377080	0.514124
	H319	H	0.466546	0.366073	0.514120
	H320	H	0.470409	0.379559	0.522244
	O321	O	0.563165	0.464332	0.347359
	H322	H	0.567665	0.467440	0.344946
	H323	H	0.566962	0.466239	0.352170
	O324	O	0.006624	0.844570	0.849876
	H325	H	0.010281	0.843555	0.867570
	H326	H	0.010303	0.842749	0.837653
	O327	O	0.093939	0.919453	1.024450
	H328	H	0.094720	0.924548	1.019466
	H329	H	0.095942	0.919883	1.030476
	O330	O	-0.127162	-0.042750	-0.015393
	H331	H	-0.137530	-0.054671	-0.005695
	H332	H	-0.121140	-0.042694	-0.007313
	O333	O	0.448297	0.366834	0.560513
	H334	H	0.448960	0.373582	0.572087
	H335	H	0.433745	0.343379	0.568819
	O336	O	0.022173	-0.017927	0.141892
	H337	H	0.027379	-0.019692	0.150725
	H338	H	0.018196	-0.035340	0.143443
	O339	O	0.065630	0.046873	0.028350
	H340	H	0.067977	0.056530	0.026035
	H341	H	0.057877	0.047539	0.031053
	O342	O	-0.131741	0.971580	0.042932
	H343	H	-0.125794	0.978018	0.040927
	H344	H	-0.148231	0.959819	0.034191
	O345	O	0.125644	1.033112	1.009137
	H346	H	0.127177	1.034945	1.017567
	H347	H	0.121947	1.029955	1.003062
	O348	O	-0.020932	1.044677	-0.122005
	H349	H	-0.035754	1.055073	-0.126140
	H350	H	-0.017906	1.052353	-0.126263
	O351	O	0.471307	0.493022	0.492567
	H352	H	0.464189	0.507482	0.490449
	H353	H	0.464337	0.494863	0.499089
	O354	O	-0.043878	1.092329	0.070810
	H355	H	-0.047831	1.095467	0.077385
	H356	H	-0.050605	1.088004	0.065916
	O357	O	0.514317	0.639013	0.554494
	H358	H	0.515614	0.633022	0.553552
	H359	H	0.518007	0.649475	0.561657
	O360	O	0.418890	0.658725	0.333235
	H361	H	0.398416	0.655632	0.326845
	H362	H	0.418796	0.669968	0.320840
	O363	O	0.344470	0.640793	0.446419
	H364	H	0.353716	0.638947	0.443721
	H365	H	0.326086	0.666269	0.446940
	O366	O	0.544289	0.477598	0.555652
	H367	H	0.543747	0.478690	0.543399
	H368	H	0.542405	0.475427	0.551291
	O369	O	1.024631	0.119006	0.011923
	H370	H	1.027524	0.128512	0.016915
	H371	H	1.026715	0.123276	0.004986
	O372	O	0.440523	0.479339	0.538717
	H373	H	0.433991	0.479937	0.534603
	H374	H	0.434228	0.491511	0.544502
	O375	O	1.113515	-0.014113	0.987657
	H376	H	1.114678	-0.010699	0.972478
	H377	H	1.121291	-0.023330	0.979597
	O378	O	-0.040896	0.956682	0.132469
	H379	H	-0.036729	0.961226	0.143361
	H380	H	-0.031921	0.958606	0.133386
	O381	O	0.512115	0.549187	0.611621
	H382	H	0.513345	0.541025	0.627398
	H383	H	0.511707	0.552174	0.613931
	O384	O	1.112577	1.009368	0.108868
	H385	H	1.116050	1.008706	0.100362
	H386	H	1.102362	1.009512	0.107985
	O387	O	1.059184	0.076567	0.916500
	H388	H	1.053972	0.071048	0.911988
	H389	H	1.068811	0.078340	0.923876
	O390	O	1.498256	0.437168	-0.531735
	H391	H	1.503194	0.433939	-0.525467
	H392	H	1.498865	0.433005	-0.540825
	O393	O	0.553766	0.450621	0.562685
	H394	H	0.547363	0.440474	0.561519
	H395	H	0.552902	0.447023	0.554549
