data_Molecule from HDF5

_cell_length_a		16.655199
_cell_length_b		16.516475
_cell_length_c		16.594184
_cell_angle_alpha	89.977085
_cell_angle_beta	90.017443
_cell_angle_gamma	89.956304
_symmetry_space_group_name_H-M	'P 1'
_symmetry_Int_Tables_number		1

loop_
	_symmetry_equiv_pos_as_xyz
	x,y,z

loop_
	_atom_site_label
	_atom_site_type_symbol
	_atom_site_fract_x
	_atom_site_fract_y
	_atom_site_fract_z
	H0	H	0.394711	0.841586	0.708821
	H1	H	0.600045	0.156342	0.707760
	H2	H	0.607433	0.841687	0.264998
	H3	H	0.394432	0.154499	0.268541
	H4	H	0.719752	0.391161	0.834331
	H5	H	0.721159	0.604846	0.144945
	H6	H	0.277100	0.602406	0.833238
	H7	H	0.275592	0.392471	0.145611
	H8	H	0.841384	0.720043	0.384256
	H9	H	0.152498	0.720542	0.594458
	H10	H	0.844511	0.274566	0.596072
	H11	H	0.152190	0.275279	0.381542
	H12	H	0.846328	0.388152	0.714804
	H13	H	0.151400	0.606528	0.713436
	H14	H	0.841641	0.605107	0.266300
	H15	H	0.152562	0.391747	0.265688
	H16	H	0.393010	0.719423	0.833547
	H17	H	0.603077	0.719248	0.145338
	H18	H	0.600084	0.279108	0.832839
	H19	H	0.391911	0.274706	0.145342
	H20	H	0.721973	0.841028	0.382667
	H21	H	0.717804	0.155411	0.592331
	H22	H	0.277693	0.841866	0.593788
	H23	H	0.275854	0.153286	0.380812
	H24	H	0.895310	0.341232	0.208719
	H25	H	0.100927	0.656383	0.207982
	H26	H	0.099648	0.339980	0.771096
	H27	H	0.892352	0.653633	0.766953
	H28	H	0.219955	0.892337	0.333661
	H29	H	0.216834	0.101301	0.645481
	H30	H	0.774041	0.105158	0.334041
	H31	H	0.779349	0.894062	0.646827
	H32	H	0.340725	0.215373	0.888644
	H33	H	0.653786	0.218482	0.093567
	H34	H	0.342511	0.776190	0.094695
	H35	H	0.654335	0.775606	0.884486
	H36	H	0.343165	0.891588	0.212366
	H37	H	0.654199	0.101936	0.210601
	H38	H	0.341387	0.099363	0.770621
	H39	H	0.654430	0.892036	0.768268
	H40	H	0.891651	0.220126	0.332663
	H41	H	0.099975	0.217910	0.644807
	H42	H	0.102767	0.776087	0.333002
	H43	H	0.897017	0.779324	0.646706
	H44	H	0.216125	0.339536	0.887041
	H45	H	0.218003	0.655364	0.092995
	H46	H	0.778692	0.340856	0.093667
	H47	H	0.776242	0.653506	0.882911
	H48	H	0.411151	0.110828	0.579774
	H49	H	0.589844	0.882947	0.583048
	H50	H	0.585534	0.106516	0.405514
	H51	H	0.410086	0.886414	0.403324
	H52	H	0.585142	0.413495	0.100051
	H53	H	0.588494	0.579826	0.880138
	H54	H	0.407728	0.579918	0.099986
	H55	H	0.412331	0.407550	0.880057
	H56	H	0.108639	0.590609	0.401164
	H57	H	0.886474	0.588473	0.576133
	H58	H	0.109210	0.408856	0.576526
	H59	H	0.887699	0.413202	0.401382
	H60	H	0.108497	0.410132	0.577214
	H61	H	0.888044	0.583977	0.576842
	H62	H	0.107364	0.583789	0.399320
	H63	H	0.885896	0.411548	0.396510
	H64	H	0.413355	0.588897	0.100331
	H65	H	0.581321	0.586526	0.879730
	H66	H	0.585645	0.403666	0.103530
	H67	H	0.405374	0.404570	0.875501
	H68	H	0.589094	0.109553	0.401324
	H69	H	0.585689	0.886096	0.579040
	H70	H	0.406170	0.111031	0.575340
	H71	H	0.407498	0.884990	0.401026
	H72	H	0.904882	0.613880	0.081303
	H73	H	0.087926	0.384599	0.081245
	H74	H	0.090121	0.610123	0.902861
	H75	H	0.903491	0.383404	0.900403
	H76	H	0.090674	0.913288	0.601049
	H77	H	0.084040	0.084142	0.378749
	H78	H	0.904573	0.089337	0.603365
	H79	H	0.906838	0.911314	0.377423
	H80	H	0.609076	0.084731	0.899767
	H81	H	0.385972	0.087685	0.080208
	H82	H	0.606403	0.911389	0.070643
	H83	H	0.389527	0.912435	0.902254
	H84	H	0.609203	0.914261	0.082558
	H85	H	0.388002	0.085710	0.076314
	H86	H	0.613175	0.089722	0.892034
	H87	H	0.385938	0.909518	0.894043
	H88	H	0.908352	0.080683	0.598154
	H89	H	0.087931	0.091035	0.374736
	H90	H	0.084424	0.908494	0.599522
	H91	H	0.909730	0.911842	0.377871
	H92	H	0.088013	0.612227	0.897802
	H93	H	0.084299	0.386570	0.077680
	H94	H	0.914528	0.609293	0.078279
	H95	H	0.913422	0.385509	0.896959
	H96	H	0.405405	0.113338	0.581435
	H97	H	0.591427	0.884853	0.576802
	H98	H	0.583331	0.108101	0.399434
	H99	H	0.410983	0.886049	0.399540
	H100	H	0.594463	0.409413	0.103345
	H101	H	0.589827	0.588675	0.875613
	H102	H	0.403499	0.589067	0.103974
	H103	H	0.405487	0.412852	0.878763
	H104	H	0.110075	0.588379	0.394396
	H105	H	0.885373	0.586017	0.580007
	H106	H	0.109868	0.409421	0.577932
	H107	H	0.886090	0.407738	0.400626
	H108	H	0.906241	0.609291	0.071204
	H109	H	0.089154	0.385916	0.076364
	H110	H	0.084766	0.608805	0.901064
	H111	H	0.911173	0.387595	0.906992
	H112	H	0.090555	0.905715	0.603236
	H113	H	0.092364	0.083644	0.375895
	H114	H	0.914749	0.089689	0.599166
	H115	H	0.908949	0.908834	0.377856
	H116	H	0.611689	0.094330	0.900529
	H117	H	0.387302	0.083087	0.080583
	H118	H	0.611361	0.902516	0.078139
	H119	H	0.385997	0.903451	0.901277
	C120	C	0.376788	0.007454	0.610164
	C121	C	0.619643	0.989324	0.610752
	C122	C	0.619609	0.005119	0.368619
	C123	C	0.377495	0.989123	0.368209
	C124	C	0.619475	0.376470	-0.001387
	C125	C	0.619434	0.618244	0.981238
	C126	C	0.376359	0.618810	-0.001726
	C127	C	0.375771	0.376145	0.981507
	C128	C	0.005940	0.620531	0.366391
	C129	C	0.989078	0.619149	0.610205
	C130	C	0.007117	0.376730	0.610192
	C131	C	0.989073	0.377508	0.367000
	C132	C	0.877166	0.506884	0.109336
	C133	C	0.118983	0.489746	0.110238
	C134	C	0.119039	0.506226	0.868411
	C135	C	0.876898	0.488803	0.868165
	C136	C	0.120205	0.876290	0.497868
	C137	C	0.119271	0.118346	0.480017
	C138	C	0.876438	0.119555	0.497354
	C139	C	0.877390	0.878011	0.481469
	C140	C	0.506707	0.119269	0.867792
	C141	C	0.490029	0.118216	0.110676
	C142	C	0.506510	0.876437	0.110601
	C143	C	0.490108	0.875866	0.867397
	C144	C	0.375751	0.888784	0.669228
	C145	C	0.619419	0.108936	0.668463
	C146	C	0.624208	0.888117	0.306583
	C147	C	0.375853	0.107152	0.308194
	C148	C	0.679264	0.373376	0.881207
	C149	C	0.680392	0.622203	0.098209
	C150	C	0.316780	0.621199	0.880266
	C151	C	0.315814	0.373916	0.099145
	C152	C	0.888455	0.680717	0.365067
	C153	C	0.105633	0.680517	0.613306
	C154	C	0.890923	0.315258	0.613961
	C155	C	0.105933	0.316403	0.363969
	C156	C	0.891845	0.371773	0.672982
	C157	C	0.105152	0.623748	0.672242
	C158	C	0.888711	0.623525	0.306318
	C159	C	0.106061	0.374359	0.306271
	C160	C	0.374709	0.678927	0.880355
	C161	C	0.621589	0.679144	0.098469
	C162	C	0.619877	0.317539	0.880512
	C163	C	0.373553	0.315685	0.098827
	C164	C	0.681351	0.887847	0.365025
	C165	C	0.677700	0.108538	0.611214
	C166	C	0.317565	0.889071	0.612073
	C167	C	0.316758	0.106608	0.364109
	C168	C	0.876344	0.388358	0.168921
	C169	C	0.119982	0.608657	0.168754
	C170	C	0.119353	0.387305	0.810245
	C171	C	0.874177	0.606571	0.807400
	C172	C	0.179845	0.873823	0.380158
	C173	C	0.177710	0.120123	0.598299
	C174	C	0.814825	0.123095	0.380551
	C175	C	0.818754	0.875814	0.599535
	C176	C	0.387946	0.176349	0.868725
	C177	C	0.607279	0.178093	0.112065
	C178	C	0.389362	0.816262	0.113170
	C179	C	0.607252	0.815663	0.865849
	C180	C	0.389900	0.873483	0.171740
	C181	C	0.607532	0.120361	0.170277
	C182	C	0.388300	0.118984	0.810183
	C183	C	0.607326	0.873643	0.807871
	C184	C	0.873496	0.180111	0.379931
	C185	C	0.119523	0.177824	0.598006
	C186	C	0.121573	0.816414	0.379927
	C187	C	0.877261	0.818578	0.599549
	C188	C	0.177067	0.387072	0.867865
	C189	C	0.178056	0.608316	0.111491
	C190	C	0.818427	0.388068	0.111679
	C191	C	0.816325	0.606423	0.864898
	C192	C	0.400882	0.090168	0.585797
	C193	C	0.595743	0.906476	0.586539
	C194	C	0.593372	0.086642	0.394871
	C195	C	0.402425	0.907039	0.394126
	C196	C	0.595183	0.401709	0.080922
	C197	C	0.594066	0.592224	0.899693
	C198	C	0.401134	0.593417	0.080031
	C199	C	0.400579	0.401309	0.899463
	C200	C	0.087601	0.595035	0.391204
	C201	C	0.907841	0.593650	0.584730
	C202	C	0.088238	0.402548	0.584498
	C203	C	0.907919	0.403253	0.392385
	C204	C	0.901542	0.589546	0.084234
	C205	C	0.094271	0.407183	0.085498
	C206	C	0.094579	0.588934	0.893266
	C207	C	0.902155	0.406721	0.893952
	C208	C	0.095618	0.901622	0.579745
	C209	C	0.095150	0.093481	0.397702
	C210	C	0.901871	0.093868	0.579089
	C211	C	0.901568	0.903394	0.399006
	C212	C	0.589591	0.096214	0.890870
	C213	C	0.408389	0.092818	0.086108
	C214	C	0.587835	0.902212	0.084681
	C215	C	0.408549	0.901141	0.892131
	Zn216	Zn	0.498355	-0.002016	0.738826
	Zn217	Zn	0.498904	-0.002961	0.240265
	Zn218	Zn	0.748530	0.497561	-0.010602
	Zn219	Zn	0.247132	0.497925	-0.010759
	Zn220	Zn	-0.002293	0.748532	0.488935
	Zn221	Zn	-0.001925	0.248250	0.488084
	Zn222	Zn	-0.001751	0.497791	0.739570
	Zn223	Zn	-0.002799	0.498837	0.238188
	Zn224	Zn	0.498078	0.747153	-0.010470
	Zn225	Zn	0.497628	0.248069	-0.010041
	Zn226	Zn	0.747708	-0.002050	0.489717
	Zn227	Zn	0.248756	-0.001852	0.488829
	N228	N	0.412101	0.963444	0.668266
	N229	N	0.584390	0.033617	0.668478
	N230	N	0.586227	0.961807	0.309046
	N231	N	0.412873	0.032830	0.310273
	N232	N	0.679276	0.409225	0.955863
	N233	N	0.679169	0.585097	0.024187
	N234	N	0.317476	0.584607	0.954487
	N235	N	0.316822	0.410543	0.024923
	N236	N	0.962523	0.679100	0.401771
	N237	N	0.032594	0.677706	0.575332
	N238	N	0.963633	0.318110	0.575417
	N239	N	0.032257	0.318128	0.401036
	N240	N	0.965077	0.409364	0.670686
	N241	N	0.031643	0.586275	0.670680
	N242	N	0.962839	0.587183	0.306898
	N243	N	0.032451	0.411801	0.307904
	N244	N	0.410952	0.677664	0.954729
	N245	N	0.584484	0.676874	0.024705
	N246	N	0.583371	0.319196	0.954734
	N247	N	0.409847	0.316890	0.024647
	N248	N	0.678628	0.961733	0.402926
	N249	N	0.678334	0.033007	0.576577
	N250	N	0.318112	0.963810	0.576119
	N251	N	0.317613	0.032029	0.400735
	N252	N	0.911934	0.463223	0.167691
	N253	N	0.083978	0.533816	0.168128
	N254	N	0.084225	0.462660	0.810214
	N255	N	0.911277	0.532297	0.809294
	N256	N	0.179336	0.910047	0.454463
	N257	N	0.177669	0.084010	0.523781
	N258	N	0.816488	0.086070	0.454699
	N259	N	0.818707	0.911935	0.524995
	N260	N	0.462766	0.177035	0.903552
	N261	N	0.533141	0.176865	0.075876
	N262	N	0.462868	0.818006	0.075723
	N263	N	0.533178	0.816802	0.902083
	N264	N	0.463941	0.910121	0.170340
	N265	N	0.533565	0.083815	0.169540
	N266	N	0.463317	0.084628	0.809229
	N267	N	0.533346	0.910445	0.808561
	N268	N	0.911012	0.178140	0.453538
	N269	N	0.083816	0.176875	0.523438
	N270	N	0.085274	0.817622	0.454270
	N271	N	0.912755	0.819611	0.524798
	N272	N	0.177131	0.462195	0.903083
	N273	N	0.177688	0.533251	0.075977
	N274	N	0.818708	0.462857	0.075416
	N275	N	0.817962	0.532256	0.902039
	O276	O	-0.069368	1.188583	0.013707
	H277	H	-0.069093	1.192958	-0.012206
	H278	H	-0.055965	1.179018	0.018568
	O279	O	0.545347	0.595488	0.512598
	H280	H	0.554321	0.600191	0.530351
	H281	H	0.538005	0.614712	0.494540
	O282	O	0.981360	0.028736	1.128125
	H283	H	0.985154	0.025184	1.132180
	H284	H	0.980747	0.029555	1.122988
	O285	O	0.717389	0.286016	0.472919
	H286	H	0.698613	0.280629	0.455526
	H287	H	0.730387	0.258111	0.455579
	O288	O	0.281668	0.715086	0.457843
	H289	H	0.266109	0.730810	0.465583
	H290	H	0.279330	0.707497	0.460972
	O291	O	0.687222	0.317248	0.680484
	H292	H	0.663701	0.329454	0.673142
	H293	H	0.687226	0.343418	0.664496
	O294	O	1.143538	-0.014196	1.024782
	H295	H	1.150260	-0.019127	1.021460
	H296	H	1.144428	-0.030204	1.023851
	O297	O	0.667187	0.663400	0.310512
	H298	H	0.638512	0.651768	0.322074
	H299	H	0.661449	0.641506	0.317235
	O300	O	0.022574	-0.105529	0.825631
	H301	H	0.003527	-0.105344	0.836755
	H302	H	0.025133	-0.115778	0.819495
	O303	O	0.702737	0.701064	0.691081
	H304	H	0.718370	0.718796	0.712880
	H305	H	0.696823	0.687291	0.692128
	O306	O	0.444286	0.540465	0.714857
	H307	H	0.438673	0.536972	0.707231
	H308	H	0.442721	0.541580	0.719046
	O309	O	0.306042	0.687313	0.678511
	H310	H	0.323862	0.678587	0.654211
	H311	H	0.323216	0.660458	0.664990
	O312	O	0.527478	0.712713	0.706451
	H313	H	0.544147	0.716430	0.712509
	H314	H	0.524837	0.725711	0.711486
	O315	O	1.203373	1.196239	1.193680
	H316	H	1.165275	1.197854	1.188618
	H317	H	1.215980	1.174795	1.209990
	O318	O	0.502351	0.505598	0.253788
	H319	H	0.499824	0.494865	0.253533
	H320	H	0.487098	0.512107	0.246026
	O321	O	-0.158768	0.837911	0.797424
	H322	H	-0.137932	0.864324	0.806204
	H323	H	-0.155338	0.849635	0.820470
	O324	O	0.808579	0.800817	0.173167
	H325	H	0.832440	0.810389	0.171700
	H326	H	0.796415	0.789574	0.189073
	O327	O	-0.027409	0.011066	1.209550
	H328	H	-0.029788	-0.004371	1.209104
	H329	H	-0.033969	-0.000612	1.211098
	O330	O	0.735148	0.445790	0.542344
	H331	H	0.736122	0.428997	0.539678
	H332	H	0.736302	0.431327	0.536439
	O333	O	0.485395	0.534127	0.550521
	H334	H	0.482801	0.536860	0.546198
	H335	H	0.485962	0.531349	0.549444
	O336	O	0.710738	0.285101	0.275455
	H337	H	0.743199	0.256315	0.243903
	H338	H	0.702112	0.309595	0.285082
	O339	O	1.074943	-0.091143	1.072882
	H340	H	1.054343	-0.093986	1.071264
	H341	H	1.093412	-0.112531	1.082963
	O342	O	0.161057	0.013526	-0.058347
	H343	H	0.172311	0.012251	-0.076126
	H344	H	0.154756	0.010378	-0.055492
	O345	O	0.183740	1.183730	0.801690
	H346	H	0.173445	1.157821	0.821728
	H347	H	0.160917	1.168234	0.817487
	O348	O	0.720651	0.567015	0.429360
	H349	H	0.721354	0.567765	0.421913
	H350	H	0.717521	0.550068	0.442841
	O351	O	0.469701	0.469954	0.531293
	H352	H	0.471002	0.476207	0.518834
	H353	H	0.473661	0.468110	0.521328
	O354	O	-0.200342	0.199906	0.787258
	H355	H	-0.213380	0.230775	0.756840
	H356	H	-0.181835	0.190084	0.792929
	O357	O	0.273748	0.463491	0.710226
	H358	H	0.278697	0.439094	0.711243
	H359	H	0.251975	0.458428	0.729497
	O360	O	-0.213977	-0.214672	1.013496
	H361	H	-0.226655	-0.226817	1.035729
	H362	H	-0.224662	-0.212428	1.020504
	O363	O	-0.145016	-0.029488	0.059782
	H364	H	-0.150134	-0.029248	0.068310
	H365	H	-0.151602	-0.024888	0.056963
	O366	O	0.377330	0.534464	0.545135
	H367	H	0.382779	0.532744	0.545349
	H368	H	0.370214	0.527535	0.554725
	O369	O	0.792654	0.204089	-0.038628
	H370	H	0.794787	0.218467	-0.051559
	H371	H	0.785740	0.205461	-0.061470
	O372	O	1.132928	0.932377	0.012458
	H373	H	1.139687	0.926635	0.022370
	H374	H	1.141411	0.924301	0.016889
	O375	O	0.785605	-0.009946	0.156563
	H376	H	0.786661	-0.017742	0.148484
	H377	H	0.776149	-0.016761	0.157410
	O378	O	0.422590	0.622968	0.458451
	H379	H	0.431951	0.612259	0.449474
	H380	H	0.424462	0.620815	0.449629
	O381	O	0.039171	1.208152	0.967864
	H382	H	0.046574	1.197219	0.981391
	H383	H	0.063892	1.210349	0.970844
	O384	O	1.198908	0.020983	1.194422
	H385	H	1.200758	0.023173	1.208768
	H386	H	1.190922	0.015579	1.193432
	O387	O	1.012606	1.114625	-0.179139
	H388	H	1.009267	1.112759	-0.183185
	H389	H	1.015013	1.114157	-0.186918
	O390	O	0.276315	0.536427	0.288636
	H391	H	0.254582	0.527226	0.270006
	H392	H	0.275972	0.541577	0.302615
	O393	O	0.529584	0.729576	0.466632
	H394	H	0.546627	0.723190	0.464170
	H395	H	0.546989	0.731989	0.474412
	O396	O	0.206892	0.792043	0.780152
	H397	H	0.237245	0.757729	0.748056
	H398	H	0.177837	0.793374	0.789540
	O399	O	-0.007314	0.148868	0.784403
	H400	H	-0.001679	0.143061	0.782549
	H401	H	-0.006669	0.142703	0.794377
	O402	O	0.274115	0.281309	0.519762
	H403	H	0.274185	0.278028	0.546062
	H404	H	0.259057	0.259466	0.540219
	O405	O	0.994397	-0.079113	0.843245
	H406	H	0.978102	-0.075957	0.841250
	H407	H	0.996989	-0.072668	0.830553
	O408	O	0.210935	-0.035483	-0.223625
	H409	H	0.227999	-0.055080	-0.235083
	H410	H	0.214259	-0.047123	-0.229747
	O411	O	0.718605	0.518172	0.701407
	H412	H	0.728705	0.522867	0.703140
	H413	H	0.719344	0.524124	0.707264
	O414	O	0.517644	0.381658	0.708544
	H415	H	0.514406	0.386967	0.707769
	H416	H	0.502548	0.392040	0.706179
	O417	O	0.295347	0.367189	0.362095
	H418	H	0.290089	0.352311	0.363570
	H419	H	0.298842	0.357280	0.365967
	O420	O	0.298702	0.703255	0.281996
	H421	H	0.309199	0.711450	0.315463
	H422	H	0.312684	0.677820	0.279955
	O423	O	0.130686	-0.097764	1.107889
	H424	H	0.138802	-0.113315	1.098674
	H425	H	0.144349	-0.106299	1.113647
	O426	O	0.279364	0.494189	0.474205
	H427	H	0.277320	0.472987	0.460356
	H428	H	0.269831	0.491115	0.493249
	O429	O	0.832021	0.934387	0.866428
	H430	H	0.828925	0.934893	0.887301
	H431	H	0.811566	0.940719	0.866523
	O432	O	0.715680	0.719672	0.523941
	H433	H	0.736740	0.721179	0.527037
	H434	H	0.727230	0.725219	0.549347
	O435	O	0.196265	0.803480	0.005802
	H436	H	0.213323	0.778167	0.017945
	H437	H	0.183747	0.815988	-0.005582
	O438	O	0.530018	0.277139	0.265347
	H439	H	0.543102	0.255418	0.241488
	H440	H	0.546562	0.272049	0.274726
	O441	O	0.029311	0.207502	0.200172
	H442	H	0.023206	0.212778	0.194117
	H443	H	0.022296	0.214932	0.202498
	O444	O	0.474110	0.334101	0.625642
	H445	H	0.490445	0.331436	0.635350
	H446	H	0.486646	0.323015	0.621363
	O447	O	0.047263	0.838116	0.844652
	H448	H	0.062394	0.827386	0.850623
	H449	H	0.039796	0.838515	0.828401
	O450	O	-0.149085	0.968198	0.986709
	H451	H	-0.146350	0.973968	0.972404
	H452	H	-0.144088	0.968548	0.986701
	O453	O	0.283448	0.287199	0.697629
	H454	H	0.271056	0.260860	0.725230
	H455	H	0.304328	0.290757	0.711311
	O456	O	0.214066	0.216361	1.022223
	H457	H	0.239081	0.230308	1.034578
	H458	H	0.221580	0.208474	1.043069
	O459	O	0.993338	0.785796	-0.012121
	H460	H	1.003370	0.791355	-0.019214
	H461	H	0.993516	0.792437	0.005927
	O462	O	0.716556	0.454713	0.280434
	H463	H	0.733010	0.455697	0.269911
	H464	H	0.703404	0.452352	0.278856
	O465	O	0.812639	0.183092	0.175199
	H466	H	0.832080	0.181974	0.145815
	H467	H	0.825398	0.149422	0.169191
	O468	O	0.464248	0.654962	0.328394
	H469	H	0.465702	0.656289	0.323464
	H470	H	0.473332	0.655475	0.322905
	O471	O	0.571472	0.293604	0.515885
	H472	H	0.566796	0.311813	0.510874
	H473	H	0.549031	0.294475	0.515059
	O474	O	0.430051	0.299554	0.436474
	H475	H	0.429523	0.309273	0.445297
	H476	H	0.418709	0.288088	0.448611
	O477	O	0.567893	0.399411	1.422350
	H478	H	0.565219	0.404187	1.430782
	H479	H	0.569071	0.406898	1.417539
	O480	O	0.387342	0.394120	0.284209
	H481	H	0.382848	0.400284	0.291361
	H482	H	0.404908	0.385303	0.287565
	O483	O	0.478817	0.586068	0.421716
	H484	H	0.464183	0.593594	0.420742
	H485	H	0.486317	0.575598	0.417997
	O486	O	0.772604	0.010262	0.812660
	H487	H	0.777603	0.033982	0.816915
	H488	H	0.754351	0.018033	0.809265
	O489	O	0.961931	0.784076	0.210917
	H490	H	0.969467	0.773917	0.214996
	H491	H	0.955357	0.769734	0.216804
