data_Molecule from HDF5

_cell_length_a		16.495138
_cell_length_b		16.590090
_cell_length_c		16.540055
_cell_angle_alpha	90.098483
_cell_angle_beta	89.921514
_cell_angle_gamma	89.999661
_symmetry_space_group_name_H-M	'P 1'
_symmetry_Int_Tables_number		1

loop_
	_symmetry_equiv_pos_as_xyz
	x,y,z

loop_
	_atom_site_label
	_atom_site_type_symbol
	_atom_site_fract_x
	_atom_site_fract_y
	_atom_site_fract_z
	H0	H	0.397219	0.851864	0.732509
	H1	H	0.608631	0.163602	0.731373
	H2	H	0.609734	0.852676	0.286801
	H3	H	0.397511	0.164355	0.287923
	H4	H	0.724805	0.404593	0.853055
	H5	H	0.725508	0.612858	0.166554
	H6	H	0.281601	0.613865	0.853296
	H7	H	0.277968	0.398483	0.164023
	H8	H	0.847876	0.728233	0.404397
	H9	H	0.162120	0.728352	0.613638
	H10	H	0.848522	0.287479	0.614077
	H11	H	0.160710	0.283965	0.401049
	H12	H	0.847425	0.405246	0.728548
	H13	H	0.162555	0.613011	0.730372
	H14	H	0.848287	0.611960	0.287973
	H15	H	0.160552	0.399575	0.284929
	H16	H	0.393851	0.733332	0.855755
	H17	H	0.610228	0.729197	0.166407
	H18	H	0.609371	0.286558	0.853310
	H19	H	0.393642	0.282432	0.165125
	H20	H	0.725852	0.851688	0.404384
	H21	H	0.725808	0.163591	0.614591
	H22	H	0.280865	0.851769	0.616130
	H23	H	0.282058	0.164663	0.405133
	H24	H	0.895982	0.352378	0.233657
	H25	H	0.113889	0.661045	0.235314
	H26	H	0.109917	0.351059	0.788137
	H27	H	0.901399	0.664547	0.790184
	H28	H	0.226744	0.900330	0.353652
	H29	H	0.223326	0.110478	0.666978
	H30	H	0.784005	0.111944	0.352243
	H31	H	0.785149	0.905167	0.667437
	H32	H	0.349050	0.230822	0.904159
	H33	H	0.661621	0.229010	0.116804
	H34	H	0.347247	0.784957	0.117256
	H35	H	0.660647	0.785591	0.904460
	H36	H	0.347570	0.901550	0.233081
	H37	H	0.661711	0.111342	0.230565
	H38	H	0.348240	0.113722	0.788221
	H39	H	0.661190	0.902423	0.789042
	H40	H	0.896996	0.230810	0.353370
	H41	H	0.107669	0.227842	0.666766
	H42	H	0.112045	0.783036	0.354170
	H43	H	0.899282	0.786841	0.666569
	H44	H	0.224934	0.350185	0.905793
	H45	H	0.230210	0.661104	0.118639
	H46	H	0.783149	0.351299	0.114371
	H47	H	0.785038	0.664548	0.907064
	H48	H	0.418971	0.118245	0.600258
	H49	H	0.596052	0.892049	0.604219
	H50	H	0.592117	0.118196	0.425346
	H51	H	0.415428	0.897904	0.425490
	H52	H	0.590460	0.412071	0.123482
	H53	H	0.598343	0.595425	0.895791
	H54	H	0.422169	0.595163	0.119333
	H55	H	0.418720	0.421157	0.899567
	H56	H	0.118510	0.600103	0.422572
	H57	H	0.892099	0.597138	0.600105
	H58	H	0.120545	0.412874	0.600639
	H59	H	0.892893	0.417572	0.422227
	H60	H	0.116570	0.418771	0.592984
	H61	H	0.891627	0.597852	0.600598
	H62	H	0.114033	0.592051	0.427242
	H63	H	0.893138	0.420440	0.422750
	H64	H	0.416393	0.595746	0.121794
	H65	H	0.590745	0.595157	0.899424
	H66	H	0.600113	0.418967	0.124716
	H67	H	0.419364	0.417070	0.899098
	H68	H	0.597931	0.121556	0.420290
	H69	H	0.588779	0.897190	0.598546
	H70	H	0.415019	0.117534	0.594801
	H71	H	0.413599	0.895377	0.419311
	H72	H	0.922033	0.620820	0.110251
	H73	H	0.092623	0.395461	0.097522
	H74	H	0.096025	0.621279	0.915949
	H75	H	0.910146	0.392298	0.916336
	H76	H	0.094029	0.913343	0.623573
	H77	H	0.095618	0.095592	0.396443
	H78	H	0.920052	0.099699	0.621066
	H79	H	0.911535	0.918752	0.396260
	H80	H	0.616089	0.093158	0.922708
	H81	H	0.390582	0.102460	0.095934
	H82	H	0.614832	0.920122	0.095258
	H83	H	0.389728	0.917323	0.918571
	H84	H	0.616730	0.919944	0.101473
	H85	H	0.395383	0.091752	0.091305
	H86	H	0.618373	0.096459	0.916974
	H87	H	0.392709	0.917231	0.926622
	H88	H	0.911842	0.100406	0.623325
	H89	H	0.090065	0.093925	0.398872
	H90	H	0.095241	0.923221	0.621489
	H91	H	0.918885	0.920492	0.398940
	H92	H	0.089492	0.618577	0.920544
	H93	H	0.088047	0.397370	0.097269
	H94	H	0.922923	0.613259	0.089436
	H95	H	0.920746	0.396150	0.916560
	H96	H	0.412566	0.120108	0.600612
	H97	H	0.598090	0.895569	0.594394
	H98	H	0.590484	0.119666	0.417140
	H99	H	0.419686	0.898105	0.420215
	H100	H	0.590345	0.423544	0.120120
	H101	H	0.593798	0.602206	0.896135
	H102	H	0.418190	0.590019	0.118851
	H103	H	0.415424	0.418674	0.898457
	H104	H	0.116864	0.591519	0.417520
	H105	H	0.891413	0.597820	0.599707
	H106	H	0.118780	0.423175	0.602353
	H107	H	0.892457	0.419580	0.420830
	H108	H	0.904191	0.622340	0.096841
	H109	H	0.091162	0.397478	0.093269
	H110	H	0.097199	0.618899	0.923939
	H111	H	0.913978	0.396951	0.925644
	H112	H	0.086678	0.918589	0.619371
	H113	H	0.091687	0.099665	0.396564
	H114	H	0.914022	0.092951	0.619423
	H115	H	0.917030	0.913528	0.396264
	H116	H	0.618377	0.099831	0.923228
	H117	H	0.391381	0.092180	0.103722
	H118	H	0.617690	0.914895	0.097471
	H119	H	0.393788	0.924965	0.921674
	C120	C	0.382651	0.015548	0.631258
	C121	C	0.626218	0.998505	0.631419
	C122	C	0.625833	0.016384	0.388249
	C123	C	0.382955	0.999889	0.388797
	C124	C	0.626042	0.386270	0.018941
	C125	C	0.625827	0.629258	1.001165
	C126	C	0.383762	0.627717	0.017941
	C127	C	0.383507	0.385429	1.001697
	C128	C	0.013093	0.627689	0.389218
	C129	C	0.996046	0.629503	0.631782
	C130	C	0.013933	0.387280	0.630301
	C131	C	0.995909	0.385438	0.387688
	C132	C	0.883318	0.515861	0.131501
	C133	C	0.125485	0.498755	0.130501
	C134	C	0.126017	0.515813	0.888233
	C135	C	0.883138	0.498794	0.887931
	C136	C	0.125425	0.885561	0.518302
	C137	C	0.124711	0.128317	0.501139
	C138	C	0.883044	0.129588	0.517732
	C139	C	0.883202	0.885648	0.500748
	C140	C	0.513817	0.129330	0.888371
	C141	C	0.496105	0.128373	0.130612
	C142	C	0.512657	0.885972	0.131384
	C143	C	0.495427	0.886659	0.889411
	C144	C	0.379382	0.898463	0.692141
	C145	C	0.627367	0.116576	0.691186
	C146	C	0.628139	0.899222	0.327458
	C147	C	0.379820	0.117479	0.328374
	C148	C	0.685257	0.385207	0.900165
	C149	C	0.685894	0.631447	0.119218
	C150	C	0.321940	0.631518	0.900629
	C151	C	0.319650	0.380992	0.117857
	C152	C	0.895006	0.688059	0.386399
	C153	C	0.114872	0.688683	0.632722
	C154	C	0.895563	0.327706	0.632347
	C155	C	0.113861	0.324463	0.383827
	C156	C	0.895014	0.386091	0.689405
	C157	C	0.114987	0.631216	0.690776
	C158	C	0.895168	0.630250	0.328487
	C159	C	0.113530	0.381434	0.325550
	C160	C	0.377989	0.691111	0.901842
	C161	C	0.628272	0.689232	0.119302
	C162	C	0.628115	0.326563	0.900656
	C163	C	0.377440	0.323252	0.118306
	C164	C	0.685719	0.898672	0.385914
	C165	C	0.685782	0.116599	0.633464
	C166	C	0.321561	0.898441	0.634211
	C167	C	0.321892	0.117313	0.386238
	C168	C	0.879016	0.399079	0.192680
	C169	C	0.131098	0.614699	0.194019
	C170	C	0.127966	0.397830	0.828414
	C171	C	0.882268	0.617221	0.829536
	C172	C	0.186654	0.882482	0.400764
	C173	C	0.183763	0.129704	0.619744
	C174	C	0.823491	0.130935	0.399534
	C175	C	0.824140	0.885523	0.619774
	C176	C	0.396072	0.190480	0.885483
	C177	C	0.614138	0.188879	0.134260
	C178	C	0.394612	0.825236	0.134976
	C179	C	0.613667	0.826075	0.886435
	C180	C	0.394771	0.883320	0.192690
	C181	C	0.614552	0.130118	0.190734
	C182	C	0.395468	0.132294	0.827943
	C183	C	0.613864	0.883935	0.828821
	C184	C	0.879992	0.189966	0.400216
	C185	C	0.126636	0.188053	0.619526
	C186	C	0.129385	0.824169	0.400917
	C187	C	0.881071	0.826854	0.619361
	C188	C	0.185350	0.397317	0.886627
	C189	C	0.188554	0.614988	0.135678
	C190	C	0.822730	0.398390	0.133253
	C191	C	0.824451	0.617287	0.887666
	C192	C	0.408352	0.097284	0.605621
	C193	C	0.601499	0.916473	0.606202
	C194	C	0.600718	0.098479	0.413761
	C195	C	0.408895	0.918273	0.414170
	C196	C	0.600900	0.411119	0.101127
	C197	C	0.601202	0.604564	0.918555
	C198	C	0.411030	0.601092	0.098911
	C199	C	0.410279	0.411712	0.920221
	C200	C	0.095126	0.601906	0.414973
	C201	C	0.913275	0.604714	0.607181
	C202	C	0.096927	0.411577	0.605665
	C203	C	0.914229	0.411660	0.414257
	C204	C	0.909154	0.597625	0.106107
	C205	C	0.098379	0.417863	0.103621
	C206	C	0.101508	0.598022	0.913186
	C207	C	0.907917	0.416584	0.912412
	C208	C	0.099404	0.911106	0.600280
	C209	C	0.099658	0.103450	0.418729
	C210	C	0.908051	0.104655	0.600083
	C211	C	0.908481	0.910301	0.418469
	C212	C	0.596201	0.103747	0.913598
	C213	C	0.413923	0.102768	0.104731
	C214	C	0.595084	0.911260	0.105543
	C215	C	0.413414	0.912331	0.914860
	Zn216	Zn	0.503705	0.006746	0.760419
	Zn217	Zn	0.503727	0.008387	0.259467
	Zn218	Zn	0.754555	0.507859	0.010047
	Zn219	Zn	0.254520	0.506690	0.009300
	Zn220	Zn	0.004234	0.756867	0.509877
	Zn221	Zn	0.004829	0.258221	0.509176
	Zn222	Zn	0.005212	0.508031	0.759207
	Zn223	Zn	0.005289	0.506891	0.260036
	Zn224	Zn	0.504092	0.757686	0.009998
	Zn225	Zn	0.504870	0.257067	0.010888
	Zn226	Zn	0.755121	0.007474	0.509163
	Zn227	Zn	0.253551	0.007672	0.509996
	N228	N	0.416443	0.972398	0.690536
	N229	N	0.591155	0.041932	0.690425
	N230	N	0.591515	0.973501	0.328937
	N231	N	0.416795	0.043342	0.329689
	N232	N	0.684301	0.421464	0.974886
	N233	N	0.684650	0.594841	0.044673
	N234	N	0.325317	0.592621	0.973839
	N235	N	0.323215	0.418899	0.044302
	N236	N	0.969535	0.686698	0.422958
	N237	N	0.039863	0.687869	0.596866
	N238	N	0.970566	0.328165	0.596358
	N239	N	0.039651	0.326566	0.421477
	N240	N	0.969719	0.422293	0.688298
	N241	N	0.039981	0.595296	0.690349
	N242	N	0.969765	0.593470	0.329940
	N243	N	0.039157	0.418527	0.327785
	N244	N	0.415899	0.688850	0.975703
	N245	N	0.591621	0.688138	0.044857
	N246	N	0.592225	0.326873	0.975506
	N247	N	0.416548	0.325874	0.044897
	N248	N	0.684278	0.972706	0.422886
	N249	N	0.685303	0.042265	0.597132
	N250	N	0.323611	0.972239	0.596870
	N251	N	0.323324	0.043081	0.422954
	N252	N	0.916202	0.472986	0.191500
	N253	N	0.092483	0.541479	0.190788
	N254	N	0.092089	0.472418	0.829087
	N255	N	0.918090	0.542531	0.829679
	N256	N	0.184198	0.920212	0.474753
	N257	N	0.182879	0.093590	0.544954
	N258	N	0.825202	0.094167	0.473726
	N259	N	0.825222	0.921392	0.544858
	N260	N	0.470678	0.188727	0.922288
	N261	N	0.539314	0.188034	0.097910
	N262	N	0.469188	0.826694	0.097841
	N263	N	0.539106	0.827539	0.923343
	N264	N	0.469257	0.920419	0.190617
	N265	N	0.540014	0.093417	0.188816
	N266	N	0.469858	0.095020	0.829467
	N267	N	0.539382	0.920920	0.830570
	N268	N	0.916447	0.189260	0.474868
	N269	N	0.091035	0.187627	0.544623
	N270	N	0.091944	0.826004	0.475008
	N271	N	0.916865	0.826770	0.544445
	N272	N	0.184492	0.471923	0.922854
	N273	N	0.185332	0.541718	0.096980
	N274	N	0.825228	0.472270	0.096000
	N275	N	0.824783	0.542478	0.923137
	O276	O	0.818533	0.817034	-0.172882
	H277	H	0.825289	0.819106	-0.164625
	H278	H	0.835566	0.833831	-0.156764
	O279	O	0.421635	0.623704	0.680542
	H280	H	0.403578	0.629251	0.697133
	H281	H	0.429621	0.631448	0.687329
	O282	O	0.786871	0.223611	0.184019
	H283	H	0.781111	0.234993	0.178451
	H284	H	0.801888	0.228701	0.163398
	O285	O	0.596972	0.365263	0.524096
	H286	H	0.579218	0.376118	0.545634
	H287	H	0.588909	0.372027	0.507252
	O288	O	0.793543	0.046171	0.798493
	H289	H	0.791843	0.044651	0.782907
	H290	H	0.797700	0.034956	0.788213
	O291	O	0.722390	0.725230	0.537558
	H292	H	0.747696	0.752664	0.548638
	H293	H	0.706559	0.726197	0.563245
	O294	O	-0.021013	-0.067122	-0.080704
	H295	H	-0.029814	-0.070573	-0.062049
	H296	H	-0.024663	-0.080176	-0.071690
	O297	O	0.648327	0.571450	0.449022
	H298	H	0.639496	0.576027	0.457561
	H299	H	0.648663	0.576906	0.447882
	O300	O	-0.013521	-0.092277	-0.141019
	H301	H	-0.007785	-0.102529	-0.140646
	H302	H	0.001003	-0.091443	-0.138423
	O303	O	-0.209776	-0.118374	-0.004037
	H304	H	-0.216593	-0.110550	-0.008726
	H305	H	-0.215969	-0.117451	0.007164
	O306	O	0.790573	0.224926	-0.021795
	H307	H	0.763010	0.254721	-0.033045
	H308	H	0.797668	0.220451	-0.064488
	O309	O	0.907960	0.224993	0.107888
	H310	H	0.902302	0.221068	0.082086
	H311	H	0.920661	0.223665	0.076881
	O312	O	0.294822	0.520241	0.300052
	H313	H	0.296096	0.520599	0.299483
	H314	H	0.287897	0.517534	0.287721
	O315	O	0.711654	0.505227	0.358740
	H316	H	0.704242	0.501402	0.364065
	H317	H	0.727226	0.511099	0.351831
	O318	O	1.099571	0.804570	-0.194354
	H319	H	1.093884	0.811754	-0.194347
	H320	H	1.109971	0.795788	-0.183940
	O321	O	-0.092704	1.004898	1.157539
	H322	H	-0.102464	1.021078	1.150944
	H323	H	-0.086439	1.018933	1.157595
	O324	O	1.162747	-0.209222	1.019409
	H325	H	1.150626	-0.215317	1.037069
	H326	H	1.162640	-0.215601	1.007536
	O327	O	0.307377	0.489080	0.541224
	H328	H	0.311782	0.483027	0.541308
	H329	H	0.297424	0.481495	0.533850
	O330	O	0.094628	1.217671	-0.078157
	H331	H	0.100069	1.199867	-0.077239
	H332	H	0.091237	1.217488	-0.088362
	O333	O	0.549502	0.455831	0.587999
	H334	H	0.568511	0.459131	0.575456
	H335	H	0.541696	0.456267	0.581855
	O336	O	0.306591	0.707395	0.310641
	H337	H	0.322777	0.712767	0.338215
	H338	H	0.288206	0.692074	0.292413
	O339	O	-0.022017	0.787973	0.227705
	H340	H	-0.055113	0.785836	0.231142
	H341	H	-0.044641	0.766527	0.244513
	O342	O	0.023143	0.848299	0.084312
	H343	H	0.014118	0.860986	0.090966
	H344	H	0.002313	0.840270	0.085284
	O345	O	0.305855	0.309308	0.711766
	H346	H	0.313043	0.304858	0.725515
	H347	H	0.303198	0.305828	0.705537
	O348	O	0.470467	0.677876	0.712074
	H349	H	0.495152	0.680415	0.713244
	H350	H	0.475197	0.685658	0.706474
	O351	O	0.214404	-0.119867	0.798729
	H352	H	0.217618	-0.101625	0.786384
	H353	H	0.215461	-0.124901	0.811352
	O354	O	1.143268	0.009828	0.816450
	H355	H	1.148340	0.022786	0.813520
	H356	H	1.156108	0.022549	0.831780
	O357	O	0.504388	0.543949	0.349256
	H358	H	0.514570	0.548138	0.350042
	H359	H	0.502060	0.563566	0.350306
	O360	O	0.402021	0.565414	0.484123
	H361	H	0.399622	0.563127	0.484989
	H362	H	0.419440	0.566128	0.488414
	O363	O	0.574257	0.332495	0.389583
	H364	H	0.551854	0.325938	0.391293
	H365	H	0.574882	0.332371	0.400265
	O366	O	0.809380	-0.096438	1.108972
	H367	H	0.801661	-0.059899	1.110333
	H368	H	0.789796	-0.109945	1.113298
	O369	O	-0.025749	0.225047	0.798350
	H370	H	-0.033504	0.237899	0.780881
	H371	H	-0.036457	0.219536	0.795647
	O372	O	0.220511	1.051844	0.945150
	H373	H	0.221076	1.029541	0.980370
	H374	H	0.229604	1.070725	0.946617
	O375	O	1.219489	-0.097910	0.039587
	H376	H	1.221411	-0.102699	0.059656
	H377	H	1.216278	-0.112479	0.053861
	O378	O	0.722086	0.417319	0.550408
	H379	H	0.722585	0.421729	0.539148
	H380	H	0.728794	0.400335	0.532619
	O381	O	-0.201437	1.214787	-0.193597
	H382	H	-0.233946	1.244403	-0.228156
	H383	H	-0.187983	1.181138	-0.201546
	O384	O	0.477953	0.725890	0.292416
	H385	H	0.479116	0.751134	0.281287
	H386	H	0.461380	0.732777	0.297279
	O387	O	0.212191	1.213590	1.029176
	H388	H	0.206783	1.204355	1.049332
	H389	H	0.220637	1.234974	1.034694
	O390	O	0.086193	1.136938	0.884480
	H391	H	0.073669	1.128389	0.892405
	H392	H	0.093791	1.127365	0.894438
	O393	O	1.052819	0.011505	0.225562
	H394	H	1.043468	0.018828	0.225070
	H395	H	1.049680	0.006688	0.220816
	O396	O	0.432813	0.511336	0.467194
	H397	H	0.432875	0.514606	0.454054
	H398	H	0.425953	0.504062	0.472392
	O399	O	0.529006	0.289462	0.287963
	H400	H	0.533425	0.263791	0.266072
	H401	H	0.528892	0.308994	0.285632
	O402	O	1.192967	0.168294	1.199063
	H403	H	1.186897	0.145686	1.201621
	H404	H	1.166975	0.170250	1.207548
	O405	O	0.713202	0.299207	0.448045
	H406	H	0.724723	0.285235	0.437690
	H407	H	0.701412	0.286381	0.440443
	O408	O	0.716747	0.575255	0.720549
	H409	H	0.727270	0.567285	0.734734
	H410	H	0.709209	0.556240	0.714307
	O411	O	0.764137	0.768417	0.247331
	H412	H	0.747531	0.791663	0.251701
	H413	H	0.739411	0.743463	0.260590
	O414	O	-0.059382	0.051091	-0.073298
	H415	H	-0.058322	0.044320	-0.068214
	H416	H	-0.067559	0.057307	-0.061864
	O417	O	0.693869	0.316400	0.697924
	H418	H	0.674322	0.338366	0.681866
	H419	H	0.677602	0.334121	0.678443
	O420	O	1.470582	-0.705471	0.723210
	H421	H	1.466085	-0.700632	0.736342
	H422	H	1.476564	-0.716365	0.725642
	O423	O	0.894042	0.812245	0.015300
	H424	H	0.885207	0.814916	0.037319
	H425	H	0.887336	0.800933	0.016001
	O426	O	0.588491	0.453454	0.719423
	H427	H	0.571374	0.474819	0.714127
	H428	H	0.582591	0.451440	0.716635
	O429	O	0.428999	0.360377	0.478963
	H430	H	0.434353	0.381420	0.477938
	H431	H	0.424210	0.358575	0.467940
	O432	O	1.024060	0.013735	1.092403
	H433	H	1.033143	-0.001957	1.092132
	H434	H	1.021049	0.003799	1.089105
	O435	O	0.182518	-0.134094	0.166539
	H436	H	0.162567	-0.145977	0.166935
	H437	H	0.172555	-0.122759	0.163281
	O438	O	0.283740	0.289169	0.549110
	H439	H	0.267298	0.275730	0.562933
	H440	H	0.283688	0.277512	0.547700
	O441	O	0.537636	0.458614	0.429824
	H442	H	0.531167	0.459961	0.441921
	H443	H	0.516214	0.470262	0.431046
	O444	O	0.304231	0.488411	0.696946
	H445	H	0.309814	0.480880	0.706305
	H446	H	0.282729	0.483773	0.707882
	O447	O	0.680266	0.713381	0.718716
	H448	H	0.678368	0.688677	0.716554
	H449	H	0.694934	0.707681	0.742231
	O450	O	1.049892	0.003957	-0.145689
	H451	H	1.046926	-0.002765	-0.139797
	H452	H	1.075337	0.005075	-0.137001
	O453	O	0.364502	0.415376	0.385052
	H454	H	0.369195	0.415035	0.407272
	H455	H	0.360914	0.421517	0.379427
	O456	O	0.170681	1.041493	1.189578
	H457	H	0.146908	1.033019	1.202715
	H458	H	0.186941	1.036858	1.216449
	O459	O	0.497903	0.666545	0.600525
	H460	H	0.493599	0.668358	0.606427
	H461	H	0.490331	0.658314	0.599089
	O462	O	0.645664	0.705129	0.365952
	H463	H	0.626668	0.696190	0.394180
	H464	H	0.643147	0.698408	0.376079
	O465	O	0.308305	0.719726	0.486234
	H466	H	0.300585	0.722503	0.478433
	H467	H	0.301078	0.724931	0.493498
	O468	O	0.379092	1.376781	0.338205
	H469	H	0.411617	1.396628	0.349384
	H470	H	0.352345	1.375263	0.328403
	O471	O	0.524599	0.700680	0.566052
	H472	H	0.516305	0.703688	0.566559
	H473	H	0.515916	0.695319	0.579844
	O474	O	1.030899	1.201411	0.216651
	H475	H	1.020126	1.210718	0.199392
	H476	H	1.027487	1.221057	0.229989
	O477	O	-0.204688	0.022866	1.130057
	H478	H	-0.215059	0.028227	1.133990
	H479	H	-0.200513	0.060414	1.123357
