data_Molecule from HDF5

_cell_length_a		16.239282
_cell_length_b		16.253804
_cell_length_c		16.256596
_cell_angle_alpha	90.630957
_cell_angle_beta	89.721165
_cell_angle_gamma	89.702827
_symmetry_space_group_name_H-M	'P 1'
_symmetry_Int_Tables_number		1

loop_
	_symmetry_equiv_pos_as_xyz
	x,y,z

loop_
	_atom_site_label
	_atom_site_type_symbol
	_atom_site_fract_x
	_atom_site_fract_y
	_atom_site_fract_z
	H0	H	0.407360	0.843887	0.714102
	H1	H	0.605415	0.170502	0.718492
	H2	H	0.606271	0.844141	0.284166
	H3	H	0.406959	0.172541	0.289737
	H4	H	0.721023	0.405272	0.840255
	H5	H	0.716556	0.608118	0.166898
	H6	H	0.291075	0.605470	0.836546
	H7	H	0.288896	0.413917	0.165481
	H8	H	0.840684	0.723512	0.406017
	H9	H	0.169823	0.722706	0.601541
	H10	H	0.840237	0.297692	0.598175
	H11	H	0.167772	0.291933	0.398772
	H12	H	0.840819	0.411233	0.715056
	H13	H	0.168941	0.608337	0.717132
	H14	H	0.839910	0.607066	0.288941
	H15	H	0.167418	0.406420	0.282721
	H16	H	0.404788	0.722451	0.836962
	H17	H	0.601195	0.725741	0.165827
	H18	H	0.605030	0.290315	0.840163
	H19	H	0.404012	0.296470	0.166733
	H20	H	0.722787	0.844885	0.400192
	H21	H	0.715210	0.172640	0.599006
	H22	H	0.289068	0.845457	0.601279
	H23	H	0.290218	0.172027	0.404743
	H24	H	0.905152	0.344784	0.214755
	H25	H	0.103294	0.670549	0.217761
	H26	H	0.104429	0.344726	0.783610
	H27	H	0.903557	0.672368	0.789645
	H28	H	0.219939	0.907557	0.337808
	H29	H	0.218680	0.110223	0.665048
	H30	H	0.790913	0.106954	0.337066
	H31	H	0.789424	0.912642	0.665176
	H32	H	0.340713	0.222610	0.905236
	H33	H	0.667501	0.224310	0.103301
	H34	H	0.339630	0.799351	0.098436
	H35	H	0.666791	0.788501	0.897948
	H36	H	0.342380	0.909495	0.216881
	H37	H	0.668330	0.108652	0.217178
	H38	H	0.341314	0.108324	0.787360
	H39	H	0.669265	0.906294	0.784945
	H40	H	0.905971	0.221992	0.336767
	H41	H	0.102052	0.225927	0.664602
	H42	H	0.107454	0.790351	0.339856
	H43	H	0.906078	0.797447	0.666540
	H44	H	0.223287	0.345969	0.896521
	H45	H	0.215277	0.672574	0.099909
	H46	H	0.789442	0.344877	0.101621
	H47	H	0.786329	0.670956	0.905572
	H48	H	0.419259	0.121837	0.594291
	H49	H	0.590695	0.889392	0.605979
	H50	H	0.596345	0.123154	0.412510
	H51	H	0.409562	0.891164	0.410814
	H52	H	0.597258	0.417203	0.120323
	H53	H	0.596126	0.598478	0.885292
	H54	H	0.405471	0.602839	0.118336
	H55	H	0.414391	0.406225	0.883371
	H56	H	0.120874	0.602416	0.415026
	H57	H	0.889159	0.604564	0.591920
	H58	H	0.122477	0.423001	0.601979
	H59	H	0.888916	0.413729	0.413153
	H60	H	0.124555	0.405899	0.591470
	H61	H	0.888580	0.599744	0.597401
	H62	H	0.118846	0.591795	0.408723
	H63	H	0.888063	0.420532	0.405757
	H64	H	0.412644	0.604289	0.116803
	H65	H	0.596070	0.596584	0.887722
	H66	H	0.595227	0.417514	0.119444
	H67	H	0.406223	0.418135	0.884773
	H68	H	0.602174	0.126280	0.408717
	H69	H	0.592041	0.896167	0.578665
	H70	H	0.407670	0.124743	0.589144
	H71	H	0.415118	0.890425	0.402583
	H72	H	0.913200	0.625018	0.098151
	H73	H	0.101810	0.390120	0.090837
	H74	H	0.094216	0.623310	0.912143
	H75	H	0.925079	0.394310	0.904903
	H76	H	0.101327	0.918524	0.619489
	H77	H	0.110639	0.098466	0.381761
	H78	H	0.896396	0.102559	0.621209
	H79	H	0.914125	0.910663	0.383491
	H80	H	0.622451	0.100801	0.907942
	H81	H	0.386726	0.100428	0.099661
	H82	H	0.624845	0.915204	0.100382
	H83	H	0.389976	0.919985	0.910106
	H84	H	0.622385	0.908216	0.086901
	H85	H	0.387011	0.105879	0.096565
	H86	H	0.620331	0.099154	0.912964
	H87	H	0.386166	0.917995	0.901558
	H88	H	0.918098	0.093986	0.611763
	H89	H	0.092194	0.091296	0.388453
	H90	H	0.096219	0.920456	0.618452
	H91	H	0.911665	0.918214	0.385632
	H92	H	0.099962	0.625626	0.911148
	H93	H	0.094500	0.390516	0.094698
	H94	H	0.910322	0.624202	0.092369
	H95	H	0.909088	0.393873	0.918884
	H96	H	0.410864	0.127150	0.602695
	H97	H	0.614933	0.886534	0.591611
	H98	H	0.595601	0.124895	0.405373
	H99	H	0.418719	0.894439	0.410428
	H100	H	0.595851	0.415049	0.120549
	H101	H	0.594407	0.597954	0.887301
	H102	H	0.408013	0.609011	0.119481
	H103	H	0.420472	0.418632	0.889129
	H104	H	0.122832	0.601888	0.402814
	H105	H	0.886554	0.607194	0.598105
	H106	H	0.117296	0.421763	0.582450
	H107	H	0.884341	0.410925	0.404902
	H108	H	0.906686	0.626861	0.097458
	H109	H	0.095462	0.393002	0.086984
	H110	H	0.095289	0.625525	0.906504
	H111	H	0.905941	0.387695	0.898666
	H112	H	0.097089	0.914494	0.619722
	H113	H	0.094215	0.111129	0.382159
	H114	H	0.916568	0.117605	0.620229
	H115	H	0.918879	0.916240	0.387634
	H116	H	0.620841	0.095290	0.908660
	H117	H	0.388984	0.100517	0.093594
	H118	H	0.619557	0.922932	0.087906
	H119	H	0.387680	0.911666	0.908654
	C120	C	0.383534	0.016795	0.623551
	C121	C	0.626821	0.999088	0.621944
	C122	C	0.627964	0.016680	0.378728
	C123	C	0.384590	0.999933	0.380282
	C124	C	0.626059	0.385972	0.012200
	C125	C	0.624462	0.628953	0.994440
	C126	C	0.381019	0.631939	0.009628
	C127	C	0.383809	0.387332	0.993807
	C128	C	0.012802	0.629235	0.380786
	C129	C	0.996704	0.631751	0.624682
	C130	C	0.013142	0.388488	0.621117
	C131	C	0.995125	0.385524	0.377793
	C132	C	0.882172	0.516873	0.123756
	C133	C	0.125321	0.499503	0.121346
	C134	C	0.126647	0.517135	0.878777
	C135	C	0.882582	0.499531	0.880194
	C136	C	0.127954	0.886932	0.511302
	C137	C	0.126706	0.130589	0.492632
	C138	C	0.882644	0.131788	0.509638
	C139	C	0.884925	0.887909	0.493734
	C140	C	0.513499	0.128849	0.881061
	C141	C	0.495924	0.130931	0.125079
	C142	C	0.513724	0.888103	0.121103
	C143	C	0.495878	0.885450	0.877346
	C144	C	0.386409	0.893142	0.677158
	C145	C	0.624778	0.122089	0.679447
	C146	C	0.626968	0.893398	0.322106
	C147	C	0.386620	0.123442	0.326806
	C148	C	0.682434	0.386239	0.889094
	C149	C	0.679179	0.628364	0.117581
	C150	C	0.327523	0.627134	0.885908
	C151	C	0.326724	0.391879	0.116805
	C152	C	0.889704	0.685392	0.384913
	C153	C	0.120305	0.685817	0.622207
	C154	C	0.889498	0.334454	0.618723
	C155	C	0.118613	0.329488	0.378732
	C156	C	0.889854	0.390942	0.676988
	C157	C	0.119891	0.628826	0.679722
	C158	C	0.889371	0.627553	0.326410
	C159	C	0.118541	0.386756	0.321247
	C160	C	0.384133	0.685283	0.886127
	C161	C	0.621543	0.686665	0.117057
	C162	C	0.625231	0.328576	0.889152
	C163	C	0.384035	0.333591	0.117329
	C164	C	0.684492	0.893714	0.379933
	C165	C	0.679324	0.123183	0.620058
	C166	C	0.327554	0.893823	0.621004
	C167	C	0.328431	0.123185	0.384027
	C168	C	0.884782	0.393765	0.177766
	C169	C	0.122863	0.622115	0.178530
	C170	C	0.125118	0.393935	0.821526
	C171	C	0.883238	0.623148	0.826671
	C172	C	0.183052	0.887550	0.387366
	C173	C	0.181381	0.130193	0.615923
	C174	C	0.828139	0.127928	0.386117
	C175	C	0.828373	0.892291	0.616785
	C176	C	0.389936	0.184789	0.884252
	C177	C	0.618740	0.186732	0.123274
	C178	C	0.389334	0.835331	0.119197
	C179	C	0.618355	0.827281	0.878345
	C180	C	0.390926	0.890252	0.178156
	C181	C	0.619121	0.129016	0.179925
	C182	C	0.390128	0.127626	0.825825
	C183	C	0.619682	0.886091	0.822226
	C184	C	0.885605	0.185048	0.385902
	C185	C	0.123192	0.187507	0.615838
	C186	C	0.127062	0.829058	0.388503
	C187	C	0.886160	0.834732	0.617358
	C188	C	0.183891	0.394499	0.877993
	C189	C	0.178954	0.622948	0.120179
	C190	C	0.827082	0.393873	0.121518
	C191	C	0.825234	0.622493	0.884231
	C192	C	0.405933	0.102411	0.601769
	C193	C	0.605363	0.912964	0.598847
	C194	C	0.604734	0.102627	0.401941
	C195	C	0.407573	0.914335	0.401610
	C196	C	0.602787	0.409804	0.097894
	C197	C	0.602138	0.604717	0.908714
	C198	C	0.402412	0.611525	0.095890
	C199	C	0.406998	0.408263	0.907992
	C200	C	0.098868	0.605541	0.402604
	C201	C	0.910409	0.610285	0.602399
	C202	C	0.099247	0.410537	0.598474
	C203	C	0.909451	0.408253	0.400956
	C204	C	0.903624	0.603083	0.102309
	C205	C	0.103574	0.413388	0.097792
	C206	C	0.103240	0.602654	0.902752
	C207	C	0.906416	0.414202	0.901175
	C208	C	0.104916	0.910778	0.596850
	C209	C	0.105301	0.107179	0.406590
	C210	C	0.904169	0.110932	0.595523
	C211	C	0.908218	0.908795	0.407897
	C212	C	0.599277	0.105418	0.903386
	C213	C	0.409882	0.108766	0.103203
	C214	C	0.599868	0.909248	0.098445
	C215	C	0.410201	0.909327	0.900155
	Zn216	Zn	0.505774	0.007784	0.750699
	Zn217	Zn	0.505765	0.007903	0.250517
	Zn218	Zn	0.754426	0.507455	0.003091
	Zn219	Zn	0.254458	0.508903	0.000779
	Zn220	Zn	0.005989	0.759418	0.502878
	Zn221	Zn	0.004245	0.259088	0.500353
	Zn222	Zn	0.004638	0.508995	0.751098
	Zn223	Zn	0.004244	0.507471	0.250416
	Zn224	Zn	0.503158	0.759567	0.000876
	Zn225	Zn	0.504352	0.257620	0.003260
	Zn226	Zn	0.755457	0.009270	0.501123
	Zn227	Zn	0.255146	0.008568	0.502052
	N228	N	0.420396	0.970495	0.678848
	N229	N	0.592775	0.043876	0.680838
	N230	N	0.592304	0.970915	0.321271
	N231	N	0.420674	0.045798	0.324062
	N232	N	0.683130	0.421133	0.966554
	N233	N	0.681031	0.593311	0.040203
	N234	N	0.325305	0.594799	0.963727
	N235	N	0.326211	0.424515	0.039050
	N236	N	0.967642	0.686602	0.417923
	N237	N	0.042589	0.687961	0.588931
	N238	N	0.967346	0.332665	0.584895
	N239	N	0.041043	0.328486	0.413030
	N240	N	0.967747	0.423839	0.678580
	N241	N	0.041819	0.596197	0.681784
	N242	N	0.966947	0.593183	0.324090
	N243	N	0.040853	0.420683	0.320371
	N244	N	0.416617	0.688478	0.964069
	N245	N	0.588117	0.687081	0.039321
	N246	N	0.590930	0.328235	0.966752
	N247	N	0.418534	0.330561	0.039999
	N248	N	0.685400	0.971411	0.414070
	N249	N	0.680885	0.045720	0.585179
	N250	N	0.325382	0.971771	0.588597
	N251	N	0.326917	0.045399	0.416434
	N252	N	0.918240	0.471268	0.179270
	N253	N	0.090302	0.544249	0.179261
	N254	N	0.090323	0.471228	0.821968
	N255	N	0.918276	0.545784	0.823759
	N256	N	0.184215	0.922572	0.464833
	N257	N	0.183591	0.095421	0.538302
	N258	N	0.826041	0.095509	0.463859
	N259	N	0.827416	0.924572	0.538788
	N260	N	0.467532	0.185456	0.917990
	N261	N	0.541049	0.187954	0.089902
	N262	N	0.466680	0.833727	0.084358
	N263	N	0.540379	0.826837	0.911988
	N264	N	0.469237	0.922319	0.179373
	N265	N	0.541886	0.094746	0.181021
	N266	N	0.467884	0.093545	0.823733
	N267	N	0.542572	0.921328	0.821290
	N268	N	0.918854	0.187560	0.463546
	N269	N	0.090244	0.188138	0.538181
	N270	N	0.093625	0.828369	0.466443
	N271	N	0.920552	0.831889	0.539800
	N272	N	0.185005	0.472050	0.912926
	N273	N	0.180430	0.545578	0.084929
	N274	N	0.825517	0.471519	0.088503
	N275	N	0.824640	0.544803	0.916563
	O276	O	0.550124	0.494927	0.549858
	H277	H	0.556407	0.503977	0.567045
	H278	H	0.542472	0.499219	0.540594
	O279	O	0.486876	0.584499	0.510919
	H280	H	0.496811	0.575843	0.507410
	H281	H	0.490310	0.585001	0.510472
	O282	O	1.153165	0.973055	0.086348
	H283	H	1.138300	0.962368	0.085982
	H284	H	1.162555	0.997740	0.094487
	O285	O	0.974367	-0.122378	1.082386
	H286	H	0.972031	-0.132303	1.082661
	H287	H	0.971914	-0.127119	1.080949
	O288	O	0.473962	0.467833	0.572661
	H289	H	0.464778	0.460760	0.573040
	H290	H	0.465687	0.476815	0.570346
	O291	O	0.419391	0.489579	0.540362
	H292	H	0.432130	0.490203	0.532700
	H293	H	0.419041	0.502658	0.534065
	O294	O	0.512939	0.525243	0.446362
	H295	H	0.509143	0.536194	0.444450
	H296	H	0.499637	0.513652	0.448870
	O297	O	-0.526812	-0.456436	1.551574
	H298	H	-0.536486	-0.445445	1.547280
	H299	H	-0.534523	-0.461076	1.556500
	O300	O	-0.015791	0.025190	0.072228
	H301	H	-0.009799	0.033242	0.074002
	H302	H	-0.015415	0.027753	0.077861
	O303	O	1.009278	1.037514	-0.176745
	H304	H	1.023659	1.037075	-0.184630
	H305	H	1.005820	1.034277	-0.188450
	O306	O	0.135576	0.832044	0.935265
	H307	H	0.143654	0.827739	0.935903
	H308	H	0.151307	0.841341	0.944256
	O309	O	0.534510	0.405444	0.446674
	H310	H	0.549541	0.389628	0.448868
	H311	H	0.531928	0.407861	0.444456
	O312	O	0.094422	0.022306	0.151437
	H313	H	0.095873	0.026174	0.158825
	H314	H	0.097054	0.039162	0.146662
	O315	O	0.931051	0.073526	-0.073982
	H316	H	0.923376	0.071824	-0.064990
	H317	H	0.936244	0.072635	-0.064926
	O318	O	1.089175	1.123063	1.092218
	H319	H	1.085229	1.123172	1.082561
	H320	H	1.085222	1.130646	1.094779
	O321	O	0.016414	-1.011618	0.844085
	H322	H	0.002940	-1.014576	0.845862
	H323	H	0.008304	-1.011000	0.843083
	O324	O	0.518764	0.589124	0.515874
	H325	H	0.506430	0.594955	0.512441
	H326	H	0.517710	0.591898	0.510422
	O327	O	0.046553	-0.079116	-0.130839
	H328	H	0.063387	-0.074080	-0.127139
	H329	H	0.061282	-0.092785	-0.147652
	O330	O	0.464850	0.552024	0.513537
	H331	H	0.471156	0.559426	0.530667
	H332	H	0.461121	0.538309	0.514314
	O333	O	-0.028586	1.052090	0.978455
	H334	H	-0.040212	1.056069	0.977611
	H335	H	-0.028029	1.046968	0.987222
	O336	O	0.109275	0.058526	-0.036296
	H337	H	0.111106	0.065255	-0.041111
	H338	H	0.117706	0.063454	-0.028703
	O339	O	0.555261	0.502458	0.540516
	H340	H	0.559150	0.497814	0.534403
	H341	H	0.551240	0.499044	0.546170
	O342	O	1.074305	1.017294	1.070132
	H343	H	1.073858	1.005233	1.059021
	H344	H	1.064165	1.026376	1.072038
	O345	O	0.865936	0.963940	0.108869
	H346	H	0.867803	0.969582	0.119314
	H347	H	0.877159	0.952232	0.108176
	O348	O	0.506711	0.478752	0.481719
	H349	H	0.510758	0.470013	0.470705
	H350	H	0.502326	0.478084	0.496148
	O351	O	0.473358	0.514324	0.557225
	H352	H	0.469342	0.517013	0.553705
	H353	H	0.475050	0.517119	0.556389
	O354	O	0.839912	0.155180	0.955271
	H355	H	0.821898	0.157231	0.940632
	H356	H	0.832636	0.147652	0.948743
	O357	O	0.973155	0.021659	1.037688
	H358	H	0.977083	0.007696	1.036313
	H359	H	0.972113	0.025167	1.036186
	O360	O	0.935171	0.907390	0.015675
	H361	H	0.936119	0.893472	0.012216
	H362	H	0.941626	0.902251	0.030774
	O363	O	0.394093	0.464632	0.462515
	H364	H	0.383384	0.464305	0.475837
	H365	H	0.400456	0.461562	0.466901
	O366	O	0.553997	1.566806	0.457753
	H367	H	0.557529	1.572177	0.455937
	H368	H	0.560622	1.556173	0.449717
	O369	O	0.970099	0.175824	1.021524
	H370	H	0.960801	0.179889	1.024995
	H371	H	0.964565	0.179384	1.001740
	O372	O	-0.025016	-0.030257	-0.118152
	H373	H	-0.030194	-0.039877	-0.113618
	H374	H	-0.007750	-0.044176	-0.134459
	O375	O	0.842507	-0.103846	0.067100
	H376	H	0.846906	-0.104348	0.074866
	H377	H	0.832030	-0.111889	0.078609
	O378	O	0.516867	0.530033	0.486695
	H379	H	0.518100	0.524630	0.500320
	H380	H	0.522442	0.521360	0.482009
	O381	O	0.461360	0.531942	0.578342
	H382	H	0.466605	0.529494	0.582614
	H383	H	0.461333	0.539281	0.575877
