data_Molecule from HDF5

_cell_length_a		16.260155
_cell_length_b		16.321540
_cell_length_c		16.306157
_cell_angle_alpha	90.083581
_cell_angle_beta	89.907518
_cell_angle_gamma	90.075737
_symmetry_space_group_name_H-M	'P 1'
_symmetry_Int_Tables_number		1

loop_
	_symmetry_equiv_pos_as_xyz
	x,y,z

loop_
	_atom_site_label
	_atom_site_type_symbol
	_atom_site_fract_x
	_atom_site_fract_y
	_atom_site_fract_z
	H0	H	0.403543	0.843717	0.716940
	H1	H	0.601639	0.170282	0.718012
	H2	H	0.601573	0.843619	0.286496
	H3	H	0.404857	0.170598	0.288479
	H4	H	0.716957	0.408740	0.839760
	H5	H	0.714044	0.604272	0.167209
	H6	H	0.288061	0.604798	0.839360
	H7	H	0.288459	0.410907	0.166976
	H8	H	0.839132	0.721634	0.404806
	H9	H	0.166388	0.721769	0.602175
	H10	H	0.839065	0.292019	0.602692
	H11	H	0.166757	0.292905	0.405353
	H12	H	0.838371	0.409297	0.717336
	H13	H	0.166069	0.606707	0.718569
	H14	H	0.838272	0.604893	0.290068
	H15	H	0.166497	0.408453	0.288508
	H16	H	0.403302	0.720868	0.838811
	H17	H	0.600713	0.722886	0.165572
	H18	H	0.601697	0.291250	0.839784
	H19	H	0.402380	0.292513	0.166423
	H20	H	0.717188	0.842860	0.403842
	H21	H	0.717756	0.170629	0.600635
	H22	H	0.288296	0.843402	0.600369
	H23	H	0.288140	0.170633	0.405348
	H24	H	0.903520	0.343168	0.217411
	H25	H	0.099244	0.671102	0.217804
	H26	H	0.100550	0.343918	0.788530
	H27	H	0.903496	0.670395	0.788923
	H28	H	0.216830	0.909317	0.339104
	H29	H	0.215547	0.104423	0.667169
	H30	H	0.790313	0.104123	0.338688
	H31	H	0.789150	0.910224	0.666442
	H32	H	0.338000	0.219949	0.905671
	H33	H	0.665947	0.221545	0.100064
	H34	H	0.337928	0.793392	0.100133
	H35	H	0.666422	0.794442	0.904646
	H36	H	0.338063	0.909745	0.216572
	H37	H	0.666740	0.104799	0.215334
	H38	H	0.337939	0.104033	0.789438
	H39	H	0.666350	0.909880	0.788406
	H40	H	0.904915	0.222298	0.339831
	H41	H	0.101664	0.222186	0.666440
	H42	H	0.101993	0.790824	0.340169
	H43	H	0.903186	0.791525	0.665648
	H44	H	0.216724	0.343833	0.905274
	H45	H	0.215712	0.670844	0.101415
	H46	H	0.786612	0.343236	0.101217
	H47	H	0.788283	0.670636	0.906684
	H48	H	0.399785	0.124510	0.591315
	H49	H	0.597284	0.891440	0.592238
	H50	H	0.602944	0.123751	0.412021
	H51	H	0.400762	0.889900	0.412167
	H52	H	0.593243	0.415796	0.118224
	H53	H	0.600632	0.607180	0.883413
	H54	H	0.406884	0.597497	0.117996
	H55	H	0.407115	0.404264	0.882939
	H56	H	0.120625	0.600393	0.404957
	H57	H	0.885981	0.599298	0.597010
	H58	H	0.120225	0.412434	0.598467
	H59	H	0.888417	0.416769	0.413219
	H60	H	0.118732	0.413740	0.593969
	H61	H	0.886207	0.599975	0.596342
	H62	H	0.118771	0.603045	0.414868
	H63	H	0.884748	0.414024	0.407000
	H64	H	0.413539	0.600836	0.117776
	H65	H	0.599856	0.593007	0.887114
	H66	H	0.592455	0.412943	0.118502
	H67	H	0.401930	0.421210	0.887353
	H68	H	0.595789	0.124764	0.402072
	H69	H	0.598834	0.889919	0.598487
	H70	H	0.409607	0.126311	0.606224
	H71	H	0.411267	0.889051	0.400875
	H72	H	0.903904	0.625399	0.101215
	H73	H	0.088497	0.392219	0.099274
	H74	H	0.096046	0.619332	0.925244
	H75	H	0.905677	0.390710	0.911839
	H76	H	0.100200	0.910068	0.621313
	H77	H	0.088267	0.112091	0.385506
	H78	H	0.908422	0.098260	0.618803
	H79	H	0.914660	0.917761	0.389147
	H80	H	0.614014	0.091967	0.917681
	H81	H	0.386511	0.098770	0.093697
	H82	H	0.616965	0.915040	0.090573
	H83	H	0.382843	0.906134	0.908262
	H84	H	0.618097	0.917933	0.095838
	H85	H	0.384889	0.098376	0.100309
	H86	H	0.620868	0.096949	0.898116
	H87	H	0.387730	0.915867	0.914558
	H88	H	0.911805	0.101306	0.619106
	H89	H	0.108720	0.100130	0.383139
	H90	H	0.096886	0.919479	0.617911
	H91	H	0.913160	0.906839	0.385058
	H92	H	0.107214	0.629259	0.903698
	H93	H	0.097232	0.391973	0.089770
	H94	H	0.912053	0.622866	0.100420
	H95	H	0.908802	0.389809	0.906881
	H96	H	0.417702	0.119383	0.591698
	H97	H	0.592320	0.892045	0.597343
	H98	H	0.590790	0.120380	0.412459
	H99	H	0.415595	0.894492	0.415018
	H100	H	0.594766	0.414308	0.119816
	H101	H	0.587713	0.601196	0.887848
	H102	H	0.407649	0.604354	0.120515
	H103	H	0.418828	0.416268	0.890030
	H104	H	0.116997	0.592805	0.411393
	H105	H	0.886365	0.598926	0.596556
	H106	H	0.118501	0.417038	0.597701
	H107	H	0.885416	0.409590	0.413203
	H108	H	0.906552	0.622341	0.093844
	H109	H	0.100611	0.388273	0.101418
	H110	H	0.082104	0.621555	0.902946
	H111	H	0.911498	0.392467	0.912354
	H112	H	0.089530	0.910925	0.618379
	H113	H	0.089563	0.089729	0.391897
	H114	H	0.908162	0.102428	0.620436
	H115	H	0.904618	0.914627	0.385160
	H116	H	0.621132	0.111478	0.912838
	H117	H	0.384051	0.103716	0.096385
	H118	H	0.619147	0.911246	0.096058
	H119	H	0.384100	0.916705	0.902624
	C120	C	0.380782	0.015420	0.624411
	C121	C	0.624126	0.999064	0.624065
	C122	C	0.624841	0.014843	0.380305
	C123	C	0.380852	0.999049	0.381155
	C124	C	0.622794	0.385748	0.011129
	C125	C	0.624086	0.628956	0.994425
	C126	C	0.380794	0.628974	0.010770
	C127	C	0.380351	0.385696	0.994800
	C128	C	0.010510	0.627437	0.382319
	C129	C	0.994357	0.628520	0.625278
	C130	C	0.010961	0.385517	0.625026
	C131	C	0.994521	0.385005	0.382134
	C132	C	0.878851	0.515060	0.126217
	C133	C	0.123702	0.498916	0.125423
	C134	C	0.123623	0.515628	0.882150
	C135	C	0.880496	0.498790	0.882036
	C136	C	0.124026	0.885165	0.511146
	C137	C	0.124021	0.128583	0.495030
	C138	C	0.881397	0.128768	0.511249
	C139	C	0.881921	0.885456	0.494339
	C140	C	0.510526	0.128152	0.881623
	C141	C	0.493731	0.129007	0.124926
	C142	C	0.510122	0.885929	0.123282
	C143	C	0.493377	0.885272	0.880384
	C144	C	0.383560	0.892341	0.678836
	C145	C	0.621751	0.121853	0.679483
	C146	C	0.622391	0.892213	0.324719
	C147	C	0.383847	0.121921	0.326376
	C148	C	0.678593	0.388270	0.888272
	C149	C	0.677649	0.626054	0.117937
	C150	C	0.325828	0.625480	0.888041
	C151	C	0.325553	0.389047	0.117985
	C152	C	0.887651	0.683203	0.384769
	C153	C	0.117449	0.683855	0.622989
	C154	C	0.887840	0.330322	0.622798
	C155	C	0.117881	0.330584	0.384669
	C156	C	0.887459	0.388484	0.679755
	C157	C	0.117282	0.626601	0.680538
	C158	C	0.887211	0.625190	0.327837
	C159	C	0.117593	0.387826	0.326541
	C160	C	0.383215	0.683150	0.887688
	C161	C	0.620946	0.684586	0.117253
	C162	C	0.621293	0.330048	0.888443
	C163	C	0.382100	0.330368	0.117510
	C164	C	0.679848	0.892008	0.382994
	C165	C	0.679287	0.122074	0.621109
	C166	C	0.326120	0.892208	0.621284
	C167	C	0.325846	0.121830	0.384358
	C168	C	0.882537	0.392036	0.179883
	C169	C	0.120579	0.622039	0.180329
	C170	C	0.121125	0.392499	0.826769
	C171	C	0.883215	0.621726	0.827114
	C172	C	0.179014	0.888411	0.387975
	C173	C	0.178330	0.125552	0.618299
	C174	C	0.827682	0.125470	0.387711
	C175	C	0.826562	0.888770	0.617605
	C176	C	0.386874	0.182288	0.884874
	C177	C	0.617005	0.183692	0.121130
	C178	C	0.386840	0.831060	0.120842
	C179	C	0.617347	0.831325	0.883532
	C180	C	0.386768	0.888813	0.178404
	C181	C	0.617293	0.126183	0.178700
	C182	C	0.386912	0.124799	0.827200
	C183	C	0.617471	0.888598	0.825867
	C184	C	0.884565	0.183905	0.388353
	C185	C	0.121543	0.183843	0.617990
	C186	C	0.122429	0.829499	0.388540
	C187	C	0.883160	0.829918	0.617298
	C188	C	0.178672	0.392410	0.884733
	C189	C	0.178091	0.622097	0.122202
	C190	C	0.824015	0.392233	0.122517
	C191	C	0.825991	0.622025	0.885370
	C192	C	0.402432	0.101253	0.602812
	C193	C	0.602229	0.913205	0.602338
	C194	C	0.602990	0.100855	0.402343
	C195	C	0.402750	0.913268	0.402837
	C196	C	0.600269	0.407936	0.096686
	C197	C	0.602514	0.606967	0.908410
	C198	C	0.403000	0.607459	0.096693
	C199	C	0.402697	0.407517	0.908915
	C200	C	0.096586	0.605339	0.404140
	C201	C	0.908396	0.606164	0.603017
	C202	C	0.097068	0.407694	0.603085
	C203	C	0.908500	0.407087	0.404482
	C204	C	0.900728	0.601397	0.104684
	C205	C	0.101952	0.412955	0.103238
	C206	C	0.101668	0.601122	0.904061
	C207	C	0.902305	0.413127	0.903914
	C208	C	0.101967	0.906862	0.597074
	C209	C	0.102000	0.106935	0.408958
	C210	C	0.902943	0.106951	0.597191
	C211	C	0.904103	0.906848	0.408533
	C212	C	0.596482	0.106521	0.903208
	C213	C	0.407378	0.106747	0.103277
	C214	C	0.595955	0.908392	0.100818
	C215	C	0.407323	0.906494	0.901966
	Zn216	Zn	0.502029	0.007278	0.752394
	Zn217	Zn	0.502639	0.006853	0.252306
	Zn218	Zn	0.751983	0.507238	0.003316
	Zn219	Zn	0.252381	0.507498	0.003323
	Zn220	Zn	0.002694	0.756175	0.503321
	Zn221	Zn	0.003097	0.257068	0.503713
	Zn222	Zn	0.002345	0.507453	0.753343
	Zn223	Zn	0.001739	0.506575	0.253769
	Zn224	Zn	0.502095	0.757065	0.001667
	Zn225	Zn	0.501606	0.256459	0.002948
	Zn226	Zn	0.753257	0.006737	0.502192
	Zn227	Zn	0.252095	0.007050	0.503309
	N228	N	0.416714	0.970109	0.681033
	N229	N	0.588050	0.044512	0.681261
	N230	N	0.589047	0.969612	0.322851
	N231	N	0.417236	0.044513	0.324149
	N232	N	0.679725	0.422306	0.965557
	N233	N	0.679458	0.592033	0.040692
	N234	N	0.324175	0.592571	0.965741
	N235	N	0.324413	0.422769	0.040679
	N236	N	0.965448	0.684634	0.417922
	N237	N	0.039986	0.685299	0.589342
	N238	N	0.965724	0.328493	0.589625
	N239	N	0.040325	0.328778	0.418390
	N240	N	0.964940	0.422371	0.681165
	N241	N	0.039801	0.592622	0.681771
	N242	N	0.964626	0.591408	0.326087
	N243	N	0.039758	0.420863	0.324849
	N244	N	0.416783	0.685295	0.965041
	N245	N	0.588407	0.686487	0.039331
	N246	N	0.587388	0.328368	0.965761
	N247	N	0.415368	0.328136	0.039844
	N248	N	0.681283	0.969376	0.416823
	N249	N	0.681107	0.044715	0.587556
	N250	N	0.324139	0.969660	0.588135
	N251	N	0.324175	0.044497	0.417859
	N252	N	0.916024	0.469520	0.182014
	N253	N	0.087323	0.544434	0.182241
	N254	N	0.087465	0.469828	0.825126
	N255	N	0.916277	0.544190	0.824787
	N256	N	0.179968	0.922517	0.465246
	N257	N	0.179925	0.091941	0.540772
	N258	N	0.825851	0.091688	0.464949
	N259	N	0.825383	0.922271	0.540172
	N260	N	0.464580	0.184416	0.918019
	N261	N	0.539068	0.185398	0.088495
	N262	N	0.464518	0.829093	0.087285
	N263	N	0.539429	0.829024	0.916721
	N264	N	0.464567	0.922055	0.180034
	N265	N	0.539521	0.092862	0.181040
	N266	N	0.464601	0.091492	0.825207
	N267	N	0.539624	0.921350	0.823574
	N268	N	0.916975	0.186329	0.466277
	N269	N	0.088702	0.185970	0.540311
	N270	N	0.089159	0.827322	0.466047
	N271	N	0.916952	0.827891	0.539885
	N272	N	0.180122	0.469649	0.918699
	N273	N	0.180224	0.544501	0.088884
	N274	N	0.821758	0.469987	0.090046
	N275	N	0.824467	0.544827	0.919180
	O276	O	0.520412	-0.524342	0.418233
	H277	H	0.518771	-0.524678	0.420107
	H278	H	0.524925	-0.526769	0.422237
	O279	O	0.548016	0.471419	0.415954
	H280	H	0.542981	0.476988	0.416915
	H281	H	0.546334	0.462801	0.416627
	O282	O	0.549718	0.472645	0.403199
	H283	H	0.547408	0.476730	0.398902
	H284	H	0.550137	0.470290	0.397336
	O285	O	0.542235	0.466205	0.451852
	H286	H	0.550084	0.463713	0.441810
	H287	H	0.545061	0.464235	0.447759
