data_Molecule from HDF5

_cell_length_a		16.263778
_cell_length_b		16.138802
_cell_length_c		16.293929
_cell_angle_alpha	89.770197
_cell_angle_beta	90.971723
_cell_angle_gamma	89.868663
_symmetry_space_group_name_H-M	'P 1'
_symmetry_Int_Tables_number		1

loop_
	_symmetry_equiv_pos_as_xyz
	x,y,z

loop_
	_atom_site_label
	_atom_site_type_symbol
	_atom_site_fract_x
	_atom_site_fract_y
	_atom_site_fract_z
	H0	H	0.411201	0.841425	0.711020
	H1	H	0.608559	0.170667	0.712991
	H2	H	0.603451	0.841228	0.284724
	H3	H	0.401598	0.169262	0.280110
	H4	H	0.719474	0.408624	0.835036
	H5	H	0.724003	0.607690	0.161504
	H6	H	0.282229	0.611888	0.837017
	H7	H	0.296523	0.409037	0.162823
	H8	H	0.840774	0.715362	0.399328
	H9	H	0.169618	0.715470	0.602126
	H10	H	0.840191	0.288416	0.594512
	H11	H	0.169134	0.287466	0.404320
	H12	H	0.841510	0.401004	0.713684
	H13	H	0.168857	0.599394	0.716558
	H14	H	0.843097	0.605952	0.279788
	H15	H	0.169802	0.402395	0.288261
	H16	H	0.404820	0.720000	0.833196
	H17	H	0.604239	0.720526	0.161922
	H18	H	0.603308	0.292288	0.834585
	H19	H	0.408580	0.290216	0.159833
	H20	H	0.717280	0.839411	0.401769
	H21	H	0.723032	0.169076	0.598951
	H22	H	0.296699	0.839069	0.594922
	H23	H	0.284199	0.166868	0.392686
	H24	H	0.908593	0.340173	0.212375
	H25	H	0.107244	0.669907	0.217727
	H26	H	0.103553	0.339207	0.790620
	H27	H	0.903057	0.667692	0.778986
	H28	H	0.218263	0.901897	0.334580
	H29	H	0.225716	0.101248	0.660270
	H30	H	0.787335	0.103771	0.336120
	H31	H	0.792557	0.903153	0.663074
	H32	H	0.341831	0.223576	0.893687
	H33	H	0.669762	0.219937	0.097487
	H34	H	0.341031	0.794692	0.089173
	H35	H	0.668550	0.793689	0.900869
	H36	H	0.343004	0.904022	0.210657
	H37	H	0.667789	0.108369	0.217575
	H38	H	0.343677	0.111299	0.774497
	H39	H	0.670868	0.910043	0.789265
	H40	H	0.901632	0.218670	0.336503
	H41	H	0.107843	0.215951	0.662998
	H42	H	0.098818	0.788474	0.335024
	H43	H	0.912078	0.790017	0.664244
	H44	H	0.221236	0.342180	0.903274
	H45	H	0.221649	0.672261	0.100898
	H46	H	0.791813	0.342091	0.097898
	H47	H	0.792617	0.671812	0.897907
	H48	H	0.408939	0.125755	0.590284
	H49	H	0.600468	0.888025	0.591409
	H50	H	0.593838	0.124343	0.400121
	H51	H	0.413857	0.887267	0.403453
	H52	H	0.595414	0.415188	0.112559
	H53	H	0.598158	0.602091	0.880768
	H54	H	0.408303	0.601415	0.116951
	H55	H	0.413078	0.424647	0.884389
	H56	H	0.123206	0.598716	0.410399
	H57	H	0.887477	0.605007	0.582069
	H58	H	0.120302	0.414024	0.594974
	H59	H	0.888496	0.414955	0.397507
	H60	H	0.122864	0.407778	0.601144
	H61	H	0.891975	0.585392	0.586968
	H62	H	0.120858	0.593906	0.411403
	H63	H	0.887151	0.405096	0.404087
	H64	H	0.417785	0.595919	0.112537
	H65	H	0.600448	0.602508	0.880225
	H66	H	0.601738	0.410958	0.115537
	H67	H	0.417009	0.412514	0.881375
	H68	H	0.591099	0.119400	0.412936
	H69	H	0.601516	0.886168	0.596187
	H70	H	0.422524	0.122121	0.589373
	H71	H	0.411939	0.886557	0.403675
	H72	H	0.917984	0.621428	0.086461
	H73	H	0.099427	0.389871	0.092922
	H74	H	0.090076	0.619918	0.913225
	H75	H	0.914193	0.390174	0.913895
	H76	H	0.092435	0.907863	0.613195
	H77	H	0.080994	0.084311	0.390281
	H78	H	0.912068	0.087791	0.615371
	H79	H	0.908135	0.908293	0.382266
	H80	H	0.620290	0.098252	0.908975
	H81	H	0.386347	0.101525	0.093424
	H82	H	0.622180	0.920328	0.097941
	H83	H	0.388817	0.919453	0.899875
	H84	H	0.624665	0.908228	0.094021
	H85	H	0.389664	0.103944	0.080825
	H86	H	0.623110	0.098133	0.902619
	H87	H	0.386461	0.913463	0.896905
	H88	H	0.920836	0.095356	0.614406
	H89	H	0.089898	0.111184	0.378801
	H90	H	0.109531	0.901223	0.619818
	H91	H	0.907696	0.912529	0.383084
	H92	H	0.101467	0.624590	0.908513
	H93	H	0.104280	0.388852	0.093104
	H94	H	0.911344	0.624959	0.091275
	H95	H	0.904887	0.385320	0.907022
	H96	H	0.413323	0.120985	0.577658
	H97	H	0.597018	0.888243	0.594763
	H98	H	0.603640	0.124391	0.409890
	H99	H	0.411775	0.886788	0.401477
	H100	H	0.603641	0.418669	0.113959
	H101	H	0.599834	0.600737	0.881249
	H102	H	0.419110	0.607216	0.115047
	H103	H	0.403295	0.415540	0.879569
	H104	H	0.122972	0.593882	0.406187
	H105	H	0.884030	0.598560	0.600786
	H106	H	0.121550	0.405092	0.593356
	H107	H	0.891422	0.415574	0.409166
	H108	H	0.918642	0.622928	0.095109
	H109	H	0.101992	0.388475	0.096457
	H110	H	0.091379	0.623772	0.900930
	H111	H	0.915961	0.387375	0.902523
	H112	H	0.108147	0.920076	0.612740
	H113	H	0.109007	0.087159	0.379428
	H114	H	0.910620	0.099355	0.618136
	H115	H	0.911406	0.910527	0.383647
	H116	H	0.623054	0.103085	0.906606
	H117	H	0.390932	0.091278	0.086281
	H118	H	0.619764	0.917498	0.085423
	H119	H	0.389112	0.914109	0.903363
	C120	C	0.387298	0.014205	0.615938
	C121	C	0.629299	0.996370	0.621935
	C122	C	0.625109	0.014039	0.378775
	C123	C	0.381823	0.995178	0.373205
	C124	C	0.627822	0.386072	0.006455
	C125	C	0.628720	0.630400	0.989159
	C126	C	0.383705	0.630179	0.006760
	C127	C	0.384096	0.386822	0.989289
	C128	C	0.014235	0.625307	0.378087
	C129	C	0.996784	0.624093	0.620955
	C130	C	0.013380	0.379856	0.622591
	C131	C	0.997326	0.382069	0.377613
	C132	C	0.886191	0.514443	0.119954
	C133	C	0.129856	0.498009	0.123114
	C134	C	0.124926	0.514041	0.880105
	C135	C	0.882617	0.496251	0.876522
	C136	C	0.129111	0.879982	0.507373
	C137	C	0.126093	0.123659	0.490274
	C138	C	0.883311	0.124349	0.507981
	C139	C	0.883003	0.881441	0.491251
	C140	C	0.514230	0.130151	0.874303
	C141	C	0.496946	0.128283	0.118569
	C142	C	0.514244	0.885586	0.118616
	C143	C	0.496628	0.886822	0.874925
	C144	C	0.390843	0.890188	0.672466
	C145	C	0.628266	0.121010	0.676042
	C146	C	0.623461	0.890042	0.323114
	C147	C	0.381894	0.119594	0.317620
	C148	C	0.681981	0.388055	0.883623
	C149	C	0.685563	0.628080	0.112602
	C150	C	0.323479	0.629805	0.884805
	C151	C	0.332688	0.388571	0.113347
	C152	C	0.890439	0.679245	0.379274
	C153	C	0.120273	0.678490	0.621088
	C154	C	0.889643	0.325067	0.617117
	C155	C	0.120138	0.325354	0.382574
	C156	C	0.890350	0.381038	0.676377
	C157	C	0.119918	0.620559	0.678146
	C158	C	0.891834	0.624824	0.319530
	C159	C	0.120485	0.382822	0.324964
	C160	C	0.384283	0.683909	0.882775
	C161	C	0.626001	0.684290	0.112680
	C162	C	0.623999	0.330352	0.883469
	C163	C	0.388336	0.329506	0.111838
	C164	C	0.679985	0.889254	0.381427
	C165	C	0.685230	0.120203	0.619287
	C166	C	0.333839	0.889134	0.614768
	C167	C	0.323698	0.118424	0.373786
	C168	C	0.888112	0.389856	0.175054
	C169	C	0.127547	0.621106	0.179515
	C170	C	0.123837	0.389360	0.827031
	C171	C	0.883909	0.619270	0.818623
	C172	C	0.181318	0.881566	0.383648
	C173	C	0.186449	0.122038	0.612002
	C174	C	0.825343	0.123632	0.385286
	C175	C	0.830107	0.883105	0.614292
	C176	C	0.391055	0.185829	0.874259
	C177	C	0.620436	0.182933	0.117847
	C178	C	0.390530	0.831050	0.112247
	C179	C	0.619841	0.831361	0.879944
	C180	C	0.391372	0.885845	0.172219
	C181	C	0.619378	0.127262	0.177475
	C182	C	0.392021	0.130166	0.814780
	C183	C	0.621023	0.889829	0.824594
	C184	C	0.882677	0.180385	0.385295
	C185	C	0.127458	0.178638	0.613547
	C186	C	0.121779	0.825545	0.383971
	C187	C	0.889681	0.826989	0.614917
	C188	C	0.182436	0.390887	0.883198
	C189	C	0.184269	0.622382	0.121310
	C190	C	0.829838	0.391021	0.118453
	C191	C	0.828838	0.621233	0.877509
	C192	C	0.408684	0.100614	0.592541
	C193	C	0.606452	0.909698	0.600598
	C194	C	0.602794	0.100338	0.400999
	C195	C	0.405623	0.909068	0.395821
	C196	C	0.606647	0.408365	0.091720
	C197	C	0.606273	0.608234	0.903022
	C198	C	0.407935	0.607936	0.092638
	C199	C	0.404779	0.410414	0.903907
	C200	C	0.100260	0.602344	0.402253
	C201	C	0.910451	0.602549	0.596921
	C202	C	0.099264	0.402292	0.602430
	C203	C	0.911404	0.405046	0.397827
	C204	C	0.909169	0.600674	0.097598
	C205	C	0.108282	0.411394	0.100775
	C206	C	0.101165	0.600523	0.901424
	C207	C	0.905078	0.409832	0.900845
	C208	C	0.109327	0.902843	0.593069
	C209	C	0.100811	0.100858	0.404971
	C210	C	0.907631	0.101035	0.593739
	C211	C	0.903213	0.903930	0.405163
	C212	C	0.600061	0.106660	0.898946
	C213	C	0.411180	0.105490	0.094184
	C214	C	0.600020	0.908762	0.098467
	C215	C	0.410297	0.909135	0.894265
	Zn216	Zn	0.506554	0.007302	0.746775
	Zn217	Zn	0.505619	0.006512	0.247920
	Zn218	Zn	0.757011	0.507667	-0.001458
	Zn219	Zn	0.255961	0.508277	-0.000175
	Zn220	Zn	0.005295	0.752696	0.499654
	Zn221	Zn	0.004410	0.252635	0.499674
	Zn222	Zn	0.004387	0.502761	0.750045
	Zn223	Zn	0.007114	0.504603	0.249506
	Zn224	Zn	0.505353	0.758454	-0.003822
	Zn225	Zn	0.505412	0.257558	-0.002782
	Zn226	Zn	0.754462	0.004017	0.499908
	Zn227	Zn	0.256810	0.003234	0.496322
	N228	N	0.423409	0.968883	0.673319
	N229	N	0.594213	0.043065	0.677737
	N230	N	0.589974	0.968433	0.321402
	N231	N	0.417439	0.042044	0.317140
	N232	N	0.684597	0.421938	0.960867
	N233	N	0.687498	0.595518	0.034717
	N234	N	0.322842	0.597293	0.963058
	N235	N	0.329696	0.423523	0.036254
	N236	N	0.967832	0.679928	0.414965
	N237	N	0.042608	0.680775	0.586134
	N238	N	0.967089	0.324098	0.584488
	N239	N	0.042409	0.324600	0.414457
	N240	N	0.968272	0.414296	0.680017
	N241	N	0.042017	0.587466	0.678025
	N242	N	0.969918	0.591904	0.318811
	N243	N	0.043015	0.417260	0.321570
	N244	N	0.420990	0.684223	0.959436
	N245	N	0.591536	0.685956	0.034898
	N246	N	0.591120	0.328710	0.960789
	N247	N	0.419249	0.327944	0.033755
	N248	N	0.681159	0.967238	0.415284
	N249	N	0.685908	0.041800	0.586219
	N250	N	0.331825	0.966941	0.579984
	N251	N	0.323461	0.040227	0.407632
	N252	N	0.922752	0.467627	0.176175
	N253	N	0.094431	0.542767	0.180790
	N254	N	0.088610	0.466979	0.824997
	N255	N	0.916499	0.540586	0.817783
	N256	N	0.186125	0.914874	0.461256
	N257	N	0.185508	0.088537	0.534474
	N258	N	0.825616	0.089517	0.462916
	N259	N	0.825952	0.916376	0.536470
	N260	N	0.468193	0.185867	0.910634
	N261	N	0.543269	0.183673	0.081823
	N262	N	0.467981	0.830772	0.079618
	N263	N	0.541584	0.829389	0.910662
	N264	N	0.469287	0.918945	0.176506
	N265	N	0.541493	0.094206	0.178140
	N266	N	0.469844	0.096438	0.814611
	N267	N	0.543257	0.923574	0.821341
	N268	N	0.917764	0.181330	0.462706
	N269	N	0.090853	0.180069	0.536643
	N270	N	0.090157	0.824615	0.461780
	N271	N	0.921728	0.825810	0.537334
	N272	N	0.183267	0.469599	0.915481
	N273	N	0.185754	0.544793	0.086843
	N274	N	0.828705	0.469329	0.084863
	N275	N	0.827970	0.543534	0.913200
	O276	O	0.392884	0.511651	0.395560
	H277	H	0.393230	0.518658	0.388328
	H278	H	0.393629	0.520001	0.397131
	O279	O	0.456802	0.402705	0.411507
	H280	H	0.458966	0.407098	0.414383
	H281	H	0.453749	0.394892	0.404379
	O282	O	0.976899	0.976612	0.050336
	H283	H	0.967450	0.964244	0.048151
	H284	H	0.984080	0.991340	0.066049
	O285	O	1.097953	0.048902	1.100038
	H286	H	1.109298	0.056617	1.116160
	H287	H	1.100099	0.047870	1.086591
	O288	O	0.484667	0.496009	0.420281
	H289	H	0.485858	0.497656	0.416325
	H290	H	0.480915	0.498128	0.410404
	O291	O	0.436267	0.446959	0.521749
	H292	H	0.426575	0.458068	0.504278
	H293	H	0.439861	0.454897	0.529611
	O294	O	0.481219	0.482792	0.521529
	H295	H	0.469678	0.474024	0.533090
	H296	H	0.478715	0.495765	0.518298
	O297	O	-0.462082	-0.534182	1.533566
	H298	H	-0.468406	-0.532284	1.538778
	H299	H	-0.465589	-0.534483	1.536904
	O300	O	0.003757	0.098541	0.060948
	H301	H	0.012863	0.099137	0.054856
	H302	H	0.001523	0.111090	0.057877
	O303	O	1.022170	0.887836	0.054147
	H304	H	1.027387	0.892440	0.052708
	H305	H	1.020511	0.884585	0.057818
	O306	O	-0.025519	0.998970	1.040532
	H307	H	-0.032614	0.980920	1.032499
	H308	H	-0.017628	1.006209	1.044076
	O309	O	0.664719	0.494680	0.488100
	H310	H	0.656666	0.491984	0.503647
	H311	H	0.673260	0.500913	0.489598
	O312	O	0.038054	0.056522	0.020615
	H313	H	0.033411	0.065147	0.019109
	H314	H	0.037184	0.059358	0.022012
	O315	O	0.955291	-0.062111	-0.059737
	H316	H	0.952739	-0.074165	-0.056233
	H317	H	0.969508	-0.069937	-0.057857
	O318	O	0.962763	1.124746	0.901446
	H319	H	0.956620	1.130657	0.903601
	H320	H	0.962416	1.136730	0.904547
	O321	O	0.013219	-0.071751	1.098953
	H322	H	0.016890	-0.067147	1.107030
	H323	H	0.012848	-0.060354	1.100545
	O324	O	0.595530	0.583831	0.650865
	H325	H	0.584705	0.582039	0.657741
	H326	H	0.593101	0.588671	0.660126
	O327	O	0.038648	0.151500	0.078058
	H328	H	0.049148	0.148120	0.074967
	H329	H	0.030782	0.150201	0.083140
	O330	O	0.443603	0.504307	0.500933
	H331	H	0.424386	0.507298	0.503726
	H332	H	0.455377	0.502980	0.487136
	O333	O	0.168188	1.011147	0.964795
	H334	H	0.156825	1.021453	0.960155
	H335	H	0.170253	1.006724	0.960466
	O336	O	0.025101	-0.081148	-0.024032
	H337	H	0.028546	-0.080332	-0.023495
	H338	H	0.033105	-0.075861	-0.034837
	O339	O	0.498973	0.520047	0.528149
	H340	H	0.499296	0.525256	0.534371
	H341	H	0.500682	0.518258	0.522147
	O342	O	1.058878	1.050534	0.849239
	H343	H	1.034752	1.051290	0.841826
	H344	H	1.058011	1.050158	0.841102
	O345	O	0.981054	1.145610	-0.115052
	H346	H	0.977568	1.140833	-0.107135
	H347	H	0.978356	1.142245	-0.120885
	O348	O	0.563883	0.494936	0.568610
	H349	H	0.564841	0.486115	0.580141
	H350	H	0.549045	0.508695	0.567729
	O351	O	0.460001	0.554951	0.458907
	H352	H	0.478126	0.547390	0.448108
	H353	H	0.460658	0.559326	0.450420
	O354	O	1.016992	-0.113195	0.922728
	H355	H	1.018335	-0.118393	0.927559
	H356	H	1.019141	-0.110569	0.923482
	O357	O	1.045333	0.021789	1.126866
	H358	H	1.050949	0.019408	1.127819
	H359	H	1.048224	0.017387	1.138187
	O360	O	0.491164	0.545992	0.408872
	H361	H	0.488319	0.544175	0.412737
	H362	H	0.496577	0.533698	0.403142
	O363	O	0.482338	0.571055	0.451102
	H364	H	0.495733	0.572709	0.443744
	H365	H	0.495083	0.559749	0.450588
	O366	O	0.600135	1.562673	0.499287
	H367	H	0.597303	1.545096	0.493649
	H368	H	0.603325	1.579567	0.507775
	O369	O	0.887462	0.001029	1.040815
	H370	H	0.885702	-0.003958	1.044339
	H371	H	0.885427	0.005585	1.038012
	O372	O	0.020017	-0.063567	0.021478
	H373	H	0.011860	-0.062280	0.008735
	H374	H	0.029298	-0.049306	0.032525
	O375	O	0.908785	0.044251	0.051425
	H376	H	0.914536	0.045360	0.046010
	H377	H	0.905378	0.046837	0.060670
	O378	O	0.490631	0.436693	0.586778
	H379	H	0.500224	0.440127	0.586669
	H380	H	0.488415	0.436587	0.599788
	O381	O	0.461840	0.510239	0.514898
	H382	H	0.450795	0.512912	0.509165
	H383	H	0.459733	0.511536	0.506234
