data_Molecule from HDF5

_cell_length_a		16.265174
_cell_length_b		16.249944
_cell_length_c		16.215232
_cell_angle_alpha	89.947976
_cell_angle_beta	90.147593
_cell_angle_gamma	90.044735
_symmetry_space_group_name_H-M	'P 1'
_symmetry_Int_Tables_number		1

loop_
	_symmetry_equiv_pos_as_xyz
	x,y,z

loop_
	_atom_site_label
	_atom_site_type_symbol
	_atom_site_fract_x
	_atom_site_fract_y
	_atom_site_fract_z
	H0	H	0.409815	0.845298	0.699069
	H1	H	0.606670	0.173889	0.700405
	H2	H	0.604875	0.845940	0.272635
	H3	H	0.408739	0.174164	0.270093
	H4	H	0.722286	0.411609	0.821841
	H5	H	0.722563	0.607787	0.150958
	H6	H	0.291688	0.609599	0.822298
	H7	H	0.293643	0.410166	0.150834
	H8	H	0.843777	0.725851	0.387266
	H9	H	0.171138	0.723997	0.586000
	H10	H	0.844082	0.296263	0.585814
	H11	H	0.171159	0.295899	0.389021
	H12	H	0.842792	0.411951	0.699347
	H13	H	0.171088	0.609180	0.701457
	H14	H	0.843765	0.609253	0.271289
	H15	H	0.172287	0.412632	0.273799
	H16	H	0.408505	0.723888	0.821549
	H17	H	0.607365	0.723894	0.150789
	H18	H	0.606531	0.296528	0.821319
	H19	H	0.408992	0.294260	0.150125
	H20	H	0.723440	0.847269	0.386000
	H21	H	0.722149	0.174099	0.584978
	H22	H	0.292544	0.846202	0.583634
	H23	H	0.291951	0.174737	0.385847
	H24	H	0.909848	0.345864	0.199581
	H25	H	0.106914	0.674483	0.200014
	H26	H	0.104935	0.345826	0.773023
	H27	H	0.909288	0.674766	0.772421
	H28	H	0.219166	0.912752	0.322492
	H29	H	0.222737	0.109690	0.650432
	H30	H	0.792448	0.110338	0.322283
	H31	H	0.792505	0.911904	0.650884
	H32	H	0.344000	0.225334	0.885426
	H33	H	0.671860	0.223481	0.084393
	H34	H	0.344743	0.793910	0.085980
	H35	H	0.671876	0.795348	0.887706
	H36	H	0.343965	0.910332	0.199653
	H37	H	0.671108	0.109172	0.201344
	H38	H	0.343527	0.107387	0.771791
	H39	H	0.671436	0.911186	0.771720
	H40	H	0.906112	0.228778	0.323698
	H41	H	0.105446	0.224305	0.652099
	H42	H	0.106221	0.796178	0.323472
	H43	H	0.908695	0.796410	0.651318
	H44	H	0.222012	0.345844	0.887643
	H45	H	0.223984	0.673079	0.086851
	H46	H	0.794556	0.345923	0.084609
	H47	H	0.792126	0.673484	0.887120
	H48	H	0.405740	0.129179	0.579887
	H49	H	0.597664	0.894747	0.576465
	H50	H	0.597953	0.127415	0.391064
	H51	H	0.411228	0.893215	0.392153
	H52	H	0.603943	0.411721	0.105292
	H53	H	0.597524	0.605401	0.869112
	H54	H	0.419046	0.603736	0.101794
	H55	H	0.415683	0.416093	0.869237
	H56	H	0.127788	0.607305	0.387890
	H57	H	0.892340	0.592931	0.582196
	H58	H	0.123215	0.415641	0.570971
	H59	H	0.893863	0.428895	0.392573
	H60	H	0.122886	0.426476	0.583877
	H61	H	0.885845	0.610467	0.588319
	H62	H	0.123499	0.608576	0.401162
	H63	H	0.888083	0.414397	0.386515
	H64	H	0.413092	0.603117	0.103985
	H65	H	0.604239	0.604068	0.867251
	H66	H	0.604710	0.419514	0.103011
	H67	H	0.412309	0.416701	0.868760
	H68	H	0.598352	0.126095	0.395031
	H69	H	0.603279	0.892907	0.576924
	H70	H	0.419858	0.127556	0.584794
	H71	H	0.413712	0.893864	0.391316
	H72	H	0.918081	0.624845	0.074072
	H73	H	0.112589	0.388591	0.083651
	H74	H	0.104745	0.626167	0.899311
	H75	H	0.914646	0.393890	0.898142
	H76	H	0.099195	0.919012	0.604091
	H77	H	0.085765	0.097121	0.375584
	H78	H	0.913023	0.096406	0.601343
	H79	H	0.919667	0.923635	0.372815
	H80	H	0.621069	0.091068	0.892536
	H81	H	0.392876	0.098642	0.073914
	H82	H	0.622211	0.921896	0.077026
	H83	H	0.389449	0.916126	0.888098
	H84	H	0.626232	0.916089	0.084590
	H85	H	0.390318	0.100920	0.081946
	H86	H	0.629815	0.109436	0.881746
	H87	H	0.390001	0.911174	0.893761
	H88	H	0.921249	0.106079	0.602470
	H89	H	0.098653	0.120515	0.365570
	H90	H	0.100704	0.914852	0.606126
	H91	H	0.917482	0.910905	0.368627
	H92	H	0.102554	0.629523	0.888238
	H93	H	0.090900	0.393055	0.089168
	H94	H	0.908253	0.629004	0.078448
	H95	H	0.909802	0.391988	0.891630
	H96	H	0.416440	0.124395	0.570716
	H97	H	0.599479	0.892765	0.581355
	H98	H	0.601549	0.127795	0.392732
	H99	H	0.413016	0.894812	0.393585
	H100	H	0.597880	0.416345	0.102468
	H101	H	0.600050	0.599013	0.871037
	H102	H	0.415911	0.598225	0.101878
	H103	H	0.414389	0.419612	0.869882
	H104	H	0.121432	0.597027	0.394495
	H105	H	0.891344	0.608715	0.570120
	H106	H	0.128676	0.410500	0.587296
	H107	H	0.892315	0.415470	0.402767
	H108	H	0.917589	0.627449	0.084673
	H109	H	0.097819	0.397126	0.067788
	H110	H	0.094133	0.624687	0.894086
	H111	H	0.918139	0.393484	0.890618
	H112	H	0.103329	0.918819	0.605801
	H113	H	0.113394	0.095622	0.368065
	H114	H	0.908931	0.107806	0.606689
	H115	H	0.907150	0.919350	0.367968
	H116	H	0.623297	0.110988	0.903954
	H117	H	0.390659	0.107191	0.075476
	H118	H	0.624966	0.911687	0.075229
	H119	H	0.392899	0.919130	0.894750
	C120	C	0.385777	0.018563	0.607062
	C121	C	0.628751	1.001612	0.607128
	C122	C	0.628588	0.018750	0.364239
	C123	C	0.384164	1.002191	0.363248
	C124	C	0.629846	0.388108	-0.005305
	C125	C	0.629420	0.631359	0.977956
	C126	C	0.386445	0.631080	-0.005537
	C127	C	0.386180	0.388534	0.977896
	C128	C	0.015905	0.632702	0.365154
	C129	C	0.998469	0.632621	0.609113
	C130	C	0.016271	0.389221	0.608671
	C131	C	0.999375	0.389812	0.365532
	C132	C	0.886213	0.518610	0.107820
	C133	C	0.129381	0.501384	0.108525
	C134	C	0.128983	0.518319	0.865261
	C135	C	0.885738	0.501700	0.864733
	C136	C	0.128481	0.889417	0.496067
	C137	C	0.128233	0.132452	0.478461
	C138	C	0.885157	0.133011	0.495257
	C139	C	0.885636	0.889041	0.478291
	C140	C	0.516103	0.131953	0.864047
	C141	C	0.499500	0.130910	0.106637
	C142	C	0.516410	0.887713	0.107448
	C143	C	0.499045	0.887487	0.863936
	C144	C	0.389042	0.894517	0.661406
	C145	C	0.626639	0.125006	0.662485
	C146	C	0.625858	0.895091	0.310021
	C147	C	0.387642	0.125226	0.307904
	C148	C	0.684394	0.391050	0.870835
	C149	C	0.684783	0.628465	0.101721
	C150	C	0.330014	0.629389	0.871141
	C151	C	0.330955	0.389864	0.101583
	C152	C	0.892796	0.687793	0.367231
	C153	C	0.121837	0.687069	0.606632
	C154	C	0.892596	0.334313	0.605801
	C155	C	0.122483	0.333901	0.368193
	C156	C	0.892406	0.391480	0.662806
	C157	C	0.121950	0.629695	0.664122
	C158	C	0.892562	0.630115	0.309458
	C159	C	0.123080	0.392066	0.311137
	C160	C	0.388126	0.686390	0.870950
	C161	C	0.627241	0.686185	0.101644
	C162	C	0.626766	0.333884	0.870700
	C163	C	0.389062	0.332770	0.101361
	C164	C	0.685023	0.896022	0.365941
	C165	C	0.684067	0.125121	0.605194
	C166	C	0.331021	0.894880	0.604022
	C167	C	0.329918	0.125666	0.365843
	C168	C	0.889148	0.395097	0.162566
	C169	C	0.127492	0.625070	0.163200
	C170	C	0.125846	0.394724	0.810397
	C171	C	0.888451	0.625336	0.809813
	C172	C	0.182091	0.892355	0.371850
	C173	C	0.184208	0.130287	0.601911
	C174	C	0.829931	0.131060	0.371575
	C175	C	0.830063	0.891372	0.601765
	C176	C	0.393000	0.187223	0.865793
	C177	C	0.622935	0.185798	0.104722
	C178	C	0.393497	0.831887	0.105677
	C179	C	0.622791	0.833183	0.867160
	C180	C	0.392939	0.889781	0.162324
	C181	C	0.622462	0.128972	0.162933
	C182	C	0.392702	0.128707	0.808954
	C183	C	0.622547	0.890482	0.809323
	C184	C	0.887115	0.189421	0.372098
	C185	C	0.126068	0.187178	0.602556
	C186	C	0.125850	0.834294	0.372468
	C187	C	0.887579	0.833834	0.602024
	C188	C	0.183824	0.394693	0.867679
	C189	C	0.185534	0.624451	0.106426
	C190	C	0.831743	0.395069	0.105341
	C191	C	0.830410	0.625005	0.866736
	C192	C	0.407497	0.104586	0.584945
	C193	C	0.606591	0.915633	0.584801
	C194	C	0.605947	0.104918	0.386520
	C195	C	0.405937	0.916071	0.385690
	C196	C	0.608575	0.409699	0.081160
	C197	C	0.607035	0.609300	0.891372
	C198	C	0.409245	0.608368	0.080361
	C199	C	0.407722	0.410955	0.891696
	C200	C	0.101983	0.610546	0.387675
	C201	C	0.912146	0.610506	0.587000
	C202	C	0.102412	0.411022	0.587102
	C203	C	0.913746	0.412724	0.387381
	C204	C	0.908109	0.604886	0.085616
	C205	C	0.107039	0.415136	0.086549
	C206	C	0.106968	0.604388	0.887288
	C207	C	0.907757	0.415373	0.887066
	C208	C	0.107352	0.911185	0.582898
	C209	C	0.105852	0.110857	0.391995
	C210	C	0.907704	0.110089	0.581285
	C211	C	0.907970	0.911394	0.392236
	C212	C	0.602504	0.110258	0.886112
	C213	C	0.413581	0.108647	0.083985
	C214	C	0.602254	0.910127	0.085510
	C215	C	0.413163	0.909051	0.885690
	Zn216	Zn	0.507852	0.009851	0.735634
	Zn217	Zn	0.507081	0.009657	0.235236
	Zn218	Zn	0.757826	0.509706	-0.013732
	Zn219	Zn	0.257140	0.509722	-0.013048
	Zn220	Zn	0.007520	0.761105	0.487441
	Zn221	Zn	0.007495	0.261521	0.487587
	Zn222	Zn	0.007389	0.510095	0.736759
	Zn223	Zn	0.007728	0.510643	0.236064
	Zn224	Zn	0.507927	0.759486	-0.013960
	Zn225	Zn	0.508460	0.260266	-0.014125
	Zn226	Zn	0.756704	0.010714	0.486236
	Zn227	Zn	0.255682	0.011095	0.486420
	N228	N	0.422347	0.972350	0.663428
	N229	N	0.593039	0.047329	0.663773
	N230	N	0.591711	0.972656	0.308577
	N231	N	0.420660	0.047413	0.306249
	N232	N	0.686397	0.424207	0.948770
	N233	N	0.686156	0.595073	0.023759
	N234	N	0.328929	0.595509	0.948905
	N235	N	0.329203	0.424000	0.024013
	N236	N	0.970430	0.689583	0.400965
	N237	N	0.043916	0.688733	0.573053
	N238	N	0.970514	0.332589	0.572896
	N239	N	0.044737	0.332617	0.401477
	N240	N	0.970074	0.425170	0.664481
	N241	N	0.044180	0.596491	0.665741
	N242	N	0.970187	0.596508	0.308014
	N243	N	0.045460	0.425734	0.309014
	N244	N	0.422642	0.687322	0.948516
	N245	N	0.593646	0.687960	0.023572
	N246	N	0.593623	0.332050	0.948755
	N247	N	0.422400	0.331651	0.023474
	N248	N	0.686447	0.973990	0.399116
	N249	N	0.685368	0.047427	0.571365
	N250	N	0.328777	0.972912	0.571008
	N251	N	0.327441	0.047960	0.399462
	N252	N	0.922369	0.473041	0.164285
	N253	N	0.093214	0.547602	0.164529
	N254	N	0.092683	0.472521	0.808714
	N255	N	0.922133	0.547594	0.808529
	N256	N	0.183798	0.925917	0.449693
	N257	N	0.185677	0.097278	0.523806
	N258	N	0.829044	0.096334	0.448921
	N259	N	0.828758	0.925226	0.523856
	N260	N	0.470764	0.189113	0.899411
	N261	N	0.545577	0.187086	0.070480
	N262	N	0.471161	0.830460	0.072325
	N263	N	0.545048	0.830857	0.900196
	N264	N	0.470343	0.923817	0.163690
	N265	N	0.544695	0.095579	0.164176
	N266	N	0.470334	0.095047	0.807767
	N267	N	0.544711	0.923791	0.807461
	N268	N	0.920644	0.190785	0.450106
	N269	N	0.091906	0.188631	0.524765
	N270	N	0.093171	0.832500	0.450789
	N271	N	0.921123	0.832091	0.524300
	N272	N	0.185925	0.472578	0.901062
	N273	N	0.186952	0.546436	0.073497
	N274	N	0.829705	0.472921	0.072167
	N275	N	0.828609	0.547175	0.900073
	O276	O	0.947254	0.971961	0.032057
	H277	H	0.948185	0.978200	0.033486
	H278	H	0.948801	0.963072	0.033980
	O279	O	0.039423	-0.008062	0.980241
	H280	H	0.042956	-0.001007	0.987641
	H281	H	0.033342	-0.015953	0.983544
	O282	O	0.501241	-0.552113	0.442933
	H283	H	0.510958	-0.559161	0.434864
	H284	H	0.500622	-0.557328	0.450219
	O285	O	0.629953	0.541059	0.501762
	H286	H	0.630261	0.539337	0.499717
	H287	H	0.639633	0.537348	0.495860
	O288	O	0.103510	0.025738	0.042257
	H289	H	0.101426	0.015956	0.030830
	H290	H	0.107529	0.027765	0.037054
	O291	O	0.019819	1.054068	0.112722
	H292	H	0.027169	1.044082	0.101519
	H293	H	0.019579	1.051011	0.119402
	O294	O	-0.513912	0.481090	-0.544347
	H295	H	-0.512162	0.481607	-0.546984
	H296	H	-0.516129	0.483423	-0.542564
	O297	O	0.495398	0.451935	0.528869
	H298	H	0.501216	0.439761	0.537064
	H299	H	0.499185	0.456104	0.529330
	O300	O	0.490938	0.503623	0.509963
	H301	H	0.490161	0.496488	0.520456
	H302	H	0.498788	0.506458	0.514041
	O303	O	1.046850	0.084571	1.072292
	H304	H	1.044180	0.080364	1.072543
	H305	H	1.050405	0.088491	1.077222
	O306	O	-0.030572	1.015412	1.006607
	H307	H	-0.033518	1.017472	1.010438
	H308	H	-0.030229	1.016864	1.009668
	O309	O	-0.550696	0.613418	1.524579
	H310	H	-0.548983	0.616801	1.526084
	H311	H	-0.551850	0.621258	1.530833
	O312	O	0.057140	0.018217	1.001982
	H313	H	0.050696	0.025399	1.001171
	H314	H	0.056044	0.017202	1.005020
	O315	O	0.526921	0.490362	0.530532
	H316	H	0.527298	0.489180	0.526722
	H317	H	0.527301	0.489038	0.537157
	O318	O	0.028909	-0.054714	0.993226
	H319	H	0.030872	-0.050355	0.998217
	H320	H	0.038150	-0.051696	0.980342
	O321	O	1.075184	1.021286	0.990318
	H322	H	1.076238	1.015961	0.998846
	H323	H	1.066568	1.022000	0.986186
	O324	O	0.011070	-1.022555	0.979878
	H325	H	0.008756	-1.015827	0.980135
	H326	H	0.013708	-1.020779	0.982537
	O327	O	1.026278	0.996776	1.098080
	H328	H	1.028475	0.997455	1.111008
	H329	H	1.031641	0.989944	1.090962
	O330	O	0.429688	0.499388	0.430450
	H331	H	0.431193	0.507230	0.427934
	H332	H	0.430175	0.508667	0.419781
	O333	O	0.486940	0.419030	0.523705
	H334	H	0.480997	0.425852	0.517672
	H335	H	0.483986	0.409296	0.516549
	O336	O	0.519690	0.449555	0.481205
	H337	H	0.522516	0.450185	0.484640
	H338	H	0.521718	0.454782	0.476279
	O339	O	0.557167	0.543190	0.492897
	H340	H	0.548743	0.536552	0.499841
	H341	H	0.546511	0.541211	0.483876
	O342	O	0.456670	0.576461	0.417607
	H343	H	0.453825	0.584038	0.421795
	H344	H	0.460550	0.578394	0.415843
	O345	O	0.542302	0.487322	0.516270
	H346	H	0.542862	0.483833	0.510561
	H347	H	0.537838	0.491862	0.522387
