data_Molecule from HDF5

_cell_length_a		16.556397
_cell_length_b		16.506537
_cell_length_c		16.702449
_cell_angle_alpha	89.779888
_cell_angle_beta	89.973733
_cell_angle_gamma	90.007985
_symmetry_space_group_name_H-M	'P 1'
_symmetry_Int_Tables_number		1

loop_
	_symmetry_equiv_pos_as_xyz
	x,y,z

loop_
	_atom_site_label
	_atom_site_type_symbol
	_atom_site_fract_x
	_atom_site_fract_y
	_atom_site_fract_z
	H0	H	0.398093	0.840887	0.712828
	H1	H	0.606884	0.155207	0.709607
	H2	H	0.607396	0.839285	0.272028
	H3	H	0.397189	0.152408	0.268810
	H4	H	0.721342	0.395625	0.834394
	H5	H	0.723541	0.601014	0.147247
	H6	H	0.282944	0.600442	0.835077
	H7	H	0.283719	0.394996	0.147962
	H8	H	0.845578	0.717249	0.388598
	H9	H	0.160230	0.715669	0.594485
	H10	H	0.846543	0.275644	0.595240
	H11	H	0.161111	0.278382	0.389336
	H12	H	0.847274	0.389235	0.714402
	H13	H	0.158161	0.603134	0.714220
	H14	H	0.846227	0.603333	0.269737
	H15	H	0.160075	0.393686	0.271282
	H16	H	0.400411	0.716529	0.834319
	H17	H	0.606911	0.717803	0.147071
	H18	H	0.603535	0.279857	0.833995
	H19	H	0.400317	0.277271	0.147583
	H20	H	0.721392	0.838288	0.389535
	H21	H	0.722156	0.155112	0.592340
	H22	H	0.283072	0.840150	0.595954
	H23	H	0.283040	0.152649	0.386880
	H24	H	0.897228	0.339947	0.214124
	H25	H	0.106199	0.655196	0.209882
	H26	H	0.110260	0.341115	0.770012
	H27	H	0.897923	0.651986	0.769825
	H28	H	0.226151	0.890524	0.336989
	H29	H	0.225760	0.102854	0.645674
	H30	H	0.780950	0.103899	0.336241
	H31	H	0.783603	0.893096	0.647773
	H32	H	0.343839	0.215319	0.889192
	H33	H	0.659771	0.218991	0.095678
	H34	H	0.345966	0.778371	0.093837
	H35	H	0.659661	0.777358	0.887286
	H36	H	0.347379	0.890974	0.212727
	H37	H	0.658634	0.105573	0.214949
	H38	H	0.346892	0.104496	0.768131
	H39	H	0.659575	0.893708	0.769810
	H40	H	0.897823	0.220427	0.336182
	H41	H	0.111208	0.220292	0.644841
	H42	H	0.109485	0.774446	0.336874
	H43	H	0.901989	0.777240	0.647753
	H44	H	0.224744	0.340913	0.887151
	H45	H	0.221630	0.655425	0.093438
	H46	H	0.784210	0.338266	0.095520
	H47	H	0.784423	0.653561	0.889019
	H48	H	0.418470	0.108953	0.580407
	H49	H	0.587666	0.885004	0.582529
	H50	H	0.591188	0.108761	0.400850
	H51	H	0.416819	0.881728	0.395267
	H52	H	0.590519	0.406559	0.101944
	H53	H	0.594248	0.579145	0.882969
	H54	H	0.411679	0.580397	0.100776
	H55	H	0.414721	0.404058	0.879693
	H56	H	0.115889	0.587307	0.398424
	H57	H	0.891347	0.582183	0.582452
	H58	H	0.112829	0.411682	0.577096
	H59	H	0.891584	0.407856	0.403674
	H60	H	0.115031	0.411659	0.585764
	H61	H	0.889533	0.587347	0.582113
	H62	H	0.115206	0.587443	0.401607
	H63	H	0.892375	0.410617	0.403181
	H64	H	0.418189	0.592372	0.102401
	H65	H	0.585504	0.590461	0.881999
	H66	H	0.594014	0.405140	0.103275
	H67	H	0.407961	0.408185	0.878248
	H68	H	0.591157	0.108834	0.401914
	H69	H	0.596102	0.884549	0.578021
	H70	H	0.412955	0.109443	0.575887
	H71	H	0.420369	0.886711	0.406252
	H72	H	0.913984	0.610694	0.085197
	H73	H	0.090532	0.384756	0.084729
	H74	H	0.088297	0.608308	0.902856
	H75	H	0.914472	0.383714	0.901650
	H76	H	0.089768	0.903203	0.602897
	H77	H	0.090792	0.081413	0.382436
	H78	H	0.917583	0.087473	0.601248
	H79	H	0.914205	0.907792	0.380036
	H80	H	0.617443	0.088378	0.893545
	H81	H	0.392092	0.082211	0.081521
	H82	H	0.613181	0.909729	0.077025
	H83	H	0.390292	0.901308	0.907104
	H84	H	0.615045	0.912513	0.082676
	H85	H	0.390536	0.086855	0.083225
	H86	H	0.615009	0.093263	0.904379
	H87	H	0.394009	0.917184	0.903775
	H88	H	0.910411	0.088733	0.604803
	H89	H	0.090072	0.089287	0.380491
	H90	H	0.097226	0.908678	0.603284
	H91	H	0.912606	0.903031	0.378276
	H92	H	0.092729	0.609733	0.903929
	H93	H	0.088880	0.386579	0.079790
	H94	H	0.916240	0.607090	0.079008
	H95	H	0.912183	0.383662	0.902793
	H96	H	0.412558	0.111332	0.582299
	H97	H	0.595721	0.881602	0.587690
	H98	H	0.591762	0.108764	0.401844
	H99	H	0.408196	0.882367	0.404501
	H100	H	0.594300	0.409217	0.101939
	H101	H	0.599059	0.591432	0.877059
	H102	H	0.405518	0.591372	0.106177
	H103	H	0.414719	0.411708	0.881282
	H104	H	0.115209	0.584239	0.400241
	H105	H	0.891867	0.584853	0.578287
	H106	H	0.116235	0.404049	0.580868
	H107	H	0.890472	0.409464	0.400483
	H108	H	0.908821	0.609131	0.079525
	H109	H	0.093995	0.384310	0.080201
	H110	H	0.090995	0.609649	0.899485
	H111	H	0.912684	0.382232	0.900836
	H112	H	0.089643	0.911548	0.599571
	H113	H	0.096447	0.085302	0.378681
	H114	H	0.911767	0.081597	0.600688
	H115	H	0.908572	0.906916	0.378609
	H116	H	0.612626	0.081771	0.902164
	H117	H	0.392646	0.086575	0.078384
	H118	H	0.616416	0.906040	0.081403
	H119	H	0.387726	0.907532	0.891417
	C120	C	0.382551	0.006054	0.611871
	C121	C	0.623771	0.988768	0.612155
	C122	C	0.623589	0.004839	0.370308
	C123	C	0.383078	0.987719	0.370254
	C124	C	0.624010	0.375541	-0.000780
	C125	C	0.624892	0.618732	0.983285
	C126	C	0.381461	0.618940	-0.000717
	C127	C	0.380791	0.376062	0.982959
	C128	C	0.011530	0.618571	0.369344
	C129	C	0.994676	0.616519	0.612355
	C130	C	0.011597	0.375431	0.613270
	C131	C	0.995206	0.377231	0.370821
	C132	C	0.880956	0.505265	0.113799
	C133	C	0.123100	0.489205	0.112227
	C134	C	0.123830	0.505626	0.870308
	C135	C	0.881536	0.487067	0.870073
	C136	C	0.125155	0.874938	0.500106
	C137	C	0.125008	0.117929	0.482651
	C138	C	0.881363	0.118443	0.499424
	C139	C	0.881387	0.874918	0.482826
	C140	C	0.510926	0.119033	0.869344
	C141	C	0.495076	0.118108	0.113205
	C142	C	0.511707	0.876512	0.112228
	C143	C	0.494545	0.876491	0.869030
	C144	C	0.380295	0.887673	0.672191
	C145	C	0.625111	0.108087	0.669602
	C146	C	0.625548	0.886328	0.311881
	C147	C	0.379566	0.105431	0.309272
	C148	C	0.682128	0.375819	0.881464
	C149	C	0.683626	0.619752	0.100581
	C150	C	0.322755	0.619670	0.881752
	C151	C	0.323219	0.375493	0.101179
	C152	C	0.892778	0.677718	0.368943
	C153	C	0.112796	0.676176	0.613498
	C154	C	0.893572	0.315307	0.614585
	C155	C	0.113779	0.317870	0.369941
	C156	C	0.893987	0.371604	0.673647
	C157	C	0.111892	0.620162	0.673058
	C158	C	0.893057	0.621001	0.310182
	C159	C	0.113230	0.375061	0.311212
	C160	C	0.381371	0.677063	0.881417
	C161	C	0.626026	0.678170	0.100367
	C162	C	0.623444	0.318508	0.881106
	C163	C	0.381066	0.317305	0.100985
	C164	C	0.682520	0.886003	0.369991
	C165	C	0.682368	0.107997	0.611413
	C166	C	0.323075	0.887342	0.614228
	C167	C	0.322929	0.105787	0.367870
	C168	C	0.878910	0.387035	0.173970
	C169	C	0.124645	0.607850	0.170384
	C170	C	0.127603	0.388001	0.810292
	C171	C	0.879698	0.605448	0.810371
	C172	C	0.185775	0.872247	0.383517
	C173	C	0.185921	0.120929	0.598942
	C174	C	0.821108	0.121781	0.382828
	C175	C	0.823299	0.874169	0.600739
	C176	C	0.392002	0.177099	0.869232
	C177	C	0.612644	0.178981	0.114776
	C178	C	0.393517	0.817263	0.113265
	C179	C	0.612826	0.817372	0.868405
	C180	C	0.394054	0.873289	0.172218
	C181	C	0.612080	0.122452	0.174047
	C182	C	0.393204	0.121820	0.809307
	C183	C	0.612461	0.874663	0.809681
	C184	C	0.878992	0.179969	0.382919
	C185	C	0.128544	0.179088	0.598750
	C186	C	0.127894	0.814522	0.383499
	C187	C	0.881813	0.816597	0.600912
	C188	C	0.184370	0.387757	0.868661
	C189	C	0.182055	0.608006	0.112611
	C190	C	0.822753	0.386112	0.114994
	C191	C	0.823366	0.606129	0.869375
	C192	C	0.407569	0.088382	0.586810
	C193	C	0.599780	0.905464	0.589353
	C194	C	0.598660	0.087368	0.394491
	C195	C	0.408017	0.905121	0.395195
	C196	C	0.599728	0.400019	0.081216
	C197	C	0.600024	0.594173	0.901814
	C198	C	0.405212	0.595029	0.081604
	C199	C	0.405090	0.401006	0.901179
	C200	C	0.093730	0.593736	0.393118
	C201	C	0.912329	0.591765	0.587962
	C202	C	0.093445	0.401473	0.588352
	C203	C	0.913060	0.402186	0.395304
	C204	C	0.905711	0.587518	0.088440
	C205	C	0.098370	0.406625	0.088346
	C206	C	0.098011	0.588092	0.894886
	C207	C	0.906053	0.404662	0.894760
	C208	C	0.099473	0.900554	0.580960
	C209	C	0.099672	0.092496	0.401613
	C210	C	0.906202	0.093338	0.580976
	C211	C	0.904944	0.898915	0.400492
	C212	C	0.593555	0.094506	0.893187
	C213	C	0.413130	0.092488	0.088289
	C214	C	0.593605	0.902155	0.087445
	C215	C	0.412129	0.901597	0.893539
	Zn216	Zn	0.502709	-0.001295	0.740840
	Zn217	Zn	0.503509	-0.003675	0.241559
	Zn218	Zn	0.753748	0.496217	-0.008204
	Zn219	Zn	0.251475	0.497483	-0.008437
	Zn220	Zn	0.003407	0.746158	0.491678
	Zn221	Zn	0.003610	0.247150	0.491158
	Zn222	Zn	0.002782	0.496066	0.741962
	Zn223	Zn	0.002503	0.497213	0.240753
	Zn224	Zn	0.503329	0.748141	-0.008625
	Zn225	Zn	0.502242	0.246595	-0.009002
	Zn226	Zn	0.752268	-0.003631	0.490977
	Zn227	Zn	0.254112	-0.003633	0.490841
	N228	N	0.416401	0.962502	0.671056
	N229	N	0.589627	0.032808	0.670395
	N230	N	0.590036	0.961417	0.311672
	N231	N	0.416311	0.031044	0.310886
	N232	N	0.682679	0.410390	0.956015
	N233	N	0.683254	0.583575	0.026689
	N234	N	0.322433	0.584338	0.956226
	N235	N	0.322586	0.410935	0.026666
	N236	N	0.967337	0.676741	0.404725
	N237	N	0.038902	0.673969	0.576170
	N238	N	0.967707	0.317359	0.577754
	N239	N	0.039335	0.318925	0.406165
	N240	N	0.968551	0.407996	0.673133
	N241	N	0.037417	0.583714	0.672425
	N242	N	0.967918	0.584950	0.310091
	N243	N	0.038521	0.410965	0.311495
	N244	N	0.416950	0.676897	0.955595
	N245	N	0.590257	0.677734	0.026268
	N246	N	0.588489	0.317711	0.955646
	N247	N	0.415862	0.317239	0.026431
	N248	N	0.681840	0.960976	0.405357
	N249	N	0.682003	0.032565	0.576787
	N250	N	0.324243	0.961811	0.577493
	N251	N	0.324803	0.031517	0.405100
	N252	N	0.914362	0.462224	0.173322
	N253	N	0.088634	0.532995	0.170432
	N254	N	0.090769	0.462583	0.810880
	N255	N	0.915038	0.530377	0.810554
	N256	N	0.184617	0.908834	0.457153
	N257	N	0.183880	0.083511	0.525628
	N258	N	0.822339	0.084289	0.456327
	N259	N	0.822832	0.909649	0.526155
	N260	N	0.466212	0.175480	0.905862
	N261	N	0.538774	0.176517	0.077582
	N262	N	0.467667	0.819102	0.076442
	N263	N	0.538337	0.818426	0.904507
	N264	N	0.468615	0.909489	0.171772
	N265	N	0.537913	0.085373	0.173219
	N266	N	0.468317	0.086454	0.808960
	N267	N	0.537407	0.910201	0.809489
	N268	N	0.915754	0.178088	0.456512
	N269	N	0.091359	0.177528	0.525429
	N270	N	0.090639	0.816208	0.456944
	N271	N	0.916809	0.816769	0.526381
	N272	N	0.182095	0.462075	0.905194
	N273	N	0.181405	0.533047	0.077355
	N274	N	0.823864	0.460707	0.078189
	N275	N	0.824371	0.531608	0.905797
	O276	O	0.228042	0.773749	0.217651
	H277	H	0.230697	0.795819	0.214423
	H278	H	0.217479	0.786186	0.204747
	O279	O	0.320547	0.435519	0.415197
	H280	H	0.336001	0.449128	0.413402
	H281	H	0.323147	0.444707	0.418387
	O282	O	0.856056	-0.057976	0.844567
	H283	H	0.845869	-0.042040	0.840782
	H284	H	0.872337	-0.044528	0.846083
	O285	O	0.540420	0.709935	0.710714
	H286	H	0.534864	0.720415	0.714849
	H287	H	0.534169	0.724111	0.709824
	O288	O	0.380801	0.471596	0.268170
	H289	H	0.373578	0.499870	0.268387
	H290	H	0.377046	0.464055	0.256076
	O291	O	0.352873	0.489854	0.680079
	H292	H	0.348024	0.498048	0.666295
	H293	H	0.340067	0.510512	0.686849
	O294	O	1.139995	0.192522	0.832989
	H295	H	1.151581	0.196299	0.825630
	H296	H	1.132213	0.195487	0.821107
	O297	O	0.400554	0.495062	0.500394
	H298	H	0.393274	0.512351	0.496275
	H299	H	0.407449	0.512212	0.511406
	O300	O	-0.181833	-0.195769	0.807219
	H301	H	-0.172354	-0.177763	0.816556
	H302	H	-0.161966	-0.192282	0.832668
	O303	O	0.725788	0.717441	0.533076
	H304	H	0.732485	0.726750	0.557471
	H305	H	0.744263	0.730604	0.545322
	O306	O	0.700584	0.292954	0.488777
	H307	H	0.714458	0.282975	0.492768
	H308	H	0.708141	0.286707	0.453932
	O309	O	0.248676	0.739168	0.736199
	H310	H	0.223868	0.743993	0.742469
	H311	H	0.247555	0.771921	0.729219
	O312	O	0.456135	0.431633	0.671266
	H313	H	0.467337	0.446783	0.648452
	H314	H	0.436918	0.442210	0.686378
	O315	O	1.029801	1.213191	1.215655
	H316	H	1.058548	1.218066	1.204725
	H317	H	1.037893	1.237553	1.231029
	O318	O	0.711848	0.698688	0.695438
	H319	H	0.738295	0.726046	0.717585
	H320	H	0.677866	0.685124	0.703775
	O321	O	0.113201	0.939093	1.177327
	H322	H	0.101986	0.954982	1.167422
	H323	H	0.113820	0.956384	1.177859
	O324	O	0.793550	0.781409	0.033728
	H325	H	0.792943	0.799797	0.025416
	H326	H	0.771953	0.769241	0.035803
	O327	O	-0.202660	0.203098	0.783967
	H328	H	-0.195921	0.199166	0.808936
	H329	H	-0.233245	0.226105	0.755481
	O330	O	0.291158	0.283535	0.528431
	H331	H	0.275515	0.257723	0.517236
	H332	H	0.293834	0.300422	0.520236
	O333	O	0.322023	0.377321	0.326113
	H334	H	0.337613	0.396999	0.331702
	H335	H	0.328938	0.384210	0.342417
	O336	O	0.695796	0.305554	0.301676
	H337	H	0.718453	0.313057	0.275836
	H338	H	0.664236	0.310372	0.312530
	O339	O	1.133792	-0.117794	0.921581
	H340	H	1.146825	-0.112529	0.922437
	H341	H	1.113227	-0.115862	0.905480
	O342	O	-0.039578	-0.056890	-0.082579
	H343	H	-0.036780	-0.048067	-0.085310
	H344	H	-0.034246	-0.042039	-0.086092
	O345	O	-0.177445	1.004711	1.040403
	H346	H	-0.186361	0.993320	1.052407
	H347	H	-0.175800	1.000632	1.043802
	O348	O	0.625782	0.452448	0.439443
	H349	H	0.633199	0.430967	0.428802
	H350	H	0.641274	0.459539	0.462668
	O351	O	0.612606	0.625602	0.452109
	H352	H	0.610722	0.632367	0.444745
	H353	H	0.618251	0.627790	0.456799
	O354	O	-0.383874	0.410387	0.635490
	H355	H	-0.370560	0.428650	0.644927
	H356	H	-0.417122	0.409076	0.633769
	O357	O	0.213525	0.211450	0.205897
	H358	H	0.243058	0.241100	0.234742
	H359	H	0.214477	0.184085	0.196694
	O360	O	-0.041269	0.128522	0.959520
	H361	H	-0.043873	0.136574	0.952720
	H362	H	-0.048917	0.125468	0.969530
	O363	O	0.029759	-0.038111	0.222255
	H364	H	0.030935	-0.023078	0.221972
	H365	H	0.018652	-0.034179	0.224451
	O366	O	0.791567	0.788402	0.201424
	H367	H	0.785316	0.768943	0.218817
	H368	H	0.806205	0.787649	0.174326
	O369	O	0.978247	0.211568	-0.232531
	H370	H	0.963696	0.231832	-0.234411
	H371	H	0.963987	0.224102	-0.229948
	O372	O	1.203855	1.090559	-0.103962
	H373	H	1.204189	1.082133	-0.098368
	H374	H	1.213340	1.109909	-0.135374
	O375	O	0.806066	0.133354	0.138025
	H376	H	0.800323	0.108536	0.143415
	H377	H	0.830821	0.142038	0.125852
	O378	O	0.713572	0.527863	0.693015
	H379	H	0.714438	0.556833	0.694787
	H380	H	0.724363	0.529583	0.712856
	O381	O	-0.051395	1.153870	1.083998
	H382	H	-0.039397	1.159627	1.090761
	H383	H	-0.041263	1.155779	1.085751
	O384	O	0.876944	-0.069203	0.942414
	H385	H	0.878358	-0.078497	0.952456
	H386	H	0.885695	-0.063360	0.936316
	O387	O	1.005578	0.811851	-0.126746
	H388	H	1.004623	0.824607	-0.104893
	H389	H	0.994969	0.806750	-0.107041
	O390	O	0.707578	0.419558	0.518094
	H391	H	0.707449	0.405679	0.520082
	H392	H	0.712155	0.426185	0.534985
	O393	O	0.343304	0.508421	0.472380
	H394	H	0.344082	0.514603	0.456046
	H395	H	0.346667	0.507567	0.462003
	O396	O	-0.218062	1.025990	0.769574
	H397	H	-0.243360	1.039589	0.748267
	H398	H	-0.214752	1.036602	0.770917
	O399	O	0.222318	0.221699	1.035493
	H400	H	0.252309	0.250102	1.031209
	H401	H	0.214636	0.210433	1.060297
	O402	O	0.315031	0.691064	0.448868
	H403	H	0.313251	0.697312	0.448387
	H404	H	0.308356	0.701421	0.447940
	O405	O	1.041280	-0.218965	1.035360
	H406	H	1.047317	-0.212783	1.038460
	H407	H	1.048874	-0.217906	1.062327
	O408	O	0.216309	-0.032451	-0.223011
	H409	H	0.208064	-0.020660	-0.221097
	H410	H	0.223241	-0.031082	-0.238251
	O411	O	0.571649	0.551358	0.304326
	H412	H	0.566270	0.530274	0.292313
	H413	H	0.582630	0.542346	0.308445
	O414	O	0.299397	0.296862	0.694473
	H415	H	0.306639	0.312575	0.674109
	H416	H	0.295938	0.327149	0.678463
	O417	O	0.619850	0.683644	0.302672
	H418	H	0.602048	0.670175	0.307178
	H419	H	0.628706	0.677295	0.326330
	O420	O	0.292052	0.599603	0.277328
	H421	H	0.291326	0.614786	0.289826
	H422	H	0.269613	0.613883	0.262587
	O423	O	0.098659	-0.207332	0.780613
	H424	H	0.078293	-0.185528	0.791073
	H425	H	0.076750	-0.221207	0.785290
	O426	O	0.399340	0.700681	0.596185
	H427	H	0.400058	0.708007	0.588565
	H428	H	0.410189	0.694423	0.586010
	O429	O	0.778868	0.970034	1.213269
	H430	H	0.777560	0.958366	1.226690
	H431	H	0.768043	0.945819	1.226223
	O432	O	0.718689	0.465995	0.271790
	H433	H	0.733498	0.465807	0.262017
	H434	H	0.737600	0.467761	0.275849
	O435	O	0.214202	0.881286	-0.045640
	H436	H	0.232098	0.862071	-0.054150
	H437	H	0.208929	0.881017	-0.057808
	O438	O	0.425683	0.323085	0.459796
	H439	H	0.449788	0.319706	0.471431
	H440	H	0.418848	0.318873	0.467422
	O441	O	-0.209271	0.205627	-0.048942
	H442	H	-0.230580	0.217704	-0.041823
	H443	H	-0.209063	0.198094	-0.056188
	O444	O	0.621464	0.307527	0.686723
	H445	H	0.595416	0.320708	0.673577
	H446	H	0.609736	0.321860	0.684297
	O447	O	-0.029878	0.778956	1.212524
	H448	H	-0.029214	0.770141	1.235504
	H449	H	-0.033898	0.780572	1.213888
	O450	O	-0.110280	0.973414	1.148153
	H451	H	-0.119620	0.978408	1.146948
	H452	H	-0.105244	0.983001	1.141288
	O453	O	0.031232	0.213076	0.974314
	H454	H	0.042859	0.213317	0.975870
	H455	H	0.050229	0.212132	0.979168
	O456	O	0.138297	0.013934	1.028702
	H457	H	0.131168	0.025368	1.022802
	H458	H	0.143336	0.005213	1.022225
	O459	O	1.018745	0.961884	-0.035790
	H460	H	1.014800	0.969527	-0.043651
	H461	H	1.025755	0.965769	-0.041451
	O462	O	0.432996	0.697780	0.283424
	H463	H	0.428747	0.676980	0.278794
	H464	H	0.439153	0.714954	0.280767
	O465	O	1.128813	-0.049587	0.058254
	H466	H	1.116045	-0.040230	0.043045
	H467	H	1.145260	-0.059309	0.048732
	O468	O	0.499595	0.516019	0.702746
	H469	H	0.485222	0.526658	0.712476
	H470	H	0.484889	0.515417	0.703470
	O471	O	0.530153	0.299155	0.590082
	H472	H	0.530881	0.287635	0.613531
	H473	H	0.527371	0.307354	0.582823
	O474	O	0.491594	0.586783	0.516483
	H475	H	0.486469	0.585824	0.512001
	H476	H	0.498199	0.568488	0.521949
	O477	O	0.448509	0.660320	1.532323
	H478	H	0.464769	0.680592	1.528463
	H479	H	0.453565	0.651778	1.541982
	O480	O	0.530213	0.348529	0.265255
	H481	H	0.528723	0.333041	0.253151
	H482	H	0.552801	0.353159	0.265387
	O483	O	0.545022	0.324597	0.432663
	H484	H	0.546747	0.324884	0.441552
	H485	H	0.551342	0.318983	0.438356
	O486	O	1.060391	0.043574	0.755060
	H487	H	1.062081	0.061773	0.763822
	H488	H	1.048899	0.056653	0.749508
	O489	O	1.214292	1.026117	0.204704
	H490	H	1.218445	1.016180	0.189483
	H491	H	1.229323	1.035095	0.210328
