data_Molecule from HDF5

_cell_length_a		16.455096
_cell_length_b		16.450484
_cell_length_c		16.187063
_cell_angle_alpha	89.847428
_cell_angle_beta	90.113311
_cell_angle_gamma	89.968026
_symmetry_space_group_name_H-M	'P 1'
_symmetry_Int_Tables_number		1

loop_
	_symmetry_equiv_pos_as_xyz
	x,y,z

loop_
	_atom_site_label
	_atom_site_type_symbol
	_atom_site_fract_x
	_atom_site_fract_y
	_atom_site_fract_z
	H0	H	0.392419	0.843961	0.719145
	H1	H	0.597848	0.163767	0.716913
	H2	H	0.594380	0.843128	0.282991
	H3	H	0.394669	0.164075	0.281505
	H4	H	0.717365	0.398457	0.840377
	H5	H	0.714778	0.606831	0.162331
	H6	H	0.274161	0.610128	0.839651
	H7	H	0.278444	0.399880	0.161449
	H8	H	0.837916	0.726418	0.389979
	H9	H	0.154016	0.723956	0.606016
	H10	H	0.836569	0.280450	0.605768
	H11	H	0.155192	0.282216	0.397217
	H12	H	0.834999	0.400162	0.719453
	H13	H	0.156334	0.602958	0.718524
	H14	H	0.835398	0.604312	0.280888
	H15	H	0.156838	0.402481	0.284385
	H16	H	0.392089	0.723082	0.838269
	H17	H	0.599939	0.722409	0.161754
	H18	H	0.602404	0.282781	0.839759
	H19	H	0.392965	0.284980	0.161689
	H20	H	0.719024	0.846513	0.388476
	H21	H	0.718141	0.161718	0.605397
	H22	H	0.275271	0.845133	0.603555
	H23	H	0.273747	0.162111	0.392097
	H24	H	0.895853	0.342995	0.217532
	H25	H	0.096768	0.664176	0.218729
	H26	H	0.097841	0.342092	0.783830
	H27	H	0.895812	0.663035	0.781727
	H28	H	0.211927	0.902078	0.336633
	H29	H	0.214909	0.105261	0.661131
	H30	H	0.777044	0.106809	0.336916
	H31	H	0.773344	0.897287	0.659830
	H32	H	0.337161	0.226527	0.893094
	H33	H	0.654772	0.223447	0.104524
	H34	H	0.336368	0.783911	0.103844
	H35	H	0.654912	0.782458	0.893876
	H36	H	0.333604	0.905094	0.214790
	H37	H	0.655734	0.104629	0.218241
	H38	H	0.335365	0.106544	0.779903
	H39	H	0.656129	0.903001	0.781191
	H40	H	0.892851	0.221693	0.337609
	H41	H	0.099652	0.219599	0.662290
	H42	H	0.097758	0.785168	0.337351
	H43	H	0.890899	0.782332	0.660618
	H44	H	0.217158	0.343966	0.896901
	H45	H	0.217192	0.662328	0.106697
	H46	H	0.773757	0.345486	0.108158
	H47	H	0.774947	0.662441	0.893821
	H48	H	0.408427	0.113366	0.579532
	H49	H	0.582062	0.889726	0.594733
	H50	H	0.579221	0.115804	0.408592
	H51	H	0.403690	0.889010	0.407845
	H52	H	0.584105	0.411391	0.116612
	H53	H	0.577578	0.593197	0.887783
	H54	H	0.411008	0.597092	0.115384
	H55	H	0.417263	0.404674	0.884673
	H56	H	0.111665	0.602878	0.414098
	H57	H	0.883605	0.587374	0.589589
	H58	H	0.112933	0.407231	0.601749
	H59	H	0.881700	0.407272	0.411082
	H60	H	0.109180	0.401703	0.582863
	H61	H	0.881163	0.595566	0.591382
	H62	H	0.104488	0.588652	0.416970
	H63	H	0.884111	0.413009	0.413297
	H64	H	0.402119	0.595997	0.117974
	H65	H	0.588771	0.599884	0.882081
	H66	H	0.586445	0.414595	0.115893
	H67	H	0.393729	0.414145	0.879402
	H68	H	0.591183	0.116723	0.416314
	H69	H	0.579765	0.894879	0.582030
	H70	H	0.394633	0.120285	0.587808
	H71	H	0.402385	0.889380	0.409502
	H72	H	0.901931	0.617533	0.088225
	H73	H	0.091442	0.388661	0.092560
	H74	H	0.092629	0.618907	0.910535
	H75	H	0.899099	0.387121	0.912451
	H76	H	0.085057	0.910000	0.614761
	H77	H	0.085124	0.095921	0.383607
	H78	H	0.903197	0.091625	0.614868
	H79	H	0.908896	0.918056	0.387000
	H80	H	0.607348	0.096473	0.917286
	H81	H	0.380384	0.093955	0.095215
	H82	H	0.610014	0.913209	0.093384
	H83	H	0.382201	0.912723	0.910518
	H84	H	0.609703	0.909586	0.089352
	H85	H	0.380806	0.100689	0.087854
	H86	H	0.606697	0.087921	0.908317
	H87	H	0.382906	0.913967	0.910258
	H88	H	0.906884	0.087516	0.613152
	H89	H	0.087186	0.093180	0.383493
	H90	H	0.088308	0.914526	0.616069
	H91	H	0.909343	0.911973	0.384854
	H92	H	0.081650	0.615876	0.905438
	H93	H	0.086024	0.390039	0.092981
	H94	H	0.903514	0.619255	0.092820
	H95	H	0.909810	0.390148	0.907991
	H96	H	0.409913	0.118101	0.596239
	H97	H	0.592005	0.889143	0.584983
	H98	H	0.590193	0.120713	0.403071
	H99	H	0.401141	0.888658	0.408074
	H100	H	0.583030	0.415068	0.113897
	H101	H	0.589286	0.586352	0.885480
	H102	H	0.406534	0.588917	0.114040
	H103	H	0.411058	0.429066	0.891105
	H104	H	0.110500	0.591900	0.402620
	H105	H	0.884252	0.593877	0.583291
	H106	H	0.104629	0.420274	0.588481
	H107	H	0.881348	0.412537	0.407092
	H108	H	0.906675	0.616651	0.089539
	H109	H	0.088640	0.390640	0.087883
	H110	H	0.083858	0.612937	0.917681
	H111	H	0.906792	0.393314	0.919363
	H112	H	0.082702	0.915146	0.613213
	H113	H	0.083941	0.093039	0.384124
	H114	H	0.909314	0.092754	0.614706
	H115	H	0.903592	0.915383	0.383998
	H116	H	0.611694	0.099136	0.905682
	H117	H	0.383811	0.091763	0.085857
	H118	H	0.607771	0.914281	0.088278
	H119	H	0.382862	0.913119	0.910139
	C120	C	0.373803	0.012118	0.620135
	C121	C	0.617180	0.995810	0.619844
	C122	C	0.616815	0.012174	0.377712
	C123	C	0.372357	0.994793	0.377208
	C124	C	0.616892	0.382081	0.009115
	C125	C	0.616916	0.624569	0.991744
	C126	C	0.374608	0.625457	0.008635
	C127	C	0.376018	0.383743	0.991575
	C128	C	0.003848	0.625045	0.378266
	C129	C	0.987755	0.623340	0.620524
	C130	C	0.003711	0.379090	0.622936
	C131	C	0.987779	0.380437	0.379382
	C132	C	0.873860	0.512385	0.122350
	C133	C	0.118879	0.495270	0.122697
	C134	C	0.117713	0.510853	0.879600
	C135	C	0.873906	0.495036	0.879836
	C136	C	0.116398	0.882343	0.507716
	C137	C	0.116933	0.124372	0.490887
	C138	C	0.874926	0.122823	0.507555
	C139	C	0.874325	0.882148	0.491144
	C140	C	0.503784	0.126447	0.877703
	C141	C	0.487066	0.125793	0.121294
	C142	C	0.503644	0.882172	0.121430
	C143	C	0.487699	0.881952	0.877879
	C144	C	0.373173	0.892004	0.679814
	C145	C	0.617828	0.115444	0.678591
	C146	C	0.615388	0.891559	0.320179
	C147	C	0.374031	0.115798	0.319490
	C148	C	0.677268	0.380289	0.888450
	C149	C	0.675665	0.625701	0.113480
	C150	C	0.314688	0.627522	0.887460
	C151	C	0.317363	0.381401	0.113035
	C152	C	0.884892	0.685289	0.374132
	C153	C	0.107137	0.683184	0.623836
	C154	C	0.883903	0.320519	0.624176
	C155	C	0.107770	0.322241	0.378498
	C156	C	0.883307	0.379877	0.681041
	C157	C	0.108008	0.622962	0.679724
	C158	C	0.883673	0.624452	0.319543
	C159	C	0.108503	0.382168	0.322438
	C160	C	0.373031	0.684104	0.886780
	C161	C	0.618623	0.683474	0.113249
	C162	C	0.619986	0.322661	0.888006
	C163	C	0.374675	0.324292	0.113051
	C164	C	0.677158	0.893292	0.373190
	C165	C	0.677446	0.114473	0.622602
	C166	C	0.315000	0.892463	0.622177
	C167	C	0.313752	0.114580	0.374399
	C168	C	0.875500	0.391348	0.179337
	C169	C	0.117423	0.615706	0.180457
	C170	C	0.117468	0.390209	0.822346
	C171	C	0.874891	0.615188	0.820362
	C172	C	0.173644	0.882280	0.385540
	C173	C	0.175566	0.124387	0.612613
	C174	C	0.816427	0.125140	0.385653
	C175	C	0.813246	0.878959	0.611569
	C176	C	0.384448	0.186247	0.875282
	C177	C	0.607133	0.183853	0.122727
	C178	C	0.383861	0.823761	0.122365
	C179	C	0.607274	0.822724	0.875906
	C180	C	0.382570	0.884247	0.177581
	C181	C	0.607511	0.124913	0.179638
	C182	C	0.383504	0.126501	0.818964
	C183	C	0.607866	0.882213	0.819201
	C184	C	0.874003	0.182549	0.386015
	C185	C	0.118068	0.181380	0.613287
	C186	C	0.116993	0.824144	0.385918
	C187	C	0.871712	0.821808	0.612199
	C188	C	0.177113	0.391465	0.878447
	C189	C	0.177407	0.614892	0.124742
	C190	C	0.814533	0.392794	0.124960
	C191	C	0.814936	0.614666	0.876367
	C192	C	0.397548	0.095576	0.595207
	C193	C	0.591906	0.912667	0.594309
	C194	C	0.593473	0.096014	0.402254
	C195	C	0.395499	0.911017	0.401414
	C196	C	0.591793	0.406640	0.093601
	C197	C	0.592234	0.600302	0.907227
	C198	C	0.399455	0.601192	0.093483
	C199	C	0.400315	0.408779	0.907018
	C200	C	0.087224	0.601339	0.403879
	C201	C	0.904733	0.599246	0.595318
	C202	C	0.087285	0.402883	0.598346
	C203	C	0.904052	0.403881	0.403675
	C204	C	0.897390	0.596021	0.097586
	C205	C	0.095501	0.411595	0.098319
	C206	C	0.093157	0.594381	0.903978
	C207	C	0.898036	0.411935	0.905836
	C208	C	0.092429	0.906288	0.592669
	C209	C	0.092425	0.100973	0.405725
	C210	C	0.899475	0.097806	0.592180
	C211	C	0.899856	0.907766	0.407275
	C212	C	0.586902	0.101532	0.902849
	C213	C	0.403415	0.102300	0.096670
	C214	C	0.587507	0.905509	0.097330
	C215	C	0.404504	0.906270	0.902954
	Zn216	Zn	0.495388	0.004063	0.749128
	Zn217	Zn	0.495153	0.004071	0.250195
	Zn218	Zn	0.744571	0.503338	0.001048
	Zn219	Zn	0.247760	0.503870	0.000541
	Zn220	Zn	-0.004162	0.753822	0.499967
	Zn221	Zn	-0.004532	0.250939	0.500456
	Zn222	Zn	-0.004315	0.502189	0.751005
	Zn223	Zn	-0.003899	0.502938	0.250327
	Zn224	Zn	0.496237	0.752917	-0.000020
	Zn225	Zn	0.495663	0.254618	-0.000263
	Zn226	Zn	0.745912	0.003449	0.498114
	Zn227	Zn	0.244327	0.003658	0.498904
	N228	N	0.408872	0.967491	0.678784
	N229	N	0.580907	0.040458	0.677040
	N230	N	0.578631	0.966582	0.322633
	N231	N	0.409555	0.040282	0.320920
	N232	N	0.675590	0.416463	0.964868
	N233	N	0.674573	0.589741	0.037021
	N234	N	0.315524	0.591873	0.964439
	N235	N	0.318150	0.417860	0.036638
	N236	N	0.960806	0.685739	0.410094
	N237	N	0.031471	0.683606	0.587783
	N238	N	0.960031	0.319805	0.589115
	N239	N	0.031775	0.321128	0.413117
	N240	N	0.958751	0.415588	0.680253
	N241	N	0.033055	0.586236	0.677766
	N242	N	0.958473	0.587627	0.322149
	N243	N	0.032728	0.417655	0.322780
	N244	N	0.409575	0.682967	0.963113
	N245	N	0.582694	0.682912	0.036496
	N246	N	0.583083	0.323876	0.964048
	N247	N	0.410490	0.325597	0.036423
	N248	N	0.678036	0.969256	0.408370
	N249	N	0.677137	0.038810	0.586842
	N250	N	0.314918	0.968219	0.586059
	N251	N	0.312445	0.038424	0.409371
	N252	N	0.911603	0.466625	0.177894
	N253	N	0.081928	0.540169	0.179383
	N254	N	0.081329	0.465484	0.822945
	N255	N	0.910714	0.539710	0.822371
	N256	N	0.173532	0.917678	0.462343
	N257	N	0.175051	0.089871	0.535399
	N258	N	0.816997	0.088803	0.462208
	N259	N	0.814854	0.915570	0.535163
	N260	N	0.460312	0.186519	0.910819
	N261	N	0.531138	0.184621	0.087416
	N262	N	0.460230	0.822282	0.088084
	N263	N	0.531516	0.822353	0.911636
	N264	N	0.457978	0.919923	0.176949
	N265	N	0.532053	0.089475	0.178991
	N266	N	0.458708	0.090151	0.820428
	N267	N	0.532587	0.918413	0.820416
	N268	N	0.909699	0.181367	0.462888
	N269	N	0.082310	0.181446	0.536339
	N270	N	0.082080	0.824035	0.463022
	N271	N	0.908887	0.823491	0.536248
	N272	N	0.177353	0.467654	0.913414
	N273	N	0.178483	0.538946	0.089562
	N274	N	0.813136	0.469127	0.090259
	N275	N	0.814049	0.538831	0.912420
	O276	O	0.419304	0.597471	0.468742
	H277	H	0.421143	0.610591	0.448319
	H278	H	0.413440	0.603118	0.480176
	O279	O	0.391139	0.622855	0.312337
	H280	H	0.391788	0.597885	0.306071
	H281	H	0.401801	0.619688	0.305309
	O282	O	0.392834	0.455690	0.411594
	H283	H	0.398038	0.471530	0.410010
	H284	H	0.380564	0.458806	0.417447
	O285	O	1.001657	0.019581	0.012812
	H286	H	0.997622	0.022660	0.027464
	H287	H	1.008152	0.018900	-0.001733
	O288	O	0.058150	0.024477	1.099499
	H289	H	0.058493	0.013317	1.095294
	H290	H	0.055790	0.028712	1.105657
	O291	O	0.492745	0.520058	0.632507
	H292	H	0.479197	0.517932	0.624242
	H293	H	0.493061	0.520143	0.632835
	O294	O	0.368017	0.359366	0.533642
	H295	H	0.368608	0.348632	0.525872
	H296	H	0.376207	0.365929	0.534792
	O297	O	0.997620	0.941999	1.089815
	H298	H	0.986357	0.943811	1.087096
	H299	H	1.000218	0.941436	1.079813
	O300	O	0.055386	-0.075637	-0.058186
	H301	H	0.061525	-0.088497	-0.052681
	H302	H	0.069152	-0.065468	-0.062834
	O303	O	0.554194	0.598426	0.442734
	H304	H	0.557652	0.596695	0.445503
	H305	H	0.546211	0.614625	0.442736
	O306	O	0.858665	0.030655	-0.016771
	H307	H	0.851631	0.023917	-0.000634
	H308	H	0.871965	0.036351	-0.008256
	O309	O	0.433910	0.496909	0.410511
	H310	H	0.444795	0.505745	0.410033
	H311	H	0.437596	0.490630	0.405066
	O312	O	0.984491	1.184470	-0.020960
	H313	H	0.971437	1.181856	-0.014526
	H314	H	0.987630	1.189141	-0.038387
	O315	O	0.423844	0.500323	0.546424
	H316	H	0.425583	0.501817	0.540625
	H317	H	0.416641	0.499615	0.529937
	O318	O	0.704506	0.521139	0.687660
	H319	H	0.705572	0.514669	0.699526
	H320	H	0.707709	0.519599	0.692146
	O321	O	1.130015	0.037868	0.926299
	H322	H	1.144587	0.035285	0.933621
	H323	H	1.118431	0.047977	0.924410
	O324	O	0.053285	0.149650	0.981398
	H325	H	0.070920	0.152069	0.983879
	H326	H	0.051249	0.167702	0.995908
	O327	O	0.412145	0.301904	0.642192
	H328	H	0.414383	0.294707	0.649800
	H329	H	0.399042	0.303595	0.639318
	O330	O	0.616685	0.430773	0.478975
	H331	H	0.613289	0.418248	0.481196
	H332	H	0.617755	0.436670	0.473959
	O333	O	0.846555	1.126671	0.810315
	H334	H	0.848535	1.114319	0.806981
	H335	H	0.818957	1.132500	0.817083
	O336	O	0.315814	0.518079	0.307016
	H337	H	0.312073	0.528299	0.305562
	H338	H	0.317081	0.513621	0.298740
	O339	O	0.880333	-0.094005	1.186883
	H340	H	0.862419	-0.111303	1.172840
	H341	H	0.870721	-0.098639	1.205351
	O342	O	0.075776	1.003197	1.038093
	H343	H	0.066780	0.982933	1.042695
	H344	H	0.085945	1.012987	1.033561
	O345	O	0.043600	1.157962	1.081658
	H346	H	0.053897	1.150437	1.076066
	H347	H	0.054235	1.156968	1.095798
	O348	O	0.562149	0.304857	0.443510
	H349	H	0.560131	0.310737	0.453949
	H350	H	0.568296	0.298740	0.451637
	O351	O	-0.127895	-0.146513	0.072736
	H352	H	-0.127839	-0.148580	0.068750
	H353	H	-0.124765	-0.143914	0.061976
	O354	O	1.163241	1.187833	0.113998
	H355	H	1.171286	1.185961	0.105416
	H356	H	1.168751	1.180058	0.120007
	O357	O	-0.008399	0.886962	0.035406
	H358	H	-0.011184	0.889293	0.044559
	H359	H	-0.020991	0.885053	0.034663
	O360	O	0.429506	0.303942	0.623365
	H361	H	0.441767	0.317898	0.626952
	H362	H	0.420886	0.292368	0.633292
	O363	O	0.674059	0.663364	0.476168
	H364	H	0.683357	0.673438	0.484860
	H365	H	0.668903	0.665709	0.496782
	O366	O	0.595218	0.704473	0.615217
	H367	H	0.590068	0.707374	0.629356
	H368	H	0.595012	0.706631	0.621299
	O369	O	0.622780	0.547590	0.599352
	H370	H	0.604736	0.541471	0.605577
	H371	H	0.622873	0.534296	0.590299
	O372	O	0.640556	0.395614	0.320278
	H373	H	0.642940	0.395103	0.318140
	H374	H	0.649710	0.398278	0.317446
	O375	O	0.417025	0.561204	0.565194
	H376	H	0.413073	0.553477	0.563514
	H377	H	0.433759	0.560498	0.557392
	O378	O	0.314385	0.422904	0.641217
	H379	H	0.314673	0.408774	0.648669
	H380	H	0.299479	0.414602	0.645065
	O381	O	0.390624	0.567542	0.519151
	H382	H	0.381821	0.572562	0.523873
	H383	H	0.388442	0.570405	0.490999
	O384	O	-0.144980	1.037011	0.862981
	H385	H	-0.135344	1.047875	0.857141
	H386	H	-0.141740	1.029868	0.851920
	O387	O	0.917782	0.871310	-0.002051
	H388	H	0.919015	0.887588	0.007145
	H389	H	0.909106	0.882255	-0.020539
	O390	O	0.559755	0.495921	0.463128
	H391	H	0.567517	0.471953	0.456762
	H392	H	0.541714	0.506961	0.462564
	O393	O	1.348275	-0.266166	0.730489
	H394	H	1.342686	-0.257103	0.728027
	H395	H	1.340558	-0.274383	0.711582
	O396	O	-0.136096	1.173219	0.910767
	H397	H	-0.144188	1.182830	0.916825
	H398	H	-0.151536	1.162147	0.913276
	O399	O	0.578926	0.600123	0.340391
	H400	H	0.581107	0.602151	0.335376
	H401	H	0.592118	0.601585	0.344055
	O402	O	0.984985	-0.143626	1.104092
	H403	H	0.989422	-0.141466	1.105205
	H404	H	0.991334	-0.155816	1.080961
	O405	O	0.131688	-0.163188	-0.131607
	H406	H	0.122340	-0.161743	-0.144911
	H407	H	0.136081	-0.155464	-0.137705
	O408	O	1.062975	1.102293	0.918343
	H409	H	1.060952	1.110887	0.920016
	H410	H	1.077840	1.103438	0.935117
	O411	O	1.197571	0.842250	-0.004044
	H412	H	1.212737	0.824853	-0.008740
	H413	H	1.190520	0.850135	-0.038224
	O414	O	0.055362	0.022255	1.011869
	H415	H	0.063062	0.030267	1.009706
	H416	H	0.040078	0.015340	1.010695
	O417	O	0.680136	0.465550	0.379424
	H418	H	0.670376	0.477999	0.381907
	H419	H	0.687010	0.471005	0.389689
	O420	O	-0.116358	0.923832	0.086850
	H421	H	-0.121170	0.930963	0.089645
	H422	H	-0.119291	0.924358	0.091536
	O423	O	1.344607	-0.451994	-0.507301
	H424	H	1.351425	-0.448867	-0.502701
	H425	H	1.346769	-0.454717	-0.512949
	O426	O	-0.138873	0.020576	0.945687
	H427	H	-0.152839	0.027651	0.935475
	H428	H	-0.122004	0.018413	0.957792
	O429	O	0.505178	0.528275	0.632124
	H430	H	0.495090	0.529279	0.626348
	H431	H	0.497853	0.538877	0.632463
