data_Molecule from HDF5

_cell_length_a		16.302580
_cell_length_b		16.141760
_cell_length_c		16.322698
_cell_angle_alpha	90.468323
_cell_angle_beta	90.137192
_cell_angle_gamma	90.258293
_symmetry_space_group_name_H-M	'P 1'
_symmetry_Int_Tables_number		1

loop_
	_symmetry_equiv_pos_as_xyz
	x,y,z

loop_
	_atom_site_label
	_atom_site_type_symbol
	_atom_site_fract_x
	_atom_site_fract_y
	_atom_site_fract_z
	H0	H	0.410058	0.841693	0.701830
	H1	H	0.609794	0.170782	0.704550
	H2	H	0.607360	0.842638	0.273801
	H3	H	0.409440	0.171834	0.275670
	H4	H	0.723204	0.405449	0.827609
	H5	H	0.726417	0.609992	0.153104
	H6	H	0.292390	0.604419	0.827197
	H7	H	0.294025	0.406791	0.153271
	H8	H	0.845781	0.717952	0.392292
	H9	H	0.172364	0.721964	0.588938
	H10	H	0.845391	0.293269	0.585361
	H11	H	0.173298	0.292346	0.391382
	H12	H	0.846618	0.404324	0.705004
	H13	H	0.171166	0.609115	0.708608
	H14	H	0.846747	0.604454	0.274646
	H15	H	0.172789	0.405653	0.274004
	H16	H	0.412758	0.716572	0.824843
	H17	H	0.607353	0.723475	0.152882
	H18	H	0.603944	0.293707	0.826036
	H19	H	0.411215	0.293289	0.153815
	H20	H	0.721557	0.842105	0.389022
	H21	H	0.725091	0.170817	0.590715
	H22	H	0.293801	0.841682	0.587930
	H23	H	0.294730	0.171353	0.390791
	H24	H	0.911326	0.340929	0.201621
	H25	H	0.110101	0.670346	0.207006
	H26	H	0.108367	0.341837	0.773348
	H27	H	0.909037	0.669866	0.776319
	H28	H	0.223473	0.905190	0.325777
	H29	H	0.227781	0.109948	0.651416
	H30	H	0.794409	0.103954	0.326434
	H31	H	0.792328	0.907604	0.651708
	H32	H	0.345112	0.218071	0.892631
	H33	H	0.673326	0.221477	0.088250
	H34	H	0.344838	0.793484	0.084714
	H35	H	0.672788	0.791049	0.890111
	H36	H	0.346005	0.906258	0.204561
	H37	H	0.671650	0.109459	0.207364
	H38	H	0.347354	0.105312	0.772700
	H39	H	0.672690	0.905549	0.773150
	H40	H	0.911765	0.217910	0.325326
	H41	H	0.107897	0.222671	0.652789
	H42	H	0.105948	0.791229	0.325929
	H43	H	0.911147	0.794885	0.654298
	H44	H	0.221337	0.340893	0.890658
	H45	H	0.224892	0.670101	0.092026
	H46	H	0.795092	0.341290	0.087246
	H47	H	0.795498	0.670775	0.892055
	H48	H	0.420615	0.126313	0.593089
	H49	H	0.594026	0.891334	0.579924
	H50	H	0.608238	0.127654	0.394687
	H51	H	0.414954	0.888728	0.393842
	H52	H	0.608713	0.414071	0.109045
	H53	H	0.608467	0.591764	0.873918
	H54	H	0.416263	0.600640	0.105706
	H55	H	0.412626	0.413603	0.873792
	H56	H	0.128663	0.598209	0.389125
	H57	H	0.891583	0.596155	0.589197
	H58	H	0.126158	0.422040	0.590102
	H59	H	0.892149	0.410764	0.394008
	H60	H	0.128528	0.407123	0.584167
	H61	H	0.891639	0.603554	0.582519
	H62	H	0.126362	0.606533	0.402819
	H63	H	0.893236	0.412806	0.395858
	H64	H	0.415622	0.599511	0.105764
	H65	H	0.595479	0.594538	0.877111
	H66	H	0.602332	0.419500	0.105245
	H67	H	0.416043	0.413272	0.875007
	H68	H	0.596504	0.124271	0.394357
	H69	H	0.605797	0.889243	0.574062
	H70	H	0.426804	0.118562	0.574900
	H71	H	0.418762	0.890302	0.394927
	H72	H	0.924141	0.620392	0.079503
	H73	H	0.108018	0.386096	0.083438
	H74	H	0.100084	0.622663	0.901062
	H75	H	0.918444	0.389471	0.898658
	H76	H	0.104191	0.917325	0.604973
	H77	H	0.100510	0.092263	0.376190
	H78	H	0.912790	0.102234	0.607257
	H79	H	0.910763	0.909884	0.370805
	H80	H	0.626717	0.098067	0.894181
	H81	H	0.393293	0.093936	0.086774
	H82	H	0.628332	0.913346	0.088679
	H83	H	0.391837	0.906848	0.894919
	H84	H	0.624579	0.912116	0.075998
	H85	H	0.390602	0.104895	0.085529
	H86	H	0.627096	0.101704	0.896100
	H87	H	0.395509	0.916711	0.898548
	H88	H	0.916821	0.095153	0.604319
	H89	H	0.098809	0.103281	0.372278
	H90	H	0.101506	0.916661	0.605056
	H91	H	0.914264	0.916568	0.374707
	H92	H	0.102341	0.623306	0.900503
	H93	H	0.098362	0.387890	0.086824
	H94	H	0.910045	0.625506	0.080274
	H95	H	0.912167	0.387441	0.897712
	H96	H	0.407841	0.125892	0.577464
	H97	H	0.603895	0.885794	0.586208
	H98	H	0.602981	0.123126	0.404145
	H99	H	0.415585	0.890134	0.398132
	H100	H	0.600220	0.411022	0.107111
	H101	H	0.603462	0.604119	0.871302
	H102	H	0.417288	0.599594	0.106390
	H103	H	0.415044	0.410103	0.872860
	H104	H	0.122738	0.591298	0.402259
	H105	H	0.895869	0.595001	0.579652
	H106	H	0.122272	0.418711	0.575176
	H107	H	0.893054	0.412910	0.393191
	H108	H	0.919404	0.626033	0.092340
	H109	H	0.100143	0.390642	0.076656
	H110	H	0.100573	0.623129	0.898586
	H111	H	0.916475	0.387792	0.893161
	H112	H	0.103181	0.914314	0.606293
	H113	H	0.109083	0.098594	0.371077
	H114	H	0.920457	0.102425	0.605133
	H115	H	0.918431	0.909538	0.373881
	H116	H	0.625556	0.098666	0.897942
	H117	H	0.394401	0.098595	0.077083
	H118	H	0.622999	0.923297	0.082407
	H119	H	0.392030	0.914818	0.887986
	C120	C	0.388519	0.014759	0.610023
	C121	C	0.630927	0.997561	0.610360
	C122	C	0.630255	0.015641	0.368259
	C123	C	0.387883	0.998520	0.367768
	C124	C	0.631052	0.385508	-0.001182
	C125	C	0.631642	0.628252	0.981637
	C126	C	0.387220	0.627775	-0.001840
	C127	C	0.386659	0.384047	0.981835
	C128	C	0.018199	0.626623	0.369079
	C129	C	1.000268	0.629015	0.613264
	C130	C	0.017497	0.385925	0.610770
	C131	C	1.000948	0.383770	0.366599
	C132	C	0.888787	0.514652	0.111386
	C133	C	0.131128	0.497225	0.111893
	C134	C	0.129745	0.514183	0.869720
	C135	C	0.887244	0.497279	0.868471
	C136	C	0.130993	0.885601	0.497543
	C137	C	0.131832	0.128131	0.480919
	C138	C	0.888036	0.127760	0.497895
	C139	C	0.886168	0.884045	0.481108
	C140	C	0.518337	0.127809	0.867680
	C141	C	0.500586	0.128804	0.111863
	C142	C	0.517134	0.886773	0.110094
	C143	C	0.501168	0.883584	0.865699
	C144	C	0.389889	0.890868	0.664440
	C145	C	0.629688	0.121628	0.666532
	C146	C	0.627407	0.891827	0.312012
	C147	C	0.389477	0.122539	0.313075
	C148	C	0.685265	0.386324	0.876096
	C149	C	0.687571	0.628704	0.104200
	C150	C	0.331148	0.624803	0.875533
	C151	C	0.331970	0.387080	0.104458
	C152	C	0.894604	0.680581	0.371639
	C153	C	0.123291	0.684857	0.610638
	C154	C	0.894495	0.330479	0.606884
	C155	C	0.124354	0.329305	0.370254
	C156	C	0.895140	0.386048	0.666206
	C157	C	0.122612	0.628659	0.669973
	C158	C	0.895342	0.624504	0.312806
	C159	C	0.124125	0.385861	0.312026
	C160	C	0.390913	0.680357	0.874263
	C161	C	0.628339	0.684964	0.104306
	C162	C	0.625914	0.330493	0.875430
	C163	C	0.390240	0.330514	0.104982
	C164	C	0.684565	0.891606	0.369107
	C165	C	0.687053	0.121575	0.609899
	C166	C	0.332218	0.890897	0.607622
	C167	C	0.332264	0.122210	0.370276
	C168	C	0.890889	0.390269	0.164734
	C169	C	0.129798	0.620994	0.168649
	C170	C	0.127738	0.390813	0.812482
	C171	C	0.888837	0.620826	0.813758
	C172	C	0.185425	0.886118	0.374708
	C173	C	0.188726	0.128716	0.602993
	C174	C	0.832351	0.124610	0.374950
	C175	C	0.831127	0.887510	0.603659
	C176	C	0.394694	0.181552	0.871107
	C177	C	0.624142	0.184248	0.109218
	C178	C	0.393667	0.831394	0.106254
	C179	C	0.623839	0.828621	0.869109
	C180	C	0.394340	0.887459	0.165583
	C181	C	0.623317	0.128974	0.168670
	C182	C	0.395880	0.125638	0.811415
	C183	C	0.623888	0.885562	0.810874
	C184	C	0.890897	0.181164	0.374421
	C185	C	0.129322	0.184947	0.603803
	C186	C	0.127142	0.829308	0.374766
	C187	C	0.889975	0.830973	0.604495
	C188	C	0.184304	0.390377	0.870645
	C189	C	0.186792	0.620982	0.111411
	C190	C	0.833147	0.390574	0.107925
	C191	C	0.832708	0.621337	0.871635
	C192	C	0.411537	0.101198	0.588280
	C193	C	0.608027	0.911244	0.586982
	C194	C	0.608975	0.102642	0.391182
	C195	C	0.410001	0.912024	0.389142
	C196	C	0.610010	0.408276	0.084893
	C197	C	0.609155	0.604052	0.896272
	C198	C	0.409728	0.606302	0.083779
	C199	C	0.408231	0.405962	0.896080
	C200	C	0.103807	0.605004	0.391376
	C201	C	0.914894	0.605308	0.590434
	C202	C	0.103523	0.409237	0.589342
	C203	C	0.915057	0.405714	0.388056
	C204	C	0.911272	0.601423	0.090202
	C205	C	0.108664	0.410460	0.088993
	C206	C	0.107571	0.600669	0.893223
	C207	C	0.909261	0.410810	0.890089
	C208	C	0.109227	0.909044	0.583280
	C209	C	0.109339	0.104947	0.395208
	C210	C	0.910084	0.106120	0.583427
	C211	C	0.908123	0.905503	0.395282
	C212	C	0.604284	0.106011	0.889768
	C213	C	0.415089	0.105850	0.089590
	C214	C	0.603046	0.909572	0.088633
	C215	C	0.415235	0.906212	0.887448
	Zn216	Zn	0.510143	0.005945	0.737842
	Zn217	Zn	0.509038	0.007613	0.240022
	Zn218	Zn	0.760430	0.506548	-0.009570
	Zn219	Zn	0.258282	0.505711	-0.009641
	Zn220	Zn	0.009002	0.756351	0.490045
	Zn221	Zn	0.009400	0.256932	0.489332
	Zn222	Zn	0.008538	0.506154	0.741120
	Zn223	Zn	0.009821	0.505386	0.239407
	Zn224	Zn	0.509149	0.757098	-0.010947
	Zn225	Zn	0.508912	0.256781	-0.009285
	Zn226	Zn	0.758113	0.006668	0.489310
	Zn227	Zn	0.260303	0.006383	0.488895
	N228	N	0.424362	0.968807	0.665987
	N229	N	0.595630	0.043499	0.667080
	N230	N	0.594464	0.970127	0.311223
	N231	N	0.423277	0.044559	0.311402
	N232	N	0.688486	0.419759	0.953806
	N233	N	0.689468	0.593889	0.026978
	N234	N	0.328539	0.592937	0.953581
	N235	N	0.329620	0.419680	0.026773
	N236	N	0.971864	0.682416	0.405937
	N237	N	0.046166	0.685357	0.576256
	N238	N	0.971601	0.330470	0.572887
	N239	N	0.046714	0.327764	0.403518
	N240	N	0.972760	0.419882	0.668695
	N241	N	0.045095	0.594859	0.671912
	N242	N	0.972970	0.591725	0.311026
	N243	N	0.046483	0.418865	0.309541
	N244	N	0.425078	0.682507	0.951350
	N245	N	0.594554	0.685046	0.026961
	N246	N	0.592856	0.329988	0.952973
	N247	N	0.423637	0.328562	0.027747
	N248	N	0.686385	0.969725	0.403459
	N249	N	0.687955	0.043358	0.575655
	N250	N	0.331419	0.969031	0.574480
	N251	N	0.331076	0.044182	0.403552
	N252	N	0.924712	0.468560	0.166952
	N253	N	0.095753	0.542898	0.168899
	N254	N	0.094380	0.468998	0.811946
	N255	N	0.922127	0.542790	0.811585
	N256	N	0.187793	0.920356	0.452152
	N257	N	0.190527	0.094448	0.525577
	N258	N	0.830566	0.091941	0.452659
	N259	N	0.828678	0.919594	0.525979
	N260	N	0.471810	0.182946	0.905428
	N261	N	0.546933	0.184495	0.074873
	N262	N	0.471059	0.830550	0.072780
	N263	N	0.546383	0.827222	0.902284
	N264	N	0.472063	0.921253	0.167918
	N265	N	0.545741	0.095238	0.170628
	N266	N	0.473712	0.092860	0.809198
	N267	N	0.546389	0.918934	0.808683
	N268	N	0.924637	0.183367	0.451675
	N269	N	0.094709	0.184723	0.526885
	N270	N	0.093589	0.828962	0.452173
	N271	N	0.923640	0.828845	0.527222
	N272	N	0.185536	0.468162	0.905451
	N273	N	0.187459	0.543103	0.076617
	N274	N	0.831545	0.469004	0.075655
	N275	N	0.831503	0.543408	0.904875
	O276	O	1.095504	0.985572	-0.013492
	H277	H	1.091704	0.974386	-0.003299
	H278	H	1.086310	0.976381	-0.018064
	O279	O	0.031175	0.060881	0.951809
	H280	H	0.032544	0.058780	0.956712
	H281	H	0.028088	0.050996	0.951177
	O282	O	0.033559	0.017226	0.021327
	H283	H	0.045329	0.022682	0.018290
	H284	H	0.041945	0.007641	0.024396
	O285	O	0.568880	0.459023	0.521852
	H286	H	0.568974	0.460061	0.521303
	H287	H	0.581093	0.471119	0.520501
	O288	O	0.106884	-0.005653	-0.100408
	H289	H	0.107264	-0.015556	-0.097785
	H290	H	0.115758	-0.016818	-0.104803
	O291	O	0.025595	0.937678	0.017633
	H292	H	0.032452	0.935034	0.024182
	H293	H	0.023933	0.934044	0.019275
	O294	O	0.003014	1.005267	0.042230
	H295	H	-0.000064	1.011047	0.039018
	H296	H	-0.002552	1.011955	0.029415
	O297	O	0.440935	0.428295	0.548084
	H298	H	0.450331	0.427942	0.542968
	H299	H	0.448757	0.427303	0.543852
	O300	O	0.469708	0.495057	0.535817
	H301	H	0.471804	0.488195	0.541606
	H302	H	0.474679	0.486563	0.535147
	O303	O	1.042324	0.028320	1.001340
	H304	H	1.039862	0.025988	1.004618
	H305	H	1.044910	0.018115	1.007080
	O306	O	0.000453	0.995651	1.026274
	H307	H	0.003227	0.996746	1.026154
	H308	H	0.007647	0.998882	1.025918
	O309	O	-0.515414	0.481130	1.499958
	H310	H	-0.516945	0.479247	1.503384
	H311	H	-0.518292	0.483085	1.518193
	O312	O	0.020348	-0.103186	0.951433
	H313	H	0.029307	-0.104355	0.958282
	H314	H	0.015864	-0.099501	0.953895
	O315	O	0.527576	0.596302	0.516387
	H316	H	0.527493	0.594758	0.520211
	H317	H	0.530166	0.592072	0.525345
	O318	O	-0.005762	0.022747	0.967183
	H319	H	0.003230	0.028497	0.965250
	H320	H	-0.011927	0.013707	0.960813
	O321	O	0.610443	0.612697	0.611613
	H322	H	0.610173	0.605087	0.612730
	H323	H	0.614643	0.604838	0.622886
	O324	O	0.053834	-0.989755	1.021616
	H325	H	0.058155	-0.989076	1.020407
	H326	H	0.042751	-0.983273	1.019221
	O327	O	0.982630	0.959184	0.912805
	H328	H	0.989538	0.972588	0.911348
	H329	H	0.977681	0.968950	0.914098
	O330	O	0.504721	0.527982	0.451670
	H331	H	0.504845	0.520291	0.456714
	H332	H	0.492410	0.531892	0.445812
	O333	O	0.520484	0.529029	0.524983
	H334	H	0.511509	0.526463	0.517712
	H335	H	0.522301	0.526995	0.538830
	O336	O	0.547588	0.418025	0.532982
	H337	H	0.535038	0.420016	0.535085
	H338	H	0.555105	0.410889	0.524983
	O339	O	0.547014	0.589771	0.585799
	H340	H	0.551765	0.586543	0.591483
	H341	H	0.544015	0.599509	0.580309
	O342	O	0.531497	0.533525	0.486580
	H343	H	0.534599	0.532370	0.488642
	H344	H	0.528041	0.533196	0.487964
	O345	O	0.480250	0.605172	0.549550
	H346	H	0.468889	0.609083	0.528736
	H347	H	0.482596	0.609372	0.547186
