data_Molecule from HDF5

_cell_length_a		16.352992
_cell_length_b		16.410219
_cell_length_c		16.321162
_cell_angle_alpha	90.012034
_cell_angle_beta	89.755738
_cell_angle_gamma	89.838712
_symmetry_space_group_name_H-M	'P 1'
_symmetry_Int_Tables_number		1

loop_
	_symmetry_equiv_pos_as_xyz
	x,y,z

loop_
	_atom_site_label
	_atom_site_type_symbol
	_atom_site_fract_x
	_atom_site_fract_y
	_atom_site_fract_z
	H0	H	0.395666	0.839050	0.715707
	H1	H	0.600523	0.159706	0.716349
	H2	H	0.605027	0.839274	0.277680
	H3	H	0.395924	0.158629	0.276537
	H4	H	0.719439	0.395545	0.834523
	H5	H	0.716331	0.598605	0.156991
	H6	H	0.282509	0.602249	0.835175
	H7	H	0.278365	0.392698	0.155011
	H8	H	0.839266	0.721817	0.394719
	H9	H	0.160567	0.718990	0.598855
	H10	H	0.839901	0.280382	0.603850
	H11	H	0.159304	0.279914	0.390688
	H12	H	0.838045	0.400907	0.715131
	H13	H	0.160546	0.604467	0.714581
	H14	H	0.838375	0.604965	0.278280
	H15	H	0.159956	0.396986	0.275619
	H16	H	0.395878	0.718394	0.836355
	H17	H	0.605575	0.718846	0.154647
	H18	H	0.604549	0.279473	0.834784
	H19	H	0.397302	0.280366	0.157022
	H20	H	0.721545	0.840282	0.393505
	H21	H	0.717011	0.161440	0.600160
	H22	H	0.278887	0.840796	0.601816
	H23	H	0.279651	0.159300	0.391796
	H24	H	0.894966	0.340964	0.218794
	H25	H	0.102424	0.660191	0.213323
	H26	H	0.103802	0.340992	0.774058
	H27	H	0.895637	0.661107	0.779439
	H28	H	0.219882	0.897426	0.336032
	H29	H	0.219275	0.105104	0.657275
	H30	H	0.780962	0.106000	0.335654
	H31	H	0.780360	0.898559	0.657434
	H32	H	0.340748	0.219564	0.891767
	H33	H	0.659291	0.220023	0.103131
	H34	H	0.340189	0.778278	0.100999
	H35	H	0.660761	0.777380	0.890504
	H36	H	0.339915	0.895667	0.215952
	H37	H	0.660119	0.102753	0.217375
	H38	H	0.339460	0.100642	0.779662
	H39	H	0.660005	0.894287	0.774737
	H40	H	0.895441	0.222269	0.336284
	H41	H	0.105731	0.223174	0.656267
	H42	H	0.105482	0.781076	0.336728
	H43	H	0.896658	0.783896	0.658203
	H44	H	0.219491	0.339332	0.890281
	H45	H	0.221014	0.657937	0.098734
	H46	H	0.781052	0.338814	0.101707
	H47	H	0.778332	0.658007	0.893252
	H48	H	0.412426	0.112017	0.584598
	H49	H	0.581908	0.889335	0.584740
	H50	H	0.585421	0.114442	0.400053
	H51	H	0.408650	0.886234	0.408180
	H52	H	0.587624	0.404948	0.110200
	H53	H	0.589234	0.588264	0.880864
	H54	H	0.411470	0.582508	0.108034
	H55	H	0.409365	0.398246	0.876942
	H56	H	0.115341	0.589958	0.399958
	H57	H	0.883431	0.596699	0.586395
	H58	H	0.113833	0.411835	0.589157
	H59	H	0.882687	0.406948	0.405765
	H60	H	0.113354	0.408411	0.580663
	H61	H	0.886045	0.591310	0.585958
	H62	H	0.115355	0.596616	0.406500
	H63	H	0.888175	0.411530	0.414821
	H64	H	0.415581	0.589962	0.110173
	H65	H	0.590731	0.587510	0.880935
	H66	H	0.593438	0.404982	0.112286
	H67	H	0.404356	0.416143	0.881210
	H68	H	0.587333	0.110570	0.411576
	H69	H	0.596025	0.887591	0.577446
	H70	H	0.407286	0.113426	0.585893
	H71	H	0.409262	0.885812	0.405726
	H72	H	0.906081	0.613167	0.082107
	H73	H	0.092637	0.383505	0.090608
	H74	H	0.096073	0.617355	0.899828
	H75	H	0.914138	0.388146	0.910356
	H76	H	0.091399	0.907972	0.613136
	H77	H	0.084016	0.087310	0.385925
	H78	H	0.908999	0.090724	0.610725
	H79	H	0.907311	0.914742	0.383145
	H80	H	0.614201	0.085832	0.906582
	H81	H	0.388685	0.089324	0.077552
	H82	H	0.611477	0.916024	0.084009
	H83	H	0.385728	0.912133	0.901002
	H84	H	0.617747	0.905859	0.093878
	H85	H	0.388248	0.081480	0.089922
	H86	H	0.615364	0.088913	0.905106
	H87	H	0.383659	0.900752	0.906584
	H88	H	0.910617	0.089972	0.609661
	H89	H	0.089374	0.096793	0.381212
	H90	H	0.091705	0.914386	0.610163
	H91	H	0.915408	0.912648	0.384526
	H92	H	0.084239	0.612099	0.904636
	H93	H	0.082752	0.388101	0.086198
	H94	H	0.906294	0.614939	0.089452
	H95	H	0.905692	0.384317	0.905669
	H96	H	0.411318	0.113409	0.590154
	H97	H	0.594225	0.883623	0.593483
	H98	H	0.596491	0.116157	0.405566
	H99	H	0.410884	0.885799	0.407980
	H100	H	0.590673	0.410228	0.109960
	H101	H	0.588888	0.586388	0.881232
	H102	H	0.406881	0.588802	0.111937
	H103	H	0.421829	0.410165	0.885774
	H104	H	0.111567	0.588367	0.408332
	H105	H	0.884335	0.592870	0.591121
	H106	H	0.110582	0.416762	0.582526
	H107	H	0.886999	0.417711	0.405458
	H108	H	0.912615	0.611294	0.085839
	H109	H	0.092382	0.386176	0.079782
	H110	H	0.095227	0.613278	0.913071
	H111	H	0.914200	0.385651	0.900165
	H112	H	0.085643	0.910379	0.610270
	H113	H	0.095183	0.086543	0.382417
	H114	H	0.910950	0.091547	0.610247
	H115	H	0.910002	0.906916	0.380479
	H116	H	0.613521	0.088729	0.908248
	H117	H	0.383460	0.094814	0.089933
	H118	H	0.614301	0.901346	0.079427
	H119	H	0.389287	0.910248	0.913328
	C120	C	0.378174	0.007836	0.618580
	C121	C	0.621118	0.992257	0.617536
	C122	C	0.621927	0.008155	0.374676
	C123	C	0.378658	0.991289	0.375675
	C124	C	0.622518	0.375499	0.004499
	C125	C	0.621516	0.618904	0.986850
	C126	C	0.379898	0.618789	0.004469
	C127	C	0.379453	0.376769	0.987191
	C128	C	0.007914	0.623218	0.374615
	C129	C	0.990977	0.623626	0.618463
	C130	C	0.007228	0.380749	0.617311
	C131	C	0.991181	0.379892	0.375489
	C132	C	0.877230	0.507907	0.118241
	C133	C	0.121086	0.491114	0.116943
	C134	C	0.122932	0.508589	0.873492
	C135	C	0.878980	0.491317	0.874797
	C136	C	0.121542	0.879324	0.505389
	C137	C	0.121585	0.122423	0.488628
	C138	C	0.878247	0.123074	0.504739
	C139	C	0.879256	0.880476	0.488650
	C140	C	0.508467	0.119305	0.875890
	C141	C	0.492124	0.120002	0.117777
	C142	C	0.508731	0.876483	0.117989
	C143	C	0.492183	0.876293	0.874540
	C144	C	0.376655	0.887636	0.677057
	C145	C	0.620503	0.112129	0.676953
	C146	C	0.623460	0.887296	0.316655
	C147	C	0.377477	0.111223	0.316131
	C148	C	0.680611	0.375689	0.883027
	C149	C	0.678394	0.618604	0.108474
	C150	C	0.321428	0.620571	0.883675
	C151	C	0.319046	0.374961	0.107468
	C152	C	0.887117	0.682196	0.375184
	C153	C	0.112283	0.680611	0.617987
	C154	C	0.887490	0.320845	0.620794
	C155	C	0.111544	0.319988	0.372600
	C156	C	0.886479	0.380909	0.676285
	C157	C	0.112196	0.623290	0.675643
	C158	C	0.886748	0.624241	0.316988
	C159	C	0.111733	0.378348	0.315367
	C160	C	0.377975	0.678563	0.884164
	C161	C	0.623418	0.678471	0.107264
	C162	C	0.623349	0.317986	0.883299
	C163	C	0.377962	0.318797	0.108345
	C164	C	0.681676	0.888121	0.374201
	C165	C	0.678304	0.113030	0.619071
	C166	C	0.318488	0.888474	0.620109
	C167	C	0.319592	0.111350	0.373442
	C168	C	0.876510	0.388479	0.178493
	C169	C	0.121880	0.611780	0.174911
	C170	C	0.123161	0.388743	0.813590
	C171	C	0.877411	0.612355	0.817984
	C172	C	0.180526	0.878535	0.384396
	C173	C	0.180289	0.124149	0.608983
	C174	C	0.819843	0.124589	0.384038
	C175	C	0.819893	0.879598	0.609382
	C176	C	0.388285	0.179161	0.874172
	C177	C	0.611686	0.179954	0.120415
	C178	C	0.388190	0.817931	0.119223
	C179	C	0.612749	0.817326	0.872343
	C180	C	0.388014	0.876259	0.176751
	C181	C	0.611916	0.121719	0.177772
	C182	C	0.387631	0.120016	0.818222
	C183	C	0.612489	0.875350	0.814750
	C184	C	0.877294	0.182319	0.384160
	C185	C	0.123687	0.182972	0.608422
	C186	C	0.123680	0.820628	0.384586
	C187	C	0.878199	0.822741	0.609865
	C188	C	0.180845	0.387871	0.871578
	C189	C	0.180896	0.610531	0.117728
	C190	C	0.819490	0.387323	0.120275
	C191	C	0.818543	0.610768	0.874457
	C192	C	0.403243	0.091468	0.593943
	C193	C	0.597543	0.908384	0.592404
	C194	C	0.596850	0.091881	0.398687
	C195	C	0.402767	0.907693	0.400316
	C196	C	0.597984	0.399803	0.088864
	C197	C	0.596735	0.594467	0.903072
	C198	C	0.404337	0.594081	0.088397
	C199	C	0.404545	0.401251	0.903182
	C200	C	0.092166	0.598861	0.398218
	C201	C	0.906499	0.600479	0.594690
	C202	C	0.090868	0.405281	0.591462
	C203	C	0.907866	0.404834	0.401219
	C204	C	0.901123	0.591467	0.092983
	C205	C	0.096520	0.407650	0.092585
	C206	C	0.098873	0.592308	0.898530
	C207	C	0.904278	0.407542	0.898518
	C208	C	0.096619	0.903732	0.589302
	C209	C	0.096766	0.097273	0.404821
	C210	C	0.903078	0.098028	0.588389
	C211	C	0.903744	0.904539	0.404501
	C212	C	0.592510	0.094780	0.899742
	C213	C	0.408603	0.095399	0.092995
	C214	C	0.592564	0.900688	0.093198
	C215	C	0.408219	0.900567	0.899765
	Zn216	Zn	0.499676	-0.001410	0.746871
	Zn217	Zn	0.499678	-0.001629	0.246712
	Zn218	Zn	0.749834	0.497581	-0.004297
	Zn219	Zn	0.251570	0.498415	-0.004786
	Zn220	Zn	0.000253	0.751750	0.496909
	Zn221	Zn	-0.000401	0.250963	0.496851
	Zn222	Zn	-0.000169	0.501786	0.746252
	Zn223	Zn	-0.000949	0.500958	0.246165
	Zn224	Zn	0.500528	0.747532	-0.003718
	Zn225	Zn	0.500284	0.248225	-0.004088
	Zn226	Zn	0.750349	0.001681	0.496687
	Zn227	Zn	0.249827	0.000603	0.497056
	N228	N	0.412960	0.963067	0.676340
	N229	N	0.585798	0.035913	0.676081
	N230	N	0.587316	0.963122	0.316580
	N231	N	0.413461	0.035543	0.317224
	N232	N	0.680286	0.410713	0.959580
	N233	N	0.677414	0.582303	0.032567
	N234	N	0.322546	0.583965	0.959517
	N235	N	0.319567	0.410061	0.030974
	N236	N	0.963474	0.681864	0.410073
	N237	N	0.035831	0.680998	0.583249
	N238	N	0.963591	0.320848	0.584745
	N239	N	0.035617	0.320536	0.409130
	N240	N	0.962079	0.417349	0.674308
	N241	N	0.035867	0.588515	0.676124
	N242	N	0.962821	0.588360	0.316611
	N243	N	0.036009	0.414756	0.317035
	N244	N	0.413668	0.677816	0.960250
	N245	N	0.588876	0.678835	0.030702
	N246	N	0.588398	0.317402	0.959972
	N247	N	0.414855	0.319934	0.032610
	N248	N	0.681077	0.964286	0.409147
	N249	N	0.678641	0.037446	0.582718
	N250	N	0.319335	0.964265	0.584427
	N251	N	0.320083	0.035764	0.409781
	N252	N	0.911720	0.464330	0.177274
	N253	N	0.085449	0.536506	0.174674
	N254	N	0.087926	0.464844	0.814494
	N255	N	0.914367	0.537012	0.818056
	N256	N	0.179522	0.914302	0.460567
	N257	N	0.179096	0.087281	0.533375
	N258	N	0.820407	0.088387	0.459941
	N259	N	0.820594	0.915155	0.533144
	N260	N	0.464613	0.178931	0.909150
	N261	N	0.536340	0.178830	0.083665
	N262	N	0.464417	0.817728	0.083586
	N263	N	0.536901	0.817782	0.908771
	N264	N	0.464032	0.911655	0.176265
	N265	N	0.536554	0.084776	0.176208
	N266	N	0.463299	0.083442	0.819256
	N267	N	0.536460	0.911116	0.815852
	N268	N	0.912847	0.181475	0.460320
	N269	N	0.087634	0.181884	0.532613
	N270	N	0.087778	0.820954	0.460776
	N271	N	0.914436	0.823181	0.533779
	N272	N	0.180804	0.463365	0.907945
	N273	N	0.180666	0.534441	0.082609
	N274	N	0.819845	0.462712	0.083266
	N275	N	0.819522	0.534555	0.909113
	O276	O	0.463813	0.581808	0.667137
	H277	H	0.471675	0.580862	0.686788
	H278	H	0.481569	0.579447	0.658926
	O279	O	0.616525	0.398446	0.333005
	H280	H	0.600668	0.418194	0.337521
	H281	H	0.615992	0.403499	0.321911
	O282	O	0.541753	0.574278	0.529000
	H283	H	0.541204	0.576155	0.538034
	H284	H	0.540668	0.568508	0.531162
	O285	O	1.002389	0.144078	-0.153722
	H286	H	1.014933	0.152960	-0.162715
	H287	H	1.009666	0.129386	-0.146559
	O288	O	-0.171659	0.164336	0.885193
	H289	H	-0.188410	0.182096	0.867416
	H290	H	-0.159931	0.152255	0.898890
	O291	O	0.693567	0.423875	0.488698
	H292	H	0.709273	0.410370	0.479868
	H293	H	0.684788	0.426489	0.473977
	O294	O	0.355671	0.502801	0.533666
	H295	H	0.353206	0.513314	0.538272
	H296	H	0.350355	0.488882	0.525585
	O297	O	1.089944	0.935227	1.072666
	H298	H	1.080625	0.927012	1.081809
	H299	H	1.091234	0.932317	1.068464
	O300	O	-0.186397	-0.176418	0.188312
	H301	H	-0.197792	-0.163318	0.172550
	H302	H	-0.198020	-0.199399	0.174294
	O303	O	0.463879	0.330483	0.598095
	H304	H	0.478448	0.328497	0.598746
	H305	H	0.467786	0.334308	0.587648
	O306	O	1.019117	0.024986	0.137671
	H307	H	1.005427	0.012393	0.138505
	H308	H	1.009926	0.029411	0.138419
	O309	O	0.655123	0.364971	0.445785
	H310	H	0.649119	0.355035	0.430249
	H311	H	0.647920	0.381385	0.436564
	O312	O	0.799385	0.800802	0.021034
	H313	H	0.794692	0.797265	0.002583
	H314	H	0.795014	0.812963	0.002223
	O315	O	0.330279	0.377128	0.466477
	H316	H	0.317121	0.382125	0.461765
	H317	H	0.329250	0.379379	0.484781
	O318	O	0.411025	0.559591	0.371677
	H319	H	0.389524	0.558357	0.380745
	H320	H	0.397486	0.568184	0.362241
	O321	O	1.095628	0.165260	1.047510
	H322	H	1.093378	0.172115	1.050102
	H323	H	1.100645	0.168807	1.064542
	O324	O	-0.129923	-0.001193	0.939553
	H325	H	-0.141416	0.012343	0.931792
	H326	H	-0.133875	-0.014973	0.953202
	O327	O	0.593116	0.669043	0.395769
	H328	H	0.580170	0.662212	0.391534
	H329	H	0.568139	0.666220	0.393527
	O330	O	0.583626	0.429589	0.505757
	H331	H	0.571060	0.421491	0.504735
	H332	H	0.591237	0.408458	0.494569
	O333	O	0.796989	0.983093	1.198708
	H334	H	0.774706	0.962541	1.223609
	H335	H	0.804045	0.978457	1.196740
	O336	O	0.359795	0.516927	0.638771
	H337	H	0.340698	0.517434	0.644659
	H338	H	0.356471	0.516844	0.647981
	O339	O	1.132082	0.098292	0.883678
	H340	H	1.129340	0.093664	0.877304
	H341	H	1.128623	0.105023	0.894939
	O342	O	0.002621	1.092068	1.069381
	H343	H	0.001251	1.112502	1.080668
	H344	H	0.000874	1.091180	1.067925
	O345	O	0.055652	0.799369	0.796116
	H346	H	0.058601	0.804423	0.794410
	H347	H	0.066286	0.787219	0.786525
	O348	O	0.491850	0.476736	0.664429
	H349	H	0.485733	0.462472	0.666392
	H350	H	0.497953	0.460466	0.660135
	O351	O	0.086032	0.195567	0.191668
	H352	H	0.085067	0.208937	0.207034
	H353	H	0.092079	0.184916	0.187501
	O354	O	0.969335	0.797600	0.199144
	H355	H	0.948880	0.788073	0.208094
	H356	H	0.950765	0.791788	0.196548
	O357	O	0.100609	0.953403	0.036186
	H358	H	0.094074	0.957805	0.035065
	H359	H	0.106095	0.942931	0.045033
	O360	O	0.464188	0.522828	0.512720
	H361	H	0.451153	0.519215	0.511247
	H362	H	0.465328	0.524490	0.522082
	O363	O	0.631690	0.597509	0.469910
	H364	H	0.633197	0.599857	0.470731
	H365	H	0.627466	0.604837	0.460809
	O366	O	0.481346	0.371163	0.551128
	H367	H	0.477745	0.356337	0.554541
	H368	H	0.482351	0.367935	0.543105
	O369	O	0.465859	0.379842	0.335554
	H370	H	0.464611	0.383551	0.342180
	H371	H	0.454289	0.384804	0.330049
	O372	O	0.543322	0.554653	0.418038
	H373	H	0.543061	0.548352	0.425762
	H374	H	0.549603	0.552370	0.430786
	O375	O	0.397989	0.668907	0.338141
	H376	H	0.388584	0.673562	0.358577
	H377	H	0.396205	0.664285	0.333952
	O378	O	0.669826	0.619373	0.582145
	H379	H	0.685773	0.632218	0.583054
	H380	H	0.656996	0.618433	0.573965
	O381	O	0.473123	0.471132	0.441350
	H382	H	0.470531	0.473215	0.438315
	H383	H	0.482260	0.476664	0.428452
	O384	O	0.026044	0.883239	0.958966
	H385	H	0.033659	0.874005	0.961275
	H386	H	0.033700	0.889490	0.944317
	O387	O	1.192193	1.044765	0.172096
	H388	H	1.169215	1.047825	0.187297
	H389	H	1.188603	1.033909	0.163524
	O390	O	0.369099	0.496091	0.366431
	H391	H	0.358628	0.501702	0.367188
	H392	H	0.361968	0.495132	0.373962
	O393	O	0.939666	0.071103	1.019207
	H394	H	0.942804	0.058077	1.008759
	H395	H	0.941525	0.072075	1.031926
	O396	O	0.034787	1.185645	0.962002
	H397	H	0.033926	1.191494	0.957950
	H398	H	0.026317	1.194717	0.962818
	O399	O	0.494017	0.373965	0.564745
	H400	H	0.499304	0.378109	0.572310
	H401	H	0.503846	0.379393	0.560933
	O402	O	1.179729	-0.142764	0.876536
	H403	H	1.177357	-0.157078	0.896617
	H404	H	1.190116	-0.114104	0.888322
	O405	O	-0.040295	-0.039076	-0.051329
	H406	H	-0.049166	-0.019058	-0.059220
	H407	H	-0.039363	-0.029933	-0.037598
	O408	O	1.094949	0.928115	0.814150
	H409	H	1.072650	0.921173	0.834091
	H410	H	1.101073	0.921299	0.812082
	O411	O	0.805317	1.015197	-0.085419
	H412	H	0.813854	1.027574	-0.089237
	H413	H	0.807210	1.016366	-0.090338
	O414	O	0.012105	0.090818	0.985979
	H415	H	0.013290	0.095594	0.964768
	H416	H	0.007369	0.085779	0.983259
	O417	O	0.338052	0.664763	0.449166
	H418	H	0.327429	0.678882	0.464822
	H419	H	0.344136	0.667712	0.459931
	O420	O	-0.012275	0.938762	0.017255
	H421	H	-0.024751	0.942052	0.023498
	H422	H	-0.010389	0.934591	-0.003366
	O423	O	0.931248	0.117868	-0.175371
	H424	H	0.950850	0.117555	-0.176201
	H425	H	0.922084	0.126542	-0.156454
	O426	O	0.084698	-0.144756	1.020802
	H427	H	0.088321	-0.140773	1.033880
	H428	H	0.074733	-0.142204	1.030883
	O429	O	0.567487	0.581453	0.604259
	H430	H	0.573358	0.586402	0.596168
	H431	H	0.575058	0.573783	0.606067
