data_Molecule from HDF5

_cell_length_a		16.304943
_cell_length_b		16.270832
_cell_length_c		16.223207
_cell_angle_alpha	89.594139
_cell_angle_beta	90.176296
_cell_angle_gamma	89.777125
_symmetry_space_group_name_H-M	'P 1'
_symmetry_Int_Tables_number		1

loop_
	_symmetry_equiv_pos_as_xyz
	x,y,z

loop_
	_atom_site_label
	_atom_site_type_symbol
	_atom_site_fract_x
	_atom_site_fract_y
	_atom_site_fract_z
	H0	H	0.404486	0.845257	0.718091
	H1	H	0.601680	0.171993	0.715622
	H2	H	0.600413	0.844359	0.288566
	H3	H	0.401435	0.171670	0.284566
	H4	H	0.717519	0.406507	0.839522
	H5	H	0.717286	0.605532	0.165976
	H6	H	0.283253	0.610935	0.838884
	H7	H	0.287490	0.407591	0.165979
	H8	H	0.839520	0.725726	0.399792
	H9	H	0.162986	0.722600	0.604008
	H10	H	0.838510	0.292034	0.601942
	H11	H	0.164169	0.292045	0.403632
	H12	H	0.838367	0.405944	0.717552
	H13	H	0.164654	0.604397	0.717187
	H14	H	0.839764	0.610329	0.283805
	H15	H	0.165295	0.409121	0.289557
	H16	H	0.401126	0.724638	0.837789
	H17	H	0.601719	0.721632	0.166205
	H18	H	0.600879	0.294511	0.837952
	H19	H	0.402987	0.291980	0.164640
	H20	H	0.718142	0.845594	0.400911
	H21	H	0.716317	0.172207	0.598283
	H22	H	0.286177	0.845752	0.604546
	H23	H	0.283457	0.171048	0.398494
	H24	H	0.903591	0.344126	0.220072
	H25	H	0.101302	0.670656	0.217363
	H26	H	0.099988	0.343646	0.789818
	H27	H	0.898375	0.668975	0.783408
	H28	H	0.218472	0.906742	0.338495
	H29	H	0.218692	0.108006	0.664372
	H30	H	0.786251	0.109057	0.337363
	H31	H	0.786734	0.907951	0.665287
	H32	H	0.340024	0.226951	0.897895
	H33	H	0.664207	0.221802	0.100854
	H34	H	0.338357	0.791780	0.102276
	H35	H	0.664193	0.789749	0.900980
	H36	H	0.338635	0.906987	0.218023
	H37	H	0.664085	0.106626	0.216859
	H38	H	0.339390	0.109125	0.784723
	H39	H	0.665919	0.908083	0.787044
	H40	H	0.899973	0.226013	0.338246
	H41	H	0.099847	0.221036	0.665727
	H42	H	0.101098	0.792535	0.338265
	H43	H	0.900180	0.790251	0.664770
	H44	H	0.218185	0.346096	0.902168
	H45	H	0.216632	0.670654	0.102866
	H46	H	0.787303	0.343641	0.103618
	H47	H	0.784540	0.669515	0.900908
	H48	H	0.411460	0.125454	0.598369
	H49	H	0.603474	0.890396	0.592987
	H50	H	0.593207	0.126194	0.402308
	H51	H	0.403507	0.888659	0.406604
	H52	H	0.588614	0.410992	0.117786
	H53	H	0.588949	0.603887	0.886301
	H54	H	0.409130	0.600512	0.118330
	H55	H	0.405460	0.423520	0.885648
	H56	H	0.114175	0.597287	0.420029
	H57	H	0.883087	0.601635	0.595395
	H58	H	0.118633	0.415232	0.602794
	H59	H	0.885258	0.414800	0.409817
	H60	H	0.119281	0.406435	0.595627
	H61	H	0.886447	0.599780	0.587899
	H62	H	0.117921	0.592612	0.402822
	H63	H	0.885893	0.417508	0.413484
	H64	H	0.407516	0.599709	0.118300
	H65	H	0.599201	0.600712	0.884130
	H66	H	0.599909	0.410286	0.121970
	H67	H	0.414211	0.417732	0.886307
	H68	H	0.588144	0.122455	0.411351
	H69	H	0.591651	0.891601	0.602891
	H70	H	0.413709	0.121562	0.587064
	H71	H	0.416917	0.893668	0.407025
	H72	H	0.911333	0.621985	0.091605
	H73	H	0.097698	0.391331	0.092195
	H74	H	0.090273	0.621590	0.916259
	H75	H	0.903719	0.388947	0.911720
	H76	H	0.098747	0.911274	0.620975
	H77	H	0.092298	0.099871	0.384861
	H78	H	0.905176	0.093456	0.616795
	H79	H	0.913510	0.923677	0.388681
	H80	H	0.618942	0.101953	0.906537
	H81	H	0.384828	0.105189	0.087122
	H82	H	0.609655	0.923776	0.079332
	H83	H	0.386054	0.908698	0.918672
	H84	H	0.620268	0.922539	0.112176
	H85	H	0.387824	0.093871	0.090642
	H86	H	0.618109	0.102764	0.911264
	H87	H	0.391414	0.927447	0.912590
	H88	H	0.915302	0.101589	0.616996
	H89	H	0.091865	0.099870	0.385681
	H90	H	0.094643	0.921001	0.615778
	H91	H	0.914294	0.910567	0.384126
	H92	H	0.097404	0.626217	0.907563
	H93	H	0.095830	0.390678	0.099420
	H94	H	0.906079	0.622822	0.090021
	H95	H	0.909915	0.388629	0.905189
	H96	H	0.403024	0.126468	0.589410
	H97	H	0.590298	0.895500	0.587750
	H98	H	0.599101	0.125756	0.412374
	H99	H	0.409336	0.894300	0.418730
	H100	H	0.595090	0.420606	0.117234
	H101	H	0.591593	0.593980	0.887411
	H102	H	0.409665	0.599257	0.117836
	H103	H	0.405601	0.413045	0.882390
	H104	H	0.121244	0.609812	0.408375
	H105	H	0.886788	0.593390	0.593986
	H106	H	0.115668	0.416666	0.592174
	H107	H	0.885950	0.419449	0.409273
	H108	H	0.907109	0.624399	0.095101
	H109	H	0.089773	0.392773	0.095247
	H110	H	0.085807	0.623848	0.905631
	H111	H	0.911703	0.391674	0.913066
	H112	H	0.087953	0.912236	0.617418
	H113	H	0.091708	0.100424	0.386032
	H114	H	0.903316	0.105669	0.621517
	H115	H	0.901761	0.917533	0.383692
	H116	H	0.617308	0.098297	0.909528
	H117	H	0.382301	0.101477	0.097791
	H118	H	0.622237	0.895452	0.092469
	H119	H	0.382688	0.914391	0.899595
	C120	C	0.380592	0.016682	0.622680
	C121	C	0.624192	1.000220	0.623143
	C122	C	0.622910	0.017104	0.379626
	C123	C	0.379486	0.999597	0.379766
	C124	C	0.623591	0.385271	0.010908
	C125	C	0.622823	0.628226	0.994024
	C126	C	0.379200	0.630006	0.010182
	C127	C	0.379599	0.387431	0.992945
	C128	C	0.010426	0.629960	0.379967
	C129	C	0.992808	0.627501	0.623132
	C130	C	0.009803	0.383914	0.625464
	C131	C	0.993247	0.387047	0.381714
	C132	C	0.879960	0.515533	0.123444
	C133	C	0.123452	0.499225	0.124357
	C134	C	0.121630	0.516225	0.880902
	C135	C	0.878720	0.497621	0.880016
	C136	C	0.123615	0.885721	0.510090
	C137	C	0.121805	0.128548	0.493555
	C138	C	0.878837	0.130328	0.510194
	C139	C	0.880010	0.886953	0.493290
	C140	C	0.510785	0.130965	0.878748
	C141	C	0.492585	0.128757	0.121835
	C142	C	0.509647	0.884992	0.124132
	C143	C	0.494120	0.886530	0.880386
	C144	C	0.383233	0.894221	0.680289
	C145	C	0.622111	0.123190	0.677927
	C146	C	0.620767	0.893485	0.325401
	C147	C	0.380842	0.122648	0.322592
	C148	C	0.679149	0.387283	0.887883
	C149	C	0.678946	0.625735	0.117141
	C150	C	0.322297	0.629973	0.887454
	C151	C	0.324699	0.387872	0.116510
	C152	C	0.888006	0.687207	0.380230
	C153	C	0.114834	0.683832	0.623045
	C154	C	0.887285	0.329425	0.622237
	C155	C	0.115817	0.330612	0.383784
	C156	C	0.887218	0.386146	0.680007
	C157	C	0.115485	0.624946	0.679620
	C158	C	0.888068	0.629620	0.322859
	C159	C	0.116185	0.388715	0.326874
	C160	C	0.381193	0.686387	0.886791
	C161	C	0.621392	0.683335	0.117176
	C162	C	0.621255	0.331235	0.887277
	C163	C	0.382408	0.330469	0.116052
	C164	C	0.679570	0.894217	0.381217
	C165	C	0.678895	0.123295	0.619528
	C166	C	0.324876	0.894200	0.623303
	C167	C	0.322537	0.122450	0.379579
	C168	C	0.882981	0.392825	0.181244
	C169	C	0.121599	0.621980	0.179863
	C170	C	0.120140	0.392997	0.826742
	C171	C	0.879262	0.620401	0.822657
	C172	C	0.179873	0.887364	0.387436
	C173	C	0.179346	0.127545	0.616055
	C174	C	0.823540	0.129420	0.386569
	C175	C	0.823816	0.887467	0.615981
	C176	C	0.388497	0.187877	0.878861
	C177	C	0.615240	0.184236	0.120965
	C178	C	0.387333	0.829384	0.122321
	C179	C	0.616074	0.829251	0.881799
	C180	C	0.387270	0.887016	0.179919
	C181	C	0.615335	0.126644	0.178305
	C182	C	0.388258	0.129546	0.822252
	C183	C	0.616663	0.887887	0.824771
	C184	C	0.880027	0.187733	0.387237
	C185	C	0.119747	0.182984	0.616950
	C186	C	0.121500	0.830318	0.387241
	C187	C	0.880528	0.829133	0.615986
	C188	C	0.179119	0.394224	0.882629
	C189	C	0.179008	0.621930	0.122687
	C190	C	0.825055	0.392488	0.123609
	C191	C	0.822336	0.620587	0.880929
	C192	C	0.402832	0.102316	0.598653
	C193	C	0.601894	0.914482	0.601069
	C194	C	0.600011	0.102694	0.401958
	C195	C	0.402877	0.914555	0.403741
	C196	C	0.601066	0.407494	0.096769
	C197	C	0.599936	0.605882	0.908178
	C198	C	0.402142	0.606694	0.095940
	C199	C	0.401705	0.411089	0.907160
	C200	C	0.095663	0.606847	0.403602
	C201	C	0.907490	0.604903	0.599406
	C202	C	0.095762	0.406265	0.603533
	C203	C	0.907752	0.410359	0.404361
	C204	C	0.901788	0.600828	0.099380
	C205	C	0.101049	0.413768	0.102121
	C206	C	0.098106	0.601687	0.903161
	C207	C	0.901578	0.412079	0.903321
	C208	C	0.100481	0.908310	0.595814
	C209	C	0.098735	0.106443	0.407925
	C210	C	0.901419	0.107182	0.596105
	C211	C	0.903201	0.910423	0.407650
	C212	C	0.595985	0.107876	0.902247
	C213	C	0.407155	0.106711	0.098615
	C214	C	0.595287	0.907506	0.101303
	C215	C	0.408767	0.910090	0.903468
	Zn216	Zn	0.502670	0.008895	0.751679
	Zn217	Zn	0.501381	0.007715	0.251259
	Zn218	Zn	0.750896	0.506265	0.002301
	Zn219	Zn	0.250572	0.508315	0.002057
	Zn220	Zn	0.001331	0.757481	0.502238
	Zn221	Zn	0.001317	0.257557	0.501963
	Zn222	Zn	0.000737	0.506490	0.752168
	Zn223	Zn	0.001937	0.507950	0.252475
	Zn224	Zn	0.501585	0.757339	0.001885
	Zn225	Zn	0.501667	0.258813	0.000614
	Zn226	Zn	0.751826	0.008125	0.500390
	Zn227	Zn	0.251244	0.008294	0.501659
	N228	N	0.417490	0.971417	0.679689
	N229	N	0.588649	0.045750	0.679993
	N230	N	0.586264	0.970811	0.324384
	N231	N	0.415525	0.045471	0.322455
	N232	N	0.680939	0.419955	0.965784
	N233	N	0.679894	0.592134	0.039438
	N234	N	0.320885	0.595732	0.965229
	N235	N	0.323192	0.422829	0.039083
	N236	N	0.965068	0.687522	0.415048
	N237	N	0.037494	0.685362	0.588659
	N238	N	0.964799	0.327849	0.589190
	N239	N	0.038265	0.329626	0.417105
	N240	N	0.964631	0.419373	0.682004
	N241	N	0.038465	0.590731	0.679752
	N242	N	0.965050	0.594736	0.322611
	N243	N	0.038993	0.423091	0.325547
	N244	N	0.415803	0.686437	0.964177
	N245	N	0.587343	0.685182	0.039605
	N246	N	0.587252	0.329994	0.964855
	N247	N	0.415930	0.330102	0.038285
	N248	N	0.681153	0.971885	0.414108
	N249	N	0.680444	0.045666	0.586326
	N250	N	0.323084	0.971416	0.588335
	N251	N	0.321688	0.045150	0.414443
	N252	N	0.916390	0.470294	0.181284
	N253	N	0.087643	0.544781	0.181038
	N254	N	0.084927	0.469833	0.825785
	N255	N	0.913440	0.543143	0.821751
	N256	N	0.181174	0.920931	0.464924
	N257	N	0.180430	0.094341	0.538362
	N258	N	0.822534	0.094461	0.463898
	N259	N	0.823487	0.922649	0.538568
	N260	N	0.465694	0.189169	0.913040
	N261	N	0.538005	0.185867	0.086673
	N262	N	0.464652	0.828028	0.088458
	N263	N	0.538771	0.828367	0.915409
	N264	N	0.464441	0.920727	0.181151
	N265	N	0.537946	0.093012	0.179182
	N266	N	0.465210	0.094592	0.822384
	N267	N	0.539765	0.923028	0.824023
	N268	N	0.913714	0.188347	0.465107
	N269	N	0.084719	0.183879	0.539862
	N270	N	0.087360	0.828859	0.464789
	N271	N	0.914800	0.828547	0.538702
	N272	N	0.180060	0.471824	0.915618
	N273	N	0.180305	0.544605	0.088980
	N274	N	0.822921	0.469545	0.088581
	N275	N	0.821751	0.543128	0.915730
	O276	O	0.499521	0.448797	0.486282
	H277	H	0.507476	0.460839	0.477131
	H278	H	0.495383	0.443744	0.486555
	O279	O	0.508849	0.562005	0.597672
	H280	H	0.497422	0.559257	0.594214
	H281	H	0.502469	0.577638	0.602322
	O282	O	1.081068	0.850842	-0.098946
	H283	H	1.079628	0.849228	-0.081768
	H284	H	1.075831	0.844958	-0.111887
	O285	O	1.100895	0.038106	0.858899
	H286	H	1.119576	0.042080	0.844524
	H287	H	1.117894	0.031184	0.875624
	O288	O	0.503419	0.587222	0.386564
	H289	H	0.500269	0.588595	0.402394
	H290	H	0.499480	0.593676	0.389609
	O291	O	0.442556	0.489206	0.422084
	H292	H	0.442020	0.499726	0.405080
	H293	H	0.440594	0.488068	0.424724
	O294	O	0.507239	0.562056	0.546121
	H295	H	0.506007	0.547027	0.536617
	H296	H	0.506852	0.559285	0.540019
	O297	O	-0.402827	-0.545363	1.547610
	H298	H	-0.396214	-0.547704	1.562047
	H299	H	-0.397983	-0.540992	1.545281
	O300	O	-0.129061	0.018696	0.034246
	H301	H	-0.130098	0.024183	0.030000
	H302	H	-0.120179	-0.001305	0.024405
	O303	O	0.889797	0.930983	0.150553
	H304	H	0.888581	0.939744	0.155718
	H305	H	0.891354	0.925349	0.147655
	O306	O	0.130666	1.122011	0.990954
	H307	H	0.125242	1.109940	0.996822
	H308	H	0.138800	1.119179	0.981163
	O309	O	0.551225	0.543699	0.496607
	H310	H	0.548789	0.544139	0.487139
	H311	H	0.544089	0.549558	0.500980
	O312	O	-0.029845	-0.107466	-0.023029
	H313	H	-0.031267	-0.100096	-0.029264
	H314	H	-0.046457	-0.119805	-0.009506
	O315	O	0.904367	0.149848	-0.135829
	H316	H	0.905355	0.141975	-0.149307
	H317	H	0.906991	0.163945	-0.146898
	O318	O	0.903029	1.097764	1.030140
	H319	H	0.905236	1.106998	1.007344
	H320	H	0.891839	1.096860	1.026179
	O321	O	0.060912	-0.963486	1.001257
	H322	H	0.073328	-0.964236	1.004287
	H323	H	0.066430	-0.963942	1.005164
	O324	O	0.557145	0.572587	0.536639
	H325	H	0.556931	0.569960	0.544840
	H326	H	0.541611	0.557671	0.526539
	O327	O	-0.061520	-0.045122	-0.102159
	H328	H	-0.045382	-0.040764	-0.104417
	H329	H	-0.069800	-0.034300	-0.105010
	O330	O	0.455267	0.490869	0.596846
	H331	H	0.454983	0.491831	0.595316
	H332	H	0.457522	0.497605	0.591956
	O333	O	0.115607	1.024714	1.126348
	H334	H	0.109644	1.030936	1.141394
	H335	H	0.103071	1.031839	1.126563
	O336	O	-0.114486	0.048860	0.045398
	H337	H	-0.104781	0.048857	0.043490
	H338	H	-0.117006	0.053066	0.052611
	O339	O	0.476823	0.549540	0.438289
	H340	H	0.483044	0.541945	0.437981
	H341	H	0.474597	0.546846	0.434711
	O342	O	0.995117	0.919592	1.083045
	H343	H	0.992280	0.910034	1.080565
	H344	H	0.989600	0.917889	1.090582
	O345	O	0.926542	0.974434	-0.075431
	H346	H	0.919737	0.976205	-0.072297
	H347	H	0.919923	0.972862	-0.071755
	O348	O	0.478189	0.456002	0.557796
	H349	H	0.479377	0.462580	0.540736
	H350	H	0.492284	0.457394	0.560925
	O351	O	0.560403	0.588715	0.576639
	H352	H	0.567946	0.598299	0.566416
	H353	H	0.560219	0.584214	0.586327
	O354	O	1.051047	-0.021484	0.955433
	H355	H	1.048853	-0.020060	0.943102
	H356	H	1.053335	-0.026189	0.966025
	O357	O	1.050810	-0.042927	1.113269
	H358	H	1.045922	-0.036296	1.121753
	H359	H	1.048057	-0.037070	1.112855
	O360	O	1.133125	0.896642	-0.030325
	H361	H	1.137527	0.891965	-0.040718
	H362	H	1.125470	0.887674	-0.016112
	O363	O	0.479460	0.545812	0.522597
	H364	H	0.472853	0.544125	0.522805
	H365	H	0.489334	0.542587	0.522074
	O366	O	0.549103	1.473065	0.521140
	H367	H	0.558761	1.478263	0.517340
	H368	H	0.547195	1.485660	0.525101
	O369	O	1.028596	-0.033585	1.049436
	H370	H	1.028606	-0.029815	1.051523
	H371	H	1.032768	-0.042431	1.049523
	O372	O	0.064520	0.102224	0.084905
	H373	H	0.058303	0.107333	0.086908
	H374	H	0.062594	0.114958	0.089457
	O375	O	1.022959	0.140826	-0.040215
	H376	H	1.029851	0.143986	-0.047981
	H377	H	1.029308	0.151117	-0.044859
	O378	O	0.546310	0.546964	0.460921
	H379	H	0.549305	0.546748	0.475471
	H380	H	0.549121	0.557082	0.455769
	O381	O	0.549138	0.474160	0.432433
	H382	H	0.559791	0.484553	0.423522
	H383	H	0.547734	0.466554	0.428075
