data_Molecule from HDF5

_cell_length_a		16.326777
_cell_length_b		16.248589
_cell_length_c		16.327914
_cell_angle_alpha	90.031241
_cell_angle_beta	89.984357
_cell_angle_gamma	89.971711
_symmetry_space_group_name_H-M	'P 1'
_symmetry_Int_Tables_number		1

loop_
	_symmetry_equiv_pos_as_xyz
	x,y,z

loop_
	_atom_site_label
	_atom_site_type_symbol
	_atom_site_fract_x
	_atom_site_fract_y
	_atom_site_fract_z
	H0	H	0.402831	0.836079	0.713127
	H1	H	0.597824	0.164117	0.714050
	H2	H	0.598508	0.836170	0.285615
	H3	H	0.402381	0.163457	0.285825
	H4	H	0.715378	0.401383	0.837028
	H5	H	0.714239	0.598491	0.163397
	H6	H	0.285541	0.598201	0.836335
	H7	H	0.284845	0.401608	0.163970
	H8	H	0.835944	0.712814	0.403587
	H9	H	0.163483	0.714136	0.597378
	H10	H	0.835862	0.286853	0.597097
	H11	H	0.163944	0.286727	0.402453
	H12	H	0.837169	0.401591	0.715285
	H13	H	0.163661	0.597820	0.713466
	H14	H	0.836806	0.599457	0.284599
	H15	H	0.163507	0.401861	0.285379
	H16	H	0.402841	0.713776	0.835696
	H17	H	0.596322	0.713579	0.163899
	H18	H	0.597847	0.285908	0.836119
	H19	H	0.403050	0.286352	0.163538
	H20	H	0.713793	0.835809	0.402059
	H21	H	0.713304	0.164364	0.597834
	H22	H	0.285506	0.836571	0.598145
	H23	H	0.286324	0.163793	0.401743
	H24	H	0.901882	0.335759	0.214385
	H25	H	0.098747	0.664053	0.214645
	H26	H	0.099016	0.335845	0.785980
	H27	H	0.902647	0.663912	0.787012
	H28	H	0.214489	0.901753	0.336403
	H29	H	0.214398	0.097997	0.663169
	H30	H	0.784796	0.099149	0.336996
	H31	H	0.785260	0.902229	0.663454
	H32	H	0.335980	0.213224	0.903668
	H33	H	0.663803	0.213772	0.096992
	H34	H	0.336158	0.787434	0.096959
	H35	H	0.663819	0.786545	0.902836
	H36	H	0.336160	0.902363	0.214263
	H37	H	0.663120	0.098569	0.215119
	H38	H	0.336216	0.098543	0.786264
	H39	H	0.662386	0.901557	0.785125
	H40	H	0.903130	0.213206	0.336071
	H41	H	0.095821	0.213035	0.664234
	H42	H	0.097105	0.786132	0.336260
	H43	H	0.902926	0.786847	0.663566
	H44	H	0.213482	0.336329	0.902410
	H45	H	0.214106	0.664433	0.098075
	H46	H	0.785870	0.335507	0.098344
	H47	H	0.785795	0.663862	0.902151
	H48	H	0.408104	0.115745	0.591153
	H49	H	0.598066	0.883927	0.584923
	H50	H	0.598274	0.119227	0.404911
	H51	H	0.414957	0.886360	0.409699
	H52	H	0.591385	0.402825	0.116411
	H53	H	0.595571	0.595823	0.882028
	H54	H	0.405135	0.594816	0.117138
	H55	H	0.402443	0.399739	0.880706
	H56	H	0.112025	0.581587	0.407797
	H57	H	0.882315	0.592019	0.601160
	H58	H	0.115212	0.402652	0.586635
	H59	H	0.879670	0.398584	0.399296
	H60	H	0.115473	0.414078	0.595274
	H61	H	0.882502	0.599824	0.590836
	H62	H	0.119844	0.595911	0.397558
	H63	H	0.886038	0.404461	0.416505
	H64	H	0.405732	0.591401	0.115737
	H65	H	0.595277	0.590737	0.883874
	H66	H	0.597596	0.407369	0.117251
	H67	H	0.401213	0.413486	0.884201
	H68	H	0.587226	0.116265	0.403692
	H69	H	0.598454	0.879656	0.600875
	H70	H	0.404042	0.117494	0.591683
	H71	H	0.399126	0.882483	0.412363
	H72	H	0.904839	0.615935	0.091138
	H73	H	0.101947	0.380949	0.093182
	H74	H	0.083982	0.616971	0.897355
	H75	H	0.906586	0.385455	0.914439
	H76	H	0.088254	0.903541	0.615328
	H77	H	0.099003	0.097048	0.380979
	H78	H	0.906369	0.099477	0.617792
	H79	H	0.909433	0.909678	0.385225
	H80	H	0.617931	0.098814	0.905337
	H81	H	0.385716	0.086813	0.094130
	H82	H	0.613874	0.909927	0.087478
	H83	H	0.390690	0.918657	0.918325
	H84	H	0.616890	0.910847	0.100369
	H85	H	0.381440	0.095467	0.098871
	H86	H	0.613996	0.091893	0.910794
	H87	H	0.379290	0.912242	0.888685
	H88	H	0.901437	0.090382	0.616892
	H89	H	0.094691	0.087859	0.384853
	H90	H	0.098953	0.903844	0.618855
	H91	H	0.907851	0.902719	0.383192
	H92	H	0.089967	0.612902	0.918206
	H93	H	0.087493	0.382951	0.100236
	H94	H	0.905860	0.616777	0.095566
	H95	H	0.902129	0.380130	0.903681
	H96	H	0.406815	0.117595	0.595621
	H97	H	0.584756	0.885322	0.594140
	H98	H	0.592140	0.114150	0.413469
	H99	H	0.405812	0.879447	0.397607
	H100	H	0.590875	0.410692	0.114189
	H101	H	0.590563	0.593581	0.884403
	H102	H	0.408555	0.594081	0.115665
	H103	H	0.414223	0.406273	0.886368
	H104	H	0.114639	0.598647	0.415946
	H105	H	0.886969	0.587764	0.589612
	H106	H	0.119778	0.401316	0.600499
	H107	H	0.886095	0.416904	0.401855
	H108	H	0.908823	0.615571	0.092738
	H109	H	0.089626	0.387494	0.085005
	H110	H	0.105136	0.621670	0.904136
	H111	H	0.914594	0.384441	0.903901
	H112	H	0.093590	0.913039	0.614133
	H113	H	0.089040	0.096888	0.383905
	H114	H	0.911112	0.091237	0.614381
	H115	H	0.902422	0.908246	0.382556
	H116	H	0.616662	0.089586	0.901394
	H117	H	0.384765	0.096137	0.088546
	H118	H	0.617900	0.899201	0.093699
	H119	H	0.379425	0.888773	0.910713
	C120	C	0.378483	0.008519	0.621307
	C121	C	0.621529	0.991529	0.621502
	C122	C	0.621257	0.008181	0.378775
	C123	C	0.378601	0.991388	0.378444
	C124	C	0.621846	0.377973	0.008358
	C125	C	0.621589	0.621518	0.991755
	C126	C	0.378319	0.621846	0.007910
	C127	C	0.377899	0.378321	0.991916
	C128	C	0.008017	0.621223	0.378371
	C129	C	0.991977	0.621407	0.621630
	C130	C	0.008433	0.378334	0.621949
	C131	C	0.992083	0.378354	0.377956
	C132	C	0.878314	0.507809	0.121535
	C133	C	0.121449	0.492281	0.121410
	C134	C	0.121816	0.508699	0.878365
	C135	C	0.879213	0.491681	0.878935
	C136	C	0.121567	0.878603	0.508196
	C137	C	0.121836	0.121604	0.491576
	C138	C	0.878335	0.121684	0.508012
	C139	C	0.878144	0.878779	0.491569
	C140	C	0.508053	0.121581	0.878165
	C141	C	0.491887	0.121436	0.121914
	C142	C	0.508111	0.878352	0.121958
	C143	C	0.491469	0.878595	0.878036
	C144	C	0.381854	0.884951	0.675450
	C145	C	0.618458	0.115157	0.676281
	C146	C	0.618748	0.884789	0.323831
	C147	C	0.381467	0.114615	0.323697
	C148	C	0.677419	0.380417	0.885536
	C149	C	0.676264	0.618723	0.114701
	C150	C	0.323771	0.618840	0.884898
	C151	C	0.323039	0.381365	0.115077
	C152	C	0.884894	0.675929	0.381730
	C153	C	0.114871	0.676317	0.618347
	C154	C	0.884981	0.324151	0.618443
	C155	C	0.115187	0.324283	0.381777
	C156	C	0.885648	0.381190	0.677139
	C157	C	0.114902	0.618686	0.676173
	C158	C	0.885369	0.619443	0.322987
	C159	C	0.114750	0.380993	0.323026
	C160	C	0.381796	0.676307	0.884634
	C161	C	0.617982	0.676113	0.114917
	C162	C	0.618917	0.323376	0.885088
	C163	C	0.381460	0.323932	0.115028
	C164	C	0.675983	0.884794	0.381560
	C165	C	0.675809	0.115388	0.618600
	C166	C	0.323408	0.885211	0.618833
	C167	C	0.323957	0.114671	0.381203
	C168	C	0.881486	0.384469	0.176112
	C169	C	0.118842	0.615404	0.176656
	C170	C	0.119124	0.385086	0.823783
	C171	C	0.881848	0.614999	0.824445
	C172	C	0.176502	0.881263	0.385100
	C173	C	0.176335	0.118477	0.614712
	C174	C	0.823123	0.119050	0.385572
	C175	C	0.823567	0.881793	0.614783
	C176	C	0.384789	0.175862	0.882391
	C177	C	0.614806	0.176345	0.118459
	C178	C	0.384934	0.824491	0.118186
	C179	C	0.614668	0.824540	0.881745
	C180	C	0.385189	0.881631	0.176302
	C181	C	0.614624	0.119252	0.177178
	C182	C	0.385129	0.119345	0.823790
	C183	C	0.613992	0.881271	0.822939
	C184	C	0.881933	0.175744	0.385046
	C185	C	0.117774	0.175753	0.615041
	C186	C	0.118520	0.823548	0.385026
	C187	C	0.881660	0.824274	0.614739
	C188	C	0.176374	0.385091	0.881258
	C189	C	0.176584	0.615543	0.119074
	C190	C	0.823928	0.384233	0.118479
	C191	C	0.823550	0.614849	0.881486
	C192	C	0.400104	0.094708	0.599311
	C193	C	0.600136	0.905361	0.599816
	C194	C	0.598902	0.094318	0.400826
	C195	C	0.400256	0.905064	0.400171
	C196	C	0.599786	0.400231	0.093818
	C197	C	0.600062	0.599779	0.905606
	C198	C	0.400222	0.599941	0.093869
	C199	C	0.399636	0.400134	0.906066
	C200	C	0.093497	0.598628	0.400627
	C201	C	0.906063	0.599585	0.600161
	C202	C	0.094584	0.399650	0.600313
	C203	C	0.906070	0.400133	0.399624
	C204	C	0.900019	0.593860	0.099557
	C205	C	0.099533	0.405991	0.099311
	C206	C	0.099629	0.594927	0.900281
	C207	C	0.901313	0.405537	0.900968
	C208	C	0.099957	0.900319	0.593855
	C209	C	0.100612	0.100182	0.405538
	C210	C	0.899827	0.100061	0.594220
	C211	C	0.899980	0.900425	0.405780
	C212	C	0.593991	0.099746	0.899564
	C213	C	0.406151	0.099327	0.100311
	C214	C	0.594087	0.900195	0.100233
	C215	C	0.405267	0.900244	0.899635
	Zn216	Zn	0.499464	0.000138	0.749406
	Zn217	Zn	0.500083	-0.000308	0.250734
	Zn218	Zn	0.750460	0.499494	0.000048
	Zn219	Zn	0.249478	0.500276	-0.000003
	Zn220	Zn	-0.000007	0.749589	0.499966
	Zn221	Zn	-0.000112	0.250213	0.499927
	Zn222	Zn	0.000599	0.499933	0.750495
	Zn223	Zn	0.000001	0.500050	0.249531
	Zn224	Zn	0.499939	0.750326	-0.000158
	Zn225	Zn	0.500041	0.249972	-0.000127
	Zn226	Zn	0.749435	0.000165	0.500186
	Zn227	Zn	0.250457	-0.000179	0.499765
	N228	N	0.415143	0.962649	0.677164
	N229	N	0.585493	0.037241	0.678397
	N230	N	0.585459	0.962615	0.321992
	N231	N	0.414848	0.036969	0.322182
	N232	N	0.679324	0.413682	0.963006
	N233	N	0.678564	0.585546	0.037082
	N234	N	0.321509	0.585824	0.962453
	N235	N	0.320633	0.414279	0.037388
	N236	N	0.962124	0.677286	0.415426
	N237	N	0.037509	0.677995	0.585114
	N238	N	0.962304	0.322501	0.584612
	N239	N	0.037776	0.322428	0.415041
	N240	N	0.963247	0.414180	0.679244
	N241	N	0.037487	0.585369	0.678351
	N242	N	0.962952	0.586157	0.320887
	N243	N	0.037251	0.414285	0.320924
	N244	N	0.415009	0.678348	0.962199
	N245	N	0.584724	0.678040	0.037534
	N246	N	0.584912	0.321940	0.962373
	N247	N	0.414871	0.321952	0.037625
	N248	N	0.677446	0.962539	0.415185
	N249	N	0.677790	0.037659	0.585264
	N250	N	0.321326	0.963101	0.585769
	N251	N	0.322172	0.036926	0.414692
	N252	N	0.914679	0.462381	0.178095
	N253	N	0.085529	0.537654	0.178221
	N254	N	0.085923	0.462818	0.821768
	N255	N	0.915624	0.537382	0.822708
	N256	N	0.178552	0.914589	0.462555
	N257	N	0.179044	0.085566	0.536931
	N258	N	0.820896	0.086244	0.463146
	N259	N	0.821521	0.915021	0.537373
	N260	N	0.462300	0.177420	0.915495
	N261	N	0.537645	0.177701	0.084851
	N262	N	0.462379	0.822560	0.084781
	N263	N	0.537365	0.822856	0.915294
	N264	N	0.462953	0.914220	0.178798
	N265	N	0.537199	0.085721	0.179247
	N266	N	0.462742	0.086259	0.821118
	N267	N	0.536282	0.914219	0.820782
	N268	N	0.915606	0.177489	0.462364
	N269	N	0.084724	0.177682	0.537545
	N270	N	0.084804	0.821922	0.462392
	N271	N	0.915102	0.822259	0.537292
	N272	N	0.178105	0.462996	0.914517
	N273	N	0.178066	0.537960	0.085329
	N274	N	0.821767	0.461985	0.085438
	N275	N	0.822194	0.537199	0.914963
