data_Molecule from HDF5

_cell_length_a		16.172674
_cell_length_b		16.335379
_cell_length_c		16.337792
_cell_angle_alpha	90.027919
_cell_angle_beta	89.950925
_cell_angle_gamma	89.838858
_symmetry_space_group_name_H-M	'P 1'
_symmetry_Int_Tables_number		1

loop_
	_symmetry_equiv_pos_as_xyz
	x,y,z

loop_
	_atom_site_label
	_atom_site_type_symbol
	_atom_site_fract_x
	_atom_site_fract_y
	_atom_site_fract_z
	H0	H	0.396299	0.842910	0.709903
	H1	H	0.595378	0.168490	0.710887
	H2	H	0.595570	0.843778	0.278248
	H3	H	0.395937	0.169246	0.278929
	H4	H	0.711638	0.407981	0.831432
	H5	H	0.709769	0.602607	0.158644
	H6	H	0.282975	0.602373	0.831273
	H7	H	0.282462	0.408972	0.159218
	H8	H	0.831993	0.720523	0.397259
	H9	H	0.161108	0.720811	0.593143
	H10	H	0.831579	0.293675	0.594738
	H11	H	0.161087	0.291370	0.396438
	H12	H	0.832389	0.409202	0.709661
	H13	H	0.161640	0.605631	0.709633
	H14	H	0.832337	0.606090	0.281172
	H15	H	0.161426	0.408072	0.281266
	H16	H	0.394716	0.722362	0.832158
	H17	H	0.595223	0.721376	0.157995
	H18	H	0.597644	0.289530	0.831617
	H19	H	0.396509	0.289540	0.157710
	H20	H	0.710650	0.842417	0.396515
	H21	H	0.708277	0.170560	0.591262
	H22	H	0.283060	0.842323	0.590730
	H23	H	0.282291	0.169610	0.397574
	H24	H	0.897962	0.342848	0.211000
	H25	H	0.095813	0.669787	0.210291
	H26	H	0.097551	0.343419	0.779115
	H27	H	0.897048	0.668538	0.779616
	H28	H	0.210212	0.908272	0.330783
	H29	H	0.210073	0.103097	0.658577
	H30	H	0.784666	0.101767	0.330298
	H31	H	0.781704	0.909250	0.657965
	H32	H	0.332402	0.221177	0.895391
	H33	H	0.661511	0.218661	0.092245
	H34	H	0.331491	0.791293	0.093306
	H35	H	0.660859	0.791244	0.896006
	H36	H	0.330773	0.908263	0.208544
	H37	H	0.660255	0.105064	0.208654
	H38	H	0.331791	0.104028	0.780899
	H39	H	0.660738	0.906130	0.779998
	H40	H	0.896641	0.222602	0.332342
	H41	H	0.094991	0.221113	0.658340
	H42	H	0.096102	0.789651	0.332332
	H43	H	0.896351	0.791418	0.658441
	H44	H	0.210261	0.341827	0.898634
	H45	H	0.210350	0.669935	0.091656
	H46	H	0.784403	0.341825	0.091699
	H47	H	0.783230	0.669600	0.899121
	H48	H	0.407723	0.122523	0.594488
	H49	H	0.587298	0.888788	0.593938
	H50	H	0.579641	0.117869	0.405654
	H51	H	0.402735	0.888587	0.399296
	H52	H	0.593907	0.408804	0.112741
	H53	H	0.578677	0.604757	0.880537
	H54	H	0.409527	0.588125	0.105842
	H55	H	0.407421	0.410566	0.879947
	H56	H	0.115440	0.595674	0.394766
	H57	H	0.879097	0.600370	0.590425
	H58	H	0.112206	0.424719	0.592032
	H59	H	0.877793	0.402214	0.408992
	H60	H	0.118891	0.403884	0.595095
	H61	H	0.880593	0.600505	0.585463
	H62	H	0.116129	0.607016	0.402820
	H63	H	0.884719	0.425389	0.409698
	H64	H	0.412388	0.610800	0.111369
	H65	H	0.598771	0.604825	0.874439
	H66	H	0.589419	0.416326	0.109467
	H67	H	0.401450	0.410086	0.878149
	H68	H	0.597923	0.123308	0.405891
	H69	H	0.584148	0.892572	0.582539
	H70	H	0.404798	0.119508	0.582740
	H71	H	0.406327	0.890413	0.399628
	H72	H	0.897576	0.623006	0.087297
	H73	H	0.077636	0.393240	0.090202
	H74	H	0.092623	0.624655	0.894489
	H75	H	0.909452	0.390740	0.900733
	H76	H	0.094040	0.917009	0.610745
	H77	H	0.093793	0.093208	0.378907
	H78	H	0.908022	0.099412	0.609863
	H79	H	0.914177	0.913583	0.382473
	H80	H	0.615671	0.106056	0.902302
	H81	H	0.381528	0.093320	0.085019
	H82	H	0.612919	0.919147	0.092511
	H83	H	0.376344	0.910503	0.895901
	H84	H	0.616023	0.905823	0.089729
	H85	H	0.376615	0.099003	0.093342
	H86	H	0.610128	0.093447	0.908486
	H87	H	0.379641	0.909315	0.907404
	H88	H	0.900751	0.106584	0.613903
	H89	H	0.080266	0.099248	0.382309
	H90	H	0.083296	0.914848	0.608237
	H91	H	0.900147	0.902474	0.374688
	H92	H	0.081855	0.619146	0.901911
	H93	H	0.095354	0.391727	0.078715
	H94	H	0.904279	0.623644	0.094992
	H95	H	0.902142	0.389484	0.905168
	H96	H	0.396327	0.124061	0.589744
	H97	H	0.595898	0.888822	0.584932
	H98	H	0.587735	0.124954	0.390130
	H99	H	0.403618	0.890404	0.402715
	H100	H	0.585086	0.407985	0.110372
	H101	H	0.589837	0.587444	0.882074
	H102	H	0.390747	0.600730	0.115213
	H103	H	0.404273	0.415700	0.880230
	H104	H	0.111075	0.594698	0.408126
	H105	H	0.880791	0.595808	0.588393
	H106	H	0.111089	0.409953	0.575911
	H107	H	0.876038	0.415806	0.389511
	H108	H	0.907580	0.619493	0.086049
	H109	H	0.095650	0.385674	0.099338
	H110	H	0.094774	0.622186	0.908100
	H111	H	0.902728	0.388204	0.897087
	H112	H	0.089670	0.906038	0.612033
	H113	H	0.091012	0.107742	0.375563
	H114	H	0.897401	0.096785	0.611231
	H115	H	0.897273	0.920623	0.379275
	H116	H	0.614280	0.093552	0.894569
	H117	H	0.378733	0.104033	0.083446
	H118	H	0.610258	0.913890	0.079336
	H119	H	0.381214	0.920235	0.901880
	C120	C	0.374451	0.013889	0.616737
	C121	C	0.617514	0.997700	0.615755
	C122	C	0.617655	0.014491	0.372396
	C123	C	0.375047	0.998179	0.372440
	C124	C	0.618754	0.382900	0.003125
	C125	C	0.617741	0.627307	0.986624
	C126	C	0.375128	0.627503	0.002869
	C127	C	0.375166	0.383709	0.986975
	C128	C	0.005156	0.627570	0.374213
	C129	C	0.988552	0.627772	0.616787
	C130	C	0.005189	0.384908	0.616423
	C131	C	0.988357	0.385203	0.373896
	C132	C	0.874909	0.513862	0.117599
	C133	C	0.118248	0.498370	0.117078
	C134	C	0.118634	0.514207	0.873137
	C135	C	0.875477	0.497375	0.873399
	C136	C	0.117887	0.884086	0.502843
	C137	C	0.117446	0.127875	0.486786
	C138	C	0.873978	0.128593	0.503487
	C139	C	0.874679	0.884166	0.486738
	C140	C	0.504756	0.126766	0.873387
	C141	C	0.487902	0.127448	0.115724
	C142	C	0.503983	0.884754	0.115607
	C143	C	0.487885	0.884147	0.872952
	C144	C	0.376257	0.891538	0.671728
	C145	C	0.615287	0.120309	0.671818
	C146	C	0.615962	0.891935	0.316856
	C147	C	0.376430	0.120670	0.317442
	C148	C	0.674182	0.386499	0.880231
	C149	C	0.672300	0.623954	0.109826
	C150	C	0.320080	0.623799	0.879960
	C151	C	0.320015	0.387249	0.110174
	C152	C	0.881108	0.682680	0.376615
	C153	C	0.112157	0.683029	0.614125
	C154	C	0.880922	0.331015	0.614523
	C155	C	0.111895	0.329267	0.376234
	C156	C	0.881360	0.388241	0.671882
	C157	C	0.112320	0.625917	0.671950
	C158	C	0.881179	0.625338	0.319462
	C159	C	0.112053	0.387266	0.318896
	C160	C	0.375940	0.683164	0.880445
	C161	C	0.615528	0.682883	0.109392
	C162	C	0.617148	0.327996	0.880281
	C163	C	0.376453	0.327929	0.109405
	C164	C	0.673070	0.891504	0.375458
	C165	C	0.671242	0.121305	0.612305
	C166	C	0.320017	0.891169	0.612669
	C167	C	0.319632	0.120750	0.376147
	C168	C	0.877684	0.391402	0.172791
	C169	C	0.116108	0.621097	0.172053
	C170	C	0.117539	0.391767	0.817448
	C171	C	0.877459	0.620285	0.818472
	C172	C	0.172276	0.887669	0.379524
	C173	C	0.171977	0.123942	0.609983
	C174	C	0.820521	0.124349	0.379794
	C175	C	0.819688	0.888085	0.609551
	C176	C	0.381234	0.182840	0.875230
	C177	C	0.611902	0.181613	0.112950
	C178	C	0.380176	0.829878	0.113189
	C179	C	0.611738	0.828828	0.875327
	C180	C	0.380158	0.887613	0.170773
	C181	C	0.611411	0.125279	0.170781
	C182	C	0.380796	0.124628	0.818578
	C183	C	0.611630	0.885823	0.817645
	C184	C	0.876079	0.184288	0.380800
	C185	C	0.114970	0.182616	0.609864
	C186	C	0.116081	0.828364	0.380546
	C187	C	0.876419	0.829147	0.609520
	C188	C	0.173135	0.390928	0.877243
	C189	C	0.173203	0.621142	0.113370
	C190	C	0.821152	0.390773	0.113670
	C191	C	0.820413	0.620585	0.877329
	C192	C	0.396410	0.099797	0.595212
	C193	C	0.595602	0.912398	0.593757
	C194	C	0.595017	0.099953	0.394221
	C195	C	0.397679	0.911892	0.394156
	C196	C	0.596065	0.404579	0.088682
	C197	C	0.595620	0.605581	0.901120
	C198	C	0.397618	0.606179	0.088531
	C199	C	0.397670	0.405617	0.901550
	C200	C	0.091731	0.605639	0.395664
	C201	C	0.902462	0.605382	0.594667
	C202	C	0.091722	0.406456	0.594189
	C203	C	0.901834	0.407739	0.396295
	C204	C	0.896693	0.599996	0.096004
	C205	C	0.096116	0.412401	0.095723
	C206	C	0.096245	0.599866	0.894886
	C207	C	0.898019	0.411742	0.894742
	C208	C	0.095739	0.906161	0.588398
	C209	C	0.095098	0.106316	0.401319
	C210	C	0.895644	0.107200	0.589391
	C211	C	0.897271	0.905756	0.400929
	C212	C	0.591015	0.104192	0.895238
	C213	C	0.401297	0.105247	0.093727
	C214	C	0.590796	0.906453	0.093599
	C215	C	0.401573	0.906622	0.895343
	Zn216	Zn	0.496222	0.005394	0.745044
	Zn217	Zn	0.495872	0.006366	0.243295
	Zn218	Zn	0.746737	0.505314	-0.004614
	Zn219	Zn	0.247017	0.505814	-0.004957
	Zn220	Zn	-0.003804	0.755107	0.495208
	Zn221	Zn	-0.004332	0.257122	0.495475
	Zn222	Zn	-0.002478	0.506039	0.744292
	Zn223	Zn	-0.003314	0.506555	0.245941
	Zn224	Zn	0.496278	0.756372	-0.005285
	Zn225	Zn	0.496881	0.254634	-0.005071
	Zn226	Zn	0.746266	0.006354	0.494798
	Zn227	Zn	0.246538	0.005907	0.494328
	N228	N	0.409325	0.968939	0.674213
	N229	N	0.582681	0.042634	0.674272
	N230	N	0.582074	0.969199	0.315001
	N231	N	0.410317	0.043312	0.315478
	N232	N	0.675140	0.420184	0.957401
	N233	N	0.673842	0.589977	0.032699
	N234	N	0.319568	0.589807	0.956863
	N235	N	0.318896	0.421089	0.033062
	N236	N	0.959063	0.684077	0.410010
	N237	N	0.034118	0.684184	0.580447
	N238	N	0.958783	0.328986	0.580685
	N239	N	0.033760	0.328201	0.409910
	N240	N	0.959599	0.421287	0.673017
	N241	N	0.034606	0.591982	0.673393
	N242	N	0.959369	0.591750	0.317750
	N243	N	0.034297	0.421450	0.317573
	N244	N	0.409393	0.685714	0.957986
	N245	N	0.582581	0.685202	0.031865
	N246	N	0.583434	0.325595	0.957678
	N247	N	0.410173	0.325721	0.032019
	N248	N	0.674387	0.968766	0.409192
	N249	N	0.672963	0.044223	0.578315
	N250	N	0.318957	0.968396	0.578962
	N251	N	0.318672	0.043365	0.409570
	N252	N	0.910261	0.469173	0.175301
	N253	N	0.082823	0.543685	0.174444
	N254	N	0.084100	0.469271	0.815129
	N255	N	0.910976	0.542861	0.815891
	N256	N	0.173713	0.921469	0.456704
	N257	N	0.173594	0.090570	0.532685
	N258	N	0.819241	0.090405	0.456948
	N259	N	0.818427	0.921353	0.532243
	N260	N	0.459150	0.183976	0.908829
	N261	N	0.534004	0.182800	0.079283
	N262	N	0.458252	0.828140	0.079760
	N263	N	0.533752	0.827627	0.908991
	N264	N	0.458156	0.921125	0.172140
	N265	N	0.533140	0.092401	0.172727
	N266	N	0.458695	0.090488	0.817180
	N267	N	0.533571	0.919588	0.816090
	N268	N	0.908695	0.186926	0.458505
	N269	N	0.081804	0.185296	0.532384
	N270	N	0.082853	0.826176	0.458071
	N271	N	0.910173	0.826951	0.532033
	N272	N	0.174075	0.468075	0.911118
	N273	N	0.174329	0.543844	0.079679
	N274	N	0.819410	0.468026	0.080231
	N275	N	0.819068	0.543136	0.910600
	O276	O	-0.503543	-0.554271	1.497177
	H277	H	-0.500946	-0.554504	1.504208
	H278	H	-0.508710	-0.556365	1.500847
	O279	O	0.541480	0.456439	0.469441
	H280	H	0.544622	0.453992	0.468689
	H281	H	0.536717	0.450548	0.471132
	O282	O	0.547778	0.503627	0.502530
	H283	H	0.545559	0.494506	0.503001
	H284	H	0.544162	0.494415	0.501836
	O285	O	0.527723	0.531698	0.540270
	H286	H	0.519387	0.532015	0.538737
	H287	H	0.526917	0.530775	0.534115
	O288	O	0.532569	0.564602	0.518225
	H289	H	0.548733	0.565643	0.514748
	H290	H	0.540717	0.568576	0.513359
	O291	O	0.475450	1.475271	1.520985
	H292	H	0.479201	1.467996	1.525701
	H293	H	0.475619	1.470996	1.516695
	O294	O	0.534464	0.452704	0.503454
	H295	H	0.535030	0.458239	0.495999
	H296	H	0.541335	0.461993	0.506172
	O297	O	1.547013	-0.521802	-0.479546
	H298	H	1.556031	-0.519338	-0.469454
	H299	H	1.539675	-0.519809	-0.479381
