data_Molecule from HDF5

_cell_length_a		16.365523
_cell_length_b		16.071672
_cell_length_c		16.365051
_cell_angle_alpha	90.204611
_cell_angle_beta	90.355767
_cell_angle_gamma	89.625096
_symmetry_space_group_name_H-M	'P 1'
_symmetry_Int_Tables_number		1

loop_
	_symmetry_equiv_pos_as_xyz
	x,y,z

loop_
	_atom_site_label
	_atom_site_type_symbol
	_atom_site_fract_x
	_atom_site_fract_y
	_atom_site_fract_z
	H0	H	0.404358	0.831680	0.718265
	H1	H	0.600706	0.161270	0.723515
	H2	H	0.601897	0.832558	0.289927
	H3	H	0.396927	0.161380	0.289736
	H4	H	0.717688	0.393134	0.844026
	H5	H	0.718997	0.598818	0.167855
	H6	H	0.279945	0.599509	0.845271
	H7	H	0.283670	0.393643	0.167633
	H8	H	0.837621	0.710739	0.408708
	H9	H	0.164616	0.708284	0.605420
	H10	H	0.836479	0.284274	0.601368
	H11	H	0.163576	0.277988	0.409229
	H12	H	0.838487	0.396274	0.722060
	H13	H	0.162046	0.598390	0.727496
	H14	H	0.839310	0.597633	0.287869
	H15	H	0.162061	0.388851	0.288639
	H16	H	0.401199	0.710337	0.843057
	H17	H	0.597342	0.709466	0.169971
	H18	H	0.597786	0.280820	0.842825
	H19	H	0.405368	0.283037	0.169930
	H20	H	0.716546	0.832228	0.405616
	H21	H	0.715449	0.161604	0.609250
	H22	H	0.289549	0.831126	0.603662
	H23	H	0.281840	0.160629	0.404484
	H24	H	0.902255	0.330203	0.219354
	H25	H	0.101115	0.659972	0.223534
	H26	H	0.100497	0.330802	0.792765
	H27	H	0.897956	0.661012	0.791727
	H28	H	0.219199	0.890542	0.344382
	H29	H	0.219175	0.098284	0.667493
	H30	H	0.779018	0.100368	0.345841
	H31	H	0.784854	0.894987	0.668977
	H32	H	0.337812	0.211956	0.908765
	H33	H	0.663138	0.210893	0.107065
	H34	H	0.336460	0.784944	0.101684
	H35	H	0.663784	0.779902	0.908631
	H36	H	0.339239	0.895572	0.222986
	H37	H	0.661310	0.100076	0.227445
	H38	H	0.339524	0.101075	0.787768
	H39	H	0.662784	0.893804	0.789587
	H40	H	0.900129	0.210558	0.343590
	H41	H	0.097048	0.208043	0.670094
	H42	H	0.098136	0.778423	0.343360
	H43	H	0.906005	0.783623	0.670630
	H44	H	0.216440	0.331804	0.907152
	H45	H	0.215397	0.660996	0.108252
	H46	H	0.787770	0.330671	0.103890
	H47	H	0.784424	0.661087	0.907956
	H48	H	0.399703	0.118467	0.599403
	H49	H	0.598910	0.877818	0.598301
	H50	H	0.586201	0.111393	0.418796
	H51	H	0.405890	0.877166	0.412209
	H52	H	0.592724	0.406574	0.119723
	H53	H	0.588588	0.589550	0.891889
	H54	H	0.408591	0.583596	0.120237
	H55	H	0.405909	0.405851	0.891403
	H56	H	0.114232	0.585627	0.421589
	H57	H	0.883015	0.589644	0.607755
	H58	H	0.116495	0.403521	0.603858
	H59	H	0.885539	0.399448	0.416346
	H60	H	0.116937	0.399720	0.601093
	H61	H	0.884820	0.594986	0.594338
	H62	H	0.115100	0.578168	0.412214
	H63	H	0.888553	0.411611	0.412496
	H64	H	0.411154	0.594781	0.121309
	H65	H	0.597312	0.587696	0.888844
	H66	H	0.596187	0.400738	0.123015
	H67	H	0.408555	0.407923	0.892331
	H68	H	0.592021	0.113367	0.419790
	H69	H	0.590527	0.877340	0.603456
	H70	H	0.414585	0.114930	0.604205
	H71	H	0.415469	0.881211	0.410651
	H72	H	0.908983	0.612132	0.093126
	H73	H	0.084534	0.380939	0.099449
	H74	H	0.089166	0.612853	0.919318
	H75	H	0.905177	0.376421	0.911438
	H76	H	0.090075	0.912826	0.616560
	H77	H	0.079124	0.080002	0.396175
	H78	H	0.897437	0.088569	0.625083
	H79	H	0.918507	0.905014	0.395089
	H80	H	0.613688	0.085533	0.921333
	H81	H	0.382419	0.094460	0.102577
	H82	H	0.618738	0.901367	0.104056
	H83	H	0.382901	0.901883	0.906931
	H84	H	0.614976	0.902255	0.095391
	H85	H	0.386169	0.090120	0.092173
	H86	H	0.615917	0.080461	0.908941
	H87	H	0.386330	0.903485	0.916190
	H88	H	0.910332	0.081602	0.618914
	H89	H	0.093260	0.099740	0.386196
	H90	H	0.092807	0.893715	0.623099
	H91	H	0.901492	0.894475	0.386804
	H92	H	0.091653	0.614127	0.916200
	H93	H	0.097854	0.379163	0.089162
	H94	H	0.905547	0.614392	0.100069
	H95	H	0.911582	0.378149	0.911544
	H96	H	0.409875	0.112222	0.589674
	H97	H	0.591133	0.881344	0.593485
	H98	H	0.589201	0.114758	0.414316
	H99	H	0.411206	0.882120	0.420059
	H100	H	0.598896	0.407025	0.121549
	H101	H	0.592707	0.580977	0.892405
	H102	H	0.401261	0.590895	0.124249
	H103	H	0.408799	0.404430	0.890828
	H104	H	0.118183	0.589648	0.411024
	H105	H	0.888453	0.581733	0.597378
	H106	H	0.116022	0.404003	0.599484
	H107	H	0.882720	0.403131	0.404546
	H108	H	0.913473	0.612362	0.099757
	H109	H	0.099105	0.374045	0.104976
	H110	H	0.088329	0.613726	0.915176
	H111	H	0.908374	0.378532	0.916978
	H112	H	0.107625	0.906480	0.623681
	H113	H	0.104146	0.075982	0.390529
	H114	H	0.910609	0.097045	0.622831
	H115	H	0.900178	0.914939	0.392644
	H116	H	0.619097	0.093576	0.911644
	H117	H	0.385951	0.082349	0.101547
	H118	H	0.614514	0.910158	0.100338
	H119	H	0.386361	0.911258	0.910117
	C120	C	0.380174	0.005744	0.626281
	C121	C	0.622272	0.988053	0.627969
	C122	C	0.620427	0.004781	0.386264
	C123	C	0.379048	0.988367	0.384220
	C124	C	0.624037	0.373891	0.014381
	C125	C	0.621976	0.616622	0.998315
	C126	C	0.377508	0.618767	0.014760
	C127	C	0.379700	0.375979	0.998395
	C128	C	0.008853	0.615559	0.384998
	C129	C	0.992581	0.618013	0.629737
	C130	C	0.009078	0.374300	0.628705
	C131	C	0.992506	0.373044	0.383468
	C132	C	0.880556	0.503984	0.126389
	C133	C	0.122752	0.486982	0.128118
	C134	C	0.120308	0.504670	0.886752
	C135	C	0.878406	0.487205	0.884724
	C136	C	0.124711	0.873102	0.514205
	C137	C	0.121431	0.115978	0.498100
	C138	C	0.876901	0.118444	0.514995
	C139	C	0.879012	0.875250	0.499006
	C140	C	0.509100	0.117660	0.884452
	C141	C	0.492035	0.118441	0.128854
	C142	C	0.508982	0.875452	0.128087
	C143	C	0.492526	0.874656	0.883221
	C144	C	0.383377	0.881283	0.681194
	C145	C	0.620475	0.112166	0.685111
	C146	C	0.621101	0.881740	0.328471
	C147	C	0.378171	0.111964	0.327775
	C148	C	0.678921	0.374289	0.892291
	C149	C	0.679466	0.617296	0.119640
	C150	C	0.319721	0.618254	0.893165
	C151	C	0.323372	0.375543	0.119995
	C152	C	0.886429	0.672562	0.387810
	C153	C	0.115350	0.671779	0.626728
	C154	C	0.885820	0.320694	0.623614
	C155	C	0.114687	0.315771	0.387414
	C156	C	0.886805	0.376160	0.683646
	C157	C	0.114179	0.616601	0.687142
	C158	C	0.887479	0.616864	0.327238
	C159	C	0.113957	0.371132	0.327590
	C160	C	0.379832	0.673507	0.891976
	C161	C	0.618973	0.672298	0.120805
	C162	C	0.619587	0.318183	0.891804
	C163	C	0.383774	0.320392	0.120950
	C164	C	0.678312	0.881678	0.386060
	C165	C	0.677599	0.112185	0.628203
	C166	C	0.326826	0.880747	0.623797
	C167	C	0.320850	0.111676	0.384689
	C168	C	0.882728	0.379421	0.181105
	C169	C	0.120820	0.610770	0.185458
	C170	C	0.119832	0.380262	0.830855
	C171	C	0.878887	0.611408	0.829631
	C172	C	0.180572	0.871728	0.392720
	C173	C	0.179238	0.116628	0.619480
	C174	C	0.819030	0.118445	0.393626
	C175	C	0.823630	0.875895	0.620836
	C176	C	0.386501	0.174043	0.887469
	C177	C	0.614400	0.173715	0.127404
	C178	C	0.385756	0.821545	0.123502
	C179	C	0.614929	0.817778	0.887262
	C180	C	0.386907	0.876790	0.183411
	C181	C	0.613349	0.118632	0.187351
	C182	C	0.387442	0.119067	0.827183
	C183	C	0.614457	0.874365	0.827982
	C184	C	0.879344	0.173351	0.392400
	C185	C	0.118464	0.170970	0.620955
	C186	C	0.120250	0.816159	0.392081
	C187	C	0.883595	0.820095	0.621573
	C188	C	0.177682	0.380690	0.887581
	C189	C	0.177713	0.611332	0.128097
	C190	C	0.825464	0.379964	0.124145
	C191	C	0.822408	0.611743	0.887349
	C192	C	0.401711	0.092572	0.604230
	C193	C	0.600069	0.901335	0.605018
	C194	C	0.596163	0.090946	0.410629
	C195	C	0.403715	0.902292	0.407458
	C196	C	0.602306	0.397694	0.099362
	C197	C	0.599549	0.593036	0.913282
	C198	C	0.400176	0.596333	0.099766
	C199	C	0.401348	0.399369	0.913503
	C200	C	0.093944	0.591371	0.408137
	C201	C	0.907400	0.595351	0.606587
	C202	C	0.094398	0.395842	0.607779
	C203	C	0.907697	0.397289	0.405001
	C204	C	0.902739	0.590739	0.104136
	C205	C	0.100493	0.400518	0.104753
	C206	C	0.096618	0.591034	0.910137
	C207	C	0.901688	0.400190	0.906710
	C208	C	0.103145	0.897212	0.599267
	C209	C	0.098652	0.092261	0.412992
	C210	C	0.899625	0.095852	0.600102
	C211	C	0.900491	0.898018	0.413709
	C212	C	0.594059	0.093533	0.907356
	C213	C	0.406987	0.095679	0.105619
	C214	C	0.593849	0.897789	0.106389
	C215	C	0.407262	0.898682	0.904744
	Zn216	Zn	0.500674	-0.002828	0.754449
	Zn217	Zn	0.500300	-0.003141	0.257272
	Zn218	Zn	0.752278	0.495699	0.006055
	Zn219	Zn	0.249081	0.496569	0.006913
	Zn220	Zn	0.001238	0.746152	0.507012
	Zn221	Zn	0.000310	0.245657	0.506526
	Zn222	Zn	0.000317	0.495738	0.758362
	Zn223	Zn	0.001076	0.494533	0.254799
	Zn224	Zn	0.500062	0.746554	0.005896
	Zn225	Zn	0.501447	0.246053	0.006085
	Zn226	Zn	0.749005	-0.003496	0.507522
	Zn227	Zn	0.252368	-0.003841	0.505624
	N228	N	0.415989	0.959898	0.682758
	N229	N	0.586970	0.033845	0.685306
	N230	N	0.585895	0.959643	0.328632
	N231	N	0.413736	0.034223	0.327499
	N232	N	0.681817	0.408191	0.969461
	N233	N	0.681277	0.583209	0.042415
	N234	N	0.317702	0.585105	0.970646
	N235	N	0.320778	0.409588	0.042905
	N236	N	0.963142	0.672122	0.422987
	N237	N	0.038716	0.672643	0.591687
	N238	N	0.962785	0.319371	0.589986
	N239	N	0.038250	0.316637	0.421544
	N240	N	0.964034	0.409165	0.686552
	N241	N	0.036598	0.584121	0.689159
	N242	N	0.964502	0.582324	0.325571
	N243	N	0.037074	0.406134	0.325041
	N244	N	0.414854	0.674174	0.968443
	N245	N	0.583938	0.672157	0.044323
	N246	N	0.586131	0.317856	0.968663
	N247	N	0.418047	0.320475	0.044432
	N248	N	0.677746	0.959377	0.421444
	N249	N	0.678701	0.034062	0.593535
	N250	N	0.324735	0.959145	0.590198
	N251	N	0.321245	0.033802	0.419114
	N252	N	0.916124	0.457727	0.182868
	N253	N	0.087486	0.532252	0.185740
	N254	N	0.085278	0.458365	0.830199
	N255	N	0.913177	0.532902	0.827997
	N256	N	0.183568	0.906148	0.469748
	N257	N	0.181190	0.083033	0.542025
	N258	N	0.817296	0.085156	0.470942
	N259	N	0.820543	0.909221	0.543584
	N260	N	0.463175	0.173177	0.922413
	N261	N	0.538189	0.173804	0.091738
	N262	N	0.462631	0.820341	0.089721
	N263	N	0.537962	0.817516	0.920491
	N264	N	0.464354	0.909377	0.186606
	N265	N	0.536086	0.085025	0.188292
	N266	N	0.464637	0.084828	0.825106
	N267	N	0.537406	0.908773	0.825141
	N268	N	0.914603	0.173609	0.468736
	N269	N	0.083280	0.170717	0.544428
	N270	N	0.086356	0.816832	0.468715
	N271	N	0.917276	0.819497	0.544718
	N272	N	0.178092	0.459162	0.921674
	N273	N	0.179175	0.533439	0.093297
	N274	N	0.824092	0.458375	0.090894
	N275	N	0.821768	0.533391	0.920592
	O276	O	1.032946	-0.139509	1.075348
	H277	H	1.030027	-0.150102	1.068810
	H278	H	1.025734	-0.141696	1.061621
	O279	O	0.599952	0.406438	0.523423
	H280	H	0.594938	0.395328	0.525395
	H281	H	0.592359	0.396331	0.517559
	O282	O	0.630697	0.476968	0.528079
	H283	H	0.634922	0.480203	0.527058
	H284	H	0.632016	0.466697	0.532385
	O285	O	0.562547	0.419729	0.371238
	H286	H	0.560245	0.419768	0.352743
	H287	H	0.548664	0.429086	0.372477
	O288	O	0.457878	0.439567	0.588778
	H289	H	0.453898	0.432121	0.589489
	H290	H	0.452284	0.437052	0.593364
	O291	O	0.086656	0.016239	0.947424
	H292	H	0.083469	0.012067	0.933418
	H293	H	0.084377	0.024856	0.956929
	O294	O	0.917125	1.024017	-0.031662
	H295	H	0.918151	1.028966	-0.044100
	H296	H	0.906592	1.016341	-0.032315
	O297	O	1.013335	1.003580	-0.092957
	H298	H	1.013949	1.015861	-0.088996
	H299	H	1.006254	0.995072	-0.087583
	O300	O	0.510394	0.376974	0.462692
	H301	H	0.506431	0.370738	0.454036
	H302	H	0.513906	0.374007	0.458391
	O303	O	0.368696	0.519489	0.512653
	H304	H	0.376967	0.525534	0.504180
	H305	H	0.357376	0.519631	0.511369
	O306	O	0.624275	0.614604	0.599091
	H307	H	0.637332	0.617768	0.606670
	H308	H	0.617887	0.609171	0.606375
	O309	O	0.568820	0.537423	0.446919
	H310	H	0.563795	0.522916	0.450463
	H311	H	0.569647	0.539987	0.447673
	O312	O	0.876850	0.984284	1.154238
	H313	H	0.878516	0.965311	1.159432
	H314	H	0.871951	0.982104	1.147662
	O315	O	1.029065	1.004842	0.120557
	H316	H	1.036077	1.002902	0.122900
	H317	H	1.019632	0.996858	0.125759
	O318	O	0.443005	0.659174	0.426309
	H319	H	0.450368	0.671484	0.426640
	H320	H	0.454091	0.655544	0.434849
	O321	O	0.360692	0.467905	0.561260
	H322	H	0.363673	0.471139	0.558788
	H323	H	0.365784	0.476198	0.561715
	O324	O	0.046490	0.979889	1.009679
	H325	H	0.042125	0.984194	1.012065
	H326	H	0.041373	0.969247	1.016656
	O327	O	0.013064	0.857177	0.977981
	H328	H	0.009910	0.857100	0.966642
	H329	H	-0.004248	0.848386	0.970103
	O330	O	-0.147871	0.076656	-0.035770
	H331	H	-0.145336	0.080223	-0.041256
	H332	H	-0.154914	0.078438	-0.020500
	O333	O	0.468045	0.551726	0.573335
	H334	H	0.466023	0.549157	0.572542
	H335	H	0.462154	0.557077	0.578346
	O336	O	0.091783	0.003421	0.099771
	H337	H	0.105791	0.007572	0.096422
	H338	H	0.094414	0.010348	0.104560
	O339	O	0.037162	-0.025378	-0.102265
	H340	H	0.044246	-0.014828	-0.093005
	H341	H	0.028695	-0.023127	-0.109855
	O342	O	0.019408	1.011556	-0.037573
	H343	H	0.015203	1.008699	-0.033775
	H344	H	0.010732	1.014178	-0.042223
	O345	O	-0.033590	0.993615	0.932100
	H346	H	-0.011620	0.995181	0.944130
	H347	H	-0.041044	0.991666	0.933027
	O348	O	0.492977	0.535443	0.556585
	H349	H	0.494698	0.526226	0.553560
	H350	H	0.492940	0.534584	0.556979
	O351	O	0.492474	0.488740	0.450650
	H352	H	0.490594	0.493974	0.448465
	H353	H	0.489862	0.487639	0.445875
	O354	O	0.081207	1.002035	-0.101654
	H355	H	0.075357	1.013523	-0.089481
	H356	H	0.082460	1.002867	-0.114391
	O357	O	0.458100	0.527837	0.593788
	H358	H	0.459487	0.531934	0.591784
	H359	H	0.452794	0.527804	0.590408
	O360	O	0.354654	0.546693	0.449078
	H361	H	0.349554	0.551614	0.460600
	H362	H	0.354172	0.553172	0.430103
	O363	O	0.480616	0.606921	0.352996
	H364	H	0.484245	0.612529	0.347973
	H365	H	0.481438	0.602699	0.356584
	O366	O	0.582987	0.505159	0.563182
	H367	H	0.587317	0.500123	0.561520
	H368	H	0.592102	0.504235	0.567508
	O369	O	1.102839	0.036318	0.130616
	H370	H	1.104218	0.031583	0.119493
	H371	H	1.098573	0.045856	0.141540
	O372	O	0.506384	0.472524	0.591078
	H373	H	0.500148	0.485317	0.605491
	H374	H	0.508884	0.469377	0.586969
	O375	O	0.871134	-0.028324	0.898083
	H376	H	0.879433	-0.029784	0.905720
	H377	H	0.865451	-0.027336	0.882527
	O378	O	0.107947	1.108457	0.049460
	H379	H	0.118308	1.100517	0.055596
	H380	H	0.110668	1.100893	0.051909
	O381	O	0.551400	0.485527	0.508302
	H382	H	0.547596	0.483922	0.517400
	H383	H	0.554276	0.473774	0.494223
	O384	O	0.953618	1.017841	0.054181
	H385	H	0.953379	1.022606	0.067600
	H386	H	0.962955	1.011593	0.056567
	O387	O	0.959818	-0.011951	0.872634
	H388	H	0.960854	-0.013391	0.880556
	H389	H	0.965153	-0.001163	0.869552
	O390	O	1.017598	1.000120	0.116468
	H391	H	1.030193	0.999845	0.101849
	H392	H	1.015963	0.996559	0.104786
	O393	O	0.479796	0.437479	0.379184
	H394	H	0.483662	0.450408	0.368151
	H395	H	0.461580	0.440614	0.369608
