data_Molecule from HDF5

_cell_length_a		16.634589
_cell_length_b		16.472039
_cell_length_c		16.367102
_cell_angle_alpha	89.950183
_cell_angle_beta	90.027990
_cell_angle_gamma	89.965926
_symmetry_space_group_name_H-M	'P 1'
_symmetry_Int_Tables_number		1

loop_
	_symmetry_equiv_pos_as_xyz
	x,y,z

loop_
	_atom_site_label
	_atom_site_type_symbol
	_atom_site_fract_x
	_atom_site_fract_y
	_atom_site_fract_z
	H0	H	0.383138	0.844731	0.717583
	H1	H	0.587523	0.162669	0.709443
	H2	H	0.592730	0.845221	0.271747
	H3	H	0.387066	0.162185	0.277806
	H4	H	0.705992	0.402430	0.835351
	H5	H	0.713478	0.615841	0.151462
	H6	H	0.265808	0.612855	0.835824
	H7	H	0.265849	0.398055	0.152376
	H8	H	0.833878	0.732098	0.382453
	H9	H	0.143086	0.729736	0.604412
	H10	H	0.833955	0.281085	0.598533
	H11	H	0.143504	0.278909	0.384615
	H12	H	0.833098	0.399277	0.713892
	H13	H	0.144646	0.610187	0.717058
	H14	H	0.832783	0.613749	0.267391
	H15	H	0.144096	0.397248	0.269166
	H16	H	0.382065	0.727669	0.836556
	H17	H	0.592285	0.725190	0.154113
	H18	H	0.588576	0.288036	0.835063
	H19	H	0.383819	0.284101	0.153361
	H20	H	0.713294	0.846953	0.382996
	H21	H	0.708328	0.160765	0.597310
	H22	H	0.265016	0.844143	0.603349
	H23	H	0.265263	0.158131	0.387467
	H24	H	0.885832	0.345399	0.213718
	H25	H	0.095577	0.662255	0.219501
	H26	H	0.087832	0.345077	0.778729
	H27	H	0.881684	0.660735	0.770413
	H28	H	0.214084	0.889817	0.337433
	H29	H	0.208862	0.106520	0.651107
	H30	H	0.763434	0.113986	0.335637
	H31	H	0.765423	0.897340	0.650247
	H32	H	0.332229	0.225491	0.890028
	H33	H	0.644433	0.227193	0.101648
	H34	H	0.334141	0.776237	0.106455
	H35	H	0.644199	0.780034	0.887217
	H36	H	0.330892	0.897515	0.217210
	H37	H	0.644469	0.109382	0.216578
	H38	H	0.331775	0.107287	0.773111
	H39	H	0.644788	0.899725	0.773122
	H40	H	0.883820	0.224593	0.333301
	H41	H	0.092002	0.221928	0.650894
	H42	H	0.097196	0.777283	0.336602
	H43	H	0.880561	0.780441	0.650397
	H44	H	0.208287	0.348055	0.889835
	H45	H	0.214470	0.661698	0.106883
	H46	H	0.764038	0.348197	0.103677
	H47	H	0.763735	0.660961	0.884670
	H48	H	0.387505	0.118685	0.585652
	H49	H	0.581919	0.888493	0.579912
	H50	H	0.578866	0.115354	0.408391
	H51	H	0.408703	0.890102	0.401878
	H52	H	0.579748	0.415463	0.110560
	H53	H	0.577008	0.587417	0.883777
	H54	H	0.405563	0.588030	0.104127
	H55	H	0.393860	0.419696	0.880143
	H56	H	0.095522	0.589182	0.410173
	H57	H	0.879893	0.587616	0.581253
	H58	H	0.101605	0.415118	0.583825
	H59	H	0.878419	0.416145	0.404353
	H60	H	0.103072	0.410892	0.587008
	H61	H	0.876359	0.593930	0.584419
	H62	H	0.097411	0.588555	0.407153
	H63	H	0.875210	0.413310	0.402951
	H64	H	0.401239	0.594504	0.107383
	H65	H	0.571845	0.593696	0.883119
	H66	H	0.576337	0.419855	0.108143
	H67	H	0.402170	0.416237	0.882472
	H68	H	0.578573	0.116344	0.403297
	H69	H	0.576576	0.888910	0.585847
	H70	H	0.405896	0.113691	0.587846
	H71	H	0.398532	0.892276	0.415356
	H72	H	0.902079	0.617213	0.083489
	H73	H	0.077036	0.397168	0.075454
	H74	H	0.076324	0.621145	0.896968
	H75	H	0.896709	0.390158	0.902705
	H76	H	0.074896	0.915609	0.605281
	H77	H	0.073331	0.086799	0.381100
	H78	H	0.902102	0.094959	0.605962
	H79	H	0.905400	0.919736	0.382943
	H80	H	0.601011	0.095199	0.905141
	H81	H	0.374300	0.101838	0.081653
	H82	H	0.593305	0.920744	0.074862
	H83	H	0.379416	0.919771	0.908779
	H84	H	0.599291	0.920736	0.089663
	H85	H	0.379238	0.089768	0.080718
	H86	H	0.600934	0.095423	0.900150
	H87	H	0.376150	0.916522	0.904461
	H88	H	0.892906	0.094520	0.608336
	H89	H	0.076952	0.094672	0.377433
	H90	H	0.077736	0.916963	0.606421
	H91	H	0.902196	0.915634	0.380100
	H92	H	0.069493	0.615078	0.910757
	H93	H	0.081327	0.392250	0.081281
	H94	H	0.904015	0.613042	0.075163
	H95	H	0.896661	0.390979	0.906268
	H96	H	0.396358	0.110696	0.570948
	H97	H	0.574973	0.892160	0.578587
	H98	H	0.574855	0.114087	0.405949
	H99	H	0.392977	0.884581	0.401191
	H100	H	0.574009	0.414265	0.108853
	H101	H	0.579675	0.594585	0.880514
	H102	H	0.397322	0.586636	0.106467
	H103	H	0.395642	0.411256	0.878886
	H104	H	0.097348	0.591929	0.408801
	H105	H	0.878426	0.593876	0.576899
	H106	H	0.101822	0.410153	0.581814
	H107	H	0.877667	0.412461	0.406853
	H108	H	0.895831	0.616302	0.076887
	H109	H	0.072985	0.394883	0.083222
	H110	H	0.084536	0.619508	0.910780
	H111	H	0.893600	0.390501	0.904830
	H112	H	0.075475	0.918751	0.604490
	H113	H	0.082218	0.087089	0.378449
	H114	H	0.897315	0.087163	0.604584
	H115	H	0.899855	0.920836	0.381484
	H116	H	0.601859	0.099273	0.903146
	H117	H	0.374176	0.094161	0.092340
	H118	H	0.600480	0.908061	0.080372
	H119	H	0.377409	0.913088	0.910057
	C120	C	0.365653	0.010222	0.615428
	C121	C	0.608593	0.994727	0.613156
	C122	C	0.610560	0.011856	0.371395
	C123	C	0.367718	0.993284	0.373805
	C124	C	0.608142	0.384977	0.003583
	C125	C	0.609680	0.625776	0.986618
	C126	C	0.367393	0.624943	0.002288
	C127	C	0.365376	0.383041	0.985219
	C128	C	-0.004620	0.625372	0.372797
	C129	C	0.980339	0.625380	0.615316
	C130	C	-0.001712	0.380719	0.615273
	C131	C	0.980105	0.381576	0.371118
	C132	C	0.867731	0.512305	0.113560
	C133	C	0.110638	0.497549	0.115931
	C134	C	0.108119	0.513620	0.874317
	C135	C	0.864731	0.495203	0.871923
	C136	C	0.110103	0.880961	0.502209
	C137	C	0.109153	0.121789	0.483863
	C138	C	0.865682	0.125445	0.501435
	C139	C	0.868165	0.883908	0.484708
	C140	C	0.497140	0.126717	0.871919
	C141	C	0.479485	0.127015	0.116814
	C142	C	0.495291	0.882626	0.115721
	C143	C	0.480418	0.883026	0.873892
	C144	C	0.364521	0.891808	0.677225
	C145	C	0.608119	0.114745	0.671219
	C146	C	0.612393	0.893041	0.310705
	C147	C	0.367374	0.113702	0.315942
	C148	C	0.666611	0.383498	0.883517
	C149	C	0.671871	0.631551	0.104524
	C150	C	0.306198	0.629834	0.883614
	C151	C	0.305877	0.380425	0.104788
	C152	C	0.879717	0.689713	0.366351
	C153	C	0.096565	0.688331	0.620869
	C154	C	0.880546	0.321429	0.616708
	C155	C	0.096933	0.319760	0.366840
	C156	C	0.880163	0.380182	0.674090
	C157	C	0.097509	0.628896	0.677498
	C158	C	0.879228	0.630798	0.308970
	C159	C	0.097299	0.378705	0.309516
	C160	C	0.364166	0.687108	0.883845
	C161	C	0.611803	0.686352	0.105847
	C162	C	0.608196	0.326717	0.883212
	C163	C	0.364445	0.323525	0.105267
	C164	C	0.672506	0.894043	0.366077
	C165	C	0.668025	0.113598	0.615456
	C166	C	0.306047	0.891451	0.619927
	C167	C	0.306527	0.111604	0.370337
	C168	C	0.866209	0.393468	0.174409
	C169	C	0.113693	0.615075	0.178848
	C170	C	0.107837	0.393508	0.816893
	C171	C	0.863079	0.613466	0.810590
	C172	C	0.172958	0.874077	0.384633
	C173	C	0.168843	0.124672	0.603360
	C174	C	0.804757	0.130157	0.382649
	C175	C	0.806090	0.879512	0.602947
	C176	C	0.378835	0.185292	0.871146
	C177	C	0.597365	0.187008	0.119466
	C178	C	0.379773	0.819069	0.121889
	C179	C	0.597494	0.821397	0.869948
	C180	C	0.378240	0.879359	0.177436
	C181	C	0.597292	0.128146	0.176646
	C182	C	0.378637	0.126557	0.813139
	C183	C	0.597887	0.880710	0.812922
	C184	C	0.864523	0.185601	0.381535
	C185	C	0.110974	0.182214	0.603100
	C186	C	0.114575	0.817712	0.384296
	C187	C	0.863422	0.821552	0.603214
	C188	C	0.167591	0.394999	0.872270
	C189	C	0.173033	0.614864	0.122529
	C190	C	0.805652	0.394633	0.119511
	C191	C	0.804215	0.613466	0.867550
	C192	C	0.389636	0.092845	0.589033
	C193	C	0.584564	0.911470	0.588613
	C194	C	0.584853	0.093872	0.398253
	C195	C	0.392699	0.910655	0.399026
	C196	C	0.583859	0.409623	0.087352
	C197	C	0.583613	0.599309	0.904040
	C198	C	0.393840	0.597577	0.084631
	C199	C	0.390215	0.408347	0.902284
	C200	C	0.075721	0.597805	0.400762
	C201	C	0.899400	0.599342	0.588473
	C202	C	0.080557	0.404991	0.591021
	C203	C	0.898364	0.406931	0.397160
	C204	C	0.893230	0.594027	0.086420
	C205	C	0.084572	0.416044	0.088146
	C206	C	0.083789	0.596818	0.899170
	C207	C	0.888662	0.412199	0.897443
	C208	C	0.083370	0.908939	0.584138
	C209	C	0.084599	0.096587	0.400628
	C210	C	0.890390	0.099633	0.584602
	C211	C	0.894950	0.910947	0.402844
	C212	C	0.579886	0.103265	0.895954
	C213	C	0.397298	0.102519	0.091776
	C214	C	0.576475	0.909039	0.089150
	C215	C	0.398938	0.908811	0.900229
	Zn216	Zn	0.488177	0.003152	0.743378
	Zn217	Zn	0.487867	0.002980	0.244554
	Zn218	Zn	0.737423	0.504957	-0.005306
	Zn219	Zn	0.238077	0.506072	-0.005770
	Zn220	Zn	-0.012000	0.754695	0.493578
	Zn221	Zn	-0.011284	0.251448	0.492533
	Zn222	Zn	-0.011414	0.504238	0.744512
	Zn223	Zn	-0.012018	0.504699	0.243197
	Zn224	Zn	0.488116	0.753274	-0.005086
	Zn225	Zn	0.488284	0.255616	-0.004873
	Zn226	Zn	0.738538	0.003600	0.492205
	Zn227	Zn	0.238546	0.001078	0.493539
	N228	N	0.400782	0.966866	0.674754
	N229	N	0.572095	0.039767	0.670080
	N230	N	0.574843	0.967286	0.313704
	N231	N	0.404487	0.039235	0.317757
	N232	N	0.666927	0.418699	0.959604
	N233	N	0.670892	0.594891	0.029093
	N234	N	0.308137	0.592116	0.958527
	N235	N	0.306148	0.416779	0.029164
	N236	N	0.952891	0.686461	0.405123
	N237	N	0.022789	0.686305	0.583030
	N238	N	0.955100	0.321575	0.580839
	N239	N	0.023167	0.321543	0.404618
	N240	N	0.954375	0.416446	0.673507
	N241	N	0.024239	0.590329	0.674236
	N242	N	0.952153	0.591508	0.312961
	N243	N	0.023667	0.416459	0.312177
	N244	N	0.401435	0.684187	0.958657
	N245	N	0.573817	0.682877	0.031453
	N246	N	0.572762	0.327410	0.959066
	N247	N	0.400574	0.324775	0.029856
	N248	N	0.671448	0.968972	0.403070
	N249	N	0.668568	0.038026	0.580108
	N250	N	0.306649	0.966008	0.582266
	N251	N	0.306470	0.035614	0.405227
	N252	N	0.903856	0.467679	0.171154
	N253	N	0.075900	0.541046	0.175024
	N254	N	0.071620	0.468534	0.817935
	N255	N	0.899749	0.538792	0.812909
	N256	N	0.170261	0.912714	0.458968
	N257	N	0.167927	0.087828	0.528109
	N258	N	0.805371	0.093720	0.458175
	N259	N	0.808847	0.917617	0.528328
	N260	N	0.453542	0.185379	0.906880
	N261	N	0.522902	0.186498	0.083098
	N262	N	0.453508	0.820934	0.084211
	N263	N	0.523498	0.822756	0.907283
	N264	N	0.451215	0.918200	0.173614
	N265	N	0.523136	0.091493	0.175359
	N266	N	0.453256	0.091082	0.813261
	N267	N	0.524188	0.918301	0.815422
	N268	N	0.901828	0.182813	0.456546
	N269	N	0.074494	0.180625	0.527791
	N270	N	0.076133	0.821924	0.458551
	N271	N	0.901183	0.823995	0.528696
	N272	N	0.168128	0.470962	0.906876
	N273	N	0.171496	0.540588	0.084300
	N274	N	0.806209	0.469688	0.082674
	N275	N	0.805150	0.538815	0.905028
	O276	O	0.769039	0.225423	-0.036206
	H277	H	0.749506	0.243248	-0.052947
	H278	H	0.764252	0.230432	-0.073421
	O279	O	0.451494	0.296498	0.694986
	H280	H	0.445458	0.300220	0.708509
	H281	H	0.463041	0.291032	0.698815
	O282	O	0.982741	0.980057	0.179484
	H283	H	0.957169	1.000446	0.175690
	H284	H	0.966981	0.961875	0.184419
	O285	O	0.267890	0.474565	0.711372
	H286	H	0.264446	0.441136	0.715041
	H287	H	0.249429	0.462243	0.723634
	O288	O	-0.209654	-0.041031	0.105283
	H289	H	-0.192895	-0.035233	0.088463
	H290	H	-0.217850	-0.034401	0.080031
	O291	O	0.901907	1.163628	0.082892
	H292	H	0.900774	1.162085	0.058726
	H293	H	0.897801	1.166330	0.070037
	O294	O	-0.074648	0.799587	-0.052018
	H295	H	-0.041046	0.798088	-0.019633
	H296	H	-0.065105	0.798240	-0.075913
	O297	O	0.611543	0.371435	0.578433
	H298	H	0.608475	0.388731	0.566341
	H299	H	0.591881	0.384186	0.578719
	O300	O	0.625110	0.434292	0.336986
	H301	H	0.621621	0.405703	0.338315
	H302	H	0.654548	0.433603	0.318268
	O303	O	0.477767	0.422061	0.658532
	H304	H	0.473206	0.438739	0.655118
	H305	H	0.471867	0.421675	0.659774
	O306	O	0.036375	1.175592	1.184822
	H307	H	0.040285	1.187326	1.200780
	H308	H	0.016213	1.183726	1.173131
	O309	O	0.940334	0.975785	0.919017
	H310	H	0.933740	0.986250	0.919171
	H311	H	0.944565	0.960112	0.922717
	O312	O	0.491156	0.550218	0.596391
	H313	H	0.488582	0.561834	0.601439
	H314	H	0.499967	0.555787	0.598972
	O315	O	-0.226415	0.033126	0.783703
	H316	H	-0.237200	0.036568	0.782998
	H317	H	-0.228860	0.044751	0.774389
	O318	O	0.019914	1.111153	0.052527
	H319	H	0.005505	1.105019	0.053317
	H320	H	0.021790	1.099052	0.067195
	O321	O	0.769950	0.079569	0.823414
	H322	H	0.767883	0.090908	0.835030
	H323	H	0.761536	0.093360	0.809401
	O324	O	1.273505	0.300171	0.700558
	H325	H	1.304463	0.297238	0.687693
	H326	H	1.243707	0.265444	0.732979
	O327	O	1.106201	0.106993	0.856153
	H328	H	1.117709	0.121965	0.867891
	H329	H	1.103758	0.083061	0.870090
	O330	O	0.992200	0.001532	-0.212183
	H331	H	0.992684	-0.006907	-0.198849
	H332	H	0.998653	0.003259	-0.211113
	O333	O	0.993026	0.792154	0.792777
	H334	H	0.979433	0.798678	0.778516
	H335	H	1.008253	0.790966	0.785434
	O336	O	1.202591	0.215591	1.021152
	H337	H	1.196093	0.210664	1.056909
	H338	H	1.212516	0.239675	1.026555
	O339	O	0.280872	0.529414	0.285142
	H340	H	0.249238	0.535974	0.254566
	H341	H	0.284423	0.557134	0.307481
	O342	O	0.335030	0.446681	0.478357
	H343	H	0.327740	0.452992	0.467976
	H344	H	0.341890	0.454456	0.469428
	O345	O	0.177395	0.193497	-0.194189
	H346	H	0.156947	0.180649	-0.171440
	H347	H	0.165192	0.167862	-0.176408
	O348	O	1.210066	-0.013688	1.001655
	H349	H	1.202112	-0.014274	1.022812
	H350	H	1.216814	-0.017962	1.017662
	O351	O	0.769554	0.787128	0.018944
	H352	H	0.769460	0.763273	0.009433
	H353	H	0.774610	0.769665	0.016270
	O354	O	0.703097	0.530539	0.701539
	H355	H	0.702571	0.536874	0.688464
	H356	H	0.726775	0.539988	0.723726
	O357	O	0.900415	1.206265	0.797217
	H358	H	0.896116	1.227592	0.773156
	H359	H	0.913672	1.203351	0.803403
	O360	O	0.482944	0.557678	0.280142
	H361	H	0.478546	0.557310	0.287621
	H362	H	0.490560	0.559010	0.274085
	O363	O	0.300271	0.679617	0.517542
	H364	H	0.296789	0.649130	0.539779
	H365	H	0.279082	0.698546	0.529082
	O366	O	1.184679	0.197737	1.191706
	H367	H	1.204438	0.195025	1.210644
	H368	H	1.150067	0.195103	1.189509
	O369	O	0.716543	0.491621	0.511643
	H370	H	0.716536	0.494317	0.500187
	H371	H	0.720808	0.482949	0.491711
	O372	O	0.460585	0.618809	0.305014
	H373	H	0.457693	0.623368	0.298365
	H374	H	0.472755	0.629050	0.305076
	O375	O	0.202321	1.032350	1.212528
	H376	H	0.179739	1.021203	1.227860
	H377	H	0.220936	1.046165	1.239880
	O378	O	0.777302	-0.016471	0.212016
	H379	H	0.766260	-0.012802	0.200396
	H380	H	0.763901	-0.012062	0.219746
	O381	O	1.050459	0.146520	-0.110309
	H382	H	1.042112	0.132783	-0.113476
	H383	H	1.044291	0.141857	-0.106360
	O384	O	-0.015293	0.126754	1.002676
	H385	H	-0.035594	0.120716	1.007932
	H386	H	-0.009624	0.121882	1.009645
	O387	O	-0.107167	0.892225	1.097792
	H388	H	-0.114011	0.913502	1.082361
	H389	H	-0.103506	0.908610	1.083560
	O390	O	0.151852	-0.182657	0.813831
	H391	H	0.138333	-0.192353	0.837536
	H392	H	0.154880	-0.150160	0.799061
	O393	O	0.814354	0.912898	-0.138129
	H394	H	0.824991	0.908349	-0.129847
	H395	H	0.823024	0.921530	-0.151139
	O396	O	0.703838	0.271938	0.739793
	H397	H	0.716349	0.269864	0.738528
	H398	H	0.688233	0.295007	0.704284
	O399	O	0.206526	0.784792	0.962394
	H400	H	0.215363	0.784706	0.945288
	H401	H	0.230752	0.776968	0.972245
	O402	O	-0.030550	-0.213545	1.209982
	H403	H	-0.035933	-0.229425	1.220925
	H404	H	-0.056479	-0.220298	1.215442
	O405	O	-0.298426	0.347848	0.500407
	H406	H	-0.292641	0.343827	0.498698
	H407	H	-0.326638	0.350110	0.517546
	O408	O	0.451792	0.627147	0.660784
	H409	H	0.455502	0.624236	0.674324
	H410	H	0.469275	0.628078	0.660513
	O411	O	0.331410	0.349998	0.315549
	H412	H	0.340157	0.372306	0.328682
	H413	H	0.332070	0.362852	0.314126
	O414	O	0.674552	0.697050	0.686039
	H415	H	0.691508	0.717093	0.670699
	H416	H	0.685707	0.678349	0.667470
	O417	O	0.273956	0.295469	0.516286
	H418	H	0.278853	0.304903	0.533307
	H419	H	0.256921	0.282460	0.522830
	O420	O	0.579663	0.316501	0.487717
	H421	H	0.578666	0.322910	0.482413
	H422	H	0.561498	0.312925	0.498056
	O423	O	0.198468	0.974673	-0.212401
	H424	H	0.208884	0.970343	-0.219900
	H425	H	0.220654	0.990885	-0.193050
	O426	O	0.492375	1.682336	1.437998
	H427	H	0.460489	1.682139	1.449581
	H428	H	0.493077	1.684077	1.448190
	O429	O	0.702738	0.713958	0.520818
	H430	H	0.712381	0.728472	0.504281
	H431	H	0.707176	0.707359	0.500388
	O432	O	0.475349	0.291341	0.373473
	H433	H	0.456486	0.288981	0.362053
	H434	H	0.466496	0.300356	0.364268
	O435	O	0.629017	-0.466880	0.430735
	H436	H	0.625196	-0.463896	0.434994
	H437	H	0.629774	-0.475153	0.398455
	O438	O	1.053223	-0.191151	0.041724
	H439	H	1.090204	-0.198992	0.030721
	H440	H	1.054308	-0.176248	0.067652
	O441	O	0.309511	0.685428	0.322502
	H442	H	0.315585	0.680897	0.343558
	H443	H	0.323203	0.700112	0.343700
	O444	O	0.491495	0.550381	0.523057
	H445	H	0.498115	0.568850	0.522014
	H446	H	0.493910	0.552958	0.520867
	O447	O	0.604400	0.387297	0.280781
	H448	H	0.590650	0.366793	0.276697
	H449	H	0.611278	0.383587	0.264772
	O450	O	0.283492	0.603937	0.553382
	H451	H	0.288354	0.581187	0.555060
	H452	H	0.294912	0.593654	0.576411
	O453	O	0.681226	0.321820	0.305459
	H454	H	0.678833	0.311114	0.346623
	H455	H	0.653522	0.306385	0.307660
	O456	O	0.865737	0.044531	0.132485
	H457	H	0.863384	0.047904	0.146994
	H458	H	0.855361	0.051134	0.123706
	O459	O	0.484427	0.714364	0.607386
	H460	H	0.480063	0.709451	0.602796
	H461	H	0.504998	0.728963	0.637669
	O462	O	0.438675	0.570866	0.464743
	H463	H	0.431405	0.547353	0.481389
	H464	H	0.430644	0.595897	0.472281
	O465	O	1.130022	-0.079788	0.115268
	H466	H	1.117366	-0.074871	0.116294
	H467	H	1.119483	-0.060431	0.137746
