data_Molecule from HDF5

_cell_length_a		16.476061
_cell_length_b		16.397603
_cell_length_c		16.439066
_cell_angle_alpha	89.936194
_cell_angle_beta	89.923373
_cell_angle_gamma	90.017137
_symmetry_space_group_name_H-M	'P 1'
_symmetry_Int_Tables_number		1

loop_
	_symmetry_equiv_pos_as_xyz
	x,y,z

loop_
	_atom_site_label
	_atom_site_type_symbol
	_atom_site_fract_x
	_atom_site_fract_y
	_atom_site_fract_z
	H0	H	0.393231	0.848182	0.723068
	H1	H	0.610745	0.162286	0.725407
	H2	H	0.608936	0.848792	0.275713
	H3	H	0.391068	0.161959	0.273504
	H4	H	0.725166	0.396388	0.844084
	H5	H	0.725453	0.615551	0.155956
	H6	H	0.276099	0.614582	0.843200
	H7	H	0.275740	0.397521	0.156208
	H8	H	0.844390	0.731974	0.390442
	H9	H	0.155913	0.731419	0.609643
	H10	H	0.842795	0.281581	0.607058
	H11	H	0.157649	0.283010	0.390959
	H12	H	0.844289	0.392800	0.727822
	H13	H	0.156247	0.612634	0.723673
	H14	H	0.842723	0.614371	0.276276
	H15	H	0.156100	0.398219	0.273537
	H16	H	0.393304	0.729223	0.843317
	H17	H	0.606741	0.728665	0.157436
	H18	H	0.609718	0.280935	0.843333
	H19	H	0.390436	0.280598	0.156383
	H20	H	0.726767	0.850553	0.388900
	H21	H	0.724641	0.163084	0.608286
	H22	H	0.274491	0.850351	0.610332
	H23	H	0.275949	0.163105	0.389703
	H24	H	0.888936	0.350028	0.225929
	H25	H	0.106099	0.663729	0.221913
	H26	H	0.108161	0.348605	0.776444
	H27	H	0.891016	0.662402	0.774623
	H28	H	0.224729	0.899597	0.343305
	H29	H	0.226696	0.118362	0.656102
	H30	H	0.773827	0.118728	0.344302
	H31	H	0.774257	0.895502	0.655319
	H32	H	0.344517	0.230167	0.890226
	H33	H	0.656420	0.231165	0.108770
	H34	H	0.343374	0.781933	0.109739
	H35	H	0.657199	0.781082	0.892496
	H36	H	0.344060	0.896202	0.226735
	H37	H	0.656240	0.114353	0.224005
	H38	H	0.344827	0.114394	0.774652
	H39	H	0.657071	0.896035	0.775888
	H40	H	0.892897	0.230341	0.342767
	H41	H	0.107070	0.229823	0.657053
	H42	H	0.108525	0.783698	0.342808
	H43	H	0.890211	0.779487	0.655291
	H44	H	0.224797	0.348994	0.890791
	H45	H	0.224353	0.662155	0.109272
	H46	H	0.774640	0.349110	0.108073
	H47	H	0.775023	0.662419	0.890100
	H48	H	0.407750	0.121451	0.588720
	H49	H	0.588016	0.893577	0.587848
	H50	H	0.587531	0.118181	0.414208
	H51	H	0.413914	0.891436	0.405362
	H52	H	0.586115	0.420551	0.110990
	H53	H	0.589995	0.589793	0.888185
	H54	H	0.411114	0.594799	0.113738
	H55	H	0.414362	0.419590	0.888464
	H56	H	0.113526	0.596948	0.411098
	H57	H	0.889566	0.588181	0.588100
	H58	H	0.115722	0.410475	0.591467
	H59	H	0.890259	0.421272	0.416904
	H60	H	0.108221	0.418441	0.579509
	H61	H	0.887075	0.594766	0.587692
	H62	H	0.111399	0.591711	0.413693
	H63	H	0.888466	0.421944	0.409094
	H64	H	0.408660	0.593665	0.113550
	H65	H	0.582914	0.591834	0.890252
	H66	H	0.584872	0.418712	0.111179
	H67	H	0.412237	0.417428	0.886438
	H68	H	0.587853	0.118866	0.411558
	H69	H	0.587173	0.894526	0.586203
	H70	H	0.419869	0.118503	0.592261
	H71	H	0.420133	0.898224	0.418538
	H72	H	0.914282	0.618109	0.088318
	H73	H	0.089985	0.391678	0.085392
	H74	H	0.083892	0.617249	0.913256
	H75	H	0.913594	0.396466	0.919930
	H76	H	0.085451	0.921057	0.611163
	H77	H	0.085068	0.092470	0.389927
	H78	H	0.908974	0.097235	0.614052
	H79	H	0.913353	0.924517	0.390008
	H80	H	0.611573	0.093955	0.915753
	H81	H	0.387272	0.094963	0.086147
	H82	H	0.611924	0.913578	0.084361
	H83	H	0.388187	0.918907	0.910261
	H84	H	0.609813	0.923035	0.085855
	H85	H	0.389926	0.090709	0.085678
	H86	H	0.610961	0.089355	0.913676
	H87	H	0.387627	0.915767	0.912902
	H88	H	0.910488	0.086694	0.610249
	H89	H	0.088835	0.099142	0.385495
	H90	H	0.086750	0.918311	0.611817
	H91	H	0.917726	0.918063	0.388381
	H92	H	0.090706	0.618908	0.913199
	H93	H	0.084137	0.393474	0.089728
	H94	H	0.911732	0.617202	0.084073
	H95	H	0.906238	0.391162	0.912398
	H96	H	0.415680	0.115816	0.580088
	H97	H	0.588709	0.893719	0.585780
	H98	H	0.585786	0.117287	0.412811
	H99	H	0.405171	0.892221	0.418954
	H100	H	0.586559	0.418468	0.112081
	H101	H	0.587128	0.597388	0.886518
	H102	H	0.411364	0.591910	0.113030
	H103	H	0.411005	0.420667	0.887599
	H104	H	0.112154	0.591616	0.407630
	H105	H	0.890046	0.591967	0.582241
	H106	H	0.111008	0.425753	0.593735
	H107	H	0.886732	0.414913	0.413031
	H108	H	0.909592	0.619670	0.088084
	H109	H	0.084599	0.395621	0.082145
	H110	H	0.086944	0.619904	0.907187
	H111	H	0.916853	0.393497	0.909150
	H112	H	0.088414	0.920998	0.612334
	H113	H	0.093472	0.091406	0.386319
	H114	H	0.918598	0.093880	0.610103
	H115	H	0.910449	0.918804	0.385394
	H116	H	0.613985	0.092905	0.911085
	H117	H	0.387578	0.092103	0.089929
	H118	H	0.614415	0.917953	0.092781
	H119	H	0.389791	0.918990	0.913584
	C120	C	0.379579	0.014849	0.621368
	C121	C	0.622525	0.997356	0.621271
	C122	C	0.622140	0.014918	0.378037
	C123	C	0.379590	0.997737	0.379579
	C124	C	0.621093	0.384412	0.008469
	C125	C	0.620669	0.626958	0.991962
	C126	C	0.377694	0.627325	0.009328
	C127	C	0.378251	0.384435	0.990978
	C128	C	0.008831	0.627640	0.377708
	C129	C	0.991977	0.626158	0.620381
	C130	C	0.008288	0.383360	0.622317
	C131	C	0.991845	0.385007	0.378153
	C132	C	0.877565	0.514741	0.121308
	C133	C	0.119791	0.497494	0.119694
	C134	C	0.121424	0.514546	0.877850
	C135	C	0.878060	0.497168	0.878802
	C136	C	0.121607	0.885720	0.508607
	C137	C	0.122664	0.128384	0.491090
	C138	C	0.878583	0.127845	0.508442
	C139	C	0.878906	0.885146	0.491112
	C140	C	0.508999	0.126660	0.878725
	C141	C	0.491596	0.126947	0.121429
	C142	C	0.508605	0.884214	0.122039
	C143	C	0.492170	0.883654	0.878640
	C144	C	0.375212	0.896198	0.683150
	C145	C	0.627301	0.115185	0.683979
	C146	C	0.626744	0.896519	0.315928
	C147	C	0.374506	0.115316	0.315462
	C148	C	0.684141	0.379281	0.890964
	C149	C	0.683857	0.632155	0.109218
	C150	C	0.316187	0.632022	0.890772
	C151	C	0.316103	0.379930	0.108934
	C152	C	0.891020	0.690403	0.373654
	C153	C	0.109147	0.689674	0.625999
	C154	C	0.890192	0.321454	0.625794
	C155	C	0.110299	0.323794	0.373774
	C156	C	0.891019	0.377223	0.685695
	C157	C	0.109406	0.630488	0.682907
	C158	C	0.890510	0.631900	0.316265
	C159	C	0.109254	0.380607	0.314799
	C160	C	0.374766	0.689085	0.890688
	C161	C	0.624805	0.688497	0.110283
	C162	C	0.626585	0.321457	0.890828
	C163	C	0.373299	0.321562	0.108962
	C164	C	0.685498	0.897331	0.372479
	C165	C	0.684204	0.115676	0.625473
	C166	C	0.315849	0.897235	0.627130
	C167	C	0.317135	0.116035	0.373708
	C168	C	0.872141	0.396961	0.184784
	C169	C	0.123699	0.616104	0.181349
	C170	C	0.125915	0.396210	0.816333
	C171	C	0.873668	0.615264	0.815732
	C172	C	0.184157	0.881698	0.390469
	C173	C	0.185110	0.134514	0.608898
	C174	C	0.815428	0.134216	0.391172
	C175	C	0.815672	0.879274	0.608362
	C176	C	0.391502	0.189191	0.873289
	C177	C	0.609193	0.189822	0.125682
	C178	C	0.390632	0.822449	0.126781
	C179	C	0.610003	0.821601	0.875087
	C180	C	0.390940	0.879643	0.184973
	C181	C	0.609280	0.131693	0.183336
	C182	C	0.391826	0.131263	0.815714
	C183	C	0.610052	0.879211	0.816978
	C184	C	0.874932	0.189908	0.390274
	C185	C	0.125593	0.190288	0.609515
	C186	C	0.126212	0.824012	0.390215
	C187	C	0.873129	0.820910	0.608233
	C188	C	0.184161	0.396713	0.873347
	C189	C	0.182541	0.615488	0.124974
	C190	C	0.815116	0.396470	0.126179
	C191	C	0.815832	0.615273	0.873293
	C192	C	0.406639	0.096976	0.594567
	C193	C	0.595791	0.915373	0.594262
	C194	C	0.594869	0.096661	0.404880
	C195	C	0.405544	0.915612	0.406743
	C196	C	0.593760	0.411686	0.090176
	C197	C	0.594161	0.600525	0.909667
	C198	C	0.402999	0.601104	0.091717
	C199	C	0.405025	0.411309	0.909039
	C200	C	0.090671	0.601060	0.403631
	C201	C	0.910227	0.599347	0.593709
	C202	C	0.090150	0.410374	0.595839
	C203	C	0.909961	0.411709	0.405288
	C204	C	0.904106	0.596716	0.094501
	C205	C	0.093507	0.415092	0.093324
	C206	C	0.094805	0.597102	0.903839
	C207	C	0.904563	0.415218	0.906000
	C208	C	0.094489	0.912410	0.590384
	C209	C	0.096675	0.101936	0.408967
	C210	C	0.905205	0.100492	0.590150
	C211	C	0.906002	0.912552	0.409297
	C212	C	0.590717	0.099848	0.905731
	C213	C	0.409678	0.100332	0.094934
	C214	C	0.590573	0.910811	0.095322
	C215	C	0.409961	0.910128	0.904917
	Zn216	Zn	0.501017	0.005546	0.749569
	Zn217	Zn	0.500280	0.005146	0.250507
	Zn218	Zn	0.749299	0.505954	-0.000401
	Zn219	Zn	0.249177	0.505949	-0.000186
	Zn220	Zn	0.000773	0.756429	0.499529
	Zn221	Zn	0.000341	0.255947	0.499444
	Zn222	Zn	-0.001025	0.505429	0.750248
	Zn223	Zn	-0.000126	0.505965	0.248807
	Zn224	Zn	0.499698	0.755582	0.001229
	Zn225	Zn	0.499707	0.255790	-0.000222
	Zn226	Zn	0.749974	0.006261	0.499070
	Zn227	Zn	0.250600	0.006757	0.500462
	N228	N	0.413938	0.970366	0.679794
	N229	N	0.589776	0.040419	0.681664
	N230	N	0.588040	0.970609	0.319265
	N231	N	0.412734	0.041025	0.319042
	N232	N	0.680971	0.417475	0.965245
	N233	N	0.681213	0.594461	0.034543
	N234	N	0.317773	0.594578	0.965565
	N235	N	0.318885	0.418117	0.034490
	N236	N	0.965595	0.688116	0.411065
	N237	N	0.035045	0.687092	0.587720
	N238	N	0.964180	0.325076	0.587228
	N239	N	0.036170	0.326314	0.412444
	N240	N	0.965552	0.415021	0.683677
	N241	N	0.035494	0.591710	0.679469
	N242	N	0.964664	0.593647	0.318547
	N243	N	0.034558	0.417575	0.317275
	N244	N	0.412012	0.686510	0.965427
	N245	N	0.586270	0.685284	0.036454
	N246	N	0.588128	0.324423	0.965019
	N247	N	0.411174	0.324035	0.034439
	N248	N	0.682924	0.971996	0.410227
	N249	N	0.681226	0.041373	0.587015
	N250	N	0.318301	0.972207	0.589624
	N251	N	0.320154	0.042093	0.413024
	N252	N	0.910075	0.471503	0.181899
	N253	N	0.085170	0.541889	0.177883
	N254	N	0.087483	0.470596	0.818908
	N255	N	0.911627	0.540703	0.818873
	N256	N	0.181636	0.919211	0.465247
	N257	N	0.183665	0.096969	0.534303
	N258	N	0.817429	0.096220	0.465831
	N259	N	0.819022	0.918245	0.534328
	N260	N	0.465489	0.186751	0.911559
	N261	N	0.534754	0.187237	0.088010
	N262	N	0.464623	0.825425	0.088185
	N263	N	0.535536	0.824288	0.912729
	N264	N	0.465518	0.917205	0.182277
	N265	N	0.535208	0.093364	0.180750
	N266	N	0.466003	0.092976	0.819202
	N267	N	0.535740	0.917035	0.818879
	N268	N	0.913239	0.186304	0.464099
	N269	N	0.087509	0.186667	0.535174
	N270	N	0.087811	0.826486	0.464447
	N271	N	0.911696	0.824422	0.534193
	N272	N	0.181554	0.471466	0.910735
	N273	N	0.180188	0.540732	0.087125
	N274	N	0.818283	0.470612	0.087430
	N275	N	0.818454	0.540907	0.911768
	O276	O	0.296919	0.526280	0.305478
	H277	H	0.322060	0.502251	0.304170
	H278	H	0.293433	0.515148	0.290379
	O279	O	1.012908	0.213171	1.205568
	H280	H	1.013757	0.235114	1.209309
	H281	H	1.012508	0.217410	1.195120
	O282	O	0.715560	0.717816	0.516773
	H283	H	0.735894	0.721576	0.508029
	H284	H	0.721859	0.716886	0.509653
	O285	O	0.319867	0.684520	0.324398
	H286	H	0.336749	0.661104	0.311548
	H287	H	0.333270	0.667637	0.325465
	O288	O	0.818551	0.960594	-0.029718
	H289	H	0.824401	0.948907	-0.033711
	H290	H	0.819850	0.956075	-0.042556
	O291	O	0.292891	0.484415	0.709679
	H292	H	0.270544	0.488742	0.731194
	H293	H	0.281513	0.504900	0.681389
	O294	O	-0.024103	0.025001	1.197012
	H295	H	-0.007748	0.026773	1.195346
	H296	H	-0.020780	0.018066	1.193467
	O297	O	0.521253	0.285350	0.278796
	H298	H	0.574394	0.299278	0.293566
	H299	H	0.527132	0.245968	0.239674
	O300	O	0.989655	0.845474	0.132162
	H301	H	0.982954	0.867259	0.120990
	H302	H	0.991177	0.826208	0.148544
	O303	O	0.507489	0.722593	0.671040
	H304	H	0.488962	0.728436	0.687479
	H305	H	0.486236	0.714724	0.684369
	O306	O	0.476281	0.689948	0.323765
	H307	H	0.498019	0.691859	0.347009
	H308	H	0.471339	0.713847	0.296766
	O309	O	0.286498	0.288941	0.521029
	H310	H	0.270071	0.264277	0.535836
	H311	H	0.298672	0.280072	0.502045
	O312	O	0.216009	0.987676	0.783652
	H313	H	0.228662	0.991248	0.755221
	H314	H	0.217059	0.962510	0.786805
	O315	O	0.385818	0.339127	0.434455
	H316	H	0.395880	0.359098	0.415061
	H317	H	0.397805	0.330536	0.420659
	O318	O	0.982701	-0.098592	-0.041220
	H319	H	0.985290	-0.099438	-0.070459
	H320	H	1.004497	-0.091700	-0.025771
	O321	O	-0.183423	-0.176339	0.181452
	H322	H	-0.177648	-0.184759	0.142254
	H323	H	-0.197935	-0.139048	0.194426
	O324	O	0.568168	0.298520	0.560721
	H325	H	0.539308	0.300125	0.566556
	H326	H	0.538798	0.300466	0.565396
	O327	O	0.712273	0.305718	0.480200
	H328	H	0.716112	0.281823	0.494871
	H329	H	0.696085	0.289856	0.500398
	O330	O	-0.012419	0.899479	0.208547
	H331	H	-0.027581	0.905254	0.193916
	H332	H	-0.002910	0.893596	0.223563
	O333	O	0.681087	0.680802	0.677872
	H334	H	0.692213	0.689073	0.631324
	H335	H	0.643794	0.680189	0.689701
	O336	O	0.022432	0.026626	-0.220221
	H337	H	0.003991	0.028339	-0.226052
	H338	H	0.044972	0.012772	-0.226601
	O339	O	-0.214428	1.025639	0.784491
	H340	H	-0.248470	1.036744	0.754084
	H341	H	-0.208005	1.064945	0.800421
	O342	O	0.212571	0.789788	0.980664
	H343	H	0.212194	0.766856	0.987702
	H344	H	0.218327	0.783420	0.981830
	O345	O	0.820976	0.986402	0.171464
	H346	H	0.799359	0.978376	0.199741
	H347	H	0.864135	1.010472	0.181462
	O348	O	0.456977	0.678374	0.569439
	H349	H	0.444625	0.667748	0.561367
	H350	H	0.426449	0.673917	0.581174
	O351	O	0.176561	0.830126	0.822242
	H352	H	0.169430	0.848036	0.830247
	H353	H	0.161882	0.816577	0.846032
	O354	O	-0.286182	0.485300	0.286410
	H355	H	-0.281414	0.498305	0.312516
	H356	H	-0.261673	0.489704	0.256995
	O357	O	-0.043397	-0.199873	0.864663
	H358	H	-0.054957	-0.196707	0.844422
	H359	H	-0.055357	-0.188480	0.850816
	O360	O	0.309589	0.513250	0.550119
	H361	H	0.307291	0.493295	0.535801
	H362	H	0.327360	0.523831	0.534864
	O363	O	0.126208	-0.083307	1.115892
	H364	H	0.124793	-0.076705	1.122259
	H365	H	0.126272	-0.086604	1.128279
	O366	O	0.820107	0.185505	0.819198
	H367	H	0.867993	0.196928	0.813408
	H368	H	0.811546	0.192725	0.866074
	O369	O	0.323586	0.322801	0.680268
	H370	H	0.330886	0.312546	0.647299
	H371	H	0.317633	0.371216	0.691495
	O372	O	1.118163	-0.029418	0.983198
	H373	H	1.110749	-0.044381	0.978979
	H374	H	1.113539	-0.044196	0.986528
	O375	O	0.676411	0.324314	0.318322
	H376	H	0.693165	0.331952	0.340005
	H377	H	0.691190	0.349673	0.335968
	O378	O	0.393434	0.608256	0.631396
	H379	H	0.395597	0.605565	0.628217
	H380	H	0.399776	0.606688	0.618980
	O381	O	0.700918	0.488028	0.520616
	H382	H	0.700410	0.465895	0.520337
	H383	H	0.677735	0.475333	0.533197
	O384	O	0.584688	0.468237	0.580150
	H385	H	0.600376	0.455292	0.589531
	H386	H	0.593972	0.458087	0.590818
	O387	O	-0.198653	0.211291	0.984088
	H388	H	-0.210511	0.203455	0.989768
	H389	H	-0.218723	0.192403	0.999189
	O390	O	0.208453	0.221594	0.020452
	H391	H	0.223005	0.201512	-0.002183
	H392	H	0.231672	0.236017	0.018736
	O393	O	0.934251	0.894894	0.807699
	H394	H	0.923487	0.898651	0.800002
	H395	H	0.952555	0.905989	0.815989
	O396	O	1.042712	0.208243	-0.048488
	H397	H	1.073972	0.198125	-0.033356
	H398	H	1.033172	0.199210	-0.035331
	O399	O	0.919168	0.217519	1.089967
	H400	H	0.913863	0.204566	1.070231
	H401	H	0.900756	0.222487	1.089279
	O402	O	1.050582	0.802259	1.045706
	H403	H	1.066456	0.811454	1.051444
	H404	H	1.043347	0.799632	1.052704
	O405	O	1.167331	1.096751	-0.127669
	H406	H	1.161986	1.099219	-0.134201
	H407	H	1.150331	1.069481	-0.132758
	O408	O	1.173085	0.183124	0.180690
	H409	H	1.144194	0.170279	0.188497
	H410	H	1.182120	0.198726	0.134505
	O411	O	0.777575	1.052051	0.084651
	H412	H	0.786621	1.022174	0.092684
	H413	H	0.771933	1.029035	0.091726
	O414	O	0.547823	0.580730	0.283612
	H415	H	0.549784	0.583578	0.278336
	H416	H	0.551376	0.582576	0.300843
	O417	O	0.439809	0.438442	0.285726
	H418	H	0.466138	0.414858	0.279699
	H419	H	0.471018	0.444600	0.288296
	O420	O	-0.207718	-0.152529	-0.006585
	H421	H	-0.195077	-0.156500	-0.020820
	H422	H	-0.216723	-0.159886	-0.002531
	O423	O	0.715463	0.520774	0.715668
	H424	H	0.733079	0.527754	0.710298
	H425	H	0.732053	0.545208	0.725973
	O426	O	0.408225	0.563391	0.514227
	H427	H	0.406008	0.560033	0.507105
	H428	H	0.412504	0.556963	0.531434
	O429	O	0.285275	0.711855	0.487672
	H430	H	0.266068	0.733829	0.467809
	H431	H	0.281166	0.696839	0.464587
	O432	O	0.502753	0.502854	0.716820
	H433	H	0.505442	0.492870	0.712048
	H434	H	0.514171	0.493362	0.722485
	O435	O	0.474048	0.409970	0.466965
	H436	H	0.465065	0.415500	0.487243
	H437	H	0.475640	0.415745	0.437835
	O438	O	0.207284	0.022092	0.200865
	H439	H	0.219923	0.026247	0.213300
	H440	H	0.195749	0.037866	0.196355
	O441	O	1.089169	0.018203	-0.023318
	H442	H	1.082089	0.015075	-0.029586
	H443	H	1.089324	0.010817	-0.030327
	O444	O	-0.015975	1.214096	0.794460
	H445	H	-0.012413	1.244857	0.770798
	H446	H	0.001794	1.212801	0.824201
	O447	O	0.668160	0.557704	0.458233
	H448	H	0.651585	0.550909	0.463412
	H449	H	0.661782	0.565933	0.477149
	O450	O	0.578924	0.707489	0.419063
	H451	H	0.557792	0.707985	0.450037
	H452	H	0.588204	0.711925	0.426870
	O453	O	0.484220	0.291581	0.715000
	H454	H	0.468641	0.308392	0.710364
	H455	H	0.475834	0.267655	0.747731
