data_Molecule from HDF5

_cell_length_a		16.587453
_cell_length_b		16.589140
_cell_length_c		16.757199
_cell_angle_alpha	90.042971
_cell_angle_beta	89.985357
_cell_angle_gamma	90.046766
_symmetry_space_group_name_H-M	'P 1'
_symmetry_Int_Tables_number		1

loop_
	_symmetry_equiv_pos_as_xyz
	x,y,z

loop_
	_atom_site_label
	_atom_site_type_symbol
	_atom_site_fract_x
	_atom_site_fract_y
	_atom_site_fract_z
	H0	H	0.396156	0.844105	0.734577
	H1	H	0.609309	0.153277	0.734313
	H2	H	0.607551	0.842256	0.291050
	H3	H	0.393999	0.152606	0.289089
	H4	H	0.722977	0.392990	0.858070
	H5	H	0.722647	0.603268	0.168105
	H6	H	0.282858	0.600023	0.857863
	H7	H	0.286627	0.399748	0.170811
	H8	H	0.844011	0.712383	0.414508
	H9	H	0.161123	0.712541	0.612139
	H10	H	0.847670	0.274631	0.618570
	H11	H	0.157084	0.276703	0.408036
	H12	H	0.848552	0.389016	0.736078
	H13	H	0.159424	0.599984	0.731782
	H14	H	0.844862	0.599226	0.295216
	H15	H	0.157851	0.393857	0.292591
	H16	H	0.402555	0.714912	0.856681
	H17	H	0.605692	0.718737	0.167693
	H18	H	0.607030	0.275859	0.858993
	H19	H	0.400951	0.280955	0.169440
	H20	H	0.721728	0.841339	0.408693
	H21	H	0.722222	0.154253	0.615991
	H22	H	0.283805	0.841829	0.615560
	H23	H	0.277488	0.151259	0.404567
	H24	H	0.894927	0.342785	0.235321
	H25	H	0.104071	0.655163	0.231072
	H26	H	0.110261	0.342813	0.790583
	H27	H	0.899146	0.653249	0.793942
	H28	H	0.224079	0.892317	0.359227
	H29	H	0.227689	0.106574	0.664998
	H30	H	0.778046	0.105047	0.358416
	H31	H	0.778584	0.891475	0.666627
	H32	H	0.344850	0.216420	0.910779
	H33	H	0.658246	0.219475	0.117686
	H34	H	0.344660	0.781655	0.112996
	H35	H	0.657851	0.776690	0.906203
	H36	H	0.346855	0.894421	0.232285
	H37	H	0.657775	0.104140	0.234201
	H38	H	0.346217	0.103506	0.791962
	H39	H	0.657404	0.891587	0.790086
	H40	H	0.895268	0.220822	0.358387
	H41	H	0.113701	0.223914	0.663521
	H42	H	0.105794	0.777378	0.357801
	H43	H	0.896445	0.776344	0.667454
	H44	H	0.223345	0.341154	0.909366
	H45	H	0.217364	0.656349	0.112844
	H46	H	0.780507	0.341699	0.117964
	H47	H	0.785958	0.654585	0.912249
	H48	H	0.408357	0.113353	0.602348
	H49	H	0.594003	0.885782	0.600630
	H50	H	0.584236	0.107490	0.422502
	H51	H	0.412401	0.886847	0.427402
	H52	H	0.579031	0.410702	0.118582
	H53	H	0.594424	0.586238	0.902156
	H54	H	0.408353	0.591605	0.126163
	H55	H	0.413274	0.407321	0.902317
	H56	H	0.116764	0.591414	0.421691
	H57	H	0.890972	0.585226	0.600980
	H58	H	0.112786	0.408344	0.596741
	H59	H	0.887391	0.405074	0.422392
	H60	H	0.111526	0.414611	0.599837
	H61	H	0.888993	0.584087	0.609405
	H62	H	0.115141	0.586356	0.421407
	H63	H	0.892400	0.410077	0.428538
	H64	H	0.410236	0.590501	0.125459
	H65	H	0.591948	0.586877	0.902367
	H66	H	0.595564	0.398083	0.128318
	H67	H	0.410856	0.405749	0.900713
	H68	H	0.592760	0.108542	0.428148
	H69	H	0.588408	0.885731	0.605806
	H70	H	0.419966	0.111147	0.606839
	H71	H	0.410752	0.884231	0.418172
	H72	H	0.915138	0.606760	0.097447
	H73	H	0.093675	0.383232	0.107428
	H74	H	0.094704	0.610391	0.923156
	H75	H	0.908437	0.383459	0.925419
	H76	H	0.091301	0.910198	0.622289
	H77	H	0.089854	0.083802	0.403029
	H78	H	0.913494	0.078697	0.619212
	H79	H	0.908479	0.902642	0.399707
	H80	H	0.613925	0.087634	0.923645
	H81	H	0.390171	0.083102	0.106137
	H82	H	0.615470	0.910602	0.105621
	H83	H	0.391786	0.913067	0.921650
	H84	H	0.615747	0.907039	0.100910
	H85	H	0.388095	0.092203	0.104885
	H86	H	0.612143	0.084878	0.926017
	H87	H	0.388532	0.905685	0.918387
	H88	H	0.919652	0.088143	0.620747
	H89	H	0.088232	0.081716	0.405064
	H90	H	0.090145	0.901480	0.625632
	H91	H	0.909618	0.910306	0.402098
	H92	H	0.088730	0.608937	0.919846
	H93	H	0.090618	0.385862	0.104998
	H94	H	0.907221	0.611274	0.104312
	H95	H	0.914355	0.383134	0.917284
	H96	H	0.416645	0.107461	0.594948
	H97	H	0.587344	0.887626	0.599192
	H98	H	0.592587	0.112821	0.418524
	H99	H	0.419316	0.887576	0.421015
	H100	H	0.599752	0.420023	0.122577
	H101	H	0.593260	0.588675	0.901683
	H102	H	0.410594	0.592030	0.125813
	H103	H	0.410662	0.408908	0.902273
	H104	H	0.116921	0.589088	0.416496
	H105	H	0.887748	0.591905	0.605957
	H106	H	0.115029	0.409760	0.603493
	H107	H	0.890649	0.413845	0.420389
	H108	H	0.917858	0.608984	0.108386
	H109	H	0.094547	0.384886	0.103390
	H110	H	0.089494	0.607564	0.926245
	H111	H	0.917674	0.387560	0.925596
	H112	H	0.098650	0.905781	0.625911
	H113	H	0.087010	0.084352	0.403973
	H114	H	0.908919	0.088078	0.623891
	H115	H	0.915454	0.904557	0.402785
	H116	H	0.612740	0.083866	0.922356
	H117	H	0.391760	0.087279	0.097964
	H118	H	0.613288	0.912362	0.100653
	H119	H	0.391028	0.906193	0.926379
	C120	C	0.382232	0.007345	0.632887
	C121	C	0.623254	0.989331	0.634148
	C122	C	0.622833	0.006557	0.391026
	C123	C	0.380625	0.988914	0.390017
	C124	C	0.623817	0.376565	0.021379
	C125	C	0.624595	0.619715	1.004456
	C126	C	0.380172	0.620836	0.021894
	C127	C	0.380967	0.377179	1.004896
	C128	C	0.011318	0.618874	0.390797
	C129	C	0.993794	0.617768	0.634762
	C130	C	0.011183	0.376805	0.633092
	C131	C	0.993108	0.376987	0.391524
	C132	C	0.880885	0.505815	0.134641
	C133	C	0.123159	0.489233	0.134838
	C134	C	0.123779	0.505685	0.891774
	C135	C	0.882019	0.488288	0.891904
	C136	C	0.124284	0.875202	0.521859
	C137	C	0.123127	0.117981	0.504286
	C138	C	0.881108	0.118648	0.519689
	C139	C	0.879825	0.875358	0.504341
	C140	C	0.509762	0.117977	0.892649
	C141	C	0.493306	0.119889	0.134719
	C142	C	0.511077	0.878247	0.133063
	C143	C	0.493748	0.876471	0.890252
	C144	C	0.378673	0.890424	0.693695
	C145	C	0.626764	0.106393	0.694035
	C146	C	0.625461	0.889087	0.331399
	C147	C	0.376339	0.105688	0.329367
	C148	C	0.683388	0.374481	0.904667
	C149	C	0.682937	0.621449	0.121243
	C150	C	0.322787	0.619633	0.904208
	C151	C	0.324775	0.379082	0.123322
	C152	C	0.891815	0.674537	0.393364
	C153	C	0.113230	0.674652	0.632939
	C154	C	0.894447	0.314906	0.636799
	C155	C	0.110594	0.316933	0.389550
	C156	C	0.894833	0.372032	0.694871
	C157	C	0.112715	0.618461	0.691982
	C158	C	0.892257	0.618590	0.334133
	C159	C	0.110868	0.374878	0.332219
	C160	C	0.382138	0.676327	0.903400
	C161	C	0.624958	0.679072	0.121128
	C162	C	0.625855	0.316254	0.905001
	C163	C	0.381734	0.320183	0.122696
	C164	C	0.682225	0.888569	0.389836
	C165	C	0.683140	0.106947	0.635489
	C166	C	0.322920	0.889326	0.634488
	C167	C	0.318399	0.105031	0.386638
	C168	C	0.877680	0.388902	0.194509
	C169	C	0.123120	0.607985	0.191776
	C170	C	0.127233	0.388904	0.831566
	C171	C	0.880694	0.606245	0.833358
	C172	C	0.183659	0.873886	0.405295
	C173	C	0.186429	0.123589	0.618887
	C174	C	0.819385	0.122328	0.404439
	C175	C	0.819302	0.873366	0.620331
	C176	C	0.391895	0.177036	0.891877
	C177	C	0.611098	0.179603	0.136160
	C178	C	0.392399	0.820266	0.132837
	C179	C	0.611007	0.816929	0.888431
	C180	C	0.393236	0.876136	0.192031
	C181	C	0.611140	0.122069	0.193930
	C182	C	0.392585	0.120677	0.832886
	C183	C	0.610618	0.873980	0.830334
	C184	C	0.877612	0.180041	0.404347
	C185	C	0.129457	0.181906	0.618112
	C186	C	0.125089	0.816598	0.404921
	C187	C	0.877592	0.815885	0.620797
	C188	C	0.183599	0.388282	0.890446
	C189	C	0.179569	0.608609	0.133219
	C190	C	0.820654	0.388598	0.136273
	C191	C	0.824355	0.606881	0.892225
	C192	C	0.407847	0.089355	0.608291
	C193	C	0.597514	0.907712	0.608999
	C194	C	0.597236	0.088477	0.415896
	C195	C	0.406910	0.907416	0.415117
	C196	C	0.598541	0.402173	0.102104
	C197	C	0.600076	0.594627	0.923272
	C198	C	0.403080	0.598174	0.104250
	C199	C	0.404656	0.400634	0.923070
	C200	C	0.094534	0.595734	0.413104
	C201	C	0.910935	0.594065	0.612113
	C202	C	0.091985	0.403495	0.607429
	C203	C	0.911410	0.402392	0.416526
	C204	C	0.906304	0.587759	0.110391
	C205	C	0.099644	0.406195	0.111745
	C206	C	0.098436	0.587540	0.916216
	C207	C	0.906387	0.406023	0.915995
	C208	C	0.100246	0.899259	0.603380
	C209	C	0.096090	0.090733	0.424708
	C210	C	0.906936	0.092556	0.600344
	C211	C	0.904340	0.899141	0.422730
	C212	C	0.591595	0.092862	0.917102
	C213	C	0.411281	0.094679	0.110185
	C214	C	0.593520	0.903051	0.109154
	C215	C	0.411689	0.901239	0.915106
	Zn216	Zn	0.501900	-0.001110	0.762312
	Zn217	Zn	0.502148	-0.002048	0.262291
	Zn218	Zn	0.753137	0.497518	0.013080
	Zn219	Zn	0.251595	0.498401	0.013566
	Zn220	Zn	0.002267	0.746199	0.513737
	Zn221	Zn	0.002611	0.248061	0.512430
	Zn222	Zn	0.003307	0.496756	0.762728
	Zn223	Zn	0.002259	0.497411	0.262990
	Zn224	Zn	0.502738	0.749032	0.012618
	Zn225	Zn	0.501869	0.247904	0.012672
	Zn226	Zn	0.751023	-0.002199	0.512057
	Zn227	Zn	0.253321	-0.002253	0.512675
	N228	N	0.414844	0.964976	0.692956
	N229	N	0.590437	0.032032	0.693716
	N230	N	0.589277	0.963588	0.331961
	N231	N	0.414205	0.032213	0.331145
	N232	N	0.682433	0.411326	0.978057
	N233	N	0.683056	0.585332	0.047562
	N234	N	0.321324	0.585893	0.978907
	N235	N	0.323773	0.413631	0.048934
	N236	N	0.967143	0.675292	0.427605
	N237	N	0.038217	0.674665	0.598314
	N238	N	0.967856	0.317509	0.599136
	N239	N	0.036110	0.317771	0.425371
	N240	N	0.968423	0.409692	0.692965
	N241	N	0.037297	0.584195	0.693569
	N242	N	0.967901	0.585163	0.331971
	N243	N	0.036701	0.411269	0.333113
	N244	N	0.416624	0.677497	0.977822
	N245	N	0.589305	0.678333	0.047326
	N246	N	0.589612	0.317372	0.978610
	N247	N	0.415558	0.318595	0.047982
	N248	N	0.680847	0.962705	0.426136
	N249	N	0.681252	0.032917	0.598957
	N250	N	0.324795	0.963233	0.597654
	N251	N	0.320893	0.031327	0.423788
	N252	N	0.914599	0.462867	0.193715
	N253	N	0.089009	0.532479	0.193291
	N254	N	0.090457	0.462786	0.832504
	N255	N	0.915730	0.531262	0.832711
	N256	N	0.183518	0.909486	0.479211
	N257	N	0.182699	0.084128	0.547108
	N258	N	0.821467	0.084781	0.477250
	N259	N	0.820420	0.909761	0.546840
	N260	N	0.465873	0.175575	0.928371
	N261	N	0.536788	0.178436	0.100056
	N262	N	0.466863	0.821122	0.097035
	N263	N	0.537157	0.818206	0.925131
	N264	N	0.468223	0.911245	0.192534
	N265	N	0.536599	0.086026	0.193600
	N266	N	0.466957	0.084722	0.833082
	N267	N	0.536421	0.910390	0.831171
	N268	N	0.915332	0.177835	0.477193
	N269	N	0.090603	0.178544	0.545901
	N270	N	0.088974	0.816959	0.478455
	N271	N	0.914597	0.816815	0.547479
	N272	N	0.181617	0.462014	0.927445
	N273	N	0.179982	0.533547	0.098724
	N274	N	0.822667	0.462332	0.099673
	N275	N	0.824937	0.532468	0.927913
	O276	O	-0.292977	1.358125	-0.340354
	H277	H	-0.295648	1.355106	-0.320039
	H278	H	-0.282802	1.343962	-0.314258
	O279	O	-0.173614	0.201342	-0.115913
	H280	H	-0.153312	0.193474	-0.099659
	H281	H	-0.177023	0.175943	-0.103946
	O282	O	1.134588	0.194730	1.219328
	H283	H	1.115155	0.206601	1.206471
	H284	H	1.115131	0.174803	1.215769
	O285	O	0.690310	0.682830	0.325638
	H286	H	0.676022	0.672368	0.342009
	H287	H	0.674185	0.657461	0.340724
	O288	O	0.283882	0.537195	0.293356
	H289	H	0.265989	0.536798	0.284473
	H290	H	0.281144	0.536733	0.294013
	O291	O	0.538569	0.274749	0.290490
	H292	H	0.531122	0.265950	0.284457
	H293	H	0.523999	0.262265	0.280093
	O294	O	0.963972	-0.189783	0.974137
	H295	H	0.941620	-0.198602	0.963718
	H296	H	0.972766	-0.178047	0.964994
	O297	O	0.410228	0.555563	0.727614
	H298	H	0.431601	0.536754	0.728329
	H299	H	0.425644	0.558900	0.709187
	O300	O	-0.024177	0.037416	1.250630
	H301	H	-0.032370	0.042502	1.235998
	H302	H	-0.039005	0.046550	1.258757
	O303	O	0.704037	0.297109	0.310682
	H304	H	0.690091	0.309441	0.334912
	H305	H	0.678697	0.302763	0.300309
	O306	O	0.948318	-0.032491	0.086682
	H307	H	0.932223	-0.042089	0.090407
	H308	H	0.952071	-0.026762	0.102427
	O309	O	0.560431	0.472494	0.516297
	H310	H	0.553265	0.477329	0.511675
	H311	H	0.564594	0.469538	0.513771
	O312	O	0.448805	0.267105	0.448296
	H313	H	0.467493	0.267949	0.461409
	H314	H	0.448566	0.264511	0.451399
	O315	O	1.029387	1.179591	1.033773
	H316	H	1.024389	1.183222	1.057879
	H317	H	1.045602	1.170005	1.037353
	O318	O	1.227369	1.223311	0.058023
	H319	H	1.257025	1.246678	0.052717
	H320	H	1.226763	1.216266	0.082936
	O321	O	0.709850	0.704023	0.722103
	H322	H	0.727602	0.726100	0.738470
	H323	H	0.678296	0.702771	0.711984
	O324	O	0.774787	0.778111	0.041542
	H325	H	0.746680	0.757137	0.053226
	H326	H	0.771313	0.786150	0.069143
	O327	O	0.151685	-0.098413	1.024305
	H328	H	0.137107	-0.118404	1.015984
	H329	H	0.155738	-0.083020	1.016920
	O330	O	0.792606	0.207061	0.053957
	H331	H	0.810984	0.194290	0.039638
	H332	H	0.771400	0.228019	0.041919
	O333	O	0.306179	0.470655	0.503755
	H334	H	0.306472	0.472073	0.498685
	H335	H	0.311889	0.444627	0.500936
	O336	O	0.260409	0.246501	0.760440
	H337	H	0.229106	0.217675	0.781223
	H338	H	0.246808	0.277971	0.765489
	O339	O	0.956900	-0.220762	1.239494
	H340	H	0.973651	-0.227163	1.250963
	H341	H	0.973313	-0.228721	1.236210
	O342	O	-0.188711	0.040275	0.109810
	H343	H	-0.206935	0.054027	0.108822
	H344	H	-0.188547	0.019477	0.109620
	O345	O	0.223270	0.777161	0.963010
	H346	H	0.253046	0.744332	0.969281
	H347	H	0.202291	0.785543	0.968736
	O348	O	0.026126	-0.116065	-0.045040
	H349	H	0.024430	-0.123775	-0.057925
	H350	H	0.027605	-0.124616	-0.032021
	O351	O	0.470932	0.483791	0.469304
	H352	H	0.476310	0.474074	0.480304
	H353	H	0.477815	0.487501	0.470930
	O354	O	-0.142271	-0.053763	0.952627
	H355	H	-0.148564	-0.070228	0.968943
	H356	H	-0.134702	-0.042440	0.963632
	O357	O	0.210975	0.790032	0.797531
	H358	H	0.245803	0.756880	0.768878
	H359	H	0.219643	0.804517	0.827566
	O360	O	0.582127	0.476662	0.650831
	H361	H	0.583675	0.507301	0.659493
	H362	H	0.580547	0.464656	0.650764
	O363	O	-0.244615	0.238445	-0.236593
	H364	H	-0.224857	0.228464	-0.196713
	H365	H	-0.249744	0.224689	-0.238430
	O366	O	0.396539	0.395071	0.570713
	H367	H	0.407491	0.391381	0.578002
	H368	H	0.392121	0.387785	0.575289
	O369	O	0.713449	0.468313	0.297596
	H370	H	0.713439	0.463136	0.281607
	H371	H	0.716235	0.462001	0.303121
	O372	O	1.149783	1.108091	-0.012862
	H373	H	1.153356	1.110598	-0.003592
	H374	H	1.146963	1.111224	-0.025250
	O375	O	1.265126	0.260579	0.274786
	H376	H	1.264923	0.258830	0.279271
	H377	H	1.248625	0.253086	0.296087
	O378	O	0.118964	0.139550	-0.141189
	H379	H	0.110344	0.137003	-0.119826
	H380	H	0.104544	0.122865	-0.142551
	O381	O	-0.027531	1.211794	0.784836
	H382	H	-0.020019	1.223985	0.778792
	H383	H	-0.028683	1.223866	0.794176
	O384	O	1.004215	0.218684	1.176787
	H385	H	0.990032	0.218176	1.181235
	H386	H	1.011260	0.228860	1.182504
	O387	O	1.036968	0.802521	0.080939
	H388	H	1.016592	0.812425	0.075973
	H389	H	1.026457	0.787352	0.054493
	O390	O	0.313492	0.688610	0.708090
	H391	H	0.324733	0.660845	0.691404
	H392	H	0.340278	0.674804	0.691266
	O393	O	0.290173	0.313986	0.514348
	H394	H	0.294946	0.314142	0.532627
	H395	H	0.285288	0.297616	0.531379
	O396	O	-0.151201	0.994310	0.781186
	H397	H	-0.155966	1.007436	0.773343
	H398	H	-0.158364	0.989078	0.776697
	O399	O	-0.216458	0.004062	0.881234
	H400	H	-0.197719	-0.006598	0.881975
	H401	H	-0.226016	-0.002223	0.873021
	O402	O	0.715066	0.288600	0.473977
	H403	H	0.700263	0.294607	0.463450
	H404	H	0.740049	0.272662	0.472559
	O405	O	1.197269	-0.195979	1.210860
	H406	H	1.173377	-0.163692	1.212242
	H407	H	1.181907	-0.188506	1.174673
	O408	O	0.703015	0.519686	-0.460348
	H409	H	0.710958	0.508032	-0.457805
	H410	H	0.700683	0.502005	-0.437220
	O411	O	0.712430	0.713447	0.544997
	H412	H	0.715683	0.722741	0.561282
	H413	H	0.723588	0.711999	0.546663
	O414	O	0.331654	0.377906	0.352044
	H415	H	0.331949	0.382156	0.360659
	H416	H	0.333095	0.384047	0.353095
	O417	O	0.729452	0.530318	0.740320
	H418	H	0.754046	0.542647	0.760377
	H419	H	0.735318	0.555614	0.739458
	O420	O	0.532423	0.537787	0.576653
	H421	H	0.549356	0.554345	0.575985
	H422	H	0.549538	0.531848	0.564695
	O423	O	0.057388	0.015330	1.046073
	H424	H	0.052340	0.011813	1.042585
	H425	H	0.050058	0.021431	1.029777
	O426	O	0.426786	0.704717	0.577194
	H427	H	0.418611	0.708514	0.563545
	H428	H	0.421350	0.691331	0.560567
	O429	O	0.788050	0.785858	1.228803
	H430	H	0.826511	0.773624	1.241851
	H431	H	0.775713	0.760185	1.251562
	O432	O	0.541845	0.698433	0.717983
	H433	H	0.535946	0.706718	0.712475
	H434	H	0.535711	0.701252	0.725908
	O435	O	0.211497	1.014290	0.231662
	H436	H	0.225463	1.030269	0.246580
	H437	H	0.215901	1.020698	0.220584
	O438	O	0.038365	-0.226965	-0.213837
	H439	H	0.069399	-0.239313	-0.228196
	H440	H	0.056492	-0.237742	-0.227887
	O441	O	-0.004369	0.159835	-0.054910
	H442	H	-0.016939	0.145674	-0.049428
	H443	H	0.014554	0.154014	-0.042030
	O444	O	0.526475	0.498933	0.282394
	H445	H	0.519368	0.523275	0.282929
	H446	H	0.504541	0.497847	0.284992
	O447	O	0.053207	0.901832	1.227053
	H448	H	0.045654	0.921060	1.238035
	H449	H	0.051901	0.905467	1.220508
	O450	O	-0.528599	0.718363	1.295743
	H451	H	-0.531510	0.734244	1.281301
	H452	H	-0.543246	0.713090	1.295979
	O453	O	0.477357	0.505611	0.302435
	H454	H	0.478643	0.511562	0.314951
	H455	H	0.495269	0.487959	0.303436
	O456	O	0.506630	0.398895	0.732573
	H457	H	0.511435	0.416210	0.729831
	H458	H	0.493177	0.374174	0.735904
	O459	O	1.060960	1.050958	-0.228907
	H460	H	1.056487	1.042982	-0.229173
	H461	H	1.065492	1.051916	-0.234768
	O462	O	0.818013	-0.012810	0.240206
	H463	H	0.810756	-0.039140	0.245666
	H464	H	0.802901	-0.022169	0.252937
	O465	O	1.227013	0.019215	-0.000878
	H466	H	1.231665	0.016281	-0.011564
	H467	H	1.222835	0.028538	0.013810
	O468	O	0.286117	0.715985	0.470616
	H469	H	0.267911	0.736491	0.461637
	H470	H	0.285354	0.721418	0.434086
	O471	O	0.406556	0.272351	0.736932
	H472	H	0.371719	0.259390	0.752702
	H473	H	0.402863	0.261319	0.744474
	O474	O	0.378935	0.577845	0.560651
	H475	H	0.375570	0.597279	0.540066
	H476	H	0.378314	0.555465	0.547678
	O477	O	0.539189	0.727962	1.468746
	H478	H	0.532318	0.726431	1.467917
	H479	H	0.541116	0.726395	1.464517
	O480	O	0.299487	0.704910	0.305669
	H481	H	0.315276	0.679406	0.302102
	H482	H	0.266755	0.737082	0.272938
	O483	O	0.677077	0.524569	0.435358
	H484	H	0.676891	0.518725	0.461715
	H485	H	0.683760	0.512388	0.436843
	O486	O	0.580396	0.273786	0.567244
	H487	H	0.595573	0.278936	0.578301
	H488	H	0.591081	0.269615	0.580192
	O489	O	0.810704	0.808395	-0.181118
	H490	H	0.807264	0.811091	-0.159515
	H491	H	0.832637	0.826351	-0.174245
	O492	O	-0.199142	0.139728	0.148232
	H493	H	-0.213916	0.136155	0.138257
	H494	H	-0.203810	0.134748	0.158980
	O495	O	0.218597	0.969572	0.791766
	H496	H	0.223648	0.966395	0.781173
	H497	H	0.222957	0.951547	0.787305
	O498	O	0.915100	0.955064	0.886165
	H499	H	0.902735	0.950322	0.890185
	H500	H	0.912567	0.958189	0.890901
	O501	O	0.289599	0.451144	0.708309
	H502	H	0.279608	0.470473	0.711407
	H503	H	0.305149	0.454722	0.712665
