data_Molecule from HDF5

_cell_length_a		16.242457
_cell_length_b		16.321289
_cell_length_c		16.194532
_cell_angle_alpha	90.282642
_cell_angle_beta	90.313385
_cell_angle_gamma	90.157848
_symmetry_space_group_name_H-M	'P 1'
_symmetry_Int_Tables_number		1

loop_
	_symmetry_equiv_pos_as_xyz
	x,y,z

loop_
	_atom_site_label
	_atom_site_type_symbol
	_atom_site_fract_x
	_atom_site_fract_y
	_atom_site_fract_z
	H0	H	0.404929	0.831577	0.714079
	H1	H	0.605548	0.157942	0.725093
	H2	H	0.600812	0.832155	0.291034
	H3	H	0.399735	0.156491	0.284990
	H4	H	0.715071	0.394918	0.841883
	H5	H	0.716566	0.594796	0.169706
	H6	H	0.286639	0.592715	0.841256
	H7	H	0.285535	0.395069	0.169146
	H8	H	0.837864	0.715349	0.404223
	H9	H	0.164215	0.717110	0.609360
	H10	H	0.837706	0.283760	0.603352
	H11	H	0.163458	0.282558	0.403189
	H12	H	0.836187	0.401419	0.715584
	H13	H	0.164259	0.600338	0.724239
	H14	H	0.837937	0.599878	0.287035
	H15	H	0.164645	0.400856	0.292556
	H16	H	0.400268	0.707547	0.841327
	H17	H	0.603886	0.713124	0.168121
	H18	H	0.600282	0.278339	0.841969
	H19	H	0.399636	0.277533	0.169177
	H20	H	0.720053	0.835587	0.403816
	H21	H	0.716303	0.161157	0.605832
	H22	H	0.282825	0.836107	0.604593
	H23	H	0.288002	0.159689	0.403640
	H24	H	0.902629	0.335501	0.219934
	H25	H	0.103097	0.660426	0.222501
	H26	H	0.098798	0.335330	0.788630
	H27	H	0.900907	0.660947	0.791389
	H28	H	0.214798	0.898812	0.340392
	H29	H	0.217667	0.099338	0.668427
	H30	H	0.784005	0.100221	0.341452
	H31	H	0.788906	0.903898	0.669966
	H32	H	0.339669	0.209249	0.901915
	H33	H	0.663757	0.212071	0.110306
	H34	H	0.337628	0.778846	0.101147
	H35	H	0.664639	0.777283	0.904327
	H36	H	0.338425	0.892358	0.218942
	H37	H	0.665433	0.091578	0.219046
	H38	H	0.339163	0.090003	0.790481
	H39	H	0.667116	0.895241	0.791243
	H40	H	0.900814	0.212393	0.340052
	H41	H	0.100713	0.214003	0.668412
	H42	H	0.102624	0.780008	0.343184
	H43	H	0.899998	0.783979	0.668499
	H44	H	0.214845	0.333585	0.904003
	H45	H	0.221346	0.659091	0.107436
	H46	H	0.787246	0.334226	0.105590
	H47	H	0.784506	0.659012	0.906212
	H48	H	0.411904	0.113551	0.601524
	H49	H	0.587891	0.882896	0.597994
	H50	H	0.601021	0.114217	0.414935
	H51	H	0.402551	0.880657	0.419797
	H52	H	0.596994	0.403607	0.123751
	H53	H	0.595656	0.589185	0.886566
	H54	H	0.408292	0.580619	0.121903
	H55	H	0.410454	0.399826	0.889708
	H56	H	0.115765	0.590185	0.417195
	H57	H	0.888033	0.585664	0.595936
	H58	H	0.118158	0.402933	0.594786
	H59	H	0.882273	0.399805	0.413066
	H60	H	0.116238	0.410417	0.595161
	H61	H	0.882294	0.594061	0.603800
	H62	H	0.116008	0.588862	0.416304
	H63	H	0.886139	0.408521	0.416374
	H64	H	0.419590	0.585114	0.118915
	H65	H	0.594929	0.581360	0.889010
	H66	H	0.592121	0.404199	0.121224
	H67	H	0.407296	0.399409	0.887903
	H68	H	0.590579	0.113868	0.402760
	H69	H	0.598314	0.883258	0.586559
	H70	H	0.413810	0.112041	0.596382
	H71	H	0.405561	0.876686	0.404522
	H72	H	0.911423	0.615439	0.104397
	H73	H	0.090141	0.383303	0.098290
	H74	H	0.097107	0.614687	0.910184
	H75	H	0.903101	0.377754	0.907248
	H76	H	0.094141	0.911840	0.620846
	H77	H	0.098066	0.087093	0.387657
	H78	H	0.909295	0.096119	0.623192
	H79	H	0.912187	0.913037	0.391047
	H80	H	0.623196	0.095213	0.910747
	H81	H	0.385762	0.085171	0.092001
	H82	H	0.618468	0.903082	0.101927
	H83	H	0.386095	0.901333	0.912289
	H84	H	0.619553	0.897509	0.096056
	H85	H	0.386499	0.082683	0.094722
	H86	H	0.616689	0.086856	0.925415
	H87	H	0.384722	0.902069	0.905937
	H88	H	0.907237	0.091313	0.621679
	H89	H	0.089594	0.091586	0.388695
	H90	H	0.089961	0.908555	0.620895
	H91	H	0.915180	0.903478	0.387809
	H92	H	0.086061	0.610656	0.916862
	H93	H	0.095933	0.381820	0.095688
	H94	H	0.915231	0.610724	0.092253
	H95	H	0.912001	0.380879	0.907114
	H96	H	0.408450	0.113309	0.597193
	H97	H	0.602227	0.877343	0.600520
	H98	H	0.586481	0.108718	0.417354
	H99	H	0.417089	0.883322	0.413701
	H100	H	0.593522	0.399552	0.124105
	H101	H	0.587966	0.586436	0.889587
	H102	H	0.410737	0.592440	0.123548
	H103	H	0.408547	0.403580	0.889070
	H104	H	0.116198	0.590371	0.415518
	H105	H	0.884963	0.597462	0.591906
	H106	H	0.118882	0.406805	0.601520
	H107	H	0.882841	0.407590	0.406906
	H108	H	0.901757	0.614761	0.093862
	H109	H	0.094286	0.380320	0.101222
	H110	H	0.097695	0.611998	0.923460
	H111	H	0.906545	0.381895	0.915879
	H112	H	0.094131	0.907276	0.622035
	H113	H	0.096701	0.096155	0.384020
	H114	H	0.913031	0.092040	0.620529
	H115	H	0.905150	0.907002	0.387070
	H116	H	0.618060	0.077588	0.910055
	H117	H	0.384791	0.085746	0.095239
	H118	H	0.616274	0.904718	0.094045
	H119	H	0.384632	0.896245	0.908143
	C120	C	0.381374	0.005294	0.626043
	C121	C	0.625085	0.988479	0.626578
	C122	C	0.623040	0.004859	0.382715
	C123	C	0.379568	0.987463	0.382289
	C124	C	0.622979	0.373088	0.014713
	C125	C	0.623164	0.616232	0.996614
	C126	C	0.381737	0.614861	0.013569
	C127	C	0.378881	0.371422	0.996805
	C128	C	0.008947	0.620362	0.384678
	C129	C	0.992699	0.622050	0.628272
	C130	C	0.009568	0.377609	0.625390
	C131	C	0.992065	0.376820	0.383275
	C132	C	0.880565	0.506227	0.126395
	C133	C	0.124243	0.488765	0.128268
	C134	C	0.122115	0.505480	0.885162
	C135	C	0.878190	0.488062	0.882127
	C136	C	0.122447	0.878019	0.513640
	C137	C	0.124116	0.121066	0.495347
	C138	C	0.880192	0.121198	0.513322
	C139	C	0.880717	0.878822	0.496791
	C140	C	0.511306	0.114974	0.884348
	C141	C	0.493150	0.114739	0.125749
	C142	C	0.509941	0.872336	0.125479
	C143	C	0.493484	0.871294	0.880890
	C144	C	0.383418	0.881609	0.678655
	C145	C	0.624419	0.109890	0.685426
	C146	C	0.621524	0.881744	0.327945
	C147	C	0.380652	0.108693	0.324183
	C148	C	0.677715	0.374901	0.890909
	C149	C	0.678959	0.615235	0.120281
	C150	C	0.324618	0.612758	0.890310
	C151	C	0.322795	0.373642	0.119887
	C152	C	0.886404	0.676779	0.384495
	C153	C	0.115180	0.679197	0.629158
	C154	C	0.886770	0.321599	0.623226
	C155	C	0.114945	0.321126	0.384517
	C156	C	0.885806	0.380678	0.678927
	C157	C	0.115551	0.620473	0.685454
	C158	C	0.886481	0.619397	0.326352
	C159	C	0.115592	0.379926	0.329282
	C160	C	0.381400	0.669797	0.890253
	C161	C	0.623294	0.674415	0.119318
	C162	C	0.620490	0.316886	0.890994
	C163	C	0.379926	0.315391	0.119893
	C164	C	0.680934	0.883480	0.383993
	C165	C	0.679483	0.111801	0.626043
	C166	C	0.322751	0.883746	0.624081
	C167	C	0.324866	0.110248	0.383207
	C168	C	0.882585	0.383840	0.182223
	C169	C	0.123542	0.611374	0.184738
	C170	C	0.119340	0.383596	0.827389
	C171	C	0.880750	0.611518	0.828573
	C172	C	0.177681	0.878584	0.390010
	C173	C	0.179729	0.119444	0.619149
	C174	C	0.823034	0.119405	0.390124
	C175	C	0.825420	0.882213	0.620371
	C176	C	0.388479	0.170658	0.883799
	C177	C	0.615409	0.172412	0.127791
	C178	C	0.386601	0.816511	0.122476
	C179	C	0.616195	0.815429	0.883892
	C180	C	0.387145	0.872957	0.180847
	C181	C	0.616316	0.112766	0.182366
	C182	C	0.388361	0.111584	0.827870
	C183	C	0.617300	0.873966	0.827404
	C184	C	0.881342	0.175061	0.389348
	C185	C	0.121582	0.176501	0.619101
	C186	C	0.122241	0.819346	0.391437
	C187	C	0.880997	0.822970	0.619883
	C188	C	0.176973	0.382693	0.884848
	C189	C	0.182331	0.610687	0.127625
	C190	C	0.825200	0.383311	0.124952
	C191	C	0.822519	0.610506	0.885521
	C192	C	0.404545	0.090742	0.604585
	C193	C	0.602691	0.903298	0.602109
	C194	C	0.599717	0.090248	0.405046
	C195	C	0.401864	0.902272	0.405864
	C196	C	0.600907	0.395754	0.100688
	C197	C	0.599580	0.592724	0.910765
	C198	C	0.405753	0.592582	0.099346
	C199	C	0.401924	0.394255	0.911042
	C200	C	0.094049	0.596762	0.409235
	C201	C	0.907287	0.599148	0.604225
	C202	C	0.095558	0.400110	0.603574
	C203	C	0.906148	0.398946	0.405486
	C204	C	0.903032	0.591754	0.103587
	C205	C	0.100452	0.403907	0.105206
	C206	C	0.100043	0.590558	0.909676
	C207	C	0.900721	0.402305	0.903709
	C208	C	0.099508	0.902035	0.599129
	C209	C	0.101621	0.098188	0.409066
	C210	C	0.903059	0.099485	0.599423
	C211	C	0.904049	0.901078	0.410928
	C212	C	0.597168	0.092985	0.908214
	C213	C	0.407816	0.091299	0.101284
	C214	C	0.595761	0.895068	0.103655
	C215	C	0.407555	0.893248	0.902507
	Zn216	Zn	0.503800	-0.005247	0.754659
	Zn217	Zn	0.501061	-0.006019	0.254026
	Zn218	Zn	0.751382	0.495613	0.005373
	Zn219	Zn	0.252703	0.495787	0.005467
	Zn220	Zn	0.000974	0.749668	0.505812
	Zn221	Zn	0.000924	0.248846	0.503745
	Zn222	Zn	0.001089	0.498530	0.754840
	Zn223	Zn	0.000938	0.498216	0.255981
	Zn224	Zn	0.501223	0.743971	0.004374
	Zn225	Zn	0.501592	0.244040	0.005967
	Zn226	Zn	0.752406	-0.000351	0.504495
	Zn227	Zn	0.251946	-0.001682	0.504165
	N228	N	0.419379	0.958080	0.680041
	N229	N	0.591547	0.032001	0.685950
	N230	N	0.586381	0.958181	0.327046
	N231	N	0.413636	0.031222	0.323272
	N232	N	0.679471	0.409075	0.968804
	N233	N	0.679212	0.580147	0.042950
	N234	N	0.324796	0.579299	0.968049
	N235	N	0.322049	0.407764	0.042310
	N236	N	0.963373	0.677261	0.420104
	N237	N	0.037755	0.680227	0.594180
	N238	N	0.964844	0.319678	0.590562
	N239	N	0.037102	0.318865	0.417137
	N240	N	0.963209	0.414875	0.680555
	N241	N	0.038343	0.585670	0.685090
	N242	N	0.963898	0.585041	0.326245
	N243	N	0.038184	0.413984	0.328384
	N244	N	0.416359	0.671319	0.967744
	N245	N	0.589224	0.675088	0.041259
	N246	N	0.587426	0.315340	0.968981
	N247	N	0.414050	0.313964	0.042233
	N248	N	0.681945	0.961114	0.417499
	N249	N	0.680259	0.035325	0.590183
	N250	N	0.321371	0.961635	0.591927
	N251	N	0.324007	0.033881	0.418629
	N252	N	0.916442	0.461204	0.183094
	N253	N	0.088224	0.534747	0.185349
	N254	N	0.085997	0.460967	0.827365
	N255	N	0.914577	0.534338	0.826317
	N256	N	0.178066	0.914353	0.467108
	N257	N	0.181660	0.085873	0.541074
	N258	N	0.822023	0.086490	0.468103
	N259	N	0.825144	0.916188	0.542792
	N260	N	0.466095	0.173063	0.918229
	N261	N	0.537779	0.173825	0.093361
	N262	N	0.463971	0.816114	0.088730
	N263	N	0.538069	0.813404	0.916278
	N264	N	0.464828	0.906785	0.182942
	N265	N	0.539277	0.077378	0.181260
	N266	N	0.465779	0.077658	0.828302
	N267	N	0.540079	0.907986	0.825483
	N268	N	0.916153	0.176279	0.466877
	N269	N	0.087734	0.177735	0.541079
	N270	N	0.088590	0.818881	0.469160
	N271	N	0.914668	0.820912	0.542073
	N272	N	0.178948	0.459500	0.920043
	N273	N	0.183045	0.533501	0.093331
	N274	N	0.823905	0.460247	0.090831
	N275	N	0.820734	0.532705	0.918075
	O276	O	1.005461	-0.037099	1.048044
	H277	H	1.005779	-0.036591	1.049636
	H278	H	1.005841	-0.042138	1.054709
	O279	O	0.491577	0.392774	0.550299
	H280	H	0.491059	0.392475	0.549222
	H281	H	0.489002	0.394056	0.555543
	O282	O	0.465535	0.462704	0.527229
	H283	H	0.480447	0.463472	0.522858
	H284	H	0.465729	0.459818	0.528051
	O285	O	0.500465	0.488385	0.431268
	H286	H	0.496003	0.490903	0.419709
	H287	H	0.506341	0.499430	0.439518
	O288	O	0.386959	0.470882	0.527505
	H289	H	0.383855	0.456918	0.526365
	H290	H	0.379539	0.471384	0.529318
	O291	O	0.054839	0.069249	0.955340
	H292	H	0.043821	0.071591	0.956377
	H293	H	0.061746	0.076530	0.928557
	O294	O	0.977429	1.117678	0.052234
	H295	H	0.981989	1.123802	0.049995
	H296	H	0.971546	1.126721	0.032858
	O297	O	1.103944	0.877134	-0.031079
	H298	H	1.114093	0.874664	-0.023597
	H299	H	1.112761	0.876748	-0.013746
	O300	O	0.489445	0.594296	0.485187
	H301	H	0.494475	0.592655	0.491982
	H302	H	0.472292	0.597299	0.482076
	O303	O	0.371117	0.376116	0.552800
	H304	H	0.371127	0.381477	0.556397
	H305	H	0.361605	0.366044	0.549191
	O306	O	0.643863	0.487140	0.410280
	H307	H	0.632388	0.488192	0.420689
	H308	H	0.651084	0.504719	0.410660
	O309	O	0.601946	0.496293	0.624127
	H310	H	0.603038	0.503770	0.632627
	H311	H	0.603301	0.500615	0.624981
	O312	O	0.973754	1.097448	0.874101
	H313	H	0.968294	1.094490	0.867366
	H314	H	0.980367	1.087802	0.869682
	O315	O	0.943925	1.015081	-0.008724
	H316	H	0.933689	1.014886	-0.027276
	H317	H	0.955154	1.028374	-0.012467
	O318	O	0.502822	0.594348	0.538802
	H319	H	0.497859	0.594875	0.552233
	H320	H	0.512015	0.598117	0.521847
	O321	O	0.427766	0.453272	0.519327
	H322	H	0.442586	0.456755	0.517249
	H323	H	0.424800	0.456127	0.523592
	O324	O	0.001792	0.997521	0.983125
	H325	H	0.005658	1.003872	0.985854
	H326	H	-0.009971	0.994102	0.978003
	O327	O	-0.140819	0.897945	1.114552
	H328	H	-0.149524	0.906571	1.128589
	H329	H	-0.147269	0.910661	1.110006
	O330	O	0.094027	0.036278	-0.119419
	H331	H	0.095877	0.021668	-0.126616
	H332	H	0.094797	0.022515	-0.113515
	O333	O	0.482369	0.506016	0.456389
	H334	H	0.484075	0.507491	0.440654
	H335	H	0.466508	0.506761	0.456731
	O336	O	0.120849	-0.001959	0.130271
	H337	H	0.131167	0.013956	0.148295
	H338	H	0.115125	0.016298	0.128466
	O339	O	0.037493	-0.116262	-0.072856
	H340	H	0.043928	-0.123159	-0.083933
	H341	H	0.039544	-0.124985	-0.076705
	O342	O	-0.006733	1.029695	0.008145
	H343	H	0.006863	1.019180	0.002324
	H344	H	-0.010237	1.033321	-0.005205
	O345	O	0.062083	1.094826	1.076738
	H346	H	0.059750	1.099229	1.072535
	H347	H	0.071020	1.100796	1.070163
	O348	O	0.490613	0.401834	0.434773
	H349	H	0.495811	0.406861	0.431957
	H350	H	0.494079	0.386777	0.446504
	O351	O	0.479801	0.506451	0.565894
	H352	H	0.485084	0.525425	0.554281
	H353	H	0.491862	0.510435	0.562754
	O354	O	0.075882	1.103876	0.014070
	H355	H	0.084904	1.115858	0.023053
	H356	H	0.078774	1.114488	-0.004275
	O357	O	0.490439	0.556036	0.461766
	H358	H	0.486970	0.562433	0.468172
	H359	H	0.490836	0.562863	0.459145
	O360	O	0.586892	0.544665	0.535365
	H361	H	0.592538	0.550408	0.517763
	H362	H	0.590351	0.547835	0.542630
	O363	O	0.487135	0.488642	0.484291
	H364	H	0.483804	0.489738	0.477668
	H365	H	0.487228	0.497053	0.497463
	O366	O	0.485494	0.531503	0.448282
	H367	H	0.479832	0.518603	0.446340
	H368	H	0.500660	0.540005	0.444891
	O369	O	1.100776	0.095260	0.126653
	H370	H	1.110532	0.089202	0.130973
	H371	H	1.112470	0.108146	0.137592
	O372	O	0.466041	0.513947	0.538988
	H373	H	0.459660	0.520292	0.534088
	H374	H	0.476973	0.517770	0.541407
	O375	O	1.008820	-0.146298	1.058751
	H376	H	1.001148	-0.145907	1.060085
	H377	H	1.006369	-0.151341	1.067406
	O378	O	-0.059965	0.910021	-0.022341
	H379	H	-0.057456	0.900516	-0.027441
	H380	H	-0.071936	0.894115	-0.005738
	O381	O	0.492295	0.496099	0.568391
	H382	H	0.496390	0.498421	0.566253
	H383	H	0.486565	0.488230	0.577865
	O384	O	0.940575	0.952499	0.006850
	H385	H	0.930275	0.950236	0.014072
	H386	H	0.943270	0.950491	0.018897
	O387	O	0.926594	-0.035099	0.892745
	H388	H	0.923171	-0.025758	0.890601
	H389	H	0.913676	-0.048793	0.906072
	O390	O	0.861823	0.972136	0.075814
	H391	H	0.859827	0.974522	0.073844
	H392	H	0.870747	0.984429	0.078132
	O393	O	0.486301	0.597488	0.474441
	H394	H	0.480193	0.592790	0.455672
	H395	H	0.477108	0.596123	0.481967
