data_Molecule from HDF5

_cell_length_a		16.280165
_cell_length_b		16.305315
_cell_length_c		16.282307
_cell_angle_alpha	89.975130
_cell_angle_beta	90.014325
_cell_angle_gamma	89.840041
_symmetry_space_group_name_H-M	'P 1'
_symmetry_Int_Tables_number		1

loop_
	_symmetry_equiv_pos_as_xyz
	x,y,z

loop_
	_atom_site_label
	_atom_site_type_symbol
	_atom_site_fract_x
	_atom_site_fract_y
	_atom_site_fract_z
	H0	H	0.400470	0.841738	0.712756
	H1	H	0.596036	0.168643	0.709801
	H2	H	0.599677	0.841313	0.281107
	H3	H	0.400065	0.167705	0.281142
	H4	H	0.713210	0.406608	0.832666
	H5	H	0.713100	0.601413	0.160068
	H6	H	0.283614	0.603735	0.833010
	H7	H	0.285562	0.407022	0.160391
	H8	H	0.836835	0.720066	0.397367
	H9	H	0.162282	0.718549	0.597039
	H10	H	0.835178	0.289322	0.594988
	H11	H	0.162406	0.288799	0.399330
	H12	H	0.834794	0.406023	0.710953
	H13	H	0.162951	0.601396	0.711232
	H14	H	0.835425	0.602664	0.282379
	H15	H	0.162735	0.404956	0.283034
	H16	H	0.399672	0.719660	0.832812
	H17	H	0.597283	0.717973	0.159863
	H18	H	0.598427	0.289521	0.832843
	H19	H	0.399868	0.289426	0.159440
	H20	H	0.714171	0.840446	0.398194
	H21	H	0.714292	0.167305	0.595155
	H22	H	0.286702	0.840269	0.594840
	H23	H	0.284276	0.167760	0.397300
	H24	H	0.902066	0.339469	0.210421
	H25	H	0.096597	0.667234	0.210821
	H26	H	0.097333	0.340626	0.782433
	H27	H	0.899827	0.667132	0.781754
	H28	H	0.215316	0.904871	0.332954
	H29	H	0.212555	0.100620	0.660517
	H30	H	0.784169	0.102259	0.332941
	H31	H	0.786017	0.906151	0.660202
	H32	H	0.335780	0.219401	0.897317
	H33	H	0.662621	0.218488	0.094248
	H34	H	0.336352	0.790281	0.094599
	H35	H	0.662737	0.789612	0.898035
	H36	H	0.336196	0.905263	0.211671
	H37	H	0.662874	0.102041	0.210010
	H38	H	0.335047	0.102304	0.782801
	H39	H	0.663295	0.907171	0.783486
	H40	H	0.900590	0.218634	0.333100
	H41	H	0.097606	0.217774	0.659893
	H42	H	0.099163	0.788152	0.332746
	H43	H	0.901002	0.789805	0.660256
	H44	H	0.213506	0.341199	0.898946
	H45	H	0.213147	0.667334	0.095614
	H46	H	0.785512	0.340079	0.093642
	H47	H	0.784443	0.667699	0.898119
	H48	H	0.412778	0.119317	0.592771
	H49	H	0.594013	0.887607	0.591688
	H50	H	0.594732	0.123791	0.393860
	H51	H	0.397830	0.885018	0.402664
	H52	H	0.584680	0.417474	0.108229
	H53	H	0.582751	0.591526	0.883953
	H54	H	0.407728	0.604992	0.114168
	H55	H	0.406824	0.422370	0.882725
	H56	H	0.113608	0.598359	0.411593
	H57	H	0.878621	0.611726	0.590567
	H58	H	0.114716	0.416224	0.594597
	H59	H	0.881547	0.406364	0.406552
	H60	H	0.118398	0.403436	0.592241
	H61	H	0.887777	0.592030	0.577529
	H62	H	0.114066	0.587811	0.401840
	H63	H	0.884446	0.415749	0.406186
	H64	H	0.398804	0.594435	0.114128
	H65	H	0.591191	0.608215	0.877230
	H66	H	0.588454	0.401108	0.114861
	H67	H	0.414722	0.404963	0.880423
	H68	H	0.583146	0.116903	0.405712
	H69	H	0.590369	0.888539	0.590298
	H70	H	0.405231	0.118467	0.582035
	H71	H	0.415257	0.888428	0.395736
	H72	H	0.906015	0.617727	0.079722
	H73	H	0.093030	0.387370	0.089199
	H74	H	0.097156	0.623424	0.901979
	H75	H	0.910434	0.386537	0.896783
	H76	H	0.094500	0.907678	0.613604
	H77	H	0.088670	0.098686	0.380745
	H78	H	0.907572	0.087069	0.610517
	H79	H	0.904792	0.909558	0.378521
	H80	H	0.616175	0.095888	0.899310
	H81	H	0.380628	0.098762	0.094448
	H82	H	0.616870	0.906659	0.087054
	H83	H	0.384406	0.919427	0.903822
	H84	H	0.614734	0.913991	0.087644
	H85	H	0.383020	0.102513	0.084696
	H86	H	0.617494	0.102171	0.902273
	H87	H	0.380146	0.908182	0.898052
	H88	H	0.913590	0.102982	0.612869
	H89	H	0.095028	0.098452	0.378273
	H90	H	0.095711	0.912368	0.612693
	H91	H	0.906864	0.913594	0.381217
	H92	H	0.086309	0.620784	0.898478
	H93	H	0.095473	0.387011	0.090925
	H94	H	0.896782	0.623994	0.094152
	H95	H	0.909192	0.390235	0.909878
	H96	H	0.400213	0.123243	0.593516
	H97	H	0.593097	0.888073	0.587806
	H98	H	0.599521	0.120177	0.410431
	H99	H	0.411085	0.892417	0.413795
	H100	H	0.601433	0.413526	0.114491
	H101	H	0.601916	0.591562	0.878538
	H102	H	0.411817	0.593016	0.109704
	H103	H	0.396498	0.408157	0.876026
	H104	H	0.118953	0.600402	0.398944
	H105	H	0.881141	0.589177	0.601291
	H106	H	0.111564	0.410839	0.582636
	H107	H	0.881205	0.411217	0.397782
	H108	H	0.914621	0.618938	0.096211
	H109	H	0.092341	0.386591	0.092000
	H110	H	0.089764	0.618402	0.909742
	H111	H	0.898479	0.385757	0.902764
	H112	H	0.090696	0.910443	0.611864
	H113	H	0.092039	0.093864	0.380650
	H114	H	0.897323	0.099206	0.616230
	H115	H	0.909562	0.909272	0.380294
	H116	H	0.614840	0.096841	0.905793
	H117	H	0.385164	0.091714	0.087744
	H118	H	0.617290	0.910397	0.093391
	H119	H	0.383634	0.907846	0.910834
	C120	C	0.377838	0.012667	0.618294
	C121	C	0.621034	0.996145	0.618293
	C122	C	0.621767	0.012661	0.374690
	C123	C	0.378415	0.996101	0.374956
	C124	C	0.620630	0.382400	0.004540
	C125	C	0.620629	0.625231	0.988033
	C126	C	0.377235	0.626252	0.004681
	C127	C	0.377934	0.383275	0.988011
	C128	C	0.007706	0.624921	0.375042
	C129	C	0.990627	0.625477	0.618449
	C130	C	0.007067	0.382151	0.618196
	C131	C	0.990385	0.381960	0.375174
	C132	C	0.877653	0.511867	0.118250
	C133	C	0.121241	0.495393	0.118701
	C134	C	0.119914	0.512972	0.875049
	C135	C	0.877120	0.495258	0.874225
	C136	C	0.122127	0.881228	0.504690
	C137	C	0.120515	0.125100	0.488211
	C138	C	0.877689	0.125265	0.504940
	C139	C	0.878326	0.882209	0.487999
	C140	C	0.507740	0.126607	0.874539
	C141	C	0.490767	0.125953	0.117421
	C142	C	0.508026	0.882269	0.118275
	C143	C	0.491063	0.883273	0.875477
	C144	C	0.380373	0.889960	0.674015
	C145	C	0.617500	0.119407	0.672658
	C146	C	0.619704	0.889967	0.319321
	C147	C	0.379940	0.119068	0.319459
	C148	C	0.675643	0.385533	0.881606
	C149	C	0.675431	0.622345	0.111263
	C150	C	0.321687	0.624260	0.881756
	C151	C	0.323168	0.386238	0.111249
	C152	C	0.885082	0.681148	0.377104
	C153	C	0.113608	0.680319	0.616727
	C154	C	0.883959	0.326822	0.616055
	C155	C	0.113522	0.326637	0.378173
	C156	C	0.883697	0.385109	0.673256
	C157	C	0.113882	0.622188	0.673639
	C158	C	0.884644	0.623128	0.319928
	C159	C	0.113814	0.384535	0.320900
	C160	C	0.379364	0.681710	0.881682
	C161	C	0.617918	0.680381	0.111018
	C162	C	0.618348	0.327629	0.881635
	C163	C	0.380153	0.327993	0.110954
	C164	C	0.676626	0.889427	0.377537
	C165	C	0.675951	0.118948	0.615473
	C166	C	0.323455	0.889507	0.615732
	C167	C	0.322203	0.118977	0.377085
	C168	C	0.881115	0.388605	0.172722
	C169	C	0.117806	0.618293	0.173477
	C170	C	0.117758	0.389487	0.820399
	C171	C	0.879577	0.618669	0.819863
	C172	C	0.177293	0.883741	0.381631
	C173	C	0.175493	0.121933	0.611309
	C174	C	0.822714	0.122402	0.381509
	C175	C	0.823351	0.885121	0.611303
	C176	C	0.384573	0.181697	0.876902
	C177	C	0.613870	0.180546	0.114690
	C178	C	0.385141	0.827710	0.115796
	C179	C	0.613930	0.827703	0.877604
	C180	C	0.385249	0.884915	0.173813
	C181	C	0.614102	0.122700	0.172053
	C182	C	0.384278	0.123577	0.820067
	C183	C	0.614185	0.886029	0.820647
	C184	C	0.880276	0.180344	0.381660
	C185	C	0.118296	0.180121	0.611121
	C186	C	0.119772	0.825714	0.381857
	C187	C	0.881030	0.827782	0.611394
	C188	C	0.175610	0.389847	0.877986
	C189	C	0.175491	0.618574	0.115863
	C190	C	0.823100	0.388860	0.115010
	C191	C	0.822142	0.618741	0.877397
	C192	C	0.399736	0.098310	0.596150
	C193	C	0.598929	0.910246	0.596320
	C194	C	0.599116	0.098328	0.396848
	C195	C	0.401294	0.910660	0.397424
	C196	C	0.598179	0.404359	0.090549
	C197	C	0.598436	0.603451	0.901966
	C198	C	0.399504	0.603811	0.090418
	C199	C	0.399649	0.405323	0.902022
	C200	C	0.093260	0.602174	0.397383
	C201	C	0.904810	0.603924	0.596263
	C202	C	0.092764	0.403809	0.596308
	C203	C	0.904550	0.404427	0.397185
	C204	C	0.899361	0.598065	0.096251
	C205	C	0.099941	0.409306	0.096939
	C206	C	0.097462	0.598665	0.896781
	C207	C	0.899552	0.409593	0.896510
	C208	C	0.100002	0.903607	0.590443
	C209	C	0.098539	0.103192	0.401982
	C210	C	0.899695	0.103151	0.590983
	C211	C	0.900598	0.904148	0.402303
	C212	C	0.593888	0.104773	0.896082
	C213	C	0.404871	0.103962	0.095531
	C214	C	0.594161	0.904056	0.096025
	C215	C	0.404830	0.905393	0.897696
	Zn216	Zn	0.498955	0.004780	0.746759
	Zn217	Zn	0.499671	0.004428	0.246079
	Zn218	Zn	0.749231	0.503893	-0.003617
	Zn219	Zn	0.248920	0.504761	-0.003648
	Zn220	Zn	-0.000336	0.753435	0.496758
	Zn221	Zn	-0.001195	0.253756	0.496601
	Zn222	Zn	-0.001214	0.503870	0.746468
	Zn223	Zn	-0.000516	0.503273	0.246632
	Zn224	Zn	0.499134	0.754210	-0.003917
	Zn225	Zn	0.498737	0.254567	-0.003932
	Zn226	Zn	0.749653	0.003606	0.496763
	Zn227	Zn	0.249689	0.004097	0.496146
	N228	N	0.413592	0.967364	0.675591
	N229	N	0.583982	0.041988	0.674461
	N230	N	0.586162	0.967466	0.317459
	N231	N	0.414204	0.042001	0.317947
	N232	N	0.677023	0.418805	0.959105
	N233	N	0.677025	0.588857	0.033848
	N234	N	0.320130	0.590457	0.959126
	N235	N	0.321518	0.419962	0.033739
	N236	N	0.962411	0.682147	0.411038
	N237	N	0.036153	0.682384	0.583108
	N238	N	0.961521	0.325032	0.582452
	N239	N	0.035897	0.325152	0.411356
	N240	N	0.960959	0.418906	0.674594
	N241	N	0.036378	0.588697	0.674857
	N242	N	0.961930	0.588777	0.318656
	N243	N	0.036308	0.418372	0.318936
	N244	N	0.413143	0.683119	0.959159
	N245	N	0.584603	0.682463	0.033250
	N246	N	0.584828	0.325572	0.959178
	N247	N	0.413591	0.326366	0.033396
	N248	N	0.677923	0.966714	0.411367
	N249	N	0.678290	0.041230	0.582577
	N250	N	0.321887	0.966563	0.581386
	N251	N	0.321265	0.041499	0.411038
	N252	N	0.914355	0.466273	0.174830
	N253	N	0.084904	0.540871	0.175213
	N254	N	0.083923	0.466839	0.818488
	N255	N	0.912938	0.541004	0.817631
	N256	N	0.178995	0.917621	0.458859
	N257	N	0.176856	0.088283	0.533807
	N258	N	0.821108	0.088942	0.459049
	N259	N	0.821738	0.918531	0.533724
	N260	N	0.462231	0.183338	0.910226
	N261	N	0.536101	0.182703	0.081500
	N262	N	0.462534	0.826021	0.081907
	N263	N	0.536285	0.825912	0.910797
	N264	N	0.462772	0.918092	0.175338
	N265	N	0.536491	0.089558	0.173968
	N266	N	0.461779	0.089727	0.818757
	N267	N	0.536766	0.919963	0.819403
	N268	N	0.913805	0.182064	0.459264
	N269	N	0.084816	0.181944	0.533596
	N270	N	0.086213	0.824275	0.459442
	N271	N	0.914400	0.825839	0.533768
	N272	N	0.177103	0.467434	0.911329
	N273	N	0.177778	0.540910	0.082646
	N274	N	0.821153	0.466472	0.081869
	N275	N	0.820647	0.541150	0.910830
	O276	O	-0.520806	-0.497498	1.470179
	H277	H	-0.514829	-0.499918	1.476860
	H278	H	-0.529666	-0.496006	1.475504
	O279	O	0.462599	0.545684	0.447826
	H280	H	0.459829	0.543544	0.448792
	H281	H	0.466038	0.553324	0.441225
	O282	O	0.495730	0.561987	0.474571
	H283	H	0.490675	0.561568	0.483847
	H284	H	0.498228	0.551654	0.479673
	O285	O	0.438988	0.527098	0.483568
	H286	H	0.447086	0.528034	0.482105
	H287	H	0.430652	0.529088	0.475078
	O288	O	0.459812	0.515594	0.480687
	H289	H	0.460806	0.509422	0.478383
	H290	H	0.459107	0.522895	0.485181
	O291	O	0.465652	1.499779	1.458137
	H292	H	0.472852	1.498155	1.457007
	H293	H	0.461524	1.510844	1.453295
	O294	O	0.483505	0.561547	0.520556
	H295	H	0.483054	0.567806	0.517685
	H296	H	0.478999	0.559184	0.516690
	O297	O	1.488804	-0.515745	-0.508927
	H298	H	1.489908	-0.517307	-0.507490
	H299	H	1.485845	-0.521118	-0.515425
