data_Molecule from HDF5

_cell_length_a		16.502978
_cell_length_b		16.333129
_cell_length_c		16.401250
_cell_angle_alpha	90.133403
_cell_angle_beta	90.231252
_cell_angle_gamma	90.006661
_symmetry_space_group_name_H-M	'P 1'
_symmetry_Int_Tables_number		1

loop_
	_symmetry_equiv_pos_as_xyz
	x,y,z

loop_
	_atom_site_label
	_atom_site_type_symbol
	_atom_site_fract_x
	_atom_site_fract_y
	_atom_site_fract_z
	H0	H	0.384985	0.834326	0.737706
	H1	H	0.596668	0.152282	0.738428
	H2	H	0.596405	0.833657	0.293351
	H3	H	0.388762	0.153150	0.300608
	H4	H	0.712779	0.387702	0.858467
	H5	H	0.712850	0.603471	0.174017
	H6	H	0.266800	0.599421	0.858337
	H7	H	0.269482	0.387038	0.172432
	H8	H	0.831248	0.714477	0.410183
	H9	H	0.146608	0.714677	0.622444
	H10	H	0.830756	0.271086	0.620520
	H11	H	0.147801	0.273454	0.415815
	H12	H	0.831594	0.385379	0.738661
	H13	H	0.146282	0.598989	0.740353
	H14	H	0.831752	0.598842	0.293645
	H15	H	0.148501	0.390234	0.298721
	H16	H	0.385334	0.712532	0.856713
	H17	H	0.595507	0.714899	0.174852
	H18	H	0.596154	0.271906	0.857368
	H19	H	0.390253	0.276621	0.175094
	H20	H	0.713509	0.834105	0.407661
	H21	H	0.713008	0.151076	0.623979
	H22	H	0.268468	0.834580	0.622511
	H23	H	0.271493	0.151827	0.414901
	H24	H	0.891590	0.332835	0.230495
	H25	H	0.095454	0.653070	0.236414
	H26	H	0.092576	0.332531	0.796536
	H27	H	0.884902	0.652820	0.794826
	H28	H	0.209766	0.886949	0.358427
	H29	H	0.211378	0.098317	0.675681
	H30	H	0.767963	0.096355	0.357910
	H31	H	0.767614	0.885472	0.674843
	H32	H	0.331513	0.213793	0.912433
	H33	H	0.648319	0.212866	0.119055
	H34	H	0.331080	0.773127	0.118447
	H35	H	0.648328	0.771924	0.911617
	H36	H	0.331303	0.888122	0.235976
	H37	H	0.647391	0.096532	0.237177
	H38	H	0.331035	0.096689	0.796532
	H39	H	0.648487	0.890200	0.796410
	H40	H	0.888853	0.208547	0.355935
	H41	H	0.092950	0.211642	0.677747
	H42	H	0.094346	0.772513	0.358230
	H43	H	0.887147	0.773761	0.675874
	H44	H	0.209915	0.333618	0.910472
	H45	H	0.210086	0.653070	0.120039
	H46	H	0.770296	0.336036	0.119612
	H47	H	0.769741	0.653862	0.910175
	H48	H	0.399404	0.107089	0.603678
	H49	H	0.580421	0.881287	0.598085
	H50	H	0.580251	0.104528	0.433510
	H51	H	0.395186	0.875442	0.425647
	H52	H	0.583287	0.400844	0.131113
	H53	H	0.579059	0.577772	0.904502
	H54	H	0.402088	0.589627	0.131324
	H55	H	0.398777	0.409500	0.901892
	H56	H	0.101339	0.579673	0.426741
	H57	H	0.876953	0.587855	0.599357
	H58	H	0.101336	0.400941	0.605305
	H59	H	0.873456	0.399698	0.420512
	H60	H	0.100845	0.405801	0.604898
	H61	H	0.880254	0.574169	0.601098
	H62	H	0.103622	0.584703	0.424637
	H63	H	0.875405	0.399626	0.427413
	H64	H	0.393412	0.579565	0.131161
	H65	H	0.576253	0.585062	0.901696
	H66	H	0.583467	0.410760	0.128312
	H67	H	0.404318	0.404760	0.902656
	H68	H	0.580822	0.106754	0.426689
	H69	H	0.581011	0.877026	0.610097
	H70	H	0.399164	0.108197	0.607470
	H71	H	0.401616	0.876281	0.422901
	H72	H	0.898272	0.608994	0.100794
	H73	H	0.088392	0.375708	0.109558
	H74	H	0.078265	0.607573	0.924911
	H75	H	0.901936	0.382397	0.932646
	H76	H	0.090364	0.907096	0.633483
	H77	H	0.082583	0.080499	0.402885
	H78	H	0.896424	0.080483	0.631421
	H79	H	0.906012	0.900389	0.403758
	H80	H	0.605828	0.085645	0.922066
	H81	H	0.376707	0.086098	0.103792
	H82	H	0.599846	0.907227	0.101107
	H83	H	0.373181	0.901001	0.916436
	H84	H	0.603434	0.907355	0.109715
	H85	H	0.376354	0.081668	0.108121
	H86	H	0.602100	0.085558	0.932334
	H87	H	0.377731	0.897211	0.933869
	H88	H	0.901490	0.078975	0.629695
	H89	H	0.078229	0.081643	0.404402
	H90	H	0.073394	0.913478	0.625148
	H91	H	0.893316	0.903561	0.400032
	H92	H	0.075631	0.605077	0.930483
	H93	H	0.075488	0.379001	0.111334
	H94	H	0.899884	0.611655	0.110133
	H95	H	0.895657	0.377995	0.928839
	H96	H	0.402309	0.106505	0.605369
	H97	H	0.570680	0.882274	0.605349
	H98	H	0.574221	0.103843	0.428690
	H99	H	0.400202	0.877923	0.429537
	H100	H	0.575229	0.405576	0.127620
	H101	H	0.584266	0.582644	0.900549
	H102	H	0.405272	0.577534	0.126252
	H103	H	0.397361	0.402647	0.899591
	H104	H	0.102331	0.584247	0.430435
	H105	H	0.873949	0.581421	0.612021
	H106	H	0.101853	0.403927	0.609245
	H107	H	0.876362	0.405251	0.423654
	H108	H	0.906760	0.607371	0.105041
	H109	H	0.080894	0.380734	0.099395
	H110	H	0.081414	0.606528	0.930589
	H111	H	0.903369	0.380150	0.924773
	H112	H	0.074733	0.894618	0.631782
	H113	H	0.081043	0.084862	0.402387
	H114	H	0.900683	0.084095	0.631202
	H115	H	0.901210	0.913490	0.406722
	H116	H	0.601145	0.076706	0.925968
	H117	H	0.373751	0.087515	0.109777
	H118	H	0.603591	0.900004	0.105018
	H119	H	0.380118	0.913479	0.927787
	C120	C	0.368511	0.002257	0.637825
	C121	C	0.610644	0.984721	0.637541
	C122	C	0.610853	0.000176	0.396093
	C123	C	0.368371	0.982793	0.395542
	C124	C	0.612508	0.372806	0.024249
	C125	C	0.611978	0.615377	1.007183
	C126	C	0.368106	0.614475	0.024623
	C127	C	0.369136	0.372891	1.006267
	C128	C	-0.001504	0.615575	0.394024
	C129	C	0.980706	0.614233	0.637779
	C130	C	-0.002703	0.370717	0.638601
	C131	C	0.980618	0.371061	0.394208
	C132	C	0.870412	0.503392	0.136443
	C133	C	0.112291	0.484401	0.137719
	C134	C	0.109977	0.501071	0.896059
	C135	C	0.868242	0.485466	0.895336
	C136	C	0.111225	0.872014	0.525410
	C137	C	0.111471	0.113877	0.508893
	C138	C	0.868068	0.112988	0.525410
	C139	C	0.868336	0.872264	0.508083
	C140	C	0.498479	0.115021	0.894755
	C141	C	0.480781	0.115679	0.138199
	C142	C	0.498093	0.871920	0.137605
	C143	C	0.481670	0.871615	0.894297
	C144	C	0.366122	0.882220	0.698162
	C145	C	0.614594	0.104403	0.698634
	C146	C	0.613985	0.881235	0.333949
	C147	C	0.368798	0.104517	0.338841
	C148	C	0.672815	0.369429	0.905784
	C149	C	0.672330	0.619954	0.126421
	C150	C	0.307537	0.617116	0.905591
	C151	C	0.309840	0.369613	0.125480
	C152	C	0.879213	0.675449	0.391535
	C153	C	0.099411	0.674815	0.640977
	C154	C	0.878500	0.310417	0.639830
	C155	C	0.100332	0.312708	0.395565
	C156	C	0.878886	0.367397	0.698693
	C157	C	0.099183	0.617028	0.699369
	C158	C	0.879367	0.617487	0.333608
	C159	C	0.100550	0.370724	0.337401
	C160	C	0.366810	0.673209	0.904671
	C161	C	0.613882	0.675709	0.126999
	C162	C	0.614659	0.311900	0.905255
	C163	C	0.369567	0.314567	0.126658
	C164	C	0.672301	0.881383	0.390961
	C165	C	0.672564	0.103716	0.641638
	C166	C	0.308797	0.882135	0.640403
	C167	C	0.310541	0.103787	0.395478
	C168	C	0.871102	0.381843	0.193003
	C169	C	0.113972	0.604796	0.197070
	C170	C	0.111336	0.380500	0.836178
	C171	C	0.866452	0.605069	0.834691
	C172	C	0.170339	0.869057	0.405993
	C173	C	0.170485	0.115631	0.628672
	C174	C	0.808295	0.114899	0.405415
	C175	C	0.808250	0.868476	0.627416
	C176	C	0.379025	0.174043	0.893421
	C177	C	0.600537	0.173659	0.138404
	C178	C	0.378948	0.812121	0.138218
	C179	C	0.600813	0.811827	0.892879
	C180	C	0.378771	0.869702	0.196495
	C181	C	0.600036	0.116132	0.197392
	C182	C	0.378744	0.115783	0.835875
	C183	C	0.600944	0.870599	0.835410
	C184	C	0.868253	0.170503	0.404437
	C185	C	0.111586	0.172340	0.629393
	C186	C	0.112660	0.812151	0.405907
	C187	C	0.867520	0.812568	0.627882
	C188	C	0.169762	0.381266	0.892911
	C189	C	0.170924	0.604963	0.138963
	C190	C	0.811154	0.383195	0.137896
	C191	C	0.809302	0.605750	0.892403
	C192	C	0.393228	0.085615	0.612699
	C193	C	0.584743	0.901928	0.611719
	C194	C	0.585494	0.083498	0.422256
	C195	C	0.392004	0.898484	0.419208
	C196	C	0.587620	0.398486	0.107344
	C197	C	0.587049	0.589421	0.923922
	C198	C	0.393324	0.589433	0.107914
	C199	C	0.393350	0.398381	0.922988
	C200	C	0.081011	0.590390	0.420001
	C201	C	0.898355	0.588461	0.611713
	C202	C	0.079907	0.396252	0.613752
	C203	C	0.896873	0.394714	0.417279
	C204	C	0.894502	0.587400	0.112038
	C205	C	0.088500	0.400338	0.113665
	C206	C	0.085359	0.584547	0.921232
	C207	C	0.893147	0.401879	0.921169
	C208	C	0.086654	0.897609	0.608569
	C209	C	0.087516	0.089332	0.424993
	C210	C	0.892537	0.088311	0.608935
	C211	C	0.893147	0.898189	0.425177
	C212	C	0.581509	0.090051	0.919444
	C213	C	0.397367	0.091927	0.114146
	C214	C	0.580716	0.897563	0.112676
	C215	C	0.398688	0.896439	0.918907
	Zn216	Zn	0.489924	-0.006337	0.765526
	Zn217	Zn	0.489381	-0.007799	0.267437
	Zn218	Zn	0.740421	0.495433	0.016277
	Zn219	Zn	0.239885	0.493113	0.015989
	Zn220	Zn	-0.010320	0.743979	0.516529
	Zn221	Zn	-0.010804	0.242144	0.516924
	Zn222	Zn	-0.011287	0.492423	0.767148
	Zn223	Zn	-0.009403	0.493850	0.266063
	Zn224	Zn	0.489873	0.742564	0.016224
	Zn225	Zn	0.489961	0.244753	0.015513
	Zn226	Zn	0.739020	-0.007867	0.516973
	Zn227	Zn	0.240162	-0.007768	0.516773
	N228	N	0.402810	0.957788	0.696482
	N229	N	0.576635	0.029584	0.696017
	N230	N	0.576559	0.956366	0.336939
	N231	N	0.403832	0.028200	0.338411
	N232	N	0.671531	0.406720	0.980859
	N233	N	0.671400	0.583138	0.050912
	N234	N	0.308216	0.581465	0.981340
	N235	N	0.309450	0.405157	0.049562
	N236	N	0.954295	0.674401	0.428403
	N237	N	0.024798	0.673125	0.603467
	N238	N	0.953180	0.312303	0.603216
	N239	N	0.024603	0.312495	0.429948
	N240	N	0.953715	0.404302	0.697910
	N241	N	0.024320	0.580266	0.697695
	N242	N	0.954543	0.581387	0.334798
	N243	N	0.025053	0.406190	0.336510
	N244	N	0.403844	0.671758	0.979809
	N245	N	0.577030	0.673151	0.051730
	N246	N	0.577778	0.313895	0.980096
	N247	N	0.405758	0.316567	0.051458
	N248	N	0.670171	0.956202	0.429189
	N249	N	0.670364	0.028373	0.604391
	N250	N	0.309987	0.957701	0.603930
	N251	N	0.309674	0.026992	0.429498
	N252	N	0.907235	0.457629	0.192208
	N253	N	0.078171	0.528887	0.196534
	N254	N	0.074961	0.456095	0.837592
	N255	N	0.902179	0.529006	0.836208
	N256	N	0.169526	0.905707	0.481450
	N257	N	0.170514	0.080021	0.552638
	N258	N	0.808159	0.079802	0.481663
	N259	N	0.808309	0.904538	0.551799
	N260	N	0.454573	0.173800	0.929046
	N261	N	0.525135	0.173728	0.102590
	N262	N	0.454255	0.813264	0.102470
	N263	N	0.525546	0.812188	0.928364
	N264	N	0.453899	0.905917	0.196333
	N265	N	0.524593	0.080961	0.197602
	N266	N	0.454134	0.080060	0.836417
	N267	N	0.525638	0.906698	0.835924
	N268	N	0.904388	0.169654	0.480031
	N269	N	0.075441	0.171296	0.553817
	N270	N	0.076639	0.813759	0.481150
	N271	N	0.903895	0.814745	0.552690
	N272	N	0.169191	0.457201	0.929134
	N273	N	0.170288	0.529004	0.102990
	N274	N	0.810357	0.459929	0.103752
	N275	N	0.810031	0.530159	0.928969
	O276	O	0.289072	0.588706	0.314057
	H277	H	0.293660	0.594710	0.316121
	H278	H	0.297036	0.604481	0.317153
	O279	O	1.037885	-0.212855	0.812821
	H280	H	1.074447	-0.210968	0.819381
	H281	H	1.050137	-0.224550	0.791079
	O282	O	-0.002012	1.118946	1.097224
	H283	H	-0.010463	1.125024	1.088605
	H284	H	-0.009744	1.104075	1.111270
	O285	O	0.005737	0.899380	0.017439
	H286	H	0.014601	0.900579	0.019704
	H287	H	0.002016	0.887580	0.021502
	O288	O	1.331751	1.626054	-0.311338
	H289	H	1.328154	1.631270	-0.341189
	H290	H	1.357244	1.622478	-0.309059
	O291	O	0.609444	0.439125	0.545705
	H292	H	0.594479	0.431343	0.544264
	H293	H	0.617909	0.441874	0.530102
	O294	O	-0.161789	0.184372	0.992508
	H295	H	-0.164722	0.169360	0.978613
	H296	H	-0.158758	0.195257	0.979955
	O297	O	0.452484	0.377492	0.418960
	H298	H	0.466455	0.375530	0.406477
	H299	H	0.424758	0.378133	0.411495
	O300	O	1.046096	0.857103	1.056596
	H301	H	1.050912	0.853169	1.046943
	H302	H	1.053373	0.857106	1.065760
	O303	O	0.622896	0.598861	0.540039
	H304	H	0.630514	0.597346	0.535380
	H305	H	0.616385	0.593254	0.546960
	O306	O	0.563038	0.560885	0.313055
	H307	H	0.569144	0.554795	0.333582
	H308	H	0.552551	0.550113	0.311115
	O309	O	1.099346	0.025480	0.111811
	H310	H	1.116909	0.029151	0.129537
	H311	H	1.104492	0.016521	0.117588
	O312	O	0.123910	1.008353	0.866109
	H313	H	0.134659	1.024032	0.868221
	H314	H	0.126971	1.024858	0.871702
	O315	O	0.549964	0.287202	0.523900
	H316	H	0.552686	0.281263	0.519365
	H317	H	0.550034	0.291857	0.513180
	O318	O	0.833908	-0.056288	0.008484
	H319	H	0.854341	-0.050732	0.013452
	H320	H	0.839084	-0.058188	-0.003181
	O321	O	0.408992	0.501210	-0.269156
	H322	H	0.416191	0.485774	-0.273808
	H323	H	0.391225	0.492318	-0.261360
	O324	O	0.705755	0.287523	0.402362
	H325	H	0.722353	0.273402	0.370617
	H326	H	0.722776	0.294223	0.398400
	O327	O	0.696750	0.456859	0.388084
	H328	H	0.684718	0.441804	0.382613
	H329	H	0.707211	0.471654	0.386156
	O330	O	0.194862	1.192186	0.215020
	H331	H	0.175139	1.193272	0.225726
	H332	H	0.217229	1.220993	0.230859
	O333	O	0.274909	0.481986	0.516418
	H334	H	0.276970	0.496196	0.491390
	H335	H	0.283360	0.483358	0.517917
	O336	O	0.000722	-0.047146	-0.054270
	H337	H	0.014296	-0.056936	-0.055416
	H338	H	0.023190	-0.055272	-0.040500
	O339	O	-0.199339	0.806808	0.144392
	H340	H	-0.204442	0.822185	0.140430
	H341	H	-0.212765	0.806743	0.110767
	O342	O	0.141308	1.028840	1.078011
	H343	H	0.158326	1.033017	1.097262
	H344	H	0.131064	1.038666	1.077513
	O345	O	0.272832	0.663631	-0.484043
	H346	H	0.264306	0.676471	-0.491370
	H347	H	0.283749	0.668233	-0.508201
	O348	O	0.532502	0.283300	0.304335
	H349	H	0.541633	0.273374	0.289722
	H350	H	0.541575	0.279346	0.306303
	O351	O	0.561842	1.377497	1.656821
	H352	H	0.577535	1.369105	1.657805
	H353	H	0.565892	1.364250	1.662470
	O354	O	0.491886	0.676287	-0.285659
	H355	H	0.498146	0.680097	-0.260686
	H356	H	0.512941	0.675959	-0.280972
	O357	O	-0.209089	-0.186152	0.973240
	H358	H	-0.212225	-0.168656	0.954538
	H359	H	-0.200974	-0.189472	0.969390
	O360	O	0.300618	0.306683	0.647293
	H361	H	0.323427	0.290707	0.657311
	H362	H	0.291749	0.342778	0.664732
	O363	O	0.066119	-0.078561	0.909666
	H364	H	0.070026	-0.081623	0.929931
	H365	H	0.074411	-0.077846	0.906743
	O366	O	0.697160	0.376388	0.305077
	H367	H	0.714893	0.370889	0.287127
	H368	H	0.672927	0.380420	0.292690
	O369	O	0.624474	0.424046	0.659322
	H370	H	0.635240	0.421146	0.647757
	H371	H	0.611926	0.426164	0.654805
	O372	O	0.806575	0.175089	1.193639
	H373	H	0.809962	0.141998	1.178151
	H374	H	0.830914	0.166088	1.177302
	O375	O	0.303910	0.640984	0.403945
	H376	H	0.318853	0.649400	0.391208
	H377	H	0.317249	0.634683	0.408576
	O378	O	0.691285	0.536594	0.698877
	H379	H	0.707988	0.537319	0.692718
	H380	H	0.704771	0.517118	0.696494
	O381	O	0.567973	0.648614	0.484871
	H382	H	0.565226	0.642488	0.492901
	H383	H	0.586375	0.663774	0.510650
	O384	O	0.309626	0.309248	0.482629
	H385	H	0.313444	0.315182	0.511779
	H386	H	0.297727	0.319273	0.486145
	O387	O	0.096359	0.124303	1.220136
	H388	H	0.085746	0.129589	1.226386
	H389	H	0.102157	0.129227	1.231632
	O390	O	-0.150732	-0.068586	-0.081976
	H391	H	-0.136413	-0.047533	-0.076291
	H392	H	-0.152087	-0.054813	-0.093991
	O393	O	0.992920	1.186110	0.885911
	H394	H	1.013419	1.181575	0.867089
	H395	H	1.008786	1.195480	0.897793
	O396	O	1.150369	-0.049619	-0.136107
	H397	H	1.148198	-0.014043	-0.136539
	H398	H	1.168186	-0.061880	-0.141481
	O399	O	1.051384	0.053884	0.952093
	H400	H	1.064850	0.074559	0.959066
	H401	H	1.043872	0.036749	0.967236
	O402	O	0.911253	0.837564	1.217948
	H403	H	0.898569	0.813998	1.237343
	H404	H	0.877933	0.831866	1.208076
	O405	O	1.295442	1.332345	0.324134
	H406	H	1.310034	1.337366	0.357754
	H407	H	1.304946	1.365270	0.324266
	O408	O	0.466015	-0.302174	0.309535
	H409	H	0.473658	-0.295156	0.291600
	H410	H	0.486247	-0.301650	0.325628
	O411	O	0.929448	1.059317	-0.132000
	H412	H	0.939063	1.045619	-0.139051
	H413	H	0.928798	1.058777	-0.123557
	O414	O	0.484522	0.690352	0.509499
	H415	H	0.487414	0.685899	0.508347
	H416	H	0.494019	0.679795	0.518028
	O417	O	0.681699	0.219524	0.771665
	H418	H	0.697892	0.209191	0.767399
	H419	H	0.689699	0.199258	0.755372
	O420	O	0.170602	-0.081811	0.095070
	H421	H	0.170067	-0.079093	0.101541
	H422	H	0.163897	-0.087334	0.104662
	O423	O	0.633492	0.694726	0.716010
	H424	H	0.661883	0.692800	0.710426
	H425	H	0.624247	0.684573	0.734530
	O426	O	0.338276	0.461330	0.670353
	H427	H	0.335005	0.470319	0.648639
	H428	H	0.319642	0.467304	0.689155
	O429	O	-0.147666	1.054477	-0.149524
	H430	H	-0.160402	1.050725	-0.153704
	H431	H	-0.116510	1.049201	-0.141890
	O432	O	0.475608	0.510002	0.504736
	H433	H	0.466279	0.500320	0.501792
	H434	H	0.478881	0.505798	0.523680
	O435	O	0.705825	0.709574	0.544582
	H436	H	0.699848	0.700398	0.565939
	H437	H	0.734750	0.739611	0.539169
	O438	O	-0.151090	-0.023813	0.191674
	H439	H	-0.156188	-0.016016	0.180831
	H440	H	-0.147265	-0.014803	0.191056
	O441	O	1.411068	0.280581	-0.275717
	H442	H	1.418983	0.267214	-0.250643
	H443	H	1.428435	0.291013	-0.279487
	O444	O	0.197116	1.048408	1.011920
	H445	H	0.194315	1.052033	1.012110
	H446	H	0.216177	1.055758	1.020136
	O447	O	0.934764	0.820002	0.084504
	H448	H	0.920306	0.811823	0.073336
	H449	H	0.950326	0.810684	0.081394
	O450	O	0.971069	0.129931	0.198368
	H451	H	0.975081	0.123252	0.206755
	H452	H	0.977737	0.116100	0.201056
	O453	O	0.434224	0.453877	0.343556
	H454	H	0.431344	0.466039	0.349132
	H455	H	0.439227	0.446611	0.336051
