data_Molecule from HDF5

_cell_length_a		16.288751
_cell_length_b		16.327988
_cell_length_c		15.965118
_cell_angle_alpha	90.274457
_cell_angle_beta	90.257607
_cell_angle_gamma	90.082612
_symmetry_space_group_name_H-M	'P 1'
_symmetry_Int_Tables_number		1

loop_
	_symmetry_equiv_pos_as_xyz
	x,y,z

loop_
	_atom_site_label
	_atom_site_type_symbol
	_atom_site_fract_x
	_atom_site_fract_y
	_atom_site_fract_z
	H0	H	0.400325	0.835920	0.709452
	H1	H	0.591320	0.166017	0.712564
	H2	H	0.587973	0.837974	0.285858
	H3	H	0.398098	0.166860	0.288322
	H4	H	0.706110	0.402445	0.832977
	H5	H	0.707003	0.602458	0.165121
	H6	H	0.280549	0.599814	0.832410
	H7	H	0.282878	0.405424	0.165491
	H8	H	0.832147	0.715563	0.397364
	H9	H	0.156777	0.719462	0.602755
	H10	H	0.831872	0.285110	0.598789
	H11	H	0.158801	0.283954	0.398309
	H12	H	0.829148	0.406795	0.708012
	H13	H	0.158871	0.597428	0.712636
	H14	H	0.829849	0.593617	0.289231
	H15	H	0.160814	0.405731	0.287538
	H16	H	0.394849	0.714445	0.832846
	H17	H	0.593602	0.715856	0.165098
	H18	H	0.592564	0.287182	0.833972
	H19	H	0.395162	0.291024	0.165147
	H20	H	0.709065	0.838482	0.397309
	H21	H	0.713246	0.163218	0.603196
	H22	H	0.278664	0.837987	0.598768
	H23	H	0.277412	0.164150	0.399700
	H24	H	0.900481	0.336565	0.208467
	H25	H	0.089600	0.666308	0.212071
	H26	H	0.088502	0.337132	0.787226
	H27	H	0.898835	0.666593	0.787048
	H28	H	0.207025	0.900814	0.332887
	H29	H	0.208594	0.100675	0.665925
	H30	H	0.780876	0.098080	0.333560
	H31	H	0.782005	0.902965	0.664659
	H32	H	0.331253	0.218053	0.897823
	H33	H	0.656564	0.220570	0.103206
	H34	H	0.332224	0.785579	0.099499
	H35	H	0.657487	0.786058	0.897981
	H36	H	0.328748	0.909522	0.207312
	H37	H	0.658665	0.099032	0.213483
	H38	H	0.329309	0.096390	0.787496
	H39	H	0.660090	0.908326	0.789575
	H40	H	0.895640	0.212325	0.333149
	H41	H	0.096326	0.215838	0.665254
	H42	H	0.092622	0.787032	0.333594
	H43	H	0.895045	0.788525	0.664794
	H44	H	0.210738	0.340093	0.896525
	H45	H	0.212958	0.663989	0.103704
	H46	H	0.777313	0.339811	0.098981
	H47	H	0.777720	0.664927	0.898395
	H48	H	0.401798	0.117146	0.589577
	H49	H	0.589484	0.884313	0.592101
	H50	H	0.585530	0.117994	0.407811
	H51	H	0.401527	0.884205	0.399898
	H52	H	0.572907	0.413957	0.113719
	H53	H	0.586106	0.597326	0.877644
	H54	H	0.405993	0.600066	0.118574
	H55	H	0.400809	0.405791	0.877718
	H56	H	0.112580	0.589148	0.403500
	H57	H	0.877672	0.594825	0.590221
	H58	H	0.114442	0.405645	0.600324
	H59	H	0.880724	0.410049	0.407494
	H60	H	0.111667	0.399840	0.586751
	H61	H	0.876840	0.596232	0.592918
	H62	H	0.115381	0.602482	0.404984
	H63	H	0.876319	0.404111	0.398737
	H64	H	0.397758	0.594960	0.120078
	H65	H	0.588849	0.592569	0.878540
	H66	H	0.590318	0.397949	0.123639
	H67	H	0.399156	0.412239	0.879966
	H68	H	0.589584	0.117162	0.412286
	H69	H	0.589780	0.884398	0.592197
	H70	H	0.397515	0.118149	0.591619
	H71	H	0.401109	0.886629	0.408561
	H72	H	0.896133	0.620364	0.092601
	H73	H	0.077622	0.387584	0.092328
	H74	H	0.085600	0.621063	0.896809
	H75	H	0.895370	0.386676	0.909774
	H76	H	0.089626	0.912343	0.618982
	H77	H	0.093231	0.098924	0.376221
	H78	H	0.895907	0.091244	0.620584
	H79	H	0.899828	0.913592	0.380000
	H80	H	0.609946	0.086663	0.901455
	H81	H	0.380719	0.096081	0.082951
	H82	H	0.614667	0.902933	0.096360
	H83	H	0.378517	0.903558	0.911919
	H84	H	0.611075	0.905432	0.086509
	H85	H	0.376278	0.091456	0.099014
	H86	H	0.616215	0.108396	0.901519
	H87	H	0.378618	0.913010	0.905860
	H88	H	0.909858	0.087759	0.615467
	H89	H	0.088216	0.083575	0.382244
	H90	H	0.083122	0.909816	0.617909
	H91	H	0.907599	0.903942	0.379015
	H92	H	0.079482	0.613734	0.915952
	H93	H	0.096450	0.386626	0.080973
	H94	H	0.899071	0.619855	0.097284
	H95	H	0.895237	0.382815	0.901339
	H96	H	0.401659	0.117612	0.594373
	H97	H	0.589873	0.885103	0.592611
	H98	H	0.591557	0.119360	0.407378
	H99	H	0.393782	0.882905	0.404315
	H100	H	0.595450	0.422572	0.118627
	H101	H	0.583921	0.593880	0.880296
	H102	H	0.406176	0.590507	0.116062
	H103	H	0.405296	0.409643	0.880445
	H104	H	0.109652	0.595854	0.416682
	H105	H	0.876969	0.598981	0.590016
	H106	H	0.109536	0.414905	0.589390
	H107	H	0.878515	0.398741	0.409073
	H108	H	0.900896	0.618093	0.092114
	H109	H	0.095576	0.380635	0.101536
	H110	H	0.099459	0.619952	0.913155
	H111	H	0.901759	0.386914	0.905359
	H112	H	0.088453	0.905809	0.620726
	H113	H	0.077812	0.095886	0.382009
	H114	H	0.905816	0.101857	0.621170
	H115	H	0.895329	0.902187	0.375828
	H116	H	0.608112	0.098694	0.921557
	H117	H	0.373259	0.107586	0.093747
	H118	H	0.611393	0.913476	0.094275
	H119	H	0.375138	0.903635	0.900944
	C120	C	0.372570	0.009456	0.620418
	C121	C	0.617941	0.992655	0.621721
	C122	C	0.616485	0.010457	0.378377
	C123	C	0.370768	0.992854	0.376556
	C124	C	0.614738	0.381906	0.008787
	C125	C	0.614820	0.623247	0.989509
	C126	C	0.373834	0.622861	0.007823
	C127	C	0.373479	0.381566	0.989811
	C128	C	0.004207	0.622630	0.378785
	C129	C	0.985392	0.624414	0.621085
	C130	C	0.003184	0.379307	0.620192
	C131	C	0.987096	0.377487	0.376697
	C132	C	0.871889	0.510636	0.121381
	C133	C	0.117556	0.493178	0.121485
	C134	C	0.115708	0.510403	0.878381
	C135	C	0.870527	0.493494	0.876694
	C136	C	0.115080	0.880433	0.508629
	C137	C	0.115944	0.121976	0.490488
	C138	C	0.874373	0.121763	0.508987
	C139	C	0.873287	0.879730	0.489195
	C140	C	0.502829	0.124966	0.878498
	C141	C	0.485271	0.125954	0.121910
	C142	C	0.503320	0.880574	0.120014
	C143	C	0.485861	0.879266	0.877459
	C144	C	0.377940	0.885538	0.673440
	C145	C	0.613417	0.116529	0.676086
	C146	C	0.610606	0.886869	0.323221
	C147	C	0.375905	0.117205	0.324255
	C148	C	0.669082	0.382596	0.882990
	C149	C	0.669418	0.621788	0.115226
	C150	C	0.318103	0.620252	0.882446
	C151	C	0.319443	0.384712	0.115398
	C152	C	0.880643	0.676858	0.379142
	C153	C	0.108291	0.680537	0.621304
	C154	C	0.880449	0.323682	0.618154
	C155	C	0.110297	0.322741	0.378830
	C156	C	0.878882	0.384465	0.672347
	C157	C	0.109415	0.620023	0.676037
	C158	C	0.879512	0.616450	0.325091
	C159	C	0.111252	0.383151	0.323674
	C160	C	0.374889	0.677363	0.882610
	C161	C	0.613058	0.678299	0.115253
	C162	C	0.612757	0.325423	0.883408
	C163	C	0.375222	0.327786	0.115294
	C164	C	0.670661	0.887162	0.378567
	C165	C	0.674092	0.114799	0.621605
	C166	C	0.317343	0.886477	0.618298
	C167	C	0.315981	0.115907	0.379508
	C168	C	0.877777	0.386459	0.173114
	C169	C	0.112497	0.616825	0.176090
	C170	C	0.111153	0.386774	0.823315
	C171	C	0.875877	0.617129	0.822935
	C172	C	0.169379	0.881454	0.382882
	C173	C	0.171406	0.120633	0.615910
	C174	C	0.818484	0.118926	0.383395
	C175	C	0.819384	0.882790	0.614961
	C176	C	0.379809	0.179631	0.878669
	C177	C	0.607998	0.181656	0.121925
	C178	C	0.380291	0.825026	0.118258
	C179	C	0.608901	0.824123	0.878354
	C180	C	0.378555	0.886657	0.172122
	C181	C	0.609206	0.121416	0.176860
	C182	C	0.378879	0.119519	0.823500
	C183	C	0.610361	0.885187	0.824920
	C184	C	0.875661	0.175464	0.383092
	C185	C	0.115525	0.178046	0.615675
	C186	C	0.112718	0.825013	0.383134
	C187	C	0.875497	0.825937	0.614967
	C188	C	0.171695	0.388218	0.878103
	C189	C	0.173470	0.615807	0.121775
	C190	C	0.816709	0.387992	0.118453
	C191	C	0.815973	0.616446	0.878559
	C192	C	0.394008	0.095480	0.598341
	C193	C	0.596306	0.906742	0.599038
	C194	C	0.595219	0.095912	0.402172
	C195	C	0.392339	0.906732	0.397887
	C196	C	0.592820	0.404742	0.096008
	C197	C	0.592709	0.601060	0.901552
	C198	C	0.396658	0.601359	0.095675
	C199	C	0.395357	0.402929	0.902013
	C200	C	0.090220	0.602126	0.401591
	C201	C	0.899449	0.603029	0.598070
	C202	C	0.089656	0.400557	0.598705
	C203	C	0.900950	0.398074	0.398549
	C204	C	0.892538	0.597001	0.100140
	C205	C	0.096313	0.407148	0.098237
	C206	C	0.094193	0.596079	0.901731
	C207	C	0.891315	0.407684	0.898943
	C208	C	0.093512	0.902748	0.596526
	C209	C	0.093140	0.099247	0.402794
	C210	C	0.897208	0.099998	0.596513
	C211	C	0.894630	0.900458	0.401020
	C212	C	0.589114	0.104067	0.901325
	C213	C	0.399052	0.104495	0.098695
	C214	C	0.589746	0.901184	0.098746
	C215	C	0.399718	0.900478	0.899639
	Zn216	Zn	0.494637	0.001586	0.750089
	Zn217	Zn	0.494171	0.002699	0.249048
	Zn218	Zn	0.741785	0.502746	-0.000836
	Zn219	Zn	0.246272	0.502188	-0.000993
	Zn220	Zn	-0.005392	0.753290	0.499123
	Zn221	Zn	-0.004680	0.249038	0.499447
	Zn222	Zn	-0.006003	0.501824	0.748971
	Zn223	Zn	-0.004418	0.501705	0.250043
	Zn224	Zn	0.495103	0.750334	-0.001707
	Zn225	Zn	0.493956	0.254542	-0.000323
	Zn226	Zn	0.746668	0.000714	0.499567
	Zn227	Zn	0.242180	0.000615	0.499176
	N228	N	0.411559	0.962898	0.674891
	N229	N	0.579201	0.039475	0.676500
	N230	N	0.577555	0.964352	0.323038
	N231	N	0.409332	0.039825	0.322354
	N232	N	0.670537	0.417228	0.961905
	N233	N	0.670582	0.588237	0.035976
	N234	N	0.317543	0.587010	0.961486
	N235	N	0.318046	0.417424	0.036226
	N236	N	0.959010	0.680806	0.411824
	N237	N	0.030171	0.683248	0.587869
	N238	N	0.958871	0.320377	0.586360
	N239	N	0.032182	0.319203	0.411189
	N240	N	0.956171	0.418315	0.673691
	N241	N	0.032061	0.585868	0.676241
	N242	N	0.957042	0.583091	0.324813
	N243	N	0.033664	0.416317	0.322025
	N244	N	0.408739	0.679144	0.961693
	N245	N	0.579834	0.679263	0.035951
	N246	N	0.579667	0.324775	0.962420
	N247	N	0.408142	0.325714	0.036142
	N248	N	0.674339	0.964922	0.412232
	N249	N	0.676845	0.036902	0.588411
	N250	N	0.313771	0.964621	0.586220
	N251	N	0.312456	0.037606	0.411025
	N252	N	0.911435	0.463771	0.175101
	N253	N	0.078503	0.539675	0.175991
	N254	N	0.077129	0.463824	0.823251
	N255	N	0.908937	0.539702	0.821583
	N256	N	0.171033	0.915098	0.462099
	N257	N	0.171841	0.086570	0.536872
	N258	N	0.817515	0.086292	0.462683
	N259	N	0.817933	0.915563	0.535789
	N260	N	0.457845	0.183086	0.911968
	N261	N	0.529839	0.184660	0.088670
	N262	N	0.458585	0.821149	0.086525
	N263	N	0.530537	0.820459	0.910473
	N264	N	0.456132	0.920358	0.173410
	N265	N	0.531851	0.087453	0.176790
	N266	N	0.456438	0.086113	0.823228
	N267	N	0.532927	0.918752	0.824242
	N268	N	0.909656	0.177386	0.462092
	N269	N	0.081667	0.178911	0.536584
	N270	N	0.079352	0.824533	0.462119
	N271	N	0.908541	0.824069	0.535762
	N272	N	0.174722	0.465916	0.911712
	N273	N	0.176893	0.537691	0.088651
	N274	N	0.812716	0.466343	0.087193
	N275	N	0.812348	0.538645	0.911234
	O276	O	0.484253	0.469834	0.483717
	H277	H	0.485525	0.474988	0.487729
	H278	H	0.480181	0.476786	0.482991
	O279	O	0.556445	0.529287	0.508481
	H280	H	0.560202	0.537436	0.513552
	H281	H	0.560764	0.538903	0.512367
	O282	O	0.475025	0.498160	0.574474
	H283	H	0.477222	0.487675	0.572164
	H284	H	0.467563	0.500818	0.576702
	O285	O	0.017643	1.050149	0.924376
	H286	H	0.025563	1.051121	0.921128
	H287	H	0.016941	1.061944	0.918213
	O288	O	0.565879	0.485288	0.481428
	H289	H	0.563196	0.484468	0.482592
	H290	H	0.574325	0.481840	0.471548
	O291	O	0.033416	0.024736	1.027376
	H292	H	0.035526	0.028474	1.019099
	H293	H	0.041529	0.016233	1.022405
	O294	O	0.529848	0.446385	0.520468
	H295	H	0.533227	0.453201	0.519064
	H296	H	0.526249	0.443825	0.533599
	O297	O	0.583400	0.414812	0.458794
	H298	H	0.582802	0.413531	0.452287
	H299	H	0.576498	0.413277	0.462662
	O300	O	0.491620	0.522843	0.493023
	H301	H	0.485939	0.512101	0.483734
	H302	H	0.491940	0.526992	0.502110
	O303	O	0.544593	0.534404	0.488309
	H304	H	0.547643	0.536918	0.495121
	H305	H	0.551967	0.528061	0.497367
	O306	O	1.033929	0.065569	1.015600
	H307	H	1.031727	0.064793	1.015063
	H308	H	1.038754	0.066952	1.012481
	O309	O	0.540833	0.468479	0.538434
	H310	H	0.546709	0.470832	0.541570
	H311	H	0.540802	0.465791	0.534391
	O312	O	0.478206	0.443704	0.468574
	H313	H	0.478699	0.435944	0.468744
	H314	H	0.478941	0.444377	0.459813
	O315	O	1.036995	0.060376	1.027632
	H316	H	1.040047	0.055315	1.011852
	H317	H	1.036302	0.056881	1.032661
	O318	O	0.015710	0.059590	-0.035010
	H319	H	0.016409	0.058467	-0.025066
	H320	H	0.014086	0.065630	-0.031460
	O321	O	0.472457	0.484725	0.440635
	H322	H	0.467829	0.475736	0.434947
	H323	H	0.471991	0.479620	0.437370
	O324	O	1.026065	0.083203	0.025598
	H325	H	1.024018	0.085617	0.024864
	H326	H	1.028246	0.084434	0.032269
	O327	O	1.032728	1.060716	-0.017499
	H328	H	1.038671	1.076233	-0.012728
	H329	H	1.023209	1.054630	-0.005612
	O330	O	0.515476	0.428536	0.426035
	H331	H	0.522962	0.428602	0.424369
	H332	H	0.529591	0.427201	0.424058
	O333	O	0.464541	0.479693	0.512921
	H334	H	0.462989	0.481984	0.508982
	H335	H	0.464088	0.484885	0.504544
