data_Molecule from HDF5

_cell_length_a		16.082213
_cell_length_b		16.217918
_cell_length_c		16.310421
_cell_angle_alpha	90.306346
_cell_angle_beta	89.676279
_cell_angle_gamma	89.874595
_symmetry_space_group_name_H-M	'P 1'
_symmetry_Int_Tables_number		1

loop_
	_symmetry_equiv_pos_as_xyz
	x,y,z

loop_
	_atom_site_label
	_atom_site_type_symbol
	_atom_site_fract_x
	_atom_site_fract_y
	_atom_site_fract_z
	H0	H	0.400258	0.836433	0.707240
	H1	H	0.600829	0.163057	0.710040
	H2	H	0.602715	0.836853	0.275204
	H3	H	0.398159	0.163706	0.277814
	H4	H	0.716272	0.400786	0.831116
	H5	H	0.710849	0.599055	0.158867
	H6	H	0.287929	0.597196	0.829379
	H7	H	0.285883	0.403638	0.157792
	H8	H	0.834779	0.714234	0.398183
	H9	H	0.166930	0.713134	0.590300
	H10	H	0.835013	0.290871	0.592337
	H11	H	0.165575	0.284588	0.392785
	H12	H	0.836330	0.404134	0.707911
	H13	H	0.166478	0.600892	0.707201
	H14	H	0.834996	0.601312	0.280315
	H15	H	0.165498	0.400058	0.278129
	H16	H	0.403146	0.713273	0.829439
	H17	H	0.597737	0.717314	0.156536
	H18	H	0.601916	0.284793	0.830559
	H19	H	0.399829	0.286095	0.156522
	H20	H	0.714227	0.835899	0.394848
	H21	H	0.709897	0.166174	0.589763
	H22	H	0.288044	0.835562	0.590289
	H23	H	0.287950	0.165362	0.398019
	H24	H	0.897323	0.337573	0.211121
	H25	H	0.101177	0.664337	0.210843
	H26	H	0.102259	0.337424	0.776425
	H27	H	0.901438	0.665527	0.782108
	H28	H	0.215634	0.901853	0.330034
	H29	H	0.212437	0.098124	0.658595
	H30	H	0.787199	0.098081	0.330738
	H31	H	0.786130	0.905487	0.657890
	H32	H	0.334606	0.214212	0.895775
	H33	H	0.666207	0.213676	0.090199
	H34	H	0.334037	0.790120	0.089427
	H35	H	0.665722	0.786966	0.894138
	H36	H	0.335426	0.900946	0.207997
	H37	H	0.664732	0.100471	0.207474
	H38	H	0.333999	0.098281	0.781162
	H39	H	0.665873	0.900625	0.777954
	H40	H	0.900370	0.215996	0.331530
	H41	H	0.099470	0.216535	0.657822
	H42	H	0.101816	0.783586	0.331435
	H43	H	0.901779	0.788715	0.658148
	H44	H	0.214608	0.335987	0.894585
	H45	H	0.210535	0.666160	0.089100
	H46	H	0.787439	0.335495	0.091220
	H47	H	0.788184	0.665492	0.900231
	H48	H	0.414926	0.114481	0.583091
	H49	H	0.592873	0.883917	0.581082
	H50	H	0.589188	0.115206	0.403157
	H51	H	0.407721	0.882970	0.399216
	H52	H	0.588735	0.405407	0.110853
	H53	H	0.598377	0.596893	0.875444
	H54	H	0.394250	0.598016	0.114129
	H55	H	0.406253	0.408253	0.876773
	H56	H	0.118247	0.590200	0.399431
	H57	H	0.886336	0.586792	0.579712
	H58	H	0.116491	0.410730	0.578464
	H59	H	0.881819	0.401711	0.406794
	H60	H	0.121589	0.413280	0.592447
	H61	H	0.879655	0.589439	0.602111
	H62	H	0.118916	0.593643	0.400139
	H63	H	0.886368	0.415840	0.408441
	H64	H	0.408440	0.586655	0.106907
	H65	H	0.597202	0.589174	0.877101
	H66	H	0.595432	0.405619	0.112140
	H67	H	0.410326	0.407563	0.877767
	H68	H	0.597417	0.118950	0.399774
	H69	H	0.597237	0.880308	0.588093
	H70	H	0.398017	0.119450	0.584798
	H71	H	0.410140	0.882838	0.397829
	H72	H	0.900263	0.619579	0.088134
	H73	H	0.096558	0.382954	0.082655
	H74	H	0.104126	0.619761	0.905861
	H75	H	0.905511	0.380600	0.893607
	H76	H	0.089814	0.907244	0.610108
	H77	H	0.100187	0.082477	0.379439
	H78	H	0.913529	0.093048	0.608427
	H79	H	0.910276	0.904406	0.377367
	H80	H	0.619203	0.088286	0.894394
	H81	H	0.379785	0.095093	0.090525
	H82	H	0.619564	0.904026	0.081270
	H83	H	0.378048	0.904506	0.891639
	H84	H	0.617412	0.912862	0.083061
	H85	H	0.383285	0.095699	0.081869
	H86	H	0.619916	0.098152	0.898255
	H87	H	0.381002	0.901872	0.902799
	H88	H	0.904873	0.107120	0.614657
	H89	H	0.081252	0.093631	0.381269
	H90	H	0.095379	0.903007	0.612875
	H91	H	0.906294	0.906279	0.376885
	H92	H	0.094505	0.622527	0.888100
	H93	H	0.093644	0.381538	0.092449
	H94	H	0.909597	0.618274	0.094755
	H95	H	0.916392	0.385058	0.898653
	H96	H	0.409147	0.120398	0.598301
	H97	H	0.588677	0.882899	0.588101
	H98	H	0.589873	0.118967	0.394410
	H99	H	0.410057	0.883336	0.400403
	H100	H	0.592388	0.410525	0.110218
	H101	H	0.590638	0.594511	0.878100
	H102	H	0.412505	0.604739	0.111250
	H103	H	0.408359	0.404077	0.875615
	H104	H	0.117471	0.591553	0.402707
	H105	H	0.878360	0.607537	0.587430
	H106	H	0.121862	0.399912	0.586512
	H107	H	0.881194	0.410833	0.395057
	H108	H	0.911017	0.615928	0.084788
	H109	H	0.087711	0.384886	0.085414
	H110	H	0.083951	0.613871	0.904130
	H111	H	0.905163	0.383985	0.905604
	H112	H	0.096685	0.910483	0.610649
	H113	H	0.099296	0.103762	0.372678
	H114	H	0.896301	0.091709	0.612549
	H115	H	0.909440	0.908272	0.378159
	H116	H	0.616369	0.090700	0.904804
	H117	H	0.383828	0.087065	0.085778
	H118	H	0.621009	0.907613	0.089931
	H119	H	0.383500	0.912007	0.899642
	C120	C	0.378572	0.009333	0.615885
	C121	C	0.621077	0.991243	0.614344
	C122	C	0.622141	0.009255	0.370411
	C123	C	0.379340	0.991722	0.371644
	C124	C	0.621971	0.378277	0.002775
	C125	C	0.622185	0.622402	0.985305
	C126	C	0.378138	0.623146	0.002217
	C127	C	0.378554	0.378230	0.984982
	C128	C	0.008727	0.621512	0.372884
	C129	C	0.991879	0.622590	0.616340
	C130	C	0.010267	0.380520	0.614788
	C131	C	0.992163	0.379273	0.372877
	C132	C	0.878200	0.509103	0.117066
	C133	C	0.121002	0.492060	0.115184
	C134	C	0.123162	0.509762	0.871336
	C135	C	0.879964	0.492436	0.872958
	C136	C	0.123091	0.878279	0.503156
	C137	C	0.121986	0.122387	0.485910
	C138	C	0.877441	0.124024	0.503370
	C139	C	0.879268	0.879184	0.485495
	C140	C	0.508710	0.121266	0.871660
	C141	C	0.491442	0.121916	0.114578
	C142	C	0.509547	0.879657	0.113438
	C143	C	0.490840	0.878045	0.870340
	C144	C	0.380815	0.885340	0.669516
	C145	C	0.619743	0.114551	0.670975
	C146	C	0.621844	0.885651	0.314155
	C147	C	0.379868	0.114979	0.316577
	C148	C	0.678135	0.380598	0.879750
	C149	C	0.674616	0.619668	0.109445
	C150	C	0.324842	0.618350	0.878544
	C151	C	0.323265	0.382281	0.108446
	C152	C	0.884067	0.676659	0.376947
	C153	C	0.117222	0.676360	0.611702
	C154	C	0.884907	0.327285	0.612672
	C155	C	0.116168	0.322785	0.373463
	C156	C	0.885507	0.383339	0.670532
	C157	C	0.117031	0.620285	0.669661
	C158	C	0.884497	0.620592	0.318172
	C159	C	0.116027	0.379956	0.315995
	C160	C	0.381656	0.676411	0.878609
	C161	C	0.618683	0.678923	0.108079
	C162	C	0.621268	0.322693	0.879593
	C163	C	0.379872	0.323700	0.107842
	C164	C	0.677251	0.885247	0.373597
	C165	C	0.674039	0.116070	0.611074
	C166	C	0.324705	0.885213	0.611485
	C167	C	0.324593	0.115731	0.376189
	C168	C	0.879016	0.386023	0.172234
	C169	C	0.119578	0.615619	0.171291
	C170	C	0.121603	0.386122	0.815356
	C171	C	0.881376	0.616073	0.819492
	C172	C	0.178175	0.880709	0.379268
	C173	C	0.175987	0.119640	0.609256
	C174	C	0.824033	0.119382	0.379876
	C175	C	0.823612	0.883783	0.608972
	C176	C	0.384134	0.176731	0.874927
	C177	C	0.616427	0.176367	0.110928
	C178	C	0.384048	0.826370	0.110648
	C179	C	0.616145	0.824062	0.873368
	C180	C	0.384932	0.881439	0.169618
	C181	C	0.615981	0.119794	0.169042
	C182	C	0.383740	0.118801	0.818140
	C183	C	0.616127	0.880546	0.815691
	C184	C	0.880224	0.178353	0.380503
	C185	C	0.119487	0.178030	0.609097
	C186	C	0.121392	0.822318	0.379874
	C187	C	0.881300	0.826046	0.609284
	C188	C	0.176889	0.385252	0.874647
	C189	C	0.174134	0.616730	0.110977
	C190	C	0.823945	0.385228	0.112875
	C191	C	0.825241	0.616286	0.878462
	C192	C	0.400748	0.095868	0.594988
	C193	C	0.599311	0.904757	0.592130
	C194	C	0.598938	0.095450	0.392561
	C195	C	0.402501	0.905272	0.392929
	C196	C	0.598963	0.400688	0.088896
	C197	C	0.601609	0.600156	0.899125
	C198	C	0.399026	0.602676	0.088431
	C199	C	0.401471	0.400013	0.899100
	C200	C	0.095847	0.598695	0.394579
	C201	C	0.904216	0.601114	0.595772
	C202	C	0.097402	0.401763	0.592370
	C203	C	0.905430	0.402749	0.396340
	C204	C	0.900442	0.595630	0.095540
	C205	C	0.099227	0.405575	0.093135
	C206	C	0.100822	0.596285	0.892992
	C207	C	0.902349	0.405404	0.893356
	C208	C	0.100561	0.900464	0.588949
	C209	C	0.100028	0.100030	0.399919
	C210	C	0.898531	0.103320	0.589648
	C211	C	0.902055	0.899980	0.399743
	C212	C	0.595980	0.098933	0.892969
	C213	C	0.404671	0.099334	0.092423
	C214	C	0.596802	0.901500	0.091223
	C215	C	0.403365	0.899564	0.891923
	Zn216	Zn	0.500390	-0.000238	0.743285
	Zn217	Zn	0.500507	-0.000130	0.242386
	Zn218	Zn	0.750584	0.500243	-0.005304
	Zn219	Zn	0.249813	0.500894	-0.006270
	Zn220	Zn	0.000836	0.749580	0.494804
	Zn221	Zn	0.000614	0.251463	0.494750
	Zn222	Zn	0.001789	0.501514	0.742953
	Zn223	Zn	0.000056	0.500436	0.244366
	Zn224	Zn	0.499843	0.751494	-0.007071
	Zn225	Zn	0.500364	0.249492	-0.006696
	Zn226	Zn	0.749426	0.000974	0.493580
	Zn227	Zn	0.250970	0.000880	0.493867
	N228	N	0.413506	0.963599	0.672660
	N229	N	0.587482	0.036058	0.673177
	N230	N	0.588543	0.963849	0.311808
	N231	N	0.413274	0.036724	0.313659
	N232	N	0.678721	0.414437	0.957463
	N233	N	0.677032	0.585256	0.032101
	N234	N	0.322571	0.585767	0.956326
	N235	N	0.322183	0.415423	0.030882
	N236	N	0.962584	0.677296	0.410217
	N237	N	0.038282	0.678038	0.579461
	N238	N	0.963456	0.325378	0.578757
	N239	N	0.037951	0.322289	0.408190
	N240	N	0.964333	0.416066	0.671866
	N241	N	0.038089	0.587761	0.672700
	N242	N	0.963014	0.586839	0.315862
	N243	N	0.037771	0.414492	0.315723
	N244	N	0.414227	0.679345	0.956336
	N245	N	0.586598	0.680582	0.030175
	N246	N	0.586885	0.321360	0.956988
	N247	N	0.413487	0.321084	0.030184
	N248	N	0.677604	0.963040	0.407898
	N249	N	0.674919	0.038433	0.576575
	N250	N	0.323296	0.963336	0.578933
	N251	N	0.324427	0.038155	0.409782
	N252	N	0.912020	0.464214	0.174856
	N253	N	0.087170	0.537195	0.173829
	N254	N	0.088660	0.464464	0.813307
	N255	N	0.914914	0.537925	0.816122
	N256	N	0.179284	0.914876	0.456602
	N257	N	0.177562	0.085488	0.531769
	N258	N	0.822236	0.086124	0.457233
	N259	N	0.822360	0.916323	0.531202
	N260	N	0.462767	0.178249	0.907399
	N261	N	0.537905	0.177742	0.077819
	N262	N	0.462490	0.825294	0.076263
	N263	N	0.537344	0.822362	0.906637
	N264	N	0.463825	0.914120	0.171166
	N265	N	0.537266	0.086963	0.171660
	N266	N	0.462497	0.085032	0.815955
	N267	N	0.537253	0.913688	0.813911
	N268	N	0.912745	0.181141	0.458279
	N269	N	0.086830	0.179957	0.531265
	N270	N	0.088014	0.820542	0.457835
	N271	N	0.915057	0.822891	0.531684
	N272	N	0.177949	0.463096	0.908685
	N273	N	0.175267	0.538910	0.076837
	N274	N	0.823480	0.462760	0.079044
	N275	N	0.824297	0.538159	0.910854
	O276	O	0.482688	0.502986	0.468435
	H277	H	0.485581	0.508449	0.477069
	H278	H	0.483742	0.504311	0.470002
	O279	O	0.494365	0.405206	0.480634
	H280	H	0.493619	0.412163	0.476795
	H281	H	0.499882	0.403603	0.466435
	O282	O	0.586634	0.457616	0.564208
	H283	H	0.589374	0.444968	0.555281
	H284	H	0.582126	0.454664	0.559348
	O285	O	-0.419872	1.507449	1.441304
	H286	H	-0.416189	1.515798	1.438245
	H287	H	-0.421538	1.505143	1.436649
	O288	O	0.425243	0.523425	0.493497
	H289	H	0.427788	0.520216	0.495628
	H290	H	0.423755	0.524662	0.492468
	O291	O	0.000225	0.024329	1.079396
	H292	H	0.000829	0.019949	1.079895
	H293	H	0.003788	0.026568	1.085379
	O294	O	0.478675	0.464376	0.387931
	H295	H	0.487780	0.456004	0.390566
	H296	H	0.481407	0.458235	0.392436
	O297	O	0.536159	0.507774	0.479742
	H298	H	0.522207	0.504363	0.477170
	H299	H	0.539078	0.506756	0.483532
	O300	O	0.584762	0.452061	0.469542
	H301	H	0.591980	0.438436	0.467803
	H302	H	0.578796	0.463526	0.466739
	O303	O	0.506950	0.472717	0.438834
	H304	H	0.511128	0.468938	0.446322
	H305	H	0.504940	0.463796	0.436463
	O306	O	1.015892	0.001626	1.041808
	H307	H	1.018919	0.003283	1.045382
	H308	H	1.031958	0.009124	1.036572
	O309	O	0.463247	0.424586	0.522060
	H310	H	0.463093	0.424922	0.517674
	H311	H	0.460266	0.433838	0.521367
	O312	O	0.498131	0.525464	0.536294
	H313	H	0.503781	0.522139	0.544597
	H314	H	0.498707	0.523796	0.527337
	O315	O	0.979564	-0.001061	1.061846
	H316	H	0.989673	-0.003334	1.070304
	H317	H	0.976950	-0.002293	1.052674
	O318	O	-0.009400	0.015723	0.006429
	H319	H	-0.006544	0.026275	0.005352
	H320	H	-0.002952	0.014008	0.008121
	O321	O	0.431647	0.404087	0.560623
	H322	H	0.428304	0.398339	0.555830
	H323	H	0.432093	0.402300	0.551548
	O324	O	0.979838	0.000036	0.074421
	H325	H	0.966533	-0.004333	0.077195
	H326	H	0.983652	-0.005133	0.072960
	O327	O	0.997010	1.013155	0.075306
	H328	H	0.989087	1.010162	0.073502
	H329	H	0.993664	1.009691	0.078601
	O330	O	0.432732	0.517425	0.471582
	H331	H	0.422181	0.518855	0.470953
	H332	H	0.435540	0.517770	0.481309
	O333	O	0.531925	0.560964	0.554635
	H334	H	0.537661	0.558874	0.556564
	H335	H	0.543439	0.563517	0.563382
