data_Molecule from HDF5

_cell_length_a		16.347599
_cell_length_b		16.005706
_cell_length_c		16.169614
_cell_angle_alpha	92.059973
_cell_angle_beta	88.370736
_cell_angle_gamma	89.449233
_symmetry_space_group_name_H-M	'P 1'
_symmetry_Int_Tables_number		1

loop_
	_symmetry_equiv_pos_as_xyz
	x,y,z

loop_
	_atom_site_label
	_atom_site_type_symbol
	_atom_site_fract_x
	_atom_site_fract_y
	_atom_site_fract_z
	H0	H	0.402718	0.832840	0.705655
	H1	H	0.594146	0.166345	0.718028
	H2	H	0.608956	0.836872	0.273568
	H3	H	0.408059	0.169519	0.300907
	H4	H	0.722094	0.387568	0.837465
	H5	H	0.704178	0.604814	0.165254
	H6	H	0.286709	0.594556	0.834900
	H7	H	0.276258	0.404753	0.161931
	H8	H	0.836032	0.713458	0.413750
	H9	H	0.163865	0.719098	0.598050
	H10	H	0.835278	0.296663	0.594188
	H11	H	0.164086	0.282767	0.390857
	H12	H	0.838301	0.405814	0.717838
	H13	H	0.164220	0.602575	0.714402
	H14	H	0.834746	0.598883	0.297569
	H15	H	0.161252	0.394565	0.271570
	H16	H	0.405931	0.705021	0.831799
	H17	H	0.588531	0.719472	0.163742
	H18	H	0.599167	0.281346	0.835033
	H19	H	0.401410	0.300431	0.168296
	H20	H	0.724191	0.837220	0.386006
	H21	H	0.707534	0.169054	0.601717
	H22	H	0.282734	0.837642	0.599525
	H23	H	0.289190	0.167067	0.409906
	H24	H	0.901798	0.333808	0.207596
	H25	H	0.090975	0.667159	0.213923
	H26	H	0.104927	0.336882	0.774616
	H27	H	0.903755	0.668854	0.799857
	H28	H	0.224830	0.892959	0.337271
	H29	H	0.208160	0.109349	0.665848
	H30	H	0.787869	0.101712	0.336428
	H31	H	0.779014	0.907951	0.662056
	H32	H	0.334755	0.209647	0.913969
	H33	H	0.663689	0.216864	0.095865
	H34	H	0.333835	0.795883	0.095568
	H35	H	0.661814	0.777267	0.889593
	H36	H	0.338796	0.904846	0.219783
	H37	H	0.664762	0.102585	0.212996
	H38	H	0.335771	0.096395	0.795173
	H39	H	0.661750	0.892750	0.773116
	H40	H	0.912565	0.205178	0.331414
	H41	H	0.093023	0.224439	0.663009
	H42	H	0.107228	0.778084	0.336523
	H43	H	0.901754	0.801444	0.666923
	H44	H	0.218708	0.335234	0.887232
	H45	H	0.207711	0.665951	0.103647
	H46	H	0.783314	0.334670	0.097678
	H47	H	0.782672	0.664115	0.907099
	H48	H	0.406676	0.118714	0.596728
	H49	H	0.591500	0.881142	0.586564
	H50	H	0.601437	0.122622	0.410536
	H51	H	0.417324	0.880012	0.396252
	H52	H	0.598528	0.410143	0.122361
	H53	H	0.600154	0.590138	0.878729
	H54	H	0.400247	0.597493	0.117016
	H55	H	0.403046	0.399210	0.879093
	H56	H	0.114321	0.580169	0.404097
	H57	H	0.883270	0.601364	0.604406
	H58	H	0.116589	0.411753	0.582059
	H59	H	0.886920	0.410477	0.415908
	H60	H	0.117138	0.414048	0.586850
	H61	H	0.882416	0.602213	0.602279
	H62	H	0.119848	0.591690	0.395063
	H63	H	0.880922	0.411380	0.391905
	H64	H	0.399967	0.600365	0.118067
	H65	H	0.600909	0.578087	0.882070
	H66	H	0.589180	0.417996	0.116912
	H67	H	0.410733	0.408266	0.882623
	H68	H	0.595703	0.121160	0.404430
	H69	H	0.591576	0.883924	0.577204
	H70	H	0.398483	0.123179	0.600986
	H71	H	0.419752	0.885859	0.413811
	H72	H	0.899347	0.617996	0.092199
	H73	H	0.083802	0.383349	0.086057
	H74	H	0.100387	0.616730	0.928229
	H75	H	0.910529	0.380652	0.904554
	H76	H	0.085113	0.915052	0.616392
	H77	H	0.084837	0.082019	0.387637
	H78	H	0.906977	0.098381	0.616218
	H79	H	0.912650	0.905305	0.381804
	H80	H	0.618394	0.089593	0.903738
	H81	H	0.386258	0.098814	0.092925
	H82	H	0.613950	0.908953	0.077443
	H83	H	0.382736	0.903433	0.906238
	H84	H	0.615409	0.914570	0.087139
	H85	H	0.383792	0.089254	0.111540
	H86	H	0.617079	0.089064	0.905136
	H87	H	0.381730	0.905848	0.903125
	H88	H	0.902111	0.106795	0.618927
	H89	H	0.103813	0.106283	0.374857
	H90	H	0.094957	0.908017	0.620986
	H91	H	0.914361	0.907607	0.382029
	H92	H	0.105705	0.627586	0.898930
	H93	H	0.091734	0.382403	0.076396
	H94	H	0.891441	0.624525	0.104712
	H95	H	0.914032	0.381407	0.906387
	H96	H	0.406830	0.121835	0.605287
	H97	H	0.599566	0.881113	0.581357
	H98	H	0.594369	0.118692	0.412113
	H99	H	0.403607	0.879575	0.408912
	H100	H	0.587038	0.405962	0.119637
	H101	H	0.589601	0.584531	0.882341
	H102	H	0.397704	0.598762	0.117314
	H103	H	0.413981	0.396984	0.881525
	H104	H	0.116913	0.594456	0.410972
	H105	H	0.883650	0.600235	0.602976
	H106	H	0.117928	0.408704	0.586431
	H107	H	0.879085	0.389535	0.404756
	H108	H	0.906257	0.620340	0.105432
	H109	H	0.096413	0.377582	0.087152
	H110	H	0.076944	0.616642	0.907348
	H111	H	0.910649	0.381365	0.908538
	H112	H	0.096872	0.920436	0.617694
	H113	H	0.116171	0.076688	0.380587
	H114	H	0.896054	0.098485	0.618657
	H115	H	0.915171	0.904267	0.381338
	H116	H	0.617046	0.088218	0.902910
	H117	H	0.378237	0.110654	0.109880
	H118	H	0.619287	0.903618	0.086709
	H119	H	0.381010	0.902453	0.902459
	C120	C	0.376886	0.010738	0.624480
	C121	C	0.619858	0.992333	0.616147
	C122	C	0.627770	0.011045	0.374752
	C123	C	0.384256	0.992203	0.382498
	C124	C	0.622390	0.377423	0.009928
	C125	C	0.620313	0.618907	0.990361
	C126	C	0.375405	0.622492	0.007703
	C127	C	0.378114	0.378650	0.990670
	C128	C	0.008512	0.619552	0.380775
	C129	C	0.991919	0.628216	0.627718
	C130	C	0.009439	0.383331	0.617058
	C131	C	0.990536	0.374693	0.371915
	C132	C	0.873572	0.510263	0.124634
	C133	C	0.117274	0.491281	0.116507
	C134	C	0.124338	0.510657	0.876517
	C135	C	0.881611	0.491108	0.882253
	C136	C	0.124653	0.879573	0.509606
	C137	C	0.124215	0.122580	0.490709
	C138	C	0.878326	0.125020	0.508129
	C139	C	0.881591	0.881963	0.490435
	C140	C	0.508629	0.117909	0.880898
	C141	C	0.491480	0.126511	0.127416
	C142	C	0.508523	0.881810	0.116907
	C143	C	0.489989	0.873071	0.871699
	C144	C	0.381245	0.883789	0.672106
	C145	C	0.615166	0.116977	0.678001
	C146	C	0.628149	0.886484	0.313312
	C147	C	0.387224	0.118832	0.334735
	C148	C	0.681968	0.371818	0.886447
	C149	C	0.669132	0.622931	0.115246
	C150	C	0.323740	0.615980	0.883676
	C151	C	0.317533	0.384798	0.113957
	C152	C	0.885059	0.675729	0.390278
	C153	C	0.115096	0.681588	0.620252
	C154	C	0.885037	0.332032	0.615556
	C155	C	0.114178	0.319574	0.371065
	C156	C	0.886504	0.386278	0.676862
	C157	C	0.115166	0.623994	0.678402
	C158	C	0.884369	0.618267	0.332551
	C159	C	0.112936	0.375435	0.311707
	C160	C	0.382998	0.670849	0.882255
	C161	C	0.611553	0.680017	0.114400
	C162	C	0.620824	0.318693	0.885078
	C163	C	0.379779	0.332602	0.117090
	C164	C	0.685419	0.886800	0.369467
	C165	C	0.671617	0.118432	0.620054
	C166	C	0.320988	0.886489	0.619800
	C167	C	0.327823	0.117525	0.388644
	C168	C	0.879240	0.384167	0.173449
	C169	C	0.112517	0.616950	0.175744
	C170	C	0.124270	0.386213	0.814356
	C171	C	0.883582	0.618022	0.834223
	C172	C	0.184796	0.875228	0.386404
	C173	C	0.173117	0.126862	0.615680
	C174	C	0.826407	0.120389	0.384415
	C175	C	0.820245	0.887624	0.613674
	C176	C	0.384297	0.172702	0.890443
	C177	C	0.614819	0.180201	0.118995
	C178	C	0.383976	0.830987	0.116350
	C179	C	0.613058	0.815831	0.870687
	C180	C	0.386551	0.885246	0.178474
	C181	C	0.615259	0.123196	0.177002
	C182	C	0.384702	0.116093	0.831357
	C183	C	0.612805	0.873001	0.812538
	C184	C	0.888043	0.172302	0.382167
	C185	C	0.115420	0.183926	0.614456
	C186	C	0.126341	0.818069	0.386002
	C187	C	0.881287	0.834601	0.616488
	C188	C	0.180950	0.385507	0.870765
	C189	C	0.170551	0.616449	0.120430
	C190	C	0.820622	0.384474	0.118701
	C191	C	0.823138	0.615672	0.887386
	C192	C	0.397772	0.098323	0.606427
	C193	C	0.599853	0.904902	0.589565
	C194	C	0.604037	0.098497	0.401492
	C195	C	0.406836	0.904472	0.400829
	C196	C	0.598450	0.403836	0.097116
	C197	C	0.602298	0.592150	0.903385
	C198	C	0.393682	0.604233	0.094889
	C199	C	0.402082	0.396234	0.903724
	C200	C	0.094716	0.595952	0.398085
	C201	C	0.905586	0.607638	0.609011
	C202	C	0.094915	0.405059	0.592252
	C203	C	0.904423	0.397127	0.396757
	C204	C	0.893272	0.598087	0.106466
	C205	C	0.096747	0.403708	0.090655
	C206	C	0.101212	0.597974	0.903576
	C207	C	0.904934	0.403782	0.900803
	C208	C	0.099467	0.906793	0.596078
	C209	C	0.106942	0.096017	0.403607
	C210	C	0.896331	0.106841	0.595259
	C211	C	0.906800	0.900101	0.404143
	C212	C	0.594901	0.095557	0.898638
	C213	C	0.405077	0.105779	0.110020
	C214	C	0.594063	0.902900	0.091149
	C215	C	0.404031	0.896791	0.896569
	Zn216	Zn	0.499285	-0.001544	0.747270
	Zn217	Zn	0.502868	0.001603	0.251873
	Zn218	Zn	0.749548	0.498843	0.001161
	Zn219	Zn	0.248164	0.500467	-0.001593
	Zn220	Zn	0.001159	0.752418	0.501792
	Zn221	Zn	0.001045	0.250529	0.497418
	Zn222	Zn	0.001355	0.502480	0.752404
	Zn223	Zn	-0.001882	0.500451	0.247417
	Zn224	Zn	0.498385	0.748367	-0.003273
	Zn225	Zn	0.499750	0.250838	0.001845
	Zn226	Zn	0.751916	0.002892	0.497460
	Zn227	Zn	0.253377	0.001852	0.501961
	N228	N	0.415058	0.962094	0.675537
	N229	N	0.583371	0.037501	0.675688
	N230	N	0.593018	0.964976	0.316548
	N231	N	0.421581	0.039807	0.330581
	N232	N	0.682764	0.407652	0.965268
	N233	N	0.674714	0.585708	0.037013
	N234	N	0.318554	0.586800	0.962765
	N235	N	0.316373	0.412775	0.034438
	N236	N	0.963257	0.676729	0.419611
	N237	N	0.037337	0.684465	0.589750
	N238	N	0.962333	0.329915	0.579036
	N239	N	0.037036	0.318910	0.407790
	N240	N	0.964655	0.417589	0.677964
	N241	N	0.037363	0.591739	0.683300
	N242	N	0.962284	0.584016	0.326288
	N243	N	0.035007	0.408877	0.311881
	N244	N	0.414223	0.675177	0.960273
	N245	N	0.581950	0.677732	0.035545
	N246	N	0.584572	0.321846	0.963094
	N247	N	0.416907	0.328471	0.039508
	N248	N	0.685176	0.965588	0.407092
	N249	N	0.674555	0.040127	0.582037
	N250	N	0.317611	0.966405	0.591282
	N251	N	0.325813	0.037820	0.417953
	N252	N	0.911441	0.463278	0.177488
	N253	N	0.080061	0.537895	0.173435
	N254	N	0.089797	0.464989	0.817885
	N255	N	0.919515	0.539639	0.830782
	N256	N	0.183753	0.912929	0.464465
	N257	N	0.178560	0.089057	0.537657
	N258	N	0.819962	0.091904	0.463754
	N259	N	0.820282	0.916365	0.534395
	N260	N	0.462259	0.173879	0.920664
	N261	N	0.536746	0.182732	0.088972
	N262	N	0.460722	0.828647	0.078592
	N263	N	0.535633	0.815792	0.906700
	N264	N	0.464990	0.916053	0.178843
	N265	N	0.537701	0.090675	0.182575
	N266	N	0.462846	0.082898	0.825024
	N267	N	0.535245	0.907802	0.812873
	N268	N	0.919954	0.175159	0.459910
	N269	N	0.086122	0.181624	0.535590
	N270	N	0.089727	0.820673	0.463771
	N271	N	0.919030	0.830845	0.539136
	N272	N	0.180920	0.463960	0.909061
	N273	N	0.173535	0.537314	0.084152
	N274	N	0.816812	0.463883	0.089260
	N275	N	0.821597	0.535917	0.916320
	O276	O	0.472719	0.512750	0.501842
	H277	H	0.483576	0.510217	0.501888
	H278	H	0.463098	0.509283	0.503751
	O279	O	0.472147	0.442234	0.335367
	H280	H	0.481876	0.432158	0.324861
	H281	H	0.484691	0.432875	0.344056
	O282	O	0.884247	1.013631	0.087477
	H283	H	0.912485	1.015396	0.099196
	H284	H	0.886980	1.019624	0.064144
	O285	O	1.056045	0.059376	1.002231
	H286	H	1.055259	0.065383	0.994132
	H287	H	1.049131	0.052646	1.003936
	O288	O	0.584322	0.500927	0.587487
	H289	H	0.596338	0.493844	0.588577
	H290	H	0.583067	0.497503	0.588564
	O291	O	0.489547	0.386074	0.574808
	H292	H	0.482161	0.375423	0.578019
	H293	H	0.499790	0.370866	0.579468
	O294	O	0.507255	0.404759	0.542298
	H295	H	0.508330	0.393569	0.528696
	H296	H	0.516932	0.401959	0.530182
	O297	O	0.103592	-0.037223	0.881528
	H298	H	0.100331	-0.053286	0.877757
	H299	H	0.117376	-0.049504	0.882753
	O300	O	0.388811	0.571050	0.477634
	H301	H	0.374218	0.570003	0.476654
	H302	H	0.395596	0.556457	0.468361
	O303	O	1.102612	0.885189	-0.014711
	H304	H	1.107162	0.888273	-0.002492
	H305	H	1.096363	0.881977	-0.016859
	O306	O	-0.495028	1.551407	0.574907
	H307	H	-0.498031	1.545326	0.566961
	H308	H	-0.500465	1.573234	0.586201
	O309	O	0.472974	0.486894	0.464076
	H310	H	0.481560	0.492190	0.466338
	H311	H	0.461721	0.499774	0.459638
	O312	O	0.073481	0.052148	-0.028980
	H313	H	0.092617	0.048079	-0.033188
	H314	H	0.061023	0.054653	-0.030414
	O315	O	0.992830	0.083479	-0.062780
	H316	H	1.000222	0.080282	-0.053493
	H317	H	0.993480	0.082697	-0.050728
	O318	O	1.128936	1.079884	1.015445
	H319	H	1.132259	1.091291	1.000032
	H320	H	1.124331	1.090679	1.029642
	O321	O	0.034351	-0.155317	0.928554
	H322	H	0.043906	-0.158595	0.924373
	H323	H	0.049558	-0.161069	0.936417
	O324	O	0.547168	0.468678	0.407176
	H325	H	0.559137	0.457467	0.388921
	H326	H	0.549494	0.492134	0.407062
	O327	O	-0.160199	0.027613	0.176007
	H328	H	-0.148016	0.024108	0.168030
	H329	H	-0.151927	0.021150	0.169846
	O330	O	0.394555	0.545716	0.498574
	H331	H	0.396014	0.544051	0.488706
	H332	H	0.400157	0.538793	0.505323
	O333	O	0.121177	0.899661	0.887179
	H334	H	0.123918	0.906781	0.903054
	H335	H	0.131547	0.880607	0.878570
	O336	O	0.068773	-0.078302	0.017569
	H337	H	0.056228	-0.082216	0.016618
	H338	H	0.074468	-0.083882	0.004711
	O339	O	0.616855	0.530969	0.509552
	H340	H	0.618962	0.534932	0.517115
	H341	H	0.610663	0.544224	0.500542
	O342	O	0.964532	0.943399	0.967982
	H343	H	0.957144	0.943510	0.960032
	H344	H	0.966527	0.922061	0.977022
	O345	O	0.975589	0.986177	0.120853
	H346	H	0.975647	0.979601	0.112694
	H347	H	0.965202	0.991622	0.116859
	O348	O	0.598033	0.469140	0.380766
	H349	H	0.583602	0.491354	0.387393
	H350	H	0.614645	0.472798	0.368648
	O351	O	0.577719	0.563017	0.489852
	H352	H	0.581658	0.562832	0.496358
	H353	H	0.575286	0.560864	0.493685
	O354	O	0.533826	0.546749	0.539349
	H355	H	0.536972	0.541307	0.521808
	H356	H	0.527290	0.554366	0.541111
	O357	O	0.900818	0.032551	1.012230
	H358	H	0.915038	0.017120	1.000585
	H359	H	0.902487	0.037014	1.011462
	O360	O	0.436612	0.529151	0.512875
	H361	H	0.438936	0.513847	0.518663
	H362	H	0.431938	0.520007	0.517877
	O363	O	0.997565	0.011777	1.068420
	H364	H	0.989961	0.018436	1.075320
	H365	H	0.984096	0.018541	1.074082
	O366	O	0.877718	1.064848	0.999511
	H367	H	0.870147	1.064930	1.001782
	H368	H	0.872729	1.056662	1.000741
	O369	O	0.930872	-0.049378	0.937011
	H370	H	0.940214	-0.065365	0.930689
	H371	H	0.943333	-0.045792	0.932087
	O372	O	0.051973	0.125032	0.005338
	H373	H	0.064287	0.136809	0.002613
	H374	H	0.057736	0.133287	0.005776
	O375	O	0.926574	-0.060726	0.015414
	H376	H	0.926444	-0.056030	0.022793
	H377	H	0.913496	-0.064704	0.016945
	O378	O	0.561721	0.596348	0.600779
	H379	H	0.571044	0.587619	0.603761
	H380	H	0.566374	0.595036	0.610857
	O381	O	0.355369	0.502850	0.463943
	H382	H	0.359781	0.490043	0.470302
	H383	H	0.364116	0.492109	0.470329
