data_Molecule from HDF5

_cell_length_a		16.227097
_cell_length_b		16.087264
_cell_length_c		16.203896
_cell_angle_alpha	89.679520
_cell_angle_beta	89.906399
_cell_angle_gamma	89.481820
_symmetry_space_group_name_H-M	'P 1'
_symmetry_Int_Tables_number		1

loop_
	_symmetry_equiv_pos_as_xyz
	x,y,z

loop_
	_atom_site_label
	_atom_site_type_symbol
	_atom_site_fract_x
	_atom_site_fract_y
	_atom_site_fract_z
	H0	H	0.411767	0.840203	0.712962
	H1	H	0.607952	0.170588	0.708536
	H2	H	0.610732	0.839638	0.283715
	H3	H	0.409815	0.170352	0.283027
	H4	H	0.727321	0.406513	0.832627
	H5	H	0.722105	0.603127	0.160945
	H6	H	0.292460	0.610197	0.833429
	H7	H	0.296178	0.406059	0.160644
	H8	H	0.845766	0.718704	0.399211
	H9	H	0.175304	0.714034	0.593411
	H10	H	0.845003	0.291194	0.595639
	H11	H	0.175460	0.289291	0.400154
	H12	H	0.845719	0.404241	0.713594
	H13	H	0.173341	0.602895	0.711793
	H14	H	0.846299	0.605193	0.282570
	H15	H	0.174300	0.401015	0.280839
	H16	H	0.411628	0.720407	0.831901
	H17	H	0.605594	0.716327	0.161515
	H18	H	0.609141	0.293763	0.830807
	H19	H	0.414119	0.292894	0.161509
	H20	H	0.725982	0.839795	0.397062
	H21	H	0.722309	0.170319	0.593859
	H22	H	0.300496	0.837654	0.596176
	H23	H	0.294465	0.169089	0.397197
	H24	H	0.913664	0.339420	0.210246
	H25	H	0.106753	0.670473	0.208996
	H26	H	0.110021	0.338832	0.784980
	H27	H	0.908803	0.670006	0.781185
	H28	H	0.227767	0.902282	0.332676
	H29	H	0.223871	0.101557	0.660370
	H30	H	0.794307	0.107599	0.332135
	H31	H	0.795076	0.903522	0.661070
	H32	H	0.345799	0.222975	0.896391
	H33	H	0.675907	0.215033	0.092232
	H34	H	0.344678	0.794037	0.094864
	H35	H	0.674538	0.790914	0.899346
	H36	H	0.346397	0.905772	0.212498
	H37	H	0.674196	0.103323	0.211065
	H38	H	0.346210	0.107945	0.780329
	H39	H	0.673830	0.904528	0.782542
	H40	H	0.911313	0.220534	0.332030
	H41	H	0.105621	0.214145	0.661698
	H42	H	0.108420	0.792093	0.331151
	H43	H	0.915184	0.791813	0.662121
	H44	H	0.227010	0.341488	0.897611
	H45	H	0.220708	0.671292	0.094714
	H46	H	0.796794	0.340318	0.097726
	H47	H	0.796000	0.671630	0.898008
	H48	H	0.405824	0.125176	0.584895
	H49	H	0.613269	0.882296	0.596263
	H50	H	0.597975	0.124214	0.398817
	H51	H	0.421891	0.884047	0.396445
	H52	H	0.600686	0.414669	0.111801
	H53	H	0.594772	0.588314	0.883688
	H54	H	0.422279	0.601859	0.112909
	H55	H	0.419499	0.414422	0.878875
	H56	H	0.134382	0.610041	0.396357
	H57	H	0.891041	0.594502	0.596843
	H58	H	0.123059	0.416444	0.586097
	H59	H	0.893228	0.418302	0.400667
	H60	H	0.129579	0.411388	0.600015
	H61	H	0.890474	0.605706	0.587925
	H62	H	0.124483	0.595631	0.415096
	H63	H	0.891714	0.408789	0.399860
	H64	H	0.408621	0.604963	0.118223
	H65	H	0.598978	0.612159	0.875386
	H66	H	0.602931	0.405819	0.115740
	H67	H	0.415578	0.415111	0.878489
	H68	H	0.600367	0.121999	0.407972
	H69	H	0.592597	0.887898	0.595852
	H70	H	0.418574	0.124744	0.595879
	H71	H	0.423381	0.888206	0.409001
	H72	H	0.915205	0.622562	0.086501
	H73	H	0.102305	0.388553	0.083195
	H74	H	0.099072	0.622364	0.907322
	H75	H	0.914743	0.384004	0.900369
	H76	H	0.114345	0.914512	0.615983
	H77	H	0.101783	0.098641	0.377881
	H78	H	0.913658	0.096951	0.614763
	H79	H	0.917129	0.912917	0.378194
	H80	H	0.629259	0.088314	0.888159
	H81	H	0.391118	0.101921	0.092257
	H82	H	0.627307	0.909602	0.087558
	H83	H	0.388079	0.914669	0.888148
	H84	H	0.626714	0.913544	0.090527
	H85	H	0.393083	0.100481	0.086611
	H86	H	0.632986	0.113418	0.900749
	H87	H	0.390544	0.900898	0.910525
	H88	H	0.915124	0.093076	0.612485
	H89	H	0.105188	0.095872	0.378066
	H90	H	0.097500	0.911286	0.611424
	H91	H	0.916598	0.911716	0.379398
	H92	H	0.103265	0.624630	0.902380
	H93	H	0.110315	0.384914	0.089985
	H94	H	0.909657	0.626968	0.091677
	H95	H	0.925583	0.388553	0.904652
	H96	H	0.421270	0.119072	0.580374
	H97	H	0.605363	0.889259	0.577933
	H98	H	0.606680	0.125017	0.401242
	H99	H	0.410775	0.882722	0.404664
	H100	H	0.609844	0.411775	0.115077
	H101	H	0.616900	0.595054	0.876030
	H102	H	0.411831	0.591102	0.113210
	H103	H	0.417829	0.417385	0.879188
	H104	H	0.127929	0.586434	0.392148
	H105	H	0.895505	0.593570	0.583578
	H106	H	0.128646	0.401130	0.587631
	H107	H	0.894677	0.412723	0.408327
	H108	H	0.917602	0.625168	0.093766
	H109	H	0.099317	0.386389	0.093571
	H110	H	0.097640	0.623770	0.899777
	H111	H	0.914893	0.387587	0.912256
	H112	H	0.106513	0.898132	0.617725
	H113	H	0.101801	0.094599	0.379763
	H114	H	0.918379	0.097538	0.614206
	H115	H	0.915792	0.912696	0.379050
	H116	H	0.621486	0.091743	0.915182
	H117	H	0.392900	0.096142	0.090206
	H118	H	0.629254	0.908686	0.091098
	H119	H	0.398155	0.926387	0.910556
	C120	C	0.388631	0.013569	0.617062
	C121	C	0.631762	0.995913	0.617855
	C122	C	0.631523	0.014139	0.374648
	C123	C	0.388650	0.994914	0.374745
	C124	C	0.633456	0.382804	0.005411
	C125	C	0.630740	0.626373	0.987479
	C126	C	0.386351	0.628795	0.005899
	C127	C	0.389179	0.385620	0.987557
	C128	C	0.019731	0.626768	0.373619
	C129	C	1.001230	0.625272	0.617838
	C130	C	0.018382	0.381685	0.619658
	C131	C	1.001881	0.383036	0.374941
	C132	C	0.887716	0.514629	0.118878
	C133	C	0.131218	0.496392	0.117282
	C134	C	0.130718	0.514273	0.874923
	C135	C	0.888461	0.496453	0.876319
	C136	C	0.133715	0.880723	0.505787
	C137	C	0.130955	0.124391	0.487390
	C138	C	0.887312	0.126508	0.504896
	C139	C	0.888491	0.882856	0.487875
	C140	C	0.518996	0.128130	0.873062
	C141	C	0.501384	0.126813	0.117604
	C142	C	0.518696	0.882775	0.118594
	C143	C	0.501154	0.884107	0.875099
	C144	C	0.391912	0.889322	0.674203
	C145	C	0.628603	0.120748	0.671568
	C146	C	0.630233	0.889241	0.320903
	C147	C	0.389825	0.120327	0.320045
	C148	C	0.689155	0.385784	0.881647
	C149	C	0.684788	0.623417	0.111676
	C150	C	0.331082	0.628676	0.882194
	C151	C	0.334347	0.386908	0.111600
	C152	C	0.895251	0.681523	0.377953
	C153	C	0.125482	0.678041	0.614481
	C154	C	0.894186	0.328158	0.616284
	C155	C	0.126017	0.327039	0.378809
	C156	C	0.894681	0.384333	0.675244
	C157	C	0.124502	0.622560	0.673416
	C158	C	0.895489	0.624663	0.320039
	C159	C	0.125532	0.382844	0.319573
	C160	C	0.389858	0.684126	0.881734
	C161	C	0.626821	0.679670	0.111974
	C162	C	0.630646	0.329492	0.880757
	C163	C	0.392837	0.330367	0.111926
	C164	C	0.687474	0.889380	0.377312
	C165	C	0.685422	0.120668	0.614426
	C166	C	0.336270	0.888094	0.616059
	C167	C	0.332252	0.119444	0.376715
	C168	C	0.892385	0.389173	0.173102
	C169	C	0.127399	0.621123	0.171734
	C170	C	0.130047	0.389030	0.821443
	C171	C	0.889378	0.620889	0.819648
	C172	C	0.188984	0.883039	0.381622
	C173	C	0.185728	0.121443	0.611636
	C174	C	0.832296	0.126507	0.381437
	C175	C	0.833407	0.884361	0.611925
	C176	C	0.395197	0.184888	0.876077
	C177	C	0.626123	0.179089	0.113546
	C178	C	0.394549	0.830071	0.115466
	C179	C	0.625178	0.828654	0.878533
	C180	C	0.395348	0.885895	0.174389
	C181	C	0.625250	0.123608	0.172861
	C182	C	0.395215	0.127592	0.818274
	C183	C	0.624908	0.885424	0.820452
	C184	C	0.890219	0.183098	0.381487
	C185	C	0.127133	0.177657	0.612171
	C186	C	0.129852	0.827961	0.380980
	C187	C	0.892858	0.828467	0.612501
	C188	C	0.188352	0.390528	0.877388
	C189	C	0.184139	0.621432	0.115000
	C190	C	0.834033	0.389859	0.117250
	C191	C	0.833296	0.621616	0.877755
	C192	C	0.409362	0.100494	0.593900
	C193	C	0.610120	0.909002	0.596491
	C194	C	0.608545	0.101260	0.396255
	C195	C	0.411844	0.907477	0.396704
	C196	C	0.611138	0.404233	0.091807
	C197	C	0.609760	0.604768	0.900801
	C198	C	0.407835	0.606011	0.092348
	C199	C	0.411036	0.408871	0.901186
	C200	C	0.106581	0.604113	0.394952
	C201	C	0.914653	0.604086	0.595904
	C202	C	0.104664	0.403098	0.597751
	C203	C	0.915645	0.406398	0.396586
	C204	C	0.908086	0.602212	0.097035
	C205	C	0.110310	0.409232	0.095282
	C206	C	0.106854	0.601193	0.896656
	C207	C	0.911578	0.409302	0.899134
	C208	C	0.112378	0.901828	0.592556
	C209	C	0.109246	0.102803	0.400995
	C210	C	0.909351	0.102793	0.591454
	C211	C	0.910303	0.905666	0.401289
	C212	C	0.605588	0.104621	0.894821
	C213	C	0.414799	0.105830	0.095967
	C214	C	0.605282	0.904406	0.096425
	C215	C	0.414689	0.907188	0.896570
	Zn216	Zn	0.509777	0.005455	0.745477
	Zn217	Zn	0.510296	0.005026	0.247072
	Zn218	Zn	0.760485	0.505909	-0.003004
	Zn219	Zn	0.259207	0.506905	-0.003326
	Zn220	Zn	0.010945	0.754085	0.496239
	Zn221	Zn	0.009653	0.254130	0.497112
	Zn222	Zn	0.009212	0.504245	0.747304
	Zn223	Zn	0.010507	0.504681	0.245397
	Zn224	Zn	0.509642	0.754966	-0.003185
	Zn225	Zn	0.510708	0.256109	-0.004060
	Zn226	Zn	0.759029	0.004879	0.496118
	Zn227	Zn	0.260645	0.002777	0.496232
	N228	N	0.423860	0.968318	0.675094
	N229	N	0.595684	0.042153	0.673745
	N230	N	0.595894	0.967796	0.319185
	N231	N	0.424119	0.041786	0.318650
	N232	N	0.691009	0.418163	0.960027
	N233	N	0.687543	0.591295	0.033228
	N234	N	0.328566	0.595051	0.960420
	N235	N	0.331558	0.420379	0.033104
	N236	N	0.973608	0.682926	0.410419
	N237	N	0.047686	0.679818	0.580441
	N238	N	0.972165	0.326199	0.582755
	N239	N	0.048000	0.326796	0.412353
	N240	N	0.972920	0.416787	0.677578
	N241	N	0.046249	0.590379	0.675702
	N242	N	0.973850	0.591123	0.317467
	N243	N	0.047464	0.417274	0.317161
	N244	N	0.423612	0.684274	0.959504
	N245	N	0.593759	0.681394	0.033881
	N246	N	0.596780	0.327505	0.958657
	N247	N	0.426115	0.329320	0.033826
	N248	N	0.688349	0.968008	0.410198
	N249	N	0.687457	0.041999	0.581730
	N250	N	0.333944	0.966266	0.581209
	N251	N	0.331607	0.040440	0.410004
	N252	N	0.924803	0.467848	0.174618
	N253	N	0.095204	0.542296	0.173358
	N254	N	0.094777	0.467101	0.819730
	N255	N	0.923127	0.542002	0.818685
	N256	N	0.191609	0.914985	0.460287
	N257	N	0.188414	0.089075	0.533107
	N258	N	0.830232	0.092128	0.459418
	N259	N	0.830392	0.917288	0.533215
	N260	N	0.473354	0.185329	0.909256
	N261	N	0.548071	0.181459	0.080206
	N262	N	0.472303	0.828134	0.081504
	N263	N	0.547130	0.827648	0.911787
	N264	N	0.473674	0.918119	0.176231
	N265	N	0.546692	0.091857	0.175869
	N266	N	0.473293	0.093172	0.816254
	N267	N	0.546829	0.919459	0.818340
	N268	N	0.923720	0.183185	0.459498
	N269	N	0.093711	0.179488	0.534065
	N270	N	0.096038	0.826333	0.459047
	N271	N	0.926244	0.827324	0.534449
	N272	N	0.188830	0.469414	0.909956
	N273	N	0.186461	0.542929	0.081749
	N274	N	0.831131	0.468926	0.084244
	N275	N	0.832689	0.543182	0.912194
	O276	O	0.059008	0.038869	-0.002849
	H277	H	0.057675	0.037382	-0.011525
	H278	H	0.063415	0.031886	0.000978
	O279	O	0.427016	0.457217	0.498036
	H280	H	0.420629	0.444117	0.493039
	H281	H	0.423949	0.455721	0.498321
	O282	O	0.529154	0.578741	0.418367
	H283	H	0.532563	0.577962	0.421445
	H284	H	0.525574	0.585747	0.417521
	O285	O	0.983763	-0.016942	0.984665
	H286	H	0.981237	-0.017622	0.981336
	H287	H	0.990394	-0.019056	0.979335
	O288	O	1.104722	-0.003690	0.008887
	H289	H	1.106026	-0.002110	-0.003434
	H290	H	1.109035	-0.000085	0.012664
	O291	O	0.511911	0.424083	0.451953
	H292	H	0.525731	0.428950	0.444127
	H293	H	0.516853	0.415178	0.440665
	O294	O	1.092921	0.000435	0.989785
	H295	H	1.094575	0.016770	0.994413
	H296	H	1.096778	0.003783	0.990512
	O297	O	-0.086281	0.015082	0.035243
	H298	H	-0.087337	0.013232	0.040471
	H299	H	-0.086056	0.022186	0.047318
	O300	O	0.457285	0.431568	0.548164
	H301	H	0.454066	0.424712	0.534341
	H302	H	0.462640	0.428690	0.547105
	O303	O	0.029189	0.014706	0.003252
	H304	H	0.023898	0.004794	0.015267
	H305	H	0.041188	0.028771	0.005892
	O306	O	0.987124	-0.003796	0.043992
	H307	H	0.982397	-0.016047	0.051280
	H308	H	0.984658	0.001316	0.043233
	O309	O	0.028681	0.004729	0.979117
	H310	H	0.026607	-0.001222	0.979761
	H311	H	0.032941	0.002664	0.985226
	O312	O	0.984406	1.036236	1.038901
	H313	H	0.981883	1.035919	1.031992
	H314	H	0.979655	1.047110	1.039723
	O315	O	0.533204	0.506558	0.386056
	H316	H	0.528601	0.497127	0.387993
	H317	H	0.541397	0.515495	0.391546
	O318	O	0.534718	0.462660	0.524346
	H319	H	0.536915	0.463631	0.535569
	H320	H	0.533497	0.466480	0.535466
	O321	O	0.028582	1.060194	1.013348
	H322	H	0.017785	1.059020	1.018141
	H323	H	0.039164	1.064335	1.011121
	O324	O	0.584064	0.421413	0.419154
	H325	H	0.588315	0.420862	0.424086
	H326	H	0.582648	0.421014	0.421151
	O327	O	0.484296	0.456300	0.509292
	H328	H	0.469313	0.460174	0.516581
	H329	H	0.484232	0.464252	0.503366
	O330	O	0.567317	0.526203	0.580492
	H331	H	0.559710	0.532358	0.586497
	H332	H	0.577286	0.528886	0.583901
	O333	O	0.560061	0.508936	0.421937
	H334	H	0.555033	0.511879	0.412916
	H335	H	0.570916	0.500573	0.424773
	O336	O	0.531296	0.583579	0.478712
	H337	H	0.521300	0.587810	0.478114
	H338	H	0.535784	0.579756	0.477783
	O339	O	1.031925	0.989107	-0.042145
	H340	H	1.026307	0.988510	-0.054215
	H341	H	1.019892	0.996604	-0.040664
	O342	O	0.414746	0.585703	0.505138
	H343	H	0.418193	0.584636	0.510411
	H344	H	0.417578	0.588208	0.514444
	O345	O	0.581272	0.540354	0.543577
	H346	H	0.583472	0.546473	0.543478
	H347	H	0.588048	0.539350	0.536270
	O348	O	-0.006426	-0.014780	-0.025269
	H349	H	-0.003718	-0.018679	-0.020597
	H350	H	-0.009897	-0.013736	-0.025457
	O351	O	-0.525229	1.485984	1.625934
	H352	H	-0.526644	1.486069	1.628831
	H353	H	-0.535818	1.481978	1.624991
	O354	O	0.444794	0.431483	0.591555
	H355	H	0.441468	0.423910	0.585309
	H356	H	0.453563	0.432559	0.591704
	O357	O	-0.037497	1.055570	0.955318
	H358	H	-0.033303	1.054497	0.940441
	H359	H	-0.035195	1.054422	0.952672
