data_Molecule from HDF5

_cell_length_a		16.044208
_cell_length_b		16.272302
_cell_length_c		16.173008
_cell_angle_alpha	88.562883
_cell_angle_beta	89.625583
_cell_angle_gamma	91.563870
_symmetry_space_group_name_H-M	'P 1'
_symmetry_Int_Tables_number		1

loop_
	_symmetry_equiv_pos_as_xyz
	x,y,z

loop_
	_atom_site_label
	_atom_site_type_symbol
	_atom_site_fract_x
	_atom_site_fract_y
	_atom_site_fract_z
	H0	H	0.388337	0.840914	0.721969
	H1	H	0.599440	0.168394	0.705394
	H2	H	0.592223	0.837924	0.286529
	H3	H	0.402200	0.166050	0.276431
	H4	H	0.707276	0.416933	0.828821
	H5	H	0.717487	0.601015	0.159536
	H6	H	0.293307	0.600458	0.829385
	H7	H	0.281322	0.396367	0.160446
	H8	H	0.829746	0.713657	0.394368
	H9	H	0.162244	0.722798	0.590812
	H10	H	0.834621	0.280112	0.603846
	H11	H	0.164996	0.298361	0.398097
	H12	H	0.832524	0.396920	0.712055
	H13	H	0.165405	0.602541	0.702498
	H14	H	0.832676	0.601714	0.278021
	H15	H	0.164841	0.415715	0.286061
	H16	H	0.405163	0.721654	0.832937
	H17	H	0.602918	0.715983	0.162146
	H18	H	0.597926	0.296946	0.831255
	H19	H	0.390619	0.278716	0.158608
	H20	H	0.704554	0.836941	0.404359
	H21	H	0.717055	0.165287	0.591247
	H22	H	0.275326	0.840273	0.602776
	H23	H	0.292226	0.169551	0.397351
	H24	H	0.891092	0.341567	0.218887
	H25	H	0.103524	0.668931	0.203387
	H26	H	0.094248	0.337458	0.784485
	H27	H	0.906652	0.665103	0.775904
	H28	H	0.208690	0.915320	0.332350
	H29	H	0.211322	0.099821	0.663296
	H30	H	0.790220	0.098955	0.330913
	H31	H	0.779847	0.895660	0.662377
	H32	H	0.331956	0.217313	0.895302
	H33	H	0.662671	0.222299	0.094123
	H34	H	0.334868	0.776751	0.105844
	H35	H	0.665098	0.801819	0.899896
	H36	H	0.331694	0.896214	0.214699
	H37	H	0.664044	0.103377	0.206599
	H38	H	0.331181	0.101361	0.782579
	H39	H	0.662622	0.914603	0.786044
	H40	H	0.900386	0.221332	0.333561
	H41	H	0.099881	0.216794	0.662537
	H42	H	0.093772	0.800018	0.330245
	H43	H	0.887760	0.775462	0.657747
	H44	H	0.206244	0.336225	0.903652
	H45	H	0.217787	0.666913	0.086671
	H46	H	0.778693	0.339768	0.097666
	H47	H	0.794243	0.668334	0.892267
	H48	H	0.397701	0.119773	0.574593
	H49	H	0.585059	0.887405	0.588876
	H50	H	0.598889	0.122395	0.395767
	H51	H	0.398590	0.885179	0.404723
	H52	H	0.597433	0.407223	0.117342
	H53	H	0.587944	0.618999	0.876055
	H54	H	0.410109	0.587810	0.113323
	H55	H	0.400753	0.408868	0.875598
	H56	H	0.118464	0.603152	0.392830
	H57	H	0.879109	0.595075	0.579106
	H58	H	0.120840	0.400080	0.584579
	H59	H	0.878078	0.406561	0.410006
	H60	H	0.114406	0.421555	0.583926
	H61	H	0.882431	0.578719	0.585665
	H62	H	0.118347	0.614136	0.401355
	H63	H	0.881335	0.413169	0.409589
	H64	H	0.407678	0.593429	0.116094
	H65	H	0.610626	0.607975	0.872815
	H66	H	0.585473	0.420644	0.110658
	H67	H	0.405035	0.414300	0.878593
	H68	H	0.587736	0.117644	0.398716
	H69	H	0.590210	0.881597	0.601225
	H70	H	0.399148	0.128155	0.604989
	H71	H	0.402288	0.886939	0.410008
	H72	H	0.912396	0.622145	0.090332
	H73	H	0.090561	0.384485	0.092113
	H74	H	0.094903	0.616734	0.902790
	H75	H	0.893080	0.381842	0.903766
	H76	H	0.074871	0.908730	0.612584
	H77	H	0.090622	0.099788	0.381482
	H78	H	0.905115	0.095331	0.616417
	H79	H	0.890541	0.915352	0.376754
	H80	H	0.619302	0.114865	0.904167
	H81	H	0.374949	0.088134	0.099800
	H82	H	0.617572	0.908840	0.089852
	H83	H	0.378651	0.911993	0.910587
	H84	H	0.617706	0.914898	0.094211
	H85	H	0.377647	0.101424	0.082095
	H86	H	0.612218	0.096893	0.909728
	H87	H	0.376306	0.906805	0.909007
	H88	H	0.903195	0.087932	0.616225
	H89	H	0.091261	0.110093	0.378170
	H90	H	0.087321	0.900356	0.617782
	H91	H	0.909688	0.915478	0.381407
	H92	H	0.106209	0.622456	0.896375
	H93	H	0.088276	0.383584	0.099418
	H94	H	0.913203	0.619491	0.081716
	H95	H	0.904835	0.383690	0.899509
	H96	H	0.424411	0.115631	0.590487
	H97	H	0.576243	0.886214	0.599811
	H98	H	0.597222	0.117982	0.405784
	H99	H	0.396223	0.885463	0.410023
	H100	H	0.579919	0.402434	0.113674
	H101	H	0.591592	0.595466	0.882723
	H102	H	0.404308	0.588574	0.115826
	H103	H	0.407747	0.407839	0.876846
	H104	H	0.114027	0.601230	0.405186
	H105	H	0.874366	0.592117	0.596254
	H106	H	0.122261	0.412482	0.603294
	H107	H	0.878269	0.409124	0.405064
	H108	H	0.905673	0.622251	0.085806
	H109	H	0.083004	0.387374	0.094057
	H110	H	0.095088	0.620555	0.889808
	H111	H	0.901821	0.386286	0.911634
	H112	H	0.089038	0.915825	0.615239
	H113	H	0.100422	0.102775	0.377212
	H114	H	0.910207	0.090169	0.614468
	H115	H	0.901374	0.899474	0.374432
	H116	H	0.618417	0.100625	0.891024
	H117	H	0.384289	0.079533	0.081275
	H118	H	0.619779	0.909582	0.097295
	H119	H	0.378597	0.907581	0.914599
	C120	C	0.373619	0.013087	0.621675
	C121	C	0.617240	0.993521	0.620825
	C122	C	0.619207	0.010589	0.375315
	C123	C	0.374919	0.994525	0.376594
	C124	C	0.616826	0.385846	0.004288
	C125	C	0.624853	0.630832	0.986969
	C126	C	0.380629	0.621638	0.005720
	C127	C	0.374427	0.378654	0.986324
	C128	C	0.006595	0.629795	0.371356
	C129	C	0.988649	0.621550	0.614187
	C130	C	0.008620	0.379577	0.620510
	C131	C	0.989514	0.384866	0.378445
	C132	C	0.876915	0.513140	0.117745
	C133	C	0.120461	0.494139	0.118713
	C134	C	0.122608	0.510585	0.872041
	C135	C	0.877047	0.493167	0.873950
	C136	C	0.114127	0.884758	0.505634
	C137	C	0.121882	0.129106	0.488652
	C138	C	0.878288	0.121823	0.506508
	C139	C	0.871174	0.878001	0.486844
	C140	C	0.506594	0.129282	0.873187
	C141	C	0.488736	0.121965	0.116088
	C142	C	0.508089	0.878375	0.123175
	C143	C	0.488278	0.885007	0.881163
	C144	C	0.370632	0.889690	0.681567
	C145	C	0.618794	0.118261	0.670343
	C146	C	0.612993	0.886958	0.323525
	C147	C	0.381269	0.117748	0.316889
	C148	C	0.670885	0.393997	0.879077
	C149	C	0.679692	0.623086	0.111029
	C150	C	0.328904	0.620837	0.879733
	C151	C	0.318846	0.377610	0.110881
	C152	C	0.880388	0.678880	0.373545
	C153	C	0.113297	0.682320	0.610822
	C154	C	0.884200	0.319510	0.621739
	C155	C	0.114776	0.334182	0.379081
	C156	C	0.883081	0.377882	0.675781
	C157	C	0.114734	0.622566	0.666385
	C158	C	0.881920	0.623225	0.315661
	C159	C	0.114881	0.392724	0.323091
	C160	C	0.384187	0.681238	0.881626
	C161	C	0.622727	0.680411	0.112042
	C162	C	0.616329	0.334030	0.880184
	C163	C	0.373355	0.318958	0.109894
	C164	C	0.669082	0.886188	0.382161
	C165	C	0.677263	0.116677	0.613576
	C166	C	0.313952	0.889509	0.622635
	C167	C	0.326448	0.119468	0.377267
	C168	C	0.873400	0.389946	0.177864
	C169	C	0.122133	0.618878	0.167894
	C170	C	0.116023	0.386544	0.820924
	C171	C	0.884627	0.616567	0.814857
	C172	C	0.170500	0.892698	0.381282
	C173	C	0.175182	0.122377	0.613550
	C174	C	0.825406	0.120536	0.381239
	C175	C	0.816022	0.876245	0.611795
	C176	C	0.381593	0.180535	0.875903
	C177	C	0.613256	0.182164	0.114115
	C178	C	0.383927	0.817353	0.123844
	C179	C	0.614470	0.836854	0.881335
	C180	C	0.382236	0.876999	0.177959
	C181	C	0.614185	0.122699	0.169602
	C182	C	0.381121	0.122935	0.819597
	C183	C	0.613384	0.892860	0.824586
	C184	C	0.880680	0.181109	0.382496
	C185	C	0.119554	0.180593	0.612968
	C186	C	0.113471	0.835375	0.380298
	C187	C	0.869691	0.816462	0.609651
	C188	C	0.171802	0.385919	0.880247
	C189	C	0.179284	0.617837	0.109851
	C190	C	0.817522	0.389213	0.117865
	C191	C	0.828987	0.618360	0.873261
	C192	C	0.399484	0.099005	0.597200
	C193	C	0.591354	0.907502	0.602394
	C194	C	0.600324	0.096974	0.394332
	C195	C	0.393432	0.908363	0.401133
	C196	C	0.594205	0.404463	0.091372
	C197	C	0.603164	0.613029	0.899752
	C198	C	0.401330	0.597175	0.092340
	C199	C	0.397484	0.403252	0.899516
	C200	C	0.094112	0.611610	0.393222
	C201	C	0.901186	0.596120	0.592991
	C202	C	0.096370	0.404162	0.597298
	C203	C	0.901891	0.404007	0.401365
	C204	C	0.902896	0.598955	0.093111
	C205	C	0.094923	0.407524	0.100724
	C206	C	0.104241	0.597299	0.890506
	C207	C	0.894654	0.406470	0.897942
	C208	C	0.090755	0.902920	0.592694
	C209	C	0.100418	0.110072	0.401448
	C210	C	0.899838	0.097913	0.593280
	C211	C	0.893806	0.902819	0.399961
	C212	C	0.594168	0.109959	0.894995
	C213	C	0.401512	0.097022	0.094141
	C214	C	0.595662	0.903448	0.100427
	C215	C	0.400301	0.903452	0.904626
	Zn216	Zn	0.495818	0.004163	0.750413
	Zn217	Zn	0.497260	0.001987	0.246622
	Zn218	Zn	0.748660	0.505496	-0.005071
	Zn219	Zn	0.249693	0.500806	-0.004445
	Zn220	Zn	-0.005212	0.753817	0.494346
	Zn221	Zn	-0.000724	0.254764	0.498488
	Zn222	Zn	-0.000908	0.500999	0.744737
	Zn223	Zn	-0.001785	0.505481	0.247546
	Zn224	Zn	0.500389	0.754740	-0.000957
	Zn225	Zn	0.497170	0.253776	-0.004309
	Zn226	Zn	0.746876	0.000389	0.497822
	Zn227	Zn	0.245850	0.004718	0.498596
	N228	N	0.406990	0.967519	0.681173
	N229	N	0.582003	0.040739	0.675075
	N230	N	0.582724	0.965247	0.319070
	N231	N	0.410398	0.039128	0.316098
	N232	N	0.671287	0.425539	0.957310
	N233	N	0.681621	0.593274	0.032239
	N234	N	0.326349	0.584490	0.957783
	N235	N	0.319418	0.414120	0.033041
	N236	N	0.958736	0.683223	0.407388
	N237	N	0.033510	0.681768	0.578977
	N238	N	0.963176	0.320516	0.587771
	N239	N	0.035620	0.329360	0.412879
	N240	N	0.961663	0.414610	0.675117
	N241	N	0.036573	0.585480	0.668315
	N242	N	0.961407	0.593213	0.314291
	N243	N	0.035893	0.423471	0.322460
	N244	N	0.415640	0.681698	0.960704
	N245	N	0.589590	0.685580	0.033762
	N246	N	0.583222	0.328736	0.959130
	N247	N	0.407289	0.319480	0.031418
	N248	N	0.673467	0.964049	0.413562
	N249	N	0.676510	0.038271	0.583377
	N250	N	0.315910	0.966974	0.586050
	N251	N	0.322293	0.041987	0.413862
	N252	N	0.909593	0.467927	0.178012
	N253	N	0.086119	0.541004	0.173475
	N254	N	0.086030	0.464917	0.815891
	N255	N	0.913592	0.537824	0.815115
	N256	N	0.171044	0.922709	0.460265
	N257	N	0.176735	0.090811	0.535265
	N258	N	0.823844	0.084157	0.459374
	N259	N	0.817096	0.914074	0.534573
	N260	N	0.460657	0.184515	0.908482
	N261	N	0.534116	0.181671	0.081375
	N262	N	0.463248	0.818101	0.090465
	N263	N	0.535633	0.831948	0.916133
	N264	N	0.460484	0.914320	0.177652
	N265	N	0.535653	0.086031	0.170933
	N266	N	0.459922	0.091719	0.817797
	N267	N	0.533841	0.922233	0.824238
	N268	N	0.912593	0.182199	0.461291
	N269	N	0.087016	0.184743	0.534299
	N270	N	0.078795	0.830423	0.458533
	N271	N	0.903350	0.817314	0.530992
	N272	N	0.176401	0.464076	0.911264
	N273	N	0.178539	0.539148	0.080135
	N274	N	0.819489	0.466780	0.081276
	N275	N	0.823805	0.540675	0.909236
	O276	O	0.072629	-0.106733	0.023082
	H277	H	0.069320	-0.116754	0.020996
	H278	H	0.064088	-0.106152	0.009906
	O279	O	0.465052	0.448912	0.375564
	H280	H	0.457761	0.458443	0.381613
	H281	H	0.460535	0.464427	0.369811
	O282	O	0.515910	0.601679	0.581453
	H283	H	0.520539	0.596544	0.576004
	H284	H	0.514665	0.593942	0.603185
	O285	O	-0.079636	1.055081	0.996316
	H286	H	-0.084040	1.066713	0.998044
	H287	H	-0.086155	1.056961	0.977847
	O288	O	0.564927	0.454191	0.425930
	H289	H	0.552165	0.444829	0.419399
	H290	H	0.557229	0.443303	0.417981
	O291	O	1.082090	1.071779	1.040501
	H292	H	1.079068	1.070318	1.042272
	H293	H	1.082212	1.071059	1.045586
	O294	O	1.064584	0.972972	0.921882
	H295	H	1.047907	0.975202	0.922805
	H296	H	1.079386	0.971961	0.923169
	O297	O	1.075297	-0.057287	1.102465
	H298	H	1.061452	-0.072759	1.105911
	H299	H	1.073296	-0.049252	1.087464
	O300	O	0.439781	0.404415	0.540876
	H301	H	0.429652	0.399034	0.552585
	H302	H	0.451909	0.402143	0.559222
	O303	O	0.917722	-0.078728	0.088455
	H304	H	0.909698	-0.075066	0.102536
	H305	H	0.926721	-0.065497	0.090261
	O306	O	-0.061975	0.931291	1.003718
	H307	H	-0.075558	0.924302	1.005970
	H308	H	-0.060058	0.937146	1.014899
	O309	O	0.563083	0.608204	0.539074
	H310	H	0.561631	0.608911	0.536427
	H311	H	0.562741	0.618532	0.528482
	O312	O	0.996791	0.081875	0.961210
	H313	H	0.993985	0.069630	0.954297
	H314	H	1.001095	0.078239	0.955197
	O315	O	0.443151	0.465244	0.537549
	H316	H	0.459760	0.470664	0.529442
	H317	H	0.452245	0.453818	0.554161
	O318	O	0.601198	0.422910	0.447476
	H319	H	0.602537	0.417425	0.446791
	H320	H	0.586153	0.423668	0.450916
	O321	O	0.876822	0.982028	0.997515
	H322	H	0.872504	0.995483	0.997607
	H323	H	0.882453	0.977454	1.006523
	O324	O	0.533173	0.453323	0.464021
	H325	H	0.524629	0.467473	0.465441
	H326	H	0.529247	0.453158	0.474273
	O327	O	0.454212	0.403233	0.516023
	H328	H	0.462269	0.412418	0.527943
	H329	H	0.457073	0.400744	0.523015
	O330	O	1.064453	-0.057621	0.914049
	H331	H	1.064997	-0.052404	0.919269
	H332	H	1.056684	-0.059760	0.914119
	O333	O	1.044218	0.986481	0.027203
	H334	H	1.045749	0.977112	0.032232
	H335	H	1.040572	0.980801	0.038503
	O336	O	0.478118	0.497834	0.408928
	H337	H	0.482158	0.494306	0.410038
	H338	H	0.469826	0.500768	0.397388
	O339	O	0.546761	0.511729	0.538408
	H340	H	0.547822	0.506183	0.532722
	H341	H	0.560698	0.509551	0.535231
	O342	O	0.025797	1.055594	0.062052
	H343	H	0.028456	1.045400	0.062497
	H344	H	0.028666	1.050098	0.064444
	O345	O	-0.022507	0.019836	0.015989
	H346	H	-0.006988	0.025776	0.023225
	H347	H	-0.020742	0.016996	0.009848
	O348	O	0.389066	0.596583	0.494943
	H349	H	0.386682	0.595793	0.496378
	H350	H	0.387121	0.595937	0.491326
	O351	O	0.515277	0.647159	0.499710
	H352	H	0.507372	0.652708	0.498153
	H353	H	0.530302	0.644323	0.484763
	O354	O	0.443408	0.479422	0.376254
	H355	H	0.432822	0.492188	0.387107
	H356	H	0.449659	0.484921	0.374076
	O357	O	0.540650	0.460935	0.532099
	H358	H	0.535570	0.441024	0.532757
	H359	H	0.526543	0.455512	0.535351
	O360	O	-0.096283	0.037154	-0.026824
	H361	H	-0.091750	0.035697	-0.024226
	H362	H	-0.087808	0.040657	-0.024698
	O363	O	0.471914	0.544351	0.456958
	H364	H	0.466985	0.551618	0.449197
	H365	H	0.490857	0.532647	0.447636
	O366	O	-0.104600	-0.062880	0.994555
	H367	H	-0.111605	-0.054597	0.997449
	H368	H	-0.100403	-0.065961	0.993920
	O369	O	0.482656	0.477655	0.489271
	H370	H	0.478343	0.482582	0.479737
	H371	H	0.483501	0.472776	0.484756
