data_Molecule from HDF5

_cell_length_a		16.321208
_cell_length_b		16.403332
_cell_length_c		16.511016
_cell_angle_alpha	89.985420
_cell_angle_beta	90.113545
_cell_angle_gamma	90.094600
_symmetry_space_group_name_H-M	'P 1'
_symmetry_Int_Tables_number		1

loop_
	_symmetry_equiv_pos_as_xyz
	x,y,z

loop_
	_atom_site_label
	_atom_site_type_symbol
	_atom_site_fract_x
	_atom_site_fract_y
	_atom_site_fract_z
	H0	H	0.396122	0.847308	0.736820
	H1	H	0.615569	0.161488	0.733653
	H2	H	0.618880	0.847592	0.284654
	H3	H	0.399637	0.160025	0.286145
	H4	H	0.733477	0.392872	0.856093
	H5	H	0.731162	0.609201	0.168185
	H6	H	0.282948	0.608530	0.854019
	H7	H	0.285888	0.396154	0.169059
	H8	H	0.847586	0.723121	0.407081
	H9	H	0.166262	0.724847	0.619062
	H10	H	0.848622	0.281613	0.616679
	H11	H	0.164497	0.279614	0.402416
	H12	H	0.849967	0.393733	0.735155
	H13	H	0.163905	0.613692	0.737766
	H14	H	0.850366	0.612798	0.287113
	H15	H	0.165173	0.395260	0.288176
	H16	H	0.398187	0.726125	0.853242
	H17	H	0.618407	0.729540	0.166267
	H18	H	0.617168	0.278010	0.855473
	H19	H	0.399974	0.277300	0.167817
	H20	H	0.729273	0.844914	0.406221
	H21	H	0.729883	0.161950	0.616946
	H22	H	0.283021	0.845624	0.618087
	H23	H	0.286737	0.162320	0.405204
	H24	H	0.894540	0.348515	0.240449
	H25	H	0.119326	0.660085	0.237519
	H26	H	0.117788	0.348831	0.785238
	H27	H	0.893907	0.658203	0.783503
	H28	H	0.229895	0.895649	0.354088
	H29	H	0.231064	0.111097	0.666442
	H30	H	0.782849	0.110217	0.354495
	H31	H	0.783722	0.896025	0.667591
	H32	H	0.351018	0.225578	0.905034
	H33	H	0.666582	0.226730	0.120549
	H34	H	0.350100	0.777182	0.119333
	H35	H	0.665149	0.778386	0.901636
	H36	H	0.350758	0.892468	0.235138
	H37	H	0.664805	0.113745	0.237187
	H38	H	0.350978	0.111258	0.787996
	H39	H	0.664893	0.892350	0.784831
	H40	H	0.896013	0.229471	0.354845
	H41	H	0.115738	0.228796	0.666123
	H42	H	0.115897	0.778034	0.354915
	H43	H	0.898725	0.778674	0.667804
	H44	H	0.228108	0.344728	0.907540
	H45	H	0.234886	0.659517	0.121369
	H46	H	0.782699	0.345719	0.121676
	H47	H	0.780923	0.659232	0.901695
	H48	H	0.428475	0.110249	0.591897
	H49	H	0.597706	0.888073	0.603535
	H50	H	0.589867	0.113116	0.425215
	H51	H	0.420586	0.891639	0.424597
	H52	H	0.594256	0.404805	0.127474
	H53	H	0.596300	0.593362	0.898452
	H54	H	0.422296	0.585162	0.119483
	H55	H	0.421818	0.409620	0.898720
	H56	H	0.121140	0.591617	0.422060
	H57	H	0.897054	0.587868	0.592885
	H58	H	0.123650	0.413448	0.601763
	H59	H	0.894690	0.416045	0.425670
	H60	H	0.117821	0.416606	0.591681
	H61	H	0.893308	0.585700	0.605307
	H62	H	0.121450	0.592549	0.425793
	H63	H	0.895182	0.420265	0.425415
	H64	H	0.427002	0.593739	0.121879
	H65	H	0.595623	0.584101	0.900636
	H66	H	0.603876	0.420022	0.124892
	H67	H	0.415031	0.413633	0.898126
	H68	H	0.599209	0.116975	0.425173
	H69	H	0.586355	0.892839	0.599763
	H70	H	0.407847	0.119052	0.595774
	H71	H	0.418921	0.890142	0.422571
	H72	H	0.919062	0.615574	0.100491
	H73	H	0.092145	0.391168	0.102578
	H74	H	0.096235	0.617541	0.923046
	H75	H	0.928449	0.394738	0.926804
	H76	H	0.095141	0.916895	0.622659
	H77	H	0.091559	0.095823	0.397618
	H78	H	0.926047	0.094962	0.621191
	H79	H	0.917345	0.914761	0.397883
	H80	H	0.623662	0.093004	0.924109
	H81	H	0.396523	0.088495	0.096292
	H82	H	0.619879	0.916491	0.096501
	H83	H	0.396232	0.917775	0.924771
	H84	H	0.619745	0.917560	0.096373
	H85	H	0.395826	0.087932	0.098771
	H86	H	0.620778	0.086878	0.924147
	H87	H	0.394965	0.916850	0.922017
	H88	H	0.916041	0.094049	0.625258
	H89	H	0.099311	0.092390	0.396437
	H90	H	0.093828	0.913777	0.623122
	H91	H	0.919644	0.915616	0.399887
	H92	H	0.089703	0.615297	0.924182
	H93	H	0.095919	0.391788	0.098252
	H94	H	0.927068	0.614268	0.100113
	H95	H	0.915480	0.390142	0.927921
	H96	H	0.423459	0.119540	0.611764
	H97	H	0.596336	0.892236	0.592248
	H98	H	0.593547	0.117867	0.417423
	H99	H	0.421678	0.891028	0.421952
	H100	H	0.586835	0.418987	0.119433
	H101	H	0.588246	0.589535	0.901352
	H102	H	0.417385	0.592501	0.124744
	H103	H	0.421290	0.416503	0.901284
	H104	H	0.120270	0.588757	0.425043
	H105	H	0.891283	0.597386	0.599913
	H106	H	0.119159	0.424608	0.600705
	H107	H	0.893063	0.418535	0.421584
	H108	H	0.922234	0.612610	0.093699
	H109	H	0.097590	0.388625	0.103228
	H110	H	0.094487	0.615106	0.929004
	H111	H	0.922158	0.388150	0.916402
	H112	H	0.097223	0.914473	0.623906
	H113	H	0.092976	0.087447	0.400486
	H114	H	0.920318	0.086321	0.620278
	H115	H	0.919550	0.913149	0.398582
	H116	H	0.623171	0.089217	0.918173
	H117	H	0.394663	0.090439	0.098265
	H118	H	0.619903	0.917398	0.097628
	H119	H	0.395327	0.914999	0.923790
	C120	C	0.385254	0.012140	0.633174
	C121	C	0.627766	0.995444	0.631679
	C122	C	0.628683	0.012026	0.389272
	C123	C	0.386813	0.994945	0.389618
	C124	C	0.630084	0.380346	0.020801
	C125	C	0.628734	0.624045	1.002811
	C126	C	0.386837	0.624340	0.018831
	C127	C	0.386319	0.380203	1.003258
	C128	C	0.016190	0.624399	0.390621
	C129	C	0.998095	0.624921	0.633712
	C130	C	0.015829	0.383129	0.631940
	C131	C	0.998428	0.383239	0.389890
	C132	C	0.887329	0.511144	0.132747
	C133	C	0.130196	0.494351	0.134810
	C134	C	0.127336	0.511809	0.891998
	C135	C	0.885878	0.494223	0.889226
	C136	C	0.129093	0.881144	0.519877
	C137	C	0.128615	0.125802	0.501132
	C138	C	0.885671	0.125262	0.519249
	C139	C	0.885550	0.881372	0.502590
	C140	C	0.517866	0.123865	0.889354
	C141	C	0.499876	0.123580	0.131959
	C142	C	0.516235	0.881729	0.131523
	C143	C	0.499036	0.881518	0.888655
	C144	C	0.379881	0.894362	0.695480
	C145	C	0.632713	0.113943	0.693319
	C146	C	0.634789	0.894077	0.326683
	C147	C	0.382841	0.113294	0.327727
	C148	C	0.692850	0.375514	0.903243
	C149	C	0.691240	0.628132	0.120529
	C150	C	0.323672	0.627165	0.901124
	C151	C	0.325437	0.377383	0.121510
	C152	C	0.896141	0.684373	0.388114
	C153	C	0.117728	0.685751	0.637151
	C154	C	0.896690	0.321527	0.635083
	C155	C	0.116921	0.320225	0.385208
	C156	C	0.897435	0.377597	0.694236
	C157	C	0.116628	0.630480	0.696548
	C158	C	0.897652	0.629790	0.327963
	C159	C	0.117256	0.377901	0.328087
	C160	C	0.381215	0.685714	0.900679
	C161	C	0.634651	0.687767	0.119608
	C162	C	0.634702	0.318131	0.903018
	C163	C	0.382469	0.318316	0.120909
	C164	C	0.689951	0.892928	0.387044
	C165	C	0.689335	0.114505	0.634711
	C166	C	0.323293	0.893600	0.636097
	C167	C	0.326477	0.114479	0.387042
	C168	C	0.879579	0.394682	0.197727
	C169	C	0.135888	0.612577	0.196967
	C170	C	0.133568	0.394789	0.827976
	C171	C	0.878647	0.611457	0.825671
	C172	C	0.190091	0.877663	0.401431
	C173	C	0.190618	0.129340	0.619296
	C174	C	0.823306	0.128655	0.401506
	C175	C	0.824014	0.877858	0.620538
	C176	C	0.398549	0.185230	0.886768
	C177	C	0.618893	0.185962	0.137200
	C178	C	0.397714	0.818448	0.136393
	C179	C	0.617786	0.819273	0.884168
	C180	C	0.398128	0.875667	0.194463
	C181	C	0.618012	0.129364	0.195413
	C182	C	0.398467	0.128282	0.828625
	C183	C	0.617383	0.876028	0.825771
	C184	C	0.879824	0.187976	0.401805
	C185	C	0.133075	0.187886	0.619014
	C186	C	0.133062	0.818965	0.402101
	C187	C	0.881724	0.819640	0.620559
	C188	C	0.188565	0.392889	0.888715
	C189	C	0.193864	0.612278	0.139226
	C190	C	0.823739	0.393184	0.138188
	C191	C	0.821794	0.611757	0.884514
	C192	C	0.412194	0.094702	0.607255
	C193	C	0.601107	0.912678	0.605834
	C194	C	0.601813	0.094442	0.415062
	C195	C	0.412935	0.912510	0.415394
	C196	C	0.602917	0.406914	0.102450
	C197	C	0.601356	0.596729	0.921532
	C198	C	0.414279	0.598111	0.100658
	C199	C	0.411859	0.406039	0.920937
	C200	C	0.099271	0.598400	0.416792
	C201	C	0.915329	0.597905	0.607068
	C202	C	0.098584	0.410561	0.605559
	C203	C	0.916042	0.410668	0.416515
	C204	C	0.915043	0.592741	0.105751
	C205	C	0.103066	0.412061	0.108807
	C206	C	0.100955	0.594389	0.918097
	C207	C	0.913912	0.412490	0.916039
	C208	C	0.102802	0.907367	0.601720
	C209	C	0.102391	0.099542	0.419573
	C210	C	0.913055	0.099210	0.600929
	C211	C	0.911471	0.907207	0.420335
	C212	C	0.600858	0.097389	0.914915
	C213	C	0.417427	0.096687	0.105372
	C214	C	0.598361	0.909113	0.104543
	C215	C	0.416843	0.908688	0.915775
	Zn216	Zn	0.508291	0.003480	0.761275
	Zn217	Zn	0.507933	0.002733	0.260432
	Zn218	Zn	0.758272	0.501934	0.011977
	Zn219	Zn	0.257680	0.502664	0.011502
	Zn220	Zn	0.007181	0.752241	0.511630
	Zn221	Zn	0.006562	0.254942	0.510514
	Zn222	Zn	0.007670	0.503623	0.760953
	Zn223	Zn	0.007509	0.504257	0.262444
	Zn224	Zn	0.507721	0.753657	0.009869
	Zn225	Zn	0.508825	0.251499	0.011600
	Zn226	Zn	0.756789	0.003806	0.511362
	Zn227	Zn	0.257531	0.003212	0.509657
	N228	N	0.417589	0.969221	0.693755
	N229	N	0.595209	0.038731	0.691572
	N230	N	0.597235	0.968967	0.328252
	N231	N	0.419466	0.037957	0.329112
	N232	N	0.690247	0.413117	0.977565
	N233	N	0.687931	0.589463	0.046709
	N234	N	0.326820	0.590134	0.975876
	N235	N	0.327900	0.415283	0.047339
	N236	N	0.971058	0.681276	0.426109
	N237	N	0.042926	0.682373	0.598743
	N238	N	0.971499	0.324802	0.597225
	N239	N	0.041870	0.323184	0.422684
	N240	N	0.972754	0.415280	0.692324
	N241	N	0.040926	0.593648	0.694735
	N242	N	0.973434	0.593383	0.329295
	N243	N	0.042483	0.416217	0.330773
	N244	N	0.419346	0.684185	0.974987
	N245	N	0.596745	0.685475	0.045286
	N246	N	0.596742	0.320546	0.977317
	N247	N	0.419467	0.319705	0.046197
	N248	N	0.686331	0.967303	0.425154
	N249	N	0.686224	0.039766	0.597113
	N250	N	0.326212	0.968225	0.598285
	N251	N	0.328957	0.039860	0.424813
	N252	N	0.918608	0.468906	0.194383
	N253	N	0.097069	0.538102	0.194294
	N254	N	0.096024	0.469662	0.830074
	N255	N	0.917425	0.537270	0.828226
	N256	N	0.188108	0.915267	0.475813
	N257	N	0.188140	0.091353	0.545170
	N258	N	0.826912	0.090350	0.475422
	N259	N	0.826284	0.915658	0.546294
	N260	N	0.473853	0.182606	0.923879
	N261	N	0.544677	0.182190	0.098067
	N262	N	0.472148	0.822215	0.097775
	N263	N	0.543062	0.822446	0.922398
	N264	N	0.472917	0.914210	0.191716
	N265	N	0.543020	0.091045	0.192198
	N266	N	0.473741	0.090990	0.830219
	N267	N	0.542327	0.913863	0.828256
	N268	N	0.917905	0.186093	0.475982
	N269	N	0.095522	0.186135	0.544546
	N270	N	0.096216	0.820639	0.476835
	N271	N	0.919434	0.821779	0.546217
	N272	N	0.184693	0.466677	0.927875
	N273	N	0.190670	0.537725	0.101435
	N274	N	0.828566	0.466570	0.098259
	N275	N	0.826268	0.537638	0.923378
	O276	O	0.640414	0.435060	0.655817
	H277	H	0.652683	0.454658	0.667316
	H278	H	0.627677	0.469029	0.659268
	O279	O	1.211791	0.114674	0.898814
	H280	H	1.204878	0.083762	0.903879
	H281	H	1.195428	0.105567	0.924291
	O282	O	0.222206	0.783372	0.991718
	H283	H	0.232197	0.774062	0.965241
	H284	H	0.235105	0.775679	0.987415
	O285	O	0.330175	0.685634	0.329708
	H286	H	0.363272	0.699572	0.330712
	H287	H	0.319025	0.668894	0.353191
	O288	O	0.819006	0.957089	-0.027197
	H289	H	0.818078	0.967338	-0.038054
	H290	H	0.813839	0.927668	-0.008069
	O291	O	0.693373	0.522938	0.501547
	H292	H	0.699030	0.514073	0.503651
	H293	H	0.663419	0.522069	0.514123
	O294	O	-0.211397	-0.218784	1.030496
	H295	H	-0.197371	-0.204162	1.083685
	H296	H	-0.250935	-0.257599	1.037134
	O297	O	0.374628	0.531410	0.711372
	H298	H	0.377068	0.527760	0.725478
	H299	H	0.370154	0.510008	0.697249
	O300	O	0.722465	0.519492	0.728890
	H301	H	0.710346	0.572703	0.715075
	H302	H	0.762091	0.523849	0.766106
	O303	O	0.292698	0.718971	0.488772
	H304	H	0.252079	0.754203	0.488944
	H305	H	0.302960	0.693789	0.494320
	O306	O	0.533126	0.652955	0.304339
	H307	H	0.544980	0.631787	0.292772
	H308	H	0.537633	0.665264	0.284502
	O309	O	1.029870	0.220582	0.225742
	H310	H	1.011613	0.209436	0.231356
	H311	H	1.023512	0.244701	0.239323
	O312	O	0.222626	0.985447	0.798743
	H313	H	0.202706	1.002020	0.810767
	H314	H	0.253316	0.977215	0.766817
	O315	O	0.503005	0.495391	0.462076
	H316	H	0.482011	0.491911	0.483568
	H317	H	0.497759	0.483883	0.440825
	O318	O	1.224262	0.024070	0.225529
	H319	H	1.221045	0.062279	0.224224
	H320	H	1.249557	0.042947	0.244899
	O321	O	-0.163250	0.181961	-0.166577
	H322	H	-0.168051	0.177096	-0.145267
	H323	H	-0.177445	0.143913	-0.162152
	O324	O	0.477270	0.726429	0.549531
	H325	H	0.500921	0.727717	0.519409
	H326	H	0.470688	0.725828	0.544388
	O327	O	0.312258	0.319111	0.701093
	H328	H	0.366388	0.307462	0.709774
	H329	H	0.291428	0.292533	0.700367
	O330	O	0.181783	0.934384	0.110388
	H331	H	0.160702	0.934718	0.119132
	H332	H	0.197812	0.926322	0.110383
	O333	O	0.582395	0.306208	0.550261
	H334	H	0.581148	0.312259	0.571099
	H335	H	0.584002	0.299007	0.546393
	O336	O	0.214295	0.207382	0.030972
	H337	H	0.221534	0.179875	0.019398
	H338	H	0.237757	0.219789	0.022532
	O339	O	-0.214273	1.057791	0.069184
	H340	H	-0.221871	1.058009	0.061780
	H341	H	-0.202667	1.067823	0.060827
	O342	O	-0.060862	1.020140	1.188607
	H343	H	-0.033173	1.004070	1.186435
	H344	H	-0.074673	1.014550	1.182238
	O345	O	0.688663	0.677814	-0.305559
	H346	H	0.634944	0.692022	-0.295416
	H347	H	0.698540	0.689430	-0.358008
	O348	O	0.431017	0.429053	0.299169
	H349	H	0.436363	0.402389	0.303374
	H350	H	0.414070	0.437478	0.297681
	O351	O	-0.058705	1.223877	1.077864
	H352	H	-0.034098	1.217786	1.066164
	H353	H	-0.066813	1.225170	1.078846
	O354	O	0.185948	0.825719	-0.164998
	H355	H	0.144268	0.824631	-0.179906
	H356	H	0.191257	0.852558	-0.157819
	O357	O	-0.207681	0.215863	0.991537
	H358	H	-0.195056	0.218344	1.013086
	H359	H	-0.233144	0.243056	0.978956
	O360	O	0.559359	0.603441	0.347986
	H361	H	0.532855	0.590630	0.336726
	H362	H	0.583920	0.581811	0.356629
	O363	O	0.108741	0.060689	0.836781
	H364	H	0.097210	0.070108	0.847789
	H365	H	0.125355	0.050010	0.822654
	O366	O	0.478931	0.575019	0.558793
	H367	H	0.476792	0.590521	0.544019
	H368	H	0.456711	0.558304	0.540774
	O369	O	0.295274	0.296308	0.533777
	H370	H	0.301316	0.300479	0.535494
	H371	H	0.270922	0.272333	0.551983
	O372	O	0.997559	0.214362	0.801516
	H373	H	0.955261	0.211579	0.802708
	H374	H	1.000642	0.238204	0.799736
	O375	O	0.288919	0.527248	0.641950
	H376	H	0.292784	0.491995	0.663809
	H377	H	0.270327	0.504475	0.639865
	O378	O	0.713294	0.705548	0.533107
	H379	H	0.694018	0.720073	0.512172
	H380	H	0.730851	0.696170	0.518289
	O381	O	0.682386	0.328075	0.333862
	H382	H	0.691280	0.321688	0.373483
	H383	H	0.666725	0.345878	0.337591
	O384	O	0.545704	0.683361	0.377020
	H385	H	0.546043	0.693886	0.351714
	H386	H	0.521192	0.654527	0.372769
	O387	O	0.060555	-0.146066	1.076237
	H388	H	0.067572	-0.146870	1.052974
	H389	H	0.061482	-0.128556	1.062839
	O390	O	-0.200164	-0.019140	0.221845
	H391	H	-0.209553	-0.003415	0.218781
	H392	H	-0.201856	-0.002295	0.233142
	O393	O	1.057155	1.228058	0.962725
	H394	H	1.092756	1.236497	0.965344
	H395	H	1.046029	1.220271	0.952630
	O396	O	1.135408	0.013431	-0.028210
	H397	H	1.131918	0.003046	-0.010476
	H398	H	1.126744	0.010509	-0.027861
	O399	O	0.796418	0.012085	0.818944
	H400	H	0.814182	-0.008681	0.825867
	H401	H	0.786270	0.000246	0.803073
	O402	O	1.026352	0.788536	0.797951
	H403	H	1.027037	0.750159	0.771294
	H404	H	1.005270	0.782159	0.836645
	O405	O	0.986474	0.785171	0.225828
	H406	H	1.003202	0.772092	0.231537
	H407	H	1.002801	0.764446	0.214035
	O408	O	0.813482	-0.213741	0.221357
	H409	H	0.857174	-0.229478	0.240334
	H410	H	0.806893	-0.162009	0.235817
	O411	O	0.945411	0.786367	-0.053347
	H412	H	0.936901	0.799663	-0.032242
	H413	H	0.921207	0.786402	-0.037093
	O414	O	0.428191	0.324875	0.470787
	H415	H	0.416099	0.319857	0.465124
	H416	H	0.428618	0.327879	0.499116
	O417	O	0.295100	0.523718	0.298012
	H418	H	0.284645	0.551485	0.287263
	H419	H	0.279917	0.513333	0.290622
	O420	O	0.022711	0.039352	-0.062234
	H421	H	0.014966	0.029723	-0.059624
	H422	H	-0.010772	0.049467	-0.069324
	O423	O	0.671600	0.311683	0.493300
	H424	H	0.690961	0.321833	0.512103
	H425	H	0.669746	0.315889	0.515605
	O426	O	0.477408	0.295954	0.718061
	H427	H	0.502959	0.315409	0.730544
	H428	H	0.490005	0.288979	0.733911
	O429	O	0.192384	1.183982	0.196682
	H430	H	0.156274	1.198831	0.188193
	H431	H	0.187273	1.199231	0.173481
	O432	O	0.514672	0.502684	0.724673
	H433	H	0.504186	0.523477	0.704817
	H434	H	0.542246	0.532613	0.731970
	O435	O	0.293522	0.484588	0.487379
	H436	H	0.295557	0.484193	0.493850
	H437	H	0.287963	0.488402	0.470021
	O438	O	0.029720	-0.010443	0.219180
	H439	H	0.041576	-0.010758	0.219947
	H440	H	0.062487	-0.015032	0.217792
	O441	O	1.021192	-0.096287	0.044915
	H442	H	1.020083	-0.094433	0.053315
	H443	H	1.014746	-0.083759	0.030420
	O444	O	-0.072373	0.952749	0.790585
	H445	H	-0.066339	0.918072	0.785309
	H446	H	-0.051345	0.965928	0.798174
	O447	O	0.516566	0.298082	0.311433
	H448	H	0.530518	0.294673	0.306382
	H449	H	0.520967	0.287440	0.325332
	O450	O	0.524909	0.718165	0.724587
	H451	H	0.519371	0.749737	0.745011
	H452	H	0.502238	0.717044	0.706912
	O453	O	0.700254	0.488738	0.349025
	H454	H	0.699939	0.472503	0.373331
	H455	H	0.700483	0.477132	0.338964
