data_Molecule from HDF5

_cell_length_a		16.159325
_cell_length_b		16.272512
_cell_length_c		16.255131
_cell_angle_alpha	89.812673
_cell_angle_beta	90.054300
_cell_angle_gamma	90.053920
_symmetry_space_group_name_H-M	'P 1'
_symmetry_Int_Tables_number		1

loop_
	_symmetry_equiv_pos_as_xyz
	x,y,z

loop_
	_atom_site_label
	_atom_site_type_symbol
	_atom_site_fract_x
	_atom_site_fract_y
	_atom_site_fract_z
	H0	H	0.408262	0.846769	0.705970
	H1	H	0.608677	0.173586	0.704802
	H2	H	0.606805	0.846263	0.275703
	H3	H	0.409492	0.173867	0.275744
	H4	H	0.721273	0.414070	0.826923
	H5	H	0.721182	0.606863	0.156112
	H6	H	0.295148	0.608410	0.827429
	H7	H	0.295939	0.414502	0.156141
	H8	H	0.842966	0.721943	0.392331
	H9	H	0.171795	0.724006	0.589466
	H10	H	0.843515	0.294500	0.590022
	H11	H	0.172537	0.296806	0.392752
	H12	H	0.842985	0.410182	0.705358
	H13	H	0.172464	0.609469	0.704570
	H14	H	0.843852	0.607876	0.276547
	H15	H	0.173436	0.411650	0.278688
	H16	H	0.408993	0.724801	0.827376
	H17	H	0.607433	0.725025	0.155162
	H18	H	0.608207	0.295875	0.827278
	H19	H	0.408560	0.295153	0.155381
	H20	H	0.721247	0.845533	0.393039
	H21	H	0.722817	0.173212	0.587786
	H22	H	0.295361	0.845668	0.587579
	H23	H	0.293930	0.174401	0.392209
	H24	H	0.909478	0.346011	0.205942
	H25	H	0.107384	0.672885	0.205591
	H26	H	0.107109	0.346038	0.777825
	H27	H	0.908889	0.673823	0.775823
	H28	H	0.220802	0.913192	0.325975
	H29	H	0.220938	0.106835	0.655296
	H30	H	0.795086	0.106428	0.326243
	H31	H	0.795152	0.911319	0.654792
	H32	H	0.343334	0.224999	0.890968
	H33	H	0.672535	0.223754	0.088055
	H34	H	0.342935	0.796556	0.088497
	H35	H	0.672511	0.796042	0.892555
	H36	H	0.341686	0.913241	0.202447
	H37	H	0.672737	0.107981	0.203279
	H38	H	0.342867	0.109116	0.776024
	H39	H	0.673203	0.913240	0.778435
	H40	H	0.909340	0.224917	0.326599
	H41	H	0.108091	0.224763	0.654034
	H42	H	0.106220	0.795606	0.326410
	H43	H	0.907405	0.793029	0.653487
	H44	H	0.223167	0.347343	0.893542
	H45	H	0.219748	0.674606	0.087298
	H46	H	0.793647	0.345707	0.089648
	H47	H	0.794398	0.674827	0.894027
	H48	H	0.417298	0.127318	0.583824
	H49	H	0.602442	0.891306	0.588368
	H50	H	0.609514	0.123913	0.414739
	H51	H	0.420364	0.893543	0.391411
	H52	H	0.606748	0.414636	0.109972
	H53	H	0.603437	0.601419	0.874845
	H54	H	0.402680	0.604499	0.112258
	H55	H	0.418154	0.417789	0.874985
	H56	H	0.131578	0.610800	0.388046
	H57	H	0.885648	0.615251	0.582424
	H58	H	0.123504	0.425207	0.586310
	H59	H	0.889929	0.412228	0.401395
	H60	H	0.128358	0.412196	0.591156
	H61	H	0.894925	0.594887	0.571183
	H62	H	0.124337	0.608044	0.409230
	H63	H	0.891800	0.421579	0.398361
	H64	H	0.419986	0.596026	0.105426
	H65	H	0.596754	0.603622	0.876290
	H66	H	0.598380	0.422492	0.106011
	H67	H	0.414616	0.416635	0.874111
	H68	H	0.610976	0.133651	0.382063
	H69	H	0.596759	0.893754	0.586316
	H70	H	0.414897	0.126452	0.581720
	H71	H	0.414602	0.894859	0.404345
	H72	H	0.922991	0.624236	0.082262
	H73	H	0.098272	0.394233	0.082114
	H74	H	0.100504	0.629685	0.889348
	H75	H	0.918036	0.396264	0.904529
	H76	H	0.097412	0.917984	0.605523
	H77	H	0.106131	0.100403	0.372479
	H78	H	0.919125	0.097546	0.604529
	H79	H	0.925422	0.903241	0.372760
	H80	H	0.623245	0.098256	0.898437
	H81	H	0.384767	0.119135	0.084249
	H82	H	0.626420	0.911037	0.080788
	H83	H	0.392371	0.921012	0.899797
	H84	H	0.623332	0.923275	0.081328
	H85	H	0.395714	0.097538	0.069818
	H86	H	0.627568	0.105915	0.892198
	H87	H	0.388589	0.917322	0.892073
	H88	H	0.918639	0.108793	0.608662
	H89	H	0.095266	0.103159	0.375632
	H90	H	0.100401	0.911285	0.608685
	H91	H	0.899004	0.913584	0.368226
	H92	H	0.095456	0.624434	0.900270
	H93	H	0.107546	0.390983	0.083962
	H94	H	0.909117	0.627377	0.078340
	H95	H	0.906986	0.390686	0.898140
	H96	H	0.414553	0.127395	0.584648
	H97	H	0.602028	0.893307	0.582790
	H98	H	0.582034	0.121448	0.395107
	H99	H	0.406551	0.889379	0.393093
	H100	H	0.595927	0.410970	0.108236
	H101	H	0.601289	0.608507	0.872693
	H102	H	0.420010	0.615984	0.110417
	H103	H	0.415107	0.419593	0.875210
	H104	H	0.123986	0.590674	0.395255
	H105	H	0.888035	0.594081	0.595198
	H106	H	0.124335	0.413704	0.577005
	H107	H	0.887377	0.414882	0.392167
	H108	H	0.913825	0.629811	0.092846
	H109	H	0.100289	0.391371	0.091367
	H110	H	0.107552	0.628206	0.900290
	H111	H	0.919630	0.393050	0.891377
	H112	H	0.104411	0.917336	0.608003
	H113	H	0.102853	0.110948	0.371417
	H114	H	0.909190	0.102113	0.609559
	H115	H	0.919496	0.930527	0.378285
	H116	H	0.625603	0.108683	0.902122
	H117	H	0.387807	0.094307	0.097322
	H118	H	0.627938	0.917268	0.091341
	H119	H	0.388523	0.912557	0.899917
	C120	C	0.386984	0.018750	0.611905
	C121	C	0.629730	1.001107	0.613056
	C122	C	0.629411	0.018065	0.368668
	C123	C	0.385922	1.001306	0.368411
	C124	C	0.629374	0.388279	-0.000475
	C125	C	0.629382	0.632203	0.983011
	C126	C	0.386176	0.632938	0.000379
	C127	C	0.386849	0.389164	0.983085
	C128	C	0.017052	0.631050	0.369381
	C129	C	0.998798	0.630665	0.611671
	C130	C	0.016468	0.387899	0.612896
	C131	C	0.999151	0.388692	0.369749
	C132	C	0.886863	0.518347	0.112930
	C133	C	0.129858	0.501070	0.113119
	C134	C	0.130013	0.519199	0.868797
	C135	C	0.886089	0.501719	0.869183
	C136	C	0.129148	0.887891	0.498703
	C137	C	0.130265	0.132440	0.481877
	C138	C	0.886772	0.131340	0.499237
	C139	C	0.886048	0.887466	0.481768
	C140	C	0.516420	0.132280	0.868879
	C141	C	0.498620	0.131875	0.112003
	C142	C	0.516539	0.889125	0.112165
	C143	C	0.499141	0.889025	0.869336
	C144	C	0.388800	0.895373	0.667705
	C145	C	0.628455	0.124461	0.667313
	C146	C	0.626885	0.895032	0.313818
	C147	C	0.388942	0.125176	0.313722
	C148	C	0.684091	0.392434	0.876121
	C149	C	0.684033	0.628344	0.106859
	C150	C	0.332234	0.629228	0.876565
	C151	C	0.332700	0.392626	0.106952
	C152	C	0.892717	0.685368	0.371452
	C153	C	0.122695	0.686023	0.609454
	C154	C	0.892410	0.332959	0.609881
	C155	C	0.123612	0.334490	0.372657
	C156	C	0.892273	0.389981	0.667690
	C157	C	0.123009	0.629026	0.666898
	C158	C	0.893027	0.628447	0.314156
	C159	C	0.123937	0.391740	0.315765
	C160	C	0.389121	0.686841	0.876377
	C161	C	0.627614	0.687030	0.106276
	C162	C	0.628057	0.333562	0.876368
	C163	C	0.388565	0.333385	0.106467
	C164	C	0.683909	0.894555	0.372030
	C165	C	0.685071	0.124383	0.608814
	C166	C	0.332578	0.894748	0.608987
	C167	C	0.331737	0.125385	0.371596
	C168	C	0.889077	0.394888	0.167997
	C169	C	0.127127	0.624412	0.167175
	C170	C	0.127617	0.395584	0.814783
	C171	C	0.888120	0.625134	0.813616
	C172	C	0.183550	0.892123	0.375082
	C173	C	0.184016	0.128019	0.605953
	C174	C	0.832425	0.127945	0.375274
	C175	C	0.832010	0.890332	0.605549
	C176	C	0.392152	0.186868	0.871092
	C177	C	0.623151	0.186152	0.108617
	C178	C	0.392168	0.834324	0.109364
	C179	C	0.623682	0.834646	0.872599
	C180	C	0.391700	0.891917	0.166317
	C181	C	0.623347	0.128977	0.166157
	C182	C	0.392032	0.129297	0.814041
	C183	C	0.623870	0.892474	0.815679
	C184	C	0.889270	0.186496	0.375486
	C185	C	0.128187	0.186894	0.605281
	C186	C	0.126367	0.833740	0.375375
	C187	C	0.887732	0.831547	0.604868
	C188	C	0.185005	0.395902	0.872723
	C189	C	0.183295	0.625195	0.108690
	C190	C	0.831577	0.394803	0.110226
	C191	C	0.831501	0.625552	0.872611
	C192	C	0.409074	0.104769	0.589832
	C193	C	0.607209	0.915049	0.591835
	C194	C	0.607244	0.104167	0.390767
	C195	C	0.407526	0.915075	0.389931
	C196	C	0.606860	0.409669	0.085933
	C197	C	0.607201	0.610769	0.896779
	C198	C	0.407764	0.611641	0.087019
	C199	C	0.409335	0.411476	0.896999
	C200	C	0.104073	0.609599	0.391217
	C201	C	0.911994	0.607895	0.589439
	C202	C	0.103053	0.410407	0.591196
	C203	C	0.912103	0.410132	0.390790
	C204	C	0.908874	0.604800	0.091079
	C205	C	0.108440	0.414572	0.091984
	C206	C	0.107755	0.605430	0.890259
	C207	C	0.908308	0.415528	0.891440
	C208	C	0.107304	0.909285	0.585153
	C209	C	0.108029	0.111232	0.395380
	C210	C	0.908961	0.109254	0.585252
	C211	C	0.908010	0.909422	0.395377
	C212	C	0.603051	0.110639	0.890928
	C213	C	0.411758	0.109949	0.090278
	C214	C	0.603583	0.910776	0.090983
	C215	C	0.412317	0.910576	0.890975
	Zn216	Zn	0.507738	0.010275	0.741381
	Zn217	Zn	0.507405	0.010014	0.239935
	Zn218	Zn	0.757915	0.510306	-0.008367
	Zn219	Zn	0.257853	0.510748	-0.008340
	Zn220	Zn	0.007314	0.758761	0.490424
	Zn221	Zn	0.008355	0.260421	0.490784
	Zn222	Zn	0.007749	0.509910	0.740330
	Zn223	Zn	0.008481	0.509592	0.241708
	Zn224	Zn	0.508235	0.760899	-0.008636
	Zn225	Zn	0.507555	0.259943	-0.009322
	Zn226	Zn	0.758131	0.009187	0.490607
	Zn227	Zn	0.257847	0.010565	0.490526
	N228	N	0.422063	0.973393	0.669544
	N229	N	0.594576	0.046898	0.669962
	N230	N	0.593963	0.972827	0.311552
	N231	N	0.421843	0.047168	0.311661
	N232	N	0.685258	0.425563	0.953918
	N233	N	0.685346	0.594972	0.029183
	N234	N	0.330478	0.596116	0.954535
	N235	N	0.331516	0.426518	0.029311
	N236	N	0.970811	0.686924	0.405140
	N237	N	0.044496	0.686985	0.576004
	N238	N	0.970603	0.331509	0.576683
	N239	N	0.045255	0.332592	0.405720
	N240	N	0.970384	0.423682	0.669572
	N241	N	0.044875	0.595080	0.668245
	N242	N	0.971416	0.595450	0.312657
	N243	N	0.045533	0.424799	0.313874
	N244	N	0.421993	0.689378	0.954472
	N245	N	0.594384	0.689508	0.028227
	N246	N	0.594462	0.331156	0.954092
	N247	N	0.421549	0.331156	0.028378
	N248	N	0.685676	0.972120	0.405481
	N249	N	0.685981	0.046653	0.575796
	N250	N	0.331168	0.972278	0.574966
	N251	N	0.329671	0.047538	0.404856
	N252	N	0.922550	0.472792	0.169823
	N253	N	0.094644	0.546306	0.170041
	N254	N	0.093929	0.473307	0.812500
	N255	N	0.921538	0.547408	0.811686
	N256	N	0.185192	0.925361	0.452905
	N257	N	0.185378	0.094960	0.528159
	N258	N	0.830608	0.094548	0.453059
	N259	N	0.830813	0.924383	0.527927
	N260	N	0.470496	0.189191	0.904264
	N261	N	0.544574	0.188299	0.075977
	N262	N	0.470532	0.832563	0.076319
	N263	N	0.545199	0.832628	0.905461
	N264	N	0.470005	0.925400	0.167963
	N265	N	0.545020	0.095633	0.168106
	N266	N	0.470343	0.096203	0.812494
	N267	N	0.545590	0.925358	0.813537
	N268	N	0.922417	0.188643	0.453521
	N269	N	0.095399	0.189564	0.527139
	N270	N	0.093297	0.831029	0.453319
	N271	N	0.920515	0.829636	0.526879
	N272	N	0.186511	0.473671	0.905513
	N273	N	0.184877	0.547460	0.075635
	N274	N	0.830120	0.472513	0.076687
	N275	N	0.830311	0.547760	0.906441
	O276	O	-0.556935	-0.547145	1.574967
	H277	H	-0.557507	-0.544575	1.579471
	H278	H	-0.561067	-0.550718	1.569869
	O279	O	0.534543	0.470089	0.509682
	H280	H	0.535352	0.465147	0.501413
	H281	H	0.538036	0.466930	0.508199
	O282	O	0.450797	0.498080	0.520517
	H283	H	0.448630	0.492572	0.519446
	H284	H	0.450123	0.500919	0.518691
	O285	O	0.510183	0.460746	0.547054
	H286	H	0.500494	0.461393	0.546102
	H287	H	0.508866	0.460647	0.555387
	O288	O	0.508867	0.473043	0.547999
	H289	H	0.516510	0.479324	0.556280
	H290	H	0.511718	0.478672	0.549002
	O291	O	-0.492043	0.402373	1.514977
	H292	H	-0.492674	0.396868	1.511250
	H293	H	-0.487529	0.402271	1.510469
	O294	O	0.520096	0.481092	0.538006
	H295	H	0.516839	0.477984	0.536700
	H296	H	0.524872	0.474437	0.547439
	O297	O	0.983217	0.046116	-0.069913
	H298	H	0.982839	0.048916	-0.072374
	H299	H	0.978607	0.049750	-0.073060
