data_Molecule from HDF5

_cell_length_a		16.298372
_cell_length_b		16.121489
_cell_length_c		16.076095
_cell_angle_alpha	91.087796
_cell_angle_beta	89.926301
_cell_angle_gamma	89.751585
_symmetry_space_group_name_H-M	'P 1'
_symmetry_Int_Tables_number		1

loop_
	_symmetry_equiv_pos_as_xyz
	x,y,z

loop_
	_atom_site_label
	_atom_site_type_symbol
	_atom_site_fract_x
	_atom_site_fract_y
	_atom_site_fract_z
	H0	H	0.408224	0.837619	0.705230
	H1	H	0.599203	0.170485	0.714211
	H2	H	0.601887	0.839416	0.280875
	H3	H	0.407181	0.172067	0.291433
	H4	H	0.718212	0.400073	0.832269
	H5	H	0.718884	0.608190	0.162425
	H6	H	0.289244	0.601671	0.832633
	H7	H	0.289477	0.407150	0.162206
	H8	H	0.839621	0.718842	0.402030
	H9	H	0.166881	0.721791	0.599892
	H10	H	0.839487	0.294814	0.592656
	H11	H	0.166495	0.286268	0.394454
	H12	H	0.839356	0.411163	0.708598
	H13	H	0.167303	0.605954	0.713455
	H14	H	0.839849	0.602118	0.283671
	H15	H	0.167492	0.401842	0.281413
	H16	H	0.405471	0.712722	0.830920
	H17	H	0.599478	0.721584	0.162755
	H18	H	0.603204	0.287234	0.833132
	H19	H	0.409107	0.300456	0.164910
	H20	H	0.720288	0.839738	0.394123
	H21	H	0.717951	0.169719	0.601527
	H22	H	0.287757	0.841029	0.596941
	H23	H	0.288124	0.169518	0.401125
	H24	H	0.909389	0.336965	0.204212
	H25	H	0.099854	0.669370	0.213829
	H26	H	0.103001	0.339829	0.779265
	H27	H	0.908806	0.672060	0.791639
	H28	H	0.220034	0.900122	0.333181
	H29	H	0.215395	0.107596	0.663366
	H30	H	0.787921	0.101963	0.332210
	H31	H	0.789051	0.908794	0.662510
	H32	H	0.340425	0.217624	0.903198
	H33	H	0.668020	0.221688	0.099636
	H34	H	0.339622	0.793581	0.094793
	H35	H	0.666286	0.786282	0.895009
	H36	H	0.338952	0.910807	0.210745
	H37	H	0.668257	0.104634	0.214124
	H38	H	0.339606	0.100664	0.788046
	H39	H	0.667701	0.902483	0.782218
	H40	H	0.905785	0.212951	0.329680
	H41	H	0.099026	0.220961	0.662548
	H42	H	0.103327	0.786288	0.333450
	H43	H	0.906247	0.799191	0.665276
	H44	H	0.219346	0.338921	0.894730
	H45	H	0.218156	0.669543	0.100840
	H46	H	0.789551	0.339427	0.094177
	H47	H	0.788197	0.668879	0.898897
	H48	H	0.406757	0.125417	0.599276
	H49	H	0.595970	0.884973	0.593608
	H50	H	0.605760	0.124948	0.410998
	H51	H	0.410023	0.887755	0.409551
	H52	H	0.606543	0.400513	0.124258
	H53	H	0.586321	0.591042	0.882955
	H54	H	0.404699	0.590029	0.116077
	H55	H	0.402023	0.407391	0.875137
	H56	H	0.118829	0.597566	0.411467
	H57	H	0.886725	0.597919	0.597210
	H58	H	0.122946	0.413083	0.593015
	H59	H	0.884526	0.408358	0.396094
	H60	H	0.121692	0.408245	0.586167
	H61	H	0.883172	0.608022	0.598530
	H62	H	0.119203	0.590209	0.407754
	H63	H	0.885200	0.406203	0.403121
	H64	H	0.421895	0.599936	0.113276
	H65	H	0.600986	0.605199	0.873122
	H66	H	0.608811	0.431139	0.114161
	H67	H	0.413642	0.419241	0.881148
	H68	H	0.595818	0.124230	0.401539
	H69	H	0.595813	0.888849	0.583828
	H70	H	0.415031	0.121490	0.593888
	H71	H	0.408324	0.884484	0.400564
	H72	H	0.912345	0.623818	0.098157
	H73	H	0.092738	0.387640	0.086329
	H74	H	0.102303	0.622925	0.913563
	H75	H	0.908865	0.385786	0.904937
	H76	H	0.099812	0.925581	0.614905
	H77	H	0.100989	0.099124	0.375332
	H78	H	0.904543	0.107713	0.618785
	H79	H	0.914786	0.920928	0.383120
	H80	H	0.621675	0.102142	0.911123
	H81	H	0.384701	0.100148	0.103253
	H82	H	0.618538	0.915201	0.084919
	H83	H	0.386660	0.912248	0.900527
	H84	H	0.620535	0.915226	0.093860
	H85	H	0.385057	0.111991	0.093341
	H86	H	0.618532	0.089161	0.907732
	H87	H	0.384853	0.907111	0.900021
	H88	H	0.906738	0.092539	0.614934
	H89	H	0.102212	0.086958	0.378769
	H90	H	0.087988	0.912153	0.614833
	H91	H	0.919290	0.902687	0.379174
	H92	H	0.102166	0.624998	0.902369
	H93	H	0.104817	0.386891	0.080233
	H94	H	0.914746	0.619936	0.087636
	H95	H	0.909149	0.384117	0.897881
	H96	H	0.406076	0.123889	0.588668
	H97	H	0.605161	0.884174	0.587140
	H98	H	0.592956	0.120384	0.413677
	H99	H	0.418029	0.887803	0.402547
	H100	H	0.581845	0.416250	0.112390
	H101	H	0.607764	0.584170	0.878639
	H102	H	0.404588	0.610236	0.120322
	H103	H	0.417727	0.402477	0.877658
	H104	H	0.122105	0.596837	0.402733
	H105	H	0.886878	0.603824	0.589363
	H106	H	0.119219	0.415657	0.585434
	H107	H	0.886981	0.412834	0.401411
	H108	H	0.905155	0.623919	0.090526
	H109	H	0.103555	0.382751	0.093833
	H110	H	0.092738	0.622005	0.907601
	H111	H	0.914327	0.386562	0.901453
	H112	H	0.105128	0.909683	0.621594
	H113	H	0.091622	0.093217	0.380319
	H114	H	0.918365	0.103628	0.613888
	H115	H	0.901418	0.908749	0.375006
	H116	H	0.624119	0.097563	0.899658
	H117	H	0.389904	0.099040	0.088868
	H118	H	0.621609	0.907657	0.088785
	H119	H	0.386315	0.907918	0.905501
	C120	C	0.382141	0.013627	0.620021
	C121	C	0.626062	0.995703	0.619688
	C122	C	0.626463	0.013628	0.377262
	C123	C	0.383440	0.996258	0.377809
	C124	C	0.626548	0.383903	0.007060
	C125	C	0.625596	0.625618	0.987884
	C126	C	0.382302	0.625906	0.006594
	C127	C	0.383317	0.383775	0.988234
	C128	C	0.011831	0.624229	0.378171
	C129	C	0.994424	0.630702	0.622863
	C130	C	0.012614	0.385296	0.616686
	C131	C	0.994401	0.380021	0.372397
	C132	C	0.882659	0.512887	0.118764
	C133	C	0.127227	0.494943	0.118238
	C134	C	0.126924	0.513919	0.876173
	C135	C	0.882943	0.495708	0.875770
	C136	C	0.126399	0.883545	0.507610
	C137	C	0.125052	0.125174	0.488015
	C138	C	0.881622	0.127396	0.505844
	C139	C	0.883138	0.884823	0.489016
	C140	C	0.512907	0.124890	0.878446
	C141	C	0.495568	0.130628	0.123061
	C142	C	0.511865	0.884984	0.118218
	C143	C	0.494470	0.880125	0.873441
	C144	C	0.386528	0.888030	0.670502
	C145	C	0.621221	0.120655	0.676573
	C146	C	0.622974	0.888991	0.319355
	C147	C	0.386265	0.121780	0.326649
	C148	C	0.680940	0.381926	0.882092
	C149	C	0.680522	0.627038	0.112804
	C150	C	0.327379	0.621739	0.881802
	C151	C	0.327800	0.387586	0.112982
	C152	C	0.888640	0.680470	0.380955
	C153	C	0.117925	0.684479	0.620058
	C154	C	0.888661	0.332243	0.613347
	C155	C	0.117545	0.324077	0.374573
	C156	C	0.888685	0.390233	0.670983
	C157	C	0.118216	0.626819	0.676454
	C158	C	0.888761	0.622427	0.322070
	C159	C	0.118141	0.381722	0.318339
	C160	C	0.384992	0.677071	0.881046
	C161	C	0.621032	0.682932	0.113231
	C162	C	0.623413	0.325867	0.882426
	C163	C	0.387369	0.334223	0.114361
	C164	C	0.682075	0.889240	0.375205
	C165	C	0.680079	0.120387	0.620540
	C166	C	0.326502	0.889774	0.616337
	C167	C	0.327002	0.120472	0.381299
	C168	C	0.887569	0.387155	0.169094
	C169	C	0.122219	0.619959	0.175928
	C170	C	0.123651	0.389208	0.818105
	C171	C	0.887336	0.621637	0.826098
	C172	C	0.182262	0.881327	0.382935
	C173	C	0.178263	0.126329	0.613476
	C174	C	0.826014	0.123017	0.381347
	C175	C	0.827357	0.888470	0.613599
	C176	C	0.389365	0.179862	0.882080
	C177	C	0.619075	0.184140	0.120056
	C178	C	0.388343	0.831197	0.115124
	C179	C	0.617668	0.824412	0.875368
	C180	C	0.388258	0.889235	0.173194
	C181	C	0.619222	0.125797	0.177027
	C182	C	0.388717	0.121404	0.825249
	C183	C	0.618234	0.882117	0.818916
	C184	C	0.884841	0.177901	0.380126
	C185	C	0.120480	0.183093	0.613064
	C186	C	0.124206	0.824636	0.383037
	C187	C	0.885799	0.834207	0.614830
	C188	C	0.181661	0.388852	0.875406
	C189	C	0.180934	0.619987	0.119833
	C190	C	0.827950	0.388471	0.114278
	C191	C	0.826998	0.619885	0.879316
	C192	C	0.403273	0.100947	0.600021
	C193	C	0.605214	0.908597	0.595357
	C194	C	0.604743	0.100710	0.401658
	C195	C	0.405638	0.909066	0.398118
	C196	C	0.605243	0.408657	0.094288
	C197	C	0.604641	0.600814	0.900875
	C198	C	0.403984	0.606026	0.093991
	C199	C	0.404838	0.403692	0.900577
	C200	C	0.097841	0.601421	0.400618
	C201	C	0.908035	0.609717	0.601423
	C202	C	0.098881	0.406188	0.594728
	C203	C	0.908014	0.402393	0.394016
	C204	C	0.904372	0.600125	0.098269
	C205	C	0.106569	0.408458	0.094022
	C206	C	0.105398	0.600863	0.900705
	C207	C	0.904549	0.407930	0.895482
	C208	C	0.104173	0.908672	0.594546
	C209	C	0.104217	0.100441	0.400691
	C210	C	0.903481	0.107293	0.593330
	C211	C	0.905328	0.904787	0.401755
	C212	C	0.599195	0.102917	0.899960
	C213	C	0.409055	0.109790	0.101689
	C214	C	0.598036	0.906314	0.095889
	C215	C	0.408282	0.902516	0.895418
	Zn216	Zn	0.503714	0.003564	0.747712
	Zn217	Zn	0.503752	0.006298	0.249781
	Zn218	Zn	0.754520	0.503960	-0.003013
	Zn219	Zn	0.256022	0.504879	-0.002559
	Zn220	Zn	0.003467	0.756966	0.499905
	Zn221	Zn	0.003444	0.254248	0.495527
	Zn222	Zn	0.004374	0.506574	0.748218
	Zn223	Zn	0.004420	0.502685	0.246486
	Zn224	Zn	0.502769	0.753664	-0.003835
	Zn225	Zn	0.504501	0.256901	-0.001053
	Zn226	Zn	0.755005	0.004983	0.497938
	Zn227	Zn	0.254504	0.004939	0.498300
	N228	N	0.420345	0.966236	0.673165
	N229	N	0.588380	0.042198	0.676050
	N230	N	0.589478	0.967519	0.320411
	N231	N	0.420687	0.043578	0.324372
	N232	N	0.683009	0.417291	0.960688
	N233	N	0.683656	0.592428	0.034035
	N234	N	0.325499	0.590759	0.961072
	N235	N	0.325144	0.417642	0.033456
	N236	N	0.966088	0.681724	0.415200
	N237	N	0.039886	0.687110	0.587498
	N238	N	0.966517	0.329248	0.580043
	N239	N	0.039454	0.322676	0.407234
	N240	N	0.966721	0.422754	0.673084
	N241	N	0.040485	0.593975	0.678380
	N242	N	0.966369	0.588230	0.320476
	N243	N	0.040582	0.415840	0.316695
	N244	N	0.418548	0.679716	0.959651
	N245	N	0.587586	0.682335	0.034524
	N246	N	0.590357	0.326890	0.961312
	N247	N	0.421157	0.331612	0.035748
	N248	N	0.684191	0.967713	0.410757
	N249	N	0.683321	0.041641	0.585676
	N250	N	0.323800	0.968857	0.585764
	N251	N	0.324878	0.041284	0.412007
	N252	N	0.920846	0.465567	0.171956
	N253	N	0.089308	0.541488	0.175044
	N254	N	0.090387	0.467906	0.818410
	N255	N	0.921195	0.543309	0.823499
	N256	N	0.183789	0.917206	0.461451
	N257	N	0.181126	0.091042	0.534881
	N258	N	0.823841	0.092349	0.460649
	N259	N	0.825468	0.919244	0.534416
	N260	N	0.467512	0.182118	0.914598
	N261	N	0.541239	0.187223	0.087210
	N262	N	0.466319	0.828279	0.081635
	N263	N	0.539719	0.822855	0.908437
	N264	N	0.465978	0.922047	0.175072
	N265	N	0.541312	0.093299	0.179098
	N266	N	0.466531	0.088001	0.822697
	N267	N	0.540618	0.916457	0.817680
	N268	N	0.918679	0.180742	0.458609
	N269	N	0.087846	0.182433	0.533977
	N270	N	0.090225	0.825919	0.461513
	N271	N	0.919711	0.831746	0.536304
	N272	N	0.183770	0.467352	0.910876
	N273	N	0.184356	0.541458	0.084929
	N274	N	0.824901	0.467703	0.083637
	N275	N	0.824374	0.540560	0.909729
	O276	O	0.010817	-0.011825	-0.052840
	H277	H	0.013162	-0.021942	-0.060614
	H278	H	-0.000089	-0.010486	-0.057932
	O279	O	0.456270	0.546200	0.456741
	H280	H	0.460870	0.548905	0.460164
	H281	H	0.449924	0.546000	0.461698
	O282	O	0.580934	0.450017	0.469520
	H283	H	0.579052	0.446828	0.480140
	H284	H	0.585485	0.453751	0.479879
	O285	O	1.061386	-0.030381	0.940864
	H286	H	1.061405	-0.022941	0.927375
	H287	H	1.064116	-0.028593	0.945400
	O288	O	1.008969	0.002829	-0.003781
	H289	H	1.010284	0.000232	-0.004522
	H290	H	0.995920	0.006662	-0.002516
	O291	O	0.441855	0.510650	0.443234
	H292	H	0.450134	0.494434	0.448786
	H293	H	0.429107	0.520384	0.436852
	O294	O	1.026945	-0.003190	1.047135
	H295	H	1.034903	-0.002993	1.044976
	H296	H	1.024670	-0.006542	1.046523
	O297	O	0.075662	-0.010641	-0.026515
	H298	H	0.084957	-0.019544	-0.029086
	H299	H	0.083477	-0.014514	-0.034448
	O300	O	0.559238	0.468333	0.423124
	H301	H	0.563468	0.456979	0.423776
	H302	H	0.561193	0.478120	0.437101
	O303	O	0.551633	0.592322	0.529608
	H304	H	0.540287	0.596082	0.524334
	H305	H	0.535903	0.598219	0.534002
	O306	O	0.979103	-0.006794	0.006606
	H307	H	0.979162	-0.001173	0.006899
	H308	H	0.977793	-0.014286	0.017417
	O309	O	-0.060922	-0.010205	1.084353
	H310	H	-0.059553	-0.006113	1.090842
	H311	H	-0.069289	-0.009190	1.096328
	O312	O	0.950214	0.993893	0.935604
	H313	H	0.947118	0.990695	0.941183
	H314	H	0.944196	0.987455	0.953998
	O315	O	0.501670	0.443244	0.514124
	H316	H	0.501882	0.439475	0.519854
	H317	H	0.513015	0.432443	0.511307
	O318	O	0.546172	0.483172	0.566833
	H319	H	0.553507	0.494196	0.569326
	H320	H	0.534526	0.480762	0.559336
	O321	O	0.063005	1.016989	0.953007
	H322	H	0.058695	1.015904	0.950500
	H323	H	0.066570	1.020870	0.956433
	O324	O	0.592404	0.568213	0.474100
	H325	H	0.596581	0.556757	0.480435
	H326	H	0.598589	0.570233	0.479553
	O327	O	0.531234	0.492629	0.515617
	H328	H	0.542677	0.491395	0.513807
	H329	H	0.526284	0.488441	0.521136
	O330	O	0.423234	0.518040	0.488334
	H331	H	0.424680	0.526887	0.483481
	H332	H	0.432466	0.513740	0.478447
	O333	O	0.501931	0.413500	0.504165
	H334	H	0.507702	0.417022	0.494599
	H335	H	0.507130	0.408103	0.505179
	O336	O	0.382051	0.495828	0.461090
	H337	H	0.388736	0.486773	0.469024
	H338	H	0.386309	0.491932	0.454217
	O339	O	1.064897	0.982305	-0.069182
	H340	H	1.053280	0.973875	-0.072979
	H341	H	1.066591	0.990826	-0.066827
	O342	O	0.484182	0.513454	0.489171
	H343	H	0.482141	0.512899	0.484425
	H344	H	0.488637	0.516089	0.485142
	O345	O	0.571139	0.478769	0.564274
	H346	H	0.567180	0.494146	0.555882
	H347	H	0.572264	0.481939	0.565156
	O348	O	-0.019854	0.074530	0.022746
	H349	H	-0.014861	0.082144	0.022164
	H350	H	-0.015976	0.074555	0.024614
	O351	O	-0.037243	1.028000	1.061610
	H352	H	-0.033315	1.024000	1.058989
	H353	H	-0.035771	1.033891	1.068035
	O354	O	0.443505	0.606054	0.481647
	H355	H	0.441884	0.600576	0.478338
	H356	H	0.441868	0.617247	0.467460
	O357	O	0.040836	0.970225	1.008743
	H358	H	0.040253	0.965163	1.000441
	H359	H	0.045071	0.971981	1.008408
