data_Molecule from HDF5

_cell_length_a		16.466139
_cell_length_b		16.546358
_cell_length_c		16.527857
_cell_angle_alpha	90.127091
_cell_angle_beta	89.983612
_cell_angle_gamma	89.985573
_symmetry_space_group_name_H-M	'P 1'
_symmetry_Int_Tables_number		1

loop_
	_symmetry_equiv_pos_as_xyz
	x,y,z

loop_
	_atom_site_label
	_atom_site_type_symbol
	_atom_site_fract_x
	_atom_site_fract_y
	_atom_site_fract_z
	H0	H	0.380586	0.855024	0.709367
	H1	H	0.589818	0.169583	0.710553
	H2	H	0.597433	0.858381	0.262446
	H3	H	0.383433	0.170117	0.268918
	H4	H	0.704678	0.414752	0.831259
	H5	H	0.711485	0.623588	0.146357
	H6	H	0.262180	0.621151	0.833687
	H7	H	0.264633	0.408067	0.146029
	H8	H	0.829261	0.737048	0.381391
	H9	H	0.143310	0.736860	0.594411
	H10	H	0.827458	0.295806	0.592410
	H11	H	0.145431	0.295646	0.387493
	H12	H	0.828817	0.411484	0.710133
	H13	H	0.144332	0.620491	0.710325
	H14	H	0.827853	0.617800	0.268871
	H15	H	0.145385	0.411025	0.270786
	H16	H	0.376585	0.739041	0.834709
	H17	H	0.596216	0.740429	0.145530
	H18	H	0.588584	0.297375	0.830441
	H19	H	0.381307	0.290573	0.144893
	H20	H	0.712214	0.856894	0.379908
	H21	H	0.707432	0.169365	0.595122
	H22	H	0.263954	0.855962	0.593541
	H23	H	0.268156	0.171512	0.387444
	H24	H	0.883399	0.356389	0.208304
	H25	H	0.094665	0.671386	0.213400
	H26	H	0.090474	0.357171	0.768675
	H27	H	0.880039	0.670802	0.766280
	H28	H	0.211047	0.906149	0.332473
	H29	H	0.204648	0.116017	0.647408
	H30	H	0.764121	0.118402	0.332294
	H31	H	0.766299	0.909079	0.646551
	H32	H	0.329530	0.233899	0.885485
	H33	H	0.643196	0.237821	0.097834
	H34	H	0.330238	0.788828	0.098211
	H35	H	0.642588	0.788801	0.880911
	H36	H	0.330782	0.904459	0.215184
	H37	H	0.642365	0.122165	0.214765
	H38	H	0.328153	0.115206	0.771232
	H39	H	0.642749	0.905663	0.765942
	H40	H	0.881378	0.234042	0.331411
	H41	H	0.087271	0.231925	0.647426
	H42	H	0.097416	0.787607	0.333155
	H43	H	0.881032	0.790008	0.644634
	H44	H	0.204890	0.356525	0.887469
	H45	H	0.210311	0.671224	0.096185
	H46	H	0.766219	0.357298	0.093214
	H47	H	0.764977	0.671390	0.883753
	H48	H	0.395282	0.128235	0.587510
	H49	H	0.575821	0.899168	0.581099
	H50	H	0.570920	0.123056	0.400463
	H51	H	0.398748	0.902046	0.404541
	H52	H	0.578030	0.423006	0.103946
	H53	H	0.574142	0.596707	0.880442
	H54	H	0.402700	0.601145	0.099627
	H55	H	0.395071	0.422318	0.875592
	H56	H	0.096842	0.597820	0.402633
	H57	H	0.875710	0.600306	0.575120
	H58	H	0.101725	0.420213	0.581675
	H59	H	0.870284	0.422424	0.392542
	H60	H	0.099697	0.421680	0.576404
	H61	H	0.875237	0.599926	0.577363
	H62	H	0.100194	0.602188	0.397477
	H63	H	0.871961	0.418698	0.401281
	H64	H	0.399820	0.600242	0.100344
	H65	H	0.571042	0.605884	0.879021
	H66	H	0.577077	0.426629	0.102439
	H67	H	0.396470	0.426239	0.877408
	H68	H	0.572569	0.121672	0.405974
	H69	H	0.572529	0.901087	0.577353
	H70	H	0.401853	0.123488	0.579348
	H71	H	0.397176	0.900262	0.400430
	H72	H	0.893112	0.627720	0.075550
	H73	H	0.076706	0.403973	0.075004
	H74	H	0.075794	0.627817	0.898786
	H75	H	0.897604	0.401982	0.899632
	H76	H	0.077261	0.927809	0.600376
	H77	H	0.073768	0.108005	0.375251
	H78	H	0.894396	0.107275	0.603034
	H79	H	0.898685	0.924599	0.376895
	H80	H	0.602358	0.108728	0.899230
	H81	H	0.376767	0.099243	0.076534
	H82	H	0.598458	0.928301	0.078105
	H83	H	0.372902	0.921521	0.903070
	H84	H	0.597495	0.924816	0.072581
	H85	H	0.374040	0.101808	0.079727
	H86	H	0.599441	0.101742	0.901842
	H87	H	0.375495	0.927456	0.903303
	H88	H	0.894413	0.103209	0.601988
	H89	H	0.081609	0.106080	0.373636
	H90	H	0.070284	0.928716	0.596279
	H91	H	0.899150	0.928193	0.378013
	H92	H	0.073707	0.626780	0.900215
	H93	H	0.079067	0.400546	0.081680
	H94	H	0.898707	0.629263	0.085950
	H95	H	0.897735	0.402328	0.899653
	H96	H	0.390664	0.125886	0.577541
	H97	H	0.578303	0.900187	0.576138
	H98	H	0.576502	0.124337	0.402500
	H99	H	0.400671	0.902408	0.400863
	H100	H	0.574595	0.423888	0.102298
	H101	H	0.580565	0.603360	0.877051
	H102	H	0.401246	0.598446	0.099112
	H103	H	0.399368	0.422875	0.877161
	H104	H	0.099531	0.604959	0.404670
	H105	H	0.874229	0.602033	0.576392
	H106	H	0.099806	0.425718	0.581295
	H107	H	0.874662	0.427291	0.399234
	H108	H	0.904756	0.623805	0.076448
	H109	H	0.072045	0.403609	0.081338
	H110	H	0.076311	0.626795	0.901376
	H111	H	0.897645	0.402354	0.900418
	H112	H	0.071490	0.921763	0.600212
	H113	H	0.076697	0.100295	0.376835
	H114	H	0.897719	0.105999	0.602542
	H115	H	0.902323	0.926740	0.377374
	H116	H	0.601580	0.102558	0.894649
	H117	H	0.375044	0.104206	0.075341
	H118	H	0.594868	0.930556	0.072958
	H119	H	0.372848	0.925185	0.897273
	C120	C	0.363557	0.021674	0.611958
	C121	C	0.607573	1.003873	0.610719
	C122	C	0.608090	0.020571	0.368176
	C123	C	0.366297	1.005015	0.369002
	C124	C	0.607718	0.393727	-0.001821
	C125	C	0.608715	0.636255	0.981814
	C126	C	0.366470	0.634069	-0.002800
	C127	C	0.364943	0.391623	0.980287
	C128	C	-0.005079	0.634679	0.368109
	C129	C	0.978616	0.634315	0.609266
	C130	C	-0.004638	0.392565	0.611092
	C131	C	0.977614	0.392342	0.367346
	C132	C	0.865922	0.522875	0.110741
	C133	C	0.108966	0.506161	0.111701
	C134	C	0.107888	0.523203	0.868108
	C135	C	0.865596	0.506343	0.867886
	C136	C	0.107732	0.892291	0.496492
	C137	C	0.107528	0.135048	0.480531
	C138	C	0.863708	0.136379	0.498017
	C139	C	0.866530	0.893148	0.480773
	C140	C	0.495979	0.134741	0.867668
	C141	C	0.478657	0.135388	0.110932
	C142	C	0.494279	0.892968	0.109826
	C143	C	0.477288	0.891386	0.867934
	C144	C	0.361797	0.902748	0.670400
	C145	C	0.608966	0.122365	0.670734
	C146	C	0.614303	0.904524	0.304161
	C147	C	0.364935	0.123454	0.309459
	C148	C	0.665447	0.394639	0.878388
	C149	C	0.670851	0.640951	0.099314
	C150	C	0.303121	0.638774	0.880584
	C151	C	0.304757	0.389261	0.098702
	C152	C	0.876310	0.695760	0.364423
	C153	C	0.096515	0.695815	0.612211
	C154	C	0.875374	0.334843	0.611708
	C155	C	0.097593	0.334799	0.368140
	C156	C	0.876173	0.392147	0.670311
	C157	C	0.097074	0.637691	0.669636
	C158	C	0.875668	0.636540	0.308173
	C159	C	0.097600	0.392226	0.309995
	C160	C	0.360159	0.697364	0.881057
	C161	C	0.613091	0.698976	0.098760
	C162	C	0.607960	0.336254	0.878324
	C163	C	0.362836	0.331193	0.098264
	C164	C	0.671516	0.903934	0.362786
	C165	C	0.667354	0.122169	0.613236
	C166	C	0.303856	0.903175	0.612368
	C167	C	0.307610	0.124170	0.368047
	C168	C	0.864443	0.404054	0.169312
	C169	C	0.112403	0.624215	0.172849
	C170	C	0.108961	0.404298	0.809003
	C171	C	0.862385	0.623951	0.806946
	C172	C	0.170353	0.888404	0.379394
	C173	C	0.165337	0.135004	0.599780
	C174	C	0.804345	0.137022	0.379410
	C175	C	0.806074	0.890409	0.599181
	C176	C	0.376894	0.193889	0.866760
	C177	C	0.596179	0.197149	0.115384
	C178	C	0.377086	0.830051	0.115318
	C179	C	0.595504	0.829648	0.863746
	C180	C	0.377243	0.887629	0.173411
	C181	C	0.595647	0.139669	0.173611
	C182	C	0.376296	0.135224	0.809699
	C183	C	0.595485	0.887452	0.806286
	C184	C	0.862606	0.194586	0.379088
	C185	C	0.107035	0.192746	0.599992
	C186	C	0.113525	0.829532	0.379711
	C187	C	0.862671	0.831006	0.598017
	C188	C	0.165965	0.403963	0.867853
	C189	C	0.169741	0.624185	0.114285
	C190	C	0.806022	0.404648	0.111991
	C191	C	0.805228	0.624366	0.865451
	C192	C	0.388753	0.104425	0.588430
	C193	C	0.582635	0.921567	0.585593
	C194	C	0.580890	0.101764	0.395250
	C195	C	0.391527	0.922876	0.394657
	C196	C	0.583526	0.417464	0.081165
	C197	C	0.582780	0.609545	0.900150
	C198	C	0.393604	0.607497	0.078696
	C199	C	0.389936	0.416675	0.898005
	C200	C	0.077252	0.609044	0.394022
	C201	C	0.896385	0.608134	0.583696
	C202	C	0.078655	0.415891	0.586936
	C203	C	0.894112	0.415980	0.390852
	C204	C	0.891484	0.605374	0.086282
	C205	C	0.083380	0.424110	0.086474
	C206	C	0.082711	0.605644	0.893061
	C207	C	0.890603	0.423881	0.892766
	C208	C	0.080824	0.918823	0.577835
	C209	C	0.084009	0.111595	0.397052
	C210	C	0.888460	0.112582	0.580968
	C211	C	0.892587	0.918931	0.399092
	C212	C	0.579555	0.111050	0.891554
	C213	C	0.396645	0.109171	0.084459
	C214	C	0.575519	0.920172	0.082269
	C215	C	0.395244	0.917378	0.893776
	Zn216	Zn	0.486189	0.012262	0.739935
	Zn217	Zn	0.486884	0.012837	0.239327
	Zn218	Zn	0.737316	0.515049	-0.010452
	Zn219	Zn	0.236707	0.514544	-0.010150
	Zn220	Zn	-0.013082	0.763502	0.487973
	Zn221	Zn	-0.014032	0.264332	0.489065
	Zn222	Zn	-0.013001	0.515137	0.739413
	Zn223	Zn	-0.013109	0.514457	0.239489
	Zn224	Zn	0.486746	0.763769	-0.010254
	Zn225	Zn	0.487974	0.263457	-0.010836
	Zn226	Zn	0.736578	0.013031	0.489048
	Zn227	Zn	0.236533	0.013286	0.488950
	N228	N	0.398165	0.977518	0.670480
	N229	N	0.572476	0.047651	0.669421
	N230	N	0.575634	0.977866	0.307491
	N231	N	0.400412	0.048279	0.309705
	N232	N	0.665835	0.429302	0.954034
	N233	N	0.668271	0.602471	0.025503
	N234	N	0.307043	0.600002	0.953900
	N235	N	0.305946	0.426203	0.024314
	N236	N	0.951602	0.695081	0.400521
	N237	N	0.021849	0.693797	0.575099
	N238	N	0.950614	0.334579	0.575733
	N239	N	0.021815	0.334458	0.402752
	N240	N	0.951610	0.427197	0.670045
	N241	N	0.022773	0.600241	0.667927
	N242	N	0.950464	0.599662	0.310137
	N243	N	0.021934	0.427218	0.309230
	N244	N	0.399057	0.694265	0.954512
	N245	N	0.575242	0.696008	0.024781
	N246	N	0.573231	0.335331	0.953820
	N247	N	0.399306	0.332440	0.023606
	N248	N	0.667622	0.977223	0.401975
	N249	N	0.666401	0.047666	0.576606
	N250	N	0.304653	0.978244	0.577231
	N251	N	0.308316	0.049407	0.404093
	N252	N	0.900910	0.478725	0.168784
	N253	N	0.075504	0.549641	0.171716
	N254	N	0.073836	0.479609	0.809033
	N255	N	0.898917	0.549470	0.808305
	N256	N	0.166665	0.927051	0.452943
	N257	N	0.165947	0.100137	0.524370
	N258	N	0.804584	0.101867	0.454611
	N259	N	0.808205	0.928090	0.525278
	N260	N	0.452328	0.193483	0.902415
	N261	N	0.522274	0.194489	0.076912
	N262	N	0.450757	0.833350	0.076594
	N263	N	0.520952	0.831594	0.901099
	N264	N	0.451240	0.926029	0.170126
	N265	N	0.521560	0.101806	0.170858
	N266	N	0.451341	0.099098	0.810368
	N267	N	0.521230	0.925148	0.808725
	N268	N	0.898495	0.194479	0.454099
	N269	N	0.071909	0.192880	0.524730
	N270	N	0.074995	0.832034	0.453343
	N271	N	0.899201	0.832384	0.523341
	N272	N	0.165658	0.479035	0.903594
	N273	N	0.167813	0.549708	0.077394
	N274	N	0.806867	0.479662	0.076405
	N275	N	0.807243	0.550345	0.902909
	O276	O	0.772824	0.996040	0.122823
	H277	H	0.758042	1.002572	0.129912
	H278	H	0.777369	1.008620	0.116654
	O279	O	-0.202582	-0.133258	1.170089
	H280	H	-0.212791	-0.111980	1.155810
	H281	H	-0.214531	-0.128859	1.144534
	O282	O	0.480997	0.581062	0.460379
	H283	H	0.486324	0.585747	0.463257
	H284	H	0.482412	0.587885	0.447734
	O285	O	0.278813	0.305889	0.698975
	H286	H	0.311157	0.293282	0.706771
	H287	H	0.263435	0.282473	0.728592
	O288	O	1.027123	-0.011233	1.206962
	H289	H	1.033624	0.005920	1.196967
	H290	H	1.005129	-0.035126	1.216102
	O291	O	0.463558	0.672622	0.511745
	H292	H	0.470710	0.690103	0.498929
	H293	H	0.472753	0.680195	0.536497
	O294	O	0.190440	-0.182994	-0.046566
	H295	H	0.169735	-0.194672	-0.018450
	H296	H	0.200466	-0.193782	-0.040594
	O297	O	0.879080	0.042400	-0.104816
	H298	H	0.875391	0.069473	-0.104699
	H299	H	0.867955	0.051049	-0.105879
	O300	O	0.098561	-0.178031	0.075977
	H301	H	0.081478	-0.171740	0.085708
	H302	H	0.081943	-0.168477	0.088422
	O303	O	0.166265	0.035062	0.030270
	H304	H	0.171258	0.027242	0.019569
	H305	H	0.166752	0.031439	0.027946
	O306	O	1.008002	-0.129845	-0.017612
	H307	H	1.004120	-0.126066	0.000649
	H308	H	1.005143	-0.130134	-0.005321
	O309	O	0.385750	0.433048	0.285400
	H310	H	0.385495	0.445442	0.294614
	H311	H	0.379598	0.442274	0.293010
	O312	O	-0.220920	-0.183560	0.047217
	H313	H	-0.216710	-0.191622	0.039270
	H314	H	-0.225033	-0.193219	0.032219
	O315	O	0.266034	0.482569	0.706411
	H316	H	0.246247	0.463489	0.721385
	H317	H	0.255496	0.458660	0.710643
	O318	O	1.203676	0.989756	-0.219620
	H319	H	1.229241	0.985579	-0.246165
	H320	H	1.192152	0.950891	-0.215120
	O321	O	-0.092019	1.110373	1.086488
	H322	H	-0.095548	1.132194	1.089538
	H323	H	-0.102794	1.103891	1.066273
	O324	O	0.886705	-0.084563	0.972496
	H325	H	0.878453	-0.083111	0.975031
	H326	H	0.890810	-0.076490	0.953017
	O327	O	0.517299	0.537809	0.263551
	H328	H	0.501162	0.534892	0.276949
	H329	H	0.510777	0.566851	0.259613
	O330	O	0.272773	0.545015	0.269521
	H331	H	0.246703	0.548497	0.243872
	H332	H	0.276093	0.563030	0.281664
	O333	O	0.444730	0.307644	0.442288
	H334	H	0.422960	0.300862	0.440961
	H335	H	0.438454	0.325298	0.441261
	O336	O	0.764310	0.242825	0.766671
	H337	H	0.793144	0.248340	0.777333
	H338	H	0.741431	0.271529	0.733812
	O339	O	0.284864	0.315644	0.510440
	H340	H	0.284336	0.310414	0.543383
	H341	H	0.263891	0.304025	0.516954
	O342	O	0.173019	1.202475	-0.196474
	H343	H	0.157495	1.191635	-0.170523
	H344	H	0.149893	1.178099	-0.186213
	O345	O	0.515303	0.720512	0.700060
	H346	H	0.512109	0.736928	0.723397
	H347	H	0.496594	0.693825	0.714527
	O348	O	0.582939	0.694666	0.355739
	H349	H	0.589988	0.687975	0.353390
	H350	H	0.602099	0.706899	0.370905
	O351	O	0.215956	0.240624	1.093660
	H352	H	0.233608	0.250818	1.089041
	H353	H	0.222240	0.246429	1.080809
	O354	O	0.786897	0.031400	0.774166
	H355	H	0.757646	0.035439	0.747660
	H356	H	0.792642	0.065991	0.789508
	O357	O	0.703345	0.293838	0.454916
	H358	H	0.702735	0.291532	0.422929
	H359	H	0.722878	0.270232	0.450977
	O360	O	0.515541	0.471057	0.696937
	H361	H	0.501033	0.472261	0.698696
	H362	H	0.508009	0.474452	0.693875
	O363	O	0.430700	0.699214	0.439714
	H364	H	0.437205	0.714282	0.461578
	H365	H	0.431138	0.674800	0.450840
	O366	O	0.999902	0.007646	0.861614
	H367	H	0.997368	0.002899	0.852133
	H368	H	0.986587	0.012940	0.874221
	O369	O	0.047254	0.079772	0.794911
	H370	H	0.045025	0.075242	0.796947
	H371	H	0.064685	0.066346	0.798809
	O372	O	0.176788	0.818918	0.792177
	H373	H	0.137312	0.811507	0.797079
	H374	H	0.190146	0.818180	0.822703
	O375	O	1.010986	-0.195069	-0.220619
	H376	H	1.004386	-0.180394	-0.232143
	H377	H	1.001101	-0.200423	-0.217306
	O378	O	1.016553	0.228750	1.213043
	H379	H	1.040065	0.244927	1.228504
	H380	H	1.044239	0.237328	1.223598
	O381	O	-0.084129	1.197761	-0.201206
	H382	H	-0.083148	1.199977	-0.185858
	H383	H	-0.072885	1.196479	-0.205660
	O384	O	-0.023578	0.206368	0.025702
	H385	H	-0.017415	0.210904	0.051741
	H386	H	-0.038758	0.209664	0.026314
	O387	O	-0.074955	0.878787	1.001227
	H388	H	-0.082049	0.885120	1.004186
	H389	H	-0.072110	0.887351	1.024483
	O390	O	-0.239134	1.236829	0.956854
	H391	H	-0.242863	1.248195	0.955125
	H392	H	-0.251267	1.253359	0.937390
	O393	O	1.129842	0.216623	0.152907
	H394	H	1.130648	0.224722	0.130404
	H395	H	1.130873	0.184258	0.157314
	O396	O	0.483407	0.508091	0.502458
	H397	H	0.491607	0.517887	0.510839
	H398	H	0.472057	0.511839	0.511455
	O399	O	0.702702	0.482525	0.272839
	H400	H	0.719411	0.495118	0.261607
	H401	H	0.691252	0.505839	0.267046
	O402	O	1.677312	0.547436	0.422938
	H403	H	1.666063	0.547612	0.423965
	H404	H	1.679166	0.557322	0.420886
	O405	O	0.293035	0.476019	0.551761
	H406	H	0.292086	0.462889	0.567890
	H407	H	0.288583	0.452323	0.553662
	O408	O	1.049316	1.229895	0.896455
	H409	H	1.034831	1.230655	0.895465
	H410	H	1.033558	1.225988	0.904718
	O411	O	0.655478	0.361576	0.657540
	H412	H	0.639192	0.372530	0.643338
	H413	H	0.647112	0.385837	0.641685
	O414	O	-0.039849	-0.208628	0.213482
	H415	H	-0.043650	-0.245017	0.250460
	H416	H	-0.077653	-0.188843	0.204998
	O417	O	0.297323	0.483352	0.369753
	H418	H	0.302398	0.484207	0.372169
	H419	H	0.295899	0.482971	0.367418
	O420	O	0.854536	0.113917	1.141872
	H421	H	0.852083	0.107037	1.134203
	H422	H	0.852725	0.130054	1.147594
	O423	O	1.239743	0.834262	0.194544
	H424	H	1.229411	0.813881	0.185265
	H425	H	1.240755	0.844516	0.198641
	O426	O	0.356637	0.713058	0.404893
	H427	H	0.350171	0.723462	0.435060
	H428	H	0.386843	0.719372	0.403528
	O429	O	0.466832	0.728649	0.273365
	H430	H	0.460527	0.746312	0.266572
	H431	H	0.455303	0.737220	0.274263
	O432	O	0.827415	0.039399	1.026960
	H433	H	0.828480	0.035463	1.025530
	H434	H	0.827531	0.046742	1.023764
	O435	O	0.450767	0.307021	0.693977
	H436	H	0.460832	0.303911	0.697820
	H437	H	0.469640	0.303373	0.684891
	O438	O	0.448878	0.566661	0.671307
	H439	H	0.431440	0.549939	0.674277
	H440	H	0.436416	0.558259	0.663408
	O441	O	0.678787	0.316188	0.291133
	H442	H	0.687561	0.358526	0.295931
	H443	H	0.635145	0.320819	0.286047
	O444	O	0.688714	0.536836	0.691001
	H445	H	0.677640	0.526301	0.675700
	H446	H	0.712088	0.531130	0.686285
	O447	O	1.124784	0.075506	1.085633
	H448	H	1.133174	0.079805	1.082938
	H449	H	1.128304	0.087154	1.094495
	O450	O	1.708839	0.733608	0.515783
	H451	H	1.730089	0.753113	0.532257
	H452	H	1.711715	0.736095	0.551167
	O453	O	0.611756	0.352463	0.547021
	H454	H	0.595912	0.347841	0.524709
	H455	H	0.618913	0.345035	0.522389
	O456	O	0.165681	1.051098	1.203571
	H457	H	0.180722	1.048573	1.222585
	H458	H	0.160843	1.050881	1.204183
	O459	O	0.272455	0.474287	0.446689
	H460	H	0.270550	0.459368	0.456770
	H461	H	0.269097	0.481793	0.425137
	O462	O	0.683807	0.705632	0.679568
	H463	H	0.679354	0.686104	0.695000
	H464	H	0.658712	0.696973	0.691182
	O465	O	0.509182	0.309270	0.290316
	H466	H	0.498386	0.306871	0.286882
	H467	H	0.496449	0.320434	0.289748
	O468	O	0.297730	0.671426	0.644007
	H469	H	0.298645	0.665950	0.635793
	H470	H	0.291560	0.677606	0.641936
	O471	O	0.829222	0.845775	-0.199337
	H472	H	0.842921	0.861583	-0.200112
	H473	H	0.828239	0.849808	-0.192394
	O474	O	1.975065	1.014988	0.964052
	H475	H	1.951296	1.014058	0.979889
	H476	H	1.981943	1.017101	0.955217
	O477	O	0.633916	0.412239	0.546850
	H478	H	0.644187	0.409857	0.528625
	H479	H	0.624816	0.412109	0.527857
