data_Molecule from HDF5

_cell_length_a		16.154072
_cell_length_b		16.237431
_cell_length_c		16.229092
_cell_angle_alpha	90.841831
_cell_angle_beta	90.410132
_cell_angle_gamma	90.078536
_symmetry_space_group_name_H-M	'P 1'
_symmetry_Int_Tables_number		1

loop_
	_symmetry_equiv_pos_as_xyz
	x,y,z

loop_
	_atom_site_label
	_atom_site_type_symbol
	_atom_site_fract_x
	_atom_site_fract_y
	_atom_site_fract_z
	H0	H	0.390263	0.847103	0.700783
	H1	H	0.594608	0.172206	0.706814
	H2	H	0.590131	0.847151	0.267688
	H3	H	0.390655	0.174161	0.273788
	H4	H	0.702250	0.410776	0.822921
	H5	H	0.708301	0.613747	0.150447
	H6	H	0.275588	0.606064	0.823876
	H7	H	0.278095	0.411435	0.150295
	H8	H	0.828461	0.723046	0.389846
	H9	H	0.157254	0.728276	0.593047
	H10	H	0.828649	0.296079	0.586386
	H11	H	0.156378	0.293443	0.386810
	H12	H	0.826801	0.413218	0.697302
	H13	H	0.155676	0.612426	0.708243
	H14	H	0.828139	0.607456	0.273787
	H15	H	0.156449	0.407533	0.271471
	H16	H	0.389927	0.722542	0.823539
	H17	H	0.595867	0.730302	0.149508
	H18	H	0.593568	0.291056	0.825399
	H19	H	0.394586	0.299330	0.151874
	H20	H	0.704160	0.845026	0.385679
	H21	H	0.707896	0.173766	0.589626
	H22	H	0.278026	0.845419	0.580465
	H23	H	0.275417	0.172842	0.387377
	H24	H	0.893011	0.346003	0.198729
	H25	H	0.093970	0.673348	0.207747
	H26	H	0.091075	0.347162	0.769234
	H27	H	0.891142	0.674138	0.775100
	H28	H	0.201354	0.908469	0.321403
	H29	H	0.209128	0.111601	0.649795
	H30	H	0.776253	0.105583	0.322661
	H31	H	0.777601	0.911898	0.650904
	H32	H	0.327900	0.224338	0.888138
	H33	H	0.656926	0.226499	0.090238
	H34	H	0.329065	0.795942	0.086011
	H35	H	0.656371	0.793208	0.886416
	H36	H	0.327893	0.913767	0.196528
	H37	H	0.655952	0.112083	0.205737
	H38	H	0.328310	0.109196	0.771574
	H39	H	0.656684	0.908216	0.770635
	H40	H	0.890785	0.224232	0.323809
	H41	H	0.094872	0.228682	0.650659
	H42	H	0.092224	0.790984	0.325158
	H43	H	0.894720	0.798134	0.651595
	H44	H	0.205167	0.345631	0.886372
	H45	H	0.209526	0.673626	0.091533
	H46	H	0.777922	0.346208	0.082502
	H47	H	0.777243	0.673702	0.890348
	H48	H	0.401308	0.126958	0.584237
	H49	H	0.584420	0.893153	0.575257
	H50	H	0.579613	0.122697	0.406929
	H51	H	0.399943	0.892370	0.384007
	H52	H	0.583977	0.419256	0.104449
	H53	H	0.584124	0.596782	0.870716
	H54	H	0.408345	0.601073	0.101361
	H55	H	0.399722	0.419497	0.871372
	H56	H	0.110982	0.598856	0.394611
	H57	H	0.877315	0.605783	0.573320
	H58	H	0.111271	0.411314	0.576447
	H59	H	0.871316	0.409023	0.393366
	H60	H	0.105696	0.427927	0.574773
	H61	H	0.876053	0.598728	0.583239
	H62	H	0.111649	0.605094	0.398202
	H63	H	0.878905	0.420803	0.400487
	H64	H	0.402394	0.611437	0.107065
	H65	H	0.579817	0.603141	0.870780
	H66	H	0.587520	0.417589	0.106975
	H67	H	0.403491	0.413948	0.871145
	H68	H	0.594475	0.129737	0.397343
	H69	H	0.585598	0.892472	0.578280
	H70	H	0.405283	0.124587	0.577858
	H71	H	0.400081	0.894849	0.393276
	H72	H	0.902007	0.626478	0.080870
	H73	H	0.067166	0.398287	0.080901
	H74	H	0.086771	0.626142	0.903481
	H75	H	0.891928	0.391164	0.889610
	H76	H	0.079676	0.916417	0.604495
	H77	H	0.083115	0.096396	0.371751
	H78	H	0.896984	0.097311	0.602647
	H79	H	0.896849	0.912147	0.369181
	H80	H	0.615444	0.116333	0.896345
	H81	H	0.377206	0.095106	0.080763
	H82	H	0.606164	0.931132	0.075296
	H83	H	0.376886	0.925430	0.889518
	H84	H	0.614292	0.918833	0.088991
	H85	H	0.369648	0.111063	0.089973
	H86	H	0.604231	0.096572	0.910994
	H87	H	0.371491	0.910822	0.888043
	H88	H	0.908738	0.104824	0.601164
	H89	H	0.077642	0.105133	0.369942
	H90	H	0.093412	0.916994	0.607768
	H91	H	0.897760	0.916660	0.371196
	H92	H	0.085563	0.628541	0.894187
	H93	H	0.091809	0.396062	0.062187
	H94	H	0.898884	0.627925	0.081577
	H95	H	0.900002	0.391819	0.887682
	H96	H	0.397369	0.127206	0.576544
	H97	H	0.582008	0.892867	0.578058
	H98	H	0.578113	0.127709	0.388183
	H99	H	0.391681	0.890789	0.389233
	H100	H	0.587937	0.421786	0.104599
	H101	H	0.587295	0.603138	0.868315
	H102	H	0.395803	0.600859	0.104492
	H103	H	0.396817	0.414488	0.869658
	H104	H	0.108715	0.599294	0.401595
	H105	H	0.872259	0.611343	0.584656
	H106	H	0.113053	0.422416	0.589986
	H107	H	0.874433	0.421540	0.386091
	H108	H	0.901347	0.627166	0.084241
	H109	H	0.094499	0.386366	0.092054
	H110	H	0.077619	0.624761	0.898884
	H111	H	0.898160	0.393667	0.894911
	H112	H	0.087690	0.928112	0.601695
	H113	H	0.087033	0.104897	0.367514
	H114	H	0.897755	0.110963	0.607454
	H115	H	0.901180	0.914536	0.370033
	H116	H	0.610686	0.091794	0.885152
	H117	H	0.375622	0.111455	0.070834
	H118	H	0.610610	0.912257	0.070749
	H119	H	0.376502	0.915113	0.901853
	C120	C	0.371032	0.018353	0.606921
	C121	C	0.614379	1.000835	0.608989
	C122	C	0.612736	0.018519	0.365781
	C123	C	0.368731	1.000983	0.362407
	C124	C	0.614217	0.388891	-0.003098
	C125	C	0.614076	0.632379	0.978051
	C126	C	0.370955	0.631623	-0.003869
	C127	C	0.371171	0.388418	0.978694
	C128	C	0.001834	0.630051	0.368439
	C129	C	0.983906	0.634380	0.611533
	C130	C	0.001204	0.390752	0.608464
	C131	C	0.983538	0.387725	0.364690
	C132	C	0.871045	0.518786	0.109095
	C133	C	0.114842	0.501417	0.110183
	C134	C	0.112685	0.518496	0.867328
	C135	C	0.869075	0.500915	0.864448
	C136	C	0.114292	0.889045	0.496126
	C137	C	0.113657	0.132517	0.477894
	C138	C	0.870916	0.131708	0.495820
	C139	C	0.870705	0.887549	0.478757
	C140	C	0.501229	0.130874	0.867394
	C141	C	0.483143	0.134474	0.110661
	C142	C	0.501528	0.891081	0.106280
	C143	C	0.483342	0.887150	0.863823
	C144	C	0.371568	0.895452	0.661815
	C145	C	0.614099	0.123389	0.667554
	C146	C	0.610294	0.895556	0.307287
	C147	C	0.370836	0.124674	0.310110
	C148	C	0.666699	0.390238	0.872628
	C149	C	0.670865	0.633095	0.101173
	C150	C	0.314014	0.627202	0.872684
	C151	C	0.316167	0.391460	0.101763
	C152	C	0.877841	0.685496	0.369544
	C153	C	0.107620	0.690201	0.611998
	C154	C	0.877752	0.334139	0.606393
	C155	C	0.107408	0.331401	0.366752
	C156	C	0.876793	0.392630	0.661619
	C157	C	0.106994	0.632530	0.669322
	C158	C	0.877586	0.628007	0.311649
	C159	C	0.107228	0.387875	0.309040
	C160	C	0.370651	0.685522	0.872782
	C161	C	0.614662	0.690937	0.100687
	C162	C	0.612581	0.330540	0.873913
	C163	C	0.373777	0.335321	0.102375
	C164	C	0.667113	0.894605	0.365921
	C165	C	0.670291	0.124132	0.609193
	C166	C	0.315186	0.895036	0.602418
	C167	C	0.313371	0.124044	0.366551
	C168	C	0.872740	0.395368	0.162176
	C169	C	0.114140	0.624408	0.168512
	C170	C	0.111035	0.395767	0.808544
	C171	C	0.871333	0.624756	0.811836
	C172	C	0.166033	0.889014	0.371493
	C173	C	0.170788	0.131404	0.601003
	C174	C	0.814155	0.127515	0.372114
	C175	C	0.815260	0.890949	0.601937
	C176	C	0.377338	0.186574	0.868098
	C177	C	0.607539	0.188892	0.109869
	C178	C	0.378059	0.834502	0.105091
	C179	C	0.606975	0.830920	0.865779
	C180	C	0.377378	0.893145	0.159969
	C181	C	0.606913	0.132015	0.167359
	C182	C	0.377484	0.129427	0.810118
	C183	C	0.607038	0.888150	0.808096
	C184	C	0.871065	0.186351	0.372576
	C185	C	0.113877	0.189672	0.601525
	C186	C	0.111835	0.830148	0.373460
	C187	C	0.874039	0.834724	0.602444
	C188	C	0.167904	0.395133	0.866747
	C189	C	0.171500	0.624498	0.110597
	C190	C	0.815658	0.395332	0.104108
	C191	C	0.814470	0.624781	0.868965
	C192	C	0.394454	0.104125	0.585817
	C193	C	0.590938	0.914959	0.584432
	C194	C	0.590657	0.104461	0.390332
	C195	C	0.390670	0.914816	0.382916
	C196	C	0.592746	0.412651	0.083023
	C197	C	0.590494	0.608045	0.892187
	C198	C	0.395069	0.610676	0.082092
	C199	C	0.393403	0.409686	0.892969
	C200	C	0.088141	0.607655	0.391518
	C201	C	0.897557	0.611813	0.587496
	C202	C	0.087721	0.413824	0.586791
	C203	C	0.897441	0.410281	0.386827
	C204	C	0.893826	0.605004	0.088245
	C205	C	0.091496	0.415758	0.085624
	C206	C	0.090060	0.604283	0.891700
	C207	C	0.890430	0.414574	0.884657
	C208	C	0.093195	0.913345	0.582347
	C209	C	0.089769	0.109019	0.391940
	C210	C	0.894195	0.110385	0.581627
	C211	C	0.892389	0.908347	0.392439
	C212	C	0.587611	0.108350	0.890826
	C213	C	0.396400	0.112523	0.087302
	C214	C	0.587902	0.914052	0.084621
	C215	C	0.397265	0.910332	0.886386
	Zn216	Zn	0.492312	0.009987	0.737600
	Zn217	Zn	0.491487	0.010812	0.236082
	Zn218	Zn	0.741796	0.510733	-0.013073
	Zn219	Zn	0.242767	0.509577	-0.012360
	Zn220	Zn	-0.006052	0.760863	0.488431
	Zn221	Zn	-0.007177	0.262126	0.487512
	Zn222	Zn	-0.008995	0.510660	0.738070
	Zn223	Zn	-0.007281	0.509270	0.238071
	Zn224	Zn	0.492371	0.760707	-0.012871
	Zn225	Zn	0.492756	0.260866	-0.011346
	Zn226	Zn	0.741910	0.009431	0.487122
	Zn227	Zn	0.241417	0.009820	0.484770
	N228	N	0.405608	0.973143	0.664805
	N229	N	0.579901	0.045766	0.667569
	N230	N	0.577207	0.973660	0.307113
	N231	N	0.404567	0.046988	0.307172
	N232	N	0.668200	0.425731	0.950182
	N233	N	0.670810	0.597273	0.023762
	N234	N	0.313620	0.595009	0.950581
	N235	N	0.314186	0.423705	0.023894
	N236	N	0.956027	0.686942	0.404060
	N237	N	0.029869	0.691493	0.576830
	N238	N	0.956224	0.332911	0.573970
	N239	N	0.029469	0.331053	0.400594
	N240	N	0.954550	0.427229	0.663134
	N241	N	0.028904	0.598611	0.669345
	N242	N	0.955732	0.594494	0.310658
	N243	N	0.029296	0.421977	0.307582
	N244	N	0.405449	0.688391	0.950533
	N245	N	0.579941	0.690566	0.023006
	N246	N	0.580830	0.329454	0.952198
	N247	N	0.407612	0.333407	0.024922
	N248	N	0.668483	0.972084	0.401625
	N249	N	0.670884	0.046632	0.573676
	N250	N	0.314897	0.972429	0.568979
	N251	N	0.311641	0.046082	0.398191
	N252	N	0.906515	0.473141	0.165252
	N253	N	0.079439	0.546962	0.168166
	N254	N	0.077298	0.473530	0.808722
	N255	N	0.904347	0.546860	0.808889
	N256	N	0.167771	0.925096	0.448817
	N257	N	0.170867	0.096761	0.523064
	N258	N	0.813951	0.094189	0.449652
	N259	N	0.813030	0.923074	0.524056
	N260	N	0.455319	0.187466	0.903030
	N261	N	0.529445	0.190608	0.075617
	N262	N	0.456368	0.833037	0.072584
	N263	N	0.529158	0.830248	0.899724
	N264	N	0.455145	0.927817	0.160989
	N265	N	0.528462	0.099076	0.168119
	N266	N	0.455652	0.095838	0.809408
	N267	N	0.529003	0.922357	0.806593
	N268	N	0.905685	0.189267	0.450268
	N269	N	0.078978	0.190432	0.524018
	N270	N	0.080471	0.830030	0.452025
	N271	N	0.907743	0.832583	0.524800
	N272	N	0.168862	0.472411	0.902704
	N273	N	0.171826	0.546974	0.074942
	N274	N	0.814352	0.473281	0.072004
	N275	N	0.812765	0.546822	0.901063
	O276	O	0.880218	0.064807	0.941905
	H277	H	0.886243	0.075011	0.949536
	H278	H	0.878323	0.058412	0.939052
	O279	O	0.547582	0.645165	0.433006
	H280	H	0.537403	0.636237	0.433090
	H281	H	0.551868	0.635304	0.434130
	O282	O	0.623275	0.381775	0.385192
	H283	H	0.624099	0.382685	0.382065
	H284	H	0.630687	0.382476	0.388667
	O285	O	0.630134	0.591842	0.485019
	H286	H	0.626457	0.588280	0.483490
	H287	H	0.627902	0.582216	0.496278
	O288	O	0.647433	0.500063	0.394840
	H289	H	0.649336	0.503308	0.389842
	H290	H	0.640028	0.509946	0.408707
	O291	O	0.416558	-0.381286	1.508633
	H292	H	0.421540	-0.374603	1.517321
	H293	H	0.422428	-0.371379	1.497652
	O294	O	1.008257	1.075713	-0.062012
	H295	H	1.002619	1.079598	-0.062273
	H296	H	0.998759	1.076863	-0.070673
	O297	O	0.921992	1.125487	-0.023747
	H298	H	0.920665	1.121114	-0.020758
	H299	H	0.920944	1.120024	-0.026451
	O300	O	0.524409	0.474031	0.530008
	H301	H	0.515800	0.473566	0.534274
	H302	H	0.520136	0.466307	0.519980
	O303	O	0.492391	0.681233	0.528922
	H304	H	0.482648	0.691802	0.525705
	H305	H	0.501223	0.685548	0.512882
	O306	O	0.597514	0.459569	0.630164
	H307	H	0.598741	0.452864	0.631547
	H308	H	0.590202	0.468425	0.618655
	O309	O	0.467588	0.546016	0.464408
	H310	H	0.473758	0.523861	0.469958
	H311	H	0.462910	0.554477	0.470071
	O312	O	0.909494	0.997856	1.104750
	H313	H	0.912511	1.007115	1.109988
	H314	H	0.907070	0.993707	1.104325
	O315	O	1.047509	0.945646	-0.061500
	H316	H	1.049879	0.948519	-0.059435
	H317	H	1.062247	0.931592	-0.071659
	O318	O	0.120032	0.142737	1.077981
	H319	H	0.131687	0.139485	1.073406
	H320	H	0.127546	0.147688	1.086453
	O321	O	0.497889	0.429202	0.461031
	H322	H	0.505261	0.427317	0.466987
	H323	H	0.511121	0.427080	0.465398
	O324	O	0.077599	1.072745	1.003020
	H325	H	0.087304	1.072901	1.003939
	H326	H	0.075525	1.078745	1.006772
	O327	O	-0.014541	1.023325	0.857102
	H328	H	-0.016038	1.024289	0.850384
	H329	H	-0.015678	1.014898	0.856025
	O330	O	0.009997	0.023766	-0.123350
	H331	H	0.009095	0.019520	-0.115879
	H332	H	0.012307	0.021504	-0.141574
	O333	O	0.423539	0.491139	0.408842
	H334	H	0.414306	0.491174	0.413732
	H335	H	0.432756	0.488936	0.401812
	O336	O	-0.106013	-0.004519	0.037077
	H337	H	-0.096144	-0.003755	0.037279
	H338	H	-0.107434	-0.018630	0.041919
	O339	O	0.075035	-0.142270	-0.098769
	H340	H	0.058142	-0.141436	-0.094937
	H341	H	0.075013	-0.148006	-0.108095
	O342	O	0.622058	0.439475	0.500385
	H343	H	0.630772	0.442073	0.495852
	H344	H	0.616343	0.439063	0.503292
	O345	O	-0.010714	0.893302	1.029275
	H346	H	-0.008195	0.880313	1.025172
	H347	H	-0.008143	0.895836	1.033885
	O348	O	0.010298	-0.073814	0.961050
	H349	H	0.015960	-0.085144	0.973494
	H350	H	0.001786	-0.058230	0.959189
	O351	O	0.467840	0.571116	0.420118
	H352	H	0.464775	0.569010	0.414718
	H353	H	0.478677	0.580447	0.426894
	O354	O	0.062406	1.060383	0.023588
	H355	H	0.059193	1.060757	0.026682
	H356	H	0.065402	1.054566	0.026423
	O357	O	0.618377	0.562861	0.599423
	H358	H	0.641513	0.564128	0.601165
	H359	H	0.611179	0.549056	0.582480
	O360	O	1.372798	-0.555194	1.561042
	H361	H	1.364258	-0.541765	1.548095
	H362	H	1.358228	-0.561598	1.585032
	O363	O	0.396625	0.519501	0.457599
	H364	H	0.401691	0.522294	0.471054
	H365	H	0.380970	0.528807	0.443351
	O366	O	0.383109	0.418220	0.560376
	H367	H	0.378555	0.419861	0.562849
	H368	H	0.376199	0.409983	0.575619
	O369	O	0.960564	0.051113	0.000250
	H370	H	0.967656	0.057396	0.008547
	H371	H	0.961982	0.063233	-0.005179
	O372	O	0.403794	0.481099	0.553335
	H373	H	0.406973	0.473087	0.549607
	H374	H	0.405558	0.491511	0.544668
	O375	O	0.929151	-0.118722	0.952050
	H376	H	0.941383	-0.106758	0.961568
	H377	H	0.940369	-0.123796	0.952785
	O378	O	-0.030963	0.923371	-0.089007
	H379	H	-0.036576	0.936326	-0.100917
	H380	H	-0.039794	0.930252	-0.087676
	O381	O	0.390508	0.445454	0.483746
	H382	H	0.392582	0.455756	0.491035
	H383	H	0.395214	0.441520	0.486008
	O384	O	1.037176	0.997217	0.046583
	H385	H	1.039837	0.998541	0.044344
	H386	H	1.047696	0.985875	0.042964
	O387	O	1.488707	0.346518	1.432057
	H388	H	1.493743	0.349423	1.422774
	H389	H	1.479174	0.348529	1.432924
	O390	O	1.017547	1.121586	0.077668
	H391	H	1.023522	1.124714	0.077459
	H392	H	0.998195	1.123857	0.075011
	O393	O	0.418154	0.604620	0.520722
	H394	H	0.435136	0.611459	0.532541
	H395	H	0.430606	0.601201	0.517283
