data_Molecule from HDF5

_cell_length_a		16.355768
_cell_length_b		16.167615
_cell_length_c		16.050319
_cell_angle_alpha	90.256170
_cell_angle_beta	89.958753
_cell_angle_gamma	90.448941
_symmetry_space_group_name_H-M	'P 1'
_symmetry_Int_Tables_number		1

loop_
	_symmetry_equiv_pos_as_xyz
	x,y,z

loop_
	_atom_site_label
	_atom_site_type_symbol
	_atom_site_fract_x
	_atom_site_fract_y
	_atom_site_fract_z
	H0	H	0.407668	0.834681	0.705515
	H1	H	0.602318	0.165427	0.708857
	H2	H	0.599270	0.834654	0.282976
	H3	H	0.411830	0.166611	0.286968
	H4	H	0.716346	0.398671	0.833223
	H5	H	0.717358	0.603086	0.161748
	H6	H	0.288960	0.598418	0.832222
	H7	H	0.285382	0.399718	0.162229
	H8	H	0.841122	0.713066	0.398842
	H9	H	0.166818	0.715942	0.597554
	H10	H	0.841876	0.281890	0.597579
	H11	H	0.167377	0.285164	0.396867
	H12	H	0.839514	0.402554	0.708163
	H13	H	0.166553	0.599107	0.712549
	H14	H	0.839106	0.594814	0.286234
	H15	H	0.166512	0.402188	0.280396
	H16	H	0.404629	0.710951	0.830622
	H17	H	0.599131	0.713635	0.162565
	H18	H	0.596998	0.290232	0.830449
	H19	H	0.402687	0.285814	0.162767
	H20	H	0.719290	0.836173	0.393921
	H21	H	0.723101	0.163526	0.599137
	H22	H	0.285705	0.837204	0.598013
	H23	H	0.289028	0.164311	0.394780
	H24	H	0.904032	0.333985	0.208630
	H25	H	0.099693	0.665191	0.209814
	H26	H	0.095278	0.333653	0.787117
	H27	H	0.905840	0.664866	0.784619
	H28	H	0.218504	0.898712	0.331187
	H29	H	0.220102	0.102710	0.661187
	H30	H	0.792362	0.097738	0.331793
	H31	H	0.788462	0.898833	0.662268
	H32	H	0.339665	0.212372	0.897479
	H33	H	0.665213	0.217523	0.096016
	H34	H	0.339408	0.784957	0.095662
	H35	H	0.665902	0.783507	0.895559
	H36	H	0.340729	0.901287	0.212229
	H37	H	0.668368	0.099132	0.208468
	H38	H	0.340249	0.096838	0.781163
	H39	H	0.667520	0.903307	0.781882
	H40	H	0.907804	0.210766	0.331381
	H41	H	0.102242	0.212274	0.663086
	H42	H	0.101430	0.786681	0.331263
	H43	H	0.907055	0.788135	0.664047
	H44	H	0.216518	0.336932	0.894180
	H45	H	0.220555	0.663021	0.101033
	H46	H	0.783797	0.336394	0.098881
	H47	H	0.786611	0.663760	0.896006
	H48	H	0.412361	0.115892	0.580405
	H49	H	0.603635	0.881297	0.583332
	H50	H	0.590278	0.115188	0.404228
	H51	H	0.405779	0.880494	0.402119
	H52	H	0.603419	0.403239	0.121419
	H53	H	0.589503	0.593479	0.879086
	H54	H	0.411958	0.603770	0.118841
	H55	H	0.412706	0.419855	0.884251
	H56	H	0.119353	0.588533	0.400467
	H57	H	0.881488	0.604900	0.597469
	H58	H	0.118685	0.409021	0.584494
	H59	H	0.888698	0.407539	0.404615
	H60	H	0.120965	0.410447	0.597804
	H61	H	0.890966	0.593844	0.578363
	H62	H	0.123008	0.599283	0.400287
	H63	H	0.885921	0.401701	0.402019
	H64	H	0.398328	0.587378	0.118369
	H65	H	0.600833	0.595407	0.875202
	H66	H	0.594740	0.419911	0.113434
	H67	H	0.416230	0.394363	0.877796
	H68	H	0.607207	0.117178	0.414605
	H69	H	0.597991	0.880606	0.593744
	H70	H	0.403005	0.122114	0.591079
	H71	H	0.413318	0.882624	0.402963
	H72	H	0.913381	0.616069	0.089831
	H73	H	0.092839	0.382294	0.089107
	H74	H	0.102864	0.619699	0.906731
	H75	H	0.914701	0.384775	0.905946
	H76	H	0.099896	0.914794	0.614660
	H77	H	0.105315	0.092718	0.375659
	H78	H	0.912787	0.091940	0.616614
	H79	H	0.907972	0.896170	0.374289
	H80	H	0.619720	0.099844	0.906956
	H81	H	0.386451	0.093442	0.093007
	H82	H	0.622632	0.906737	0.098406
	H83	H	0.385079	0.886192	0.911344
	H84	H	0.619210	0.898665	0.081489
	H85	H	0.387227	0.093300	0.089585
	H86	H	0.618162	0.091011	0.904991
	H87	H	0.395602	0.921067	0.913428
	H88	H	0.910887	0.090376	0.616844
	H89	H	0.094355	0.084747	0.380409
	H90	H	0.090762	0.908614	0.613778
	H91	H	0.904477	0.914509	0.379833
	H92	H	0.093614	0.618978	0.901058
	H93	H	0.092686	0.383374	0.084358
	H94	H	0.905226	0.617145	0.085364
	H95	H	0.900354	0.382512	0.910271
	H96	H	0.416556	0.118190	0.594555
	H97	H	0.591361	0.884877	0.583794
	H98	H	0.607211	0.123081	0.395031
	H99	H	0.408622	0.883879	0.409450
	H100	H	0.583633	0.403082	0.114586
	H101	H	0.597221	0.584421	0.879183
	H102	H	0.418769	0.585229	0.110607
	H103	H	0.393512	0.405210	0.873293
	H104	H	0.118796	0.594679	0.409595
	H105	H	0.887884	0.582035	0.597731
	H106	H	0.124190	0.398894	0.591904
	H107	H	0.888734	0.401780	0.408633
	H108	H	0.906016	0.619677	0.095099
	H109	H	0.096426	0.381846	0.086582
	H110	H	0.094288	0.615796	0.911038
	H111	H	0.904226	0.379102	0.897088
	H112	H	0.099832	0.904036	0.617750
	H113	H	0.093307	0.098011	0.377699
	H114	H	0.913171	0.089911	0.615012
	H115	H	0.921579	0.907774	0.381992
	H116	H	0.621710	0.096644	0.897426
	H117	H	0.386367	0.090864	0.091447
	H118	H	0.615852	0.916543	0.084074
	H119	H	0.381174	0.907111	0.881818
	C120	C	0.382025	0.009637	0.617201
	C121	C	0.626774	0.991147	0.617343
	C122	C	0.627624	0.009222	0.375028
	C123	C	0.382283	0.991784	0.375415
	C124	C	0.622059	0.379966	0.006667
	C125	C	0.623872	0.621181	0.987488
	C126	C	0.381627	0.620276	0.005949
	C127	C	0.378800	0.377573	0.987996
	C128	C	0.012341	0.621134	0.375530
	C129	C	0.994789	0.622400	0.620147
	C130	C	0.012779	0.377619	0.619411
	C131	C	0.995415	0.376218	0.374966
	C132	C	0.879569	0.508653	0.118705
	C133	C	0.123704	0.491006	0.117808
	C134	C	0.123707	0.508906	0.876532
	C135	C	0.879260	0.491067	0.875667
	C136	C	0.125205	0.879722	0.505890
	C137	C	0.126192	0.121250	0.487478
	C138	C	0.884501	0.119186	0.506320
	C139	C	0.882312	0.877347	0.488134
	C140	C	0.511687	0.122086	0.874531
	C141	C	0.494532	0.122428	0.119346
	C142	C	0.511468	0.878529	0.117608
	C143	C	0.495042	0.876797	0.873143
	C144	C	0.385768	0.884643	0.669981
	C145	C	0.623727	0.115796	0.672109
	C146	C	0.621700	0.884367	0.320136
	C147	C	0.388525	0.116680	0.322362
	C148	C	0.677472	0.380460	0.882136
	C149	C	0.679059	0.621508	0.112456
	C150	C	0.326646	0.618386	0.881295
	C151	C	0.323332	0.379325	0.112814
	C152	C	0.889546	0.675531	0.378441
	C153	C	0.117902	0.677918	0.617972
	C154	C	0.890355	0.320868	0.617275
	C155	C	0.118323	0.322601	0.376561
	C156	C	0.888980	0.380793	0.672283
	C157	C	0.117642	0.619965	0.675498
	C158	C	0.888459	0.616423	0.322646
	C159	C	0.117719	0.380745	0.318639
	C160	C	0.384386	0.674183	0.880516
	C161	C	0.620581	0.676846	0.112773
	C162	C	0.618192	0.326298	0.880810
	C163	C	0.381981	0.323206	0.113153
	C164	C	0.681135	0.885054	0.375167
	C165	C	0.684061	0.114607	0.617899
	C166	C	0.325285	0.885826	0.616339
	C167	C	0.327730	0.115581	0.376277
	C168	C	0.882762	0.384015	0.172431
	C169	C	0.121057	0.615424	0.173230
	C170	C	0.117903	0.383821	0.822723
	C171	C	0.883913	0.615187	0.821346
	C172	C	0.180279	0.880022	0.380736
	C173	C	0.181801	0.121170	0.611982
	C174	C	0.830183	0.117137	0.381147
	C175	C	0.826781	0.879324	0.612900
	C176	C	0.388659	0.175598	0.876788
	C177	C	0.616884	0.179201	0.116352
	C178	C	0.388291	0.823264	0.115769
	C179	C	0.617301	0.821409	0.875197
	C180	C	0.388967	0.881038	0.173811
	C181	C	0.618439	0.120266	0.172453
	C182	C	0.388757	0.117770	0.819172
	C183	C	0.618112	0.881268	0.818773
	C184	C	0.887506	0.173697	0.381025
	C185	C	0.123457	0.175837	0.613049
	C186	C	0.122108	0.824137	0.380741
	C187	C	0.886020	0.824279	0.613870
	C188	C	0.178341	0.385487	0.876007
	C189	C	0.181063	0.614528	0.119089
	C190	C	0.823078	0.384988	0.117375
	C191	C	0.824771	0.614708	0.877022
	C192	C	0.403912	0.096343	0.595034
	C193	C	0.604160	0.904734	0.593799
	C194	C	0.607586	0.096022	0.397894
	C195	C	0.403026	0.904900	0.398074
	C196	C	0.600340	0.402342	0.094001
	C197	C	0.602273	0.597912	0.900399
	C198	C	0.403261	0.598552	0.093342
	C199	C	0.400659	0.399995	0.900926
	C200	C	0.098265	0.600343	0.397076
	C201	C	0.908962	0.600107	0.598022
	C202	C	0.098942	0.399776	0.597855
	C203	C	0.909782	0.397413	0.398216
	C204	C	0.901721	0.595185	0.096481
	C205	C	0.100842	0.404852	0.093810
	C206	C	0.102999	0.595703	0.899497
	C207	C	0.899987	0.404384	0.897913
	C208	C	0.103219	0.902371	0.592803
	C209	C	0.104255	0.098402	0.400466
	C210	C	0.905997	0.097229	0.593548
	C211	C	0.904606	0.899790	0.401001
	C212	C	0.597574	0.101686	0.896689
	C213	C	0.408723	0.099348	0.097891
	C214	C	0.597004	0.900932	0.094723
	C215	C	0.409324	0.898467	0.895490
	Zn216	Zn	0.504168	0.000603	0.744513
	Zn217	Zn	0.504703	0.000505	0.248082
	Zn218	Zn	0.750495	0.500051	-0.002600
	Zn219	Zn	0.252424	0.500297	-0.003298
	Zn220	Zn	0.004227	0.750726	0.497200
	Zn221	Zn	0.005350	0.247525	0.498001
	Zn222	Zn	0.003003	0.499332	0.748359
	Zn223	Zn	0.002401	0.499528	0.246168
	Zn224	Zn	0.502618	0.747766	-0.003650
	Zn225	Zn	0.502159	0.251479	-0.003184
	Zn226	Zn	0.755610	-0.000693	0.496964
	Zn227	Zn	0.253342	0.001047	0.496285
	N228	N	0.420343	0.962468	0.670709
	N229	N	0.588986	0.038042	0.671972
	N230	N	0.589224	0.962567	0.319753
	N231	N	0.421745	0.038743	0.321909
	N232	N	0.679981	0.412950	0.961458
	N233	N	0.681288	0.587673	0.033668
	N234	N	0.324934	0.585394	0.960167
	N235	N	0.321397	0.412559	0.034016
	N236	N	0.967482	0.678490	0.410798
	N237	N	0.040574	0.679679	0.584420
	N238	N	0.968365	0.318983	0.584869
	N239	N	0.041202	0.319788	0.411059
	N240	N	0.966067	0.415174	0.673932
	N241	N	0.040202	0.585903	0.676786
	N242	N	0.965585	0.583052	0.320905
	N243	N	0.040219	0.413231	0.317619
	N244	N	0.417679	0.675510	0.959195
	N245	N	0.587230	0.676961	0.034103
	N246	N	0.584217	0.326047	0.959170
	N247	N	0.415488	0.321862	0.034575
	N248	N	0.684902	0.963551	0.408655
	N249	N	0.686168	0.035938	0.584783
	N250	N	0.322800	0.964530	0.584180
	N251	N	0.323689	0.036737	0.408358
	N252	N	0.917381	0.461804	0.173374
	N253	N	0.085898	0.537699	0.172405
	N254	N	0.084708	0.461707	0.822797
	N255	N	0.917263	0.537350	0.820316
	N256	N	0.182509	0.913903	0.459534
	N257	N	0.183599	0.087775	0.532973
	N258	N	0.828044	0.084113	0.460068
	N259	N	0.824574	0.911714	0.533783
	N260	N	0.465964	0.178599	0.910371
	N261	N	0.538969	0.180792	0.084083
	N262	N	0.465445	0.821349	0.081739
	N263	N	0.539714	0.818808	0.908510
	N264	N	0.466528	0.914973	0.174818
	N265	N	0.541408	0.085403	0.174364
	N266	N	0.466269	0.085200	0.817669
	N267	N	0.541136	0.914975	0.817597
	N268	N	0.920750	0.175084	0.459703
	N269	N	0.089465	0.176048	0.534692
	N270	N	0.088565	0.823713	0.459397
	N271	N	0.919719	0.822816	0.535218
	N272	N	0.182082	0.464254	0.908783
	N273	N	0.182992	0.536181	0.085378
	N274	N	0.820920	0.463563	0.084695
	N275	N	0.821778	0.536329	0.909988
	O276	O	0.971083	0.937395	-0.004310
	H277	H	0.974126	0.944980	0.004608
	H278	H	0.970431	0.936730	-0.003581
	O279	O	0.108071	0.016566	0.917715
	H280	H	0.107222	0.016498	0.917565
	H281	H	0.103537	0.012388	0.918097
	O282	O	-0.076051	-0.063719	-0.044986
	H283	H	-0.068609	-0.058394	-0.038462
	H284	H	-0.088175	-0.049182	-0.046788
	O285	O	0.521645	0.499578	0.484290
	H286	H	0.518702	0.507239	0.485706
	H287	H	0.521993	0.504172	0.479195
	O288	O	-0.060394	0.016154	0.044122
	H289	H	-0.053818	0.033054	0.040773
	H290	H	-0.052519	0.019188	0.050302
	O291	O	-0.079069	1.055486	0.029558
	H292	H	-0.083305	1.055942	0.037357
	H293	H	-0.075744	1.054575	0.039012
	O294	O	-0.011640	1.077257	-0.011713
	H295	H	-0.015180	1.087444	-0.011463
	H296	H	-0.005410	1.086277	-0.012172
	O297	O	0.550880	0.547996	0.516722
	H298	H	0.558050	0.540246	0.515928
	H299	H	0.554326	0.548367	0.523619
	O300	O	0.564983	0.516814	0.555052
	H301	H	0.560606	0.510533	0.543649
	H302	H	0.560923	0.510645	0.541969
	O303	O	0.998610	-0.030829	1.005197
	H304	H	1.005303	-0.036976	0.999294
	H305	H	0.989406	-0.038540	1.008550
	O306	O	-0.091172	1.112671	1.039024
	H307	H	-0.085555	1.122947	1.035593
	H308	H	-0.083407	1.113683	1.040821
	O309	O	0.080252	1.047506	1.009100
	H310	H	0.096633	1.044194	1.013221
	H311	H	0.086553	1.050755	1.009820
	O312	O	0.036250	0.081993	1.106241
	H313	H	0.045057	0.076802	1.096886
	H314	H	0.033090	0.065499	1.112784
	O315	O	0.065440	-0.021894	-0.010036
	H316	H	0.062110	-0.021006	-0.013627
	H317	H	0.076253	-0.032513	-0.009220
	O318	O	0.040318	0.000293	1.019390
	H319	H	0.036573	-0.003827	1.018145
	H320	H	0.036923	-0.003643	1.011257
	O321	O	0.535276	0.518784	0.483605
	H322	H	0.535817	0.518954	0.479143
	H323	H	0.533293	0.514838	0.474422
	O324	O	1.021319	-0.075555	0.882082
	H325	H	1.018484	-0.078420	0.885310
	H326	H	1.013299	-0.069262	0.884754
	O327	O	1.089690	1.039068	0.933430
	H328	H	1.086287	1.045960	0.925627
	H329	H	1.091937	1.034487	0.922375
	O330	O	0.542872	0.482793	0.496319
	H331	H	0.552558	0.470898	0.503167
	H332	H	0.546339	0.483571	0.503509
	O333	O	1.029616	-0.037398	0.001146
	H334	H	1.032947	-0.037911	0.007841
	H335	H	1.015875	-0.047796	0.002773
	O336	O	0.545130	0.517359	0.553474
	H337	H	0.552163	0.520307	0.551326
	H338	H	0.547738	0.523406	0.543383
	O339	O	0.581473	0.522174	0.514539
	H340	H	0.590182	0.532839	0.525021
	H341	H	0.581761	0.527044	0.523813
	O342	O	-0.009552	0.928713	1.036825
	H343	H	-0.009685	0.918753	1.033384
	H344	H	-0.011149	0.934347	1.037178
	O345	O	0.571114	0.500084	0.511793
	H346	H	0.571069	0.499493	0.520080
	H347	H	0.572342	0.499801	0.522297
