data_Molecule from HDF5

_cell_length_a		16.613571
_cell_length_b		16.736603
_cell_length_c		16.527297
_cell_angle_alpha	90.079644
_cell_angle_beta	89.830597
_cell_angle_gamma	89.967858
_symmetry_space_group_name_H-M	'P 1'
_symmetry_Int_Tables_number		1

loop_
	_symmetry_equiv_pos_as_xyz
	x,y,z

loop_
	_atom_site_label
	_atom_site_type_symbol
	_atom_site_fract_x
	_atom_site_fract_y
	_atom_site_fract_z
	H0	H	0.385892	0.839223	0.715716
	H1	H	0.603621	0.143230	0.715656
	H2	H	0.594141	0.832110	0.275812
	H3	H	0.390171	0.144265	0.267892
	H4	H	0.718732	0.384100	0.836276
	H5	H	0.717107	0.597422	0.145682
	H6	H	0.277954	0.591983	0.832524
	H7	H	0.274160	0.386196	0.146745
	H8	H	0.841706	0.715743	0.382456
	H9	H	0.148895	0.715283	0.599557
	H10	H	0.838764	0.272461	0.594148
	H11	H	0.147336	0.265324	0.378751
	H12	H	0.838886	0.389445	0.710171
	H13	H	0.150983	0.595781	0.711504
	H14	H	0.841470	0.599817	0.266009
	H15	H	0.150258	0.385344	0.267241
	H16	H	0.390372	0.710673	0.834178
	H17	H	0.601112	0.713769	0.146080
	H18	H	0.605409	0.265520	0.838309
	H19	H	0.388316	0.268412	0.146444
	H20	H	0.713737	0.834007	0.389432
	H21	H	0.716907	0.145241	0.595356
	H22	H	0.266626	0.841694	0.603835
	H23	H	0.272878	0.145158	0.383957
	H24	H	0.885908	0.339779	0.216745
	H25	H	0.101539	0.644917	0.211904
	H26	H	0.101142	0.335281	0.767729
	H27	H	0.892458	0.645463	0.770453
	H28	H	0.220088	0.884210	0.337750
	H29	H	0.218777	0.102139	0.644337
	H30	H	0.778036	0.092113	0.331473
	H31	H	0.774365	0.887418	0.646474
	H32	H	0.342791	0.216438	0.882818
	H33	H	0.648493	0.213442	0.100315
	H34	H	0.338714	0.768416	0.097798
	H35	H	0.648056	0.767655	0.882868
	H36	H	0.338801	0.884924	0.213361
	H37	H	0.651927	0.091946	0.209946
	H38	H	0.342377	0.100601	0.766529
	H39	H	0.649420	0.886438	0.769451
	H40	H	0.888305	0.212755	0.334304
	H41	H	0.101455	0.215543	0.645029
	H42	H	0.106227	0.766300	0.338165
	H43	H	0.889641	0.769501	0.645720
	H44	H	0.217955	0.335517	0.884161
	H45	H	0.218868	0.643992	0.096007
	H46	H	0.767177	0.341324	0.103852
	H47	H	0.773483	0.644061	0.885144
	H48	H	0.406187	0.103096	0.580183
	H49	H	0.580337	0.882966	0.577059
	H50	H	0.584693	0.102365	0.397440
	H51	H	0.407360	0.884848	0.412745
	H52	H	0.580511	0.400982	0.103337
	H53	H	0.582957	0.581733	0.877866
	H54	H	0.406563	0.586481	0.105268
	H55	H	0.407791	0.400060	0.878339
	H56	H	0.104110	0.576585	0.405972
	H57	H	0.884259	0.578596	0.579516
	H58	H	0.103602	0.406054	0.572170
	H59	H	0.886931	0.407711	0.407781
	H60	H	0.109097	0.404097	0.586186
	H61	H	0.883765	0.582198	0.580477
	H62	H	0.106365	0.577782	0.400697
	H63	H	0.883147	0.405640	0.397675
	H64	H	0.400364	0.574858	0.103678
	H65	H	0.585819	0.578815	0.878017
	H66	H	0.583499	0.404873	0.103014
	H67	H	0.407669	0.401434	0.879375
	H68	H	0.588798	0.102813	0.402091
	H69	H	0.588065	0.879508	0.576761
	H70	H	0.413369	0.100000	0.579000
	H71	H	0.399545	0.878267	0.402913
	H72	H	0.907366	0.600452	0.074520
	H73	H	0.082660	0.380725	0.079226
	H74	H	0.085919	0.601969	0.896062
	H75	H	0.905010	0.378344	0.900428
	H76	H	0.080852	0.905998	0.602066
	H77	H	0.073639	0.077255	0.382796
	H78	H	0.903267	0.081913	0.602842
	H79	H	0.909954	0.900456	0.378527
	H80	H	0.605490	0.071447	0.900319
	H81	H	0.381940	0.084661	0.077625
	H82	H	0.606381	0.899370	0.081611
	H83	H	0.383268	0.907376	0.902463
	H84	H	0.606383	0.897957	0.079427
	H85	H	0.387075	0.074806	0.075331
	H86	H	0.609269	0.083977	0.902897
	H87	H	0.380738	0.898082	0.900422
	H88	H	0.906268	0.081317	0.602865
	H89	H	0.084093	0.084517	0.375954
	H90	H	0.078567	0.906787	0.601010
	H91	H	0.904289	0.896621	0.374546
	H92	H	0.084180	0.599665	0.902325
	H93	H	0.082873	0.381716	0.075459
	H94	H	0.906338	0.601772	0.077800
	H95	H	0.908895	0.380172	0.900318
	H96	H	0.407464	0.099732	0.572576
	H97	H	0.583140	0.879122	0.583913
	H98	H	0.590538	0.104390	0.396603
	H99	H	0.413506	0.880885	0.399551
	H100	H	0.579050	0.405109	0.100758
	H101	H	0.581993	0.577902	0.879932
	H102	H	0.412318	0.576275	0.099544
	H103	H	0.409154	0.401199	0.879287
	H104	H	0.106317	0.581872	0.404366
	H105	H	0.884828	0.581042	0.576610
	H106	H	0.109496	0.392892	0.576290
	H107	H	0.882925	0.397845	0.405423
	H108	H	0.909787	0.600525	0.077031
	H109	H	0.085925	0.380337	0.077398
	H110	H	0.090495	0.602810	0.901562
	H111	H	0.906871	0.380149	0.904489
	H112	H	0.078441	0.904166	0.601631
	H113	H	0.086659	0.071231	0.379602
	H114	H	0.905668	0.083959	0.603814
	H115	H	0.902905	0.903853	0.376819
	H116	H	0.602714	0.077128	0.912298
	H117	H	0.382304	0.076770	0.085158
	H118	H	0.606120	0.900752	0.079206
	H119	H	0.383990	0.900321	0.909422
	C120	C	0.373548	0.000790	0.612718
	C121	C	0.617113	0.981896	0.612294
	C122	C	0.617302	-0.001020	0.368704
	C123	C	0.373884	0.982636	0.370813
	C124	C	0.616192	0.369947	0.000279
	C125	C	0.615968	0.612206	0.981890
	C126	C	0.374734	0.610620	-0.001198
	C127	C	0.374918	0.368659	0.982220
	C128	C	0.003915	0.612640	0.369758
	C129	C	0.986902	0.612898	0.612131
	C130	C	0.003893	0.370077	0.610539
	C131	C	0.986339	0.370147	0.368958
	C132	C	0.873330	0.500539	0.112137
	C133	C	0.116689	0.482640	0.110448
	C134	C	0.117968	0.498642	0.868132
	C135	C	0.874875	0.482034	0.869737
	C136	C	0.115444	0.871343	0.499976
	C137	C	0.115016	0.112464	0.481684
	C138	C	0.873729	0.112492	0.498778
	C139	C	0.873814	0.869242	0.480986
	C140	C	0.503918	0.111689	0.871124
	C141	C	0.486579	0.110650	0.112017
	C142	C	0.502799	0.867833	0.112461
	C143	C	0.485220	0.869659	0.870132
	C144	C	0.368155	0.885870	0.675817
	C145	C	0.620706	0.097756	0.673944
	C146	C	0.614599	0.879784	0.313666
	C147	C	0.371654	0.098193	0.308758
	C148	C	0.678337	0.365920	0.883364
	C149	C	0.676731	0.615666	0.099018
	C150	C	0.316873	0.611104	0.879944
	C151	C	0.314259	0.367295	0.099782
	C152	C	0.888016	0.675088	0.364825
	C153	C	0.102935	0.673823	0.616176
	C154	C	0.885862	0.311945	0.612710
	C155	C	0.101737	0.307292	0.362842
	C156	C	0.885815	0.369987	0.670167
	C157	C	0.103847	0.614592	0.672119
	C158	C	0.887704	0.617118	0.307326
	C159	C	0.103120	0.366946	0.307403
	C160	C	0.372686	0.670124	0.880975
	C161	C	0.619075	0.673287	0.099104
	C162	C	0.622178	0.307036	0.884257
	C163	C	0.371016	0.308893	0.099777
	C164	C	0.674061	0.880622	0.370047
	C165	C	0.677253	0.098376	0.614564
	C166	C	0.308844	0.887176	0.619828
	C167	C	0.313454	0.098789	0.366541
	C168	C	0.868540	0.385771	0.175564
	C169	C	0.119503	0.598573	0.171267
	C170	C	0.119617	0.381838	0.808157
	C171	C	0.873364	0.598847	0.810100
	C172	C	0.179157	0.866568	0.384250
	C173	C	0.177085	0.118098	0.598207
	C174	C	0.815977	0.112055	0.379633
	C175	C	0.814509	0.868418	0.599566
	C176	C	0.388823	0.175002	0.865750
	C177	C	0.602990	0.171742	0.116304
	C178	C	0.385507	0.808533	0.115350
	C179	C	0.601885	0.808784	0.865820
	C180	C	0.385524	0.866588	0.172711
	C181	C	0.604388	0.111708	0.171175
	C182	C	0.388513	0.117427	0.807915
	C183	C	0.602614	0.867826	0.809635
	C184	C	0.870977	0.171949	0.380760
	C185	C	0.118835	0.174924	0.598125
	C186	C	0.122242	0.808300	0.384208
	C187	C	0.871417	0.809959	0.599256
	C188	C	0.177887	0.381934	0.865721
	C189	C	0.178015	0.598134	0.113812
	C190	C	0.809678	0.386303	0.119193
	C191	C	0.814332	0.598171	0.867052
	C192	C	0.401356	0.080410	0.585074
	C193	C	0.591233	0.901406	0.586566
	C194	C	0.594515	0.081616	0.391900
	C195	C	0.399407	0.902334	0.397465
	C196	C	0.588909	0.396223	0.081192
	C197	C	0.590709	0.586760	0.899865
	C198	C	0.399390	0.586044	0.081365
	C199	C	0.401035	0.393517	0.900308
	C200	C	0.084609	0.586184	0.396076
	C201	C	0.905322	0.587758	0.586222
	C202	C	0.085947	0.394154	0.585317
	C203	C	0.905502	0.396498	0.395853
	C204	C	0.900213	0.580097	0.084394
	C205	C	0.091188	0.401992	0.084596
	C206	C	0.093745	0.580126	0.892918
	C207	C	0.899727	0.400695	0.894661
	C208	C	0.087270	0.898190	0.580713
	C209	C	0.089025	0.085256	0.400483
	C210	C	0.898112	0.089002	0.581444
	C211	C	0.898707	0.893277	0.398358
	C212	C	0.584702	0.084925	0.897753
	C213	C	0.405016	0.085818	0.086545
	C214	C	0.584876	0.892350	0.087131
	C215	C	0.403875	0.894742	0.896498
	Zn216	Zn	0.494769	-0.008484	0.741708
	Zn217	Zn	0.495214	-0.010134	0.240660
	Zn218	Zn	0.744656	0.490961	-0.009054
	Zn219	Zn	0.246599	0.489861	-0.010076
	Zn220	Zn	-0.004312	0.741594	0.490934
	Zn221	Zn	-0.005701	0.241021	0.489055
	Zn222	Zn	-0.004013	0.490764	0.739765
	Zn223	Zn	-0.004785	0.491584	0.240602
	Zn224	Zn	0.494200	0.739948	-0.009479
	Zn225	Zn	0.495920	0.240315	-0.007622
	Zn226	Zn	0.746094	-0.009033	0.489910
	Zn227	Zn	0.244203	-0.007634	0.491853
	N228	N	0.407747	0.957689	0.671646
	N229	N	0.584057	0.024322	0.673027
	N230	N	0.580579	0.954561	0.312322
	N231	N	0.408247	0.024811	0.310940
	N232	N	0.674871	0.404316	0.956642
	N233	N	0.674935	0.578276	0.025111
	N234	N	0.317790	0.574805	0.954432
	N235	N	0.316562	0.403777	0.025633
	N236	N	0.961349	0.672709	0.402798
	N237	N	0.028949	0.672990	0.579642
	N238	N	0.960445	0.311724	0.576479
	N239	N	0.028018	0.309151	0.400363
	N240	N	0.960407	0.405154	0.669399
	N241	N	0.030454	0.577225	0.669720
	N242	N	0.960810	0.578933	0.310153
	N243	N	0.030227	0.405292	0.310807
	N244	N	0.407769	0.670045	0.955960
	N245	N	0.582165	0.671376	0.024976
	N246	N	0.584298	0.309221	0.958004
	N247	N	0.408092	0.309594	0.025465
	N248	N	0.676234	0.955973	0.403109
	N249	N	0.675268	0.025419	0.576903
	N250	N	0.311850	0.959857	0.581539
	N251	N	0.314535	0.025862	0.404366
	N252	N	0.907699	0.457731	0.171288
	N253	N	0.082008	0.525688	0.169396
	N254	N	0.083353	0.455409	0.809140
	N255	N	0.910308	0.525673	0.811654
	N256	N	0.175105	0.905214	0.457337
	N257	N	0.174937	0.079839	0.524764
	N258	N	0.817358	0.075783	0.454139
	N259	N	0.815762	0.904503	0.525028
	N260	N	0.461830	0.171779	0.904089
	N261	N	0.528516	0.171429	0.080439
	N262	N	0.459659	0.809098	0.078584
	N263	N	0.527811	0.809574	0.902772
	N264	N	0.459512	0.902942	0.170997
	N265	N	0.531006	0.074346	0.168855
	N266	N	0.461040	0.078557	0.811161
	N267	N	0.529021	0.904982	0.812132
	N268	N	0.905903	0.172637	0.456003
	N269	N	0.081043	0.171672	0.524483
	N270	N	0.083301	0.811055	0.457352
	N271	N	0.907329	0.810216	0.524349
	N272	N	0.177431	0.455718	0.901898
	N273	N	0.176236	0.524998	0.076618
	N274	N	0.812337	0.458709	0.080452
	N275	N	0.814854	0.524406	0.903154
	O276	O	-0.230214	0.937372	0.212819
	H277	H	-0.252135	0.949301	0.249071
	H278	H	-0.203684	0.969588	0.211016
	O279	O	-0.067942	1.211785	0.072304
	H280	H	-0.059775	1.197466	0.078241
	H281	H	-0.093763	1.218177	0.071461
	O282	O	1.231772	0.049706	0.940504
	H283	H	1.233091	0.039062	0.912362
	H284	H	1.229251	0.037557	0.945640
	O285	O	0.776551	0.216083	0.752135
	H286	H	0.762719	0.239496	0.729720
	H287	H	0.800756	0.201748	0.758972
	O288	O	0.536521	0.713484	0.479130
	H289	H	0.553665	0.713032	0.473987
	H290	H	0.546417	0.709449	0.466011
	O291	O	0.616588	0.389829	0.482341
	H292	H	0.606515	0.383259	0.495123
	H293	H	0.611715	0.398712	0.498723
	O294	O	1.180600	-0.196735	1.178142
	H295	H	1.179603	-0.186762	1.184585
	H296	H	1.156025	-0.198292	1.154085
	O297	O	0.554941	0.423514	0.636858
	H298	H	0.558300	0.431622	0.632227
	H299	H	0.554012	0.434305	0.642253
	O300	O	-0.568564	-0.702884	1.682007
	H301	H	-0.583190	-0.712998	1.700768
	H302	H	-0.568630	-0.700504	1.687734
	O303	O	0.308789	0.303481	0.300920
	H304	H	0.308345	0.296995	0.300704
	H305	H	0.306008	0.322010	0.334323
	O306	O	0.703959	0.276483	0.286922
	H307	H	0.674109	0.281704	0.300548
	H308	H	0.698043	0.292300	0.318131
	O309	O	0.323966	0.573179	0.517619
	H310	H	0.326209	0.570615	0.519339
	H311	H	0.322090	0.593410	0.518597
	O312	O	0.280620	0.667704	0.422441
	H313	H	0.281418	0.679063	0.423104
	H314	H	0.273478	0.680601	0.400332
	O315	O	0.981244	1.155196	0.945466
	H316	H	0.973001	1.152611	0.961238
	H317	H	0.973065	1.141651	0.954560
	O318	O	0.304828	0.461758	0.423872
	H319	H	0.296665	0.446913	0.448048
	H320	H	0.297329	0.483184	0.433528
	O321	O	0.282687	0.471960	0.695863
	H322	H	0.282653	0.462335	0.706951
	H323	H	0.281653	0.470714	0.704899
	O324	O	1.184545	1.176163	-0.194259
	H325	H	1.165529	1.166386	-0.166718
	H326	H	1.169897	1.150484	-0.186091
	O327	O	-0.040818	-0.223198	1.184691
	H328	H	-0.029035	-0.189487	1.186388
	H329	H	-0.032158	-0.240978	1.197252
	O330	O	0.305589	0.510090	0.280441
	H331	H	0.288128	0.503228	0.290475
	H332	H	0.299264	0.514952	0.276749
	O333	O	0.475243	0.530337	0.707522
	H334	H	0.492216	0.540697	0.708192
	H335	H	0.477280	0.544835	0.706967
	O336	O	0.538103	0.680400	0.283228
	H337	H	0.546272	0.694067	0.273585
	H338	H	0.517526	0.677735	0.270770
	O339	O	1.009803	-0.224162	0.773223
	H340	H	1.029051	-0.237964	0.761852
	H341	H	1.023295	-0.218536	0.764957
	O342	O	-0.222124	0.015593	-0.227558
	H343	H	-0.230370	0.023325	-0.217703
	H344	H	-0.243727	0.022606	-0.237342
	O345	O	0.068014	0.894018	1.175833
	H346	H	0.077294	0.910668	1.176707
	H347	H	0.069089	0.897653	1.176936
	O348	O	0.214560	0.206852	0.019749
	H349	H	0.243804	0.225563	0.014206
	H350	H	0.203040	0.190220	0.002752
	O351	O	0.273094	0.270633	0.505466
	H352	H	0.267059	0.263259	0.533798
	H353	H	0.261427	0.258505	0.526387
	O354	O	-0.135153	-0.157832	0.927832
	H355	H	-0.134539	-0.138993	0.924526
	H356	H	-0.146571	-0.169311	0.938406
	O357	O	0.701239	0.696606	0.701213
	H358	H	0.706374	0.712944	0.680686
	H359	H	0.727533	0.720372	0.708462
	O360	O	0.676845	0.702776	0.316672
	H361	H	0.690057	0.723140	0.303679
	H362	H	0.677013	0.696152	0.306187
	O363	O	0.216830	0.019334	0.211420
	H364	H	0.245504	0.026537	0.234174
	H365	H	0.212869	0.044140	0.203021
	O366	O	0.615384	0.498390	0.576835
	H367	H	0.624905	0.512692	0.578707
	H368	H	0.614751	0.509926	0.569465
	O369	O	0.465697	0.431677	0.280026
	H370	H	0.446767	0.432502	0.278471
	H371	H	0.457707	0.429609	0.292772
	O372	O	1.054437	0.899491	-0.144786
	H373	H	1.051020	0.891351	-0.141514
	H374	H	1.054190	0.888756	-0.147928
	O375	O	0.841302	0.047034	0.076970
	H376	H	0.835591	0.066597	0.080518
	H377	H	0.859396	0.066828	0.079963
	O378	O	0.565935	0.541925	0.271740
	H379	H	0.561104	0.537907	0.279058
	H380	H	0.553965	0.538653	0.269647
	O381	O	-0.039072	1.214231	0.768174
	H382	H	-0.033733	1.235801	0.753564
	H383	H	-0.028727	1.207786	0.772229
	O384	O	1.036845	0.126051	1.079824
	H385	H	1.038100	0.145562	1.073848
	H386	H	1.048369	0.111166	1.066920
	O387	O	1.046323	1.058738	-0.241791
	H388	H	1.057514	1.061361	-0.249885
	H389	H	1.025368	1.043192	-0.240927
	O390	O	0.713497	0.475877	0.283476
	H391	H	0.715644	0.462563	0.267175
	H392	H	0.713401	0.463221	0.277861
	O393	O	0.490499	0.257992	0.414766
	H394	H	0.495493	0.248508	0.413724
	H395	H	0.470689	0.261028	0.410408
	O396	O	0.053042	0.771644	1.016089
	H397	H	0.038392	0.768290	1.023127
	H398	H	0.040629	0.774411	1.011984
	O399	O	0.484010	0.433764	0.633864
	H400	H	0.493429	0.435493	0.640186
	H401	H	0.504454	0.446866	0.620155
	O402	O	0.566494	0.452050	0.453053
	H403	H	0.571711	0.467093	0.465309
	H404	H	0.554474	0.456003	0.447993
	O405	O	0.969846	0.130954	0.926954
	H406	H	0.963820	0.099030	0.916969
	H407	H	0.975304	0.136934	0.929428
	O408	O	0.208550	-0.223459	-0.218156
	H409	H	0.241257	-0.254101	-0.250047
	H410	H	0.201707	-0.224312	-0.186587
	O411	O	0.803696	1.190191	1.178766
	H412	H	0.772397	1.216953	1.215408
	H413	H	0.820674	1.178150	1.164492
	O414	O	0.382203	0.401249	0.514296
	H415	H	0.391820	0.391962	0.510340
	H416	H	0.370787	0.407892	0.497496
	O417	O	0.714221	0.521237	0.713492
	H418	H	0.729886	0.532891	0.729652
	H419	H	0.718179	0.555026	0.721527
	O420	O	0.410071	0.556657	0.455421
	H421	H	0.416734	0.558920	0.457118
	H422	H	0.401742	0.549872	0.448919
	O423	O	0.149659	-0.033721	1.048012
	H424	H	0.149152	-0.028817	1.072098
	H425	H	0.151038	-0.039231	1.040169
	O426	O	0.558706	0.329098	0.290383
	H427	H	0.557490	0.322914	0.285310
	H428	H	0.555269	0.329118	0.288747
	O429	O	1.204413	1.198921	1.201422
	H430	H	1.207932	1.213426	1.216443
	H431	H	1.200851	1.201207	1.160426
	O432	O	0.284009	0.277387	0.694419
	H433	H	0.262121	0.248658	0.729047
	H434	H	0.306798	0.304580	0.702639
	O435	O	-0.196678	0.797467	-0.202162
	H436	H	-0.183046	0.814377	-0.177742
	H437	H	-0.176054	0.814615	-0.184936
	O438	O	-0.225532	0.218457	-0.028217
	H439	H	-0.239368	0.228056	-0.051297
	H440	H	-0.239707	0.228954	-0.038985
	O441	O	0.215435	-0.228326	-0.035529
	H442	H	0.226447	-0.245716	-0.032572
	H443	H	0.208945	-0.225520	-0.037593
	O444	O	0.527302	0.709347	0.705338
	H445	H	0.555904	0.715355	0.709091
	H446	H	0.531179	0.732902	0.715048
	O447	O	0.035302	1.201352	1.204060
	H448	H	0.039247	1.233302	1.226804
	H449	H	0.045474	1.198959	1.182151
	O450	O	-0.153852	0.778367	1.151040
	H451	H	-0.164492	0.822186	1.153468
	H452	H	-0.110561	0.775763	1.151708
	O453	O	0.705238	0.279908	0.454158
	H454	H	0.710420	0.285353	0.469939
	H455	H	0.711040	0.279638	0.465490
	O456	O	0.381087	0.627683	0.383365
	H457	H	0.377171	0.631112	0.375837
	H458	H	0.395163	0.621492	0.382611
	O459	O	0.306209	0.681640	0.677493
	H460	H	0.322821	0.657721	0.664229
	H461	H	0.324379	0.676077	0.648209
	O462	O	0.878789	0.940833	1.049470
	H463	H	0.879395	0.944134	1.063436
	H464	H	0.886142	0.942791	1.045625
	O465	O	0.967435	-0.017586	0.033599
	H466	H	0.979192	-0.018400	0.028065
	H467	H	0.956072	-0.019804	0.017517
	O468	O	0.280610	0.700541	0.281574
	H469	H	0.263159	0.710043	0.261169
	H470	H	0.303421	0.690022	0.295209
	O471	O	0.714354	0.710659	0.530912
	H472	H	0.739976	0.723344	0.527034
	H473	H	0.718196	0.700265	0.510898
	O474	O	0.725093	0.569695	0.447047
	H475	H	0.715215	0.563290	0.430523
	H476	H	0.729146	0.563267	0.433150
	O477	O	0.669463	0.296288	1.659365
	H478	H	0.646690	0.306390	1.642272
	H479	H	0.664329	0.309735	1.656987
	O480	O	0.434854	0.693823	0.587909
	H481	H	0.438608	0.693530	0.579569
	H482	H	0.457831	0.700469	0.580518
	O483	O	0.490728	0.336642	0.541383
	H484	H	0.495594	0.336585	0.549734
	H485	H	0.484410	0.330440	0.540389
	O486	O	1.211679	-0.022884	0.772998
	H487	H	1.224175	-0.046172	0.755645
	H488	H	1.205224	-0.031995	0.762741
	O489	O	0.953281	0.937077	-0.221238
	H490	H	0.939180	0.938026	-0.216658
	H491	H	0.945076	0.940460	-0.217522
	O492	O	-0.005353	0.003379	0.124035
	H493	H	-0.001602	0.004718	0.088351
	H494	H	0.012686	0.007723	0.133274
	O495	O	0.010702	0.890271	0.987601
	H496	H	0.010795	0.885245	0.991213
	H497	H	0.007292	0.888516	0.966934
	O498	O	0.859067	1.033575	0.983890
	H499	H	0.860757	1.030313	0.998995
	H500	H	0.856285	1.054699	0.993128
	O501	O	0.772420	0.768505	1.008977
	H502	H	0.768159	0.757529	1.030611
	H503	H	0.764426	0.757311	1.036955
