data_Molecule from HDF5

_cell_length_a		16.081165
_cell_length_b		16.239090
_cell_length_c		16.233999
_cell_angle_alpha	89.921033
_cell_angle_beta	89.467593
_cell_angle_gamma	90.010158
_symmetry_space_group_name_H-M	'P 1'
_symmetry_Int_Tables_number		1

loop_
	_symmetry_equiv_pos_as_xyz
	x,y,z

loop_
	_atom_site_label
	_atom_site_type_symbol
	_atom_site_fract_x
	_atom_site_fract_y
	_atom_site_fract_z
	H0	H	0.399598	0.836827	0.712248
	H1	H	0.598383	0.165066	0.709424
	H2	H	0.600282	0.837649	0.280099
	H3	H	0.402443	0.165623	0.283795
	H4	H	0.716421	0.405606	0.833198
	H5	H	0.708994	0.598711	0.163693
	H6	H	0.288273	0.601295	0.832517
	H7	H	0.285348	0.404716	0.161217
	H8	H	0.834519	0.713186	0.400775
	H9	H	0.165357	0.715767	0.594853
	H10	H	0.835588	0.286615	0.599023
	H11	H	0.165944	0.290332	0.399256
	H12	H	0.836039	0.399739	0.715460
	H13	H	0.167068	0.598275	0.707238
	H14	H	0.834828	0.599766	0.286566
	H15	H	0.165070	0.402769	0.282297
	H16	H	0.402141	0.716873	0.832575
	H17	H	0.597864	0.718913	0.160458
	H18	H	0.602277	0.288982	0.832301
	H19	H	0.398918	0.287054	0.160144
	H20	H	0.711987	0.835712	0.399301
	H21	H	0.711563	0.166072	0.590976
	H22	H	0.284760	0.836104	0.594497
	H23	H	0.289592	0.166260	0.400777
	H24	H	0.899026	0.338835	0.214105
	H25	H	0.098686	0.665970	0.211827
	H26	H	0.103858	0.338384	0.781906
	H27	H	0.901128	0.665181	0.782526
	H28	H	0.213092	0.905137	0.330287
	H29	H	0.211748	0.098334	0.661275
	H30	H	0.791671	0.097220	0.330601
	H31	H	0.784138	0.903181	0.659972
	H32	H	0.334415	0.218007	0.896291
	H33	H	0.666127	0.214247	0.091713
	H34	H	0.333396	0.789573	0.095897
	H35	H	0.664987	0.788376	0.895254
	H36	H	0.334460	0.903851	0.211308
	H37	H	0.665816	0.099652	0.206909
	H38	H	0.333241	0.099621	0.784417
	H39	H	0.664809	0.903331	0.780570
	H40	H	0.901887	0.217111	0.333458
	H41	H	0.099375	0.216055	0.660357
	H42	H	0.100725	0.785411	0.332644
	H43	H	0.897777	0.785908	0.660364
	H44	H	0.214798	0.338104	0.899673
	H45	H	0.212980	0.666873	0.094465
	H46	H	0.785689	0.337710	0.098407
	H47	H	0.789054	0.667400	0.902652
	H48	H	0.408561	0.116108	0.588026
	H49	H	0.584186	0.883725	0.593899
	H50	H	0.595460	0.121287	0.394172
	H51	H	0.417693	0.887282	0.404730
	H52	H	0.592143	0.416080	0.112098
	H53	H	0.602820	0.600868	0.876380
	H54	H	0.402265	0.593753	0.114179
	H55	H	0.417400	0.418626	0.884880
	H56	H	0.119666	0.591762	0.402311
	H57	H	0.878864	0.600100	0.596611
	H58	H	0.118861	0.401608	0.584169
	H59	H	0.881925	0.408767	0.410872
	H60	H	0.116740	0.415364	0.588130
	H61	H	0.884271	0.592898	0.583788
	H62	H	0.120313	0.596342	0.402796
	H63	H	0.881024	0.411849	0.403169
	H64	H	0.410593	0.595240	0.113278
	H65	H	0.595073	0.586052	0.882841
	H66	H	0.583392	0.401524	0.114218
	H67	H	0.413088	0.397126	0.876342
	H68	H	0.590032	0.116698	0.403275
	H69	H	0.591433	0.886344	0.580518
	H70	H	0.403202	0.118785	0.589193
	H71	H	0.398450	0.882944	0.410100
	H72	H	0.904804	0.619799	0.091281
	H73	H	0.090197	0.386421	0.087415
	H74	H	0.088731	0.617085	0.906365
	H75	H	0.910049	0.386399	0.909863
	H76	H	0.090631	0.897515	0.616098
	H77	H	0.082774	0.104294	0.379427
	H78	H	0.909893	0.100755	0.615033
	H79	H	0.904223	0.912690	0.379439
	H80	H	0.617274	0.095656	0.904605
	H81	H	0.378609	0.105289	0.091101
	H82	H	0.620308	0.909253	0.091435
	H83	H	0.381108	0.915714	0.899121
	H84	H	0.618632	0.905337	0.083988
	H85	H	0.384688	0.091758	0.082477
	H86	H	0.617110	0.091978	0.900494
	H87	H	0.377370	0.900529	0.901407
	H88	H	0.898510	0.092219	0.616166
	H89	H	0.105925	0.102196	0.374011
	H90	H	0.100604	0.912644	0.614458
	H91	H	0.915842	0.905324	0.379782
	H92	H	0.099636	0.621306	0.904842
	H93	H	0.096253	0.383592	0.090827
	H94	H	0.903696	0.620761	0.095030
	H95	H	0.905893	0.383487	0.906378
	H96	H	0.407002	0.118881	0.593655
	H97	H	0.599703	0.880550	0.591878
	H98	H	0.601701	0.120078	0.403702
	H99	H	0.404878	0.878943	0.391175
	H100	H	0.599926	0.401703	0.118741
	H101	H	0.585260	0.600829	0.881273
	H102	H	0.405325	0.601809	0.116776
	H103	H	0.396234	0.413022	0.876497
	H104	H	0.118306	0.593682	0.406353
	H105	H	0.882313	0.585563	0.597030
	H106	H	0.122367	0.406515	0.597183
	H107	H	0.879275	0.403161	0.404640
	H108	H	0.907116	0.619915	0.094799
	H109	H	0.089767	0.384311	0.093833
	H110	H	0.092780	0.621593	0.894613
	H111	H	0.911424	0.385604	0.903835
	H112	H	0.082883	0.912796	0.610065
	H113	H	0.094685	0.083191	0.382863
	H114	H	0.910938	0.087776	0.610917
	H115	H	0.903947	0.899158	0.375258
	H116	H	0.618851	0.097834	0.899960
	H117	H	0.380237	0.090115	0.098600
	H118	H	0.616283	0.912983	0.085490
	H119	H	0.383959	0.909614	0.913455
	C120	C	0.376686	0.009416	0.619149
	C121	C	0.620598	0.992283	0.617001
	C122	C	0.623604	0.010094	0.372477
	C123	C	0.379139	0.992413	0.374745
	C124	C	0.622097	0.379362	0.006058
	C125	C	0.621617	0.624223	0.988852
	C126	C	0.378360	0.624478	0.005561
	C127	C	0.378935	0.380836	0.987781
	C128	C	0.009359	0.621871	0.376887
	C129	C	0.991402	0.621824	0.618960
	C130	C	0.009779	0.379009	0.619688
	C131	C	0.990671	0.379874	0.376583
	C132	C	0.877049	0.511214	0.121705
	C133	C	0.120563	0.493664	0.118574
	C134	C	0.123066	0.511154	0.874632
	C135	C	0.879897	0.493370	0.877349
	C136	C	0.120821	0.879656	0.504635
	C137	C	0.122029	0.123890	0.487660
	C138	C	0.878818	0.122534	0.505377
	C139	C	0.877902	0.877970	0.486948
	C140	C	0.508181	0.124008	0.873770
	C141	C	0.491215	0.123631	0.117520
	C142	C	0.508723	0.880860	0.116906
	C143	C	0.490512	0.880990	0.875203
	C144	C	0.379007	0.885669	0.674039
	C145	C	0.618375	0.116171	0.671630
	C146	C	0.620193	0.886396	0.318067
	C147	C	0.382094	0.116441	0.321046
	C148	C	0.678807	0.384180	0.882352
	C149	C	0.673340	0.620169	0.113799
	C150	C	0.325037	0.621501	0.881688
	C151	C	0.322989	0.383765	0.111862
	C152	C	0.884284	0.676237	0.380148
	C153	C	0.116119	0.677738	0.615229
	C154	C	0.885189	0.323824	0.619169
	C155	C	0.115878	0.326657	0.378568
	C156	C	0.885435	0.380401	0.676697
	C157	C	0.116933	0.619142	0.671141
	C158	C	0.884342	0.619796	0.323543
	C159	C	0.115481	0.382755	0.320584
	C160	C	0.381676	0.679292	0.881698
	C161	C	0.618152	0.679849	0.112232
	C162	C	0.621981	0.326035	0.881770
	C163	C	0.379465	0.325142	0.111263
	C164	C	0.676147	0.885478	0.377202
	C165	C	0.674881	0.116661	0.612895
	C166	C	0.322031	0.885253	0.615781
	C167	C	0.325860	0.116755	0.379197
	C168	C	0.879179	0.387587	0.176468
	C169	C	0.118413	0.617158	0.173777
	C170	C	0.122395	0.387422	0.820176
	C171	C	0.881715	0.616433	0.821379
	C172	C	0.175889	0.883831	0.380036
	C173	C	0.175348	0.119563	0.611759
	C174	C	0.827156	0.118775	0.380625
	C175	C	0.821824	0.882040	0.610884
	C176	C	0.383530	0.179420	0.876824
	C177	C	0.616340	0.177236	0.112958
	C178	C	0.383506	0.826132	0.115993
	C179	C	0.615559	0.826111	0.875620
	C180	C	0.383662	0.883464	0.172984
	C181	C	0.616168	0.120185	0.170260
	C182	C	0.383077	0.120608	0.821024
	C183	C	0.615270	0.883140	0.818808
	C184	C	0.881957	0.178518	0.381989
	C185	C	0.119463	0.178144	0.611532
	C186	C	0.120284	0.824192	0.381116
	C187	C	0.878373	0.823638	0.611184
	C188	C	0.177774	0.387384	0.878780
	C189	C	0.175159	0.617746	0.115209
	C190	C	0.822315	0.387385	0.119029
	C191	C	0.825828	0.617738	0.881079
	C192	C	0.399507	0.095503	0.597170
	C193	C	0.598291	0.906149	0.595349
	C194	C	0.602018	0.096955	0.393887
	C195	C	0.400686	0.905303	0.395814
	C196	C	0.598579	0.400173	0.092639
	C197	C	0.600791	0.602317	0.902410
	C198	C	0.399611	0.603034	0.092388
	C199	C	0.402199	0.403016	0.901584
	C200	C	0.096803	0.600311	0.397750
	C201	C	0.904457	0.599496	0.598540
	C202	C	0.096724	0.401127	0.596690
	C203	C	0.903094	0.401581	0.399490
	C204	C	0.898873	0.597843	0.100039
	C205	C	0.098547	0.407072	0.097078
	C206	C	0.100408	0.597660	0.895772
	C207	C	0.902426	0.407371	0.899953
	C208	C	0.098119	0.901322	0.591262
	C209	C	0.100873	0.102803	0.401213
	C210	C	0.900138	0.100248	0.591721
	C211	C	0.901236	0.899331	0.400512
	C212	C	0.595240	0.101733	0.895154
	C213	C	0.403666	0.102179	0.096858
	C214	C	0.595885	0.902769	0.093835
	C215	C	0.403293	0.902384	0.898113
	Zn216	Zn	0.499184	0.001368	0.747186
	Zn217	Zn	0.499943	0.001733	0.245422
	Zn218	Zn	0.750126	0.502128	-0.000720
	Zn219	Zn	0.250143	0.503086	-0.003145
	Zn220	Zn	-0.000160	0.749558	0.496579
	Zn221	Zn	0.000029	0.252189	0.497375
	Zn222	Zn	0.001240	0.500480	0.747162
	Zn223	Zn	-0.000485	0.501799	0.249029
	Zn224	Zn	0.500150	0.753055	-0.003900
	Zn225	Zn	0.499847	0.251526	-0.004252
	Zn226	Zn	0.750143	0.000989	0.495564
	Zn227	Zn	0.249701	0.001540	0.496287
	N228	N	0.412141	0.963739	0.676279
	N229	N	0.585371	0.037892	0.674303
	N230	N	0.588214	0.964999	0.315124
	N231	N	0.414585	0.037972	0.318341
	N232	N	0.678898	0.416707	0.960662
	N233	N	0.675567	0.586102	0.036082
	N234	N	0.322928	0.588114	0.959651
	N235	N	0.322617	0.417854	0.034162
	N236	N	0.962917	0.677298	0.412789
	N237	N	0.037098	0.679632	0.583642
	N238	N	0.963457	0.322889	0.584323
	N239	N	0.037306	0.325149	0.412958
	N240	N	0.963935	0.413930	0.677356
	N241	N	0.038549	0.585218	0.673770
	N242	N	0.963093	0.586697	0.321202
	N243	N	0.036391	0.415183	0.319285
	N244	N	0.413890	0.681370	0.959874
	N245	N	0.586842	0.682438	0.033725
	N246	N	0.587579	0.322851	0.959523
	N247	N	0.413365	0.323053	0.033155
	N248	N	0.678568	0.963468	0.409965
	N249	N	0.676315	0.038796	0.579733
	N250	N	0.320277	0.963200	0.582499
	N251	N	0.324224	0.038605	0.412156
	N252	N	0.912545	0.465531	0.178253
	N253	N	0.085194	0.539061	0.175969
	N254	N	0.089133	0.465541	0.817296
	N255	N	0.914689	0.538202	0.819098
	N256	N	0.176458	0.917508	0.457988
	N257	N	0.177328	0.086804	0.533802
	N258	N	0.824953	0.084564	0.458322
	N259	N	0.821313	0.914967	0.532775
	N260	N	0.462454	0.181653	0.908825
	N261	N	0.537580	0.179445	0.080772
	N262	N	0.462262	0.824577	0.081546
	N263	N	0.537131	0.824665	0.910073
	N264	N	0.462278	0.916760	0.173647
	N265	N	0.537300	0.087368	0.173109
	N266	N	0.461533	0.086953	0.819086
	N267	N	0.536549	0.916477	0.818422
	N268	N	0.913404	0.181081	0.460636
	N269	N	0.086901	0.180969	0.533375
	N270	N	0.086697	0.821520	0.459421
	N271	N	0.912692	0.820950	0.533176
	N272	N	0.178240	0.465352	0.911954
	N273	N	0.176618	0.539886	0.081685
	N274	N	0.821136	0.465252	0.085572
	N275	N	0.824752	0.540242	0.915400
	O276	O	1.022925	1.044639	-0.000676
	H277	H	1.018898	1.051291	0.003052
	H278	H	1.033128	1.034468	-0.001227
	O279	O	0.015020	0.015383	1.004038
	H280	H	0.009907	0.015686	1.001079
	H281	H	0.014740	0.020406	1.018229
	O282	O	0.024245	-0.112581	-0.041552
	H283	H	0.023354	-0.111903	-0.050041
	H284	H	0.024779	-0.115032	-0.039983
	O285	O	0.498310	0.493976	0.551629
	H286	H	0.494483	0.493577	0.556463
	H287	H	0.488361	0.489733	0.550958
	O288	O	-0.036348	-0.025112	-0.042128
	H289	H	-0.035477	-0.033860	-0.040598
	H290	H	-0.034221	-0.018665	-0.045605
	O291	O	-0.005014	1.023000	-0.004090
	H292	H	-0.008925	1.030994	-0.004764
	H293	H	-0.010731	1.012853	-0.006653
	O294	O	0.041653	1.060693	0.015329
	H295	H	0.026156	1.060188	0.015466
	H296	H	0.034664	1.067973	0.016158
	O297	O	0.520543	0.535028	0.519401
	H298	H	0.520673	0.526737	0.516211
	H299	H	0.511226	0.524904	0.520812
	O300	O	0.585628	0.497236	0.528107
	H301	H	0.582240	0.497169	0.527927
	H302	H	0.587957	0.496245	0.525924
	O303	O	1.054905	-0.024580	0.953827
	H304	H	1.063454	-0.022896	0.965579
	H305	H	1.052873	-0.022312	0.949164
	O306	O	-0.029051	1.008861	0.946571
	H307	H	-0.023421	1.006290	0.943881
	H308	H	-0.021307	1.009570	0.939274
	O309	O	-0.045616	1.005871	0.976130
	H310	H	-0.046480	1.022780	0.968307
	H311	H	-0.050877	1.002376	0.973549
	O312	O	0.051234	0.044036	0.978929
	H313	H	0.055107	0.041784	0.969440
	H314	H	0.038703	0.040232	0.981089
	O315	O	0.459834	0.471039	0.549733
	H316	H	0.458945	0.475898	0.548108
	H317	H	0.457123	0.467529	0.546045
	O318	O	-0.048633	0.050048	0.975679
	H319	H	-0.047783	0.046978	0.977516
	H320	H	-0.049183	0.046138	0.980969
	O321	O	0.526084	0.492017	0.507069
	H322	H	0.525188	0.488631	0.510950
	H323	H	0.524236	0.501481	0.504374
	O324	O	1.019629	0.025560	0.995006
	H325	H	1.026904	0.029920	0.994592
	H326	H	1.021766	0.025506	1.008449
	O327	O	1.011373	1.018996	0.950326
	H328	H	1.008412	1.012702	0.956434
	H329	H	1.013708	1.012223	0.945628
	O330	O	0.456218	0.435579	0.553154
	H331	H	0.450129	0.438798	0.568149
	H332	H	0.454561	0.442345	0.542576
	O333	O	0.910957	-0.035192	0.031795
	H334	H	0.911424	-0.045273	0.017476
	H335	H	0.922118	-0.041552	0.031629
	O336	O	0.507175	0.466163	0.510089
	H337	H	0.507618	0.453430	0.513800
	H338	H	0.496361	0.464598	0.508968
	O339	O	0.546209	0.475471	0.500613
	H340	H	0.555082	0.478204	0.505949
	H341	H	0.551664	0.467490	0.504616
	O342	O	0.501523	0.515580	0.514291
	H343	H	0.511290	0.512723	0.514788
	H344	H	0.510078	0.520574	0.522381
	O345	O	0.430886	0.437743	0.593760
	H346	H	0.438360	0.437286	0.590331
	H347	H	0.426453	0.437486	0.598802
