data_Molecule from HDF5

_cell_length_a		16.113699
_cell_length_b		16.308133
_cell_length_c		16.193497
_cell_angle_alpha	89.587751
_cell_angle_beta	89.640925
_cell_angle_gamma	90.349900
_symmetry_space_group_name_H-M	'P 1'
_symmetry_Int_Tables_number		1

loop_
	_symmetry_equiv_pos_as_xyz
	x,y,z

loop_
	_atom_site_label
	_atom_site_type_symbol
	_atom_site_fract_x
	_atom_site_fract_y
	_atom_site_fract_z
	H0	H	0.401546	0.838616	0.711321
	H1	H	0.600941	0.165751	0.707262
	H2	H	0.601926	0.837717	0.280914
	H3	H	0.405177	0.164581	0.278546
	H4	H	0.715334	0.405804	0.829872
	H5	H	0.714102	0.596634	0.160209
	H6	H	0.291923	0.597621	0.829141
	H7	H	0.289175	0.402675	0.160313
	H8	H	0.837281	0.714257	0.397473
	H9	H	0.167117	0.715944	0.593150
	H10	H	0.838423	0.285376	0.596787
	H11	H	0.168043	0.290548	0.395690
	H12	H	0.837922	0.399866	0.710995
	H13	H	0.167508	0.599191	0.706149
	H14	H	0.837290	0.600770	0.282201
	H15	H	0.167413	0.405884	0.281423
	H16	H	0.403584	0.717162	0.830451
	H17	H	0.602521	0.716277	0.158541
	H18	H	0.602083	0.288973	0.830184
	H19	H	0.399678	0.282370	0.157873
	H20	H	0.715758	0.836745	0.398656
	H21	H	0.717820	0.165014	0.592120
	H22	H	0.287571	0.837655	0.594767
	H23	H	0.290430	0.166047	0.395574
	H24	H	0.900462	0.338788	0.213889
	H25	H	0.100737	0.665474	0.206167
	H26	H	0.100904	0.337504	0.781572
	H27	H	0.903850	0.663932	0.779572
	H28	H	0.215726	0.906914	0.330663
	H29	H	0.212305	0.095716	0.661189
	H30	H	0.792421	0.098340	0.329810
	H31	H	0.788571	0.902417	0.660572
	H32	H	0.336992	0.214306	0.895698
	H33	H	0.666807	0.215715	0.092060
	H34	H	0.337626	0.785089	0.095881
	H35	H	0.666689	0.789527	0.893475
	H36	H	0.337426	0.901417	0.210347
	H37	H	0.668351	0.098502	0.204529
	H38	H	0.336460	0.099140	0.782424
	H39	H	0.667411	0.906864	0.782036
	H40	H	0.904277	0.218094	0.332075
	H41	H	0.101583	0.215551	0.659590
	H42	H	0.104019	0.788170	0.331151
	H43	H	0.900004	0.784156	0.658939
	H44	H	0.214777	0.337205	0.899116
	H45	H	0.218305	0.664624	0.092428
	H46	H	0.785796	0.337270	0.096083
	H47	H	0.789188	0.663978	0.896215
	H48	H	0.399876	0.120127	0.584937
	H49	H	0.593416	0.888869	0.577661
	H50	H	0.603618	0.119314	0.401229
	H51	H	0.401563	0.882857	0.401019
	H52	H	0.588684	0.402414	0.112677
	H53	H	0.596486	0.596643	0.876021
	H54	H	0.402850	0.597001	0.115432
	H55	H	0.401003	0.396092	0.870728
	H56	H	0.119516	0.599760	0.407294
	H57	H	0.883978	0.597778	0.582426
	H58	H	0.119747	0.407212	0.580822
	H59	H	0.883072	0.406645	0.403330
	H60	H	0.119845	0.415541	0.590587
	H61	H	0.886140	0.586337	0.585828
	H62	H	0.118794	0.589048	0.401541
	H63	H	0.885636	0.407408	0.408569
	H64	H	0.410172	0.584051	0.108580
	H65	H	0.596145	0.595977	0.878238
	H66	H	0.596748	0.404849	0.113909
	H67	H	0.403959	0.419827	0.879054
	H68	H	0.595509	0.118887	0.393567
	H69	H	0.604982	0.880532	0.593115
	H70	H	0.411088	0.121455	0.597978
	H71	H	0.414416	0.884738	0.398311
	H72	H	0.907893	0.619045	0.090880
	H73	H	0.083165	0.389286	0.080649
	H74	H	0.105622	0.619489	0.903793
	H75	H	0.903115	0.383404	0.908951
	H76	H	0.097894	0.905063	0.614522
	H77	H	0.102707	0.103110	0.373535
	H78	H	0.920090	0.088784	0.609041
	H79	H	0.914401	0.902351	0.377400
	H80	H	0.618690	0.092638	0.902377
	H81	H	0.383909	0.086376	0.092956
	H82	H	0.623594	0.906626	0.096631
	H83	H	0.387601	0.911830	0.914101
	H84	H	0.620915	0.900900	0.079908
	H85	H	0.381379	0.099142	0.088878
	H86	H	0.621765	0.096229	0.895797
	H87	H	0.382759	0.915373	0.894730
	H88	H	0.908830	0.106080	0.617411
	H89	H	0.098679	0.089484	0.379699
	H90	H	0.093620	0.911532	0.612506
	H91	H	0.904759	0.908777	0.376421
	H92	H	0.094619	0.620510	0.890480
	H93	H	0.109165	0.382093	0.083538
	H94	H	0.909876	0.617500	0.087770
	H95	H	0.907675	0.380667	0.896213
	H96	H	0.416280	0.115448	0.583259
	H97	H	0.585203	0.886092	0.596978
	H98	H	0.593120	0.115619	0.404109
	H99	H	0.410184	0.888324	0.410337
	H100	H	0.590266	0.411273	0.110671
	H101	H	0.595605	0.596592	0.876771
	H102	H	0.418807	0.597711	0.111172
	H103	H	0.423218	0.404028	0.880547
	H104	H	0.123876	0.598203	0.395117
	H105	H	0.881714	0.594440	0.593280
	H106	H	0.124002	0.403449	0.592478
	H107	H	0.884466	0.412298	0.404424
	H108	H	0.905929	0.618025	0.087710
	H109	H	0.092226	0.380867	0.104136
	H110	H	0.089631	0.613680	0.905174
	H111	H	0.916714	0.386578	0.905190
	H112	H	0.089717	0.905050	0.612937
	H113	H	0.087897	0.101153	0.378490
	H114	H	0.898532	0.086511	0.614578
	H115	H	0.913956	0.913069	0.380165
	H116	H	0.621397	0.100380	0.902687
	H117	H	0.386253	0.090873	0.080432
	H118	H	0.616548	0.917639	0.084026
	H119	H	0.379549	0.897208	0.902346
	C120	C	0.380187	0.010644	0.617354
	C121	C	0.623606	0.993386	0.616717
	C122	C	0.625311	0.009634	0.372254
	C123	C	0.381100	0.993232	0.373703
	C124	C	0.621970	0.379509	0.003450
	C125	C	0.624437	0.623721	0.985913
	C126	C	0.381853	0.621906	0.003255
	C127	C	0.379893	0.378108	0.985866
	C128	C	0.011310	0.623936	0.373313
	C129	C	0.993221	0.621826	0.615729
	C130	C	0.011911	0.379144	0.617280
	C131	C	0.993864	0.381216	0.375448
	C132	C	0.879131	0.509720	0.118291
	C133	C	0.123899	0.492643	0.116811
	C134	C	0.124628	0.509494	0.872676
	C135	C	0.880895	0.491824	0.873800
	C136	C	0.123169	0.880244	0.504317
	C137	C	0.124338	0.124381	0.486345
	C138	C	0.881412	0.122971	0.504468
	C139	C	0.880657	0.878762	0.486601
	C140	C	0.510938	0.123958	0.872412
	C141	C	0.493403	0.121531	0.115220
	C142	C	0.511272	0.879097	0.116505
	C143	C	0.492985	0.881056	0.874113
	C144	C	0.381733	0.887439	0.673399
	C145	C	0.621481	0.116679	0.670244
	C146	C	0.622273	0.886403	0.318498
	C147	C	0.384826	0.116310	0.317561
	C148	C	0.677987	0.383997	0.879323
	C149	C	0.677768	0.618819	0.110571
	C150	C	0.328166	0.619008	0.878659
	C151	C	0.325453	0.381018	0.110360
	C152	C	0.886893	0.677727	0.376481
	C153	C	0.117743	0.677557	0.613198
	C154	C	0.887581	0.323173	0.616408
	C155	C	0.118373	0.327434	0.376454
	C156	C	0.887457	0.380350	0.673106
	C157	C	0.117932	0.619981	0.669667
	C158	C	0.886710	0.620888	0.319487
	C159	C	0.118288	0.385090	0.319728
	C160	C	0.383762	0.678217	0.879355
	C161	C	0.622289	0.678313	0.109637
	C162	C	0.621742	0.325955	0.879479
	C163	C	0.380425	0.321269	0.109316
	C164	C	0.679117	0.886022	0.376919
	C165	C	0.679447	0.116317	0.612888
	C166	C	0.324714	0.887110	0.615475
	C167	C	0.327975	0.116958	0.376046
	C168	C	0.880962	0.387095	0.174719
	C169	C	0.121609	0.616273	0.169780
	C170	C	0.121752	0.386474	0.818730
	C171	C	0.883303	0.614780	0.817482
	C172	C	0.178395	0.885168	0.379913
	C173	C	0.177135	0.118998	0.611313
	C174	C	0.828810	0.119622	0.379620
	C175	C	0.825607	0.881614	0.610855
	C176	C	0.386397	0.177169	0.875496
	C177	C	0.617669	0.177461	0.112293
	C178	C	0.386942	0.823256	0.115741
	C179	C	0.617390	0.827082	0.874565
	C180	C	0.386878	0.880823	0.172515
	C181	C	0.618577	0.119128	0.168278
	C182	C	0.386137	0.120141	0.818942
	C183	C	0.617846	0.885458	0.819231
	C184	C	0.884245	0.179177	0.380697
	C185	C	0.121882	0.178073	0.610602
	C186	C	0.122598	0.826028	0.380309
	C187	C	0.880876	0.822711	0.610179
	C188	C	0.178116	0.386183	0.877448
	C189	C	0.179831	0.615945	0.112853
	C190	C	0.823633	0.386388	0.116708
	C191	C	0.826575	0.615139	0.875778
	C192	C	0.402548	0.096680	0.595368
	C193	C	0.601114	0.907280	0.595487
	C194	C	0.603767	0.095639	0.393213
	C195	C	0.402467	0.907587	0.396342
	C196	C	0.598915	0.400217	0.089939
	C197	C	0.602573	0.602593	0.899359
	C198	C	0.404060	0.599585	0.089480
	C199	C	0.402695	0.400190	0.899275
	C200	C	0.098309	0.602114	0.394784
	C201	C	0.906410	0.599427	0.593824
	C202	C	0.098691	0.401895	0.594508
	C203	C	0.906903	0.402594	0.398578
	C204	C	0.901391	0.595698	0.095484
	C205	C	0.101439	0.406395	0.095905
	C206	C	0.102967	0.595671	0.893562
	C207	C	0.902569	0.405668	0.896784
	C208	C	0.100344	0.900906	0.590976
	C209	C	0.102849	0.103944	0.399698
	C210	C	0.902928	0.100550	0.591231
	C211	C	0.904067	0.901370	0.400172
	C212	C	0.598152	0.102782	0.894016
	C213	C	0.406311	0.098850	0.093814
	C214	C	0.597880	0.901795	0.093588
	C215	C	0.405657	0.901892	0.897140
	Zn216	Zn	0.501823	0.002198	0.746190
	Zn217	Zn	0.503097	0.000903	0.243872
	Zn218	Zn	0.751093	0.500557	-0.004725
	Zn219	Zn	0.253109	0.501105	-0.005466
	Zn220	Zn	0.002027	0.750993	0.495382
	Zn221	Zn	0.003058	0.252294	0.495859
	Zn222	Zn	0.002364	0.501158	0.744186
	Zn223	Zn	0.002125	0.502291	0.246443
	Zn224	Zn	0.502743	0.752065	-0.005711
	Zn225	Zn	0.501832	0.250279	-0.006045
	Zn226	Zn	0.753475	0.001177	0.495110
	Zn227	Zn	0.251842	0.002504	0.495525
	N228	N	0.415818	0.965147	0.674674
	N229	N	0.587254	0.039186	0.672724
	N230	N	0.589450	0.964171	0.315383
	N231	N	0.417324	0.038526	0.315957
	N232	N	0.678309	0.416772	0.957505
	N233	N	0.679384	0.585661	0.032726
	N234	N	0.327096	0.584656	0.956501
	N235	N	0.324824	0.415628	0.032561
	N236	N	0.965386	0.679923	0.409217
	N237	N	0.039089	0.679107	0.580345
	N238	N	0.965924	0.322226	0.582426
	N239	N	0.039777	0.324989	0.410336
	N240	N	0.965715	0.414731	0.673538
	N241	N	0.039664	0.585850	0.671071
	N242	N	0.965223	0.588114	0.317380
	N243	N	0.039733	0.417716	0.318736
	N244	N	0.416417	0.680336	0.957783
	N245	N	0.590121	0.681672	0.031077
	N246	N	0.587635	0.323007	0.957536
	N247	N	0.413565	0.319343	0.030815
	N248	N	0.681125	0.963635	0.409658
	N249	N	0.680683	0.038722	0.580273
	N250	N	0.323593	0.964565	0.581447
	N251	N	0.325486	0.039465	0.410160
	N252	N	0.914364	0.464959	0.176136
	N253	N	0.087373	0.538762	0.172206
	N254	N	0.089046	0.464142	0.815832
	N255	N	0.916400	0.537188	0.816261
	N256	N	0.178905	0.918142	0.457775
	N257	N	0.178789	0.086284	0.533129
	N258	N	0.826806	0.085536	0.457504
	N259	N	0.825215	0.915791	0.532871
	N260	N	0.464996	0.179491	0.908041
	N261	N	0.538924	0.178942	0.079851
	N262	N	0.465435	0.821795	0.081870
	N263	N	0.538631	0.824443	0.908267
	N264	N	0.465261	0.914840	0.173164
	N265	N	0.540196	0.085136	0.170150
	N266	N	0.464766	0.087797	0.816796
	N267	N	0.539419	0.918340	0.818898
	N268	N	0.916226	0.181324	0.459350
	N269	N	0.089753	0.181512	0.532118
	N270	N	0.089130	0.822724	0.458843
	N271	N	0.914343	0.820771	0.531924
	N272	N	0.180190	0.463789	0.910058
	N273	N	0.181433	0.538014	0.080710
	N274	N	0.822423	0.463622	0.082130
	N275	N	0.824882	0.537719	0.910150
	O276	O	0.491289	0.500958	0.465330
	H277	H	0.490842	0.501138	0.465309
	H278	H	0.497679	0.492605	0.457105
	O279	O	0.450920	0.548117	0.466102
	H280	H	0.456588	0.539837	0.465389
	H281	H	0.458170	0.547592	0.461225
	O282	O	0.526866	0.452753	0.435028
	H283	H	0.536748	0.453809	0.437281
	H284	H	0.530015	0.461847	0.437214
	O285	O	-0.553580	1.429607	1.448838
	H286	H	-0.559988	1.416010	1.445827
	H287	H	-0.553421	1.442640	1.451776
	O288	O	0.460365	0.622255	0.418994
	H289	H	0.450138	0.620825	0.412609
	H290	H	0.451788	0.635778	0.417177
	O291	O	-0.033600	-0.059080	1.070779
	H292	H	-0.039123	-0.055283	1.064122
	H293	H	-0.035885	-0.056521	1.061984
	O294	O	0.463366	0.615072	0.529384
	H295	H	0.453488	0.612490	0.537689
	H296	H	0.461207	0.599580	0.525933
	O297	O	0.518295	0.443434	0.521632
	H298	H	0.521603	0.436011	0.520742
	H299	H	0.518547	0.444874	0.527025
	O300	O	0.493770	0.437567	0.522504
	H301	H	0.488863	0.442819	0.520987
	H302	H	0.498345	0.438066	0.520121
	O303	O	0.519158	0.468761	0.479260
	H304	H	0.516588	0.463547	0.483600
	H305	H	0.526208	0.457678	0.486626
	O306	O	0.933651	-0.061603	1.018732
	H307	H	0.924100	-0.074623	1.018095
	H308	H	0.934861	-0.058635	1.028073
	O309	O	0.524005	0.517737	0.518234
	H310	H	0.512532	0.521762	0.515927
	H311	H	0.521282	0.511328	0.523770
	O312	O	0.451834	0.535181	0.477822
	H313	H	0.459822	0.540010	0.473204
	H314	H	0.447169	0.545546	0.479618
	O315	O	0.943678	-0.048606	1.016373
	H316	H	0.943273	-0.052047	1.016305
	H317	H	0.942487	-0.041716	1.007442
	O318	O	-0.073734	-0.081059	0.080118
	H319	H	-0.071031	-0.079453	0.094154
	H320	H	-0.075579	-0.090485	0.088030
	O321	O	0.547536	0.552054	0.458390
	H322	H	0.549645	0.559736	0.452098
	H323	H	0.545726	0.549395	0.449857
	O324	O	0.951373	-0.058652	0.026829
	H325	H	0.947031	-0.063525	0.028112
	H326	H	0.947214	-0.056475	0.030469
	O327	O	0.933304	0.914896	0.066287
	H328	H	0.939953	0.911159	0.065015
	H329	H	0.938396	0.912033	0.078189
	O330	O	0.547968	0.459937	0.494421
	H331	H	0.550196	0.463181	0.497944
	H332	H	0.557569	0.464241	0.485909
	O333	O	0.609617	0.479416	0.483239
	H334	H	0.620226	0.475766	0.481441
	H335	H	0.606556	0.484575	0.488118
