data_Molecule from HDF5

_cell_length_a		16.069597
_cell_length_b		16.424898
_cell_length_c		16.040271
_cell_angle_alpha	90.147180
_cell_angle_beta	89.700187
_cell_angle_gamma	89.927330
_symmetry_space_group_name_H-M	'P 1'
_symmetry_Int_Tables_number		1

loop_
	_symmetry_equiv_pos_as_xyz
	x,y,z

loop_
	_atom_site_label
	_atom_site_type_symbol
	_atom_site_fract_x
	_atom_site_fract_y
	_atom_site_fract_z
	H0	H	0.408134	0.841896	0.717868
	H1	H	0.605244	0.167347	0.722116
	H2	H	0.606703	0.842474	0.288532
	H3	H	0.405766	0.166791	0.287499
	H4	H	0.719552	0.407208	0.838705
	H5	H	0.711970	0.602712	0.170612
	H6	H	0.294684	0.600588	0.837632
	H7	H	0.288975	0.406477	0.169503
	H8	H	0.844149	0.725442	0.399893
	H9	H	0.169422	0.723196	0.608837
	H10	H	0.841945	0.289190	0.610068
	H11	H	0.170951	0.291687	0.404528
	H12	H	0.837841	0.412550	0.714834
	H13	H	0.172077	0.601860	0.716019
	H14	H	0.839196	0.602726	0.296548
	H15	H	0.170494	0.407227	0.290488
	H16	H	0.401492	0.720815	0.840399
	H17	H	0.607450	0.721335	0.166948
	H18	H	0.608238	0.287904	0.839127
	H19	H	0.398040	0.286261	0.167301
	H20	H	0.724768	0.844260	0.401978
	H21	H	0.719813	0.169314	0.602205
	H22	H	0.288293	0.844720	0.605911
	H23	H	0.291175	0.168359	0.406124
	H24	H	0.902801	0.344053	0.223242
	H25	H	0.104322	0.668428	0.222272
	H26	H	0.102503	0.343530	0.789723
	H27	H	0.905382	0.668991	0.790439
	H28	H	0.219682	0.908280	0.338405
	H29	H	0.215795	0.101542	0.671967
	H30	H	0.796122	0.104191	0.337800
	H31	H	0.792550	0.909778	0.670590
	H32	H	0.341508	0.221155	0.898137
	H33	H	0.667365	0.223570	0.107190
	H34	H	0.340595	0.788131	0.107359
	H35	H	0.669488	0.786010	0.899479
	H36	H	0.339503	0.907656	0.218668
	H37	H	0.672089	0.100578	0.213527
	H38	H	0.338475	0.098330	0.794209
	H39	H	0.671740	0.907014	0.790473
	H40	H	0.905116	0.222205	0.340940
	H41	H	0.108449	0.221658	0.670126
	H42	H	0.114621	0.785968	0.342502
	H43	H	0.903157	0.790372	0.669270
	H44	H	0.220023	0.343537	0.902682
	H45	H	0.220385	0.667778	0.104130
	H46	H	0.786672	0.344138	0.105028
	H47	H	0.788577	0.669582	0.907378
	H48	H	0.416838	0.117861	0.593620
	H49	H	0.609273	0.886215	0.599757
	H50	H	0.600059	0.120987	0.410017
	H51	H	0.417068	0.890342	0.409881
	H52	H	0.587457	0.407060	0.122132
	H53	H	0.596974	0.590472	0.886483
	H54	H	0.412778	0.613595	0.128133
	H55	H	0.408621	0.410401	0.883607
	H56	H	0.125405	0.598509	0.413971
	H57	H	0.886752	0.605544	0.593927
	H58	H	0.125764	0.411777	0.600261
	H59	H	0.891339	0.412166	0.431404
	H60	H	0.125107	0.408318	0.596620
	H61	H	0.888417	0.595945	0.594948
	H62	H	0.124130	0.596982	0.416839
	H63	H	0.887927	0.423259	0.409221
	H64	H	0.398622	0.588685	0.124697
	H65	H	0.590191	0.599423	0.884845
	H66	H	0.599271	0.409977	0.124940
	H67	H	0.415665	0.415406	0.887103
	H68	H	0.601920	0.122493	0.409280
	H69	H	0.592602	0.890336	0.602903
	H70	H	0.403535	0.123996	0.596808
	H71	H	0.414301	0.890768	0.416015
	H72	H	0.910826	0.622218	0.104761
	H73	H	0.087442	0.391873	0.102511
	H74	H	0.100802	0.624400	0.904858
	H75	H	0.915394	0.391796	0.911006
	H76	H	0.097677	0.911168	0.624485
	H77	H	0.103623	0.093164	0.385965
	H78	H	0.920079	0.102695	0.623334
	H79	H	0.907996	0.905212	0.380232
	H80	H	0.620541	0.094331	0.919960
	H81	H	0.388962	0.095418	0.086725
	H82	H	0.622118	0.910772	0.088882
	H83	H	0.383291	0.904777	0.906249
	H84	H	0.624169	0.912629	0.097394
	H85	H	0.387886	0.089915	0.099642
	H86	H	0.624958	0.093468	0.907535
	H87	H	0.388277	0.905813	0.920807
	H88	H	0.908479	0.101867	0.626015
	H89	H	0.090474	0.100211	0.389482
	H90	H	0.097276	0.916300	0.622674
	H91	H	0.915224	0.926096	0.388691
	H92	H	0.093393	0.620753	0.912805
	H93	H	0.095597	0.393484	0.087943
	H94	H	0.908704	0.620275	0.096955
	H95	H	0.909687	0.391509	0.916133
	H96	H	0.413639	0.123595	0.607865
	H97	H	0.599133	0.893351	0.587609
	H98	H	0.600195	0.121456	0.408115
	H99	H	0.410479	0.888772	0.411344
	H100	H	0.591994	0.418289	0.120161
	H101	H	0.600295	0.600522	0.881643
	H102	H	0.426696	0.590737	0.116074
	H103	H	0.417151	0.406666	0.884654
	H104	H	0.123919	0.594896	0.413556
	H105	H	0.885696	0.600875	0.602766
	H106	H	0.123758	0.412243	0.595879
	H107	H	0.881123	0.400214	0.411586
	H108	H	0.903117	0.623438	0.101998
	H109	H	0.104365	0.386890	0.102071
	H110	H	0.104647	0.622604	0.914793
	H111	H	0.908136	0.389854	0.908291
	H112	H	0.092892	0.913159	0.622983
	H113	H	0.101827	0.107793	0.382902
	H114	H	0.913864	0.092757	0.622166
	H115	H	0.930680	0.907548	0.389170
	H116	H	0.626695	0.105139	0.913369
	H117	H	0.384184	0.102644	0.097470
	H118	H	0.624622	0.904754	0.095444
	H119	H	0.388396	0.917065	0.911409
	C120	C	0.383064	0.014128	0.627512
	C121	C	0.628729	0.997258	0.626398
	C122	C	0.629737	0.014328	0.380495
	C123	C	0.383912	0.996867	0.382759
	C124	C	0.624486	0.382778	0.013049
	C125	C	0.624168	0.625713	0.994187
	C126	C	0.383628	0.625749	0.013501
	C127	C	0.382340	0.381957	0.994357
	C128	C	0.015399	0.626548	0.385286
	C129	C	0.996465	0.628373	0.626680
	C130	C	0.014965	0.383351	0.626931
	C131	C	0.996453	0.383578	0.386128
	C132	C	0.879355	0.514781	0.129675
	C133	C	0.125595	0.497704	0.126964
	C134	C	0.127540	0.514829	0.881708
	C135	C	0.881748	0.498223	0.883110
	C136	C	0.127320	0.884532	0.513953
	C137	C	0.127647	0.128076	0.495897
	C138	C	0.885640	0.127579	0.514178
	C139	C	0.886283	0.884438	0.495523
	C140	C	0.514232	0.125101	0.883527
	C141	C	0.496004	0.125589	0.124463
	C142	C	0.514075	0.881681	0.124662
	C143	C	0.496510	0.880950	0.882837
	C144	C	0.386390	0.891262	0.681382
	C145	C	0.625572	0.119112	0.682864
	C146	C	0.627457	0.891697	0.325379
	C147	C	0.385370	0.118700	0.326134
	C148	C	0.681636	0.386015	0.888324
	C149	C	0.676699	0.623137	0.120316
	C150	C	0.330353	0.622089	0.887670
	C151	C	0.325985	0.385057	0.119350
	C152	C	0.892305	0.684808	0.383857
	C153	C	0.120716	0.684208	0.626820
	C154	C	0.890857	0.327847	0.627869
	C155	C	0.121035	0.328937	0.385478
	C156	C	0.888873	0.389356	0.680074
	C157	C	0.121750	0.624238	0.680540
	C158	C	0.889666	0.623816	0.332042
	C159	C	0.120964	0.386834	0.328953
	C160	C	0.383387	0.682066	0.889340
	C161	C	0.624898	0.682523	0.118182
	C162	C	0.626257	0.326678	0.888575
	C163	C	0.380839	0.325615	0.118454
	C164	C	0.686232	0.892427	0.382185
	C165	C	0.682833	0.120088	0.623438
	C166	C	0.326940	0.892551	0.625581
	C167	C	0.328526	0.119318	0.385176
	C168	C	0.881980	0.392560	0.185069
	C169	C	0.124397	0.619589	0.183871
	C170	C	0.123815	0.392216	0.826820
	C171	C	0.884937	0.620451	0.828323
	C172	C	0.183277	0.887414	0.388725
	C173	C	0.180537	0.123707	0.621806
	C174	C	0.832279	0.124720	0.388295
	C175	C	0.829920	0.888186	0.620652
	C176	C	0.390427	0.181650	0.881477
	C177	C	0.618998	0.183614	0.125377
	C178	C	0.389998	0.826400	0.125628
	C179	C	0.620448	0.824795	0.881715
	C180	C	0.389428	0.885592	0.181494
	C181	C	0.621496	0.122479	0.178188
	C182	C	0.388817	0.120712	0.829419
	C183	C	0.621748	0.885062	0.827532
	C184	C	0.886552	0.183567	0.389913
	C185	C	0.126984	0.183476	0.620823
	C186	C	0.130736	0.826602	0.390616
	C187	C	0.884922	0.828786	0.619829
	C188	C	0.182102	0.392139	0.883296
	C189	C	0.182463	0.619369	0.125238
	C190	C	0.824293	0.392683	0.126214
	C191	C	0.826707	0.620730	0.886592
	C192	C	0.405110	0.099626	0.605948
	C193	C	0.606714	0.911912	0.603507
	C194	C	0.607249	0.099589	0.402579
	C195	C	0.407068	0.911996	0.405668
	C196	C	0.600096	0.405142	0.099770
	C197	C	0.602294	0.603347	0.907096
	C198	C	0.405973	0.603936	0.100515
	C199	C	0.406590	0.404231	0.907460
	C200	C	0.102034	0.603536	0.408200
	C201	C	0.909590	0.607197	0.603976
	C202	C	0.102309	0.404575	0.604257
	C203	C	0.909213	0.405442	0.410303
	C204	C	0.901343	0.599872	0.107881
	C205	C	0.102538	0.412835	0.104173
	C206	C	0.106013	0.600461	0.904206
	C207	C	0.904335	0.412948	0.905269
	C208	C	0.102834	0.907014	0.600775
	C209	C	0.105239	0.106678	0.408606
	C210	C	0.907463	0.105494	0.601335
	C211	C	0.910775	0.906501	0.408578
	C212	C	0.601396	0.103590	0.906741
	C213	C	0.409413	0.102795	0.101384
	C214	C	0.601108	0.903122	0.101002
	C215	C	0.409301	0.902750	0.905889
	Zn216	Zn	0.505354	0.004519	0.756445
	Zn217	Zn	0.505834	0.004742	0.252537
	Zn218	Zn	0.750785	0.506851	0.005155
	Zn219	Zn	0.256241	0.505079	0.003670
	Zn220	Zn	0.006984	0.755521	0.504796
	Zn221	Zn	0.006009	0.255439	0.506090
	Zn222	Zn	0.005441	0.506282	0.753363
	Zn223	Zn	0.003488	0.505878	0.258688
	Zn224	Zn	0.505329	0.752679	0.003693
	Zn225	Zn	0.503662	0.254002	0.003471
	Zn226	Zn	0.758942	0.006149	0.503292
	Zn227	Zn	0.254168	0.006116	0.505261
	N228	N	0.420686	0.967879	0.682660
	N229	N	0.592893	0.041663	0.684960
	N230	N	0.593054	0.968460	0.324006
	N231	N	0.419397	0.041737	0.324647
	N232	N	0.680751	0.420251	0.966692
	N233	N	0.676827	0.588690	0.042113
	N234	N	0.330167	0.587839	0.965904
	N235	N	0.326849	0.419310	0.041167
	N236	N	0.971532	0.686577	0.416170
	N237	N	0.041773	0.687045	0.593874
	N238	N	0.970332	0.323949	0.595594
	N239	N	0.042334	0.326950	0.420034
	N240	N	0.967211	0.423001	0.679992
	N241	N	0.043582	0.590491	0.680855
	N242	N	0.967054	0.587867	0.333036
	N243	N	0.042080	0.419869	0.328915
	N244	N	0.415975	0.684553	0.968448
	N245	N	0.592729	0.684112	0.038844
	N246	N	0.591728	0.324431	0.967270
	N247	N	0.414828	0.323345	0.039500
	N248	N	0.687670	0.969546	0.415803
	N249	N	0.684812	0.043187	0.589116
	N250	N	0.324718	0.970009	0.592878
	N251	N	0.327430	0.042522	0.419567
	N252	N	0.915636	0.469361	0.187275
	N253	N	0.089731	0.542935	0.185228
	N254	N	0.090529	0.469410	0.825661
	N255	N	0.918555	0.543253	0.826001
	N256	N	0.181359	0.922713	0.466555
	N257	N	0.181334	0.090229	0.543191
	N258	N	0.831505	0.090517	0.466663
	N259	N	0.830590	0.922003	0.542279
	N260	N	0.469434	0.184651	0.914339
	N261	N	0.539944	0.185786	0.092833
	N262	N	0.468614	0.823813	0.091198
	N263	N	0.541488	0.822295	0.915425
	N264	N	0.467617	0.919337	0.180968
	N265	N	0.543835	0.086977	0.177882
	N266	N	0.466910	0.086191	0.830496
	N267	N	0.543590	0.919150	0.827784
	N268	N	0.919059	0.185431	0.468943
	N269	N	0.094922	0.186480	0.541360
	N270	N	0.096287	0.824696	0.469309
	N271	N	0.919250	0.826304	0.540920
	N272	N	0.184615	0.469493	0.916552
	N273	N	0.183324	0.542604	0.090484
	N274	N	0.822394	0.469583	0.092628
	N275	N	0.824518	0.543603	0.919809
	O276	O	0.530152	0.578060	0.510706
	H277	H	0.534109	0.576059	0.513728
	H278	H	0.530806	0.576691	0.505019
	O279	O	0.587668	0.576305	0.526738
	H280	H	0.595049	0.584831	0.526390
	H281	H	0.590113	0.576082	0.534546
	O282	O	1.070636	0.947176	-0.073714
	H283	H	1.061310	0.948241	-0.054530
	H284	H	1.069706	0.947595	-0.067882
	O285	O	1.072258	-0.121432	1.074244
	H286	H	1.086082	-0.125927	1.066542
	H287	H	1.055769	-0.134150	1.090686
	O288	O	0.116270	0.039418	0.008233
	H289	H	0.109803	0.052793	0.004122
	H290	H	0.103539	0.048960	0.009865
	O291	O	0.522014	0.495372	0.524125
	H292	H	0.520502	0.487644	0.526119
	H293	H	0.519688	0.492550	0.515914
	O294	O	0.466574	0.476649	0.475846
	H295	H	0.457899	0.478208	0.477463
	H296	H	0.464803	0.486642	0.477944
	O297	O	-0.014606	0.165048	0.995408
	H298	H	-0.012526	0.169894	0.990539
	H299	H	-0.008791	0.167664	0.996948
	O300	O	0.502506	0.533730	0.523301
	H301	H	0.502299	0.530173	0.520776
	H302	H	0.505685	0.527418	0.523230
	O303	O	0.967782	1.134120	-0.034499
	H304	H	0.967643	1.137055	-0.036764
	H305	H	0.961402	1.144618	-0.035990
	O306	O	-0.521706	1.400546	0.489545
	H307	H	-0.523077	1.402079	0.476347
	H308	H	-0.523808	1.398890	0.495691
	O309	O	0.486651	0.522697	0.551086
	H310	H	0.491483	0.523967	0.543718
	H311	H	0.496743	0.510341	0.551465
	O312	O	-0.043430	-0.107880	-0.086034
	H313	H	-0.047720	-0.100524	-0.078429
	H314	H	-0.043447	-0.113968	-0.089965
	O315	O	1.112690	0.054986	0.012258
	H316	H	1.118788	0.072912	0.013009
	H317	H	1.121175	0.050764	0.022257
	O318	O	1.047069	1.019161	0.999677
	H319	H	1.044721	1.024872	0.998714
	H320	H	1.052551	1.025821	1.011432
	O321	O	0.055811	0.028376	1.038252
	H322	H	0.054713	0.027520	1.037137
	H323	H	0.052978	0.018625	1.043083
	O324	O	0.449255	0.430792	0.393772
	H325	H	0.443347	0.420645	0.388916
	H326	H	0.441080	0.434618	0.396980
	O327	O	-0.152230	-0.108708	0.083219
	H328	H	-0.147260	-0.109432	0.078957
	H329	H	-0.159126	-0.109227	0.086539
	O330	O	0.424375	0.545791	0.461902
	H331	H	0.422150	0.548311	0.454114
	H332	H	0.419991	0.552065	0.465365
	O333	O	-0.421204	0.404632	0.491326
	H334	H	-0.428479	0.405952	0.488001
	H335	H	-0.430512	0.411161	0.488584
	O336	O	0.048729	0.014330	0.044055
	H337	H	0.041107	-0.001360	0.035815
	H338	H	0.057353	0.011463	0.042612
	O339	O	0.501425	0.550904	0.488692
	H340	H	0.497298	0.557100	0.488306
	H341	H	0.504805	0.548250	0.495418
	O342	O	0.926842	1.055400	0.930729
	H343	H	0.939940	1.044380	0.923356
	H344	H	0.921100	1.064650	0.923813
	O345	O	0.971071	0.981571	0.078398
	H346	H	0.964499	0.980610	0.070851
	H347	H	0.967440	0.986070	0.087637
	O348	O	0.540162	0.440215	0.501309
	H349	H	0.530639	0.422167	0.515432
	H350	H	0.551190	0.447276	0.492339
	O351	O	0.447718	0.601490	0.522326
	H352	H	0.450930	0.608687	0.529035
	H353	H	0.458389	0.597370	0.528884
	O354	O	0.478831	0.592070	0.530047
	H355	H	0.478443	0.589171	0.536572
	H356	H	0.483122	0.587710	0.536330
	O357	O	0.950772	0.090526	0.969567
	H358	H	0.948171	0.077418	0.963245
	H359	H	0.955093	0.082541	0.984342
	O360	O	0.612867	0.442801	0.458152
	H361	H	0.616080	0.455663	0.458189
	H362	H	0.615345	0.445642	0.452792
	O363	O	1.012215	-0.088022	0.982750
	H364	H	1.020904	-0.086448	0.974822
	H365	H	1.014430	-0.078384	0.991562
	O366	O	1.049923	1.015412	1.042792
	H367	H	1.056693	1.022478	1.033377
	H368	H	1.040809	1.015039	1.044352
	O369	O	0.865451	0.084579	0.958027
	H370	H	0.871057	0.089661	0.944456
	H371	H	0.857580	0.083197	0.943849
	O372	O	0.139865	-0.008753	0.028018
	H373	H	0.150822	-0.014429	0.012733
	H374	H	0.133754	-0.012947	0.033983
	O375	O	0.950075	0.055819	0.064046
	H376	H	0.963874	0.056016	0.061946
	H377	H	0.953495	0.061138	0.068859
	O378	O	0.455194	0.420230	0.608572
	H379	H	0.443410	0.415750	0.608332
	H380	H	0.457847	0.417367	0.602876
	O381	O	0.600675	0.563463	0.528913
	H382	H	0.597974	0.566853	0.530234
	H383	H	0.602613	0.573049	0.532051
