data_Molecule from HDF5

_cell_length_a		16.128326
_cell_length_b		16.086051
_cell_length_c		16.334129
_cell_angle_alpha	89.745057
_cell_angle_beta	90.157735
_cell_angle_gamma	90.227711
_symmetry_space_group_name_H-M	'P 1'
_symmetry_Int_Tables_number		1

loop_
	_symmetry_equiv_pos_as_xyz
	x,y,z

loop_
	_atom_site_label
	_atom_site_type_symbol
	_atom_site_fract_x
	_atom_site_fract_y
	_atom_site_fract_z
	H0	H	0.412701	0.840590	0.709688
	H1	H	0.614238	0.170986	0.709968
	H2	H	0.611584	0.841107	0.282244
	H3	H	0.409883	0.170356	0.279196
	H4	H	0.727646	0.408454	0.834495
	H5	H	0.726472	0.604664	0.161406
	H6	H	0.296144	0.605293	0.835468
	H7	H	0.301388	0.405741	0.161722
	H8	H	0.845084	0.717476	0.402968
	H9	H	0.178194	0.720322	0.595352
	H10	H	0.846124	0.294265	0.594667
	H11	H	0.176597	0.296067	0.403156
	H12	H	0.847638	0.404144	0.714944
	H13	H	0.176856	0.607839	0.714902
	H14	H	0.848299	0.609677	0.280469
	H15	H	0.176630	0.407938	0.285615
	H16	H	0.414771	0.718819	0.832857
	H17	H	0.612794	0.723297	0.159360
	H18	H	0.609313	0.294545	0.832655
	H19	H	0.412829	0.288284	0.159177
	H20	H	0.723380	0.840441	0.401422
	H21	H	0.724836	0.171763	0.593209
	H22	H	0.298986	0.840321	0.594172
	H23	H	0.300065	0.172527	0.397433
	H24	H	0.912572	0.342041	0.213340
	H25	H	0.114129	0.672018	0.211725
	H26	H	0.113022	0.340932	0.785019
	H27	H	0.911673	0.670892	0.782482
	H28	H	0.223942	0.909973	0.333210
	H29	H	0.229068	0.105880	0.660197
	H30	H	0.797949	0.105873	0.334311
	H31	H	0.798393	0.906939	0.660917
	H32	H	0.345459	0.216095	0.898525
	H33	H	0.677421	0.216474	0.090137
	H34	H	0.345589	0.792812	0.091596
	H35	H	0.677409	0.795898	0.900106
	H36	H	0.347754	0.902830	0.212992
	H37	H	0.675068	0.109278	0.213072
	H38	H	0.347592	0.105040	0.778886
	H39	H	0.677331	0.907015	0.782995
	H40	H	0.912594	0.222444	0.334982
	H41	H	0.110767	0.220769	0.660976
	H42	H	0.108778	0.793905	0.333787
	H43	H	0.912606	0.791415	0.660983
	H44	H	0.222308	0.339054	0.904863
	H45	H	0.228253	0.671492	0.096734
	H46	H	0.800050	0.340697	0.096679
	H47	H	0.801957	0.673289	0.902398
	H48	H	0.424226	0.121869	0.582626
	H49	H	0.612428	0.883335	0.595178
	H50	H	0.602998	0.126531	0.394313
	H51	H	0.411572	0.884908	0.402739
	H52	H	0.610827	0.404871	0.117307
	H53	H	0.609226	0.594649	0.881501
	H54	H	0.420796	0.602753	0.115566
	H55	H	0.423229	0.411235	0.880490
	H56	H	0.130321	0.601416	0.402140
	H57	H	0.892979	0.602773	0.590879
	H58	H	0.130950	0.414528	0.594022
	H59	H	0.890890	0.415858	0.397584
	H60	H	0.130096	0.414838	0.595079
	H61	H	0.896452	0.594375	0.589835
	H62	H	0.130730	0.602360	0.406404
	H63	H	0.891815	0.409968	0.408441
	H64	H	0.419239	0.597136	0.113925
	H65	H	0.600932	0.604011	0.880984
	H66	H	0.609053	0.418130	0.113043
	H67	H	0.412490	0.408644	0.877856
	H68	H	0.596812	0.122356	0.407045
	H69	H	0.597776	0.887475	0.596585
	H70	H	0.413688	0.127378	0.587975
	H71	H	0.423307	0.887233	0.398052
	H72	H	0.921853	0.627477	0.097757
	H73	H	0.105498	0.386312	0.096404
	H74	H	0.096699	0.624773	0.896000
	H75	H	0.915768	0.384689	0.900256
	H76	H	0.110164	0.915362	0.615099
	H77	H	0.117191	0.100739	0.378299
	H78	H	0.925717	0.097447	0.611731
	H79	H	0.923158	0.913952	0.382257
	H80	H	0.626260	0.092688	0.906399
	H81	H	0.388547	0.101916	0.097587
	H82	H	0.626354	0.921717	0.085497
	H83	H	0.391310	0.913077	0.894583
	H84	H	0.630708	0.916670	0.098018
	H85	H	0.394628	0.101976	0.077910
	H86	H	0.632653	0.098539	0.892045
	H87	H	0.392360	0.908066	0.902777
	H88	H	0.916316	0.109507	0.618066
	H89	H	0.098522	0.093148	0.384709
	H90	H	0.103102	0.916612	0.613285
	H91	H	0.915603	0.906052	0.378477
	H92	H	0.099831	0.619066	0.916974
	H93	H	0.104121	0.388201	0.095513
	H94	H	0.924242	0.623718	0.087498
	H95	H	0.926471	0.389321	0.906363
	H96	H	0.425151	0.125906	0.595078
	H97	H	0.603889	0.888771	0.582483
	H98	H	0.611966	0.125627	0.406918
	H99	H	0.420748	0.890834	0.409823
	H100	H	0.598487	0.409047	0.112290
	H101	H	0.612877	0.606168	0.877594
	H102	H	0.423736	0.599060	0.113401
	H103	H	0.415310	0.418245	0.880967
	H104	H	0.129488	0.598689	0.405652
	H105	H	0.892611	0.596632	0.597377
	H106	H	0.131160	0.415081	0.594711
	H107	H	0.896267	0.422902	0.406544
	H108	H	0.914095	0.627506	0.089490
	H109	H	0.105567	0.387453	0.094550
	H110	H	0.117007	0.628598	0.905366
	H111	H	0.915292	0.387907	0.913057
	H112	H	0.104885	0.909343	0.614728
	H113	H	0.100510	0.112793	0.378880
	H114	H	0.910016	0.094926	0.616176
	H115	H	0.912236	0.917905	0.380468
	H116	H	0.632072	0.109040	0.905531
	H117	H	0.395888	0.084903	0.089574
	H118	H	0.630699	0.908817	0.086928
	H119	H	0.395368	0.917658	0.903176
	C120	C	0.391511	0.015276	0.617378
	C121	C	0.633611	0.996614	0.618426
	C122	C	0.632679	0.015274	0.374959
	C123	C	0.389765	0.997243	0.374451
	C124	C	0.634164	0.383826	0.005901
	C125	C	0.635559	0.629880	0.988257
	C126	C	0.391120	0.628175	0.006281
	C127	C	0.389989	0.383279	0.988117
	C128	C	0.020746	0.629605	0.376128
	C129	C	1.003364	0.628046	0.621031
	C130	C	0.021034	0.385405	0.621466
	C131	C	1.002652	0.387753	0.377507
	C132	C	0.891198	0.516335	0.120154
	C133	C	0.134583	0.497479	0.122038
	C134	C	0.133104	0.514601	0.878535
	C135	C	0.891209	0.497206	0.877864
	C136	C	0.133810	0.885038	0.506097
	C137	C	0.134523	0.129895	0.488521
	C138	C	0.889041	0.129378	0.506998
	C139	C	0.889039	0.884092	0.488586
	C140	C	0.520749	0.128255	0.872800
	C141	C	0.502146	0.126332	0.116979
	C142	C	0.520504	0.885240	0.118114
	C143	C	0.502861	0.885428	0.873935
	C144	C	0.393375	0.890073	0.672079
	C145	C	0.633298	0.121324	0.672716
	C146	C	0.630990	0.890662	0.320201
	C147	C	0.390927	0.121245	0.318038
	C148	C	0.689425	0.387736	0.883175
	C149	C	0.689781	0.626265	0.111904
	C150	C	0.334695	0.625556	0.883805
	C151	C	0.337365	0.385222	0.112183
	C152	C	0.895283	0.682006	0.380716
	C153	C	0.128261	0.683229	0.616821
	C154	C	0.895920	0.330734	0.616529
	C155	C	0.127424	0.333111	0.381654
	C156	C	0.896807	0.385532	0.676425
	C157	C	0.127816	0.627244	0.676315
	C158	C	0.897024	0.628728	0.319584
	C159	C	0.127153	0.388845	0.323423
	C160	C	0.393525	0.681988	0.882389
	C161	C	0.633279	0.685210	0.110896
	C162	C	0.630448	0.331159	0.882021
	C163	C	0.393073	0.326554	0.110903
	C164	C	0.686776	0.890309	0.379456
	C165	C	0.688182	0.121924	0.614532
	C166	C	0.336461	0.889976	0.614793
	C167	C	0.336255	0.122324	0.376952
	C168	C	0.892754	0.391505	0.175360
	C169	C	0.133522	0.622356	0.174745
	C170	C	0.131646	0.390277	0.823318
	C171	C	0.892714	0.621916	0.821809
	C172	C	0.187118	0.888716	0.382350
	C173	C	0.190658	0.126776	0.611379
	C174	C	0.834939	0.126540	0.383459
	C175	C	0.835347	0.886727	0.611988
	C176	C	0.395752	0.180819	0.876536
	C177	C	0.627520	0.180251	0.112624
	C178	C	0.395407	0.829693	0.113702
	C179	C	0.627818	0.831920	0.878479
	C180	C	0.396304	0.884790	0.173536
	C181	C	0.626173	0.126986	0.173553
	C182	C	0.396659	0.125182	0.817463
	C183	C	0.627683	0.887475	0.820453
	C184	C	0.892298	0.184463	0.383799
	C185	C	0.131739	0.183633	0.611985
	C186	C	0.129711	0.831053	0.382818
	C187	C	0.892324	0.829152	0.612129
	C188	C	0.186185	0.389189	0.882996
	C189	C	0.190386	0.622105	0.117449
	C190	C	0.837014	0.390742	0.117205
	C191	C	0.837773	0.622759	0.880954
	C192	C	0.414329	0.102449	0.595206
	C193	C	0.611371	0.909275	0.597461
	C194	C	0.610300	0.102264	0.396342
	C195	C	0.412063	0.910149	0.396770
	C196	C	0.612470	0.404553	0.092022
	C197	C	0.613985	0.608141	0.902285
	C198	C	0.414245	0.606220	0.092039
	C199	C	0.410933	0.406077	0.902104
	C200	C	0.107656	0.607255	0.398307
	C201	C	0.916454	0.604956	0.599131
	C202	C	0.108142	0.408143	0.600602
	C203	C	0.915615	0.409776	0.398094
	C204	C	0.913568	0.603569	0.098153
	C205	C	0.111834	0.409950	0.101555
	C206	C	0.111192	0.601739	0.899960
	C207	C	0.912871	0.409973	0.899930
	C208	C	0.112312	0.907124	0.592123
	C209	C	0.111961	0.108712	0.402867
	C210	C	0.910886	0.107089	0.593305
	C211	C	0.910604	0.906087	0.402593
	C212	C	0.607933	0.106575	0.894715
	C213	C	0.415439	0.103176	0.094892
	C214	C	0.607135	0.908666	0.096543
	C215	C	0.415601	0.906647	0.893998
	Zn216	Zn	0.512766	0.005792	0.745387
	Zn217	Zn	0.510981	0.006298	0.246366
	Zn218	Zn	0.763062	0.506599	-0.001313
	Zn219	Zn	0.262020	0.505144	-0.000752
	Zn220	Zn	0.011389	0.756513	0.497839
	Zn221	Zn	0.011530	0.258974	0.498053
	Zn222	Zn	0.012251	0.506234	0.750108
	Zn223	Zn	0.012012	0.507609	0.248617
	Zn224	Zn	0.512132	0.758033	-0.004357
	Zn225	Zn	0.511472	0.254908	-0.004059
	Zn226	Zn	0.760799	0.006209	0.497492
	Zn227	Zn	0.263184	0.007034	0.496660
	N228	N	0.426868	0.969003	0.673849
	N229	N	0.600122	0.042359	0.675385
	N230	N	0.597905	0.969485	0.317449
	N231	N	0.423656	0.042408	0.316320
	N232	N	0.691756	0.419606	0.961155
	N233	N	0.691351	0.592691	0.034708
	N234	N	0.332885	0.593038	0.961971
	N235	N	0.335139	0.419735	0.034930
	N236	N	0.973369	0.682662	0.414853
	N237	N	0.049922	0.683675	0.583052
	N238	N	0.974317	0.330334	0.583296
	N239	N	0.049081	0.332365	0.414609
	N240	N	0.975574	0.418554	0.679562
	N241	N	0.049070	0.593796	0.679113
	N242	N	0.976143	0.596683	0.316788
	N243	N	0.048605	0.422243	0.320735
	N244	N	0.428029	0.683562	0.959541
	N245	N	0.600338	0.687776	0.033054
	N246	N	0.596890	0.328422	0.959456
	N247	N	0.424868	0.325149	0.032740
	N248	N	0.688060	0.968812	0.412625
	N249	N	0.688728	0.043332	0.581515
	N250	N	0.335178	0.968736	0.581570
	N251	N	0.335619	0.044219	0.411620
	N252	N	0.925970	0.470486	0.177275
	N253	N	0.099676	0.543689	0.177796
	N254	N	0.099264	0.469422	0.820475
	N255	N	0.925207	0.542944	0.819662
	N256	N	0.189901	0.921505	0.459964
	N257	N	0.192539	0.094096	0.533654
	N258	N	0.832925	0.092924	0.461038
	N259	N	0.833261	0.920315	0.534266
	N260	N	0.473950	0.182576	0.910386
	N261	N	0.549585	0.180012	0.078032
	N262	N	0.473671	0.829890	0.079884
	N263	N	0.549259	0.830488	0.911202
	N264	N	0.474839	0.918295	0.176520
	N265	N	0.547227	0.094169	0.176316
	N266	N	0.475721	0.093419	0.814862
	N267	N	0.548903	0.919735	0.817284
	N268	N	0.925138	0.186488	0.461697
	N269	N	0.097476	0.185834	0.534836
	N270	N	0.097564	0.828337	0.460889
	N271	N	0.925344	0.827792	0.534558
	N272	N	0.187335	0.467534	0.916616
	N273	N	0.191329	0.543169	0.085550
	N274	N	0.835596	0.469444	0.083688
	N275	N	0.836638	0.544210	0.914931
	O276	O	-0.029211	-0.034403	0.002201
	H277	H	-0.029827	-0.028724	-0.005047
	H278	H	-0.034465	-0.034234	-0.000977
	O279	O	0.438345	0.463105	0.539464
	H280	H	0.428067	0.459030	0.549659
	H281	H	0.441103	0.472839	0.533112
	O282	O	0.496003	0.535944	0.532029
	H283	H	0.495516	0.537086	0.537099
	H284	H	0.486907	0.530152	0.532184
	O285	O	1.069577	-0.048585	0.985300
	H286	H	1.074676	-0.053976	0.983030
	H287	H	1.067841	-0.058721	0.989250
	O288	O	0.999466	-0.032796	0.028739
	H289	H	1.008170	-0.028577	0.025948
	H290	H	1.005535	-0.025368	0.034280
	O291	O	0.531497	0.530580	0.557930
	H292	H	0.519671	0.524087	0.556302
	H293	H	0.528042	0.534189	0.551349
	O294	O	1.005231	0.011935	0.965414
	H295	H	1.004031	0.005202	0.959575
	H296	H	1.012244	0.009681	0.966200
	O297	O	0.053354	-0.054220	0.066542
	H298	H	0.055243	-0.062056	0.064849
	H299	H	0.049743	-0.056728	0.054969
	O300	O	0.503871	0.482868	0.580340
	H301	H	0.503623	0.492125	0.582213
	H302	H	0.508363	0.489438	0.586373
	O303	O	-0.050110	-0.005255	-0.018710
	H304	H	-0.056186	0.000919	-0.020077
	H305	H	-0.055856	-0.010246	-0.020070
	O306	O	1.023920	-0.064449	0.000827
	H307	H	1.026552	-0.070449	0.004641
	H308	H	1.028486	-0.057558	-0.005054
	O309	O	-0.006135	0.047190	0.981930
	H310	H	-0.005661	0.048128	0.979895
	H311	H	-0.016851	0.039989	0.983064
	O312	O	1.007640	0.924793	0.986464
	H313	H	1.010390	0.914572	0.994175
	H314	H	0.995154	0.932634	0.983943
	O315	O	0.532030	0.445643	0.498611
	H316	H	0.541256	0.448385	0.511570
	H317	H	0.522830	0.441086	0.501839
	O318	O	0.405143	0.553286	0.495808
	H319	H	0.410903	0.548442	0.499915
	H320	H	0.396133	0.557742	0.490194
	O321	O	0.036350	1.048762	1.043736
	H322	H	0.028925	1.041202	1.041508
	H323	H	0.041693	1.038874	1.047337
	O324	O	0.551751	0.412652	0.498617
	H325	H	0.543591	0.410677	0.506763
	H326	H	0.542474	0.409061	0.493015
	O327	O	0.466472	0.440622	0.510902
	H328	H	0.450841	0.436523	0.503870
	H329	H	0.468672	0.428974	0.508272
	O330	O	0.478674	0.586820	0.481458
	H331	H	0.479033	0.597091	0.472230
	H332	H	0.493018	0.592135	0.479382
	O333	O	0.620538	0.500357	0.453445
	H334	H	0.630299	0.496664	0.455129
	H335	H	0.617024	0.497048	0.450713
	O336	O	0.440446	0.437009	0.416960
	H337	H	0.439025	0.442315	0.417119
	H338	H	0.436100	0.439291	0.414061
	O339	O	0.986300	1.032940	-0.031841
	H340	H	0.980974	1.044749	-0.038355
	H341	H	0.982839	1.023454	-0.031851
	O342	O	0.495781	0.524834	0.443350
	H343	H	0.499691	0.525320	0.459544
	H344	H	0.494481	0.528070	0.432322
	O345	O	0.535122	0.553770	0.502777
	H346	H	0.538602	0.544274	0.508778
	H347	H	0.540054	0.547671	0.502084
	O348	O	-0.079192	0.039045	0.011902
	H349	H	-0.074440	0.037078	0.016405
	H350	H	-0.074964	0.043133	0.023864
	O351	O	-0.385005	1.430717	1.441600
	H352	H	-0.376018	1.434074	1.440640
	H353	H	-0.382439	1.420137	1.449373
	O354	O	0.488744	0.555140	0.429533
	H355	H	0.489336	0.562985	0.424048
	H356	H	0.480523	0.548820	0.419349
	O357	O	-0.085990	1.007597	0.926939
	H358	H	-0.089515	1.004381	0.931828
	H359	H	-0.091640	1.011090	0.931212
