data_Molecule from HDF5

_cell_length_a		16.356985
_cell_length_b		16.484761
_cell_length_c		16.396328
_cell_angle_alpha	89.919748
_cell_angle_beta	90.011425
_cell_angle_gamma	89.823396
_symmetry_space_group_name_H-M	'P 1'
_symmetry_Int_Tables_number		1

loop_
	_symmetry_equiv_pos_as_xyz
	x,y,z

loop_
	_atom_site_label
	_atom_site_type_symbol
	_atom_site_fract_x
	_atom_site_fract_y
	_atom_site_fract_z
	H0	H	0.407675	0.844780	0.732741
	H1	H	0.618047	0.159539	0.740701
	H2	H	0.615174	0.848809	0.291644
	H3	H	0.397544	0.161791	0.289292
	H4	H	0.728783	0.398163	0.854823
	H5	H	0.730321	0.608236	0.171342
	H6	H	0.291129	0.606141	0.853182
	H7	H	0.283024	0.396173	0.170058
	H8	H	0.848877	0.724270	0.406761
	H9	H	0.166509	0.724416	0.617687
	H10	H	0.851084	0.278351	0.620596
	H11	H	0.166138	0.277923	0.402876
	H12	H	0.849507	0.395608	0.733972
	H13	H	0.165696	0.608302	0.734324
	H14	H	0.848119	0.604627	0.293476
	H15	H	0.166965	0.395713	0.288873
	H16	H	0.405584	0.723713	0.855562
	H17	H	0.611700	0.722584	0.173845
	H18	H	0.616612	0.279944	0.856464
	H19	H	0.396311	0.278133	0.169681
	H20	H	0.727047	0.847073	0.411409
	H21	H	0.733082	0.160644	0.622852
	H22	H	0.289694	0.844737	0.618025
	H23	H	0.281848	0.160621	0.405429
	H24	H	0.897354	0.346954	0.239897
	H25	H	0.112962	0.661006	0.233983
	H26	H	0.118337	0.345840	0.785930
	H27	H	0.904867	0.660813	0.792240
	H28	H	0.231570	0.896897	0.354500
	H29	H	0.229455	0.108806	0.671458
	H30	H	0.783524	0.111601	0.355766
	H31	H	0.792455	0.902938	0.673615
	H32	H	0.351055	0.229834	0.903809
	H33	H	0.663488	0.231966	0.126853
	H34	H	0.348266	0.782892	0.122913
	H35	H	0.665926	0.782605	0.910750
	H36	H	0.348742	0.901728	0.236270
	H37	H	0.665410	0.112893	0.238662
	H38	H	0.349616	0.110717	0.791058
	H39	H	0.666371	0.896929	0.793540
	H40	H	0.898060	0.227714	0.355289
	H41	H	0.119257	0.228825	0.668507
	H42	H	0.113870	0.782428	0.353065
	H43	H	0.904091	0.782479	0.670753
	H44	H	0.234396	0.346452	0.903150
	H45	H	0.225687	0.661665	0.116052
	H46	H	0.780600	0.347203	0.123892
	H47	H	0.789545	0.662398	0.910412
	H48	H	0.416886	0.117391	0.601763
	H49	H	0.602609	0.889346	0.605916
	H50	H	0.590774	0.118008	0.423485
	H51	H	0.420405	0.890370	0.418602
	H52	H	0.589822	0.420321	0.123174
	H53	H	0.593801	0.596240	0.899933
	H54	H	0.414791	0.594236	0.129923
	H55	H	0.420686	0.410451	0.898383
	H56	H	0.123652	0.593654	0.421948
	H57	H	0.895110	0.592834	0.598394
	H58	H	0.121088	0.417865	0.602114
	H59	H	0.898607	0.419493	0.426895
	H60	H	0.121678	0.411074	0.596683
	H61	H	0.893861	0.591831	0.602398
	H62	H	0.123153	0.594125	0.423245
	H63	H	0.894416	0.413731	0.422940
	H64	H	0.415975	0.593034	0.128557
	H65	H	0.598939	0.597488	0.898500
	H66	H	0.591827	0.413704	0.127096
	H67	H	0.417377	0.422141	0.901132
	H68	H	0.595029	0.115750	0.431883
	H69	H	0.594959	0.891316	0.607783
	H70	H	0.418856	0.117853	0.604637
	H71	H	0.427461	0.895853	0.427579
	H72	H	0.916858	0.617860	0.108602
	H73	H	0.092238	0.394209	0.094027
	H74	H	0.094971	0.616277	0.916714
	H75	H	0.918552	0.389415	0.922685
	H76	H	0.100321	0.909476	0.627646
	H77	H	0.096174	0.084968	0.401646
	H78	H	0.909207	0.093035	0.630520
	H79	H	0.917136	0.918494	0.399897
	H80	H	0.617840	0.087945	0.931593
	H81	H	0.399916	0.090473	0.089567
	H82	H	0.620023	0.916812	0.103477
	H83	H	0.395533	0.918068	0.928813
	H84	H	0.622932	0.912617	0.106544
	H85	H	0.397157	0.082457	0.105786
	H86	H	0.621987	0.089535	0.922705
	H87	H	0.391779	0.916405	0.919827
	H88	H	0.925331	0.078859	0.619127
	H89	H	0.090223	0.089036	0.402584
	H90	H	0.099418	0.915803	0.625436
	H91	H	0.921348	0.910451	0.398031
	H92	H	0.094086	0.612456	0.925271
	H93	H	0.101168	0.388753	0.099870
	H94	H	0.927055	0.611203	0.100601
	H95	H	0.918519	0.389684	0.923754
	H96	H	0.420461	0.116163	0.602127
	H97	H	0.597765	0.892593	0.599866
	H98	H	0.599807	0.120375	0.425217
	H99	H	0.415787	0.892629	0.430015
	H100	H	0.597021	0.419630	0.125930
	H101	H	0.597859	0.592430	0.899409
	H102	H	0.416769	0.594844	0.129051
	H103	H	0.428554	0.417700	0.904524
	H104	H	0.122428	0.592773	0.422617
	H105	H	0.893376	0.596185	0.601172
	H106	H	0.117880	0.418312	0.594622
	H107	H	0.896810	0.412779	0.430178
	H108	H	0.914510	0.613713	0.094689
	H109	H	0.090094	0.390136	0.105440
	H110	H	0.102251	0.616072	0.922537
	H111	H	0.917363	0.389089	0.923165
	H112	H	0.093871	0.911504	0.625351
	H113	H	0.095860	0.091865	0.399718
	H114	H	0.931677	0.101572	0.625502
	H115	H	0.912789	0.911986	0.395661
	H116	H	0.620926	0.096718	0.930079
	H117	H	0.391328	0.099595	0.103303
	H118	H	0.621231	0.911378	0.100884
	H119	H	0.392113	0.909031	0.926627
	C120	C	0.387174	0.012488	0.635007
	C121	C	0.630879	0.995324	0.637027
	C122	C	0.628467	0.014097	0.393806
	C123	C	0.386640	0.996330	0.392181
	C124	C	0.627848	0.383556	0.021713
	C125	C	0.628759	0.625847	1.004997
	C126	C	0.385540	0.625462	0.023192
	C127	C	0.386394	0.382137	1.004603
	C128	C	0.017273	0.624523	0.391106
	C129	C	0.999408	0.624628	0.632705
	C130	C	0.016553	0.381605	0.632632
	C131	C	1.000187	0.381386	0.391486
	C132	C	0.885328	0.511291	0.135220
	C133	C	0.127503	0.494987	0.132834
	C134	C	0.130708	0.510892	0.888653
	C135	C	0.886338	0.494163	0.891308
	C136	C	0.130756	0.880707	0.521079
	C137	C	0.128945	0.123123	0.504657
	C138	C	0.886985	0.125027	0.521192
	C139	C	0.886836	0.882534	0.503906
	C140	C	0.516534	0.125176	0.893165
	C141	C	0.499772	0.125798	0.134779
	C142	C	0.516389	0.882393	0.136880
	C143	C	0.498703	0.882493	0.893707
	C144	C	0.387568	0.892613	0.693900
	C145	C	0.635272	0.112883	0.699415
	C146	C	0.632448	0.895933	0.332339
	C147	C	0.380919	0.114538	0.330318
	C148	C	0.689584	0.379777	0.902725
	C149	C	0.689808	0.627116	0.124283
	C150	C	0.329410	0.625510	0.901926
	C151	C	0.323147	0.377770	0.122507
	C152	C	0.896562	0.683765	0.389001
	C153	C	0.118713	0.684573	0.635800
	C154	C	0.898251	0.319230	0.637531
	C155	C	0.119183	0.318957	0.386084
	C156	C	0.897438	0.377585	0.694241
	C157	C	0.118484	0.626444	0.693611
	C158	C	0.896037	0.624421	0.332709
	C159	C	0.119449	0.377888	0.329646
	C160	C	0.385957	0.684520	0.903323
	C161	C	0.630836	0.683904	0.125400
	C162	C	0.633543	0.321012	0.903716
	C163	C	0.380106	0.319241	0.122363
	C164	C	0.688361	0.895023	0.391899
	C165	C	0.692295	0.113544	0.640427
	C166	C	0.328975	0.892722	0.636715
	C167	C	0.322979	0.113870	0.388045
	C168	C	0.880296	0.393902	0.198463
	C169	C	0.130532	0.613477	0.193583
	C170	C	0.135344	0.393095	0.826973
	C171	C	0.886017	0.613559	0.832204
	C172	C	0.191668	0.878742	0.401996
	C173	C	0.190305	0.126904	0.623473
	C174	C	0.824424	0.128789	0.402914
	C175	C	0.830238	0.882785	0.624986
	C176	C	0.398019	0.187941	0.887589
	C177	C	0.616973	0.189567	0.141672
	C178	C	0.396443	0.822855	0.140489
	C179	C	0.618220	0.822193	0.892004
	C180	C	0.396532	0.881667	0.197272
	C181	C	0.617750	0.130436	0.197892
	C182	C	0.397558	0.128864	0.831133
	C183	C	0.618550	0.879557	0.834043
	C184	C	0.881666	0.186759	0.402699
	C185	C	0.134726	0.186451	0.621958
	C186	C	0.132747	0.822093	0.401109
	C187	C	0.885942	0.822977	0.623557
	C188	C	0.193285	0.393238	0.885433
	C189	C	0.186881	0.613884	0.134695
	C190	C	0.822037	0.394056	0.140421
	C191	C	0.828360	0.614211	0.890794
	C192	C	0.411588	0.095554	0.610017
	C193	C	0.605663	0.912709	0.611595
	C194	C	0.602493	0.096548	0.419465
	C195	C	0.413604	0.914357	0.417970
	C196	C	0.600792	0.410107	0.103714
	C197	C	0.603927	0.602088	0.921204
	C198	C	0.408802	0.600951	0.107423
	C199	C	0.414159	0.409004	0.922624
	C200	C	0.101101	0.600339	0.415596
	C201	C	0.915805	0.600411	0.607709
	C202	C	0.098875	0.408055	0.605663
	C203	C	0.918074	0.407863	0.418642
	C204	C	0.911972	0.592997	0.108771
	C205	C	0.101893	0.412432	0.107197
	C206	C	0.104534	0.593477	0.914278
	C207	C	0.910961	0.410945	0.916117
	C208	C	0.105223	0.905130	0.604350
	C209	C	0.101858	0.096333	0.422469
	C210	C	0.914172	0.098669	0.603656
	C211	C	0.910394	0.906677	0.419739
	C212	C	0.598779	0.098716	0.920386
	C213	C	0.417558	0.098647	0.107347
	C214	C	0.599731	0.906603	0.111164
	C215	C	0.415042	0.907521	0.918319
	Zn216	Zn	0.508313	0.003573	0.764867
	Zn217	Zn	0.507733	0.005648	0.263970
	Zn218	Zn	0.756565	0.503716	0.013089
	Zn219	Zn	0.257868	0.503586	0.012866
	Zn220	Zn	0.007767	0.753803	0.511523
	Zn221	Zn	0.008668	0.252537	0.512014
	Zn222	Zn	0.007623	0.501971	0.761185
	Zn223	Zn	0.008532	0.502698	0.263285
	Zn224	Zn	0.506972	0.754187	0.015498
	Zn225	Zn	0.508304	0.254280	0.013845
	Zn226	Zn	0.758386	0.004441	0.514359
	Zn227	Zn	0.258264	0.003217	0.513372
	N228	N	0.422777	0.968259	0.693245
	N229	N	0.597845	0.038435	0.697374
	N230	N	0.596327	0.971258	0.332982
	N231	N	0.419760	0.040607	0.332743
	N232	N	0.686533	0.417784	0.977340
	N233	N	0.688562	0.592016	0.048363
	N234	N	0.328958	0.589724	0.977649
	N235	N	0.327008	0.416187	0.048281
	N236	N	0.972817	0.684178	0.424071
	N237	N	0.043582	0.683306	0.598464
	N238	N	0.973493	0.321280	0.600244
	N239	N	0.044132	0.320828	0.423563
	N240	N	0.972093	0.415472	0.691501
	N241	N	0.043281	0.589708	0.691674
	N242	N	0.972077	0.588625	0.333608
	N243	N	0.044548	0.415796	0.332705
	N244	N	0.419675	0.684936	0.979980
	N245	N	0.593716	0.683331	0.050136
	N246	N	0.596285	0.323037	0.978685
	N247	N	0.418567	0.321946	0.047903
	N248	N	0.686004	0.969433	0.429355
	N249	N	0.689710	0.039285	0.602571
	N250	N	0.328391	0.968165	0.601042
	N251	N	0.326413	0.039405	0.425897
	N252	N	0.919021	0.467632	0.195380
	N253	N	0.094537	0.538304	0.192669
	N254	N	0.097163	0.467276	0.829059
	N255	N	0.920884	0.537609	0.832215
	N256	N	0.190679	0.914418	0.477842
	N257	N	0.186776	0.088245	0.549374
	N258	N	0.827731	0.091230	0.477779
	N259	N	0.830591	0.919023	0.549495
	N260	N	0.472994	0.186117	0.925325
	N261	N	0.542398	0.186762	0.103346
	N262	N	0.472120	0.822799	0.103929
	N263	N	0.542779	0.824204	0.928855
	N264	N	0.472062	0.917909	0.195144
	N265	N	0.543673	0.091495	0.193677
	N266	N	0.472294	0.090611	0.834312
	N267	N	0.543166	0.916406	0.835051
	N268	N	0.920066	0.184429	0.477225
	N269	N	0.097014	0.184009	0.546991
	N270	N	0.095709	0.823112	0.476111
	N271	N	0.920214	0.822846	0.547069
	N272	N	0.190421	0.467746	0.922992
	N273	N	0.185457	0.539014	0.097791
	N274	N	0.825283	0.467879	0.101552
	N275	N	0.828613	0.539076	0.926856
	O276	O	0.348557	0.654706	0.540151
	H277	H	0.378461	0.661485	0.554314
	H278	H	0.337851	0.672615	0.540905
	O279	O	1.230725	-0.212568	0.985853
	H280	H	1.243403	-0.229447	0.963412
	H281	H	1.233874	-0.226400	0.960108
	O282	O	-0.020590	0.804248	1.227729
	H283	H	-0.064631	0.818986	1.222002
	H284	H	-0.023483	0.779260	1.260550
	O285	O	-0.206164	0.962283	-0.022237
	H286	H	-0.210469	0.962117	-0.000773
	H287	H	-0.203325	0.962763	-0.005866
	O288	O	1.130010	1.065115	-0.169850
	H289	H	1.136079	1.086480	-0.170807
	H290	H	1.136602	1.060247	-0.179739
	O291	O	0.313096	0.485007	0.718922
	H292	H	0.297353	0.488337	0.733660
	H293	H	0.301879	0.500743	0.705690
	O294	O	-0.193151	-0.201495	1.033777
	H295	H	-0.188972	-0.222178	1.031839
	H296	H	-0.181815	-0.207557	1.034681
	O297	O	0.457314	0.470320	0.296217
	H298	H	0.436609	0.483168	0.309418
	H299	H	0.458658	0.470676	0.287262
	O300	O	0.786515	0.784060	0.788678
	H301	H	0.801642	0.781482	0.803249
	H302	H	0.791722	0.796839	0.810902
	O303	O	0.624292	0.707469	0.615706
	H304	H	0.642305	0.699429	0.617839
	H305	H	0.634802	0.713694	0.626971
	O306	O	0.632965	0.527105	0.561574
	H307	H	0.637413	0.527281	0.531083
	H308	H	0.621708	0.514402	0.564967
	O309	O	1.028726	0.224546	0.231427
	H310	H	1.077529	0.212665	0.221599
	H311	H	1.038627	0.258947	0.265808
	O312	O	0.218770	0.986369	0.830417
	H313	H	0.235274	0.991606	0.814260
	H314	H	0.210684	1.009980	0.828853
	O315	O	0.630991	0.641230	0.376458
	H316	H	0.626205	0.636649	0.379775
	H317	H	0.638051	0.645566	0.366241
	O318	O	1.100513	0.123323	0.040769
	H319	H	1.134977	0.130167	0.034477
	H320	H	1.112944	0.094502	0.041416
	O321	O	-0.010271	0.223625	-0.203728
	H322	H	-0.059101	0.210003	-0.192256
	H323	H	-0.021418	0.256975	-0.238772
	O324	O	0.447374	0.593222	0.611470
	H325	H	0.445485	0.581426	0.611348
	H326	H	0.477870	0.596335	0.611369
	O327	O	0.449927	0.343626	0.709536
	H328	H	0.446168	0.312238	0.743930
	H329	H	0.423415	0.361267	0.701299
	O330	O	0.214418	1.014125	0.002583
	H331	H	0.213620	1.001774	-0.017369
	H332	H	0.212695	0.994016	0.001538
	O333	O	0.288243	0.532074	0.547053
	H334	H	0.294708	0.528241	0.522815
	H335	H	0.283108	0.561305	0.541424
	O336	O	0.178560	0.149865	0.191956
	H337	H	0.193048	0.154266	0.149318
	H338	H	0.189685	0.108299	0.201262
	O339	O	0.194316	0.986353	0.190697
	H340	H	0.201672	0.976604	0.191602
	H341	H	0.184113	0.962616	0.187944
	O342	O	-0.201461	0.976481	1.220903
	H343	H	-0.200118	0.998811	1.213906
	H344	H	-0.226958	0.986812	1.222256
	O345	O	0.460125	0.662918	-0.409230
	H346	H	0.461626	0.638416	-0.418432
	H347	H	0.481816	0.675126	-0.392545
	O348	O	0.711113	0.294718	0.523604
	H349	H	0.688221	0.288949	0.555549
	H350	H	0.726589	0.263034	0.523607
	O351	O	0.000061	1.069184	1.231351
	H352	H	0.002204	1.068583	1.224820
	H353	H	0.009010	1.093923	1.241901
	O354	O	0.551485	0.483212	-0.338131
	H355	H	0.568282	0.478495	-0.322789
	H356	H	0.535356	0.491842	-0.336432
	O357	O	-0.212803	0.217288	0.992643
	H358	H	-0.168603	0.227404	1.021602
	H359	H	-0.245502	0.260305	0.991007
	O360	O	0.540119	0.392190	0.565671
	H361	H	0.531520	0.401225	0.586232
	H362	H	0.533557	0.399716	0.539908
	O363	O	0.169194	0.165739	0.936878
	H364	H	0.151982	0.186507	0.931361
	H365	H	0.158052	0.170820	0.939388
	O366	O	0.710847	0.625664	0.602032
	H367	H	0.717764	0.616224	0.566028
	H368	H	0.727470	0.650212	0.611986
	O369	O	0.684486	0.334596	0.335213
	H370	H	0.694336	0.328064	0.377264
	H371	H	0.641176	0.321179	0.335147
	O372	O	0.838477	0.044862	1.076364
	H373	H	0.872368	0.055897	1.064467
	H374	H	0.825716	0.075457	1.059728
	O375	O	0.724123	0.542673	0.730757
	H376	H	0.756583	0.535968	0.745770
	H377	H	0.727264	0.550448	0.719723
	O378	O	0.354274	0.351482	0.687205
	H379	H	0.347766	0.349953	0.664780
	H380	H	0.348347	0.390238	0.692045
	O381	O	0.705917	0.494673	0.314470
	H382	H	0.715689	0.461351	0.314085
	H383	H	0.696777	0.484950	0.301792
	O384	O	0.348956	0.696754	0.371918
	H385	H	0.332753	0.709986	0.381498
	H386	H	0.362971	0.713730	0.357307
	O387	O	-0.068116	0.221641	1.076521
	H388	H	-0.042716	0.206487	1.075515
	H389	H	-0.045324	0.228887	1.104484
	O390	O	0.074638	-0.068684	0.219657
	H391	H	0.056749	-0.058640	0.213544
	H392	H	0.056713	-0.082682	0.227657
	O393	O	0.807857	1.021781	0.812505
	H394	H	0.815284	0.995890	0.828897
	H395	H	0.782448	1.013053	0.807467
	O396	O	1.198636	-0.198711	-0.182428
	H397	H	1.220037	-0.196206	-0.206668
	H398	H	1.185580	-0.169774	-0.184534
	O399	O	1.057956	0.230046	0.965927
	H400	H	1.062892	0.231885	0.980522
	H401	H	1.048565	0.232169	0.925922
	O402	O	0.989067	1.024191	0.967492
	H403	H	0.986782	1.051197	0.967773
	H404	H	0.990786	1.023396	0.978038
	O405	O	0.815787	0.809936	0.207356
	H406	H	0.812851	0.813837	0.170537
	H407	H	0.807081	0.847062	0.217054
	O408	O	0.520044	-0.295723	0.455583
	H409	H	0.529756	-0.294563	0.459723
	H410	H	0.529475	-0.318239	0.453621
	O411	O	1.018693	0.805741	-0.177841
	H412	H	1.020001	0.818262	-0.180696
	H413	H	1.041674	0.800027	-0.184804
	O414	O	0.333795	0.508202	0.348936
	H415	H	0.333203	0.531346	0.347693
	H416	H	0.320611	0.516966	0.345816
	O417	O	0.393444	0.705090	0.325015
	H418	H	0.403838	0.709025	0.329791
	H419	H	0.400926	0.710554	0.324235
	O420	O	-0.067232	-0.144485	-0.029967
	H421	H	-0.037420	-0.154029	-0.052606
	H422	H	-0.058890	-0.139983	0.000184
	O423	O	0.438027	0.306012	0.438692
	H424	H	0.447038	0.300123	0.444751
	H425	H	0.446051	0.323100	0.448516
	O426	O	0.577720	0.329394	0.630018
	H427	H	0.561595	0.324122	0.656986
	H428	H	0.587494	0.366665	0.636543
	O429	O	0.070994	0.983522	-0.105451
	H430	H	0.055261	0.993666	-0.095269
	H431	H	0.042094	0.988487	-0.103274
	O432	O	0.601865	0.634577	0.496079
	H433	H	0.608272	0.621108	0.466533
	H434	H	0.598478	0.634651	0.489809
	O435	O	0.396821	0.494881	0.534765
	H436	H	0.400556	0.474282	0.526135
	H437	H	0.398575	0.497561	0.533486
	O438	O	0.013591	-0.195590	0.030618
	H439	H	0.017426	-0.192734	0.054215
	H440	H	0.037777	-0.191894	0.036769
	O441	O	1.139314	-0.036467	-0.082295
	H442	H	1.123139	-0.040274	-0.091125
	H443	H	1.136920	-0.049788	-0.075011
	O444	O	-0.165684	1.182844	0.833019
	H445	H	-0.177652	1.129370	0.823131
	H446	H	-0.181663	1.193308	0.885280
	O447	O	0.525335	0.295455	0.307766
	H448	H	0.520091	0.281892	0.308536
	H449	H	0.509708	0.306521	0.287526
	O450	O	0.600211	0.580003	0.374920
	H451	H	0.619257	0.560134	0.379955
	H452	H	0.601284	0.593569	0.359941
	O453	O	0.307611	0.307427	0.525518
	H454	H	0.332750	0.292619	0.520810
	H455	H	0.291013	0.311835	0.528086
