data_Molecule from HDF5

_cell_length_a		16.573456
_cell_length_b		16.485655
_cell_length_c		16.647030
_cell_angle_alpha	90.023179
_cell_angle_beta	90.072489
_cell_angle_gamma	90.036946
_symmetry_space_group_name_H-M	'P 1'
_symmetry_Int_Tables_number		1

loop_
	_symmetry_equiv_pos_as_xyz
	x,y,z

loop_
	_atom_site_label
	_atom_site_type_symbol
	_atom_site_fract_x
	_atom_site_fract_y
	_atom_site_fract_z
	H0	H	0.381767	0.843581	0.693297
	H1	H	0.591289	0.158388	0.693664
	H2	H	0.592336	0.845034	0.250817
	H3	H	0.379693	0.156774	0.250289
	H4	H	0.709906	0.392135	0.817771
	H5	H	0.707541	0.605647	0.128045
	H6	H	0.265521	0.605606	0.816336
	H7	H	0.261887	0.393273	0.127200
	H8	H	0.828041	0.718810	0.370471
	H9	H	0.143519	0.719709	0.575448
	H10	H	0.829621	0.279872	0.575592
	H11	H	0.143286	0.279514	0.367384
	H12	H	0.830639	0.393802	0.694098
	H13	H	0.143124	0.604874	0.693301
	H14	H	0.829737	0.605986	0.250451
	H15	H	0.142099	0.394008	0.248567
	H16	H	0.385302	0.720052	0.815554
	H17	H	0.589899	0.720388	0.129239
	H18	H	0.591401	0.277425	0.817333
	H19	H	0.377639	0.276271	0.127046
	H20	H	0.706335	0.843635	0.369871
	H21	H	0.706481	0.159144	0.576506
	H22	H	0.265554	0.844083	0.577799
	H23	H	0.263477	0.156435	0.365616
	H24	H	0.880701	0.343384	0.192844
	H25	H	0.091013	0.658917	0.193224
	H26	H	0.090974	0.342776	0.753371
	H27	H	0.881949	0.657968	0.751389
	H28	H	0.210665	0.892519	0.317919
	H29	H	0.211061	0.108922	0.626427
	H30	H	0.763926	0.106915	0.316646
	H31	H	0.767032	0.897458	0.629767
	H32	H	0.330101	0.223067	0.866368
	H33	H	0.642491	0.223991	0.077516
	H34	H	0.330007	0.781236	0.075984
	H35	H	0.644702	0.781727	0.870233
	H36	H	0.331296	0.896351	0.194039
	H37	H	0.642812	0.109162	0.195711
	H38	H	0.330597	0.107600	0.749483
	H39	H	0.642558	0.894158	0.749756
	H40	H	0.880811	0.223135	0.316179
	H41	H	0.092172	0.223796	0.627434
	H42	H	0.093030	0.777831	0.316577
	H43	H	0.882916	0.779957	0.628853
	H44	H	0.208423	0.343906	0.868308
	H45	H	0.205517	0.660099	0.075971
	H46	H	0.766525	0.342687	0.074621
	H47	H	0.765670	0.658576	0.867367
	H48	H	0.396543	0.113294	0.558314
	H49	H	0.580027	0.885111	0.567166
	H50	H	0.571603	0.112846	0.385798
	H51	H	0.395913	0.888925	0.388330
	H52	H	0.577194	0.421246	0.080932
	H53	H	0.570968	0.587045	0.863578
	H54	H	0.397122	0.595476	0.086041
	H55	H	0.392219	0.415688	0.861149
	H56	H	0.099181	0.590544	0.382326
	H57	H	0.872001	0.586435	0.569745
	H58	H	0.097667	0.417756	0.563982
	H59	H	0.874545	0.412452	0.381292
	H60	H	0.101779	0.408269	0.566280
	H61	H	0.871754	0.597075	0.560968
	H62	H	0.098248	0.588872	0.383511
	H63	H	0.875235	0.412297	0.383391
	H64	H	0.391151	0.591368	0.085844
	H65	H	0.575068	0.597213	0.858438
	H66	H	0.568169	0.410905	0.081855
	H67	H	0.401994	0.417945	0.866047
	H68	H	0.580517	0.115091	0.386161
	H69	H	0.571970	0.888980	0.564426
	H70	H	0.399297	0.114451	0.563778
	H71	H	0.398176	0.886407	0.379920
	H72	H	0.900317	0.612856	0.062751
	H73	H	0.076511	0.386559	0.066598
	H74	H	0.075684	0.613302	0.884921
	H75	H	0.896998	0.389152	0.888263
	H76	H	0.073744	0.916043	0.580780
	H77	H	0.073560	0.081074	0.364858
	H78	H	0.897883	0.089757	0.582946
	H79	H	0.893037	0.909882	0.359175
	H80	H	0.595318	0.085764	0.887477
	H81	H	0.374900	0.087594	0.062255
	H82	H	0.600996	0.907528	0.063047
	H83	H	0.377634	0.915993	0.884592
	H84	H	0.597325	0.913780	0.058873
	H85	H	0.375462	0.087640	0.060993
	H86	H	0.597162	0.086228	0.881825
	H87	H	0.372787	0.912036	0.876378
	H88	H	0.896728	0.090399	0.583192
	H89	H	0.069582	0.093205	0.361311
	H90	H	0.072366	0.908427	0.583169
	H91	H	0.896032	0.915294	0.362809
	H92	H	0.078281	0.614466	0.881542
	H93	H	0.067124	0.391884	0.059192
	H94	H	0.896658	0.612664	0.058014
	H95	H	0.893346	0.385927	0.880489
	H96	H	0.402153	0.111043	0.559375
	H97	H	0.579658	0.888459	0.558584
	H98	H	0.576024	0.115873	0.378360
	H99	H	0.404164	0.890725	0.384884
	H100	H	0.581172	0.408923	0.086085
	H101	H	0.582485	0.587397	0.859295
	H102	H	0.397815	0.588545	0.083496
	H103	H	0.400061	0.407514	0.861038
	H104	H	0.097959	0.588483	0.381184
	H105	H	0.878022	0.584965	0.557890
	H106	H	0.097712	0.410098	0.556615
	H107	H	0.875450	0.414046	0.382387
	H108	H	0.894624	0.615275	0.062739
	H109	H	0.079071	0.389874	0.053990
	H110	H	0.074042	0.613412	0.880643
	H111	H	0.901850	0.389277	0.880183
	H112	H	0.079307	0.912241	0.584455
	H113	H	0.081502	0.089442	0.358414
	H114	H	0.896844	0.089063	0.583193
	H115	H	0.899547	0.908788	0.361739
	H116	H	0.597985	0.090549	0.885196
	H117	H	0.375942	0.086839	0.062069
	H118	H	0.600072	0.915117	0.066436
	H119	H	0.373824	0.906405	0.885114
	C120	C	0.366407	0.009423	0.593348
	C121	C	0.608330	0.992285	0.594709
	C122	C	0.607717	0.009998	0.351867
	C123	C	0.366303	0.992095	0.351761
	C124	C	0.607654	0.379794	-0.019387
	C125	C	0.608004	0.622405	0.963582
	C126	C	0.364769	0.623203	-0.018675
	C127	C	0.364888	0.380274	0.964916
	C128	C	-0.005243	0.621836	0.350811
	C129	C	0.977713	0.621448	0.594270
	C130	C	-0.004730	0.379256	0.593684
	C131	C	0.978351	0.380065	0.350382
	C132	C	0.865196	0.509142	0.092992
	C133	C	0.106796	0.493416	0.092773
	C134	C	0.107808	0.509220	0.851211
	C135	C	0.864823	0.491872	0.850418
	C136	C	0.107924	0.879168	0.480290
	C137	C	0.107818	0.121621	0.464125
	C138	C	0.864672	0.122678	0.480388
	C139	C	0.864438	0.879249	0.464209
	C140	C	0.493903	0.121110	0.852009
	C141	C	0.478317	0.121823	0.094251
	C142	C	0.495750	0.880317	0.094222
	C143	C	0.478535	0.879551	0.850699
	C144	C	0.363476	0.891244	0.653751
	C145	C	0.609981	0.111199	0.653763
	C146	C	0.610436	0.891651	0.291581
	C147	C	0.362146	0.109816	0.290710
	C148	C	0.668751	0.375116	0.863930
	C149	C	0.667391	0.623900	0.081423
	C150	C	0.305878	0.624303	0.863155
	C151	C	0.302721	0.375698	0.080752
	C152	C	0.875812	0.680151	0.350633
	C153	C	0.096206	0.680472	0.594871
	C154	C	0.876948	0.319644	0.594583
	C155	C	0.096273	0.319642	0.348613
	C156	C	0.877499	0.376093	0.653701
	C157	C	0.096001	0.623284	0.653335
	C158	C	0.876764	0.624317	0.290777
	C159	C	0.095592	0.376330	0.289491
	C160	C	0.365012	0.681225	0.862740
	C161	C	0.608817	0.681048	0.081963
	C162	C	0.609788	0.318114	0.863880
	C163	C	0.360595	0.317734	0.080740
	C164	C	0.667303	0.891095	0.350277
	C165	C	0.667199	0.111439	0.595600
	C166	C	0.305818	0.891245	0.595989
	C167	C	0.304490	0.109536	0.348161
	C168	C	0.862960	0.390612	0.152648
	C169	C	0.108948	0.611900	0.152980
	C170	C	0.109532	0.390269	0.792689
	C171	C	0.863117	0.610670	0.790838
	C172	C	0.169475	0.875218	0.364011
	C173	C	0.169718	0.126205	0.580436
	C174	C	0.804141	0.125017	0.363275
	C175	C	0.806283	0.878312	0.582325
	C176	C	0.376939	0.182430	0.848745
	C177	C	0.595700	0.183470	0.096323
	C178	C	0.377344	0.821017	0.095192
	C179	C	0.597241	0.820932	0.850757
	C180	C	0.377913	0.877939	0.153927
	C181	C	0.595867	0.126396	0.155019
	C182	C	0.377105	0.125117	0.790383
	C183	C	0.596106	0.876830	0.790770
	C184	C	0.862274	0.182941	0.363039
	C185	C	0.110776	0.183416	0.580603
	C186	C	0.110779	0.818086	0.363538
	C187	C	0.863882	0.819932	0.582153
	C188	C	0.167752	0.390765	0.850035
	C189	C	0.165803	0.612562	0.094601
	C190	C	0.806009	0.390142	0.093951
	C191	C	0.805529	0.610898	0.848607
	C192	C	0.392134	0.091573	0.567895
	C193	C	0.584162	0.909173	0.570452
	C194	C	0.583069	0.092835	0.376281
	C195	C	0.392272	0.910177	0.377242
	C196	C	0.582429	0.406148	0.061694
	C197	C	0.583428	0.597576	0.881732
	C198	C	0.388583	0.599014	0.063685
	C199	C	0.390722	0.406351	0.883739
	C200	C	0.076939	0.596625	0.375092
	C201	C	0.895429	0.596542	0.569803
	C202	C	0.077620	0.404826	0.569245
	C203	C	0.896546	0.405711	0.375200
	C204	C	0.890089	0.592014	0.068252
	C205	C	0.081581	0.410975	0.067363
	C206	C	0.082992	0.591972	0.875353
	C207	C	0.890089	0.409560	0.875786
	C208	C	0.082428	0.904936	0.561599
	C209	C	0.082127	0.095215	0.382782
	C210	C	0.890037	0.097207	0.561987
	C211	C	0.889080	0.904196	0.382393
	C212	C	0.575545	0.094815	0.877503
	C213	C	0.396674	0.095106	0.068856
	C214	C	0.578052	0.905043	0.069957
	C215	C	0.396189	0.904309	0.875068
	Zn216	Zn	0.486729	0.001514	0.722029
	Zn217	Zn	0.487054	0.001232	0.223405
	Zn218	Zn	0.736797	0.501116	-0.028199
	Zn219	Zn	0.235746	0.501672	-0.026986
	Zn220	Zn	-0.013659	0.750131	0.472682
	Zn221	Zn	-0.013396	0.251372	0.471597
	Zn222	Zn	-0.013449	0.500327	0.722732
	Zn223	Zn	-0.014017	0.500855	0.221633
	Zn224	Zn	0.487078	0.751437	-0.027191
	Zn225	Zn	0.486006	0.250523	-0.027259
	Zn226	Zn	0.735806	0.001472	0.472988
	Zn227	Zn	0.237602	0.000307	0.472470
	N228	N	0.400323	0.965850	0.652252
	N229	N	0.574691	0.035820	0.653740
	N230	N	0.574489	0.966603	0.292330
	N231	N	0.400095	0.035769	0.292780
	N232	N	0.667541	0.412870	0.937445
	N233	N	0.667139	0.588361	0.006866
	N234	N	0.305334	0.589211	0.937979
	N235	N	0.305447	0.414049	0.007759
	N236	N	0.950303	0.679106	0.386904
	N237	N	0.021543	0.679787	0.558936
	N238	N	0.951367	0.321311	0.558159
	N239	N	0.022215	0.321700	0.385605
	N240	N	0.952231	0.412248	0.653358
	N241	N	0.021288	0.587523	0.653155
	N242	N	0.951757	0.588904	0.290470
	N243	N	0.021210	0.413094	0.290349
	N244	N	0.400565	0.680846	0.937307
	N245	N	0.572602	0.680437	0.007662
	N246	N	0.572465	0.320954	0.937249
	N247	N	0.398674	0.320383	0.007675
	N248	N	0.665868	0.965799	0.386837
	N249	N	0.666317	0.036397	0.559666
	N250	N	0.307153	0.965925	0.559352
	N251	N	0.306922	0.035393	0.385471
	N252	N	0.898919	0.465827	0.152227
	N253	N	0.073054	0.536663	0.152198
	N254	N	0.073058	0.464970	0.793223
	N255	N	0.898941	0.535579	0.791584
	N256	N	0.167752	0.912693	0.437547
	N257	N	0.168148	0.088544	0.506866
	N258	N	0.805565	0.088271	0.437236
	N259	N	0.806506	0.914305	0.507987
	N260	N	0.450442	0.179779	0.886575
	N261	N	0.521560	0.180839	0.059339
	N262	N	0.451653	0.822052	0.058922
	N263	N	0.522888	0.822354	0.887216
	N264	N	0.452587	0.913996	0.153459
	N265	N	0.521844	0.088853	0.153953
	N266	N	0.451025	0.087663	0.792226
	N267	N	0.521274	0.912381	0.790430
	N268	N	0.899003	0.181627	0.437006
	N269	N	0.072893	0.180532	0.507221
	N270	N	0.073135	0.820338	0.436955
	N271	N	0.899491	0.820253	0.507629
	N272	N	0.166849	0.465849	0.885727
	N273	N	0.164609	0.537929	0.057888
	N274	N	0.807104	0.465030	0.057847
	N275	N	0.806074	0.535910	0.884809
	O276	O	0.041166	0.951049	0.210622
	H277	H	0.029803	0.948714	0.212114
	H278	H	0.030179	0.948148	0.209329
	O279	O	0.459340	0.710005	0.261709
	H280	H	0.470715	0.715982	0.259606
	H281	H	0.463723	0.701977	0.253386
	O282	O	1.033178	0.039662	0.788103
	H283	H	1.038077	0.019164	0.784281
	H284	H	1.029005	0.018011	0.785378
	O285	O	0.706804	0.472598	0.250228
	H286	H	0.701817	0.453487	0.242427
	H287	H	0.725599	0.470008	0.237644
	O288	O	0.257710	0.465596	0.415108
	H289	H	0.264298	0.461097	0.414402
	H290	H	0.254980	0.461156	0.413640
	O291	O	0.437315	0.390311	0.462084
	H292	H	0.443786	0.384009	0.453122
	H293	H	0.451068	0.388385	0.472590
	O294	O	0.872506	-0.222649	0.942441
	H295	H	0.882538	-0.239475	0.942514
	H296	H	0.885494	-0.217375	0.953373
	O297	O	0.297444	0.545162	0.279114
	H298	H	0.304482	0.547194	0.269764
	H299	H	0.281653	0.536386	0.274345
	O300	O	-0.324644	0.661521	0.517193
	H301	H	-0.311607	0.663515	0.516498
	H302	H	-0.323820	0.663279	0.516876
	O303	O	0.129636	0.211134	0.968855
	H304	H	0.134131	0.220776	0.979393
	H305	H	0.135846	0.205602	0.967739
	O306	O	1.179482	0.044812	0.879893
	H307	H	1.173383	0.061113	0.871191
	H308	H	1.183019	0.036986	0.868483
	O309	O	0.452560	0.290715	0.680863
	H310	H	0.453208	0.295848	0.692193
	H311	H	0.449626	0.294397	0.688282
	O312	O	0.624412	0.467635	0.616493
	H313	H	0.623373	0.480702	0.622564
	H314	H	0.637593	0.463640	0.623563
	O315	O	0.667537	1.686026	0.288430
	H316	H	0.674958	1.669214	0.288164
	H317	H	0.662333	1.686149	0.290422
	O318	O	0.318259	0.610060	0.522908
	H319	H	0.312757	0.616238	0.508148
	H320	H	0.332444	0.603333	0.513654
	O321	O	0.504401	0.681382	0.649531
	H322	H	0.495902	0.691650	0.659400
	H323	H	0.491707	0.694069	0.626283
	O324	O	0.829896	1.015462	0.003634
	H325	H	0.825706	1.018458	0.002333
	H326	H	0.821522	1.002302	-0.003561
	O327	O	0.124444	-0.143141	1.054203
	H328	H	0.121627	-0.141050	1.056944
	H329	H	0.127472	-0.144952	1.046735
	O330	O	0.551700	0.283226	0.539874
	H331	H	0.557548	0.289596	0.551881
	H332	H	0.561101	0.281961	0.558601
	O333	O	-0.049974	-0.217894	1.199176
	H334	H	-0.059229	-0.223811	1.189251
	H335	H	-0.046124	-0.236454	1.225278
	O336	O	0.786216	0.201225	0.774911
	H337	H	0.833123	0.202093	0.766572
	H338	H	0.785289	0.205065	0.823126
	O339	O	0.999166	0.054222	1.090650
	H340	H	1.006422	0.075290	1.092161
	H341	H	1.002792	0.059961	1.084322
	O342	O	-0.091447	0.201809	0.173148
	H343	H	-0.074254	0.196950	0.162589
	H344	H	-0.087215	0.207639	0.175680
	O345	O	-0.233438	0.968671	1.193049
	H346	H	-0.235899	0.960284	1.202780
	H347	H	-0.238468	0.965821	1.203484
	O348	O	0.297889	0.317521	0.654366
	H349	H	0.301383	0.339083	0.639406
	H350	H	0.294547	0.304720	0.659245
	O351	O	1.006055	0.860831	0.007178
	H352	H	1.008856	0.870271	0.003395
	H353	H	1.017723	0.866935	0.013875
	O354	O	0.007462	0.156919	0.887995
	H355	H	0.008618	0.172502	0.878592
	H356	H	-0.001079	0.151434	0.892084
	O357	O	1.373066	1.572271	0.434606
	H358	H	1.350032	1.574837	0.407800
	H359	H	1.389216	1.554714	0.425680
	O360	O	0.270764	0.372609	0.519598
	H361	H	0.259959	0.352803	0.515252
	H362	H	0.280055	0.379675	0.520145
	O363	O	-0.225819	-0.209306	0.058530
	H364	H	-0.204949	-0.208871	0.048839
	H365	H	-0.241017	-0.230291	0.060401
	O366	O	0.689727	0.671706	0.679354
	H367	H	0.698400	0.696742	0.677859
	H368	H	0.661422	0.675541	0.678916
	O369	O	0.794029	-0.138348	0.138101
	H370	H	0.789729	-0.133710	0.111417
	H371	H	0.810715	-0.124901	0.139442
	O372	O	0.772262	0.946145	-0.088575
	H373	H	0.776997	0.945454	-0.080559
	H374	H	0.763926	0.958119	-0.115088
	O375	O	0.929758	0.210374	0.038970
	H376	H	0.939871	0.216276	0.044115
	H377	H	0.942004	0.201954	0.039316
	O378	O	-0.190179	0.844203	0.787233
	H379	H	-0.185369	0.862004	0.796802
	H380	H	-0.178788	0.840812	0.802491
	O381	O	0.414244	0.541654	1.414415
	H382	H	0.422516	0.545832	1.408688
	H383	H	0.409337	0.543971	1.419001
	O384	O	0.856402	0.072044	1.135105
	H385	H	0.847731	0.066291	1.141933
	H386	H	0.854060	0.076158	1.134446
	O387	O	1.207838	0.783256	-0.065380
	H388	H	1.221496	0.774018	-0.058631
	H389	H	1.213220	0.777895	-0.069826
	O390	O	0.514937	0.286258	0.253190
	H391	H	0.516439	0.284200	0.263220
	H392	H	0.525206	0.266323	0.232302
	O393	O	0.413537	0.587153	0.678506
	H394	H	0.431718	0.585883	0.669253
	H395	H	0.418333	0.579829	0.686326
	O396	O	0.706710	1.506568	1.669698
	H397	H	0.737592	1.514325	1.700741
	H398	H	0.694817	1.545027	1.656268
	O399	O	0.009378	0.057414	1.135591
	H400	H	0.002223	0.046017	1.157232
	H401	H	0.005808	0.064043	1.130487
	O402	O	0.695733	0.292891	0.432273
	H403	H	0.690177	0.290275	0.450972
	H404	H	0.711151	0.287365	0.448046
	O405	O	0.951687	0.214610	0.753081
	H406	H	0.970081	0.215498	0.747821
	H407	H	0.966751	0.216057	0.737357
	O408	O	-0.078500	-0.060698	-0.246249
	H409	H	-0.083938	-0.076773	-0.245314
	H410	H	-0.094211	-0.067416	-0.242788
	O411	O	0.539799	0.428718	0.521474
	H412	H	0.537544	0.439390	0.533839
	H413	H	0.540577	0.427126	0.531211
	O414	O	1.086897	-0.072713	0.998484
	H415	H	1.083718	-0.065386	0.985806
	H416	H	1.079780	-0.061891	0.997787
	O417	O	0.701313	0.563546	0.520359
	H418	H	0.713474	0.574610	0.545135
	H419	H	0.697111	0.556983	0.499335
	O420	O	0.287619	0.701693	0.535616
	H421	H	0.279773	0.701815	0.522206
	H422	H	0.299667	0.688743	0.506746
	O423	O	0.299501	0.326326	1.305790
	H424	H	0.315099	0.336488	1.321718
	H425	H	0.289215	0.321594	1.300012
	O426	O	0.655474	0.531738	0.482676
	H427	H	0.662822	0.531913	0.484954
	H428	H	0.650217	0.515256	0.490884
	O429	O	0.524320	0.536540	1.246129
	H430	H	0.512924	0.522879	1.248164
	H431	H	0.540883	0.527867	1.248714
	O432	O	0.270783	0.469627	0.692132
	H433	H	0.254399	0.456066	0.695111
	H434	H	0.265908	0.467835	0.692981
	O435	O	0.245270	0.722012	0.227722
	H436	H	0.242512	0.712882	0.216676
	H437	H	0.257731	0.719532	0.219329
	O438	O	-0.001324	-0.213876	-0.207208
	H439	H	0.030947	-0.215962	-0.205414
	H440	H	0.010064	-0.232232	-0.220865
	O441	O	0.505890	0.494248	0.705983
	H442	H	0.520738	0.498822	0.711320
	H443	H	0.505797	0.506057	0.704144
	O444	O	0.680931	0.305187	0.270612
	H445	H	0.693749	0.288711	0.296627
	H446	H	0.665770	0.320798	0.274949
	O447	O	-0.238291	1.053721	0.766321
	H448	H	-0.248557	1.077201	0.748034
	H449	H	-0.252680	1.081093	0.755319
	O450	O	0.342647	0.680795	1.388227
	H451	H	0.337052	0.686009	1.371219
	H452	H	0.357645	0.678216	1.371253
	O453	O	0.411203	0.444265	0.265156
	H454	H	0.408160	0.422748	0.268937
	H455	H	0.408294	0.439994	0.259378
	O456	O	0.005761	0.037861	0.978787
	H457	H	0.010293	0.030664	0.976124
	H458	H	-0.001794	0.023932	0.978224
	O459	O	0.785751	1.198417	-0.052901
	H460	H	0.775378	1.212201	-0.040697
	H461	H	0.791480	1.186310	-0.033891
	O462	O	0.401952	0.320618	0.417382
	H463	H	0.411209	0.325185	0.417436
	H464	H	0.407962	0.321736	0.415360
	O465	O	0.561247	-0.279566	-0.568239
	H466	H	0.574717	-0.283996	-0.573252
	H467	H	0.569583	-0.281801	-0.567715
	O468	O	0.548814	0.478697	0.436304
	H469	H	0.539632	0.483951	0.437741
	H470	H	0.557671	0.465888	0.429424
	O471	O	0.189228	0.202212	0.771197
	H472	H	0.196641	0.200084	0.763313
	H473	H	0.172180	0.182198	0.766172
	O474	O	0.143527	0.806624	0.771015
	H475	H	0.173464	0.782150	0.747729
	H476	H	0.153423	0.816472	0.792157
	O477	O	1.179033	0.027358	0.982850
	H478	H	1.184261	0.023545	0.976538
	H479	H	1.182499	0.033385	0.978603
	O480	O	0.386476	0.599615	0.680996
	H481	H	0.383621	0.583329	0.678083
	H482	H	0.384093	0.597160	0.669225
	O483	O	1.190687	1.032004	1.179536
	H484	H	1.182353	1.027132	1.170622
	H485	H	1.183563	1.023464	1.198429
	O486	O	1.202243	-0.031908	0.751599
	H487	H	1.217011	-0.040000	0.741039
	H488	H	1.202265	-0.041801	0.750315
	O489	O	1.194064	1.204196	0.136327
	H490	H	1.208047	1.215060	0.142735
	H491	H	1.185834	1.181353	0.123236
