data_Molecule from HDF5

_cell_length_a		16.329654
_cell_length_b		16.379461
_cell_length_c		16.402590
_cell_angle_alpha	89.911632
_cell_angle_beta	89.835660
_cell_angle_gamma	89.833153
_symmetry_space_group_name_H-M	'P 1'
_symmetry_Int_Tables_number		1

loop_
	_symmetry_equiv_pos_as_xyz
	x,y,z

loop_
	_atom_site_label
	_atom_site_type_symbol
	_atom_site_fract_x
	_atom_site_fract_y
	_atom_site_fract_z
	H0	H	0.386700	0.833952	0.736397
	H1	H	0.597172	0.150822	0.728922
	H2	H	0.606913	0.834351	0.286562
	H3	H	0.391386	0.150340	0.291054
	H4	H	0.715107	0.385786	0.850273
	H5	H	0.718574	0.594214	0.168647
	H6	H	0.274871	0.596669	0.852117
	H7	H	0.271666	0.383301	0.168249
	H8	H	0.837142	0.714378	0.402566
	H9	H	0.154229	0.712487	0.616133
	H10	H	0.838166	0.268331	0.617547
	H11	H	0.155052	0.269452	0.403381
	H12	H	0.837392	0.384389	0.731520
	H13	H	0.154046	0.597067	0.731379
	H14	H	0.837647	0.599254	0.286411
	H15	H	0.154410	0.383387	0.286111
	H16	H	0.388769	0.714768	0.854297
	H17	H	0.604227	0.712521	0.169012
	H18	H	0.598507	0.270533	0.851278
	H19	H	0.390242	0.269577	0.170189
	H20	H	0.719112	0.831960	0.405789
	H21	H	0.715913	0.149316	0.616886
	H22	H	0.275166	0.831516	0.616118
	H23	H	0.276357	0.150392	0.406857
	H24	H	0.889575	0.332772	0.232781
	H25	H	0.103553	0.649098	0.231716
	H26	H	0.102257	0.331587	0.788313
	H27	H	0.888921	0.649522	0.787434
	H28	H	0.218398	0.886993	0.350410
	H29	H	0.213613	0.093678	0.670779
	H30	H	0.774150	0.096805	0.351759
	H31	H	0.775702	0.886198	0.670231
	H32	H	0.335890	0.209402	0.910365
	H33	H	0.656049	0.210012	0.114630
	H34	H	0.336754	0.769047	0.119183
	H35	H	0.656620	0.771718	0.907890
	H36	H	0.337076	0.885592	0.233808
	H37	H	0.656230	0.095021	0.229801
	H38	H	0.336745	0.097020	0.791674
	H39	H	0.655473	0.885156	0.790080
	H40	H	0.889967	0.213667	0.351394
	H41	H	0.100474	0.212141	0.668743
	H42	H	0.102508	0.769984	0.350109
	H43	H	0.890190	0.769192	0.668608
	H44	H	0.216825	0.330993	0.905512
	H45	H	0.216235	0.649414	0.114508
	H46	H	0.777963	0.329940	0.113169
	H47	H	0.773480	0.649038	0.902827
	H48	H	0.407625	0.103744	0.600971
	H49	H	0.583479	0.877134	0.601800
	H50	H	0.586903	0.104619	0.422653
	H51	H	0.410044	0.877841	0.422375
	H52	H	0.585963	0.399332	0.124704
	H53	H	0.585520	0.578174	0.898295
	H54	H	0.410620	0.573552	0.121811
	H55	H	0.407578	0.392513	0.894973
	H56	H	0.111334	0.578760	0.414154
	H57	H	0.882184	0.577053	0.600272
	H58	H	0.110516	0.405585	0.602675
	H59	H	0.880719	0.404346	0.417211
	H60	H	0.112002	0.397012	0.598167
	H61	H	0.880544	0.583181	0.598646
	H62	H	0.110233	0.584883	0.424175
	H63	H	0.881006	0.398834	0.422682
	H64	H	0.409749	0.583566	0.125154
	H65	H	0.582756	0.580564	0.898346
	H66	H	0.587915	0.397551	0.125954
	H67	H	0.401041	0.404221	0.896805
	H68	H	0.584379	0.104907	0.419367
	H69	H	0.584016	0.876878	0.599283
	H70	H	0.403640	0.105383	0.600210
	H71	H	0.408770	0.877493	0.423766
	H72	H	0.908388	0.603294	0.097623
	H73	H	0.089989	0.377022	0.092817
	H74	H	0.081287	0.604487	0.915313
	H75	H	0.903484	0.376342	0.922077
	H76	H	0.083271	0.902013	0.621844
	H77	H	0.084883	0.076312	0.398029
	H78	H	0.904232	0.083248	0.625908
	H79	H	0.898215	0.903791	0.393721
	H80	H	0.609981	0.076929	0.921820
	H81	H	0.381875	0.081566	0.098694
	H82	H	0.610425	0.898732	0.098538
	H83	H	0.381473	0.901245	0.922074
	H84	H	0.607389	0.904671	0.096087
	H85	H	0.382610	0.076903	0.102704
	H86	H	0.611786	0.079719	0.917910
	H87	H	0.382629	0.902661	0.925843
	H88	H	0.906433	0.075719	0.622195
	H89	H	0.083613	0.084176	0.395942
	H90	H	0.084563	0.898470	0.623697
	H91	H	0.912781	0.911901	0.401671
	H92	H	0.082685	0.602341	0.924375
	H93	H	0.083697	0.374814	0.105862
	H94	H	0.908329	0.603560	0.096302
	H95	H	0.906885	0.374977	0.914409
	H96	H	0.405439	0.105863	0.603522
	H97	H	0.585300	0.875978	0.600400
	H98	H	0.582369	0.103310	0.422708
	H99	H	0.408503	0.878362	0.421998
	H100	H	0.588563	0.400883	0.125378
	H101	H	0.585375	0.581613	0.896275
	H102	H	0.401502	0.577370	0.125498
	H103	H	0.413856	0.402946	0.900197
	H104	H	0.106095	0.574268	0.423257
	H105	H	0.882862	0.579287	0.594473
	H106	H	0.107804	0.404334	0.593663
	H107	H	0.884333	0.406119	0.424405
	H108	H	0.907602	0.603608	0.097035
	H109	H	0.076357	0.381023	0.095182
	H110	H	0.090023	0.606420	0.919899
	H111	H	0.910870	0.378552	0.920854
	H112	H	0.087315	0.902113	0.622765
	H113	H	0.090785	0.080645	0.394563
	H114	H	0.911695	0.082469	0.622060
	H115	H	0.913543	0.894218	0.395703
	H116	H	0.611190	0.081878	0.923114
	H117	H	0.380659	0.082517	0.104367
	H118	H	0.610374	0.904302	0.102914
	H119	H	0.382625	0.904590	0.923162
	C120	C	0.372854	-0.000070	0.634021
	C121	C	0.616014	0.981964	0.632034
	C122	C	0.618295	-0.000378	0.388810
	C123	C	0.376396	0.982890	0.390803
	C124	C	0.618517	0.367724	0.019602
	C125	C	0.617590	0.611851	1.002469
	C126	C	0.374882	0.611295	0.019366
	C127	C	0.374643	0.368344	1.002222
	C128	C	0.004448	0.612588	0.387718
	C129	C	0.986837	0.612348	0.630782
	C130	C	0.005221	0.369655	0.631032
	C131	C	0.987429	0.369997	0.388516
	C132	C	0.875521	0.498782	0.130115
	C133	C	0.116763	0.482015	0.131032
	C134	C	0.117195	0.499004	0.887849
	C135	C	0.873899	0.481443	0.886830
	C136	C	0.117994	0.868911	0.517800
	C137	C	0.117644	0.112250	0.501535
	C138	C	0.874451	0.113059	0.518836
	C139	C	0.875110	0.870285	0.501972
	C140	C	0.504698	0.111179	0.890736
	C141	C	0.487410	0.112123	0.132910
	C142	C	0.504593	0.869280	0.133027
	C143	C	0.487314	0.869889	0.890528
	C144	C	0.369705	0.880905	0.695136
	C145	C	0.616723	0.102386	0.690522
	C146	C	0.623399	0.881248	0.327368
	C147	C	0.373458	0.102643	0.330812
	C148	C	0.676420	0.366751	0.898750
	C149	C	0.678475	0.613216	0.121226
	C150	C	0.314919	0.614538	0.900033
	C151	C	0.312794	0.365789	0.121176
	C152	C	0.884953	0.674109	0.384511
	C153	C	0.106457	0.672508	0.633523
	C154	C	0.885709	0.309041	0.634297
	C155	C	0.107443	0.309225	0.385319
	C156	C	0.885470	0.366633	0.691559
	C157	C	0.106275	0.615100	0.691178
	C158	C	0.885040	0.616650	0.326804
	C159	C	0.106924	0.365952	0.327112
	C160	C	0.371741	0.673400	0.900932
	C161	C	0.621428	0.672104	0.121554
	C162	C	0.618424	0.309296	0.899219
	C163	C	0.371811	0.309002	0.122221
	C164	C	0.679452	0.880184	0.386656
	C165	C	0.675648	0.101870	0.634400
	C166	C	0.314105	0.879847	0.635309
	C167	C	0.316327	0.102829	0.388725
	C168	C	0.872267	0.379599	0.191588
	C169	C	0.120751	0.601264	0.191855
	C170	C	0.119823	0.379236	0.828339
	C171	C	0.870879	0.601583	0.827041
	C172	C	0.178407	0.867688	0.398176
	C173	C	0.175258	0.112952	0.622261
	C174	C	0.814265	0.115169	0.399309
	C175	C	0.815339	0.868139	0.622190
	C176	C	0.383847	0.170095	0.890851
	C177	C	0.608084	0.170579	0.133412
	C178	C	0.384783	0.809079	0.136550
	C179	C	0.608242	0.810595	0.888902
	C180	C	0.384880	0.867241	0.193633
	C181	C	0.608042	0.113425	0.191096
	C182	C	0.384310	0.114023	0.831992
	C183	C	0.607695	0.867189	0.830312
	C184	C	0.872087	0.173310	0.399092
	C185	C	0.118793	0.171953	0.621297
	C186	C	0.120768	0.809348	0.398073
	C187	C	0.872286	0.809649	0.621313
	C188	C	0.177044	0.378833	0.886639
	C189	C	0.177047	0.601567	0.133283
	C190	C	0.816672	0.378421	0.131959
	C191	C	0.813424	0.601335	0.884611
	C192	C	0.398204	0.083399	0.608761
	C193	C	0.591497	0.898282	0.607474
	C194	C	0.592153	0.082692	0.414383
	C195	C	0.401864	0.899686	0.415576
	C196	C	0.594462	0.392161	0.103548
	C197	C	0.591811	0.587286	0.919222
	C198	C	0.400009	0.585428	0.102444
	C199	C	0.400233	0.392890	0.918992
	C200	C	0.087441	0.586752	0.413146
	C201	C	0.903571	0.587036	0.605123
	C202	C	0.088577	0.395185	0.605514
	C203	C	0.904001	0.395795	0.413989
	C204	C	0.900766	0.581773	0.104445
	C205	C	0.090660	0.399160	0.105541
	C206	C	0.091981	0.582652	0.912695
	C207	C	0.899688	0.398338	0.911806
	C208	C	0.092235	0.893636	0.601073
	C209	C	0.093469	0.087621	0.418047
	C210	C	0.899821	0.087739	0.601719
	C211	C	0.900847	0.896067	0.418673
	C212	C	0.589013	0.086621	0.914193
	C213	C	0.403524	0.087467	0.108937
	C214	C	0.587598	0.894966	0.106667
	C215	C	0.403983	0.895521	0.916266
	Zn216	Zn	0.495684	-0.009055	0.761441
	Zn217	Zn	0.496446	-0.008643	0.260952
	Zn218	Zn	0.746573	0.489816	0.009356
	Zn219	Zn	0.245457	0.490235	0.010119
	Zn220	Zn	-0.004210	0.740434	0.509507
	Zn221	Zn	-0.003408	0.241581	0.509659
	Zn222	Zn	-0.004163	0.490982	0.759511
	Zn223	Zn	-0.004215	0.491090	0.259835
	Zn224	Zn	0.496097	0.740807	0.011828
	Zn225	Zn	0.496467	0.239552	0.011423
	Zn226	Zn	0.745825	-0.008677	0.511477
	Zn227	Zn	0.246619	-0.009061	0.510403
	N228	N	0.405414	0.956663	0.694446
	N229	N	0.580327	0.026845	0.689052
	N230	N	0.585867	0.956395	0.328887
	N231	N	0.410345	0.026990	0.332011
	N232	N	0.676601	0.402380	0.974560
	N233	N	0.676235	0.576596	0.046055
	N234	N	0.316656	0.576760	0.974853
	N235	N	0.314248	0.401903	0.045663
	N236	N	0.960166	0.671753	0.421673
	N237	N	0.031178	0.670670	0.596430
	N238	N	0.961225	0.310761	0.597359
	N239	N	0.032096	0.311586	0.422694
	N240	N	0.960794	0.403831	0.689601
	N241	N	0.030870	0.578149	0.689490
	N242	N	0.960364	0.579261	0.328518
	N243	N	0.031327	0.403118	0.328893
	N244	N	0.408401	0.671506	0.976150
	N245	N	0.584190	0.671222	0.046537
	N246	N	0.583365	0.309570	0.975547
	N247	N	0.409722	0.310611	0.047383
	N248	N	0.676416	0.954927	0.424279
	N249	N	0.675351	0.025945	0.598594
	N250	N	0.316182	0.954934	0.597833
	N251	N	0.318155	0.027531	0.425403
	N252	N	0.907913	0.455337	0.190794
	N253	N	0.084036	0.525704	0.190818
	N254	N	0.083706	0.455195	0.828810
	N255	N	0.907917	0.526149	0.828406
	N256	N	0.176930	0.903669	0.473711
	N257	N	0.174900	0.076757	0.546710
	N258	N	0.815449	0.078505	0.474693
	N259	N	0.816743	0.905112	0.546761
	N260	N	0.459700	0.168483	0.926702
	N261	N	0.531904	0.170285	0.098456
	N262	N	0.460451	0.810024	0.100001
	N263	N	0.532391	0.811874	0.925554
	N264	N	0.460619	0.903695	0.191919
	N265	N	0.532055	0.077687	0.190739
	N266	N	0.460296	0.077898	0.832044
	N267	N	0.531576	0.903248	0.830953
	N268	N	0.908518	0.172332	0.474478
	N269	N	0.083779	0.171768	0.545239
	N270	N	0.083957	0.809887	0.473644
	N271	N	0.908515	0.810885	0.545625
	N272	N	0.175682	0.454511	0.922648
	N273	N	0.174654	0.526583	0.096220
	N274	N	0.818405	0.453538	0.094509
	N275	N	0.815033	0.525725	0.921035
	O276	O	0.678599	0.353051	0.577391
	H277	H	0.673499	0.358858	0.565037
	H278	H	0.680266	0.342872	0.576357
	O279	O	0.297560	0.508047	0.308296
	H280	H	0.291337	0.515265	0.320674
	H281	H	0.286735	0.503370	0.306192
	O282	O	0.743758	0.789424	0.232987
	H283	H	0.742731	0.799522	0.235455
	H284	H	0.744079	0.789439	0.244156
	O285	O	1.173488	0.885582	-0.056599
	H286	H	1.184319	0.880839	-0.073486
	H287	H	1.183498	0.893815	-0.052636
	O288	O	0.423039	0.352886	0.534993
	H289	H	0.429068	0.345455	0.554019
	H290	H	0.405750	0.344787	0.527909
	O291	O	0.287444	0.499184	0.670196
	H292	H	0.284121	0.504266	0.684052
	H293	H	0.274735	0.490864	0.673384
	O294	O	0.922915	0.933296	1.069285
	H295	H	0.925221	0.924105	1.056802
	H296	H	0.907538	0.928136	1.068993
	O297	O	0.585966	0.276106	0.362058
	H298	H	0.574908	0.299499	0.351466
	H299	H	0.579040	0.254441	0.321167
	O300	O	0.446576	0.524973	0.454960
	H301	H	0.468862	0.532304	0.472738
	H302	H	0.439506	0.520449	0.459514
	O303	O	0.391366	0.398052	0.680187
	H304	H	0.406044	0.415872	0.682408
	H305	H	0.398160	0.398441	0.684277
	O306	O	0.477789	0.708555	0.292175
	H307	H	0.449745	0.701585	0.315558
	H308	H	0.471741	0.747970	0.257783
	O309	O	0.899633	0.157459	-0.054615
	H310	H	0.880133	0.165471	-0.065256
	H311	H	0.893924	0.159479	-0.072808
	O312	O	0.436472	0.366695	0.468957
	H313	H	0.443719	0.371136	0.441497
	H314	H	0.456269	0.353589	0.465693
	O315	O	0.666657	0.506143	0.715042
	H316	H	0.674772	0.495893	0.714494
	H317	H	0.666449	0.510323	0.728053
	O318	O	0.079624	0.161298	0.162308
	H319	H	0.081886	0.150529	0.157126
	H320	H	0.082143	0.177185	0.157733
	O321	O	0.698211	0.407156	0.622111
	H322	H	0.711156	0.397431	0.611264
	H323	H	0.689013	0.404991	0.599659
	O324	O	0.922968	0.053404	1.066145
	H325	H	0.938142	0.053128	1.071081
	H326	H	0.926807	0.054871	1.058321
	O327	O	0.524215	0.519367	0.297910
	H328	H	0.539074	0.543078	0.290327
	H329	H	0.514573	0.531350	0.309519
	O330	O	-0.128671	0.791539	1.161454
	H331	H	-0.123528	0.807168	1.169045
	H332	H	-0.150167	0.768812	1.165743
	O333	O	-0.490417	0.679972	-0.279247
	H334	H	-0.467672	0.675786	-0.286343
	H335	H	-0.496573	0.694866	-0.264572
	O336	O	1.082628	0.805058	-0.097628
	H337	H	1.062371	0.792486	-0.094741
	H338	H	1.084434	0.814062	-0.100871
	O339	O	0.128696	0.899595	0.802284
	H340	H	0.152147	0.911835	0.813566
	H341	H	0.141834	0.905677	0.792340
	O342	O	0.373896	0.595640	0.625328
	H343	H	0.371382	0.612587	0.631517
	H344	H	0.359234	0.587784	0.630006
	O345	O	0.170687	0.174669	1.114010
	H346	H	0.186940	0.179190	1.108373
	H347	H	0.153658	0.160502	1.109220
	O348	O	0.688099	0.591539	0.497272
	H349	H	0.686434	0.608260	0.495542
	H350	H	0.686487	0.602454	0.508592
	O351	O	1.041778	1.092268	0.114892
	H352	H	1.041828	1.103765	0.115383
	H353	H	1.035388	1.087939	0.100994
	O354	O	1.185183	0.796099	0.821067
	H355	H	1.188891	0.846924	0.809676
	H356	H	1.165423	0.788060	0.840938
	O357	O	0.142351	-0.147731	0.094192
	H358	H	0.127797	-0.149007	0.096872
	H359	H	0.152905	-0.153193	0.097143
	O360	O	0.466071	0.364832	0.474100
	H361	H	0.483396	0.372420	0.465196
	H362	H	0.465217	0.353609	0.470191
	O363	O	0.985502	0.090422	-0.183504
	H364	H	0.987624	0.095970	-0.189401
	H365	H	0.998897	0.084023	-0.190557
	O366	O	-0.002190	-0.116489	1.011013
	H367	H	-0.012873	-0.112660	1.029891
	H368	H	-0.013455	-0.118798	1.012886
	O369	O	0.959942	0.199049	0.960081
	H370	H	0.948854	0.199886	0.963748
	H371	H	0.966352	0.203773	0.976592
	O372	O	0.485860	0.586498	0.601181
	H373	H	0.500927	0.585432	0.601931
	H374	H	0.493843	0.596739	0.611256
	O375	O	-0.010476	-0.131885	1.011231
	H376	H	-0.005600	-0.139016	1.017384
	H377	H	-0.023728	-0.156402	1.011739
	O378	O	0.323854	0.666239	0.331978
	H379	H	0.320260	0.670479	0.378217
	H380	H	0.328189	0.636975	0.320059
	O381	O	-0.014250	1.045603	-0.174292
	H382	H	-0.025193	1.054985	-0.161344
	H383	H	-0.027338	1.046493	-0.174613
	O384	O	0.576134	0.435700	0.560455
	H385	H	0.579241	0.418100	0.561322
	H386	H	0.587552	0.452208	0.542127
	O387	O	0.462496	0.383239	0.312895
	H388	H	0.440347	0.408288	0.320442
	H389	H	0.459338	0.402788	0.319832
	O390	O	0.858306	0.977932	0.122382
	H391	H	0.856128	0.994279	0.120828
	H392	H	0.847286	0.962237	0.096515
	O393	O	0.852941	0.075314	0.974265
	H394	H	0.855796	0.081414	0.976455
	H395	H	0.865218	0.064482	0.960804
	O396	O	0.646532	0.669664	0.683309
	H397	H	0.647353	0.649638	0.661686
	H398	H	0.637264	0.651167	0.700442
	O399	O	-0.112314	1.027660	0.208131
	H400	H	-0.100801	1.027373	0.212057
	H401	H	-0.108467	1.028262	0.221653
	O402	O	1.424422	1.346611	-0.332572
	H403	H	1.401468	1.336193	-0.352477
	H404	H	1.434155	1.345618	-0.336841
	O405	O	0.679658	0.309342	0.330551
	H406	H	0.674072	0.333356	0.315689
	H407	H	0.642122	0.310533	0.322914
	O408	O	0.640038	0.700912	0.502528
	H409	H	0.647833	0.718232	0.513713
	H410	H	0.626791	0.699899	0.511803
	O411	O	0.851344	1.047270	0.821213
	H412	H	0.852466	1.060638	0.836242
	H413	H	0.844696	1.051336	0.801616
	O414	O	0.323422	0.402668	0.457078
	H415	H	0.310766	0.412146	0.452773
	H416	H	0.343796	0.394430	0.469674
	O417	O	-0.076296	0.965124	1.159468
	H418	H	-0.097703	0.960633	1.157997
	H419	H	-0.074473	0.963097	1.161132
	O420	O	-0.027525	0.871813	0.961730
	H421	H	-0.023644	0.880680	0.952254
	H422	H	-0.032500	0.876078	0.956601
	O423	O	-0.198512	1.001653	-0.103403
	H424	H	-0.214695	1.018633	-0.110169
	H425	H	-0.186267	1.006968	-0.097313
	O426	O	0.264947	0.309004	0.739178
	H427	H	0.247255	0.311120	0.755675
	H428	H	0.261562	0.294059	0.722449
	O429	O	0.506433	0.504200	0.599264
	H430	H	0.513310	0.506488	0.589507
	H431	H	0.499784	0.499648	0.593856
	O432	O	0.285093	0.701319	0.487655
	H433	H	0.264125	0.717905	0.496289
	H434	H	0.285989	0.693499	0.492981
	O435	O	0.139580	0.049288	-0.021522
	H436	H	0.147176	0.066855	-0.001108
	H437	H	0.131069	0.030920	-0.006505
	O438	O	0.178079	1.019603	1.193997
	H439	H	0.158265	0.994143	1.190417
	H440	H	0.191284	1.021933	1.201131
	O441	O	0.663630	0.474591	0.351255
	H442	H	0.686525	0.470874	0.333378
	H443	H	0.651037	0.480367	0.360081
