data_Molecule from HDF5

_cell_length_a		16.109736
_cell_length_b		16.163374
_cell_length_c		16.296118
_cell_angle_alpha	89.682979
_cell_angle_beta	89.726888
_cell_angle_gamma	90.133283
_symmetry_space_group_name_H-M	'P 1'
_symmetry_Int_Tables_number		1

loop_
	_symmetry_equiv_pos_as_xyz
	x,y,z

loop_
	_atom_site_label
	_atom_site_type_symbol
	_atom_site_fract_x
	_atom_site_fract_y
	_atom_site_fract_z
	H0	H	0.405426	0.838977	0.715118
	H1	H	0.608629	0.166566	0.710550
	H2	H	0.608495	0.838052	0.284061
	H3	H	0.409228	0.167557	0.282750
	H4	H	0.722469	0.404780	0.835128
	H5	H	0.720001	0.597897	0.163338
	H6	H	0.296453	0.600022	0.833429
	H7	H	0.292688	0.402546	0.162746
	H8	H	0.842048	0.714989	0.400400
	H9	H	0.172858	0.715042	0.593888
	H10	H	0.841909	0.289443	0.597972
	H11	H	0.174059	0.293653	0.402200
	H12	H	0.842954	0.401618	0.715078
	H13	H	0.171390	0.604084	0.711892
	H14	H	0.842850	0.602323	0.284385
	H15	H	0.172113	0.403924	0.283046
	H16	H	0.410266	0.718161	0.834783
	H17	H	0.606393	0.715862	0.162313
	H18	H	0.607197	0.289539	0.834226
	H19	H	0.408567	0.285648	0.162957
	H20	H	0.720081	0.837272	0.401994
	H21	H	0.719886	0.167168	0.592913
	H22	H	0.292837	0.837621	0.597681
	H23	H	0.296966	0.168812	0.402156
	H24	H	0.906664	0.338577	0.215248
	H25	H	0.108100	0.667000	0.210824
	H26	H	0.108276	0.338306	0.783427
	H27	H	0.906221	0.666096	0.783388
	H28	H	0.222273	0.906164	0.334251
	H29	H	0.220933	0.100085	0.662772
	H30	H	0.795602	0.102033	0.333302
	H31	H	0.793783	0.904145	0.662270
	H32	H	0.342359	0.215089	0.900698
	H33	H	0.673858	0.213944	0.093111
	H34	H	0.342211	0.787973	0.098225
	H35	H	0.674083	0.790916	0.900960
	H36	H	0.343549	0.900692	0.215753
	H37	H	0.673271	0.102046	0.209303
	H38	H	0.343602	0.102424	0.783073
	H39	H	0.672141	0.900870	0.781030
	H40	H	0.911932	0.218383	0.333934
	H41	H	0.106645	0.217364	0.662512
	H42	H	0.107804	0.789395	0.333910
	H43	H	0.905862	0.785478	0.660467
	H44	H	0.219143	0.336813	0.902702
	H45	H	0.221442	0.666937	0.094788
	H46	H	0.794644	0.336754	0.097885
	H47	H	0.796601	0.667432	0.902406
	H48	H	0.414207	0.121161	0.590361
	H49	H	0.597162	0.885726	0.586240
	H50	H	0.602525	0.120815	0.403447
	H51	H	0.418994	0.888617	0.413940
	H52	H	0.601387	0.415154	0.113559
	H53	H	0.600023	0.596862	0.881541
	H54	H	0.420287	0.613513	0.119161
	H55	H	0.416551	0.409143	0.882808
	H56	H	0.127756	0.594919	0.398025
	H57	H	0.890358	0.586721	0.593648
	H58	H	0.125496	0.406378	0.588616
	H59	H	0.889213	0.408563	0.408179
	H60	H	0.124180	0.415803	0.590250
	H61	H	0.885234	0.598881	0.597990
	H62	H	0.127597	0.601957	0.404308
	H63	H	0.889820	0.413414	0.405431
	H64	H	0.395119	0.589545	0.119016
	H65	H	0.603836	0.598611	0.880741
	H66	H	0.593359	0.402530	0.114844
	H67	H	0.414254	0.404336	0.880143
	H68	H	0.603058	0.121724	0.401383
	H69	H	0.606704	0.881478	0.591840
	H70	H	0.415379	0.121621	0.593430
	H71	H	0.407058	0.882323	0.406048
	H72	H	0.910918	0.622278	0.095753
	H73	H	0.093898	0.384662	0.095816
	H74	H	0.106856	0.617447	0.918890
	H75	H	0.921200	0.385261	0.903864
	H76	H	0.102337	0.908134	0.615726
	H77	H	0.108207	0.104143	0.377963
	H78	H	0.913092	0.093492	0.614518
	H79	H	0.915815	0.915375	0.382810
	H80	H	0.626811	0.094586	0.901191
	H81	H	0.390335	0.093508	0.088797
	H82	H	0.628259	0.902146	0.089789
	H83	H	0.390182	0.905249	0.911340
	H84	H	0.623635	0.913976	0.085331
	H85	H	0.389675	0.089953	0.092716
	H86	H	0.627380	0.097683	0.902133
	H87	H	0.392388	0.917113	0.907885
	H88	H	0.916411	0.095854	0.613699
	H89	H	0.105472	0.091376	0.382978
	H90	H	0.098205	0.910673	0.614166
	H91	H	0.919760	0.907528	0.381766
	H92	H	0.111765	0.627054	0.892093
	H93	H	0.099221	0.386835	0.086561
	H94	H	0.919929	0.619803	0.093535
	H95	H	0.914440	0.385419	0.912430
	H96	H	0.417079	0.119968	0.590306
	H97	H	0.596217	0.883517	0.597308
	H98	H	0.601261	0.121680	0.401646
	H99	H	0.421615	0.884595	0.398805
	H100	H	0.607772	0.401735	0.119203
	H101	H	0.602830	0.595252	0.882420
	H102	H	0.426897	0.581584	0.107980
	H103	H	0.410926	0.409393	0.881064
	H104	H	0.124651	0.592772	0.406857
	H105	H	0.889928	0.597446	0.584679
	H106	H	0.127628	0.410742	0.597317
	H107	H	0.887262	0.408842	0.403719
	H108	H	0.913250	0.619194	0.086810
	H109	H	0.103789	0.381513	0.095318
	H110	H	0.085246	0.617489	0.899000
	H111	H	0.911091	0.381694	0.902890
	H112	H	0.097785	0.906049	0.615654
	H113	H	0.094743	0.101122	0.383200
	H114	H	0.913099	0.097491	0.616090
	H115	H	0.910430	0.907378	0.378734
	H116	H	0.626161	0.095214	0.904613
	H117	H	0.388039	0.095807	0.093986
	H118	H	0.627773	0.911652	0.098762
	H119	H	0.387588	0.909315	0.900316
	C120	C	0.385984	0.011790	0.620284
	C121	C	0.629086	0.992699	0.619405
	C122	C	0.630476	0.011827	0.375249
	C123	C	0.387220	0.994055	0.376856
	C124	C	0.629764	0.378973	0.007319
	C125	C	0.630427	0.624461	0.990212
	C126	C	0.386249	0.623904	0.006898
	C127	C	0.385327	0.379071	0.990190
	C128	C	0.016805	0.624788	0.375544
	C129	C	0.998019	0.623339	0.619460
	C130	C	0.016389	0.381305	0.620920
	C131	C	0.998671	0.382845	0.377612
	C132	C	0.885896	0.511357	0.120823
	C133	C	0.128401	0.493460	0.119896
	C134	C	0.129569	0.511273	0.875920
	C135	C	0.886648	0.493147	0.877809
	C136	C	0.128916	0.880900	0.506450
	C137	C	0.130763	0.126437	0.489886
	C138	C	0.886479	0.124663	0.506445
	C139	C	0.885940	0.880887	0.489319
	C140	C	0.517489	0.124150	0.875282
	C141	C	0.498966	0.122155	0.118684
	C142	C	0.517130	0.880295	0.120821
	C143	C	0.499381	0.881894	0.877473
	C144	C	0.386437	0.887794	0.676341
	C145	C	0.627891	0.117007	0.673320
	C146	C	0.628305	0.887456	0.321472
	C147	C	0.389684	0.118521	0.321373
	C148	C	0.685227	0.383435	0.884021
	C149	C	0.683715	0.619875	0.113940
	C150	C	0.332951	0.620950	0.883002
	C151	C	0.330574	0.381976	0.113795
	C152	C	0.891750	0.678620	0.379379
	C153	C	0.123051	0.678010	0.615130
	C154	C	0.891588	0.326309	0.618611
	C155	C	0.124081	0.329819	0.381137
	C156	C	0.892038	0.382189	0.676608
	C157	C	0.122258	0.622698	0.673856
	C158	C	0.892084	0.622187	0.322105
	C159	C	0.123073	0.384598	0.321742
	C160	C	0.389608	0.679750	0.883425
	C161	C	0.626973	0.678234	0.113538
	C162	C	0.627262	0.326315	0.883559
	C163	C	0.388258	0.323995	0.113949
	C164	C	0.683926	0.887023	0.379930
	C165	C	0.683224	0.117645	0.614910
	C166	C	0.330359	0.887239	0.618234
	C167	C	0.333578	0.119162	0.380273
	C168	C	0.886797	0.387407	0.177056
	C169	C	0.127430	0.617550	0.173730
	C170	C	0.127794	0.387437	0.821615
	C171	C	0.887813	0.617189	0.822127
	C172	C	0.184387	0.885188	0.383209
	C173	C	0.184359	0.121729	0.613580
	C174	C	0.832629	0.122535	0.382554
	C175	C	0.830481	0.883081	0.612748
	C176	C	0.392082	0.177920	0.879527
	C177	C	0.624169	0.176892	0.114208
	C178	C	0.392070	0.825287	0.118995
	C179	C	0.624327	0.827758	0.880296
	C180	C	0.392679	0.881597	0.177114
	C181	C	0.624076	0.120951	0.171937
	C182	C	0.392803	0.122186	0.820939
	C183	C	0.623231	0.882508	0.820624
	C184	C	0.890351	0.180527	0.382992
	C185	C	0.127537	0.180229	0.613369
	C186	C	0.127017	0.827375	0.382971
	C187	C	0.886494	0.824185	0.611977
	C188	C	0.183073	0.386581	0.880807
	C189	C	0.183634	0.617784	0.115645
	C190	C	0.830923	0.386712	0.118832
	C191	C	0.832888	0.617949	0.881055
	C192	C	0.408737	0.098349	0.597850
	C193	C	0.606589	0.905968	0.598101
	C194	C	0.608703	0.098852	0.395984
	C195	C	0.409340	0.907606	0.399486
	C196	C	0.607481	0.400079	0.093674
	C197	C	0.608648	0.603209	0.903787
	C198	C	0.407772	0.601550	0.093145
	C199	C	0.407271	0.400999	0.903720
	C200	C	0.104191	0.602992	0.396813
	C201	C	0.910828	0.600917	0.598317
	C202	C	0.103220	0.404193	0.598489
	C203	C	0.911218	0.404154	0.399399
	C204	C	0.908162	0.597902	0.098605
	C205	C	0.105671	0.406595	0.098899
	C206	C	0.107776	0.598191	0.897106
	C207	C	0.908899	0.406554	0.899820
	C208	C	0.106207	0.901951	0.592812
	C209	C	0.109226	0.105018	0.403694
	C210	C	0.907780	0.102284	0.592532
	C211	C	0.908712	0.903483	0.403307
	C212	C	0.604241	0.102212	0.896263
	C213	C	0.411900	0.099663	0.097959
	C214	C	0.604010	0.902755	0.098143
	C215	C	0.412569	0.904036	0.899974
	Zn216	Zn	0.508125	0.002213	0.747558
	Zn217	Zn	0.508948	0.002965	0.248070
	Zn218	Zn	0.758303	0.502056	-0.000922
	Zn219	Zn	0.256989	0.502079	-0.001692
	Zn220	Zn	0.007162	0.751425	0.497686
	Zn221	Zn	0.007954	0.254885	0.499073
	Zn222	Zn	0.006930	0.502266	0.748623
	Zn223	Zn	0.007300	0.502924	0.248644
	Zn224	Zn	0.507949	0.753068	-0.001686
	Zn225	Zn	0.507896	0.250209	-0.001986
	Zn226	Zn	0.757260	0.002580	0.497881
	Zn227	Zn	0.258711	0.002724	0.498609
	N228	N	0.420319	0.966044	0.677685
	N229	N	0.594902	0.038351	0.676172
	N230	N	0.595792	0.966046	0.318566
	N231	N	0.422174	0.039780	0.318993
	N232	N	0.686948	0.415594	0.962119
	N233	N	0.685715	0.587128	0.036167
	N234	N	0.330740	0.587145	0.960755
	N235	N	0.328595	0.415479	0.035923
	N236	N	0.970436	0.680469	0.411986
	N237	N	0.044586	0.678712	0.582054
	N238	N	0.970099	0.325646	0.584742
	N239	N	0.045697	0.328616	0.415137
	N240	N	0.970571	0.415564	0.678209
	N241	N	0.043603	0.589509	0.676731
	N242	N	0.970902	0.589685	0.319470
	N243	N	0.044070	0.416838	0.319686
	N244	N	0.421803	0.681770	0.961474
	N245	N	0.594718	0.681407	0.035393
	N246	N	0.593810	0.323284	0.961304
	N247	N	0.421554	0.322065	0.035959
	N248	N	0.685321	0.965357	0.412900
	N249	N	0.684154	0.039416	0.581933
	N250	N	0.329935	0.965294	0.583937
	N251	N	0.331902	0.041012	0.414101
	N252	N	0.920124	0.465856	0.178659
	N253	N	0.093536	0.539207	0.176191
	N254	N	0.095274	0.465927	0.818520
	N255	N	0.920846	0.538602	0.820195
	N256	N	0.185700	0.917570	0.460986
	N257	N	0.186480	0.088744	0.535785
	N258	N	0.829869	0.088619	0.460305
	N259	N	0.830255	0.918057	0.535361
	N260	N	0.470507	0.179457	0.912543
	N261	N	0.545382	0.177701	0.081948
	N262	N	0.470270	0.824333	0.084579
	N263	N	0.546130	0.827170	0.915124
	N264	N	0.471435	0.915186	0.178443
	N265	N	0.545333	0.087660	0.174937
	N266	N	0.471576	0.089490	0.818166
	N267	N	0.544684	0.915434	0.818842
	N268	N	0.923182	0.181850	0.460775
	N269	N	0.094948	0.183136	0.535573
	N270	N	0.093315	0.824399	0.460863
	N271	N	0.920102	0.822592	0.534305
	N272	N	0.184394	0.464900	0.913774
	N273	N	0.184355	0.539554	0.082915
	N274	N	0.830345	0.464668	0.084336
	N275	N	0.831939	0.539975	0.915235
	O276	O	0.942417	1.073414	0.013992
	H277	H	0.938346	1.073832	0.003206
	H278	H	0.933062	1.067203	0.008262
	O279	O	0.053519	-0.085400	1.066117
	H280	H	0.061158	-0.075593	1.067336
	H281	H	0.055680	-0.092047	1.074776
	O282	O	0.021172	0.058699	0.004783
	H283	H	0.013058	0.069059	0.000447
	H284	H	0.025514	0.054042	-0.002441
	O285	O	0.466791	0.496801	0.506546
	H286	H	0.462987	0.502661	0.503123
	H287	H	0.464671	0.499129	0.517616
	O288	O	-0.078875	-0.052946	0.057893
	H289	H	-0.072838	-0.057467	0.067714
	H290	H	-0.075968	-0.058645	0.067409
	O291	O	0.031296	0.989333	0.007082
	H292	H	0.030302	0.984388	0.007039
	H293	H	0.032719	0.986440	0.020959
	O294	O	-0.013449	1.105563	0.001910
	H295	H	-0.018028	1.103809	0.005833
	H296	H	-0.008814	1.109431	0.002065
	O297	O	0.435072	0.504078	0.498324
	H298	H	0.437085	0.500949	0.502300
	H299	H	0.430385	0.501492	0.494686
	O300	O	0.474904	0.482071	0.438000
	H301	H	0.472230	0.488668	0.438929
	H302	H	0.482556	0.487460	0.434594
	O303	O	0.974330	0.061281	0.942739
	H304	H	0.969430	0.066838	0.948049
	H305	H	0.973819	0.046083	0.937975
	O306	O	0.050194	0.942764	1.009718
	H307	H	0.050210	0.944895	1.009481
	H308	H	0.055517	0.944137	1.014168
	O309	O	0.000938	0.935904	0.892117
	H310	H	0.014299	0.934772	0.885829
	H311	H	-0.002695	0.936842	0.886352
	O312	O	-0.027529	0.065257	0.994271
	H313	H	-0.032286	0.066018	0.981616
	H314	H	-0.029860	0.058445	1.004793
	O315	O	-0.014648	0.058453	-0.047967
	H316	H	-0.022002	0.060514	-0.057297
	H317	H	-0.029453	0.058878	-0.045913
	O318	O	0.015570	-0.003150	1.045566
	H319	H	0.012704	-0.001362	1.050417
	H320	H	0.006622	-0.005926	1.045958
	O321	O	0.466307	0.465402	0.522404
	H322	H	0.460195	0.460298	0.523160
	H323	H	0.463449	0.457771	0.531940
	O324	O	1.086926	-0.065110	0.993412
	H325	H	1.085841	-0.062866	1.000633
	H326	H	1.097716	-0.060270	0.998750
	O327	O	0.932629	0.970295	1.003332
	H328	H	0.932309	0.965185	0.994718
	H329	H	0.933803	0.976161	0.999418
	O330	O	0.480955	0.419907	0.502683
	H331	H	0.474850	0.419396	0.500007
	H332	H	0.477666	0.421668	0.502618
	O333	O	1.075495	-0.060349	-0.095602
	H334	H	1.089576	-0.052889	-0.089683
	H335	H	1.077301	-0.065874	-0.097639
	O336	O	0.503593	0.514333	0.525524
	H337	H	0.516069	0.503318	0.523629
	H338	H	0.502403	0.515262	0.526704
	O339	O	0.510499	0.434900	0.527422
	H340	H	0.503805	0.429961	0.520822
	H341	H	0.508903	0.421323	0.533859
	O342	O	0.028858	0.990896	0.941513
	H343	H	0.029066	0.994219	0.945864
	H344	H	0.024079	0.996372	0.937043
	O345	O	0.420004	0.485598	0.497459
	H346	H	0.414591	0.493961	0.492432
	H347	H	0.417392	0.493013	0.489938
