data_Molecule from HDF5

_cell_length_a		16.693933
_cell_length_b		16.500612
_cell_length_c		16.674149
_cell_angle_alpha	89.955446
_cell_angle_beta	90.016665
_cell_angle_gamma	89.876215
_symmetry_space_group_name_H-M	'P 1'
_symmetry_Int_Tables_number		1

loop_
	_symmetry_equiv_pos_as_xyz
	x,y,z

loop_
	_atom_site_label
	_atom_site_type_symbol
	_atom_site_fract_x
	_atom_site_fract_y
	_atom_site_fract_z
	H0	H	0.398608	0.840070	0.706695
	H1	H	0.607398	0.153957	0.702541
	H2	H	0.609836	0.840044	0.263098
	H3	H	0.401827	0.154049	0.265604
	H4	H	0.727774	0.390095	0.830777
	H5	H	0.729581	0.605757	0.136731
	H6	H	0.279141	0.605874	0.832344
	H7	H	0.279400	0.385948	0.136300
	H8	H	0.853889	0.723168	0.373973
	H9	H	0.159284	0.718986	0.590269
	H10	H	0.847167	0.278837	0.587263
	H11	H	0.158394	0.273355	0.378415
	H12	H	0.848559	0.394725	0.704037
	H13	H	0.158340	0.604405	0.708776
	H14	H	0.856684	0.611812	0.253806
	H15	H	0.154780	0.383920	0.256902
	H16	H	0.395696	0.721539	0.832015
	H17	H	0.611614	0.719636	0.138136
	H18	H	0.608935	0.275853	0.829047
	H19	H	0.403373	0.277196	0.140709
	H20	H	0.726820	0.841152	0.377899
	H21	H	0.723041	0.153650	0.587132
	H22	H	0.283170	0.839719	0.591084
	H23	H	0.286550	0.154247	0.382071
	H24	H	0.897593	0.342732	0.208957
	H25	H	0.116947	0.648295	0.211226
	H26	H	0.108618	0.338930	0.764626
	H27	H	0.900677	0.653273	0.765144
	H28	H	0.229139	0.887072	0.330571
	H29	H	0.225115	0.100063	0.640490
	H30	H	0.784721	0.101315	0.327994
	H31	H	0.778988	0.886070	0.635942
	H32	H	0.349696	0.217544	0.881733
	H33	H	0.662953	0.211786	0.084359
	H34	H	0.350365	0.774570	0.089263
	H35	H	0.657534	0.771057	0.875656
	H36	H	0.349882	0.890089	0.205800
	H37	H	0.660846	0.098665	0.203349
	H38	H	0.350707	0.103901	0.762182
	H39	H	0.658777	0.888437	0.760080
	H40	H	0.904199	0.215290	0.327834
	H41	H	0.104036	0.212164	0.642867
	H42	H	0.113304	0.771260	0.330909
	H43	H	0.898071	0.772636	0.637155
	H44	H	0.225123	0.339172	0.879108
	H45	H	0.231522	0.647758	0.095817
	H46	H	0.782115	0.341761	0.092512
	H47	H	0.781784	0.650910	0.877371
	H48	H	0.416350	0.108953	0.574875
	H49	H	0.596450	0.883792	0.569806
	H50	H	0.600150	0.111227	0.395236
	H51	H	0.414366	0.882111	0.390630
	H52	H	0.590534	0.406622	0.094731
	H53	H	0.594627	0.578409	0.875680
	H54	H	0.414619	0.583861	0.096451
	H55	H	0.416263	0.407662	0.873384
	H56	H	0.114592	0.583750	0.399505
	H57	H	0.894536	0.589205	0.568223
	H58	H	0.117183	0.402146	0.575055
	H59	H	0.894094	0.403287	0.403552
	H60	H	0.115811	0.407131	0.576595
	H61	H	0.896225	0.577833	0.575040
	H62	H	0.111274	0.577146	0.404159
	H63	H	0.897933	0.418196	0.397985
	H64	H	0.417629	0.576349	0.092009
	H65	H	0.588890	0.583378	0.874611
	H66	H	0.597577	0.401142	0.099473
	H67	H	0.415239	0.408149	0.873248
	H68	H	0.590904	0.110393	0.388411
	H69	H	0.590326	0.883976	0.575317
	H70	H	0.415248	0.107326	0.571331
	H71	H	0.419801	0.884138	0.395399
	H72	H	0.920756	0.605640	0.069517
	H73	H	0.092600	0.384530	0.070436
	H74	H	0.088359	0.605022	0.900953
	H75	H	0.912146	0.383031	0.899658
	H76	H	0.092999	0.909123	0.594693
	H77	H	0.090429	0.089898	0.373230
	H78	H	0.910032	0.089183	0.598752
	H79	H	0.918348	0.918344	0.377317
	H80	H	0.617462	0.085771	0.892772
	H81	H	0.393806	0.086195	0.072972
	H82	H	0.617272	0.909348	0.078091
	H83	H	0.391408	0.908401	0.888520
	H84	H	0.616288	0.904129	0.070780
	H85	H	0.391365	0.086022	0.079756
	H86	H	0.616807	0.086561	0.894061
	H87	H	0.396248	0.904282	0.903595
	H88	H	0.910066	0.084806	0.596285
	H89	H	0.102076	0.089938	0.368927
	H90	H	0.093210	0.909057	0.593640
	H91	H	0.923013	0.906596	0.374539
	H92	H	0.100850	0.609572	0.899168
	H93	H	0.088928	0.384062	0.071780
	H94	H	0.917632	0.606676	0.067058
	H95	H	0.913993	0.380145	0.889504
	H96	H	0.412444	0.109857	0.573209
	H97	H	0.589100	0.887127	0.567560
	H98	H	0.590116	0.106681	0.399348
	H99	H	0.412565	0.883746	0.397903
	H100	H	0.599561	0.410167	0.096025
	H101	H	0.596112	0.585065	0.872207
	H102	H	0.422789	0.584025	0.092743
	H103	H	0.415798	0.408592	0.873180
	H104	H	0.113134	0.575753	0.395690
	H105	H	0.891169	0.588285	0.581026
	H106	H	0.118100	0.403605	0.580082
	H107	H	0.890340	0.407060	0.388329
	H108	H	0.917417	0.608254	0.070732
	H109	H	0.089475	0.385833	0.068501
	H110	H	0.091533	0.610594	0.889022
	H111	H	0.921546	0.385538	0.894943
	H112	H	0.092522	0.909337	0.593564
	H113	H	0.097993	0.079890	0.373857
	H114	H	0.913619	0.087874	0.596037
	H115	H	0.911409	0.910143	0.371251
	H116	H	0.616425	0.084873	0.893394
	H117	H	0.391176	0.092081	0.076566
	H118	H	0.613056	0.912585	0.070751
	H119	H	0.399045	0.919809	0.898301
	C120	C	0.383132	0.004843	0.605453
	C121	C	0.624395	0.988248	0.603839
	C122	C	0.626154	0.005851	0.362062
	C123	C	0.384076	0.987890	0.363616
	C124	C	0.627484	0.374198	-0.006238
	C125	C	0.626266	0.616941	0.975608
	C126	C	0.383287	0.616763	-0.006929
	C127	C	0.383836	0.374834	0.975572
	C128	C	0.013606	0.616279	0.363842
	C129	C	0.996190	0.618271	0.607033
	C130	C	0.013076	0.374454	0.607133
	C131	C	0.995477	0.375179	0.363356
	C132	C	0.884668	0.505047	0.104393
	C133	C	0.125706	0.486439	0.105325
	C134	C	0.125697	0.504689	0.863673
	C135	C	0.883891	0.487304	0.863299
	C136	C	0.126511	0.875121	0.492338
	C137	C	0.126375	0.117561	0.476081
	C138	C	0.882048	0.118259	0.493027
	C139	C	0.883677	0.875787	0.475064
	C140	C	0.514069	0.118356	0.862173
	C141	C	0.496093	0.117724	0.105981
	C142	C	0.513296	0.875583	0.105417
	C143	C	0.496567	0.875600	0.862680
	C144	C	0.380821	0.886976	0.665969
	C145	C	0.626010	0.106466	0.663038
	C146	C	0.628101	0.887369	0.303196
	C147	C	0.383169	0.106696	0.305318
	C148	C	0.687312	0.371926	0.876933
	C149	C	0.688217	0.622249	0.091051
	C150	C	0.320523	0.622502	0.878275
	C151	C	0.321918	0.369928	0.091159
	C152	C	0.899854	0.681918	0.356916
	C153	C	0.112683	0.678708	0.608996
	C154	C	0.894766	0.317339	0.606810
	C155	C	0.111275	0.313154	0.359951
	C156	C	0.895411	0.374835	0.664970
	C157	C	0.112238	0.621821	0.667864
	C158	C	0.901171	0.626391	0.297305
	C159	C	0.109730	0.368368	0.299596
	C160	C	0.378690	0.679903	0.878069
	C161	C	0.629661	0.679063	0.091586
	C162	C	0.628322	0.315440	0.875933
	C163	C	0.382729	0.315305	0.093031
	C164	C	0.686301	0.887685	0.359975
	C165	C	0.683328	0.106692	0.605463
	C166	C	0.323307	0.886825	0.608519
	C167	C	0.325965	0.106805	0.363190
	C168	C	0.879979	0.388928	0.167717
	C169	C	0.132708	0.602036	0.169265
	C170	C	0.127281	0.386366	0.804103
	C171	C	0.881977	0.605802	0.804380
	C172	C	0.188770	0.869841	0.377042
	C173	C	0.184634	0.117967	0.593957
	C174	C	0.824713	0.119501	0.374830
	C175	C	0.820614	0.869569	0.589971
	C176	C	0.396694	0.177992	0.861982
	C177	C	0.615140	0.173960	0.104738
	C178	C	0.396702	0.814998	0.107303
	C179	C	0.611736	0.812582	0.858404
	C180	C	0.396628	0.872313	0.165477
	C181	C	0.614106	0.117560	0.163872
	C182	C	0.397087	0.121330	0.802793
	C183	C	0.612259	0.870803	0.800834
	C184	C	0.883719	0.176286	0.374740
	C185	C	0.124689	0.173897	0.595130
	C186	C	0.130621	0.812543	0.376923
	C187	C	0.880242	0.813516	0.590813
	C188	C	0.185148	0.386437	0.861147
	C189	C	0.189917	0.601785	0.111745
	C190	C	0.822904	0.388295	0.109760
	C191	C	0.823180	0.604788	0.860521
	C192	C	0.407654	0.087135	0.580376
	C193	C	0.599207	0.906242	0.578238
	C194	C	0.600911	0.087999	0.387117
	C195	C	0.408601	0.904901	0.387789
	C196	C	0.602893	0.398829	0.075489
	C197	C	0.600425	0.590067	0.895153
	C198	C	0.410568	0.589137	0.073021
	C199	C	0.408716	0.400686	0.894426
	C200	C	0.092556	0.587010	0.392041
	C201	C	0.914971	0.592445	0.581850
	C202	C	0.095496	0.397692	0.583920
	C203	C	0.915015	0.402056	0.389426
	C204	C	0.911030	0.585996	0.076987
	C205	C	0.098232	0.405891	0.077900
	C206	C	0.100798	0.587033	0.888909
	C207	C	0.908932	0.404407	0.887858
	C208	C	0.100382	0.901681	0.573028
	C209	C	0.103402	0.093698	0.393662
	C210	C	0.904739	0.094318	0.575467
	C211	C	0.910155	0.903671	0.395115
	C212	C	0.595565	0.092909	0.886447
	C213	C	0.413667	0.094765	0.083115
	C214	C	0.594432	0.901338	0.080355
	C215	C	0.416383	0.903141	0.889360
	Zn216	Zn	0.504880	-0.003719	0.733090
	Zn217	Zn	0.504508	-0.003635	0.234730
	Zn218	Zn	0.755781	0.496119	-0.015616
	Zn219	Zn	0.254122	0.495444	-0.015648
	Zn220	Zn	0.004836	0.746041	0.483699
	Zn221	Zn	0.004109	0.246226	0.485412
	Zn222	Zn	0.004824	0.496520	0.735883
	Zn223	Zn	0.005029	0.496579	0.233870
	Zn224	Zn	0.504883	0.745849	-0.015406
	Zn225	Zn	0.505557	0.246564	-0.015134
	Zn226	Zn	0.753808	-0.003417	0.483817
	Zn227	Zn	0.255357	-0.004332	0.484195
	N228	N	0.417046	0.961523	0.664489
	N229	N	0.590277	0.031726	0.662253
	N230	N	0.591550	0.961864	0.304246
	N231	N	0.418485	0.031470	0.305311
	N232	N	0.686882	0.407668	0.951264
	N233	N	0.686167	0.584067	0.018002
	N234	N	0.323327	0.583860	0.950926
	N235	N	0.322343	0.406145	0.017087
	N236	N	0.970777	0.675637	0.397785
	N237	N	0.039365	0.676640	0.571768
	N238	N	0.969179	0.316772	0.571609
	N239	N	0.039147	0.317142	0.399035
	N240	N	0.970075	0.409384	0.665645
	N241	N	0.038637	0.584959	0.666755
	N242	N	0.972743	0.585870	0.301607
	N243	N	0.036660	0.406478	0.301699
	N244	N	0.417345	0.676392	0.950595
	N245	N	0.591777	0.675971	0.018809
	N246	N	0.591870	0.316721	0.949666
	N247	N	0.420707	0.318303	0.020149
	N248	N	0.685399	0.962546	0.395850
	N249	N	0.682841	0.031832	0.569377
	N250	N	0.324508	0.961187	0.571481
	N251	N	0.325935	0.031492	0.398248
	N252	N	0.917754	0.462563	0.164528
	N253	N	0.093341	0.529193	0.165439
	N254	N	0.091325	0.461230	0.805142
	N255	N	0.919077	0.531625	0.806152
	N256	N	0.186487	0.907866	0.450068
	N257	N	0.186225	0.084023	0.518718
	N258	N	0.823228	0.084445	0.449581
	N259	N	0.822884	0.908046	0.517066
	N260	N	0.470515	0.176434	0.898048
	N261	N	0.540714	0.174357	0.069591
	N262	N	0.470252	0.816771	0.070720
	N263	N	0.538764	0.815296	0.896307
	N264	N	0.470337	0.909295	0.164697
	N265	N	0.539026	0.083682	0.165210
	N266	N	0.471100	0.084840	0.802700
	N267	N	0.539472	0.909210	0.803204
	N268	N	0.918460	0.175779	0.449314
	N269	N	0.089367	0.174103	0.520689
	N270	N	0.092470	0.815705	0.449706
	N271	N	0.918540	0.816872	0.518295
	N272	N	0.184241	0.461119	0.897540
	N273	N	0.185702	0.528930	0.072539
	N274	N	0.825487	0.461623	0.071175
	N275	N	0.824139	0.529873	0.896474
	O276	O	0.159918	0.859031	0.044890
	H277	H	0.160271	0.850396	0.032469
	H278	H	0.172709	0.851591	0.057758
	O279	O	0.292218	0.706147	0.268147
	H280	H	0.301523	0.701512	0.304400
	H281	H	0.317707	0.679141	0.269865
	O282	O	0.936182	0.049465	1.215658
	H283	H	0.962098	0.038256	1.219893
	H284	H	0.944060	0.040452	1.215657
	O285	O	0.298535	0.538437	0.538192
	H286	H	0.294226	0.535752	0.527779
	H287	H	0.303819	0.539032	0.527567
	O288	O	0.469242	0.281851	0.705839
	H289	H	0.454743	0.269897	0.711533
	H290	H	0.462540	0.273520	0.712089
	O291	O	0.367597	0.373479	0.402583
	H292	H	0.363269	0.361005	0.405015
	H293	H	0.359404	0.371229	0.389305
	O294	O	1.125637	0.072718	1.050097
	H295	H	1.125225	0.071259	1.042191
	H296	H	1.126240	0.059481	1.054972
	O297	O	0.494141	0.527432	0.281576
	H298	H	0.499289	0.522848	0.276284
	H299	H	0.491780	0.520154	0.278889
	O300	O	-0.642946	-0.707523	1.362523
	H301	H	-0.661259	-0.720999	1.337628
	H302	H	-0.641743	-0.690423	1.352879
	O303	O	0.671848	0.561743	0.601554
	H304	H	0.674146	0.564193	0.582511
	H305	H	0.669407	0.562793	0.602394
	O306	O	0.461328	0.367079	0.553263
	H307	H	0.464806	0.368146	0.550449
	H308	H	0.467629	0.356481	0.551060
	O309	O	0.443099	0.701286	0.690211
	H310	H	0.467289	0.695582	0.687291
	H311	H	0.450952	0.698314	0.700012
	O312	O	0.414218	0.544162	0.719743
	H313	H	0.408083	0.540753	0.714405
	H314	H	0.408415	0.541505	0.721930
	O315	O	0.934432	0.797259	1.152437
	H316	H	0.951088	0.795479	1.139022
	H317	H	0.932241	0.805399	1.141962
	O318	O	0.637885	0.709286	0.700184
	H319	H	0.641905	0.694188	0.694012
	H320	H	0.662024	0.729376	0.716174
	O321	O	0.275528	0.725070	0.714994
	H322	H	0.296568	0.700739	0.702901
	H323	H	0.270143	0.717296	0.699050
	O324	O	0.811894	1.200934	-0.212532
	H325	H	0.787318	1.227913	-0.243947
	H326	H	0.812867	1.155576	-0.218933
	O327	O	0.030326	0.200215	1.191168
	H328	H	0.022028	0.210417	1.180153
	H329	H	0.014037	0.203021	1.189204
	O330	O	0.685213	0.677717	0.299901
	H331	H	0.680293	0.658288	0.312136
	H332	H	0.706748	0.702388	0.281597
	O333	O	0.479697	0.692049	0.385716
	H334	H	0.498452	0.672443	0.385159
	H335	H	0.490410	0.699768	0.379224
	O336	O	0.276103	0.275073	0.520464
	H337	H	0.261309	0.251556	0.513992
	H338	H	0.280791	0.267832	0.541629
	O339	O	0.993806	-0.089309	0.783810
	H340	H	1.001599	-0.091905	0.784423
	H341	H	1.011928	-0.080507	0.776358
	O342	O	-0.217305	0.034847	-0.236432
	H343	H	-0.220124	0.030049	-0.236459
	H344	H	-0.221190	0.024243	-0.254091
	O345	O	0.228625	1.028875	1.212762
	H346	H	0.244606	1.036450	1.223765
	H347	H	0.236618	1.042595	1.218375
	O348	O	-0.020700	0.212370	-0.229505
	H349	H	-0.043483	0.209159	-0.233306
	H350	H	-0.030321	0.227888	-0.237768
	O351	O	0.704812	0.470169	0.269286
	H352	H	0.720211	0.452610	0.249658
	H353	H	0.698799	0.446573	0.276779
	O354	O	-0.213919	-0.221021	1.206963
	H355	H	-0.181615	-0.223415	1.194146
	H356	H	-0.222507	-0.183150	1.200714
	O357	O	0.595701	0.506200	0.692589
	H358	H	0.584183	0.512115	0.692238
	H359	H	0.584479	0.497444	0.690099
	O360	O	0.296075	0.290504	0.689134
	H361	H	0.309098	0.314920	0.687626
	H362	H	0.278356	0.281973	0.692992
	O363	O	-0.211691	-0.038300	0.201383
	H364	H	-0.212488	-0.023847	0.219736
	H365	H	-0.214703	-0.031213	0.194242
	O366	O	0.706576	0.290932	0.692683
	H367	H	0.686209	0.306164	0.664931
	H368	H	0.696551	0.314029	0.685657
	O369	O	0.548440	0.275066	0.258068
	H370	H	0.537005	0.275252	0.274408
	H371	H	0.552010	0.248087	0.237659
	O372	O	0.714604	1.287247	0.272609
	H373	H	0.681378	1.283888	0.282443
	H374	H	0.742568	1.255675	0.240448
	O375	O	0.855694	0.006245	0.020760
	H376	H	0.863138	0.009049	0.010331
	H377	H	0.854685	0.003876	-0.006380
	O378	O	0.673929	0.696510	0.478115
	H379	H	0.679354	0.711392	0.485575
	H380	H	0.672996	0.695288	0.483129
	O381	O	0.232284	1.052089	0.918408
	H382	H	0.228687	1.042218	0.922420
	H383	H	0.236651	1.040268	0.895304
	O384	O	1.009155	0.036554	0.964809
	H385	H	1.008513	0.040257	0.961565
	H386	H	1.014952	0.025898	0.960726
	O387	O	0.816369	1.184494	0.172354
	H388	H	0.835184	1.173514	0.148404
	H389	H	0.837432	1.162643	0.160924
	O390	O	0.523468	0.649453	0.284366
	H391	H	0.538726	0.643198	0.276475
	H392	H	0.512547	0.652766	0.275757
	O393	O	0.307145	0.461649	0.688962
	H394	H	0.296128	0.457183	0.691004
	H395	H	0.301124	0.471634	0.683691
	O396	O	-0.050978	1.229939	1.040479
	H397	H	-0.053669	1.224241	1.022689
	H398	H	-0.065385	1.227233	1.025566
	O399	O	-0.009908	0.001111	0.950024
	H400	H	-0.003634	-0.005711	0.941478
	H401	H	-0.007832	0.006005	0.954406
	O402	O	0.732625	0.275442	0.441570
	H403	H	0.740107	0.261359	0.435380
	H404	H	0.745055	0.264448	0.421465
	O405	O	0.967890	-0.030049	0.975111
	H406	H	0.968920	-0.028607	0.974867
	H407	H	0.981550	-0.023106	0.980208
	O408	O	0.010177	-0.118230	0.187310
	H409	H	0.017450	-0.123148	0.180372
	H410	H	0.000741	-0.140308	0.194227
	O411	O	1.214095	1.208713	1.021505
	H412	H	1.212312	1.221551	1.008023
	H413	H	1.222031	1.204913	1.006234
	O414	O	0.286951	0.501704	0.269818
	H415	H	0.286973	0.501351	0.279966
	H416	H	0.278191	0.509436	0.257762
	O417	O	0.505436	0.723179	0.491437
	H418	H	0.505840	0.709270	0.487780
	H419	H	0.509097	0.729881	0.494485
	O420	O	0.518215	0.527098	0.549266
	H421	H	0.514771	0.529860	0.535990
	H422	H	0.524228	0.519524	0.539974
	O423	O	0.229418	-0.035582	0.761819
	H424	H	0.254652	-0.045601	0.734998
	H425	H	0.227419	-0.062565	0.766923
	O426	O	0.353679	0.712101	0.489581
	H427	H	0.359729	0.729988	0.501465
	H428	H	0.370075	0.703121	0.491478
	O429	O	1.130189	1.097123	1.137622
	H430	H	1.132910	1.072034	1.146808
	H431	H	1.135665	1.100283	1.129841
	O432	O	0.661181	0.554105	0.514962
	H433	H	0.663565	0.545967	0.493127
	H434	H	0.665161	0.566470	0.523042
	O435	O	0.007414	0.824682	0.022249
	H436	H	0.005993	0.805714	0.023072
	H437	H	0.028385	0.834201	0.035811
	O438	O	-0.183592	-0.093276	-0.077598
	H439	H	-0.177696	-0.078669	-0.061077
	H440	H	-0.189902	-0.110665	-0.079203
	O441	O	0.193179	-0.191649	0.173310
	H442	H	0.225482	-0.225883	0.202765
	H443	H	0.188022	-0.187407	0.148174
	O444	O	0.560714	0.288227	0.486927
	H445	H	0.563664	0.286932	0.486644
	H446	H	0.548032	0.305329	0.488373
	O447	O	0.059072	1.161633	0.873053
	H448	H	0.060514	1.158933	0.869713
	H449	H	0.042043	1.162845	0.874461
	O450	O	0.221551	0.779114	0.962507
	H451	H	0.247992	0.761004	0.950380
	H452	H	0.218333	0.788126	0.941072
	O453	O	0.403974	0.520570	0.396247
	H454	H	0.420581	0.520067	0.390525
	H455	H	0.406690	0.517609	0.389199
	O456	O	0.197218	0.181501	0.806613
	H457	H	0.178075	0.181964	0.811881
	H458	H	0.192268	0.171042	0.817865
	O459	O	0.628139	0.410308	0.521339
	H460	H	0.627914	0.402891	0.524897
	H461	H	0.638424	0.419241	0.506524
	O462	O	1.028891	0.993940	0.779225
	H463	H	1.040512	0.995167	0.781584
	H464	H	1.048133	0.992330	0.778873
	O465	O	1.033824	-0.121924	-0.017590
	H466	H	1.028204	-0.131477	-0.014992
	H467	H	1.039034	-0.123916	-0.016960
	O468	O	0.500285	0.504620	0.274594
	H469	H	0.510182	0.491443	0.275453
	H470	H	0.512623	0.510175	0.272946
	O471	O	0.305419	0.569182	0.430915
	H472	H	0.303737	0.575707	0.431661
	H473	H	0.310380	0.565097	0.435491
	O474	O	0.728888	0.468983	0.482983
	H475	H	0.733186	0.486131	0.459546
	H476	H	0.733531	0.462701	0.470256
	O477	O	0.245993	0.246996	1.228273
	H478	H	0.212868	0.240997	1.218496
	H479	H	0.236327	0.252525	1.201066
	O480	O	0.526739	0.448025	0.412166
	H481	H	0.529782	0.451912	0.407754
	H482	H	0.532095	0.442823	0.412077
	O483	O	0.649601	0.488404	0.706497
	H484	H	0.646058	0.484492	0.714469
	H485	H	0.646840	0.485468	0.710403
	O486	O	1.168328	-0.179566	0.839691
	H487	H	1.188671	-0.204134	0.818370
	H488	H	1.142313	-0.163940	0.837585
	O489	O	1.014693	0.831974	-0.222534
	H490	H	1.002810	0.834076	-0.216560
	H491	H	1.000333	0.818739	-0.227750
	O492	O	-0.207127	-0.078642	-0.083703
	H493	H	-0.204194	-0.068948	-0.093769
	H494	H	-0.208056	-0.088880	-0.074848
	O495	O	-0.214387	0.779315	1.007001
	H496	H	-0.224339	0.787736	1.008868
	H497	H	-0.226365	0.765494	1.021874
	O498	O	0.787347	1.219041	0.955094
	H499	H	0.778495	1.227145	0.921445
	H500	H	0.775340	1.233943	0.934468
	O501	O	0.784893	0.767988	0.758668
	H502	H	0.793092	0.764553	0.764183
	H503	H	0.785373	0.770337	0.757402
