data_Molecule from HDF5

_cell_length_a		16.182591
_cell_length_b		16.105625
_cell_length_c		16.261113
_cell_angle_alpha	90.046148
_cell_angle_beta	90.412700
_cell_angle_gamma	90.099770
_symmetry_space_group_name_H-M	'P 1'
_symmetry_Int_Tables_number		1

loop_
	_symmetry_equiv_pos_as_xyz
	x,y,z

loop_
	_atom_site_label
	_atom_site_type_symbol
	_atom_site_fract_x
	_atom_site_fract_y
	_atom_site_fract_z
	H0	H	0.403050	0.832886	0.715997
	H1	H	0.602295	0.161671	0.717452
	H2	H	0.602751	0.834345	0.288399
	H3	H	0.399482	0.162025	0.284809
	H4	H	0.714417	0.398607	0.836712
	H5	H	0.721834	0.601796	0.162113
	H6	H	0.287088	0.594950	0.836248
	H7	H	0.286630	0.395936	0.164516
	H8	H	0.837303	0.710389	0.400532
	H9	H	0.167153	0.713685	0.599229
	H10	H	0.837534	0.284552	0.597417
	H11	H	0.166536	0.283277	0.403261
	H12	H	0.839020	0.398003	0.715003
	H13	H	0.167138	0.600067	0.717213
	H14	H	0.839059	0.599723	0.283767
	H15	H	0.166287	0.397980	0.286033
	H16	H	0.402194	0.712356	0.837526
	H17	H	0.602575	0.709661	0.165552
	H18	H	0.598458	0.282334	0.837806
	H19	H	0.405510	0.283701	0.166176
	H20	H	0.712641	0.832524	0.403535
	H21	H	0.717227	0.160548	0.604425
	H22	H	0.287007	0.832636	0.600374
	H23	H	0.286338	0.163329	0.402032
	H24	H	0.900230	0.334942	0.216246
	H25	H	0.103495	0.663519	0.215339
	H26	H	0.102708	0.334414	0.786300
	H27	H	0.901818	0.663594	0.784004
	H28	H	0.217220	0.896837	0.338657
	H29	H	0.217878	0.100394	0.664320
	H30	H	0.781473	0.097490	0.339307
	H31	H	0.787288	0.896066	0.666045
	H32	H	0.336926	0.209545	0.902389
	H33	H	0.667134	0.211389	0.101938
	H34	H	0.337842	0.782147	0.099605
	H35	H	0.667152	0.785170	0.906860
	H36	H	0.337842	0.896996	0.216457
	H37	H	0.666133	0.098941	0.220253
	H38	H	0.339278	0.097823	0.785319
	H39	H	0.665190	0.894344	0.786777
	H40	H	0.899262	0.212034	0.337716
	H41	H	0.100444	0.211764	0.665035
	H42	H	0.099020	0.784631	0.336319
	H43	H	0.904510	0.781073	0.664271
	H44	H	0.212765	0.332299	0.902359
	H45	H	0.218277	0.662682	0.100332
	H46	H	0.788775	0.333303	0.097129
	H47	H	0.787180	0.663667	0.899584
	H48	H	0.409093	0.113453	0.585903
	H49	H	0.598383	0.875343	0.601417
	H50	H	0.591588	0.115078	0.415283
	H51	H	0.404386	0.880847	0.416210
	H52	H	0.603667	0.407989	0.120136
	H53	H	0.593851	0.590406	0.883875
	H54	H	0.410728	0.602195	0.121758
	H55	H	0.409867	0.405799	0.885186
	H56	H	0.117760	0.585753	0.411580
	H57	H	0.889548	0.583274	0.586589
	H58	H	0.117351	0.412542	0.592427
	H59	H	0.879375	0.394781	0.401866
	H60	H	0.122973	0.405167	0.603433
	H61	H	0.883435	0.586404	0.602564
	H62	H	0.121850	0.590921	0.401721
	H63	H	0.888547	0.406291	0.419767
	H64	H	0.398551	0.581918	0.118893
	H65	H	0.592557	0.591807	0.882693
	H66	H	0.591411	0.410885	0.114874
	H67	H	0.407272	0.396170	0.882082
	H68	H	0.596180	0.117885	0.410334
	H69	H	0.586178	0.879304	0.598218
	H70	H	0.400872	0.120304	0.599691
	H71	H	0.405698	0.877065	0.403301
	H72	H	0.908939	0.615084	0.082878
	H73	H	0.096633	0.377462	0.099665
	H74	H	0.087784	0.614000	0.909954
	H75	H	0.910159	0.384044	0.915854
	H76	H	0.087916	0.908201	0.615521
	H77	H	0.104995	0.096413	0.379014
	H78	H	0.904238	0.084778	0.618701
	H79	H	0.899655	0.911865	0.385360
	H80	H	0.622527	0.089542	0.901894
	H81	H	0.385273	0.077789	0.103784
	H82	H	0.619299	0.898346	0.086089
	H83	H	0.382675	0.896163	0.913495
	H84	H	0.615974	0.916635	0.100858
	H85	H	0.379929	0.102455	0.099336
	H86	H	0.620600	0.096177	0.915090
	H87	H	0.389053	0.913131	0.914503
	H88	H	0.915745	0.088898	0.616593
	H89	H	0.094121	0.077418	0.386823
	H90	H	0.094912	0.899442	0.620712
	H91	H	0.913199	0.905661	0.385719
	H92	H	0.101594	0.617573	0.912793
	H93	H	0.086736	0.382494	0.094694
	H94	H	0.905703	0.619190	0.097532
	H95	H	0.900423	0.376946	0.904012
	H96	H	0.417810	0.114931	0.601485
	H97	H	0.596457	0.879166	0.588949
	H98	H	0.588814	0.116167	0.409388
	H99	H	0.415760	0.882657	0.409812
	H100	H	0.594091	0.398557	0.119497
	H101	H	0.595238	0.591846	0.882649
	H102	H	0.420850	0.582585	0.111936
	H103	H	0.400530	0.404271	0.882336
	H104	H	0.121708	0.597726	0.410639
	H105	H	0.883349	0.598664	0.589819
	H106	H	0.120831	0.398722	0.589395
	H107	H	0.885875	0.418407	0.397922
	H108	H	0.919625	0.615749	0.094031
	H109	H	0.097067	0.381041	0.088191
	H110	H	0.095402	0.620512	0.899916
	H111	H	0.916107	0.381048	0.901353
	H112	H	0.099030	0.910099	0.617891
	H113	H	0.083149	0.097383	0.384873
	H114	H	0.907383	0.096466	0.620832
	H115	H	0.901077	0.897570	0.381199
	H116	H	0.617465	0.081481	0.913401
	H117	H	0.389577	0.086836	0.081043
	H118	H	0.625364	0.896934	0.108782
	H119	H	0.381899	0.906762	0.898833
	C120	C	0.380260	0.006800	0.623916
	C121	C	0.623476	0.987094	0.625535
	C122	C	0.621557	0.007374	0.382376
	C123	C	0.379458	0.989170	0.380261
	C124	C	0.623596	0.376583	0.009655
	C125	C	0.624179	0.620623	0.991582
	C126	C	0.380496	0.618349	0.009296
	C127	C	0.378735	0.373675	0.992297
	C128	C	0.011429	0.619909	0.378680
	C129	C	0.994061	0.619962	0.622669
	C130	C	0.011538	0.376728	0.622572
	C131	C	0.993151	0.376491	0.378273
	C132	C	0.881484	0.507801	0.120750
	C133	C	0.123694	0.489236	0.123067
	C134	C	0.123183	0.507804	0.879656
	C135	C	0.880074	0.490200	0.877981
	C136	C	0.122437	0.876988	0.509602
	C137	C	0.123383	0.120108	0.492119
	C138	C	0.878154	0.119032	0.510453
	C139	C	0.877934	0.875330	0.492541
	C140	C	0.511505	0.118388	0.880746
	C141	C	0.493501	0.118943	0.124527
	C142	C	0.511163	0.875199	0.125363
	C143	C	0.493396	0.876204	0.881160
	C144	C	0.382720	0.882183	0.678223
	C145	C	0.621911	0.111921	0.680168
	C146	C	0.621189	0.883302	0.326379
	C147	C	0.380798	0.113246	0.323871
	C148	C	0.677375	0.378436	0.885925
	C149	C	0.682146	0.620034	0.114005
	C150	C	0.324871	0.615787	0.885658
	C151	C	0.324445	0.375974	0.115621
	C152	C	0.886884	0.673870	0.380673
	C153	C	0.117817	0.675986	0.620238
	C154	C	0.886927	0.322262	0.618381
	C155	C	0.117097	0.320974	0.382038
	C156	C	0.887931	0.378375	0.677135
	C157	C	0.117726	0.619504	0.679063
	C158	C	0.887829	0.618981	0.322273
	C159	C	0.116946	0.378180	0.323713
	C160	C	0.381912	0.674638	0.886478
	C161	C	0.622848	0.674260	0.115704
	C162	C	0.619923	0.320347	0.886486
	C163	C	0.383702	0.319983	0.116460
	C164	C	0.675732	0.882437	0.384119
	C165	C	0.679502	0.111318	0.624099
	C166	C	0.325249	0.882057	0.620652
	C167	C	0.324260	0.113786	0.382077
	C168	C	0.881681	0.383903	0.177231
	C169	C	0.123052	0.613896	0.177927
	C170	C	0.121861	0.383177	0.824241
	C171	C	0.881925	0.614064	0.821795
	C172	C	0.178508	0.878144	0.387043
	C173	C	0.179708	0.119745	0.615411
	C174	C	0.820168	0.117690	0.388017
	C175	C	0.824703	0.876649	0.616460
	C176	C	0.386606	0.172436	0.882410
	C177	C	0.617512	0.174482	0.122771
	C178	C	0.387170	0.820108	0.120716
	C179	C	0.617665	0.821719	0.885176
	C180	C	0.387051	0.877550	0.178582
	C181	C	0.617112	0.118154	0.181250
	C182	C	0.387859	0.117244	0.823922
	C183	C	0.616520	0.875973	0.825281
	C184	C	0.879085	0.174540	0.387314
	C185	C	0.121172	0.175218	0.615762
	C186	C	0.119418	0.822391	0.385695
	C187	C	0.882831	0.819288	0.615636
	C188	C	0.176678	0.382325	0.881946
	C189	C	0.180315	0.613537	0.120577
	C190	C	0.825920	0.383065	0.118184
	C191	C	0.824833	0.614290	0.879353
	C192	C	0.402648	0.093856	0.602063
	C193	C	0.600412	0.900332	0.602968
	C194	C	0.598766	0.093907	0.404934
	C195	C	0.401858	0.902629	0.403087
	C196	C	0.602573	0.399102	0.095826
	C197	C	0.600689	0.597975	0.905485
	C198	C	0.403291	0.595752	0.095269
	C199	C	0.399625	0.395621	0.905636
	C200	C	0.098052	0.598046	0.401224
	C201	C	0.907750	0.596356	0.599720
	C202	C	0.098003	0.398906	0.601322
	C203	C	0.906963	0.399722	0.399929
	C204	C	0.904565	0.594263	0.098165
	C205	C	0.100290	0.402768	0.100763
	C206	C	0.101408	0.594679	0.901395
	C207	C	0.902385	0.403138	0.900464
	C208	C	0.100243	0.899322	0.595788
	C209	C	0.100733	0.097211	0.405957
	C210	C	0.901918	0.096618	0.596453
	C211	C	0.898442	0.898359	0.406469
	C212	C	0.597803	0.095785	0.903433
	C213	C	0.407266	0.095956	0.101476
	C214	C	0.597825	0.897560	0.104754
	C215	C	0.407073	0.898779	0.902719
	Zn216	Zn	0.502435	-0.002524	0.752900
	Zn217	Zn	0.502540	-0.002270	0.253744
	Zn218	Zn	0.752167	0.498955	-0.000168
	Zn219	Zn	0.250392	0.496601	0.000533
	Zn220	Zn	0.001498	0.747779	0.499393
	Zn221	Zn	0.001636	0.247538	0.501219
	Zn222	Zn	0.003381	0.498309	0.751709
	Zn223	Zn	0.002038	0.499941	0.250424
	Zn224	Zn	0.502679	0.747935	0.001910
	Zn225	Zn	0.502080	0.246574	0.001769
	Zn226	Zn	0.748762	-0.002954	0.502789
	Zn227	Zn	0.251200	-0.001446	0.502121
	N228	N	0.416264	0.960697	0.680330
	N229	N	0.587866	0.033436	0.681268
	N230	N	0.588085	0.961811	0.325225
	N231	N	0.414215	0.034717	0.322414
	N232	N	0.679989	0.412428	0.963636
	N233	N	0.683098	0.587185	0.035860
	N234	N	0.323618	0.581684	0.963180
	N235	N	0.321046	0.408522	0.037305
	N236	N	0.964640	0.674523	0.415152
	N237	N	0.039767	0.676600	0.585940
	N238	N	0.964789	0.321095	0.585060
	N239	N	0.039043	0.319402	0.414872
	N240	N	0.966157	0.411671	0.679678
	N241	N	0.039645	0.585424	0.680638
	N242	N	0.966167	0.586000	0.321218
	N243	N	0.038630	0.411895	0.321003
	N244	N	0.415764	0.676333	0.964351
	N245	N	0.587470	0.674845	0.038383
	N246	N	0.587479	0.318980	0.964328
	N247	N	0.416668	0.318545	0.038708
	N248	N	0.676238	0.960709	0.418483
	N249	N	0.680665	0.032800	0.590850
	N250	N	0.323628	0.960694	0.587726
	N251	N	0.323291	0.035744	0.416475
	N252	N	0.915332	0.462439	0.179127
	N253	N	0.088628	0.535649	0.179629
	N254	N	0.089385	0.462177	0.822461
	N255	N	0.915676	0.535630	0.820843
	N256	N	0.180155	0.911495	0.465029
	N257	N	0.181193	0.086233	0.537528
	N258	N	0.819702	0.083667	0.465777
	N259	N	0.821674	0.910949	0.538992
	N260	N	0.464455	0.173559	0.917214
	N261	N	0.539605	0.175277	0.088344
	N262	N	0.465347	0.818458	0.088392
	N263	N	0.540120	0.821754	0.919374
	N264	N	0.465390	0.910911	0.181672
	N265	N	0.539029	0.084251	0.182549
	N266	N	0.466373	0.084466	0.822702
	N267	N	0.538324	0.909215	0.822803
	N268	N	0.914518	0.175375	0.464485
	N269	N	0.086969	0.175549	0.538035
	N270	N	0.085259	0.821594	0.462939
	N271	N	0.915119	0.818270	0.537639
	N272	N	0.177638	0.460578	0.915709
	N273	N	0.181090	0.534959	0.087410
	N274	N	0.825736	0.461082	0.083780
	N275	N	0.823563	0.536060	0.913443
	O276	O	0.597954	0.430459	0.464517
	H277	H	0.603106	0.416490	0.478489
	H278	H	0.603090	0.432518	0.465283
	O279	O	0.547466	0.425847	0.412941
	H280	H	0.551649	0.416443	0.411141
	H281	H	0.559898	0.415040	0.421973
	O282	O	0.913601	0.984121	-0.015217
	H283	H	0.908988	0.977804	-0.022213
	H284	H	0.908833	0.978295	-0.021565
	O285	O	1.021579	-0.005915	0.853472
	H286	H	1.014971	-0.018890	0.854019
	H287	H	1.020430	-0.007065	0.848932
	O288	O	0.486752	0.518087	0.514626
	H289	H	0.484818	0.520121	0.509262
	H290	H	0.484813	0.514014	0.509537
	O291	O	0.547058	0.517248	0.600733
	H292	H	0.536438	0.531145	0.584549
	H293	H	0.546641	0.518570	0.604248
	O294	O	0.515806	0.486161	0.468251
	H295	H	0.517138	0.473986	0.457137
	H296	H	0.526297	0.484558	0.468625
	O297	O	0.042680	-0.027281	1.133918
	H298	H	0.048310	-0.019214	1.120994
	H299	H	0.046464	-0.035075	1.143587
	O300	O	0.462446	0.594599	0.392220
	H301	H	0.461464	0.591386	0.390479
	H302	H	0.465324	0.583984	0.383139
	O303	O	0.971383	0.938190	0.092825
	H304	H	0.966655	0.946040	0.100888
	H305	H	0.973466	0.948889	0.095865
	O306	O	-0.340651	1.252040	0.569003
	H307	H	-0.350691	1.245722	0.589167
	H308	H	-0.347247	1.253264	0.560478
	O309	O	0.461002	0.548031	0.603814
	H310	H	0.447010	0.549766	0.607474
	H311	H	0.457076	0.549674	0.601847
	O312	O	-0.022436	0.040902	0.058570
	H313	H	-0.015132	0.041493	0.051063
	H314	H	-0.014816	0.037919	0.053938
	O315	O	1.026037	-0.049633	0.076338
	H316	H	1.025524	-0.054636	0.073572
	H317	H	1.027194	-0.044119	0.078179
	O318	O	1.023481	1.081351	1.052207
	H319	H	1.023714	1.075264	1.042754
	H320	H	1.032249	1.080970	1.057407
	O321	O	-0.024513	0.064609	0.982807
	H322	H	-0.016637	0.055636	0.987056
	H323	H	-0.027841	0.081242	0.989075
	O324	O	0.498088	0.558727	0.447799
	H325	H	0.499758	0.562519	0.438790
	H326	H	0.492344	0.561281	0.436888
	O327	O	-0.076325	-0.005860	-0.014334
	H328	H	-0.085716	-0.000869	-0.019290
	H329	H	-0.068424	-0.000862	-0.013834
	O330	O	0.540096	0.634734	0.490056
	H331	H	0.558739	0.647588	0.495178
	H332	H	0.543160	0.628967	0.485042
	O333	O	0.030530	0.969412	0.940212
	H334	H	0.026140	0.966650	0.937258
	H335	H	0.032994	0.969330	0.933018
	O336	O	0.017569	0.050671	-0.008912
	H337	H	0.018789	0.046946	-0.015257
	H338	H	0.015535	0.060683	-0.005489
	O339	O	0.534628	0.541518	0.566150
	H340	H	0.538601	0.546543	0.566360
	H341	H	0.535615	0.552244	0.562755
	O342	O	1.004642	0.899824	0.985335
	H343	H	1.000304	0.893336	0.990031
	H344	H	1.012260	0.897277	1.001757
	O345	O	1.033681	1.072296	-0.041371
	H346	H	1.022548	1.063378	-0.048293
	H347	H	1.032852	1.061877	-0.039666
	O348	O	0.405457	0.460427	0.551099
	H349	H	0.413797	0.463305	0.550160
	H350	H	0.391698	0.459972	0.553474
	O351	O	0.582645	0.422688	0.468453
	H352	H	0.586450	0.434693	0.472369
	H353	H	0.581849	0.418737	0.478806
	O354	O	0.459706	0.507861	0.613832
	H355	H	0.461895	0.500482	0.616638
	H356	H	0.457151	0.507126	0.610223
	O357	O	1.038899	0.020651	1.054837
	H358	H	1.038326	0.025346	1.048970
	H359	H	1.047376	0.023715	1.052914
	O360	O	0.669800	0.488825	0.477679
	H361	H	0.667443	0.488369	0.491434
	H362	H	0.675796	0.484095	0.480397
	O363	O	0.508402	0.398206	0.528714
	H364	H	0.518102	0.395393	0.533735
	H365	H	0.498971	0.398022	0.525786
	O366	O	1.083458	0.895755	0.920808
	H367	H	1.089027	0.899406	0.923650
	H368	H	1.081184	0.883183	0.928933
	O369	O	0.909668	0.015358	0.906737
	H370	H	0.910850	0.024927	0.906126
	H371	H	0.893888	0.009315	0.904074
	O372	O	-0.035647	0.079713	0.076137
	H373	H	-0.032280	0.079503	0.079861
	H374	H	-0.024473	0.078608	0.084531
	O375	O	1.094668	0.148660	0.117565
	H376	H	1.106961	0.169563	0.129893
	H377	H	1.086240	0.151944	0.108674
	O378	O	0.368704	0.506410	0.377794
	H379	H	0.362941	0.505375	0.377052
	H380	H	0.371613	0.509061	0.383167
	O381	O	0.436797	0.488860	0.480110
	H382	H	0.429785	0.483927	0.480990
	H383	H	0.444315	0.483241	0.474906
