data_Molecule from HDF5

_cell_length_a		16.547493
_cell_length_b		16.681031
_cell_length_c		16.645059
_cell_angle_alpha	89.928932
_cell_angle_beta	89.917082
_cell_angle_gamma	90.082266
_symmetry_space_group_name_H-M	'P 1'
_symmetry_Int_Tables_number		1

loop_
	_symmetry_equiv_pos_as_xyz
	x,y,z

loop_
	_atom_site_label
	_atom_site_type_symbol
	_atom_site_fract_x
	_atom_site_fract_y
	_atom_site_fract_z
	H0	H	0.390224	0.831626	0.710540
	H1	H	0.599954	0.142160	0.710659
	H2	H	0.601359	0.834043	0.266981
	H3	H	0.386157	0.140868	0.264786
	H4	H	0.714012	0.383830	0.832682
	H5	H	0.716909	0.593315	0.143928
	H6	H	0.274267	0.592843	0.833347
	H7	H	0.272661	0.383470	0.144229
	H8	H	0.839969	0.710410	0.381659
	H9	H	0.151009	0.707120	0.592309
	H10	H	0.838517	0.265949	0.594015
	H11	H	0.151282	0.268210	0.385524
	H12	H	0.838464	0.382301	0.710111
	H13	H	0.151688	0.589376	0.706806
	H14	H	0.839190	0.594672	0.266448
	H15	H	0.151040	0.384474	0.269730
	H16	H	0.389829	0.708993	0.833777
	H17	H	0.602917	0.710969	0.143257
	H18	H	0.598544	0.267128	0.833827
	H19	H	0.386257	0.264234	0.143038
	H20	H	0.716061	0.833018	0.383850
	H21	H	0.717083	0.141224	0.594949
	H22	H	0.275062	0.830817	0.592857
	H23	H	0.274225	0.142527	0.385362
	H24	H	0.886044	0.333372	0.212867
	H25	H	0.099386	0.641001	0.210430
	H26	H	0.102100	0.333204	0.765754
	H27	H	0.890028	0.642524	0.767335
	H28	H	0.216759	0.882487	0.334271
	H29	H	0.213131	0.087235	0.646849
	H30	H	0.772805	0.092442	0.335302
	H31	H	0.768998	0.877145	0.642731
	H32	H	0.337141	0.205942	0.887268
	H33	H	0.649877	0.210267	0.096069
	H34	H	0.341043	0.763158	0.097253
	H35	H	0.649218	0.764614	0.881533
	H36	H	0.339724	0.879675	0.212238
	H37	H	0.650571	0.093195	0.210856
	H38	H	0.337154	0.090219	0.770984
	H39	H	0.649867	0.881779	0.767515
	H40	H	0.887586	0.209590	0.335919
	H41	H	0.098353	0.205651	0.646464
	H42	H	0.102819	0.763334	0.335682
	H43	H	0.885047	0.761005	0.642256
	H44	H	0.217062	0.333369	0.882651
	H45	H	0.214480	0.642437	0.092395
	H46	H	0.772350	0.332041	0.094671
	H47	H	0.774397	0.642927	0.884582
	H48	H	0.405795	0.097696	0.578462
	H49	H	0.586423	0.871221	0.586643
	H50	H	0.585074	0.099691	0.398327
	H51	H	0.407448	0.875337	0.394841
	H52	H	0.587200	0.396755	0.102906
	H53	H	0.578480	0.577275	0.879278
	H54	H	0.404468	0.581393	0.103037
	H55	H	0.403229	0.402256	0.878172
	H56	H	0.105918	0.574864	0.399773
	H57	H	0.883612	0.571490	0.576449
	H58	H	0.106630	0.397818	0.575190
	H59	H	0.880245	0.397582	0.395061
	H60	H	0.108357	0.398134	0.582301
	H61	H	0.881172	0.575584	0.579711
	H62	H	0.106383	0.575482	0.401335
	H63	H	0.881088	0.392289	0.403787
	H64	H	0.401352	0.571044	0.099644
	H65	H	0.584920	0.580966	0.876284
	H66	H	0.581728	0.403182	0.098366
	H67	H	0.410780	0.396832	0.878393
	H68	H	0.579573	0.097388	0.399636
	H69	H	0.571370	0.879299	0.580407
	H70	H	0.400292	0.100435	0.580571
	H71	H	0.411252	0.879092	0.403301
	H72	H	0.906680	0.598172	0.079197
	H73	H	0.087805	0.373810	0.078486
	H74	H	0.085693	0.598684	0.901026
	H75	H	0.906558	0.377104	0.899190
	H76	H	0.082452	0.900399	0.599476
	H77	H	0.081353	0.076157	0.380123
	H78	H	0.899388	0.072840	0.602496
	H79	H	0.909097	0.894832	0.377991
	H80	H	0.606785	0.078320	0.899948
	H81	H	0.385262	0.073301	0.073283
	H82	H	0.602909	0.900680	0.070143
	H83	H	0.382560	0.901138	0.900143
	H84	H	0.605125	0.906256	0.080439
	H85	H	0.382445	0.072867	0.082400
	H86	H	0.607465	0.077079	0.899934
	H87	H	0.381831	0.895626	0.900707
	H88	H	0.911877	0.071018	0.598045
	H89	H	0.085064	0.084581	0.376607
	H90	H	0.080612	0.896897	0.599838
	H91	H	0.903082	0.903223	0.379434
	H92	H	0.084307	0.599494	0.896164
	H93	H	0.079181	0.375247	0.082363
	H94	H	0.907304	0.596590	0.076866
	H95	H	0.902601	0.375748	0.900442
	H96	H	0.405302	0.099244	0.584527
	H97	H	0.585918	0.877942	0.569936
	H98	H	0.583853	0.097763	0.404151
	H99	H	0.401774	0.875611	0.403599
	H100	H	0.578602	0.394899	0.100513
	H101	H	0.585350	0.573332	0.878955
	H102	H	0.412299	0.574862	0.097576
	H103	H	0.402738	0.393802	0.875156
	H104	H	0.105409	0.573990	0.401198
	H105	H	0.882248	0.576652	0.574106
	H106	H	0.109456	0.392082	0.579012
	H107	H	0.883907	0.401993	0.403776
	H108	H	0.904815	0.597637	0.077134
	H109	H	0.080926	0.377743	0.073497
	H110	H	0.080748	0.597275	0.900169
	H111	H	0.903778	0.375258	0.896888
	H112	H	0.084063	0.896993	0.600738
	H113	H	0.090766	0.076548	0.376564
	H114	H	0.908073	0.082650	0.602847
	H115	H	0.912961	0.903430	0.382614
	H116	H	0.606808	0.077981	0.898842
	H117	H	0.380461	0.080570	0.077100
	H118	H	0.608292	0.895096	0.078511
	H119	H	0.384052	0.898554	0.905076
	C120	C	0.372788	-0.004453	0.612054
	C121	C	0.615301	0.978373	0.611573
	C122	C	0.615363	-0.003881	0.368355
	C123	C	0.373663	0.978911	0.368110
	C124	C	0.614891	0.366689	-0.002488
	C125	C	0.616441	0.609800	0.980378
	C126	C	0.373573	0.608480	-0.002241
	C127	C	0.372521	0.365597	0.980133
	C128	C	0.003031	0.608074	0.367895
	C129	C	0.985853	0.607140	0.609088
	C130	C	0.003879	0.364934	0.610668
	C131	C	0.985656	0.366028	0.368905
	C132	C	0.873121	0.495310	0.110352
	C133	C	0.115091	0.478281	0.110065
	C134	C	0.115788	0.495774	0.867257
	C135	C	0.872868	0.478710	0.866816
	C136	C	0.115936	0.865659	0.497727
	C137	C	0.116600	0.108616	0.481654
	C138	C	0.873599	0.107889	0.498702
	C139	C	0.873423	0.865722	0.481374
	C140	C	0.502786	0.108433	0.868692
	C141	C	0.485975	0.108674	0.110386
	C142	C	0.503032	0.866899	0.110216
	C143	C	0.485942	0.866441	0.869180
	C144	C	0.371330	0.878258	0.670975
	C145	C	0.618482	0.095142	0.671298
	C146	C	0.618800	0.880078	0.307499
	C147	C	0.369473	0.094762	0.306434
	C148	C	0.674215	0.365298	0.879846
	C149	C	0.677100	0.611922	0.097088
	C150	C	0.313772	0.611178	0.880482
	C151	C	0.312424	0.364395	0.097388
	C152	C	0.886480	0.669754	0.364257
	C153	C	0.103828	0.667007	0.610970
	C154	C	0.885530	0.305662	0.612579
	C155	C	0.103942	0.307450	0.366847
	C156	C	0.885568	0.363463	0.670122
	C157	C	0.104354	0.608506	0.667726
	C158	C	0.886077	0.611887	0.307059
	C159	C	0.103863	0.365372	0.309446
	C160	C	0.371194	0.669117	0.880903
	C161	C	0.620278	0.670460	0.096869
	C162	C	0.616907	0.307150	0.880373
	C163	C	0.369030	0.305468	0.096908
	C164	C	0.675963	0.879725	0.365568
	C165	C	0.676560	0.094705	0.613686
	C166	C	0.314220	0.877934	0.612477
	C167	C	0.313473	0.095649	0.366040
	C168	C	0.868911	0.379417	0.171806
	C169	C	0.117243	0.594989	0.169726
	C170	C	0.119160	0.379504	0.806748
	C171	C	0.871449	0.595877	0.807346
	C172	C	0.176520	0.863818	0.381140
	C173	C	0.174142	0.107465	0.599855
	C174	C	0.812771	0.110833	0.382111
	C175	C	0.810535	0.860401	0.596751
	C176	C	0.384417	0.166564	0.868208
	C177	C	0.603256	0.169660	0.113766
	C178	C	0.387133	0.804338	0.114523
	C179	C	0.602793	0.805485	0.864767
	C180	C	0.386583	0.862522	0.171561
	C181	C	0.603580	0.111256	0.170653
	C182	C	0.384288	0.108939	0.810622
	C183	C	0.602971	0.863470	0.807725
	C184	C	0.870255	0.168802	0.382253
	C185	C	0.117092	0.166059	0.599561
	C186	C	0.120003	0.804566	0.381580
	C187	C	0.868130	0.802618	0.596423
	C188	C	0.176469	0.379544	0.864859
	C189	C	0.174442	0.595625	0.111286
	C190	C	0.812305	0.378862	0.112942
	C191	C	0.813828	0.595976	0.865526
	C192	C	0.396967	0.077554	0.588181
	C193	C	0.588844	0.897308	0.586155
	C194	C	0.589949	0.077153	0.393518
	C195	C	0.399344	0.897838	0.393477
	C196	C	0.589749	0.391286	0.079108
	C197	C	0.590474	0.584344	0.899330
	C198	C	0.398902	0.583060	0.078992
	C199	C	0.398397	0.390429	0.898530
	C200	C	0.084568	0.582197	0.393548
	C201	C	0.903756	0.581806	0.583911
	C202	C	0.086463	0.389119	0.586050
	C203	C	0.903274	0.390211	0.393694
	C204	C	0.898996	0.576492	0.084885
	C205	C	0.089915	0.396793	0.085258
	C206	C	0.090600	0.577250	0.892008
	C207	C	0.897614	0.397303	0.891634
	C208	C	0.089790	0.890831	0.578993
	C209	C	0.092567	0.085672	0.399157
	C210	C	0.899200	0.082438	0.580018
	C211	C	0.900787	0.892824	0.400890
	C212	C	0.585577	0.084532	0.892584
	C213	C	0.404141	0.083136	0.084846
	C214	C	0.584225	0.893403	0.083901
	C215	C	0.404139	0.891389	0.894838
	Zn216	Zn	0.494119	-0.012919	0.740672
	Zn217	Zn	0.494632	-0.012262	0.238790
	Zn218	Zn	0.743802	0.487511	-0.010975
	Zn219	Zn	0.244394	0.487684	-0.011173
	Zn220	Zn	-0.005697	0.736394	0.489147
	Zn221	Zn	-0.004789	0.236978	0.489899
	Zn222	Zn	-0.005693	0.486969	0.737979
	Zn223	Zn	-0.006306	0.486671	0.239864
	Zn224	Zn	0.494821	0.737644	-0.010544
	Zn225	Zn	0.494156	0.237148	-0.010339
	Zn226	Zn	0.744232	-0.013463	0.489566
	Zn227	Zn	0.245059	-0.012993	0.489911
	N228	N	0.406804	0.952683	0.671084
	N229	N	0.581266	0.021588	0.670327
	N230	N	0.581744	0.953535	0.308821
	N231	N	0.405919	0.020929	0.307173
	N232	N	0.673382	0.401265	0.953828
	N233	N	0.674936	0.574972	0.023591
	N234	N	0.315000	0.574255	0.954187
	N235	N	0.314289	0.401010	0.023566
	N236	N	0.960390	0.667543	0.401435
	N237	N	0.028883	0.666691	0.575592
	N238	N	0.960322	0.306301	0.576565
	N239	N	0.029243	0.307395	0.402839
	N240	N	0.960314	0.399205	0.669377
	N241	N	0.029742	0.572369	0.666987
	N242	N	0.959673	0.574217	0.309077
	N243	N	0.029068	0.400964	0.310311
	N244	N	0.407427	0.667952	0.955006
	N245	N	0.583431	0.669615	0.023064
	N246	N	0.580924	0.307500	0.954664
	N247	N	0.405683	0.306135	0.022937
	N248	N	0.674064	0.952860	0.402595
	N249	N	0.675015	0.020838	0.577537
	N250	N	0.314691	0.952016	0.576897
	N251	N	0.315810	0.022498	0.403531
	N252	N	0.905988	0.452888	0.170383
	N253	N	0.081050	0.520865	0.169280
	N254	N	0.082033	0.452874	0.808069
	N255	N	0.907246	0.521752	0.807883
	N256	N	0.173999	0.901128	0.454510
	N257	N	0.174131	0.072683	0.525226
	N258	N	0.814857	0.073283	0.455388
	N259	N	0.813706	0.898879	0.523974
	N260	N	0.459319	0.166508	0.903595
	N261	N	0.529002	0.168160	0.076889
	N262	N	0.460838	0.806694	0.077009
	N263	N	0.529002	0.807321	0.902437
	N264	N	0.459894	0.900500	0.169051
	N265	N	0.529566	0.074061	0.168765
	N266	N	0.459179	0.073580	0.810626
	N267	N	0.529235	0.900859	0.810368
	N268	N	0.907461	0.167218	0.455879
	N269	N	0.082319	0.167213	0.524839
	N270	N	0.082682	0.805710	0.455168
	N271	N	0.906675	0.805769	0.523528
	N272	N	0.174585	0.453018	0.901926
	N273	N	0.173142	0.522014	0.074829
	N274	N	0.814868	0.452017	0.075194
	N275	N	0.814548	0.522171	0.902077
	O276	O	-0.220323	0.953056	0.207998
	H277	H	-0.224980	0.943962	0.213873
	H278	H	-0.244291	0.954117	0.211005
	O279	O	-0.068928	1.153287	0.116717
	H280	H	-0.086499	1.150587	0.106149
	H281	H	-0.062377	1.135927	0.117219
	O282	O	1.094470	-0.038073	1.098247
	H283	H	1.111218	-0.033142	1.096588
	H284	H	1.093604	-0.042091	1.109469
	O285	O	0.705886	0.274106	0.455407
	H286	H	0.717261	0.276941	0.468184
	H287	H	0.692125	0.265272	0.472442
	O288	O	0.481713	0.594877	0.347326
	H289	H	0.498812	0.590952	0.344480
	H290	H	0.488889	0.585735	0.345820
	O291	O	0.690552	0.474793	0.575578
	H292	H	0.689908	0.489374	0.569527
	H293	H	0.692396	0.484993	0.568778
	O294	O	1.180805	-0.203787	1.175018
	H295	H	1.201072	-0.225543	1.199484
	H296	H	1.172141	-0.189397	1.161519
	O297	O	0.579265	0.609737	0.435502
	H298	H	0.567962	0.606716	0.431715
	H299	H	0.573218	0.615372	0.435331
	O300	O	-0.679270	-0.521342	1.578873
	H301	H	-0.681158	-0.519981	1.581842
	H302	H	-0.677480	-0.559370	1.572474
	O303	O	0.304870	0.295069	0.299322
	H304	H	0.286774	0.273565	0.271824
	H305	H	0.329278	0.317858	0.290269
	O306	O	0.702064	0.275242	0.280910
	H307	H	0.701695	0.271189	0.327703
	H308	H	0.712645	0.263454	0.261884
	O309	O	0.593470	0.559514	0.451570
	H310	H	0.604296	0.561688	0.449615
	H311	H	0.601525	0.558901	0.451436
	O312	O	0.284392	0.672520	0.416542
	H313	H	0.267209	0.663480	0.418897
	H314	H	0.274988	0.661735	0.424941
	O315	O	0.988736	1.002946	0.790464
	H316	H	0.982264	1.005897	0.780383
	H317	H	0.995525	1.010815	0.797163
	O318	O	0.434296	0.329609	0.508444
	H319	H	0.420385	0.314184	0.489693
	H320	H	0.432326	0.324677	0.496679
	O321	O	0.535736	0.578578	0.596926
	H322	H	0.540387	0.577803	0.615332
	H323	H	0.515884	0.582164	0.587858
	O324	O	1.184801	1.179084	-0.200489
	H325	H	1.157338	1.175803	-0.179318
	H326	H	1.173717	1.146688	-0.184475
	O327	O	0.007883	-0.235163	1.096072
	H328	H	0.019696	-0.237602	1.103639
	H329	H	0.024342	-0.223491	1.085543
	O330	O	0.315578	0.516959	0.268457
	H331	H	0.304636	0.522161	0.272466
	H332	H	0.322367	0.510944	0.259303
	O333	O	0.581250	0.396971	0.589749
	H334	H	0.574896	0.403163	0.572548
	H335	H	0.581362	0.424618	0.586339
	O336	O	0.462510	0.711176	0.272389
	H337	H	0.463459	0.707064	0.262930
	H338	H	0.454355	0.721849	0.260390
	O339	O	1.033245	-0.233433	0.765435
	H340	H	1.015626	-0.250450	0.757456
	H341	H	1.014290	-0.218698	0.752761
	O342	O	-0.224007	0.013775	-0.235075
	H343	H	-0.230487	0.030365	-0.228604
	H344	H	-0.246857	0.019014	-0.248515
	O345	O	0.168121	0.870849	1.047581
	H346	H	0.180932	0.850952	1.032263
	H347	H	0.177642	0.867803	1.046675
	O348	O	0.206275	0.206432	0.018722
	H349	H	0.219499	0.213984	0.016537
	H350	H	0.209825	0.202435	0.026574
	O351	O	0.269665	0.260100	0.522947
	H352	H	0.275527	0.273297	0.571446
	H353	H	0.235326	0.226604	0.525731
	O354	O	-0.234907	-0.066099	0.932904
	H355	H	-0.240088	-0.064252	0.930662
	H356	H	-0.226330	-0.064863	0.954157
	O357	O	0.856538	0.835673	0.783828
	H358	H	0.858526	0.848647	0.798249
	H359	H	0.870692	0.860396	0.795839
	O360	O	0.462278	0.590708	0.653983
	H361	H	0.450910	0.573382	0.643419
	H362	H	0.466569	0.582608	0.653249
	O363	O	0.142819	-0.010969	0.215734
	H364	H	0.152066	-0.011381	0.210904
	H365	H	0.160900	-0.023005	0.229238
	O366	O	0.675231	0.304718	0.668219
	H367	H	0.663468	0.326824	0.653128
	H368	H	0.657940	0.318630	0.648885
	O369	O	0.442440	0.377658	0.270555
	H370	H	0.450603	0.394812	0.267283
	H371	H	0.464222	0.373305	0.259341
	O372	O	0.989072	1.048131	-0.052043
	H373	H	0.997352	1.054146	-0.044596
	H374	H	0.979045	1.042484	-0.038580
	O375	O	0.960661	-0.097763	0.029876
	H376	H	0.957050	-0.086201	0.013151
	H377	H	0.957313	-0.099673	0.042153
	O378	O	0.688386	0.649495	0.335651
	H379	H	0.711348	0.676495	0.316129
	H380	H	0.689638	0.654197	0.353006
	O381	O	-0.036276	1.211922	0.766114
	H382	H	-0.051218	1.226354	0.760704
	H383	H	-0.032194	1.225988	0.759898
	O384	O	1.002898	0.206391	0.962538
	H385	H	1.007594	0.202542	0.971296
	H386	H	0.998134	0.214326	0.957295
	O387	O	1.039312	1.098667	-0.183730
	H388	H	1.031190	1.119076	-0.177151
	H389	H	1.064977	1.080292	-0.177275
	O390	O	0.715228	0.462029	0.267457
	H391	H	0.732615	0.453439	0.254301
	H392	H	0.723882	0.439297	0.264079
	O393	O	0.525248	0.354289	0.341782
	H394	H	0.535759	0.350550	0.344230
	H395	H	0.541300	0.346067	0.326904
	O396	O	-0.066111	0.756785	0.928739
	H397	H	-0.063778	0.767009	0.931989
	H398	H	-0.051899	0.760594	0.945278
	O399	O	0.453436	0.269779	0.706150
	H400	H	0.468445	0.247846	0.725236
	H401	H	0.468234	0.281618	0.691382
	O402	O	0.494683	0.457314	0.379872
	H403	H	0.521006	0.455582	0.376419
	H404	H	0.495941	0.469280	0.391583
	O405	O	0.792843	0.190248	0.787683
	H406	H	0.764311	0.206158	0.757053
	H407	H	0.818307	0.182913	0.794176
	O408	O	0.202916	-0.224306	-0.221007
	H409	H	0.233005	-0.257398	-0.254820
	H410	H	0.149558	-0.232968	-0.229484
	O411	O	0.807282	1.174684	1.180783
	H412	H	0.809696	1.178993	1.170893
	H413	H	0.823873	1.157883	1.165934
	O414	O	0.344947	0.404995	0.622417
	H415	H	0.332683	0.393466	0.608612
	H416	H	0.328324	0.385823	0.631638
	O417	O	0.694766	0.501601	0.679823
	H418	H	0.707980	0.515863	0.684886
	H419	H	0.703831	0.513367	0.676784
	O420	O	0.458083	0.656609	0.456075
	H421	H	0.453043	0.648683	0.442516
	H422	H	0.474532	0.655607	0.451988
	O423	O	0.083568	-0.020198	0.981742
	H424	H	0.072778	-0.023929	0.992808
	H425	H	0.085342	-0.022916	0.964124
	O426	O	0.666683	0.524549	0.377507
	H427	H	0.671513	0.549175	0.374959
	H428	H	0.675152	0.532758	0.365635
	O429	O	1.204324	1.198790	1.194247
	H430	H	1.189787	1.192191	1.166975
	H431	H	1.194770	1.172314	1.204728
	O432	O	0.285265	0.277018	0.699375
	H433	H	0.254792	0.244456	0.733113
	H434	H	0.330939	0.273812	0.702097
	O435	O	-0.044837	0.973344	-0.046241
	H436	H	-0.041718	0.963283	-0.035466
	H437	H	-0.056882	0.978315	-0.044602
	O438	O	-0.228974	0.212755	-0.042075
	H439	H	-0.247890	0.237340	-0.055733
	H440	H	-0.225475	0.215785	-0.069059
	O441	O	0.224263	-0.236153	-0.035850
	H442	H	0.206857	-0.226230	-0.082503
	H443	H	0.261584	-0.272472	-0.043073
	O444	O	0.558172	0.697823	0.694787
	H445	H	0.555337	0.703083	0.698396
	H446	H	0.541761	0.708703	0.695007
	O447	O	0.025724	1.210131	1.213234
	H448	H	0.031012	1.235967	1.232180
	H449	H	0.024564	1.200063	1.215230
	O450	O	-0.210033	0.780524	1.201022
	H451	H	-0.201240	0.800713	1.185877
	H452	H	-0.176141	0.776133	1.182611
	O453	O	0.388754	0.375180	0.402026
	H454	H	0.376340	0.370550	0.398884
	H455	H	0.388693	0.368837	0.418596
	O456	O	0.301880	0.502651	0.511869
	H457	H	0.312476	0.500375	0.517071
	H458	H	0.299048	0.483230	0.507450
	O459	O	0.302880	0.679611	0.678638
	H460	H	0.332675	0.673087	0.658100
	H461	H	0.315043	0.652332	0.663789
	O462	O	0.979374	0.805708	1.215712
	H463	H	0.995879	0.806529	1.207629
	H464	H	0.994733	0.794212	1.227647
	O465	O	0.939540	0.000283	0.164572
	H466	H	0.924757	0.016427	0.172235
	H467	H	0.944279	0.015899	0.163955
	O468	O	0.280705	0.701277	0.279635
	H469	H	0.301965	0.695250	0.279447
	H470	H	0.277113	0.678162	0.300471
	O471	O	0.676614	0.692657	0.507534
	H472	H	0.685753	0.707182	0.526112
	H473	H	0.667446	0.696975	0.517987
	O474	O	0.739689	0.732758	0.734683
	H475	H	0.731000	0.727707	0.744122
	H476	H	0.762412	0.760858	0.763412
	O477	O	0.491543	0.254422	1.481366
	H478	H	0.468684	0.243473	1.461014
	H479	H	0.470253	0.266072	1.477399
	O480	O	0.469364	0.618304	0.615455
	H481	H	0.468796	0.635738	0.602891
	H482	H	0.467609	0.611553	0.607467
	O483	O	0.483597	0.447498	0.675394
	H484	H	0.494159	0.445322	0.668329
	H485	H	0.495630	0.450589	0.681938
	O486	O	1.217334	-0.044726	0.767311
	H487	H	1.247947	-0.051818	0.737093
	H488	H	1.210213	-0.086318	0.774139
	O489	O	1.192140	0.985738	0.083891
	H490	H	1.206104	0.970919	0.096295
	H491	H	1.190117	0.972945	0.053838
	O492	O	0.201844	0.043511	-0.069185
	H493	H	0.196380	0.023929	-0.074354
	H494	H	0.209906	0.039840	-0.074652
	O495	O	-0.203999	1.039624	1.048012
	H496	H	-0.196950	1.057528	1.038106
	H497	H	-0.202695	1.048601	1.039650
	O498	O	0.907652	1.044046	0.948470
	H499	H	0.917088	1.047985	0.948127
	H500	H	0.908978	1.039456	0.960896
	O501	O	0.773090	0.774613	1.016409
	H502	H	0.771113	0.766351	1.014225
	H503	H	0.769848	0.762844	1.018139
