data_Molecule from HDF5

_cell_length_a		16.453606
_cell_length_b		16.627189
_cell_length_c		16.478559
_cell_angle_alpha	90.070208
_cell_angle_beta	89.975015
_cell_angle_gamma	90.089417
_symmetry_space_group_name_H-M	'P 1'
_symmetry_Int_Tables_number		1

loop_
	_symmetry_equiv_pos_as_xyz
	x,y,z

loop_
	_atom_site_label
	_atom_site_type_symbol
	_atom_site_fract_x
	_atom_site_fract_y
	_atom_site_fract_z
	H0	H	0.380680	0.860637	0.721571
	H1	H	0.594579	0.171668	0.724535
	H2	H	0.593499	0.861480	0.277145
	H3	H	0.381979	0.171994	0.276422
	H4	H	0.710471	0.410743	0.842726
	H5	H	0.706815	0.620062	0.157883
	H6	H	0.270761	0.617062	0.840690
	H7	H	0.268377	0.413874	0.157623
	H8	H	0.831747	0.740441	0.391730
	H9	H	0.144698	0.740512	0.605495
	H10	H	0.831435	0.293424	0.608874
	H11	H	0.145931	0.297739	0.396418
	H12	H	0.830536	0.412327	0.721777
	H13	H	0.145829	0.622301	0.720010
	H14	H	0.830529	0.621552	0.278380
	H15	H	0.147180	0.416346	0.282835
	H16	H	0.383808	0.737475	0.842517
	H17	H	0.592671	0.737756	0.157728
	H18	H	0.597633	0.291797	0.844083
	H19	H	0.381238	0.294693	0.156307
	H20	H	0.709379	0.860732	0.394917
	H21	H	0.710144	0.172811	0.605858
	H22	H	0.263660	0.861479	0.605460
	H23	H	0.265889	0.172892	0.394331
	H24	H	0.885011	0.359242	0.217705
	H25	H	0.090983	0.673558	0.218178
	H26	H	0.092205	0.360404	0.777437
	H27	H	0.885261	0.674113	0.779296
	H28	H	0.204417	0.916998	0.340783
	H29	H	0.210022	0.123791	0.657243
	H30	H	0.769655	0.116617	0.341595
	H31	H	0.767098	0.912000	0.657520
	H32	H	0.332626	0.240464	0.890997
	H33	H	0.644736	0.239323	0.107405
	H34	H	0.328511	0.799333	0.101269
	H35	H	0.644419	0.795134	0.894050
	H36	H	0.328043	0.916848	0.216615
	H37	H	0.646532	0.119689	0.219519
	H38	H	0.330857	0.122094	0.778069
	H39	H	0.644141	0.910535	0.777855
	H40	H	0.882956	0.235695	0.342432
	H41	H	0.092102	0.238175	0.657564
	H42	H	0.092294	0.796984	0.342737
	H43	H	0.882341	0.795262	0.656389
	H44	H	0.207696	0.359167	0.894738
	H45	H	0.205125	0.675198	0.098874
	H46	H	0.766633	0.361074	0.102603
	H47	H	0.768201	0.673935	0.896157
	H48	H	0.401365	0.127495	0.589463
	H49	H	0.573260	0.907049	0.586279
	H50	H	0.575045	0.127499	0.411866
	H51	H	0.392790	0.905392	0.415373
	H52	H	0.573141	0.427931	0.109992
	H53	H	0.577378	0.600466	0.888454
	H54	H	0.392908	0.609240	0.115261
	H55	H	0.396994	0.424151	0.885192
	H56	H	0.100045	0.606278	0.411157
	H57	H	0.876982	0.600266	0.590274
	H58	H	0.101166	0.424674	0.585836
	H59	H	0.876123	0.430647	0.410234
	H60	H	0.097815	0.430711	0.584695
	H61	H	0.873199	0.610563	0.590739
	H62	H	0.101274	0.606801	0.408860
	H63	H	0.871084	0.424397	0.404249
	H64	H	0.398288	0.603107	0.110963
	H65	H	0.570800	0.610788	0.887503
	H66	H	0.576333	0.425846	0.112572
	H67	H	0.399404	0.432116	0.888016
	H68	H	0.579022	0.128445	0.411527
	H69	H	0.578388	0.904782	0.586975
	H70	H	0.400197	0.127448	0.587567
	H71	H	0.394705	0.901973	0.403926
	H72	H	0.899797	0.628138	0.084590
	H73	H	0.080751	0.403165	0.088157
	H74	H	0.076884	0.627534	0.911322
	H75	H	0.897815	0.404909	0.910523
	H76	H	0.073888	0.929910	0.611276
	H77	H	0.073416	0.108132	0.388580
	H78	H	0.906415	0.107215	0.611756
	H79	H	0.903934	0.928077	0.388813
	H80	H	0.599511	0.099799	0.910015
	H81	H	0.375552	0.102250	0.089488
	H82	H	0.599508	0.934679	0.090969
	H83	H	0.376316	0.927712	0.916644
	H84	H	0.605705	0.920901	0.096201
	H85	H	0.373862	0.109610	0.089715
	H86	H	0.601436	0.108340	0.913290
	H87	H	0.374334	0.930418	0.907441
	H88	H	0.896239	0.113177	0.617095
	H89	H	0.078951	0.110729	0.386039
	H90	H	0.074541	0.927495	0.612913
	H91	H	0.896835	0.922576	0.384480
	H92	H	0.082241	0.629171	0.911149
	H93	H	0.081486	0.402287	0.093690
	H94	H	0.893292	0.631087	0.090625
	H95	H	0.901356	0.406377	0.908832
	H96	H	0.399290	0.128294	0.589305
	H97	H	0.575146	0.905303	0.591147
	H98	H	0.576436	0.129496	0.408633
	H99	H	0.403864	0.907977	0.410167
	H100	H	0.576757	0.430748	0.111670
	H101	H	0.582346	0.610186	0.883685
	H102	H	0.401590	0.611612	0.113464
	H103	H	0.405018	0.425681	0.887943
	H104	H	0.101273	0.608887	0.410899
	H105	H	0.877673	0.606461	0.581006
	H106	H	0.101421	0.429314	0.590580
	H107	H	0.873604	0.421822	0.414110
	H108	H	0.901892	0.629815	0.093409
	H109	H	0.076372	0.404039	0.091744
	H110	H	0.079043	0.630232	0.906731
	H111	H	0.900940	0.406461	0.913368
	H112	H	0.076824	0.929355	0.613397
	H113	H	0.078797	0.104500	0.387289
	H114	H	0.895081	0.101170	0.612795
	H115	H	0.894438	0.931905	0.386946
	H116	H	0.597094	0.101717	0.918714
	H117	H	0.376895	0.106069	0.083485
	H118	H	0.600048	0.922075	0.081237
	H119	H	0.372545	0.921258	0.910141
	C120	C	0.366196	0.024943	0.621437
	C121	C	0.608662	1.008448	0.621506
	C122	C	0.608997	0.025030	0.378596
	C123	C	0.365204	1.008292	0.377434
	C124	C	0.608984	0.395386	0.008098
	C125	C	0.608954	0.638782	0.991240
	C126	C	0.366997	0.637955	0.008545
	C127	C	0.367361	0.395308	0.991283
	C128	C	-0.003407	0.638657	0.377744
	C129	C	0.979847	0.638218	0.619872
	C130	C	-0.003559	0.395762	0.620843
	C131	C	0.978785	0.395350	0.378512
	C132	C	0.866585	0.525891	0.120889
	C133	C	0.110090	0.508066	0.120709
	C134	C	0.110788	0.525480	0.877040
	C135	C	0.867404	0.509083	0.878682
	C136	C	0.107369	0.897445	0.508177
	C137	C	0.109394	0.139361	0.491465
	C138	C	0.866873	0.138008	0.509324
	C139	C	0.866298	0.895445	0.491150
	C140	C	0.496371	0.136911	0.879882
	C141	C	0.479600	0.138219	0.120720
	C142	C	0.496268	0.895608	0.120418
	C143	C	0.478547	0.894418	0.878724
	C144	C	0.362520	0.907618	0.681567
	C145	C	0.612129	0.125362	0.683136
	C146	C	0.611376	0.907748	0.318028
	C147	C	0.363238	0.125487	0.316901
	C148	C	0.670196	0.392676	0.889935
	C149	C	0.667434	0.639002	0.110522
	C150	C	0.309364	0.637432	0.888487
	C151	C	0.307501	0.394461	0.110036
	C152	C	0.878711	0.699298	0.374335
	C153	C	0.098030	0.699594	0.623199
	C154	C	0.878403	0.334352	0.625568
	C155	C	0.098439	0.337628	0.377969
	C156	C	0.878147	0.393410	0.682092
	C157	C	0.098513	0.641062	0.680183
	C158	C	0.877820	0.640091	0.317992
	C159	C	0.099246	0.396493	0.321397
	C160	C	0.365527	0.696963	0.889409
	C161	C	0.610998	0.697845	0.110082
	C162	C	0.613951	0.333490	0.890704
	C163	C	0.363599	0.335095	0.109243
	C164	C	0.668992	0.907477	0.376339
	C165	C	0.669496	0.126025	0.624266
	C166	C	0.304357	0.908140	0.623820
	C167	C	0.305702	0.125880	0.375423
	C168	C	0.865717	0.406962	0.178854
	C169	C	0.110020	0.626526	0.178410
	C170	C	0.111195	0.407388	0.817310
	C171	C	0.865856	0.627158	0.818987
	C172	C	0.166044	0.897103	0.388736
	C173	C	0.169873	0.141893	0.609932
	C174	C	0.808354	0.137045	0.389476
	C175	C	0.806714	0.893443	0.609932
	C176	C	0.379284	0.199154	0.874476
	C177	C	0.598028	0.198326	0.124205
	C178	C	0.376207	0.838104	0.120764
	C179	C	0.597164	0.834981	0.875914
	C180	C	0.375977	0.896578	0.177816
	C181	C	0.598793	0.139142	0.180201
	C182	C	0.378291	0.140411	0.818119
	C183	C	0.596857	0.892399	0.818109
	C184	C	0.864729	0.196246	0.389883
	C185	C	0.111378	0.198800	0.610079
	C186	C	0.110131	0.837642	0.389563
	C187	C	0.863888	0.835269	0.609326
	C188	C	0.168769	0.406761	0.875678
	C189	C	0.167011	0.627228	0.119326
	C190	C	0.806886	0.407681	0.121633
	C191	C	0.807897	0.627041	0.877006
	C192	C	0.392636	0.106610	0.596001
	C193	C	0.582962	0.926828	0.595382
	C194	C	0.583986	0.106979	0.403565
	C195	C	0.390207	0.926485	0.402632
	C196	C	0.582951	0.420850	0.089950
	C197	C	0.584104	0.614137	0.908067
	C198	C	0.390786	0.614648	0.091592
	C199	C	0.393192	0.420048	0.908596
	C200	C	0.079299	0.614170	0.403006
	C201	C	0.897385	0.612736	0.594582
	C202	C	0.078792	0.421089	0.594525
	C203	C	0.895210	0.418830	0.402550
	C204	C	0.891325	0.608253	0.096587
	C205	C	0.086512	0.424871	0.097740
	C206	C	0.086503	0.607516	0.902449
	C207	C	0.892721	0.427333	0.903655
	C208	C	0.082283	0.921920	0.590932
	C209	C	0.084294	0.114780	0.408759
	C210	C	0.891722	0.114158	0.592126
	C211	C	0.891346	0.920369	0.408317
	C212	C	0.578056	0.110682	0.906540
	C213	C	0.397046	0.113023	0.094944
	C214	C	0.579879	0.919156	0.096422
	C215	C	0.395728	0.919448	0.904019
	Zn216	Zn	0.487404	0.016118	0.751233
	Zn217	Zn	0.487634	0.016973	0.249051
	Zn218	Zn	0.737613	0.517464	-0.000785
	Zn219	Zn	0.239063	0.515819	-0.000855
	Zn220	Zn	-0.012208	0.767017	0.499652
	Zn221	Zn	-0.012567	0.266883	0.499934
	Zn222	Zn	-0.011847	0.517861	0.748897
	Zn223	Zn	-0.011913	0.516615	0.249821
	Zn224	Zn	0.487782	0.766843	0.000195
	Zn225	Zn	0.488072	0.266386	-0.000233
	Zn226	Zn	0.738269	0.016358	0.500592
	Zn227	Zn	0.236732	0.017501	0.500472
	N228	N	0.400315	0.981384	0.680365
	N229	N	0.575134	0.051169	0.681705
	N230	N	0.574695	0.981860	0.319210
	N231	N	0.399445	0.051216	0.317999
	N232	N	0.667471	0.430581	0.963976
	N233	N	0.666338	0.603021	0.035414
	N234	N	0.309948	0.601521	0.963331
	N235	N	0.309680	0.430916	0.035403
	N236	N	0.953632	0.698617	0.410808
	N237	N	0.023217	0.697923	0.586390
	N238	N	0.953017	0.335816	0.588120
	N239	N	0.022543	0.336728	0.412686
	N240	N	0.952531	0.431003	0.679239
	N241	N	0.024228	0.603408	0.678045
	N242	N	0.952229	0.603002	0.320030
	N243	N	0.023700	0.431521	0.321306
	N244	N	0.400489	0.697464	0.965021
	N245	N	0.575320	0.697633	0.034785
	N246	N	0.576685	0.334802	0.965161
	N247	N	0.399911	0.335419	0.034283
	N248	N	0.667594	0.981432	0.413452
	N249	N	0.667630	0.052231	0.586965
	N250	N	0.306607	0.982247	0.587249
	N251	N	0.306847	0.052052	0.412458
	N252	N	0.901818	0.481532	0.178638
	N253	N	0.075614	0.551196	0.179555
	N254	N	0.076135	0.482255	0.817822
	N255	N	0.901817	0.552752	0.819616
	N256	N	0.164543	0.933539	0.463475
	N257	N	0.169031	0.106111	0.535015
	N258	N	0.809424	0.101781	0.464705
	N259	N	0.808156	0.930131	0.535430
	N260	N	0.453718	0.197224	0.912007
	N261	N	0.522712	0.197936	0.088073
	N262	N	0.452261	0.837127	0.086377
	N263	N	0.522485	0.836145	0.912837
	N264	N	0.451754	0.931318	0.178081
	N265	N	0.523932	0.102543	0.178397
	N266	N	0.452060	0.102201	0.821245
	N267	N	0.521894	0.928500	0.819584
	N268	N	0.899925	0.197420	0.465557
	N269	N	0.074560	0.197566	0.535327
	N270	N	0.074438	0.837682	0.464828
	N271	N	0.900006	0.836175	0.534203
	N272	N	0.168794	0.481201	0.911915
	N273	N	0.167393	0.552206	0.084446
	N274	N	0.806964	0.482594	0.086672
	N275	N	0.808372	0.552560	0.913063
	O276	O	0.818238	1.049251	-0.139240
	H277	H	0.807537	1.064846	-0.158054
	H278	H	0.819197	1.059697	-0.116515
	O279	O	-0.185900	-0.202341	1.036285
	H280	H	-0.192070	-0.206181	1.019043
	H281	H	-0.196693	-0.200723	1.019823
	O282	O	0.451922	0.476156	0.298672
	H283	H	0.447884	0.485068	0.309297
	H284	H	0.455921	0.476630	0.290082
	O285	O	0.066854	0.003707	1.009878
	H286	H	0.052022	0.005958	0.997412
	H287	H	0.074392	0.012043	0.994968
	O288	O	1.015385	0.021553	1.073528
	H289	H	1.018248	0.016171	1.063517
	H290	H	1.012062	0.022446	1.066936
	O291	O	0.554751	0.317062	0.559028
	H292	H	0.546912	0.315729	0.565131
	H293	H	0.568479	0.332861	0.566582
	O294	O	0.098749	0.090885	-0.076835
	H295	H	0.095922	0.082388	-0.095368
	H296	H	0.109644	0.104032	-0.065975
	O297	O	1.189874	0.055508	0.202396
	H298	H	1.180871	0.058949	0.206159
	H299	H	1.199693	0.049785	0.206542
	O300	O	0.072936	0.211958	-0.080346
	H301	H	0.066768	0.221869	-0.084926
	H302	H	0.064500	0.203123	-0.076527
	O303	O	-0.320538	-0.293368	-0.301046
	H304	H	-0.339527	-0.302956	-0.311988
	H305	H	-0.330520	-0.301934	-0.312979
	O306	O	0.912299	-0.157279	-0.168280
	H307	H	0.903339	-0.169284	-0.166542
	H308	H	0.894350	-0.164093	-0.170641
	O309	O	0.774149	0.844600	0.214570
	H310	H	0.769314	0.837306	0.189043
	H311	H	0.777906	0.878064	0.221748
	O312	O	0.022633	0.232379	0.215859
	H313	H	0.027843	0.248079	0.229958
	H314	H	0.032013	0.236930	0.206405
	O315	O	0.539099	0.569766	0.369683
	H316	H	0.533720	0.577724	0.375949
	H317	H	0.542602	0.580143	0.361436
	O318	O	1.024522	0.839414	0.010698
	H319	H	1.026631	0.834360	0.021393
	H320	H	1.007569	0.840995	0.013292
	O321	O	-0.467638	0.612700	0.500045
	H322	H	-0.473093	0.608465	0.496591
	H323	H	-0.471156	0.612629	0.504072
	O324	O	0.895460	-0.019642	1.003076
	H325	H	0.889522	-0.006268	0.985467
	H326	H	0.926294	-0.026435	0.988155
	O327	O	0.706980	0.698626	0.314678
	H328	H	0.705144	0.690807	0.306376
	H329	H	0.704924	0.723612	0.299457
	O330	O	0.279744	0.730579	0.291014
	H331	H	0.260680	0.737626	0.266356
	H332	H	0.277655	0.726698	0.281508
	O333	O	0.467314	0.291369	0.388533
	H334	H	0.474332	0.286773	0.393360
	H335	H	0.479951	0.281837	0.381356
	O336	O	1.014908	-0.141824	0.812881
	H337	H	1.027015	-0.160754	0.804670
	H338	H	1.008442	-0.143067	0.809521
	O339	O	0.498021	0.302106	0.672691
	H340	H	0.498419	0.292893	0.670126
	H341	H	0.489927	0.300364	0.676090
	O342	O	-0.049153	0.973762	-0.203508
	H343	H	-0.055171	0.947403	-0.213293
	H344	H	-0.058282	0.964957	-0.203826
	O345	O	0.288497	0.311391	0.701252
	H346	H	0.284268	0.325821	0.679188
	H347	H	0.304200	0.306321	0.710151
	O348	O	0.440128	0.695163	0.513518
	H349	H	0.422814	0.693721	0.509560
	H350	H	0.431986	0.694513	0.495212
	O351	O	-0.203090	-0.097855	0.845367
	H352	H	-0.210252	-0.090336	0.848679
	H353	H	-0.226791	-0.084130	0.832178
	O354	O	0.971678	-0.193973	1.203942
	H355	H	0.951299	-0.211704	1.223876
	H356	H	0.942320	-0.182595	1.200065
	O357	O	0.550286	0.430212	0.599514
	H358	H	0.554766	0.426727	0.607983
	H359	H	0.539913	0.438058	0.593031
	O360	O	0.707046	0.650350	0.520306
	H361	H	0.708219	0.657246	0.501998
	H362	H	0.721997	0.653832	0.521295
	O363	O	0.454312	0.739440	0.281172
	H364	H	0.442601	0.757736	0.280346
	H365	H	0.440818	0.757058	0.277165
	O366	O	0.906171	0.150235	1.000704
	H367	H	0.910127	0.142839	1.005029
	H368	H	0.910211	0.153514	1.021693
	O369	O	0.178116	0.151148	0.966767
	H370	H	0.177428	0.160685	0.957979
	H371	H	0.175617	0.159984	0.969978
	O372	O	0.138062	1.219585	1.042089
	H373	H	0.137473	1.210470	1.038007
	H374	H	0.145764	1.227819	1.045749
	O375	O	0.905212	0.121669	0.202177
	H376	H	0.915302	0.135090	0.203990
	H377	H	0.913700	0.103102	0.200864
	O378	O	1.403465	-0.423689	0.638405
	H379	H	1.411823	-0.426189	0.614982
	H380	H	1.411830	-0.436522	0.638658
	O381	O	-0.232131	0.982573	-0.108984
	H382	H	-0.235352	0.998683	-0.116421
	H383	H	-0.228071	1.010970	-0.120761
	O384	O	0.268858	0.486389	-0.282963
	H385	H	0.241646	0.490332	-0.267767
	H386	H	0.263470	0.470166	-0.295916
	O387	O	0.191595	0.897173	1.025308
	H388	H	0.185339	0.888510	1.004317
	H389	H	0.200933	0.927674	1.028696
	O390	O	0.091104	1.080276	0.816468
	H391	H	0.094761	1.075825	0.816222
	H392	H	0.095604	1.052823	0.816262
	O393	O	0.773246	0.251425	-0.236659
	H394	H	0.816080	0.259028	-0.236534
	H395	H	0.757126	0.278969	-0.240332
	O396	O	0.200915	0.801506	0.840597
	H397	H	0.199991	0.785043	0.840662
	H398	H	0.219982	0.786498	0.848656
	O399	O	0.286202	0.539785	0.500732
	H400	H	0.282283	0.540553	0.489123
	H401	H	0.295566	0.527146	0.505503
	O402	O	1.620824	0.399210	0.702214
	H403	H	1.622223	0.405574	0.687510
	H404	H	1.602238	0.403521	0.696115
	O405	O	0.510088	0.527647	0.705441
	H406	H	0.504824	0.522188	0.709233
	H407	H	0.521219	0.528859	0.701351
	O408	O	0.847731	1.206595	1.114672
	H409	H	0.837723	1.206733	1.125505
	H410	H	0.834915	1.216357	1.117897
	O411	O	0.458278	0.702947	0.442646
	H412	H	0.475014	0.695316	0.448899
	H413	H	0.438761	0.704189	0.429877
	O414	O	-0.172337	-0.000485	0.189372
	H415	H	-0.159914	0.008531	0.167100
	H416	H	-0.173994	0.017483	0.190324
	O417	O	0.311992	0.329182	0.327145
	H418	H	0.329238	0.334887	0.348058
	H419	H	0.315395	0.319445	0.327622
	O420	O	0.771032	0.229956	0.976670
	H421	H	0.775782	0.223715	0.963427
	H422	H	0.747764	0.244886	0.982629
	O423	O	1.580534	0.581648	0.318945
	H424	H	1.571493	0.583004	0.320618
	H425	H	1.564369	0.605969	0.315458
	O426	O	0.376309	0.520784	0.553095
	H427	H	0.372795	0.496676	0.547854
	H428	H	0.382159	0.511566	0.556708
	O429	O	0.643627	0.441397	0.367771
	H430	H	0.634702	0.451404	0.378860
	H431	H	0.635283	0.460688	0.377070
	O432	O	1.709628	0.293512	0.469140
	H433	H	1.701575	0.314464	0.458711
	H434	H	1.746481	0.260406	0.468913
	O435	O	0.298530	0.653684	0.635058
	H436	H	0.314020	0.640754	0.621347
	H437	H	0.303398	0.658849	0.610419
	O438	O	0.274864	0.296986	0.529364
	H439	H	0.278674	0.280041	0.524844
	H440	H	0.268546	0.284578	0.536285
	O441	O	0.626061	0.551706	0.615767
	H442	H	0.635052	0.544795	0.618912
	H443	H	0.628049	0.563643	0.606687
	O444	O	0.700201	0.471093	0.282753
	H445	H	0.708367	0.470081	0.277716
	H446	H	0.704098	0.489643	0.270162
	O447	O	1.195155	0.221361	1.203854
	H448	H	1.188492	0.200691	1.185632
	H449	H	1.196681	0.228279	1.219643
	O450	O	1.288549	0.542485	0.282021
	H451	H	1.275886	0.539387	0.270234
	H452	H	1.286560	0.540053	0.282336
	O453	O	-0.027560	0.185382	-0.182170
	H454	H	-0.011575	0.174901	-0.192402
	H455	H	-0.015748	0.188209	-0.185251
	O456	O	0.172062	0.827252	1.186037
	H457	H	0.169964	0.852699	1.156108
	H458	H	0.134480	0.835246	1.179265
	O459	O	0.269542	0.703126	0.481667
	H460	H	0.256345	0.705200	0.460810
	H461	H	0.262650	0.707981	0.466746
	O462	O	0.674075	0.521478	0.596651
	H463	H	0.687033	0.525215	0.605914
	H464	H	0.667940	0.534254	0.583578
	O465	O	0.580096	0.302573	0.289444
	H466	H	0.579767	0.312854	0.278967
	H467	H	0.582690	0.297952	0.265683
	O468	O	0.517366	0.724888	0.708654
	H469	H	0.505088	0.725276	0.710477
	H470	H	0.505906	0.732000	0.715946
	O471	O	1.137377	0.940862	-0.159743
	H472	H	1.131747	0.928713	-0.147018
	H473	H	1.154755	0.920545	-0.165890
	O474	O	1.990676	0.974368	1.171230
	H475	H	2.001177	0.973647	1.170894
	H476	H	1.992827	0.972345	1.152180
	O477	O	0.458139	0.491535	0.531733
	H478	H	0.464415	0.486329	0.548893
	H479	H	0.463970	0.489946	0.523214
