data_Molecule from HDF5

_cell_length_a		16.299453
_cell_length_b		16.188125
_cell_length_c		16.227129
_cell_angle_alpha	90.033583
_cell_angle_beta	90.021187
_cell_angle_gamma	90.104466
_symmetry_space_group_name_H-M	'P 1'
_symmetry_Int_Tables_number		1

loop_
	_symmetry_equiv_pos_as_xyz
	x,y,z

loop_
	_atom_site_label
	_atom_site_type_symbol
	_atom_site_fract_x
	_atom_site_fract_y
	_atom_site_fract_z
	H0	H	0.401771	0.835459	0.714262
	H1	H	0.597198	0.164565	0.713176
	H2	H	0.597103	0.835223	0.286541
	H3	H	0.403571	0.164446	0.287992
	H4	H	0.713994	0.401997	0.835667
	H5	H	0.714298	0.599265	0.164234
	H6	H	0.285534	0.598501	0.835473
	H7	H	0.284945	0.400858	0.163560
	H8	H	0.835875	0.713051	0.403137
	H9	H	0.164343	0.713817	0.596613
	H10	H	0.836079	0.286249	0.595603
	H11	H	0.163873	0.286558	0.402978
	H12	H	0.836421	0.401230	0.713714
	H13	H	0.163748	0.598317	0.714717
	H14	H	0.835141	0.595768	0.286755
	H15	H	0.162528	0.401071	0.284185
	H16	H	0.402957	0.713345	0.834299
	H17	H	0.596820	0.713334	0.164728
	H18	H	0.596869	0.287081	0.835165
	H19	H	0.402656	0.287021	0.165079
	H20	H	0.712477	0.835037	0.402277
	H21	H	0.713963	0.164174	0.598822
	H22	H	0.286752	0.835184	0.598667
	H23	H	0.286865	0.164528	0.402438
	H24	H	0.902476	0.334790	0.210420
	H25	H	0.096482	0.664829	0.212278
	H26	H	0.095495	0.334673	0.787892
	H27	H	0.903247	0.664938	0.787503
	H28	H	0.215214	0.900845	0.336488
	H29	H	0.215071	0.099402	0.664590
	H30	H	0.785895	0.098834	0.336228
	H31	H	0.786118	0.901546	0.664345
	H32	H	0.335493	0.212515	0.903937
	H33	H	0.663735	0.214927	0.097617
	H34	H	0.335490	0.786645	0.097267
	H35	H	0.664025	0.786925	0.902921
	H36	H	0.336171	0.902577	0.213949
	H37	H	0.663455	0.099754	0.215361
	H38	H	0.336793	0.097160	0.785949
	H39	H	0.664006	0.902052	0.785917
	H40	H	0.903670	0.211782	0.335380
	H41	H	0.096936	0.213229	0.664743
	H42	H	0.095391	0.788700	0.335198
	H43	H	0.903057	0.786442	0.664647
	H44	H	0.214154	0.335787	0.900032
	H45	H	0.213132	0.664947	0.097436
	H46	H	0.785092	0.336226	0.097970
	H47	H	0.785839	0.664534	0.901105
	H48	H	0.408819	0.118226	0.597462
	H49	H	0.593997	0.882414	0.591370
	H50	H	0.596711	0.119807	0.403346
	H51	H	0.400753	0.881329	0.411138
	H52	H	0.592214	0.393784	0.121121
	H53	H	0.592545	0.592247	0.883262
	H54	H	0.409530	0.595838	0.116314
	H55	H	0.406679	0.404055	0.881644
	H56	H	0.114980	0.592304	0.408881
	H57	H	0.881902	0.599048	0.592399
	H58	H	0.117308	0.408692	0.595355
	H59	H	0.884297	0.399249	0.416232
	H60	H	0.117045	0.404760	0.594591
	H61	H	0.885297	0.589349	0.590481
	H62	H	0.117260	0.591642	0.401519
	H63	H	0.885706	0.417171	0.403430
	H64	H	0.402602	0.595574	0.118970
	H65	H	0.593816	0.595427	0.881374
	H66	H	0.605673	0.414737	0.118982
	H67	H	0.404294	0.408339	0.881787
	H68	H	0.588848	0.117446	0.407266
	H69	H	0.595240	0.880780	0.593960
	H70	H	0.409731	0.116062	0.590707
	H71	H	0.405945	0.879581	0.400454
	H72	H	0.904839	0.618007	0.089752
	H73	H	0.083413	0.388298	0.083627
	H74	H	0.101287	0.618938	0.909865
	H75	H	0.907810	0.380001	0.897606
	H76	H	0.090936	0.899069	0.620031
	H77	H	0.091839	0.081882	0.387445
	H78	H	0.903819	0.097593	0.619499
	H79	H	0.907211	0.898680	0.380053
	H80	H	0.617393	0.091771	0.902673
	H81	H	0.382714	0.095790	0.093563
	H82	H	0.614223	0.912101	0.090259
	H83	H	0.382453	0.903624	0.906888
	H84	H	0.618400	0.907850	0.099147
	H85	H	0.383264	0.092612	0.094269
	H86	H	0.618136	0.099250	0.905669
	H87	H	0.384492	0.907959	0.908978
	H88	H	0.902368	0.089314	0.617893
	H89	H	0.085808	0.101190	0.382820
	H90	H	0.102725	0.907794	0.620099
	H91	H	0.898452	0.910688	0.381757
	H92	H	0.091836	0.619540	0.900457
	H93	H	0.106200	0.379920	0.086543
	H94	H	0.903049	0.619622	0.095997
	H95	H	0.911800	0.385904	0.913230
	H96	H	0.403506	0.118406	0.592725
	H97	H	0.592049	0.882346	0.593636
	H98	H	0.596386	0.117009	0.411646
	H99	H	0.412142	0.884079	0.409148
	H100	H	0.582069	0.415116	0.111249
	H101	H	0.596063	0.592684	0.881355
	H102	H	0.406011	0.589627	0.115663
	H103	H	0.408407	0.408350	0.884336
	H104	H	0.118063	0.598221	0.404880
	H105	H	0.882284	0.591744	0.599748
	H106	H	0.116258	0.407521	0.592209
	H107	H	0.878057	0.398306	0.395208
	H108	H	0.910444	0.617980	0.094221
	H109	H	0.090392	0.379481	0.104984
	H110	H	0.088874	0.614957	0.912051
	H111	H	0.896424	0.380076	0.909256
	H112	H	0.089942	0.912790	0.614697
	H113	H	0.105654	0.094780	0.378752
	H114	H	0.910241	0.092809	0.616453
	H115	H	0.912774	0.911486	0.386383
	H116	H	0.615475	0.092998	0.910851
	H117	H	0.382959	0.094866	0.096924
	H118	H	0.617124	0.901812	0.091293
	H119	H	0.382945	0.907927	0.903766
	C120	C	0.379129	0.008533	0.621835
	C121	C	0.621614	0.990929	0.621459
	C122	C	0.621523	0.008741	0.378914
	C123	C	0.378622	0.990999	0.378887
	C124	C	0.621196	0.379634	0.008226
	C125	C	0.621801	0.621718	0.991408
	C126	C	0.378477	0.621390	0.007764
	C127	C	0.378621	0.378795	0.991425
	C128	C	0.008035	0.621308	0.377981
	C129	C	0.991761	0.621666	0.621980
	C130	C	0.008724	0.378143	0.621691
	C131	C	0.991066	0.377236	0.377497
	C132	C	0.878096	0.509099	0.120879
	C133	C	0.121422	0.491236	0.120643
	C134	C	0.121603	0.508688	0.878677
	C135	C	0.877695	0.491006	0.878332
	C136	C	0.122176	0.878515	0.509085
	C137	C	0.122501	0.121450	0.491819
	C138	C	0.878340	0.121004	0.508786
	C139	C	0.878024	0.878180	0.491208
	C140	C	0.508399	0.121868	0.878770
	C141	C	0.491323	0.122796	0.122617
	C142	C	0.508140	0.878861	0.121757
	C143	C	0.491718	0.878146	0.878330
	C144	C	0.381168	0.884434	0.676552
	C145	C	0.618290	0.115448	0.675960
	C146	C	0.618048	0.884394	0.324201
	C147	C	0.382282	0.115284	0.325034
	C148	C	0.675786	0.382121	0.884346
	C149	C	0.676663	0.619649	0.115151
	C150	C	0.323584	0.618893	0.884023
	C151	C	0.323604	0.381052	0.115047
	C152	C	0.884582	0.675708	0.381509
	C153	C	0.115375	0.676109	0.617996
	C154	C	0.885027	0.323474	0.617543
	C155	C	0.114719	0.323661	0.381328
	C156	C	0.885172	0.380607	0.676062
	C157	C	0.115008	0.619139	0.676892
	C158	C	0.884446	0.617553	0.324021
	C159	C	0.114325	0.380535	0.322602
	C160	C	0.382183	0.675387	0.883696
	C161	C	0.618184	0.676110	0.115401
	C162	C	0.617845	0.324965	0.884221
	C163	C	0.382000	0.324734	0.115835
	C164	C	0.675512	0.884324	0.381434
	C165	C	0.676172	0.115174	0.619116
	C166	C	0.324354	0.884334	0.618923
	C167	C	0.324466	0.115203	0.381981
	C168	C	0.881130	0.384552	0.174499
	C169	C	0.117809	0.615682	0.174924
	C170	C	0.117453	0.384281	0.824324
	C171	C	0.881980	0.615598	0.824952
	C172	C	0.176798	0.881079	0.385265
	C173	C	0.176779	0.119254	0.615596
	C174	C	0.823752	0.118738	0.385109
	C175	C	0.823810	0.880986	0.615357
	C176	C	0.384710	0.175452	0.882415
	C177	C	0.614811	0.177455	0.119300
	C178	C	0.384667	0.824243	0.118365
	C179	C	0.614961	0.823962	0.881492
	C180	C	0.384790	0.881960	0.176153
	C181	C	0.614719	0.120014	0.177353
	C182	C	0.385199	0.118163	0.824043
	C183	C	0.615026	0.881267	0.823543
	C184	C	0.882649	0.174625	0.384651
	C185	C	0.118267	0.175848	0.615783
	C186	C	0.117734	0.825083	0.384694
	C187	C	0.881898	0.823981	0.615535
	C188	C	0.176367	0.384685	0.880191
	C189	C	0.175735	0.615614	0.118075
	C190	C	0.823206	0.385103	0.118208
	C191	C	0.823887	0.615577	0.881403
	C192	C	0.400945	0.095084	0.600079
	C193	C	0.600007	0.904133	0.599749
	C194	C	0.600189	0.095559	0.400766
	C195	C	0.400165	0.903870	0.400502
	C196	C	0.599695	0.401487	0.094644
	C197	C	0.600505	0.599858	0.904523
	C198	C	0.399759	0.599819	0.094589
	C199	C	0.400098	0.400478	0.905019
	C200	C	0.094359	0.600398	0.398944
	C201	C	0.905544	0.599843	0.600482
	C202	C	0.094575	0.400340	0.600386
	C203	C	0.904914	0.398428	0.398709
	C204	C	0.899808	0.596175	0.099615
	C205	C	0.099846	0.404783	0.098239
	C206	C	0.100383	0.595474	0.900978
	C207	C	0.899092	0.404278	0.900269
	C208	C	0.100897	0.900092	0.595760
	C209	C	0.100955	0.099191	0.405305
	C210	C	0.899347	0.099538	0.595638
	C211	C	0.899716	0.900227	0.404877
	C212	C	0.594775	0.100794	0.900101
	C213	C	0.405225	0.100925	0.101279
	C214	C	0.594375	0.900806	0.100010
	C215	C	0.405384	0.900128	0.900066
	Zn216	Zn	0.500418	-0.000114	0.749853
	Zn217	Zn	0.500034	0.000138	0.250772
	Zn218	Zn	0.750439	0.500353	-0.000127
	Zn219	Zn	0.250036	0.499987	-0.000242
	Zn220	Zn	-0.000011	0.750447	0.499877
	Zn221	Zn	0.000093	0.248989	0.499861
	Zn222	Zn	-0.000001	0.499884	0.751076
	Zn223	Zn	-0.000472	0.499557	0.248498
	Zn224	Zn	0.499911	0.749737	-0.000593
	Zn225	Zn	0.499841	0.250790	0.000299
	Zn226	Zn	0.749643	-0.000468	0.499910
	Zn227	Zn	0.251059	-0.000353	0.500616
	N228	N	0.414635	0.962507	0.678460
	N229	N	0.584986	0.037235	0.677450
	N230	N	0.585243	0.962656	0.322601
	N231	N	0.415118	0.037051	0.323245
	N232	N	0.677954	0.415312	0.962448
	N233	N	0.679003	0.586473	0.036880
	N234	N	0.321124	0.586125	0.962276
	N235	N	0.321152	0.414032	0.036828
	N236	N	0.962430	0.678159	0.414475
	N237	N	0.037687	0.677849	0.584527
	N238	N	0.962769	0.321873	0.584420
	N239	N	0.037236	0.321697	0.414742
	N240	N	0.962820	0.414140	0.678644
	N241	N	0.037202	0.586054	0.679369
	N242	N	0.962119	0.584562	0.321606
	N243	N	0.036283	0.413163	0.319933
	N244	N	0.415474	0.677107	0.961710
	N245	N	0.584786	0.677479	0.037396
	N246	N	0.584579	0.323235	0.962195
	N247	N	0.415346	0.323155	0.037903
	N248	N	0.677549	0.962570	0.414827
	N249	N	0.678228	0.036867	0.585926
	N250	N	0.322887	0.962475	0.585636
	N251	N	0.322237	0.036812	0.414937
	N252	N	0.914727	0.462671	0.176122
	N253	N	0.084888	0.537435	0.176670
	N254	N	0.084367	0.462495	0.823287
	N255	N	0.914716	0.537328	0.822993
	N256	N	0.179593	0.913694	0.463664
	N257	N	0.179510	0.086107	0.537502
	N258	N	0.821004	0.085836	0.463300
	N259	N	0.821377	0.914161	0.537237
	N260	N	0.462281	0.177609	0.915818
	N261	N	0.537300	0.179187	0.085973
	N262	N	0.462439	0.822251	0.085213
	N263	N	0.537415	0.822228	0.914777
	N264	N	0.462504	0.915304	0.178189
	N265	N	0.536964	0.086477	0.179282
	N266	N	0.463186	0.085721	0.821597
	N267	N	0.537256	0.914499	0.821610
	N268	N	0.915723	0.176185	0.462630
	N269	N	0.085181	0.177169	0.537639
	N270	N	0.084370	0.823506	0.462621
	N271	N	0.914841	0.822112	0.537478
	N272	N	0.178823	0.462991	0.913480
	N273	N	0.178264	0.537240	0.085174
	N274	N	0.821243	0.463587	0.085592
	N275	N	0.821233	0.537045	0.914057
