data_Molecule from HDF5

_cell_length_a		16.259097
_cell_length_b		16.253205
_cell_length_c		16.152389
_cell_angle_alpha	89.884941
_cell_angle_beta	89.918984
_cell_angle_gamma	89.775183
_symmetry_space_group_name_H-M	'P 1'
_symmetry_Int_Tables_number		1

loop_
	_symmetry_equiv_pos_as_xyz
	x,y,z

loop_
	_atom_site_label
	_atom_site_type_symbol
	_atom_site_fract_x
	_atom_site_fract_y
	_atom_site_fract_z
	H0	H	0.406798	0.842309	0.719313
	H1	H	0.599153	0.170791	0.717156
	H2	H	0.601550	0.841972	0.292310
	H3	H	0.404765	0.170333	0.290157
	H4	H	0.718182	0.407638	0.839119
	H5	H	0.717594	0.604381	0.169353
	H6	H	0.290217	0.604876	0.839127
	H7	H	0.290478	0.407619	0.169151
	H8	H	0.839063	0.720355	0.405678
	H9	H	0.166575	0.720603	0.604420
	H10	H	0.839088	0.292572	0.603974
	H11	H	0.166436	0.290517	0.405197
	H12	H	0.838199	0.408610	0.718092
	H13	H	0.168153	0.600803	0.716712
	H14	H	0.839065	0.604252	0.290842
	H15	H	0.167289	0.406940	0.290974
	H16	H	0.406354	0.719663	0.838918
	H17	H	0.601890	0.719155	0.169621
	H18	H	0.603122	0.291270	0.839856
	H19	H	0.405223	0.292053	0.169045
	H20	H	0.718487	0.842786	0.406513
	H21	H	0.716882	0.170108	0.604370
	H22	H	0.289713	0.841859	0.605105
	H23	H	0.288750	0.170669	0.406630
	H24	H	0.906675	0.341460	0.218556
	H25	H	0.099800	0.669981	0.217850
	H26	H	0.102092	0.341002	0.792231
	H27	H	0.906668	0.670089	0.791644
	H28	H	0.218892	0.906509	0.340185
	H29	H	0.214797	0.103003	0.670313
	H30	H	0.788943	0.105234	0.340565
	H31	H	0.791112	0.908811	0.670177
	H32	H	0.340519	0.222304	0.905368
	H33	H	0.667558	0.220002	0.104113
	H34	H	0.340965	0.792111	0.104287
	H35	H	0.667497	0.790811	0.904540
	H36	H	0.339660	0.909814	0.217698
	H37	H	0.667601	0.103020	0.218176
	H38	H	0.339660	0.104979	0.792017
	H39	H	0.667691	0.908981	0.791483
	H40	H	0.904507	0.220122	0.340158
	H41	H	0.100419	0.218813	0.669938
	H42	H	0.101255	0.792897	0.339209
	H43	H	0.905353	0.793327	0.669639
	H44	H	0.220437	0.342642	0.904912
	H45	H	0.216947	0.669894	0.103593
	H46	H	0.789470	0.342230	0.103715
	H47	H	0.789567	0.670051	0.905435
	H48	H	0.412869	0.120238	0.592970
	H49	H	0.600336	0.887941	0.598621
	H50	H	0.589126	0.122685	0.409327
	H51	H	0.400776	0.886337	0.410348
	H52	H	0.601404	0.414478	0.122635
	H53	H	0.600718	0.593054	0.886949
	H54	H	0.409886	0.598587	0.122057
	H55	H	0.411997	0.420461	0.888280
	H56	H	0.117844	0.594065	0.415132
	H57	H	0.883623	0.599626	0.606265
	H58	H	0.119743	0.409571	0.595319
	H59	H	0.886398	0.412418	0.413297
	H60	H	0.119820	0.414474	0.597859
	H61	H	0.883930	0.607478	0.595431
	H62	H	0.122810	0.598893	0.404795
	H63	H	0.886280	0.414752	0.411667
	H64	H	0.409990	0.600533	0.122903
	H65	H	0.589530	0.598912	0.889539
	H66	H	0.593774	0.416078	0.120114
	H67	H	0.416980	0.411063	0.887271
	H68	H	0.597776	0.121654	0.419526
	H69	H	0.595886	0.889044	0.600288
	H70	H	0.400770	0.125334	0.596667
	H71	H	0.416343	0.888632	0.404648
	H72	H	0.899305	0.622739	0.085090
	H73	H	0.091998	0.395460	0.082268
	H74	H	0.094007	0.619544	0.917484
	H75	H	0.908887	0.387424	0.911332
	H76	H	0.102223	0.920842	0.622070
	H77	H	0.092793	0.102981	0.386340
	H78	H	0.904805	0.096385	0.623806
	H79	H	0.913245	0.924381	0.391046
	H80	H	0.617944	0.098834	0.920784
	H81	H	0.385600	0.103674	0.097494
	H82	H	0.619071	0.912726	0.090893
	H83	H	0.388911	0.914674	0.918499
	H84	H	0.621897	0.916557	0.104224
	H85	H	0.387861	0.098641	0.094882
	H86	H	0.621276	0.092049	0.906102
	H87	H	0.386400	0.917999	0.908621
	H88	H	0.913441	0.097856	0.621557
	H89	H	0.100902	0.098711	0.385655
	H90	H	0.086521	0.912269	0.619609
	H91	H	0.918097	0.904631	0.386426
	H92	H	0.105302	0.624874	0.910098
	H93	H	0.114319	0.383263	0.098770
	H94	H	0.903415	0.629585	0.111162
	H95	H	0.911825	0.389106	0.910705
	H96	H	0.410842	0.124626	0.604736
	H97	H	0.596252	0.889415	0.596146
	H98	H	0.601690	0.126485	0.407087
	H99	H	0.412866	0.892619	0.420648
	H100	H	0.595105	0.409022	0.122516
	H101	H	0.598880	0.605729	0.883486
	H102	H	0.407976	0.599124	0.122329
	H103	H	0.406722	0.411620	0.884405
	H104	H	0.121046	0.606095	0.414842
	H105	H	0.888855	0.594765	0.594462
	H106	H	0.120651	0.409925	0.599994
	H107	H	0.885404	0.412095	0.410495
	H108	H	0.924074	0.618386	0.096969
	H109	H	0.085953	0.387472	0.111087
	H110	H	0.092397	0.624324	0.903503
	H111	H	0.910366	0.388635	0.913893
	H112	H	0.100964	0.903848	0.626219
	H113	H	0.093692	0.094134	0.388830
	H114	H	0.908373	0.104248	0.625023
	H115	H	0.898153	0.911535	0.382635
	H116	H	0.625084	0.108271	0.908309
	H117	H	0.386363	0.098861	0.100636
	H118	H	0.624405	0.903668	0.100292
	H119	H	0.384566	0.907315	0.911277
	C120	C	0.380629	0.014869	0.627334
	C121	C	0.624694	0.997561	0.626638
	C122	C	0.624938	0.015218	0.383566
	C123	C	0.381593	0.998061	0.383628
	C124	C	0.625423	0.384724	0.012802
	C125	C	0.624659	0.627202	0.995882
	C126	C	0.381539	0.628202	0.012976
	C127	C	0.382939	0.385459	0.995699
	C128	C	0.011701	0.627518	0.383016
	C129	C	0.994187	0.627892	0.626222
	C130	C	0.011395	0.383718	0.626741
	C131	C	0.994544	0.384354	0.383192
	C132	C	0.881605	0.514533	0.126292
	C133	C	0.125254	0.497199	0.126061
	C134	C	0.125905	0.514225	0.882299
	C135	C	0.882045	0.497200	0.883101
	C136	C	0.125075	0.884123	0.513318
	C137	C	0.123973	0.127027	0.496179
	C138	C	0.880875	0.128267	0.514114
	C139	C	0.882293	0.885619	0.496105
	C140	C	0.512707	0.128227	0.883486
	C141	C	0.494998	0.128292	0.126334
	C142	C	0.513248	0.883770	0.126829
	C143	C	0.495048	0.884855	0.883798
	C144	C	0.385028	0.891400	0.682067
	C145	C	0.620693	0.121401	0.680759
	C146	C	0.622341	0.891316	0.329289
	C147	C	0.384461	0.121390	0.328320
	C148	C	0.680577	0.386869	0.888538
	C149	C	0.679599	0.624380	0.120243
	C150	C	0.327347	0.625856	0.888586
	C151	C	0.328109	0.387682	0.119977
	C152	C	0.888109	0.682293	0.385610
	C153	C	0.117887	0.682225	0.623932
	C154	C	0.888075	0.329837	0.624385
	C155	C	0.117743	0.328559	0.385147
	C156	C	0.887543	0.387792	0.681048
	C157	C	0.118745	0.622654	0.679639
	C158	C	0.888105	0.624507	0.328561
	C159	C	0.118052	0.386497	0.328187
	C160	C	0.385371	0.682643	0.888464
	C161	C	0.622263	0.681554	0.120329
	C162	C	0.623355	0.329232	0.888858
	C163	C	0.385393	0.330312	0.119902
	C164	C	0.680353	0.891623	0.386067
	C165	C	0.678919	0.121185	0.624152
	C166	C	0.326820	0.891298	0.625208
	C167	C	0.326221	0.121498	0.385775
	C168	C	0.885473	0.390649	0.180854
	C169	C	0.121242	0.621009	0.180460
	C170	C	0.122990	0.390336	0.828939
	C171	C	0.885694	0.621119	0.828919
	C172	C	0.180200	0.886792	0.389074
	C173	C	0.177930	0.124057	0.620671
	C174	C	0.826433	0.125642	0.389781
	C175	C	0.827902	0.888083	0.620611
	C176	C	0.389275	0.184063	0.885179
	C177	C	0.618631	0.182293	0.123825
	C178	C	0.389659	0.829832	0.124566
	C179	C	0.618588	0.829160	0.884914
	C180	C	0.389061	0.888156	0.180853
	C181	C	0.618827	0.123999	0.180338
	C182	C	0.388953	0.125779	0.828913
	C183	C	0.618778	0.887912	0.828910
	C184	C	0.884200	0.182465	0.389465
	C185	C	0.120912	0.181439	0.620534
	C186	C	0.121909	0.830214	0.388680
	C187	C	0.884624	0.830554	0.620261
	C188	C	0.181564	0.391021	0.885194
	C189	C	0.179174	0.621050	0.123510
	C190	C	0.827034	0.391186	0.124148
	C191	C	0.827174	0.620907	0.885118
	C192	C	0.401903	0.101274	0.604798
	C193	C	0.603620	0.911308	0.604814
	C194	C	0.602671	0.101175	0.405404
	C195	C	0.403540	0.911446	0.405510
	C196	C	0.603210	0.406649	0.099403
	C197	C	0.602755	0.605597	0.909039
	C198	C	0.403011	0.606035	0.100060
	C199	C	0.405247	0.407783	0.909035
	C200	C	0.098112	0.605902	0.404914
	C201	C	0.907814	0.606890	0.605064
	C202	C	0.097746	0.404927	0.604320
	C203	C	0.908166	0.406610	0.405393
	C204	C	0.902872	0.601192	0.104427
	C205	C	0.103838	0.411204	0.104036
	C206	C	0.103904	0.600508	0.903868
	C207	C	0.903974	0.410678	0.905157
	C208	C	0.103175	0.905792	0.600162
	C209	C	0.102256	0.105041	0.409393
	C210	C	0.902655	0.106161	0.601131
	C211	C	0.903628	0.907247	0.408969
	C212	C	0.599041	0.106225	0.905217
	C213	C	0.408720	0.106728	0.104275
	C214	C	0.599509	0.904893	0.105046
	C215	C	0.408976	0.906853	0.906231
	Zn216	Zn	0.503196	0.006516	0.755401
	Zn217	Zn	0.504024	0.006324	0.254435
	Zn218	Zn	0.753225	0.506347	0.004368
	Zn219	Zn	0.253971	0.506359	0.004334
	Zn220	Zn	0.002966	0.756676	0.504462
	Zn221	Zn	0.002891	0.255566	0.505129
	Zn222	Zn	0.003340	0.505364	0.754632
	Zn223	Zn	0.003330	0.506195	0.254586
	Zn224	Zn	0.503946	0.756114	0.004763
	Zn225	Zn	0.504042	0.256410	0.004495
	Zn226	Zn	0.753667	0.006371	0.505532
	Zn227	Zn	0.252460	0.006305	0.505246
	N228	N	0.417782	0.969218	0.683558
	N229	N	0.587571	0.043652	0.682260
	N230	N	0.588477	0.968945	0.327530
	N231	N	0.417878	0.043517	0.326711
	N232	N	0.681970	0.420643	0.966607
	N233	N	0.681244	0.591410	0.041838
	N234	N	0.324792	0.592816	0.967021
	N235	N	0.326610	0.421384	0.041776
	N236	N	0.966105	0.684578	0.418612
	N237	N	0.039554	0.685725	0.591862
	N238	N	0.965912	0.327390	0.591278
	N239	N	0.039902	0.327158	0.418620
	N240	N	0.965534	0.420614	0.682741
	N241	N	0.040975	0.589563	0.681505
	N242	N	0.965951	0.591157	0.326981
	N243	N	0.040347	0.420539	0.326793
	N244	N	0.418201	0.684401	0.966983
	N245	N	0.588476	0.683147	0.042215
	N246	N	0.589671	0.327931	0.966959
	N247	N	0.418637	0.328790	0.041640
	N248	N	0.682139	0.969522	0.419242
	N249	N	0.681696	0.043192	0.591289
	N250	N	0.324276	0.969163	0.591665
	N251	N	0.324525	0.043657	0.419504
	N252	N	0.918666	0.468576	0.182257
	N253	N	0.088374	0.543334	0.182020
	N254	N	0.088928	0.467893	0.826984
	N255	N	0.919200	0.543282	0.827731
	N256	N	0.182204	0.919654	0.467567
	N257	N	0.179849	0.090924	0.542367
	N258	N	0.824391	0.092675	0.468210
	N259	N	0.826468	0.921801	0.542410
	N260	N	0.467123	0.185578	0.918389
	N261	N	0.540603	0.184758	0.090753
	N262	N	0.467609	0.826913	0.091699
	N263	N	0.540659	0.827021	0.918313
	N264	N	0.467056	0.920734	0.182659
	N265	N	0.541036	0.091150	0.181991
	N266	N	0.466517	0.091514	0.827899
	N267	N	0.541086	0.921763	0.828054
	N268	N	0.917302	0.184382	0.467908
	N269	N	0.087914	0.183309	0.542078
	N270	N	0.088322	0.828463	0.466942
	N271	N	0.917487	0.828741	0.541765
	N272	N	0.183411	0.469153	0.917673
	N273	N	0.181943	0.543066	0.090259
	N274	N	0.824663	0.469152	0.090875
	N275	N	0.825065	0.542820	0.918224
	O276	O	0.499457	0.529994	0.436435
	H277	H	0.509603	0.534365	0.440188
	H278	H	0.497806	0.524879	0.441960
	O279	O	0.054738	-0.052887	-0.040417
	H280	H	0.053892	-0.052828	-0.042811
	H281	H	0.045218	-0.056167	-0.047257
	O282	O	0.479819	0.539085	0.492692
	H283	H	0.482569	0.538566	0.498268
	H284	H	0.483217	0.536995	0.493797
	O285	O	0.506300	0.482183	0.481337
	H286	H	0.512962	0.483056	0.477122
	H287	H	0.504882	0.484900	0.471348
	O288	O	1.076287	-0.024818	-0.005185
	H289	H	1.081647	-0.022874	-0.009803
	H290	H	1.080620	-0.026397	-0.000141
	O291	O	-0.477461	0.495963	-0.501829
	H292	H	-0.482984	0.503585	-0.507133
	H293	H	-0.474926	0.494717	-0.504642
	O294	O	0.527862	0.502782	0.434117
	H295	H	0.524402	0.504629	0.442022
	H296	H	0.529887	0.504506	0.430053
	O297	O	0.057437	0.967640	0.002573
	H298	H	0.063718	0.972495	-0.003058
	H299	H	0.062079	0.963374	0.004514
	O300	O	1.084074	-0.018890	0.971737
	H301	H	1.082546	-0.025107	0.968833
	H302	H	1.088990	-0.021618	0.978843
	O303	O	0.478177	0.509769	0.515468
	H304	H	0.473182	0.501289	0.517049
	H305	H	0.473298	0.512574	0.503387
	O306	O	0.059424	0.962243	0.960921
	H307	H	0.052485	0.968178	0.964025
	H308	H	0.065213	0.964637	0.961177
	O309	O	0.495553	0.546385	0.484519
	H310	H	0.487227	0.547068	0.483794
	H311	H	0.495549	0.548993	0.483726
