data_Molecule from HDF5

_cell_length_a		16.248768
_cell_length_b		16.168445
_cell_length_c		16.294838
_cell_angle_alpha	89.987220
_cell_angle_beta	89.908181
_cell_angle_gamma	90.033449
_symmetry_space_group_name_H-M	'P 1'
_symmetry_Int_Tables_number		1

loop_
	_symmetry_equiv_pos_as_xyz
	x,y,z

loop_
	_atom_site_label
	_atom_site_type_symbol
	_atom_site_fract_x
	_atom_site_fract_y
	_atom_site_fract_z
	H0	H	0.400626	0.835867	0.714963
	H1	H	0.597094	0.165065	0.712678
	H2	H	0.597800	0.835364	0.286755
	H3	H	0.401450	0.164698	0.285842
	H4	H	0.713842	0.402246	0.835616
	H5	H	0.713643	0.597088	0.164216
	H6	H	0.287289	0.598048	0.835815
	H7	H	0.286329	0.402021	0.163509
	H8	H	0.835102	0.713127	0.403633
	H9	H	0.164192	0.713623	0.596204
	H10	H	0.834548	0.288110	0.596926
	H11	H	0.164418	0.287520	0.403976
	H12	H	0.836410	0.402165	0.714092
	H13	H	0.164453	0.598635	0.713053
	H14	H	0.836106	0.599103	0.285788
	H15	H	0.164030	0.401307	0.285544
	H16	H	0.404680	0.712343	0.835100
	H17	H	0.596509	0.712822	0.164387
	H18	H	0.595884	0.287713	0.835144
	H19	H	0.403045	0.286374	0.163426
	H20	H	0.712561	0.834618	0.403148
	H21	H	0.712408	0.165066	0.596725
	H22	H	0.285930	0.834714	0.598709
	H23	H	0.286808	0.165572	0.402206
	H24	H	0.902360	0.335017	0.212983
	H25	H	0.098772	0.665158	0.214021
	H26	H	0.097960	0.335009	0.786287
	H27	H	0.903534	0.664725	0.787265
	H28	H	0.214259	0.902263	0.336787
	H29	H	0.214134	0.098566	0.664420
	H30	H	0.786170	0.098068	0.336465
	H31	H	0.785275	0.901425	0.663487
	H32	H	0.335258	0.212573	0.903502
	H33	H	0.664604	0.213066	0.095970
	H34	H	0.335110	0.788546	0.094122
	H35	H	0.665209	0.788307	0.904865
	H36	H	0.335847	0.901480	0.214224
	H37	H	0.663788	0.098523	0.213564
	H38	H	0.335704	0.097113	0.787271
	H39	H	0.664235	0.901139	0.785609
	H40	H	0.903501	0.213235	0.336321
	H41	H	0.096032	0.213005	0.664673
	H42	H	0.096127	0.788472	0.335196
	H43	H	0.902768	0.787063	0.664426
	H44	H	0.211974	0.334218	0.903525
	H45	H	0.212187	0.665294	0.096004
	H46	H	0.787005	0.334831	0.097690
	H47	H	0.788138	0.665506	0.903171
	H48	H	0.406401	0.118447	0.596242
	H49	H	0.587729	0.884577	0.589082
	H50	H	0.595000	0.118129	0.408030
	H51	H	0.402150	0.883347	0.415184
	H52	H	0.595633	0.405060	0.117896
	H53	H	0.605563	0.589780	0.881198
	H54	H	0.406324	0.592582	0.116053
	H55	H	0.402256	0.404029	0.880448
	H56	H	0.115051	0.588789	0.407895
	H57	H	0.884719	0.589345	0.590750
	H58	H	0.119774	0.404353	0.597715
	H59	H	0.881325	0.407680	0.400579
	H60	H	0.117313	0.404132	0.589715
	H61	H	0.881613	0.591138	0.600472
	H62	H	0.118483	0.593669	0.400100
	H63	H	0.881313	0.402594	0.407834
	H64	H	0.406749	0.594781	0.116573
	H65	H	0.587199	0.587097	0.887198
	H66	H	0.594199	0.407849	0.116006
	H67	H	0.405872	0.409323	0.883921
	H68	H	0.594572	0.118613	0.404341
	H69	H	0.600399	0.880589	0.590771
	H70	H	0.407516	0.117004	0.593329
	H71	H	0.402830	0.879314	0.399685
	H72	H	0.911070	0.617127	0.092851
	H73	H	0.093316	0.381124	0.097043
	H74	H	0.094949	0.615550	0.914784
	H75	H	0.899434	0.375674	0.891031
	H76	H	0.096306	0.902701	0.619707
	H77	H	0.094108	0.099719	0.381479
	H78	H	0.904495	0.095269	0.617998
	H79	H	0.901599	0.901196	0.380058
	H80	H	0.614869	0.091072	0.911392
	H81	H	0.379375	0.103625	0.094662
	H82	H	0.616539	0.912303	0.096689
	H83	H	0.384631	0.914592	0.904327
	H84	H	0.619769	0.901326	0.099078
	H85	H	0.387211	0.089504	0.083127
	H86	H	0.618690	0.089772	0.899542
	H87	H	0.379665	0.901366	0.900053
	H88	H	0.904191	0.092768	0.617525
	H89	H	0.099635	0.090512	0.383112
	H90	H	0.095311	0.910458	0.616380
	H91	H	0.903197	0.912747	0.383997
	H92	H	0.102483	0.621843	0.900970
	H93	H	0.090261	0.383847	0.092140
	H94	H	0.903907	0.617695	0.089662
	H95	H	0.922954	0.386375	0.907321
	H96	H	0.404544	0.118857	0.593640
	H97	H	0.591086	0.880425	0.601014
	H98	H	0.590873	0.117520	0.406716
	H99	H	0.415695	0.884995	0.407315
	H100	H	0.593074	0.405024	0.116286
	H101	H	0.593052	0.604754	0.880102
	H102	H	0.404576	0.594079	0.117590
	H103	H	0.408933	0.403495	0.881950
	H104	H	0.117051	0.598584	0.408401
	H105	H	0.881092	0.598266	0.593533
	H106	H	0.115625	0.410797	0.594664
	H107	H	0.884217	0.410746	0.408663
	H108	H	0.905128	0.619137	0.097181
	H109	H	0.096434	0.381637	0.091498
	H110	H	0.086233	0.617345	0.900863
	H111	H	0.895838	0.382720	0.919943
	H112	H	0.088809	0.905590	0.616268
	H113	H	0.089403	0.091050	0.385671
	H114	H	0.906213	0.093831	0.617297
	H115	H	0.911483	0.904915	0.384335
	H116	H	0.619863	0.100366	0.905485
	H117	H	0.382362	0.085412	0.101903
	H118	H	0.616843	0.904605	0.088250
	H119	H	0.384494	0.903413	0.914292
	C120	C	0.378071	0.008900	0.622152
	C121	C	0.621145	0.990993	0.621548
	C122	C	0.621387	0.008607	0.378525
	C123	C	0.378610	0.991913	0.378842
	C124	C	0.621795	0.378133	0.008009
	C125	C	0.622178	0.621532	0.991850
	C126	C	0.378331	0.621867	0.008230
	C127	C	0.378399	0.377973	0.990986
	C128	C	0.008398	0.621821	0.377781
	C129	C	0.991595	0.621193	0.621860
	C130	C	0.008538	0.378358	0.621833
	C131	C	0.991454	0.378661	0.378249
	C132	C	0.878761	0.508707	0.121363
	C133	C	0.121297	0.491516	0.121362
	C134	C	0.122319	0.508778	0.877677
	C135	C	0.878583	0.491046	0.878470
	C136	C	0.121664	0.878302	0.508604
	C137	C	0.121817	0.121831	0.492247
	C138	C	0.877790	0.121775	0.509051
	C139	C	0.877483	0.878231	0.491527
	C140	C	0.508788	0.121544	0.878176
	C141	C	0.491300	0.121215	0.121341
	C142	C	0.508929	0.878185	0.122073
	C143	C	0.491756	0.878586	0.878552
	C144	C	0.380621	0.884601	0.677048
	C145	C	0.617992	0.115780	0.675544
	C146	C	0.618485	0.884463	0.324123
	C147	C	0.381449	0.115948	0.324009
	C148	C	0.676055	0.381220	0.884583
	C149	C	0.676315	0.618222	0.115262
	C150	C	0.324838	0.618691	0.884484
	C151	C	0.324226	0.381534	0.114591
	C152	C	0.884391	0.675815	0.382127
	C153	C	0.115212	0.675859	0.617368
	C154	C	0.884231	0.325022	0.617907
	C155	C	0.115121	0.324395	0.382217
	C156	C	0.884977	0.381428	0.676191
	C157	C	0.115317	0.618877	0.675596
	C158	C	0.884800	0.619395	0.323476
	C159	C	0.115169	0.381610	0.323821
	C160	C	0.383014	0.675554	0.884375
	C161	C	0.617845	0.675292	0.115485
	C162	C	0.617559	0.324498	0.884090
	C163	C	0.382229	0.324255	0.114617
	C164	C	0.675292	0.884164	0.382264
	C165	C	0.675157	0.115678	0.617902
	C166	C	0.323726	0.884140	0.619160
	C167	C	0.324743	0.116335	0.382163
	C168	C	0.881818	0.384169	0.175613
	C169	C	0.118603	0.615945	0.175850
	C170	C	0.118401	0.384086	0.824326
	C171	C	0.882432	0.615637	0.824523
	C172	C	0.175947	0.881793	0.385246
	C173	C	0.176141	0.118988	0.615636
	C174	C	0.823994	0.118564	0.385286
	C175	C	0.822969	0.880995	0.614731
	C176	C	0.384580	0.175067	0.882728
	C177	C	0.615464	0.175565	0.117537
	C178	C	0.384412	0.824843	0.116816
	C179	C	0.615806	0.824708	0.882572
	C180	C	0.384781	0.880714	0.176326
	C181	C	0.614931	0.119067	0.175938
	C182	C	0.384866	0.118282	0.824401
	C183	C	0.615388	0.880902	0.823739
	C184	C	0.882142	0.175714	0.385055
	C185	C	0.117737	0.175897	0.615664
	C186	C	0.117234	0.825251	0.384678
	C187	C	0.881384	0.824495	0.615373
	C188	C	0.175119	0.383759	0.882463
	C189	C	0.175181	0.616089	0.117497
	C190	C	0.824834	0.383927	0.118041
	C191	C	0.825025	0.615868	0.882140
	C192	C	0.399728	0.095674	0.600858
	C193	C	0.599426	0.904371	0.600096
	C194	C	0.599769	0.095521	0.399976
	C195	C	0.400442	0.904961	0.400847
	C196	C	0.600564	0.399574	0.094271
	C197	C	0.601399	0.600238	0.905193
	C198	C	0.399443	0.600198	0.094300
	C199	C	0.399319	0.399237	0.904531
	C200	C	0.094697	0.600179	0.399041
	C201	C	0.904953	0.599299	0.601044
	C202	C	0.095210	0.400045	0.600499
	C203	C	0.904563	0.400596	0.399427
	C204	C	0.900342	0.595594	0.099675
	C205	C	0.099708	0.404762	0.099986
	C206	C	0.100890	0.595811	0.899069
	C207	C	0.899863	0.404043	0.899724
	C208	C	0.100084	0.899836	0.595058
	C209	C	0.100832	0.100093	0.406050
	C210	C	0.898705	0.100277	0.595418
	C211	C	0.899130	0.899711	0.405181
	C212	C	0.595462	0.099937	0.899175
	C213	C	0.405184	0.099183	0.099739
	C214	C	0.595522	0.899712	0.101200
	C215	C	0.405200	0.900181	0.899818
	Zn216	Zn	0.500096	-0.000453	0.749887
	Zn217	Zn	0.499806	0.000035	0.250038
	Zn218	Zn	0.750981	0.499381	0.000078
	Zn219	Zn	0.249935	0.500199	-0.000580
	Zn220	Zn	-0.000554	0.749842	0.500165
	Zn221	Zn	-0.000356	0.250441	0.500578
	Zn222	Zn	0.000262	0.499675	0.750394
	Zn223	Zn	-0.000295	0.500343	0.249326
	Zn224	Zn	0.500380	0.750272	0.000081
	Zn225	Zn	0.500197	0.249611	-0.000186
	Zn226	Zn	0.749185	0.000065	0.499844
	Zn227	Zn	0.250717	0.000177	0.500301
	N228	N	0.413885	0.962919	0.678805
	N229	N	0.585014	0.037367	0.677863
	N230	N	0.585674	0.962922	0.321644
	N231	N	0.414295	0.037519	0.322023
	N232	N	0.678729	0.413890	0.962455
	N233	N	0.678988	0.585442	0.037337
	N234	N	0.321792	0.585994	0.962382
	N235	N	0.321754	0.414265	0.036606
	N236	N	0.962087	0.677278	0.415358
	N237	N	0.037344	0.677126	0.584545
	N238	N	0.962224	0.323282	0.584556
	N239	N	0.037234	0.322940	0.415597
	N240	N	0.963082	0.413965	0.678702
	N241	N	0.037363	0.585583	0.678519
	N242	N	0.962851	0.586551	0.320680
	N243	N	0.037025	0.414403	0.321274
	N244	N	0.415595	0.677587	0.962256
	N245	N	0.585003	0.677415	0.037662
	N246	N	0.584632	0.322301	0.961939
	N247	N	0.415086	0.322006	0.036847
	N248	N	0.677068	0.962435	0.415392
	N249	N	0.677142	0.037332	0.584995
	N250	N	0.322012	0.962259	0.585721
	N251	N	0.323094	0.038219	0.415644
	N252	N	0.914593	0.462695	0.177853
	N253	N	0.085659	0.537564	0.178117
	N254	N	0.086321	0.462826	0.821062
	N255	N	0.915086	0.537179	0.822276
	N256	N	0.178685	0.914048	0.463340
	N257	N	0.178780	0.085900	0.537796
	N258	N	0.821466	0.085497	0.463159
	N259	N	0.820455	0.913695	0.536778
	N260	N	0.462618	0.177123	0.915284
	N261	N	0.537675	0.177079	0.084211
	N262	N	0.462329	0.823173	0.083852
	N263	N	0.538050	0.823239	0.916004
	N264	N	0.463046	0.913295	0.179414
	N265	N	0.536971	0.086042	0.178383
	N266	N	0.463108	0.085739	0.821362
	N267	N	0.537234	0.913597	0.821147
	N268	N	0.914870	0.177766	0.462967
	N269	N	0.084717	0.177697	0.538088
	N270	N	0.084140	0.822933	0.462542
	N271	N	0.914535	0.822497	0.537670
	N272	N	0.177442	0.462246	0.914934
	N273	N	0.177248	0.537643	0.084498
	N274	N	0.822914	0.462194	0.085003
	N275	N	0.822751	0.537422	0.915010
