data_Molecule from HDF5

_cell_length_a		16.033666
_cell_length_b		16.338073
_cell_length_c		16.231481
_cell_angle_alpha	89.632929
_cell_angle_beta	90.317049
_cell_angle_gamma	90.225296
_symmetry_space_group_name_H-M	'P 1'
_symmetry_Int_Tables_number		1

loop_
	_symmetry_equiv_pos_as_xyz
	x,y,z

loop_
	_atom_site_label
	_atom_site_type_symbol
	_atom_site_fract_x
	_atom_site_fract_y
	_atom_site_fract_z
	H0	H	0.404760	0.838161	0.710766
	H1	H	0.606596	0.164583	0.709471
	H2	H	0.603273	0.838525	0.279588
	H3	H	0.403475	0.163321	0.275493
	H4	H	0.713429	0.408031	0.829318
	H5	H	0.718902	0.597658	0.159331
	H6	H	0.291803	0.596784	0.829986
	H7	H	0.293510	0.404577	0.160235
	H8	H	0.838245	0.714354	0.393734
	H9	H	0.168758	0.716305	0.595873
	H10	H	0.839851	0.284736	0.594655
	H11	H	0.169999	0.288434	0.395060
	H12	H	0.838664	0.399886	0.707132
	H13	H	0.169592	0.598949	0.707641
	H14	H	0.838904	0.600128	0.279067
	H15	H	0.170873	0.407240	0.284601
	H16	H	0.403194	0.716375	0.830801
	H17	H	0.606817	0.717822	0.157729
	H18	H	0.601664	0.288577	0.830949
	H19	H	0.401676	0.282957	0.157119
	H20	H	0.715975	0.836654	0.400060
	H21	H	0.719295	0.164891	0.590693
	H22	H	0.291945	0.836793	0.590606
	H23	H	0.291158	0.165202	0.394714
	H24	H	0.903304	0.338916	0.212190
	H25	H	0.105404	0.664474	0.209121
	H26	H	0.103876	0.337885	0.780302
	H27	H	0.903451	0.663267	0.774806
	H28	H	0.215146	0.906206	0.328745
	H29	H	0.218343	0.095831	0.659168
	H30	H	0.791808	0.097937	0.329880
	H31	H	0.794199	0.904317	0.660682
	H32	H	0.338776	0.215498	0.892133
	H33	H	0.668688	0.216159	0.094850
	H34	H	0.339302	0.786426	0.093630
	H35	H	0.668675	0.787790	0.895161
	H36	H	0.338532	0.902240	0.205708
	H37	H	0.669369	0.100659	0.207427
	H38	H	0.338864	0.099675	0.778940
	H39	H	0.671578	0.907061	0.786092
	H40	H	0.902491	0.218194	0.331905
	H41	H	0.108347	0.217016	0.657730
	H42	H	0.103102	0.787326	0.330543
	H43	H	0.902756	0.782328	0.657118
	H44	H	0.215563	0.336779	0.900615
	H45	H	0.218732	0.665237	0.090698
	H46	H	0.791309	0.336728	0.091409
	H47	H	0.790495	0.665124	0.895082
	H48	H	0.416047	0.114775	0.578117
	H49	H	0.590965	0.885366	0.594730
	H50	H	0.600367	0.115395	0.409387
	H51	H	0.403465	0.883100	0.404553
	H52	H	0.594293	0.413098	0.109838
	H53	H	0.582546	0.595489	0.881827
	H54	H	0.405246	0.600196	0.116041
	H55	H	0.400805	0.403775	0.873311
	H56	H	0.127267	0.601561	0.394246
	H57	H	0.883405	0.601200	0.580766
	H58	H	0.121113	0.413490	0.587604
	H59	H	0.884108	0.403442	0.402561
	H60	H	0.125869	0.406682	0.592299
	H61	H	0.889595	0.586194	0.577680
	H62	H	0.122375	0.600508	0.411586
	H63	H	0.887728	0.410003	0.408374
	H64	H	0.411784	0.586887	0.110683
	H65	H	0.600214	0.609038	0.871373
	H66	H	0.591617	0.402375	0.112599
	H67	H	0.410254	0.417696	0.879775
	H68	H	0.605965	0.121968	0.393436
	H69	H	0.598459	0.886203	0.584331
	H70	H	0.403384	0.120491	0.588302
	H71	H	0.411435	0.881905	0.391552
	H72	H	0.910274	0.618278	0.085520
	H73	H	0.090654	0.388827	0.083686
	H74	H	0.094783	0.615861	0.902352
	H75	H	0.919947	0.387421	0.900169
	H76	H	0.095609	0.895636	0.614065
	H77	H	0.099518	0.097457	0.375437
	H78	H	0.928182	0.093992	0.607084
	H79	H	0.903170	0.915105	0.377291
	H80	H	0.624504	0.099664	0.900695
	H81	H	0.384301	0.088716	0.089200
	H82	H	0.621090	0.920576	0.088918
	H83	H	0.386933	0.912110	0.902541
	H84	H	0.627565	0.902144	0.096898
	H85	H	0.383831	0.098700	0.084336
	H86	H	0.622219	0.097020	0.906755
	H87	H	0.383747	0.909071	0.897717
	H88	H	0.908451	0.107206	0.617634
	H89	H	0.094938	0.093397	0.378115
	H90	H	0.107409	0.910915	0.613198
	H91	H	0.920771	0.909347	0.380684
	H92	H	0.100978	0.618515	0.899825
	H93	H	0.106933	0.382312	0.088613
	H94	H	0.913202	0.618174	0.089318
	H95	H	0.903984	0.385705	0.907854
	H96	H	0.419067	0.118174	0.594545
	H97	H	0.603616	0.881325	0.594520
	H98	H	0.588615	0.116280	0.396093
	H99	H	0.418029	0.888419	0.403684
	H100	H	0.602681	0.406262	0.114468
	H101	H	0.604580	0.586707	0.877971
	H102	H	0.419898	0.600002	0.112273
	H103	H	0.418256	0.402731	0.878041
	H104	H	0.120194	0.586452	0.401647
	H105	H	0.883624	0.589290	0.592624
	H106	H	0.122409	0.405073	0.583565
	H107	H	0.885673	0.412830	0.399056
	H108	H	0.915752	0.616687	0.085089
	H109	H	0.094037	0.382737	0.100775
	H110	H	0.094840	0.617657	0.895634
	H111	H	0.905343	0.380951	0.891732
	H112	H	0.088637	0.912349	0.607092
	H113	H	0.093412	0.099051	0.377116
	H114	H	0.904887	0.081961	0.612018
	H115	H	0.907139	0.897087	0.373222
	H116	H	0.622688	0.092007	0.900874
	H117	H	0.387602	0.089819	0.077575
	H118	H	0.622150	0.903737	0.076536
	H119	H	0.385061	0.905625	0.903839
	C120	C	0.383492	0.009806	0.616107
	C121	C	0.627129	0.992639	0.617987
	C122	C	0.626375	0.009725	0.372485
	C123	C	0.382310	0.992700	0.371466
	C124	C	0.624500	0.379920	0.003500
	C125	C	0.625903	0.624282	0.985612
	C126	C	0.383157	0.623379	0.003898
	C127	C	0.381858	0.379016	0.985656
	C128	C	0.013458	0.623804	0.372921
	C129	C	0.994781	0.621382	0.613987
	C130	C	0.013673	0.378872	0.616261
	C131	C	0.995609	0.380970	0.374602
	C132	C	0.883173	0.509790	0.116161
	C133	C	0.126385	0.492774	0.117960
	C134	C	0.125445	0.509201	0.872527
	C135	C	0.881654	0.492538	0.871093
	C136	C	0.125329	0.879192	0.502867
	C137	C	0.126322	0.123656	0.485644
	C138	C	0.883784	0.122726	0.503385
	C139	C	0.882464	0.878653	0.485974
	C140	C	0.513324	0.123939	0.872907
	C141	C	0.494896	0.121985	0.114126
	C142	C	0.513629	0.879986	0.115491
	C143	C	0.495107	0.881238	0.873757
	C144	C	0.384986	0.886920	0.672145
	C145	C	0.626015	0.115434	0.671975
	C146	C	0.623339	0.886800	0.317934
	C147	C	0.383674	0.115017	0.314434
	C148	C	0.677690	0.385251	0.878938
	C149	C	0.681835	0.619602	0.109783
	C150	C	0.328479	0.619016	0.879512
	C151	C	0.328943	0.382622	0.110354
	C152	C	0.888147	0.677509	0.373867
	C153	C	0.119609	0.677516	0.614402
	C154	C	0.889076	0.322988	0.614201
	C155	C	0.120530	0.326282	0.376018
	C156	C	0.888407	0.380525	0.669763
	C157	C	0.120145	0.618798	0.669502
	C158	C	0.888248	0.620645	0.317064
	C159	C	0.121084	0.385287	0.320961
	C160	C	0.383912	0.678576	0.880020
	C161	C	0.625969	0.679067	0.109041
	C162	C	0.622100	0.326051	0.879754
	C163	C	0.382561	0.321875	0.108755
	C164	C	0.679347	0.885891	0.377683
	C165	C	0.681954	0.115889	0.613024
	C166	C	0.328959	0.886093	0.612478
	C167	C	0.327709	0.115768	0.373575
	C168	C	0.884015	0.387072	0.172866
	C169	C	0.125082	0.615817	0.171480
	C170	C	0.123131	0.386349	0.818625
	C171	C	0.883789	0.615032	0.814239
	C172	C	0.178500	0.884416	0.378257
	C173	C	0.181697	0.118431	0.609615
	C174	C	0.828520	0.119579	0.379488
	C175	C	0.829637	0.882351	0.610569
	C176	C	0.388416	0.178166	0.873017
	C177	C	0.619226	0.178327	0.113856
	C178	C	0.388781	0.824269	0.113475
	C179	C	0.619811	0.826240	0.875907
	C180	C	0.388522	0.881787	0.169280
	C181	C	0.619584	0.120963	0.170243
	C182	C	0.388542	0.120673	0.816658
	C183	C	0.621204	0.885261	0.821426
	C184	C	0.884029	0.178877	0.380298
	C185	C	0.126955	0.178491	0.608923
	C186	C	0.122921	0.825348	0.379246
	C187	C	0.883592	0.821754	0.608824
	C188	C	0.179224	0.385845	0.878085
	C189	C	0.181580	0.616122	0.112697
	C190	C	0.828137	0.386083	0.113120
	C191	C	0.827594	0.615984	0.873908
	C192	C	0.406122	0.095575	0.593642
	C193	C	0.604506	0.906406	0.597342
	C194	C	0.604587	0.095784	0.393366
	C195	C	0.404303	0.906695	0.393534
	C196	C	0.602643	0.400972	0.089958
	C197	C	0.602711	0.603214	0.899416
	C198	C	0.405612	0.601902	0.090705
	C199	C	0.403402	0.401248	0.899443
	C200	C	0.100676	0.602445	0.395746
	C201	C	0.908013	0.598815	0.590572
	C202	C	0.100815	0.401741	0.594406
	C203	C	0.908183	0.402561	0.396552
	C204	C	0.906188	0.595532	0.093424
	C205	C	0.103873	0.406897	0.097290
	C206	C	0.103387	0.595167	0.893226
	C207	C	0.903206	0.406674	0.893488
	C208	C	0.103678	0.900189	0.588965
	C209	C	0.102891	0.102737	0.399267
	C210	C	0.906900	0.100621	0.589998
	C211	C	0.903906	0.900715	0.399384
	C212	C	0.600549	0.102518	0.896051
	C213	C	0.407711	0.099107	0.090603
	C214	C	0.601178	0.902290	0.093878
	C215	C	0.407713	0.902579	0.895147
	Zn216	Zn	0.505249	0.001743	0.746527
	Zn217	Zn	0.504083	0.001407	0.242329
	Zn218	Zn	0.753728	0.501157	-0.005361
	Zn219	Zn	0.254655	0.501083	-0.004551
	Zn220	Zn	0.004071	0.750288	0.494281
	Zn221	Zn	0.004839	0.252169	0.495062
	Zn222	Zn	0.004187	0.500548	0.741869
	Zn223	Zn	0.004329	0.501770	0.246704
	Zn224	Zn	0.503891	0.753049	-0.005433
	Zn225	Zn	0.503502	0.251029	-0.005516
	Zn226	Zn	0.755192	0.000892	0.495282
	Zn227	Zn	0.253963	0.001251	0.493628
	N228	N	0.417871	0.964809	0.674827
	N229	N	0.592389	0.037728	0.675057
	N230	N	0.591065	0.964864	0.314550
	N231	N	0.416874	0.037385	0.312847
	N232	N	0.679510	0.417875	0.956845
	N233	N	0.681944	0.586159	0.032072
	N234	N	0.327846	0.585482	0.957410
	N235	N	0.328144	0.417302	0.032944
	N236	N	0.966951	0.679510	0.407885
	N237	N	0.040848	0.679029	0.580404
	N238	N	0.968023	0.321931	0.581411
	N239	N	0.041412	0.323424	0.408639
	N240	N	0.966950	0.414787	0.670973
	N241	N	0.041650	0.584635	0.669395
	N242	N	0.967041	0.587999	0.316291
	N243	N	0.042310	0.418384	0.319877
	N244	N	0.417150	0.681380	0.958570
	N245	N	0.592124	0.682210	0.031049
	N246	N	0.589645	0.322728	0.958119
	N247	N	0.414850	0.319656	0.030463
	N248	N	0.681255	0.963181	0.410839
	N249	N	0.682836	0.038484	0.580232
	N250	N	0.327975	0.963550	0.578168
	N251	N	0.326836	0.038735	0.408263
	N252	N	0.917507	0.464841	0.174671
	N253	N	0.091631	0.538113	0.175037
	N254	N	0.090471	0.464110	0.815081
	N255	N	0.916474	0.537314	0.812361
	N256	N	0.180387	0.917109	0.456045
	N257	N	0.181364	0.085091	0.532023
	N258	N	0.828628	0.085014	0.457049
	N259	N	0.828729	0.916965	0.533027
	N260	N	0.466910	0.180101	0.907675
	N261	N	0.540474	0.178991	0.079737
	N262	N	0.467558	0.823034	0.080799
	N263	N	0.540374	0.823685	0.907685
	N264	N	0.467216	0.916011	0.170606
	N265	N	0.541220	0.086537	0.170535
	N266	N	0.467269	0.087695	0.816448
	N267	N	0.542716	0.918722	0.819901
	N268	N	0.917833	0.180661	0.458384
	N269	N	0.093099	0.181892	0.530723
	N270	N	0.090632	0.821984	0.457509
	N271	N	0.915584	0.819298	0.530319
	N272	N	0.180718	0.463270	0.910996
	N273	N	0.182310	0.538774	0.079957
	N274	N	0.827680	0.463260	0.078481
	N275	N	0.826088	0.538835	0.908532
	O276	O	1.056928	1.007134	-0.007989
	H277	H	1.047328	1.014912	-0.007536
	H278	H	1.055140	1.008987	-0.008877
	O279	O	-0.019940	0.015704	0.052994
	H280	H	-0.022508	0.004940	0.050557
	H281	H	-0.013619	0.012860	0.046723
	O282	O	0.013896	0.021820	1.046586
	H283	H	0.002809	0.017542	1.044918
	H284	H	0.012872	0.024999	1.054848
	O285	O	0.468101	0.448211	0.514710
	H286	H	0.472881	0.446003	0.523772
	H287	H	0.468017	0.444792	0.519698
	O288	O	0.494976	0.533812	0.514472
	H289	H	0.491269	0.539926	0.522668
	H290	H	0.492237	0.530175	0.500130
	O291	O	0.485004	0.482130	0.526760
	H292	H	0.492572	0.485934	0.528664
	H293	H	0.496071	0.486384	0.519060
	O294	O	-0.567686	-0.493471	0.525886
	H295	H	-0.580433	-0.490024	0.518193
	H296	H	-0.562739	-0.487818	0.529972
	O297	O	0.420212	0.465885	0.515286
	H298	H	0.424871	0.465088	0.516092
	H299	H	0.411250	0.459909	0.517961
	O300	O	-0.046690	0.972710	1.025817
	H301	H	-0.037059	0.974513	1.027778
	H302	H	-0.044414	0.970478	1.027454
	O303	O	0.507541	0.497830	0.521104
	H304	H	0.498851	0.493460	0.522333
	H305	H	0.512626	0.499860	0.520532
	O306	O	0.039094	-0.027104	1.022343
	H307	H	0.037417	-0.025318	1.028076
	H308	H	0.034477	-0.027277	1.011640
	O309	O	1.042363	0.996921	1.005345
	H310	H	1.046791	0.993117	1.010467
	H311	H	1.050782	1.000152	1.007346
	O312	O	0.525842	0.488559	0.491473
	H313	H	0.528315	0.493525	0.492531
	H314	H	0.529113	0.486794	0.498265
	O315	O	0.517657	0.511985	0.475806
	H316	H	0.511449	0.501802	0.470610
	H317	H	0.505715	0.517252	0.472467
	O318	O	0.062600	0.993550	0.039361
	H319	H	0.057422	0.993978	0.036640
	H320	H	0.074993	1.003105	0.041114
	O321	O	1.010797	1.026562	0.023387
	H322	H	1.007627	1.025770	0.022298
	H323	H	1.013768	1.022101	0.027731
