data_Molecule from HDF5

_cell_length_a		16.147478
_cell_length_b		16.255851
_cell_length_c		16.294330
_cell_angle_alpha	89.934096
_cell_angle_beta	89.997370
_cell_angle_gamma	89.892036
_symmetry_space_group_name_H-M	'P 1'
_symmetry_Int_Tables_number		1

loop_
	_symmetry_equiv_pos_as_xyz
	x,y,z

loop_
	_atom_site_label
	_atom_site_type_symbol
	_atom_site_fract_x
	_atom_site_fract_y
	_atom_site_fract_z
	H0	H	0.400817	0.836436	0.713986
	H1	H	0.597867	0.163618	0.714944
	H2	H	0.597540	0.835614	0.286619
	H3	H	0.399877	0.163724	0.284022
	H4	H	0.713511	0.403288	0.835888
	H5	H	0.712597	0.595985	0.164345
	H6	H	0.286782	0.596448	0.836044
	H7	H	0.287188	0.402958	0.164560
	H8	H	0.835880	0.713467	0.402774
	H9	H	0.165671	0.712344	0.599143
	H10	H	0.834860	0.286883	0.598993
	H11	H	0.165303	0.285823	0.402181
	H12	H	0.835044	0.401644	0.714283
	H13	H	0.164940	0.596465	0.713079
	H14	H	0.835659	0.599281	0.286302
	H15	H	0.165248	0.401044	0.286131
	H16	H	0.401090	0.714447	0.836315
	H17	H	0.599376	0.714539	0.163179
	H18	H	0.598985	0.285387	0.836411
	H19	H	0.400714	0.285094	0.163998
	H20	H	0.714006	0.835965	0.403090
	H21	H	0.710766	0.165387	0.595667
	H22	H	0.287726	0.835343	0.595970
	H23	H	0.286536	0.165008	0.403297
	H24	H	0.901619	0.335752	0.214315
	H25	H	0.099300	0.664130	0.214814
	H26	H	0.100444	0.336510	0.784170
	H27	H	0.901050	0.664342	0.785367
	H28	H	0.213262	0.903249	0.336244
	H29	H	0.212481	0.096097	0.664668
	H30	H	0.787002	0.097656	0.335567
	H31	H	0.786759	0.903266	0.664904
	H32	H	0.334371	0.214474	0.901219
	H33	H	0.664951	0.212743	0.097413
	H34	H	0.334894	0.786698	0.097497
	H35	H	0.665222	0.786575	0.902092
	H36	H	0.335113	0.902250	0.212573
	H37	H	0.664591	0.097857	0.212859
	H38	H	0.334381	0.098380	0.785492
	H39	H	0.664623	0.902004	0.786412
	H40	H	0.901254	0.215526	0.337045
	H41	H	0.098566	0.214451	0.663849
	H42	H	0.099852	0.785299	0.336976
	H43	H	0.902524	0.785933	0.663923
	H44	H	0.213569	0.335560	0.904082
	H45	H	0.212902	0.665000	0.096613
	H46	H	0.787616	0.335394	0.096263
	H47	H	0.787587	0.664777	0.903120
	H48	H	0.409113	0.117120	0.594993
	H49	H	0.592106	0.883699	0.590707
	H50	H	0.602295	0.123253	0.395957
	H51	H	0.403779	0.882714	0.407865
	H52	H	0.591687	0.411466	0.114815
	H53	H	0.585272	0.588520	0.886980
	H54	H	0.404861	0.589163	0.116302
	H55	H	0.404137	0.397754	0.880376
	H56	H	0.119548	0.594261	0.405955
	H57	H	0.880760	0.588851	0.601259
	H58	H	0.115338	0.407132	0.585645
	H59	H	0.881321	0.402139	0.407607
	H60	H	0.116939	0.413313	0.596737
	H61	H	0.879398	0.602832	0.592551
	H62	H	0.117965	0.592706	0.409176
	H63	H	0.883846	0.409521	0.411325
	H64	H	0.412053	0.595206	0.116135
	H65	H	0.592196	0.604432	0.880045
	H66	H	0.588835	0.399937	0.117393
	H67	H	0.401163	0.413237	0.883508
	H68	H	0.579419	0.114684	0.401113
	H69	H	0.597481	0.881428	0.594642
	H70	H	0.405747	0.116884	0.590703
	H71	H	0.406524	0.881975	0.402064
	H72	H	0.914795	0.615713	0.095716
	H73	H	0.097983	0.380005	0.100514
	H74	H	0.091700	0.617978	0.903068
	H75	H	0.904943	0.383104	0.907500
	H76	H	0.097374	0.902508	0.619515
	H77	H	0.091959	0.094315	0.383335
	H78	H	0.913366	0.101506	0.617103
	H79	H	0.904458	0.908367	0.383059
	H80	H	0.617837	0.087306	0.900820
	H81	H	0.380966	0.099897	0.088543
	H82	H	0.618876	0.905000	0.094950
	H83	H	0.381472	0.904665	0.908631
	H84	H	0.618506	0.904815	0.091607
	H85	H	0.384454	0.086743	0.089629
	H86	H	0.619289	0.099809	0.905340
	H87	H	0.381821	0.908498	0.906583
	H88	H	0.896571	0.096207	0.621071
	H89	H	0.092942	0.093473	0.383578
	H90	H	0.094712	0.911752	0.615687
	H91	H	0.909455	0.906994	0.384265
	H92	H	0.091587	0.616566	0.907033
	H93	H	0.085537	0.385556	0.095523
	H94	H	0.904006	0.616006	0.086945
	H95	H	0.906898	0.382011	0.902963
	H96	H	0.403643	0.118201	0.595797
	H97	H	0.591272	0.882042	0.597738
	H98	H	0.597141	0.114620	0.418250
	H99	H	0.410358	0.884002	0.406861
	H100	H	0.600563	0.403942	0.119186
	H101	H	0.603336	0.589873	0.881114
	H102	H	0.403645	0.597862	0.119225
	H103	H	0.416053	0.407246	0.886375
	H104	H	0.118903	0.590974	0.406048
	H105	H	0.885382	0.589287	0.585783
	H106	H	0.120938	0.400791	0.596293
	H107	H	0.881863	0.409690	0.402463
	H108	H	0.901832	0.620290	0.099553
	H109	H	0.096199	0.384327	0.087005
	H110	H	0.095781	0.617792	0.905974
	H111	H	0.910374	0.383867	0.906765
	H112	H	0.087915	0.904217	0.616106
	H113	H	0.091701	0.093498	0.384190
	H114	H	0.908547	0.084850	0.613561
	H115	H	0.906367	0.903608	0.382912
	H116	H	0.614212	0.090451	0.913566
	H117	H	0.379328	0.093609	0.100471
	H118	H	0.618030	0.907668	0.093026
	H119	H	0.380748	0.905367	0.904173
	C120	C	0.378105	0.008845	0.621228
	C121	C	0.621333	0.991352	0.622081
	C122	C	0.621094	0.008653	0.377874
	C123	C	0.378260	0.991497	0.377823
	C124	C	0.621802	0.377801	0.008386
	C125	C	0.621682	0.621634	0.991453
	C126	C	0.378560	0.621840	0.008743
	C127	C	0.378486	0.377886	0.991630
	C128	C	0.009547	0.621180	0.378728
	C129	C	0.991278	0.621246	0.621187
	C130	C	0.008377	0.379117	0.621426
	C131	C	0.991675	0.378729	0.378778
	C132	C	0.878897	0.508343	0.121895
	C133	C	0.121544	0.491980	0.122192
	C134	C	0.121551	0.508700	0.877957
	C135	C	0.878429	0.491778	0.878020
	C136	C	0.122272	0.877942	0.508946
	C137	C	0.121223	0.121911	0.492079
	C138	C	0.878142	0.122215	0.508704
	C139	C	0.878642	0.878396	0.491814
	C140	C	0.507693	0.120993	0.878566
	C141	C	0.491047	0.120893	0.120767
	C142	C	0.508674	0.878183	0.120803
	C143	C	0.491052	0.878267	0.878318
	C144	C	0.380904	0.884942	0.675729
	C145	C	0.618130	0.115201	0.676340
	C146	C	0.618517	0.884751	0.323840
	C147	C	0.380306	0.115241	0.323027
	C148	C	0.676320	0.381794	0.885004
	C149	C	0.675383	0.617384	0.115304
	C150	C	0.324034	0.617929	0.884972
	C151	C	0.324020	0.381316	0.115533
	C152	C	0.884951	0.676031	0.381901
	C153	C	0.116129	0.674963	0.618921
	C154	C	0.884206	0.324404	0.619189
	C155	C	0.116155	0.323900	0.381825
	C156	C	0.884160	0.381582	0.676279
	C157	C	0.116126	0.617240	0.675401
	C158	C	0.884987	0.619302	0.324072
	C159	C	0.116054	0.381127	0.324134
	C160	C	0.380977	0.676092	0.884960
	C161	C	0.619149	0.676088	0.114767
	C162	C	0.619370	0.323413	0.885134
	C163	C	0.380474	0.322628	0.115121
	C164	C	0.675751	0.884780	0.382121
	C165	C	0.674332	0.115796	0.617298
	C166	C	0.324693	0.884544	0.617115
	C167	C	0.323975	0.115718	0.382009
	C168	C	0.881302	0.384861	0.176494
	C169	C	0.119100	0.615478	0.176826
	C170	C	0.119894	0.385098	0.822849
	C171	C	0.881150	0.615550	0.823853
	C172	C	0.176437	0.881752	0.385319
	C173	C	0.175316	0.117749	0.615553
	C174	C	0.824022	0.119050	0.384906
	C175	C	0.824421	0.882253	0.615724
	C176	C	0.383415	0.176249	0.881210
	C177	C	0.615696	0.174945	0.117677
	C178	C	0.384435	0.823867	0.117896
	C179	C	0.615660	0.824269	0.881456
	C180	C	0.384352	0.881329	0.175134
	C181	C	0.615508	0.118032	0.175166
	C182	C	0.383469	0.119031	0.823529
	C183	C	0.615508	0.881665	0.824060
	C184	C	0.880924	0.177349	0.385539
	C185	C	0.118831	0.176542	0.615164
	C186	C	0.120127	0.823182	0.385656
	C187	C	0.881694	0.823732	0.615305
	C188	C	0.176548	0.384908	0.881896
	C189	C	0.175441	0.615835	0.118226
	C190	C	0.825152	0.384344	0.117292
	C191	C	0.824577	0.615702	0.882107
	C192	C	0.399848	0.095134	0.600168
	C193	C	0.599928	0.904648	0.600826
	C194	C	0.599378	0.095266	0.398772
	C195	C	0.400381	0.905205	0.399092
	C196	C	0.600082	0.398836	0.094835
	C197	C	0.599995	0.600418	0.904987
	C198	C	0.400394	0.600523	0.094798
	C199	C	0.400497	0.399617	0.905742
	C200	C	0.096269	0.599027	0.400647
	C201	C	0.904517	0.599861	0.599712
	C202	C	0.095313	0.400795	0.599426
	C203	C	0.904723	0.400827	0.400654
	C204	C	0.900512	0.595059	0.100490
	C205	C	0.099687	0.405641	0.100589
	C206	C	0.099458	0.595128	0.899209
	C207	C	0.900708	0.405227	0.899292
	C208	C	0.100116	0.899569	0.595032
	C209	C	0.098981	0.100187	0.405747
	C210	C	0.899657	0.100480	0.594942
	C211	C	0.900302	0.899963	0.405606
	C212	C	0.594607	0.098935	0.900128
	C213	C	0.403809	0.099425	0.099390
	C214	C	0.596013	0.899658	0.099545
	C215	C	0.403742	0.899994	0.899867
	Zn216	Zn	0.499294	-0.000213	0.750215
	Zn217	Zn	0.499562	0.000159	0.248821
	Zn218	Zn	0.750301	0.500146	-0.000032
	Zn219	Zn	0.250209	0.500064	0.000637
	Zn220	Zn	0.001292	0.749154	0.500341
	Zn221	Zn	-0.000072	0.250857	0.500730
	Zn222	Zn	-0.000405	0.500216	0.749068
	Zn223	Zn	0.000407	0.500184	0.250856
	Zn224	Zn	0.500055	0.750445	-0.000360
	Zn225	Zn	0.499691	0.249021	0.000275
	Zn226	Zn	0.749618	0.000444	0.500193
	Zn227	Zn	0.249832	0.000022	0.499956
	N228	N	0.413622	0.963092	0.678444
	N229	N	0.586191	0.036647	0.679568
	N230	N	0.585152	0.962852	0.321244
	N231	N	0.413454	0.037156	0.320400
	N232	N	0.677985	0.414965	0.962782
	N233	N	0.677159	0.584340	0.037602
	N234	N	0.322153	0.584967	0.962900
	N235	N	0.322731	0.415016	0.038003
	N236	N	0.963422	0.677397	0.415308
	N237	N	0.037713	0.677332	0.585848
	N238	N	0.962606	0.322955	0.585555
	N239	N	0.037778	0.322341	0.415230
	N240	N	0.962346	0.414990	0.677673
	N241	N	0.037547	0.584517	0.677131
	N242	N	0.963489	0.586238	0.321909
	N243	N	0.037573	0.414502	0.322281
	N244	N	0.414026	0.678698	0.962766
	N245	N	0.586541	0.678914	0.036674
	N246	N	0.586052	0.320844	0.962855
	N247	N	0.413890	0.320669	0.037367
	N248	N	0.677530	0.962741	0.414922
	N249	N	0.676245	0.037821	0.584279
	N250	N	0.322947	0.962371	0.584046
	N251	N	0.322388	0.037810	0.415323
	N252	N	0.914113	0.463008	0.179173
	N253	N	0.086490	0.537364	0.179367
	N254	N	0.086519	0.463238	0.820020
	N255	N	0.913988	0.537378	0.820971
	N256	N	0.177690	0.915136	0.462877
	N257	N	0.176908	0.084584	0.537765
	N258	N	0.822171	0.085340	0.462410
	N259	N	0.822287	0.915304	0.537973
	N260	N	0.461681	0.177667	0.914706
	N261	N	0.537175	0.176789	0.084708
	N262	N	0.462837	0.821977	0.084733
	N263	N	0.537286	0.822337	0.914587
	N264	N	0.462761	0.914407	0.177002
	N265	N	0.536873	0.085164	0.177041
	N266	N	0.461753	0.085213	0.821859
	N267	N	0.536800	0.914439	0.821943
	N268	N	0.913820	0.179485	0.463590
	N269	N	0.086034	0.179078	0.537202
	N270	N	0.087116	0.820757	0.463579
	N271	N	0.914785	0.821142	0.537348
	N272	N	0.177439	0.462581	0.915462
	N273	N	0.177178	0.537981	0.084911
	N274	N	0.823391	0.462387	0.084300
	N275	N	0.823091	0.537717	0.915176
