data_Molecule from HDF5

_cell_length_a		16.453512
_cell_length_b		16.727726
_cell_length_c		16.681295
_cell_angle_alpha	90.117256
_cell_angle_beta	90.190412
_cell_angle_gamma	89.992802
_symmetry_space_group_name_H-M	'P 1'
_symmetry_Int_Tables_number		1

loop_
	_symmetry_equiv_pos_as_xyz
	x,y,z

loop_
	_atom_site_label
	_atom_site_type_symbol
	_atom_site_fract_x
	_atom_site_fract_y
	_atom_site_fract_z
	H0	H	0.397578	0.839731	0.713854
	H1	H	0.604703	0.151377	0.713707
	H2	H	0.610234	0.841471	0.270952
	H3	H	0.394883	0.148363	0.270317
	H4	H	0.719844	0.393837	0.837077
	H5	H	0.721876	0.597907	0.149902
	H6	H	0.282092	0.597445	0.836864
	H7	H	0.280504	0.391709	0.148579
	H8	H	0.844865	0.716013	0.389178
	H9	H	0.159204	0.714642	0.597305
	H10	H	0.844455	0.276788	0.597340
	H11	H	0.157636	0.275363	0.388663
	H12	H	0.842441	0.394654	0.709977
	H13	H	0.158735	0.599127	0.713084
	H14	H	0.845810	0.602045	0.271401
	H15	H	0.158397	0.391127	0.273066
	H16	H	0.395505	0.716655	0.837432
	H17	H	0.607783	0.716895	0.148650
	H18	H	0.608245	0.272922	0.839464
	H19	H	0.393102	0.272326	0.146662
	H20	H	0.722978	0.840506	0.391733
	H21	H	0.719138	0.152664	0.594870
	H22	H	0.282238	0.839755	0.595839
	H23	H	0.282717	0.151151	0.390858
	H24	H	0.898027	0.340799	0.214226
	H25	H	0.109906	0.649338	0.217598
	H26	H	0.108671	0.342098	0.769500
	H27	H	0.894152	0.648946	0.770452
	H28	H	0.222651	0.891203	0.338521
	H29	H	0.221687	0.098938	0.648831
	H30	H	0.778203	0.101831	0.338721
	H31	H	0.782385	0.893514	0.649838
	H32	H	0.344308	0.212250	0.892719
	H33	H	0.658060	0.217430	0.101272
	H34	H	0.345931	0.773359	0.099724
	H35	H	0.660678	0.775431	0.889900
	H36	H	0.345479	0.890307	0.214024
	H37	H	0.658269	0.101236	0.216245
	H38	H	0.343987	0.094833	0.778065
	H39	H	0.660747	0.892319	0.776435
	H40	H	0.893133	0.220720	0.339782
	H41	H	0.108580	0.218615	0.648099
	H42	H	0.108785	0.771975	0.340071
	H43	H	0.894929	0.773084	0.647433
	H44	H	0.224145	0.341820	0.887446
	H45	H	0.225955	0.650037	0.101664
	H46	H	0.784398	0.338640	0.094561
	H47	H	0.780265	0.650489	0.889064
	H48	H	0.413152	0.104181	0.580884
	H49	H	0.591063	0.883735	0.588889
	H50	H	0.590059	0.106075	0.403696
	H51	H	0.411609	0.882720	0.399497
	H52	H	0.596473	0.404617	0.106661
	H53	H	0.596951	0.579991	0.881293
	H54	H	0.423554	0.580766	0.099670
	H55	H	0.417176	0.403242	0.883471
	H56	H	0.115588	0.588594	0.406756
	H57	H	0.887963	0.584914	0.583036
	H58	H	0.116556	0.407431	0.585904
	H59	H	0.892203	0.418227	0.403984
	H60	H	0.114760	0.403546	0.578975
	H61	H	0.887216	0.586638	0.583255
	H62	H	0.113297	0.582252	0.408563
	H63	H	0.884052	0.404354	0.395669
	H64	H	0.416847	0.592968	0.105615
	H65	H	0.582955	0.585551	0.884997
	H66	H	0.590351	0.407585	0.104542
	H67	H	0.412207	0.403393	0.880653
	H68	H	0.586915	0.105268	0.404555
	H69	H	0.591690	0.884522	0.583068
	H70	H	0.406019	0.109836	0.587654
	H71	H	0.419839	0.885929	0.403601
	H72	H	0.912472	0.605192	0.078101
	H73	H	0.094841	0.385640	0.078790
	H74	H	0.083212	0.607147	0.894939
	H75	H	0.909154	0.383365	0.903609
	H76	H	0.088365	0.907158	0.603524
	H77	H	0.084099	0.089287	0.382688
	H78	H	0.917497	0.086318	0.602176
	H79	H	0.915213	0.900907	0.381394
	H80	H	0.619726	0.092732	0.903680
	H81	H	0.392740	0.080148	0.074702
	H82	H	0.614551	0.910815	0.085362
	H83	H	0.386298	0.899181	0.899406
	H84	H	0.617157	0.902025	0.083622
	H85	H	0.389932	0.079198	0.087525
	H86	H	0.614773	0.083721	0.910404
	H87	H	0.391512	0.903942	0.912021
	H88	H	0.913731	0.090361	0.606483
	H89	H	0.094906	0.091396	0.378990
	H90	H	0.090166	0.902810	0.605079
	H91	H	0.908570	0.909719	0.382197
	H92	H	0.083744	0.600690	0.914653
	H93	H	0.089425	0.383863	0.087203
	H94	H	0.908533	0.609085	0.086124
	H95	H	0.913939	0.383271	0.898550
	H96	H	0.416479	0.106690	0.591590
	H97	H	0.596659	0.882706	0.586221
	H98	H	0.589240	0.105399	0.407040
	H99	H	0.411338	0.885593	0.408585
	H100	H	0.590713	0.400838	0.106317
	H101	H	0.593339	0.594206	0.877926
	H102	H	0.408347	0.580227	0.103837
	H103	H	0.413726	0.407819	0.883766
	H104	H	0.115474	0.583466	0.402002
	H105	H	0.888200	0.586081	0.581445
	H106	H	0.112338	0.411180	0.580146
	H107	H	0.889550	0.402718	0.412977
	H108	H	0.917764	0.607194	0.086037
	H109	H	0.084896	0.389081	0.079439
	H110	H	0.100684	0.608930	0.905472
	H111	H	0.915565	0.386193	0.904611
	H112	H	0.092659	0.907087	0.605776
	H113	H	0.091990	0.080898	0.383257
	H114	H	0.910738	0.085015	0.603317
	H115	H	0.918555	0.910093	0.386642
	H116	H	0.617554	0.081838	0.898824
	H117	H	0.388172	0.090711	0.081425
	H118	H	0.612550	0.906965	0.077222
	H119	H	0.390857	0.912901	0.900811
	C120	C	0.380596	0.003759	0.616629
	C121	C	0.623814	0.987146	0.616212
	C122	C	0.622691	0.003638	0.372929
	C123	C	0.381123	0.986882	0.372117
	C124	C	0.623817	0.373427	0.002612
	C125	C	0.623581	0.617466	0.984719
	C126	C	0.381902	0.616673	0.001061
	C127	C	0.381095	0.373943	0.985170
	C128	C	0.010586	0.616656	0.373010
	C129	C	0.992183	0.617212	0.614597
	C130	C	0.010288	0.376178	0.613336
	C131	C	0.992418	0.375768	0.372335
	C132	C	0.881292	0.503939	0.114502
	C133	C	0.123830	0.487698	0.115188
	C134	C	0.122306	0.503724	0.872307
	C135	C	0.880095	0.486857	0.871177
	C136	C	0.122894	0.874140	0.502089
	C137	C	0.122900	0.118370	0.484587
	C138	C	0.880054	0.118904	0.501683
	C139	C	0.881004	0.874925	0.485523
	C140	C	0.511893	0.116032	0.873650
	C141	C	0.493777	0.116383	0.114891
	C142	C	0.510924	0.874689	0.114072
	C143	C	0.494118	0.873994	0.873089
	C144	C	0.379269	0.886450	0.674258
	C145	C	0.623603	0.104897	0.673863
	C146	C	0.627162	0.887626	0.312104
	C147	C	0.377830	0.102779	0.311676
	C148	C	0.681288	0.373675	0.884371
	C149	C	0.682502	0.617380	0.102664
	C150	C	0.321462	0.617081	0.883775
	C151	C	0.320204	0.372762	0.101663
	C152	C	0.892282	0.676387	0.370357
	C153	C	0.111585	0.675448	0.616154
	C154	C	0.891243	0.317140	0.614863
	C155	C	0.110831	0.315697	0.370301
	C156	C	0.890452	0.375749	0.671015
	C157	C	0.111379	0.618268	0.673705
	C158	C	0.892748	0.619647	0.312090
	C159	C	0.111026	0.372921	0.312792
	C160	C	0.377823	0.676513	0.884406
	C161	C	0.625909	0.676523	0.102165
	C162	C	0.625728	0.313836	0.885506
	C163	C	0.376467	0.313545	0.101007
	C164	C	0.683265	0.887000	0.371903
	C165	C	0.680394	0.105598	0.614856
	C166	C	0.321725	0.886538	0.615556
	C167	C	0.321844	0.104020	0.371304
	C168	C	0.879723	0.387106	0.173749
	C169	C	0.128163	0.603252	0.177100
	C170	C	0.125977	0.387939	0.810952
	C171	C	0.876634	0.603037	0.811225
	C172	C	0.182884	0.872413	0.385362
	C173	C	0.182362	0.118703	0.601951
	C174	C	0.818705	0.120446	0.385304
	C175	C	0.821479	0.873815	0.602832
	C176	C	0.391999	0.173170	0.873310
	C177	C	0.611098	0.177064	0.118686
	C178	C	0.392800	0.813973	0.117130
	C179	C	0.613130	0.815142	0.871849
	C180	C	0.392627	0.871979	0.174107
	C181	C	0.611167	0.119392	0.175953
	C182	C	0.391860	0.115200	0.816289
	C183	C	0.613081	0.873202	0.815219
	C184	C	0.875660	0.179517	0.385666
	C185	C	0.126260	0.178210	0.601527
	C186	C	0.126461	0.813023	0.385971
	C187	C	0.877225	0.814057	0.601641
	C188	C	0.183406	0.388023	0.869459
	C189	C	0.185477	0.603240	0.118833
	C190	C	0.823081	0.385970	0.114404
	C191	C	0.820276	0.603677	0.870347
	C192	C	0.404973	0.085530	0.593362
	C193	C	0.600108	0.904951	0.592918
	C194	C	0.596296	0.084474	0.397979
	C195	C	0.406815	0.905711	0.396925
	C196	C	0.599506	0.397457	0.084447
	C197	C	0.598308	0.593574	0.902853
	C198	C	0.408547	0.591687	0.082114
	C199	C	0.406964	0.398116	0.903904
	C200	C	0.093344	0.591638	0.398520
	C201	C	0.909384	0.592887	0.589759
	C202	C	0.092830	0.400399	0.588724
	C203	C	0.910074	0.401113	0.397053
	C204	C	0.905901	0.585675	0.090397
	C205	C	0.097086	0.407060	0.089291
	C206	C	0.096295	0.584624	0.897777
	C207	C	0.905533	0.405442	0.895351
	C208	C	0.097505	0.898816	0.583579
	C209	C	0.097518	0.094133	0.402994
	C210	C	0.906669	0.094334	0.582866
	C211	C	0.906662	0.900024	0.404469
	C212	C	0.595501	0.092848	0.897447
	C213	C	0.411676	0.090764	0.088626
	C214	C	0.593175	0.899619	0.089175
	C215	C	0.411090	0.898282	0.897408
	Zn216	Zn	0.502939	-0.004994	0.745663
	Zn217	Zn	0.502384	-0.004827	0.242638
	Zn218	Zn	0.751947	0.495262	-0.006773
	Zn219	Zn	0.252395	0.495790	-0.006918
	Zn220	Zn	0.001758	0.745121	0.493727
	Zn221	Zn	0.001579	0.247634	0.493155
	Zn222	Zn	0.001437	0.495960	0.742088
	Zn223	Zn	0.002559	0.496549	0.244473
	Zn224	Zn	0.502182	0.746249	-0.006519
	Zn225	Zn	0.502095	0.244796	-0.005709
	Zn226	Zn	0.752293	-0.003548	0.494285
	Zn227	Zn	0.251672	-0.004003	0.493572
	N228	N	0.415047	0.960511	0.675176
	N229	N	0.589452	0.030114	0.675106
	N230	N	0.590442	0.961240	0.312503
	N231	N	0.413907	0.028820	0.311947
	N232	N	0.680151	0.410143	0.958104
	N233	N	0.681298	0.581365	0.028598
	N234	N	0.323925	0.580730	0.957332
	N235	N	0.322860	0.409595	0.028438
	N236	N	0.966795	0.674808	0.407439
	N237	N	0.036394	0.675101	0.580205
	N238	N	0.966779	0.316844	0.579884
	N239	N	0.035953	0.316967	0.406581
	N240	N	0.965606	0.411329	0.670639
	N241	N	0.036056	0.582969	0.673203
	N242	N	0.967554	0.583332	0.313571
	N243	N	0.036554	0.409539	0.313916
	N244	N	0.414409	0.676670	0.958603
	N245	N	0.590240	0.676819	0.027662
	N246	N	0.590802	0.313267	0.960176
	N247	N	0.413595	0.314044	0.027560
	N248	N	0.680790	0.960261	0.408992
	N249	N	0.680770	0.031367	0.579864
	N250	N	0.322033	0.960621	0.580612
	N251	N	0.323779	0.030895	0.408297
	N252	N	0.914942	0.461580	0.174132
	N253	N	0.090518	0.530102	0.175130
	N254	N	0.088686	0.461139	0.812473
	N255	N	0.913244	0.529302	0.811583
	N256	N	0.180857	0.909786	0.458627
	N257	N	0.180621	0.082354	0.528189
	N258	N	0.821450	0.083531	0.458568
	N259	N	0.823700	0.911073	0.529683
	N260	N	0.467876	0.174214	0.907899
	N261	N	0.536693	0.175552	0.081628
	N262	N	0.467519	0.815224	0.080667
	N263	N	0.537694	0.815197	0.906829
	N264	N	0.466950	0.909051	0.172416
	N265	N	0.536931	0.082341	0.173723
	N266	N	0.467647	0.080555	0.816163
	N267	N	0.537957	0.908884	0.815574
	N268	N	0.912906	0.178810	0.459262
	N269	N	0.090075	0.178447	0.527293
	N270	N	0.090032	0.813918	0.459784
	N271	N	0.913670	0.814611	0.527709
	N272	N	0.181273	0.461003	0.906986
	N273	N	0.182797	0.530431	0.080931
	N274	N	0.823526	0.459799	0.078558
	N275	N	0.822185	0.530304	0.906805
	O276	O	-0.062820	0.763778	-0.058618
	H277	H	-0.082965	0.765350	-0.061127
	H278	H	-0.057588	0.761596	-0.051430
	O279	O	0.441828	0.490439	0.357953
	H280	H	0.447935	0.481964	0.364801
	H281	H	0.442046	0.497220	0.362826
	O282	O	0.831504	-0.024969	0.994370
	H283	H	0.836514	-0.032664	0.990508
	H284	H	0.843150	-0.051311	0.996260
	O285	O	0.561568	0.528053	0.527656
	H286	H	0.562404	0.516525	0.515649
	H287	H	0.561388	0.541341	0.541045
	O288	O	0.467919	0.274028	0.720330
	H289	H	0.465915	0.255763	0.727334
	H290	H	0.462396	0.272957	0.723306
	O291	O	0.279926	0.276039	0.526601
	H292	H	0.253195	0.252267	0.541960
	H293	H	0.283146	0.277990	0.563114
	O294	O	0.895378	0.101997	0.925662
	H295	H	0.897199	0.089080	0.936931
	H296	H	0.892894	0.099531	0.937236
	O297	O	0.477157	0.711250	0.276166
	H298	H	0.471024	0.713900	0.270320
	H299	H	0.455301	0.719016	0.270149
	O300	O	-0.051478	-0.124405	1.209349
	H301	H	-0.045409	-0.123321	1.206486
	H302	H	-0.045019	-0.138066	1.208428
	O303	O	0.686686	0.305686	0.687119
	H304	H	0.663753	0.321615	0.668060
	H305	H	0.669520	0.320126	0.665593
	O306	O	0.723204	0.277670	0.474049
	H307	H	0.730307	0.274507	0.437686
	H308	H	0.728307	0.258041	0.462159
	O309	O	0.333314	0.688591	0.660676
	H310	H	0.349883	0.673945	0.640834
	H311	H	0.353225	0.675292	0.649814
	O312	O	0.708225	0.705293	0.528826
	H313	H	0.701454	0.709892	0.515284
	H314	H	0.709243	0.706811	0.517733
	O315	O	1.088359	0.986221	0.943600
	H316	H	1.079094	0.996835	0.935377
	H317	H	1.093241	1.002870	0.957508
	O318	O	0.558386	0.724287	0.431532
	H319	H	0.540287	0.720448	0.434820
	H320	H	0.545299	0.721569	0.431362
	O321	O	0.226284	0.767333	0.763620
	H322	H	0.251238	0.741672	0.736323
	H323	H	0.207083	0.772958	0.766144
	O324	O	1.022831	0.774966	0.134882
	H325	H	1.030424	0.770075	0.116935
	H326	H	1.017985	0.775588	0.133368
	O327	O	-0.031686	0.224574	0.765050
	H328	H	-0.042713	0.251376	0.734407
	H329	H	-0.075533	0.220123	0.766925
	O330	O	0.303539	0.482718	0.316483
	H331	H	0.295254	0.484980	0.314016
	H332	H	0.291291	0.482378	0.312571
	O333	O	0.718974	0.461309	0.274406
	H334	H	0.727073	0.459602	0.265801
	H335	H	0.717826	0.475952	0.270747
	O336	O	0.559223	0.431309	0.723805
	H337	H	0.543487	0.428683	0.726812
	H338	H	0.553345	0.442786	0.721849
	O339	O	1.148369	-0.014934	0.839382
	H340	H	1.138031	-0.009804	0.832268
	H341	H	1.155770	-0.022849	0.831850
	O342	O	-0.218599	-0.228214	0.030886
	H343	H	-0.222331	-0.228932	0.056624
	H344	H	-0.240062	-0.248997	0.032407
	O345	O	-0.023399	0.932185	0.769173
	H346	H	-0.023306	0.935820	0.765947
	H347	H	-0.019358	0.922183	0.780156
	O348	O	0.209306	0.206059	0.204363
	H349	H	0.171805	0.195315	0.207687
	H350	H	0.206704	0.187075	0.176346
	O351	O	0.689734	0.687101	0.308123
	H352	H	0.680430	0.665060	0.333289
	H353	H	0.664192	0.678955	0.328227
	O354	O	0.211117	0.125176	1.031894
	H355	H	0.212125	0.113754	1.026683
	H356	H	0.212872	0.144439	1.047549
	O357	O	0.724728	0.557803	0.425800
	H358	H	0.726371	0.542294	0.444252
	H359	H	0.721653	0.542170	0.426159
	O360	O	0.300048	0.291226	0.700790
	H361	H	0.326811	0.309411	0.706221
	H362	H	0.267431	0.260059	0.734314
	O363	O	0.110284	-0.052881	0.140296
	H364	H	0.118640	-0.045395	0.133299
	H365	H	0.112484	-0.048123	0.143859
	O366	O	0.530430	0.718071	0.716719
	H367	H	0.547774	0.731458	0.729334
	H368	H	0.565118	0.721161	0.724772
	O369	O	0.716101	0.290211	0.279311
	H370	H	0.726678	0.321906	0.267588
	H371	H	0.686502	0.275832	0.275934
	O372	O	0.787491	1.056433	0.027658
	H373	H	0.784502	1.030228	0.029255
	H374	H	0.786570	1.043306	0.041896
	O375	O	0.974653	0.021153	0.232140
	H376	H	0.972756	0.010802	0.242207
	H377	H	0.965303	0.014534	0.233813
	O378	O	0.665213	0.378226	0.548720
	H379	H	0.677368	0.357120	0.535325
	H380	H	0.669801	0.398993	0.561211
	O381	O	0.029461	0.771649	0.772900
	H382	H	0.037005	0.778001	0.786158
	H383	H	0.034390	0.748102	0.751437
	O384	O	0.819481	-0.107826	0.852485
	H385	H	0.817433	-0.085971	0.858073
	H386	H	0.832218	-0.099281	0.848473
	O387	O	1.044533	1.227832	-0.077792
	H388	H	1.018451	1.215670	-0.091002
	H389	H	1.042102	1.232885	-0.097469
	O390	O	0.465863	0.388938	0.282660
	H391	H	0.466623	0.379824	0.268549
	H392	H	0.447167	0.406640	0.283256
	O393	O	0.293296	0.460324	0.708751
	H394	H	0.290504	0.449229	0.714187
	H395	H	0.284857	0.457110	0.707758
	O396	O	0.217137	0.955469	0.768548
	H397	H	0.224936	0.947778	0.756192
	H398	H	0.216266	0.946625	0.752574
	O399	O	0.178502	-0.037623	1.047445
	H400	H	0.177266	-0.032172	1.027560
	H401	H	0.174905	-0.043453	1.049896
	O402	O	0.453631	0.290721	0.425466
	H403	H	0.427709	0.298496	0.422489
	H404	H	0.445047	0.280533	0.413401
	O405	O	0.789731	0.182551	0.974157
	H406	H	0.784235	0.159041	0.992227
	H407	H	0.772356	0.185538	0.980900
	O408	O	0.215041	0.133571	0.013273
	H409	H	0.220225	0.128753	0.008297
	H410	H	0.206396	0.161073	0.006865
	O411	O	0.778048	0.762955	0.762459
	H412	H	0.799857	0.775150	0.750826
	H413	H	0.785039	0.779245	0.775929
	O414	O	0.578451	0.289823	0.318952
	H415	H	0.551189	0.299636	0.322625
	H416	H	0.574818	0.269257	0.295041
	O417	O	0.502187	0.277273	0.541543
	H418	H	0.491333	0.270383	0.527608
	H419	H	0.503561	0.277812	0.556481
	O420	O	0.427762	0.533930	0.440042
	H421	H	0.419259	0.535269	0.423835
	H422	H	0.425359	0.515284	0.442245
	O423	O	-0.042302	0.231956	1.057603
	H424	H	-0.067002	0.225183	1.054304
	H425	H	-0.025481	0.231863	1.038995
	O426	O	0.428527	0.702599	0.517557
	H427	H	0.433030	0.701170	0.533527
	H428	H	0.426637	0.699780	0.516117
	O429	O	0.779801	1.032763	0.766884
	H430	H	0.766620	1.060674	0.754498
	H431	H	0.769285	1.053870	0.756869
	O432	O	0.560219	0.461836	0.485641
	H433	H	0.552438	0.457043	0.484633
	H434	H	0.571490	0.445791	0.485463
	O435	O	0.187373	0.807043	0.185477
	H436	H	0.188873	0.814381	0.172711
	H437	H	0.165659	0.820783	0.172820
	O438	O	-0.214846	-0.038787	0.214365
	H439	H	-0.231560	-0.047010	0.235863
	H440	H	-0.214671	-0.068442	0.209408
	O441	O	0.035780	0.213917	0.210648
	H442	H	0.025977	0.212427	0.207647
	H443	H	0.025399	0.233842	0.209265
	O444	O	0.567271	0.551122	0.260454
	H445	H	0.551240	0.572753	0.266404
	H446	H	0.575102	0.544495	0.261166
	O447	O	0.076491	1.051133	1.053811
	H448	H	0.077146	1.057068	1.052064
	H449	H	0.075148	1.045821	1.054521
	O450	O	0.222972	0.765550	0.963020
	H451	H	0.251460	0.742863	0.952092
	H452	H	0.228288	0.775495	0.938995
	O453	O	0.450569	0.554839	0.724974
	H454	H	0.443933	0.563613	0.724846
	H455	H	0.451321	0.566625	0.730225
	O456	O	0.197565	0.194703	0.797654
	H457	H	0.187732	0.176562	0.826666
	H458	H	0.171010	0.170840	0.804458
	O459	O	0.792105	0.782575	0.204079
	H460	H	0.786330	0.765855	0.212602
	H461	H	0.796551	0.772842	0.222017
	O462	O	0.658076	0.647203	0.628602
	H463	H	0.664165	0.645461	0.603455
	H464	H	0.677550	0.655139	0.647199
	O465	O	0.822529	0.182606	0.178845
	H466	H	0.813954	0.173693	0.174655
	H467	H	0.839981	0.171024	0.181765
	O468	O	0.293710	0.709792	0.459429
	H469	H	0.290345	0.711016	0.460725
	H470	H	0.293044	0.714126	0.465063
	O471	O	0.287880	0.536532	0.559643
	H472	H	0.287730	0.529045	0.561012
	H473	H	0.282997	0.514317	0.542044
	O474	O	0.300019	0.705941	0.285382
	H475	H	0.304247	0.704854	0.312882
	H476	H	0.280708	0.715711	0.272959
	O477	O	0.313612	0.305354	1.303429
	H478	H	0.313368	0.301717	1.294551
	H479	H	0.302649	0.290125	1.287011
	O480	O	0.326292	0.441909	0.441472
	H481	H	0.327039	0.427189	0.435667
	H482	H	0.327113	0.422297	0.441511
	O483	O	0.712990	0.531495	0.711054
	H484	H	0.712836	0.537951	0.718637
	H485	H	0.716166	0.543453	0.728815
	O486	O	0.988910	0.057274	0.799374
	H487	H	0.958652	0.055747	0.804844
	H488	H	0.980943	0.066452	0.788287
	O489	O	1.041579	0.815962	-0.023099
	H490	H	1.041773	0.810458	-0.013997
	H491	H	1.050018	0.814528	-0.028470
	O492	O	0.218702	0.032996	0.217908
	H493	H	0.198692	0.033652	0.202197
	H494	H	0.254379	0.029865	0.250833
	O495	O	-0.045364	0.933261	1.059352
	H496	H	-0.042772	0.935420	1.063913
	H497	H	-0.038806	0.925172	1.057005
	O498	O	0.795626	1.209892	0.778558
	H499	H	0.758670	1.243353	0.751869
	H500	H	0.789522	1.214977	0.832514
	O501	O	0.505658	0.476239	0.525261
	H502	H	0.500409	0.463565	0.518048
	H503	H	0.507769	0.465855	0.519297
