data_Molecule from HDF5

_cell_length_a		16.358260
_cell_length_b		16.215274
_cell_length_c		16.151277
_cell_angle_alpha	90.098326
_cell_angle_beta	89.928807
_cell_angle_gamma	90.088574
_symmetry_space_group_name_H-M	'P 1'
_symmetry_Int_Tables_number		1

loop_
	_symmetry_equiv_pos_as_xyz
	x,y,z

loop_
	_atom_site_label
	_atom_site_type_symbol
	_atom_site_fract_x
	_atom_site_fract_y
	_atom_site_fract_z
	H0	H	0.405479	0.839432	0.707584
	H1	H	0.599560	0.169381	0.708403
	H2	H	0.598166	0.839159	0.283565
	H3	H	0.407112	0.169581	0.283621
	H4	H	0.718225	0.405402	0.829486
	H5	H	0.717799	0.604221	0.159580
	H6	H	0.290902	0.603482	0.829632
	H7	H	0.288694	0.405437	0.159053
	H8	H	0.840863	0.719740	0.394532
	H9	H	0.166301	0.720747	0.592796
	H10	H	0.839389	0.291850	0.591569
	H11	H	0.166683	0.289485	0.396513
	H12	H	0.840581	0.407644	0.708852
	H13	H	0.167761	0.601665	0.707133
	H14	H	0.840499	0.601708	0.280612
	H15	H	0.167653	0.406585	0.280256
	H16	H	0.407696	0.717906	0.829705
	H17	H	0.599470	0.716284	0.160677
	H18	H	0.601397	0.291041	0.829561
	H19	H	0.407313	0.293705	0.161293
	H20	H	0.718326	0.840968	0.394219
	H21	H	0.717852	0.168031	0.595838
	H22	H	0.286706	0.840952	0.595495
	H23	H	0.289151	0.169115	0.396101
	H24	H	0.907197	0.339231	0.205516
	H25	H	0.100364	0.669186	0.206589
	H26	H	0.100691	0.339053	0.782222
	H27	H	0.909985	0.669867	0.783221
	H28	H	0.218505	0.904037	0.330833
	H29	H	0.216337	0.104171	0.659374
	H30	H	0.788957	0.103081	0.330491
	H31	H	0.787660	0.904152	0.659357
	H32	H	0.340434	0.219784	0.897601
	H33	H	0.666357	0.219911	0.094993
	H34	H	0.341201	0.788764	0.094493
	H35	H	0.667300	0.791280	0.896177
	H36	H	0.339118	0.908478	0.207636
	H37	H	0.666058	0.102212	0.209773
	H38	H	0.339303	0.102230	0.782454
	H39	H	0.665992	0.906104	0.779117
	H40	H	0.906897	0.215964	0.329737
	H41	H	0.098526	0.216523	0.659832
	H42	H	0.099489	0.792989	0.329026
	H43	H	0.904473	0.790427	0.659538
	H44	H	0.220240	0.341013	0.892581
	H45	H	0.217722	0.668452	0.093344
	H46	H	0.789504	0.341338	0.092464
	H47	H	0.788892	0.668724	0.893335
	H48	H	0.403851	0.122267	0.586025
	H49	H	0.589555	0.886079	0.597662
	H50	H	0.608138	0.125333	0.400808
	H51	H	0.412346	0.886927	0.398607
	H52	H	0.603014	0.406130	0.115291
	H53	H	0.603937	0.599274	0.873751
	H54	H	0.405628	0.594825	0.112483
	H55	H	0.406003	0.412060	0.875890
	H56	H	0.118624	0.602373	0.408466
	H57	H	0.890253	0.593949	0.580945
	H58	H	0.123158	0.406948	0.596611
	H59	H	0.884438	0.404770	0.395420
	H60	H	0.120111	0.402852	0.580828
	H61	H	0.887650	0.592381	0.594796
	H62	H	0.118262	0.591421	0.399136
	H63	H	0.889012	0.408634	0.406887
	H64	H	0.413266	0.594497	0.111252
	H65	H	0.597696	0.592025	0.878432
	H66	H	0.601947	0.421524	0.110817
	H67	H	0.413765	0.416951	0.879292
	H68	H	0.588288	0.121784	0.394587
	H69	H	0.590384	0.892159	0.577286
	H70	H	0.407765	0.124250	0.594531
	H71	H	0.409399	0.888652	0.407453
	H72	H	0.911645	0.623121	0.090403
	H73	H	0.086084	0.391605	0.081665
	H74	H	0.102021	0.621766	0.904954
	H75	H	0.924803	0.388797	0.892762
	H76	H	0.087723	0.916594	0.609316
	H77	H	0.096515	0.095574	0.376305
	H78	H	0.907905	0.091784	0.611674
	H79	H	0.908735	0.913390	0.376985
	H80	H	0.620228	0.096371	0.896689
	H81	H	0.385012	0.105206	0.088342
	H82	H	0.621197	0.905048	0.088014
	H83	H	0.385121	0.903535	0.901388
	H84	H	0.618225	0.914834	0.085043
	H85	H	0.388236	0.096436	0.086691
	H86	H	0.619928	0.103611	0.904444
	H87	H	0.389669	0.911886	0.908414
	H88	H	0.913763	0.100247	0.612820
	H89	H	0.096709	0.097095	0.375846
	H90	H	0.095036	0.902877	0.615131
	H91	H	0.910110	0.911297	0.377339
	H92	H	0.101173	0.623750	0.897093
	H93	H	0.109056	0.385771	0.078014
	H94	H	0.912152	0.621576	0.085116
	H95	H	0.909876	0.392766	0.919786
	H96	H	0.412677	0.120298	0.586559
	H97	H	0.607769	0.883822	0.586953
	H98	H	0.594125	0.117993	0.414383
	H99	H	0.403815	0.885591	0.400670
	H100	H	0.588837	0.411404	0.110287
	H101	H	0.593881	0.601787	0.876900
	H102	H	0.410863	0.600817	0.113898
	H103	H	0.414204	0.407575	0.876659
	H104	H	0.123981	0.604242	0.394880
	H105	H	0.885784	0.604740	0.588668
	H106	H	0.117521	0.418887	0.586029
	H107	H	0.888444	0.417017	0.397192
	H108	H	0.906461	0.622585	0.087107
	H109	H	0.099022	0.382419	0.099785
	H110	H	0.094492	0.620891	0.900957
	H111	H	0.895049	0.381439	0.894629
	H112	H	0.103762	0.917237	0.613522
	H113	H	0.098412	0.096327	0.376617
	H114	H	0.903235	0.100394	0.615270
	H115	H	0.908285	0.911391	0.376490
	H116	H	0.617725	0.093487	0.906154
	H117	H	0.385534	0.098354	0.095388
	H118	H	0.620953	0.913012	0.094962
	H119	H	0.386952	0.914614	0.897373
	C120	C	0.380564	0.013161	0.617024
	C121	C	0.623950	0.996055	0.616184
	C122	C	0.624507	0.012798	0.374245
	C123	C	0.381041	0.995928	0.374043
	C124	C	0.625896	0.383395	0.003154
	C125	C	0.625709	0.626123	0.985723
	C126	C	0.382728	0.625495	0.003116
	C127	C	0.383000	0.383862	0.986535
	C128	C	0.012255	0.626981	0.372309
	C129	C	0.995670	0.625995	0.616223
	C130	C	0.012031	0.382287	0.616300
	C131	C	0.995477	0.381991	0.371972
	C132	C	0.882063	0.513821	0.115685
	C133	C	0.125800	0.495794	0.115107
	C134	C	0.126500	0.513077	0.872625
	C135	C	0.882395	0.496194	0.873538
	C136	C	0.123898	0.883759	0.503380
	C137	C	0.124071	0.124822	0.485943
	C138	C	0.881093	0.125302	0.503878
	C139	C	0.880696	0.882843	0.485955
	C140	C	0.511518	0.126124	0.874212
	C141	C	0.494360	0.127509	0.117906
	C142	C	0.512038	0.882990	0.116965
	C143	C	0.495502	0.882376	0.873789
	C144	C	0.384388	0.888960	0.670971
	C145	C	0.620479	0.120130	0.670914
	C146	C	0.619814	0.888650	0.320214
	C147	C	0.385229	0.120321	0.320188
	C148	C	0.680233	0.385691	0.878794
	C149	C	0.679972	0.623989	0.110266
	C150	C	0.328537	0.623595	0.878961
	C151	C	0.327228	0.385753	0.110278
	C152	C	0.889457	0.681281	0.374791
	C153	C	0.118066	0.681807	0.613079
	C154	C	0.888639	0.328416	0.613329
	C155	C	0.118130	0.327399	0.375391
	C156	C	0.889205	0.386050	0.671462
	C157	C	0.118794	0.622950	0.670029
	C158	C	0.889501	0.622873	0.317772
	C159	C	0.118633	0.385560	0.317743
	C160	C	0.386710	0.680177	0.878928
	C161	C	0.621402	0.679674	0.110944
	C162	C	0.622473	0.328392	0.878932
	C163	C	0.386265	0.330385	0.111372
	C164	C	0.679093	0.889433	0.375855
	C165	C	0.679300	0.119364	0.615039
	C166	C	0.325240	0.889646	0.615266
	C167	C	0.326865	0.120068	0.376341
	C168	C	0.885929	0.389052	0.168966
	C169	C	0.121424	0.619892	0.169141
	C170	C	0.122527	0.388709	0.818594
	C171	C	0.887555	0.620479	0.819493
	C172	C	0.179635	0.884959	0.379696
	C173	C	0.178311	0.123349	0.610210
	C174	C	0.826873	0.122798	0.379530
	C175	C	0.825196	0.883970	0.609973
	C176	C	0.388852	0.181496	0.876991
	C177	C	0.617658	0.182017	0.115238
	C178	C	0.389411	0.827246	0.114917
	C179	C	0.618372	0.828199	0.875754
	C180	C	0.388345	0.887006	0.170740
	C181	C	0.617648	0.123640	0.172287
	C182	C	0.388216	0.122994	0.819937
	C183	C	0.617811	0.885529	0.817753
	C184	C	0.885151	0.179257	0.379148
	C185	C	0.120066	0.179544	0.610317
	C186	C	0.120625	0.829687	0.378718
	C187	C	0.883501	0.827566	0.610090
	C188	C	0.181686	0.389661	0.873635
	C189	C	0.180295	0.619364	0.113567
	C190	C	0.827204	0.390044	0.113155
	C191	C	0.827830	0.620064	0.874381
	C192	C	0.401868	0.099856	0.595442
	C193	C	0.602132	0.909660	0.593903
	C194	C	0.603266	0.099522	0.396538
	C195	C	0.402184	0.909484	0.395762
	C196	C	0.604252	0.406280	0.089918
	C197	C	0.604799	0.604300	0.898876
	C198	C	0.403657	0.603234	0.090078
	C199	C	0.404952	0.405674	0.899592
	C200	C	0.098458	0.605681	0.394273
	C201	C	0.909956	0.603632	0.594562
	C202	C	0.098056	0.403274	0.594365
	C203	C	0.909521	0.403534	0.393408
	C204	C	0.903621	0.600086	0.094014
	C205	C	0.104556	0.408784	0.092917
	C206	C	0.105471	0.599763	0.894660
	C207	C	0.903529	0.409969	0.895738
	C208	C	0.101856	0.905654	0.590250
	C209	C	0.103275	0.102847	0.398674
	C210	C	0.902088	0.103817	0.590718
	C211	C	0.902432	0.905403	0.399213
	C212	C	0.596965	0.104169	0.896129
	C213	C	0.408630	0.106437	0.096331
	C214	C	0.597889	0.904542	0.095655
	C215	C	0.409374	0.903739	0.895967
	Zn216	Zn	0.502528	0.004337	0.745128
	Zn217	Zn	0.502675	0.004723	0.246309
	Zn218	Zn	0.753887	0.505499	-0.005597
	Zn219	Zn	0.254081	0.504268	-0.005894
	Zn220	Zn	0.002746	0.755678	0.494260
	Zn221	Zn	0.002878	0.253211	0.494083
	Zn222	Zn	0.004660	0.504185	0.745395
	Zn223	Zn	0.004270	0.504491	0.243587
	Zn224	Zn	0.504334	0.753497	-0.004679
	Zn225	Zn	0.503608	0.255967	-0.004388
	Zn226	Zn	0.752949	0.004293	0.495482
	Zn227	Zn	0.252543	0.004721	0.495121
	N228	N	0.418026	0.966863	0.672230
	N229	N	0.586615	0.042347	0.671815
	N230	N	0.586379	0.966499	0.319209
	N231	N	0.418287	0.042406	0.318642
	N232	N	0.682603	0.418955	0.957258
	N233	N	0.682782	0.591421	0.031523
	N234	N	0.326033	0.590249	0.957257
	N235	N	0.325245	0.418457	0.031614
	N236	N	0.966980	0.683879	0.407842
	N237	N	0.040192	0.684090	0.580573
	N238	N	0.965974	0.326008	0.579664
	N239	N	0.040648	0.325344	0.408491
	N240	N	0.966956	0.418677	0.673374
	N241	N	0.041745	0.588949	0.671974
	N242	N	0.967007	0.589803	0.316183
	N243	N	0.041270	0.418675	0.315434
	N244	N	0.419812	0.681262	0.957096
	N245	N	0.588128	0.680914	0.032783
	N246	N	0.589429	0.326893	0.957326
	N247	N	0.420174	0.329092	0.033231
	N248	N	0.681827	0.967622	0.408738
	N249	N	0.681550	0.041190	0.581849
	N250	N	0.322806	0.967829	0.582336
	N251	N	0.324311	0.041810	0.409290
	N252	N	0.919406	0.467061	0.170838
	N253	N	0.088192	0.541874	0.170309
	N254	N	0.088829	0.466527	0.817678
	N255	N	0.920942	0.542572	0.818909
	N256	N	0.181807	0.917780	0.458325
	N257	N	0.180938	0.090436	0.531749
	N258	N	0.824124	0.090338	0.458186
	N259	N	0.823340	0.917579	0.531708
	N260	N	0.466380	0.183705	0.909905
	N261	N	0.540044	0.184684	0.082474
	N262	N	0.467048	0.824672	0.082228
	N263	N	0.541077	0.826106	0.909764
	N264	N	0.465560	0.920880	0.172425
	N265	N	0.540179	0.090381	0.174230
	N266	N	0.465445	0.089194	0.818113
	N267	N	0.540335	0.918359	0.816355
	N268	N	0.918084	0.181134	0.457404
	N269	N	0.086858	0.180565	0.531945
	N270	N	0.086407	0.828902	0.456683
	N271	N	0.917199	0.826788	0.532017
	N272	N	0.184200	0.468041	0.906542
	N273	N	0.182829	0.541037	0.080437
	N274	N	0.824606	0.468311	0.080728
	N275	N	0.824476	0.541938	0.907354
	O276	O	-0.504814	-0.479229	1.520126
	H277	H	-0.497402	-0.483878	1.512521
	H278	H	-0.511158	-0.466142	1.519581
	O279	O	0.539472	0.497084	0.530076
	H280	H	0.545690	0.492972	0.530682
	H281	H	0.544050	0.496340	0.531251
	O282	O	0.512424	0.500997	0.502883
	H283	H	0.513569	0.502977	0.494525
	H284	H	0.514454	0.498925	0.504819
	O285	O	0.993958	1.050512	0.019122
	H286	H	0.992847	1.054559	0.018121
	H287	H	0.991974	1.046581	0.017128
	O288	O	0.544385	0.511940	0.516193
	H289	H	0.535478	0.503879	0.509637
	H290	H	0.540773	0.510879	0.522264
	O291	O	-0.443851	0.538919	1.490153
	H292	H	-0.443989	0.531070	1.482624
	H293	H	-0.443584	0.551763	1.486981
	O294	O	0.510937	0.460737	0.505084
	H295	H	0.511936	0.464383	0.507646
	H296	H	0.515616	0.457608	0.514236
	O297	O	0.992380	0.040656	-0.004589
	H298	H	0.992623	0.049226	-0.011652
	H299	H	0.991833	0.040374	-0.004101
