data_Molecule from HDF5

_cell_length_a		16.207687
_cell_length_b		16.208976
_cell_length_c		16.179978
_cell_angle_alpha	90.408046
_cell_angle_beta	90.442155
_cell_angle_gamma	89.725502
_symmetry_space_group_name_H-M	'P 1'
_symmetry_Int_Tables_number		1

loop_
	_symmetry_equiv_pos_as_xyz
	x,y,z

loop_
	_atom_site_label
	_atom_site_type_symbol
	_atom_site_fract_x
	_atom_site_fract_y
	_atom_site_fract_z
	H0	H	0.409374	0.836763	0.705606
	H1	H	0.605435	0.164706	0.712342
	H2	H	0.604117	0.837310	0.279558
	H3	H	0.405959	0.167000	0.283785
	H4	H	0.720054	0.400695	0.830667
	H5	H	0.720337	0.600598	0.160590
	H6	H	0.287224	0.601294	0.832890
	H7	H	0.296200	0.404798	0.161891
	H8	H	0.841172	0.715712	0.396860
	H9	H	0.169676	0.716243	0.599298
	H10	H	0.841635	0.288683	0.593777
	H11	H	0.169495	0.284521	0.397023
	H12	H	0.841019	0.403596	0.708460
	H13	H	0.169574	0.600139	0.713749
	H14	H	0.841677	0.600597	0.281396
	H15	H	0.171200	0.400700	0.284174
	H16	H	0.403732	0.713874	0.830703
	H17	H	0.606376	0.718214	0.159169
	H18	H	0.603258	0.285177	0.831014
	H19	H	0.411650	0.290572	0.160714
	H20	H	0.721181	0.837343	0.394467
	H21	H	0.717765	0.166523	0.594771
	H22	H	0.293657	0.837649	0.591385
	H23	H	0.288706	0.165277	0.394632
	H24	H	0.910565	0.336445	0.208350
	H25	H	0.104905	0.665721	0.213018
	H26	H	0.104123	0.337683	0.782135
	H27	H	0.905016	0.665741	0.783507
	H28	H	0.219054	0.900450	0.330104
	H29	H	0.221186	0.100680	0.659419
	H30	H	0.789350	0.099803	0.330528
	H31	H	0.793698	0.904157	0.660669
	H32	H	0.340929	0.215293	0.896340
	H33	H	0.670657	0.213541	0.095086
	H34	H	0.340204	0.789448	0.091987
	H35	H	0.668793	0.785045	0.896713
	H36	H	0.340068	0.905740	0.205666
	H37	H	0.668892	0.099559	0.211398
	H38	H	0.341405	0.100452	0.780325
	H39	H	0.670020	0.900612	0.782253
	H40	H	0.904622	0.216683	0.331251
	H41	H	0.104430	0.215990	0.660117
	H42	H	0.103960	0.782914	0.331998
	H43	H	0.908850	0.789833	0.660773
	H44	H	0.219565	0.337110	0.898474
	H45	H	0.219837	0.665896	0.097357
	H46	H	0.793404	0.336747	0.094032
	H47	H	0.790105	0.665623	0.898701
	H48	H	0.407302	0.123171	0.594282
	H49	H	0.593064	0.882417	0.597506
	H50	H	0.601391	0.120607	0.401093
	H51	H	0.416359	0.886736	0.405601
	H52	H	0.605605	0.408652	0.114243
	H53	H	0.594263	0.593050	0.878883
	H54	H	0.419121	0.586817	0.109822
	H55	H	0.416677	0.408746	0.878925
	H56	H	0.125654	0.599144	0.404081
	H57	H	0.888490	0.589338	0.593835
	H58	H	0.122335	0.413003	0.591292
	H59	H	0.886879	0.404693	0.402794
	H60	H	0.124526	0.406514	0.592828
	H61	H	0.885337	0.603435	0.592135
	H62	H	0.121530	0.591729	0.412734
	H63	H	0.891475	0.413386	0.406870
	H64	H	0.421345	0.606188	0.115247
	H65	H	0.599115	0.594223	0.877110
	H66	H	0.598122	0.410283	0.112700
	H67	H	0.410043	0.403324	0.876099
	H68	H	0.594892	0.118395	0.402315
	H69	H	0.598281	0.887288	0.578060
	H70	H	0.421769	0.118022	0.591438
	H71	H	0.408106	0.882880	0.401550
	H72	H	0.902502	0.619067	0.081767
	H73	H	0.105225	0.382541	0.090102
	H74	H	0.111839	0.623015	0.910023
	H75	H	0.922651	0.384314	0.895552
	H76	H	0.099634	0.912685	0.611949
	H77	H	0.101429	0.089065	0.377144
	H78	H	0.910528	0.094820	0.613195
	H79	H	0.916224	0.914137	0.381060
	H80	H	0.624205	0.097271	0.905244
	H81	H	0.388774	0.095345	0.083120
	H82	H	0.622428	0.913184	0.093059
	H83	H	0.388688	0.909445	0.902401
	H84	H	0.625025	0.902936	0.088472
	H85	H	0.386591	0.094143	0.094074
	H86	H	0.621530	0.090910	0.906568
	H87	H	0.386783	0.910486	0.896741
	H88	H	0.915205	0.095458	0.612014
	H89	H	0.090891	0.091742	0.380202
	H90	H	0.100052	0.906477	0.613612
	H91	H	0.916736	0.901531	0.377344
	H92	H	0.092624	0.622804	0.891633
	H93	H	0.100891	0.382097	0.093960
	H94	H	0.912450	0.623285	0.101317
	H95	H	0.913466	0.386421	0.912522
	H96	H	0.410850	0.117849	0.580519
	H97	H	0.612306	0.879203	0.590641
	H98	H	0.599280	0.117751	0.407661
	H99	H	0.416212	0.883553	0.395317
	H100	H	0.600343	0.403758	0.114340
	H101	H	0.598679	0.589457	0.877474
	H102	H	0.403741	0.597392	0.116748
	H103	H	0.408332	0.411773	0.878691
	H104	H	0.123026	0.588312	0.401158
	H105	H	0.890377	0.594876	0.581423
	H106	H	0.122898	0.407121	0.586373
	H107	H	0.888467	0.412471	0.397021
	H108	H	0.924534	0.614179	0.084889
	H109	H	0.100192	0.384703	0.087984
	H110	H	0.087754	0.613129	0.916238
	H111	H	0.904419	0.379722	0.897297
	H112	H	0.104850	0.910474	0.613884
	H113	H	0.097728	0.098605	0.375247
	H114	H	0.912510	0.098508	0.614942
	H115	H	0.906251	0.908470	0.376436
	H116	H	0.624340	0.091747	0.900485
	H117	H	0.385177	0.104137	0.089443
	H118	H	0.619353	0.912023	0.082142
	H119	H	0.384998	0.904153	0.899079
	C120	C	0.384981	0.010788	0.616084
	C121	C	0.628542	0.992372	0.617657
	C122	C	0.626960	0.010299	0.373957
	C123	C	0.383890	0.993108	0.373158
	C124	C	0.628855	0.378652	0.004734
	C125	C	0.626976	0.622374	0.986466
	C126	C	0.384425	0.623996	0.004999
	C127	C	0.385221	0.380549	0.987177
	C128	C	0.014446	0.622223	0.376018
	C129	C	0.996736	0.624238	0.619245
	C130	C	0.014404	0.380779	0.617700
	C131	C	0.997708	0.380015	0.374377
	C132	C	0.885448	0.509808	0.117281
	C133	C	0.129651	0.492074	0.120033
	C134	C	0.126547	0.510690	0.876321
	C135	C	0.883584	0.492481	0.874216
	C136	C	0.128666	0.879287	0.504196
	C137	C	0.126443	0.122418	0.486313
	C138	C	0.883353	0.124144	0.504348
	C139	C	0.884959	0.880255	0.487239
	C140	C	0.514520	0.122467	0.874425
	C141	C	0.496256	0.124514	0.117698
	C142	C	0.513175	0.881234	0.115866
	C143	C	0.496055	0.878811	0.872284
	C144	C	0.388632	0.886350	0.669052
	C145	C	0.625460	0.115982	0.673740
	C146	C	0.624315	0.886380	0.317726
	C147	C	0.385242	0.117287	0.319598
	C148	C	0.682554	0.380649	0.880066
	C149	C	0.682609	0.620900	0.110991
	C150	C	0.326780	0.621029	0.881516
	C151	C	0.332600	0.384096	0.111939
	C152	C	0.890577	0.677947	0.377002
	C153	C	0.120778	0.678496	0.618479
	C154	C	0.890502	0.326434	0.614107
	C155	C	0.120921	0.323388	0.377574
	C156	C	0.890309	0.383615	0.671197
	C157	C	0.120538	0.620763	0.675581
	C158	C	0.890923	0.621007	0.319168
	C159	C	0.121676	0.380761	0.320611
	C160	C	0.384584	0.677459	0.880607
	C161	C	0.625891	0.679380	0.110279
	C162	C	0.625296	0.322646	0.880390
	C163	C	0.390007	0.327225	0.111543
	C164	C	0.682451	0.886185	0.374874
	C165	C	0.681481	0.116741	0.615274
	C166	C	0.331049	0.886790	0.612252
	C167	C	0.327383	0.116672	0.375239
	C168	C	0.889362	0.385806	0.171342
	C169	C	0.125889	0.616528	0.175242
	C170	C	0.124605	0.386698	0.820485
	C171	C	0.885117	0.616559	0.820711
	C172	C	0.181986	0.880210	0.379602
	C173	C	0.182767	0.120698	0.610433
	C174	C	0.827254	0.120714	0.380028
	C175	C	0.831085	0.884103	0.611470
	C176	C	0.390413	0.177872	0.875981
	C177	C	0.620919	0.176962	0.115389
	C178	C	0.389625	0.826721	0.112451
	C179	C	0.619803	0.823251	0.876115
	C180	C	0.389452	0.884560	0.169170
	C181	C	0.620116	0.120286	0.173133
	C182	C	0.390508	0.120514	0.818467
	C183	C	0.620459	0.880438	0.819127
	C184	C	0.884452	0.178925	0.380301
	C185	C	0.124984	0.178132	0.610822
	C186	C	0.124796	0.821936	0.380702
	C187	C	0.888571	0.827308	0.611685
	C188	C	0.182037	0.386544	0.878316
	C189	C	0.182937	0.616564	0.117713
	C190	C	0.831186	0.385940	0.114419
	C191	C	0.827823	0.616380	0.877692
	C192	C	0.406757	0.097226	0.595058
	C193	C	0.607482	0.905440	0.595384
	C194	C	0.605089	0.096690	0.396916
	C195	C	0.406804	0.906925	0.394769
	C196	C	0.607790	0.401079	0.091299
	C197	C	0.604172	0.599097	0.900167
	C198	C	0.407823	0.603142	0.091537
	C199	C	0.405501	0.401708	0.900316
	C200	C	0.100914	0.599821	0.399152
	C201	C	0.910407	0.602514	0.595876
	C202	C	0.100862	0.402468	0.596454
	C203	C	0.911445	0.403481	0.395816
	C204	C	0.906930	0.596525	0.095798
	C205	C	0.108239	0.405507	0.097537
	C206	C	0.104226	0.597152	0.899181
	C207	C	0.906822	0.405866	0.895451
	C208	C	0.107690	0.902902	0.590734
	C209	C	0.103352	0.099771	0.399984
	C210	C	0.906092	0.102680	0.590928
	C211	C	0.906647	0.901616	0.400518
	C212	C	0.600948	0.099915	0.897323
	C213	C	0.409277	0.104026	0.095411
	C214	C	0.600051	0.902850	0.094338
	C215	C	0.409372	0.901318	0.893048
	Zn216	Zn	0.505883	0.001019	0.745420
	Zn217	Zn	0.504267	0.002305	0.245258
	Zn218	Zn	0.756330	0.501091	-0.004166
	Zn219	Zn	0.256827	0.502151	-0.002548
	Zn220	Zn	0.005812	0.751619	0.496914
	Zn221	Zn	0.005423	0.252329	0.495999
	Zn222	Zn	0.005036	0.501884	0.746498
	Zn223	Zn	0.006700	0.501478	0.246432
	Zn224	Zn	0.505119	0.751873	-0.005303
	Zn225	Zn	0.505691	0.251502	-0.004322
	Zn226	Zn	0.755886	0.001265	0.495493
	Zn227	Zn	0.256630	0.002044	0.494185
	N228	N	0.421796	0.964403	0.671398
	N229	N	0.593269	0.037574	0.675489
	N230	N	0.590479	0.964568	0.317053
	N231	N	0.419838	0.039525	0.318154
	N232	N	0.685026	0.414572	0.958220
	N233	N	0.683395	0.586213	0.033149
	N234	N	0.326482	0.588542	0.959762
	N235	N	0.329629	0.416923	0.033699
	N236	N	0.968528	0.678988	0.411618
	N237	N	0.042879	0.680587	0.584089
	N238	N	0.968618	0.324572	0.581419
	N239	N	0.042603	0.322519	0.409909
	N240	N	0.968336	0.416524	0.673604
	N241	N	0.042370	0.587742	0.676000
	N242	N	0.968859	0.586912	0.318635
	N243	N	0.043987	0.415495	0.318571
	N244	N	0.419877	0.679243	0.958434
	N245	N	0.591782	0.680405	0.032057
	N246	N	0.592611	0.321276	0.958723
	N247	N	0.421924	0.324855	0.033033
	N248	N	0.684122	0.963890	0.409269
	N249	N	0.683626	0.038571	0.581341
	N250	N	0.328806	0.965071	0.579874
	N251	N	0.326126	0.038487	0.407773
	N252	N	0.922488	0.463921	0.172929
	N253	N	0.093462	0.538119	0.176789
	N254	N	0.090897	0.464842	0.819070
	N255	N	0.918858	0.538405	0.818339
	N256	N	0.184552	0.915104	0.457398
	N257	N	0.183710	0.086715	0.532218
	N258	N	0.826244	0.087527	0.458238
	N259	N	0.828843	0.916609	0.533020
	N260	N	0.468531	0.178996	0.910126
	N261	N	0.542806	0.179911	0.081891
	N262	N	0.467972	0.824428	0.080077
	N263	N	0.541535	0.822092	0.908358
	N264	N	0.467392	0.917802	0.171324
	N265	N	0.541700	0.088286	0.174606
	N266	N	0.468620	0.086783	0.817370
	N267	N	0.542420	0.914415	0.816764
	N268	N	0.918565	0.181104	0.458531
	N269	N	0.090748	0.179485	0.532781
	N270	N	0.092654	0.821179	0.459200
	N271	N	0.921331	0.824776	0.533449
	N272	N	0.183432	0.464688	0.912370
	N273	N	0.185506	0.538294	0.084271
	N274	N	0.828522	0.464037	0.081752
	N275	N	0.826719	0.538156	0.910135
	O276	O	0.464701	0.393364	0.438962
	H277	H	0.463808	0.386571	0.441862
	H278	H	0.462678	0.390126	0.444410
	O279	O	0.478472	0.511269	0.386199
	H280	H	0.470787	0.512284	0.384309
	H281	H	0.477682	0.510011	0.390163
	O282	O	0.470100	0.537224	0.531245
	H283	H	0.473281	0.548185	0.537994
	H284	H	0.490460	0.542317	0.538137
	O285	O	-0.552295	1.495672	1.481677
	H286	H	-0.544561	1.499216	1.495781
	H287	H	-0.556255	1.489501	1.486040
	O288	O	0.439671	0.563547	0.575666
	H289	H	0.434603	0.574330	0.580684
	H290	H	0.426211	0.556756	0.559900
	O291	O	-0.475865	-0.437473	1.421868
	H292	H	-0.471536	-0.443261	1.423945
	H293	H	-0.483929	-0.424717	1.418375
	O294	O	0.470281	0.511218	0.551755
	H295	H	0.464705	0.503137	0.543231
	H296	H	0.462985	0.512765	0.550412
	O297	O	0.456697	0.490712	0.421921
	H298	H	0.455384	0.490647	0.416014
	H299	H	0.467830	0.498997	0.438168
	O300	O	0.520139	0.547596	0.550812
	H301	H	0.504891	0.561546	0.557672
	H302	H	0.518853	0.555551	0.550780
	O303	O	0.480803	0.486349	0.612226
	H304	H	0.477420	0.489430	0.598042
	H305	H	0.473062	0.487205	0.610710
	O306	O	0.902495	0.010707	0.925377
	H307	H	0.895995	0.015292	0.925631
	H308	H	0.898796	0.009424	0.932927
	O309	O	0.496788	0.554963	0.491939
	H310	H	0.488239	0.553871	0.498738
	H311	H	0.508587	0.561805	0.477675
	O312	O	0.474334	0.493271	0.451537
	H313	H	0.481391	0.487296	0.440569
	H314	H	0.482588	0.490971	0.448359
	O315	O	0.979847	-0.032832	0.918952
	H316	H	0.976798	-0.023581	0.922186
	H317	H	0.985040	-0.037338	0.913005
	O318	O	-0.034390	0.002668	-0.113318
	H319	H	-0.034194	0.002007	-0.111568
	H320	H	-0.031321	-0.000254	-0.125316
	O321	O	0.630088	0.549036	0.483212
	H322	H	0.621932	0.560119	0.483416
	H323	H	0.633322	0.545713	0.472815
	O324	O	0.944273	0.001958	-0.087491
	H325	H	0.939340	0.001930	-0.089862
	H326	H	0.945440	0.005139	-0.096271
	O327	O	0.949083	0.984632	-0.083253
	H328	H	0.938977	0.978555	-0.088195
	H329	H	0.954038	0.978072	-0.082783
	O330	O	0.522616	0.418022	0.491955
	H331	H	0.526407	0.418441	0.491693
	H332	H	0.531750	0.407670	0.493516
	O333	O	0.555417	0.549458	0.431694
	H334	H	0.555053	0.545306	0.419114
	H335	H	0.561588	0.533392	0.432809
