data_Molecule from HDF5

_cell_length_a		16.651549
_cell_length_b		16.567350
_cell_length_c		16.473519
_cell_angle_alpha	90.047293
_cell_angle_beta	89.970247
_cell_angle_gamma	90.050224
_symmetry_space_group_name_H-M	'P 1'
_symmetry_Int_Tables_number		1

loop_
	_symmetry_equiv_pos_as_xyz
	x,y,z

loop_
	_atom_site_label
	_atom_site_type_symbol
	_atom_site_fract_x
	_atom_site_fract_y
	_atom_site_fract_z
	H0	H	0.387729	0.841123	0.691188
	H1	H	0.596326	0.154772	0.695752
	H2	H	0.591831	0.840516	0.254418
	H3	H	0.389408	0.156904	0.252611
	H4	H	0.712003	0.394277	0.815101
	H5	H	0.708916	0.600893	0.130815
	H6	H	0.271385	0.602598	0.814716
	H7	H	0.268954	0.391986	0.128644
	H8	H	0.837289	0.721239	0.367632
	H9	H	0.149382	0.717564	0.576084
	H10	H	0.835240	0.274578	0.581079
	H11	H	0.145076	0.274643	0.365795
	H12	H	0.834656	0.394298	0.695471
	H13	H	0.149714	0.598824	0.690640
	H14	H	0.837045	0.604526	0.249765
	H15	H	0.145562	0.392862	0.249429
	H16	H	0.389389	0.716884	0.813832
	H17	H	0.593528	0.716899	0.130858
	H18	H	0.595384	0.278210	0.814688
	H19	H	0.383783	0.274736	0.127686
	H20	H	0.709418	0.840642	0.370409
	H21	H	0.713747	0.154397	0.580417
	H22	H	0.269266	0.842213	0.577727
	H23	H	0.271073	0.156580	0.368173
	H24	H	0.886020	0.342570	0.195249
	H25	H	0.094563	0.654761	0.193964
	H26	H	0.093077	0.340630	0.754736
	H27	H	0.889069	0.655890	0.754023
	H28	H	0.209264	0.896624	0.313698
	H29	H	0.210849	0.102836	0.630641
	H30	H	0.770361	0.102674	0.315370
	H31	H	0.772198	0.895301	0.630675
	H32	H	0.336342	0.223447	0.863978
	H33	H	0.647175	0.222281	0.079003
	H34	H	0.332992	0.780951	0.073896
	H35	H	0.648166	0.780095	0.870182
	H36	H	0.332464	0.899066	0.189873
	H37	H	0.648287	0.103892	0.193748
	H38	H	0.333932	0.103534	0.751343
	H39	H	0.647104	0.895452	0.751847
	H40	H	0.887131	0.217936	0.315154
	H41	H	0.092866	0.217183	0.631153
	H42	H	0.091350	0.781822	0.313647
	H43	H	0.891137	0.782301	0.631904
	H44	H	0.213488	0.342008	0.866844
	H45	H	0.214197	0.653452	0.079194
	H46	H	0.767053	0.343647	0.081880
	H47	H	0.771002	0.655165	0.869170
	H48	H	0.399511	0.110242	0.559446
	H49	H	0.582230	0.887293	0.558415
	H50	H	0.581004	0.111974	0.380595
	H51	H	0.403104	0.887657	0.382263
	H52	H	0.578601	0.413055	0.083329
	H53	H	0.582600	0.585427	0.860161
	H54	H	0.398826	0.586088	0.085913
	H55	H	0.405369	0.411282	0.861392
	H56	H	0.104291	0.591840	0.384319
	H57	H	0.879018	0.586355	0.569091
	H58	H	0.104964	0.402851	0.566044
	H59	H	0.879252	0.407000	0.386564
	H60	H	0.100024	0.407541	0.554890
	H61	H	0.877266	0.596562	0.564570
	H62	H	0.101561	0.585560	0.386961
	H63	H	0.882035	0.412006	0.387775
	H64	H	0.404783	0.587338	0.084747
	H65	H	0.579405	0.591972	0.858451
	H66	H	0.578009	0.407806	0.085392
	H67	H	0.402611	0.411309	0.860645
	H68	H	0.579524	0.109308	0.386113
	H69	H	0.582222	0.885365	0.563897
	H70	H	0.400045	0.111960	0.563943
	H71	H	0.397256	0.887202	0.385959
	H72	H	0.903111	0.607400	0.054762
	H73	H	0.080808	0.386870	0.057086
	H74	H	0.083083	0.610412	0.884767
	H75	H	0.902080	0.387080	0.885730
	H76	H	0.082500	0.904289	0.588381
	H77	H	0.083943	0.084133	0.359905
	H78	H	0.903502	0.084731	0.583940
	H79	H	0.903549	0.910241	0.360250
	H80	H	0.599495	0.085293	0.887347
	H81	H	0.382763	0.087144	0.058869
	H82	H	0.604004	0.906818	0.067020
	H83	H	0.376726	0.900189	0.884377
	H84	H	0.604033	0.903812	0.062651
	H85	H	0.381935	0.084841	0.060531
	H86	H	0.601567	0.085907	0.880920
	H87	H	0.381011	0.911998	0.885798
	H88	H	0.903298	0.087612	0.585821
	H89	H	0.077093	0.087295	0.360569
	H90	H	0.087417	0.911084	0.587210
	H91	H	0.900411	0.906003	0.358250
	H92	H	0.084953	0.611727	0.882282
	H93	H	0.080185	0.386071	0.061113
	H94	H	0.894922	0.613397	0.062563
	H95	H	0.899786	0.385705	0.885134
	H96	H	0.403513	0.110034	0.561651
	H97	H	0.577651	0.888124	0.561183
	H98	H	0.585241	0.112163	0.385245
	H99	H	0.397225	0.885170	0.379350
	H100	H	0.582950	0.410638	0.085689
	H101	H	0.586497	0.590515	0.856297
	H102	H	0.401014	0.592004	0.086537
	H103	H	0.403458	0.413760	0.860871
	H104	H	0.103947	0.585844	0.380305
	H105	H	0.882906	0.588429	0.558399
	H106	H	0.100597	0.414765	0.565016
	H107	H	0.879591	0.411219	0.382382
	H108	H	0.907061	0.610580	0.066878
	H109	H	0.077390	0.388178	0.059180
	H110	H	0.081758	0.612365	0.882056
	H111	H	0.901673	0.386554	0.883408
	H112	H	0.079241	0.911540	0.584821
	H113	H	0.082754	0.091216	0.357498
	H114	H	0.900731	0.085337	0.585586
	H115	H	0.898205	0.910984	0.359172
	H116	H	0.601777	0.090991	0.885061
	H117	H	0.380621	0.087832	0.061065
	H118	H	0.603264	0.909095	0.062121
	H119	H	0.376955	0.908697	0.874401
	C120	C	0.369423	0.006911	0.593377
	C121	C	0.612783	0.990107	0.594365
	C122	C	0.612137	0.006650	0.352401
	C123	C	0.369532	0.991306	0.351527
	C124	C	0.612176	0.378010	-0.019003
	C125	C	0.612611	0.619895	0.963579
	C126	C	0.370292	0.619518	-0.018926
	C127	C	0.370699	0.378533	0.964207
	C128	C	0.000438	0.620353	0.351371
	C129	C	0.983377	0.620732	0.594987
	C130	C	-0.001239	0.376534	0.594724
	C131	C	0.982299	0.377073	0.351862
	C132	C	0.869181	0.507478	0.094772
	C133	C	0.112111	0.489992	0.092947
	C134	C	0.113610	0.507077	0.851677
	C135	C	0.870265	0.490545	0.852875
	C136	C	0.112952	0.878132	0.481255
	C137	C	0.112147	0.119495	0.464098
	C138	C	0.870291	0.118368	0.481137
	C139	C	0.870080	0.877337	0.464029
	C140	C	0.498619	0.120304	0.851024
	C141	C	0.484106	0.120003	0.093370
	C142	C	0.499362	0.876841	0.094242
	C143	C	0.482094	0.876437	0.850493
	C144	C	0.368728	0.888238	0.651702
	C145	C	0.614667	0.107939	0.655070
	C146	C	0.611715	0.887750	0.293971
	C147	C	0.369656	0.109835	0.292480
	C148	C	0.672333	0.375515	0.862473
	C149	C	0.670176	0.620344	0.083150
	C150	C	0.311327	0.621010	0.861843
	C151	C	0.309325	0.374283	0.081574
	C152	C	0.883470	0.680683	0.349177
	C153	C	0.102041	0.678148	0.595018
	C154	C	0.881740	0.315690	0.598190
	C155	C	0.098704	0.315371	0.347801
	C156	C	0.881487	0.374856	0.655359
	C157	C	0.102242	0.619271	0.652166
	C158	C	0.883527	0.623063	0.290555
	C159	C	0.099335	0.374164	0.290365
	C160	C	0.369808	0.677926	0.861568
	C161	C	0.612612	0.677800	0.083302
	C162	C	0.614145	0.318197	0.861975
	C163	C	0.366662	0.316287	0.081168
	C164	C	0.670174	0.887887	0.351314
	C165	C	0.673152	0.107766	0.597846
	C166	C	0.309628	0.888987	0.595505
	C167	C	0.311097	0.109695	0.349904
	C168	C	0.866975	0.389832	0.155533
	C169	C	0.114104	0.607721	0.153854
	C170	C	0.113145	0.388077	0.793488
	C171	C	0.869869	0.608562	0.793504
	C172	C	0.169933	0.877903	0.361212
	C173	C	0.170825	0.121143	0.583339
	C174	C	0.810319	0.121142	0.362679
	C175	C	0.811778	0.876563	0.583274
	C176	C	0.382465	0.181962	0.847000
	C177	C	0.600752	0.181228	0.096347
	C178	C	0.380455	0.819883	0.093680
	C179	C	0.600599	0.818898	0.850333
	C180	C	0.380160	0.878671	0.151200
	C181	C	0.601233	0.122596	0.153828
	C182	C	0.381355	0.122354	0.790704
	C183	C	0.600364	0.876543	0.791866
	C184	C	0.868552	0.178321	0.362489
	C185	C	0.112220	0.177989	0.583568
	C186	C	0.111747	0.820517	0.361448
	C187	C	0.870663	0.820180	0.583770
	C188	C	0.172896	0.388960	0.849199
	C189	C	0.173294	0.607100	0.097072
	C190	C	0.808008	0.390327	0.098981
	C191	C	0.811185	0.608466	0.850813
	C192	C	0.394034	0.089316	0.568724
	C193	C	0.587962	0.908294	0.568603
	C194	C	0.588606	0.089457	0.376738
	C195	C	0.392710	0.908461	0.375695
	C196	C	0.586948	0.403244	0.063258
	C197	C	0.589366	0.596132	0.880172
	C198	C	0.394489	0.595328	0.063929
	C199	C	0.396575	0.404619	0.882159
	C200	C	0.081999	0.595063	0.376823
	C201	C	0.901206	0.597180	0.570967
	C202	C	0.080475	0.401323	0.569263
	C203	C	0.901487	0.402928	0.378170
	C204	C	0.894391	0.589244	0.068866
	C205	C	0.086657	0.408259	0.066631
	C206	C	0.090015	0.589955	0.876156
	C207	C	0.894254	0.407926	0.877770
	C208	C	0.089747	0.902072	0.564927
	C209	C	0.088439	0.094775	0.381153
	C210	C	0.895242	0.093039	0.563642
	C211	C	0.894028	0.901872	0.380862
	C212	C	0.579901	0.094528	0.877019
	C213	C	0.402787	0.094143	0.067382
	C214	C	0.582082	0.900033	0.070727
	C215	C	0.399748	0.900087	0.874616
	Zn216	Zn	0.490111	-0.001476	0.721823
	Zn217	Zn	0.491546	-0.000571	0.222917
	Zn218	Zn	0.740607	0.498971	-0.026361
	Zn219	Zn	0.241860	0.498580	-0.027384
	Zn220	Zn	-0.007875	0.749565	0.473357
	Zn221	Zn	-0.009804	0.247545	0.472879
	Zn222	Zn	-0.008467	0.498560	0.723933
	Zn223	Zn	-0.008741	0.498304	0.222479
	Zn224	Zn	0.491177	0.747584	-0.027435
	Zn225	Zn	0.491199	0.249400	-0.027856
	Zn226	Zn	0.741496	-0.001634	0.473060
	Zn227	Zn	0.240835	-0.000862	0.472435
	N228	N	0.405016	0.962729	0.650622
	N229	N	0.577678	0.033934	0.652999
	N230	N	0.576547	0.962720	0.294449
	N231	N	0.405304	0.035215	0.293413
	N232	N	0.671420	0.411693	0.937442
	N233	N	0.670483	0.585433	0.007697
	N234	N	0.311417	0.585411	0.937191
	N235	N	0.311774	0.412067	0.007687
	N236	N	0.957077	0.678885	0.386468
	N237	N	0.027111	0.679516	0.560445
	N238	N	0.955787	0.316524	0.561379
	N239	N	0.025123	0.317040	0.385253
	N240	N	0.955170	0.412055	0.653332
	N241	N	0.027426	0.584498	0.652667
	N242	N	0.957265	0.585930	0.291982
	N243	N	0.025953	0.411759	0.292642
	N244	N	0.405507	0.677341	0.936686
	N245	N	0.577524	0.677799	0.007811
	N246	N	0.577576	0.319362	0.936745
	N247	N	0.404358	0.318815	0.007085
	N248	N	0.670729	0.962938	0.386810
	N249	N	0.672204	0.033464	0.560962
	N250	N	0.309881	0.963935	0.559965
	N251	N	0.310812	0.034865	0.385624
	N252	N	0.904325	0.463704	0.153083
	N253	N	0.076900	0.533700	0.151478
	N254	N	0.076998	0.462618	0.794743
	N255	N	0.905916	0.534161	0.794722
	N256	N	0.171162	0.912676	0.436968
	N257	N	0.171285	0.085914	0.507860
	N258	N	0.811060	0.084849	0.437559
	N259	N	0.810869	0.911103	0.507541
	N260	N	0.456468	0.180941	0.883610
	N261	N	0.526719	0.179873	0.059593
	N262	N	0.455716	0.818128	0.059443
	N263	N	0.526126	0.818592	0.885879
	N264	N	0.455277	0.912843	0.152241
	N265	N	0.527594	0.085140	0.152057
	N266	N	0.454736	0.084518	0.793070
	N267	N	0.525471	0.911229	0.791397
	N268	N	0.905090	0.176696	0.437255
	N269	N	0.076733	0.177306	0.508344
	N270	N	0.077363	0.820538	0.437156
	N271	N	0.906061	0.820431	0.508587
	N272	N	0.173558	0.464303	0.884175
	N273	N	0.172252	0.532822	0.060121
	N274	N	0.809159	0.464572	0.062062
	N275	N	0.811377	0.533845	0.886909
	O276	O	0.141807	0.973839	0.055026
	H277	H	0.135135	0.978848	0.062251
	H278	H	0.140090	0.985015	0.065232
	O279	O	0.450478	0.725221	0.250081
	H280	H	0.436907	0.751692	0.224301
	H281	H	0.411161	0.725911	0.248870
	O282	O	0.947685	-0.114489	0.944726
	H283	H	0.947181	-0.103982	0.940942
	H284	H	0.947708	-0.130530	0.935824
	O285	O	0.701853	0.469743	0.267282
	H286	H	0.714076	0.486046	0.277835
	H287	H	0.705542	0.480963	0.264126
	O288	O	0.261891	0.425988	0.415607
	H289	H	0.253286	0.408810	0.442350
	H290	H	0.259304	0.431234	0.439162
	O291	O	0.528122	0.277356	0.505903
	H292	H	0.507067	0.274738	0.494076
	H293	H	0.516091	0.283049	0.517644
	O294	O	0.770767	-0.150266	0.962483
	H295	H	0.764897	-0.160111	0.999245
	H296	H	0.756971	-0.143236	0.967873
	O297	O	0.282949	0.704463	0.267651
	H298	H	0.275351	0.652239	0.258923
	H299	H	0.254560	0.724696	0.251001
	O300	O	-0.464565	0.647162	0.353421
	H301	H	-0.461827	0.643062	0.338662
	H302	H	-0.479963	0.654272	0.347343
	O303	O	0.115656	0.209388	1.089468
	H304	H	0.109656	0.214350	1.105680
	H305	H	0.106378	0.208738	1.089899
	O306	O	0.986728	0.013568	0.760203
	H307	H	0.964488	0.017360	0.755435
	H308	H	0.989974	-0.006226	0.761535
	O309	O	0.455714	0.280822	0.680983
	H310	H	0.457536	0.281003	0.691493
	H311	H	0.448610	0.271573	0.696383
	O312	O	0.297980	0.579537	0.572247
	H313	H	0.296145	0.601488	0.578961
	H314	H	0.301227	0.578796	0.581370
	O315	O	0.669871	1.671485	0.283872
	H316	H	0.653866	1.648736	0.298884
	H317	H	0.651304	1.657866	0.302067
	O318	O	0.476273	0.645933	0.532035
	H319	H	0.462628	0.652777	0.508081
	H320	H	0.477573	0.652785	0.522433
	O321	O	0.484135	0.494744	0.338950
	H322	H	0.484682	0.502820	0.341249
	H323	H	0.489305	0.493805	0.330306
	O324	O	0.906247	0.994424	0.015831
	H325	H	0.909739	0.993898	0.020938
	H326	H	0.914304	0.993231	0.018498
	O327	O	0.076368	-0.017404	0.960130
	H328	H	0.055296	-0.019033	0.956934
	H329	H	0.072342	-0.015648	0.965974
	O330	O	0.451665	0.539452	0.683935
	H331	H	0.463543	0.558878	0.687589
	H332	H	0.460353	0.549753	0.671517
	O333	O	-0.021820	-0.165345	1.171118
	H334	H	-0.002004	-0.156768	1.164323
	H335	H	-0.015567	-0.161280	1.165639
	O336	O	0.791832	0.064394	0.771128
	H337	H	0.781948	0.065492	0.772167
	H338	H	0.793544	0.077615	0.763223
	O339	O	1.073554	0.014670	0.876541
	H340	H	1.065467	0.018153	0.873320
	H341	H	1.068664	0.021687	0.885360
	O342	O	-0.283275	0.277400	0.415014
	H343	H	-0.272611	0.256572	0.428492
	H344	H	-0.284686	0.275405	0.413204
	O345	O	-0.228140	0.966831	1.186105
	H346	H	-0.245401	0.946173	1.201600
	H347	H	-0.233239	0.941846	1.180581
	O348	O	0.302562	0.317016	0.655158
	H349	H	0.326074	0.329672	0.665630
	H350	H	0.285582	0.333008	0.676920
	O351	O	0.871930	1.192195	0.078354
	H352	H	0.878026	1.178555	0.075845
	H353	H	0.864117	1.191724	0.091698
	O354	O	-0.133843	0.050521	0.976171
	H355	H	-0.130761	0.059929	0.978466
	H356	H	-0.133374	0.068485	0.974831
	O357	O	1.499854	1.714015	0.642361
	H358	H	1.502857	1.726868	0.638941
	H359	H	1.515162	1.726406	0.655129
	O360	O	0.263363	0.273758	0.506082
	H361	H	0.237573	0.246909	0.520946
	H362	H	0.263249	0.271913	0.546525
	O363	O	-0.233646	-0.222053	0.195196
	H364	H	-0.202399	-0.222078	0.199062
	H365	H	-0.258043	-0.254368	0.230532
	O366	O	0.702049	0.707303	0.682274
	H367	H	0.709249	0.699167	0.687499
	H368	H	0.719538	0.731038	0.695393
	O369	O	1.030032	-0.007721	0.101190
	H370	H	1.021123	0.007508	0.119216
	H371	H	1.033889	-0.002193	0.110129
	O372	O	0.928870	0.774854	-0.082486
	H373	H	0.925296	0.777354	-0.073572
	H374	H	0.929134	0.780225	-0.093112
	O375	O	0.992964	0.112058	-0.068965
	H376	H	1.000232	0.114040	-0.087846
	H377	H	0.996495	0.107776	-0.078823
	O378	O	-0.205885	1.092276	1.007738
	H379	H	-0.210274	1.069015	1.011561
	H380	H	-0.226618	1.102481	1.036001
	O381	O	0.670349	0.318606	1.615849
	H382	H	0.658376	0.316028	1.600962
	H383	H	0.656103	0.331177	1.608717
	O384	O	1.130281	-0.130428	1.162889
	H385	H	1.112734	-0.123219	1.148967
	H386	H	1.113215	-0.122561	1.159440
	O387	O	1.201372	0.788343	-0.051269
	H388	H	1.197105	0.787624	-0.054782
	H389	H	1.210553	0.783958	-0.054132
	O390	O	0.494837	0.316297	0.258563
	H391	H	0.509904	0.316377	0.254542
	H392	H	0.518749	0.308121	0.257066
	O393	O	0.380649	0.719688	0.576732
	H394	H	0.367833	0.733640	0.564148
	H395	H	0.392143	0.710633	0.567090
	O396	O	0.705933	1.532814	1.686423
	H397	H	0.713867	1.543875	1.688183
	H398	H	0.705342	1.541258	1.689530
	O399	O	0.138914	0.205169	1.176664
	H400	H	0.116351	0.212116	1.164234
	H401	H	0.132565	0.217742	1.183568
	O402	O	0.516865	0.419411	0.563542
	H403	H	0.516437	0.421248	0.560353
	H404	H	0.518044	0.417014	0.556311
	O405	O	0.962406	0.215784	0.757818
	H406	H	0.940302	0.212178	0.765953
	H407	H	0.952816	0.238343	0.736100
	O408	O	-0.198060	-0.190105	-0.215836
	H409	H	-0.172591	-0.173291	-0.201418
	H410	H	-0.192841	-0.169101	-0.187937
	O411	O	0.376362	0.561849	0.464168
	H412	H	0.374806	0.558922	0.470798
	H413	H	0.372017	0.565326	0.469142
	O414	O	0.814568	0.180890	0.939805
	H415	H	0.830351	0.178328	0.963954
	H416	H	0.797554	0.196551	0.950496
	O417	O	0.727158	0.558642	0.414727
	H418	H	0.735352	0.557668	0.431237
	H419	H	0.719544	0.569719	0.434962
	O420	O	0.268479	0.721323	0.437702
	H421	H	0.254370	0.739601	0.421722
	H422	H	0.265631	0.726173	0.420990
	O423	O	0.242064	0.134936	1.221287
	H424	H	0.245389	0.164828	1.235991
	H425	H	0.263887	0.153449	1.236324
	O426	O	0.724603	0.445032	0.531995
	H427	H	0.718673	0.448087	0.527880
	H428	H	0.724804	0.433279	0.547550
	O429	O	0.342358	0.356010	1.271324
	H430	H	0.348811	0.352014	1.279039
	H431	H	0.349744	0.368074	1.278204
	O432	O	0.274730	0.462294	0.685475
	H433	H	0.264485	0.478110	0.698674
	H434	H	0.296579	0.481429	0.694247
	O435	O	0.283943	0.536757	0.266910
	H436	H	0.272777	0.514741	0.267857
	H437	H	0.290958	0.514367	0.272189
	O438	O	0.027470	-0.226256	-0.249015
	H439	H	0.026661	-0.255806	-0.278802
	H440	H	0.058322	-0.219261	-0.238464
	O441	O	0.710248	0.712132	0.509115
	H442	H	0.689763	0.707738	0.530021
	H443	H	0.731575	0.741721	0.510646
	O444	O	0.690942	0.295450	0.267534
	H445	H	0.693223	0.297780	0.295048
	H446	H	0.684402	0.329217	0.268335
	O447	O	-0.216830	1.205391	0.809252
	H448	H	-0.231552	1.212711	0.796079
	H449	H	-0.223558	1.220411	0.835709
	O450	O	0.081266	0.781176	1.055274
	H451	H	0.074075	0.791076	1.036877
	H452	H	0.078179	0.784118	1.047217
	O453	O	0.480376	0.280315	0.377974
	H454	H	0.471889	0.280582	0.373121
	H455	H	0.462275	0.275063	0.370916
	O456	O	-0.162010	-0.144716	1.048398
	H457	H	-0.162453	-0.152130	1.047442
	H458	H	-0.166016	-0.152267	1.066130
	O459	O	0.944279	1.130359	0.132114
	H460	H	0.938249	1.128069	0.124797
	H461	H	0.955079	1.117961	0.115412
	O462	O	0.512833	0.462081	0.358860
	H463	H	0.499627	0.442539	0.364503
	H464	H	0.488079	0.475343	0.353742
	O465	O	0.503808	-0.501980	-0.459998
	H466	H	0.510357	-0.503206	-0.459857
	H467	H	0.494873	-0.492596	-0.458256
	O468	O	0.498619	0.517294	0.474843
	H469	H	0.493650	0.504374	0.472024
	H470	H	0.493753	0.519479	0.475059
	O471	O	0.095902	0.117817	0.784255
	H472	H	0.079180	0.110112	0.784106
	H473	H	0.093387	0.110193	0.791509
	O474	O	0.040749	1.119442	0.938051
	H475	H	0.054802	1.123535	0.933162
	H476	H	0.025963	1.116768	0.944239
	O477	O	1.202744	-0.036812	0.840064
	H478	H	1.206450	-0.032140	0.843191
	H479	H	1.195145	-0.023620	0.837241
	O480	O	0.448890	0.609618	0.678879
	H481	H	0.464373	0.605530	0.668481
	H482	H	0.465068	0.623643	0.680428
	O483	O	1.214523	1.101492	0.943583
	H484	H	1.207030	1.095254	0.965989
	H485	H	1.222934	1.132998	0.943006
	O486	O	1.194155	-0.169909	0.778539
	H487	H	1.202561	-0.125509	0.780763
	H488	H	1.196366	-0.177214	0.798904
	O489	O	1.204448	1.189515	0.056220
	H490	H	1.209638	1.207727	0.076679
	H491	H	1.197120	1.192274	0.056137
