data_Molecule from HDF5

_cell_length_a		16.247161
_cell_length_b		16.170985
_cell_length_c		16.314198
_cell_angle_alpha	90.113715
_cell_angle_beta	89.995139
_cell_angle_gamma	90.027215
_symmetry_space_group_name_H-M	'P 1'
_symmetry_Int_Tables_number		1

loop_
	_symmetry_equiv_pos_as_xyz
	x,y,z

loop_
	_atom_site_label
	_atom_site_type_symbol
	_atom_site_fract_x
	_atom_site_fract_y
	_atom_site_fract_z
	H0	H	0.401086	0.835626	0.713896
	H1	H	0.598658	0.164335	0.713402
	H2	H	0.598688	0.835697	0.285163
	H3	H	0.403454	0.164612	0.287772
	H4	H	0.714625	0.402021	0.836984
	H5	H	0.714658	0.599225	0.163537
	H6	H	0.284484	0.599437	0.837495
	H7	H	0.285149	0.401809	0.163215
	H8	H	0.835455	0.712153	0.403854
	H9	H	0.164804	0.713085	0.596632
	H10	H	0.835734	0.286048	0.597962
	H11	H	0.164654	0.287073	0.403489
	H12	H	0.836225	0.402307	0.714050
	H13	H	0.163430	0.600189	0.715547
	H14	H	0.835595	0.597865	0.286768
	H15	H	0.163205	0.400122	0.284726
	H16	H	0.402901	0.712872	0.835888
	H17	H	0.598163	0.714972	0.163533
	H18	H	0.596650	0.286883	0.835893
	H19	H	0.402405	0.286478	0.163591
	H20	H	0.712916	0.834983	0.402133
	H21	H	0.713350	0.164130	0.597281
	H22	H	0.287021	0.835035	0.597302
	H23	H	0.287902	0.164784	0.403556
	H24	H	0.900244	0.335674	0.214065
	H25	H	0.097356	0.663928	0.214162
	H26	H	0.098263	0.335957	0.785414
	H27	H	0.901476	0.664971	0.786636
	H28	H	0.213584	0.901622	0.336078
	H29	H	0.214572	0.098145	0.663242
	H30	H	0.785693	0.098761	0.337098
	H31	H	0.785139	0.900351	0.662941
	H32	H	0.335881	0.211775	0.903825
	H33	H	0.664804	0.212183	0.095433
	H34	H	0.335584	0.787951	0.095655
	H35	H	0.664166	0.786094	0.902782
	H36	H	0.336087	0.901640	0.213881
	H37	H	0.664175	0.098948	0.214132
	H38	H	0.336603	0.099245	0.785562
	H39	H	0.663485	0.899837	0.785146
	H40	H	0.903758	0.213211	0.336774
	H41	H	0.098048	0.213375	0.663556
	H42	H	0.097498	0.785059	0.336760
	H43	H	0.903075	0.787438	0.663963
	H44	H	0.212917	0.335483	0.902222
	H45	H	0.212268	0.664760	0.098507
	H46	H	0.786844	0.335639	0.096642
	H47	H	0.786903	0.665312	0.903268
	H48	H	0.402635	0.120115	0.595928
	H49	H	0.594724	0.879920	0.598848
	H50	H	0.586212	0.115892	0.407182
	H51	H	0.403313	0.878422	0.399592
	H52	H	0.583954	0.404345	0.115520
	H53	H	0.606715	0.591076	0.880500
	H54	H	0.406150	0.590569	0.115717
	H55	H	0.403911	0.412887	0.884280
	H56	H	0.115666	0.596903	0.417988
	H57	H	0.885304	0.590931	0.586424
	H58	H	0.113436	0.416869	0.589573
	H59	H	0.885021	0.407622	0.412400
	H60	H	0.120024	0.407004	0.604340
	H61	H	0.882575	0.587708	0.601574
	H62	H	0.113819	0.580396	0.403451
	H63	H	0.882676	0.411897	0.401641
	H64	H	0.408829	0.596671	0.116520
	H65	H	0.586095	0.582298	0.888768
	H66	H	0.600290	0.399202	0.121281
	H67	H	0.411773	0.403580	0.883677
	H68	H	0.598016	0.116898	0.412045
	H69	H	0.586761	0.883370	0.592738
	H70	H	0.412932	0.116975	0.596764
	H71	H	0.414678	0.883594	0.405827
	H72	H	0.915388	0.615700	0.095333
	H73	H	0.094750	0.382876	0.087391
	H74	H	0.082142	0.615045	0.907665
	H75	H	0.910576	0.384544	0.909794
	H76	H	0.083933	0.908206	0.613433
	H77	H	0.094627	0.094412	0.382085
	H78	H	0.907162	0.087692	0.615369
	H79	H	0.901887	0.903424	0.381001
	H80	H	0.616792	0.097706	0.914885
	H81	H	0.386426	0.091639	0.082269
	H82	H	0.620554	0.907465	0.104424
	H83	H	0.382581	0.913726	0.899122
	H84	H	0.617838	0.897961	0.085977
	H85	H	0.383409	0.083171	0.102963
	H86	H	0.615178	0.082806	0.904384
	H87	H	0.378623	0.897311	0.903142
	H88	H	0.910226	0.097653	0.617270
	H89	H	0.095108	0.092603	0.382907
	H90	H	0.097780	0.897297	0.620953
	H91	H	0.905714	0.911339	0.384591
	H92	H	0.098321	0.616841	0.915842
	H93	H	0.096886	0.379853	0.096964
	H94	H	0.903540	0.616464	0.086232
	H95	H	0.900870	0.381256	0.907448
	H96	H	0.407735	0.115834	0.587235
	H97	H	0.596715	0.881949	0.587999
	H98	H	0.595675	0.119845	0.400763
	H99	H	0.403304	0.882329	0.412687
	H100	H	0.597500	0.416339	0.114895
	H101	H	0.587634	0.604954	0.882159
	H102	H	0.401980	0.595838	0.118033
	H103	H	0.400381	0.401880	0.880241
	H104	H	0.121916	0.599864	0.397289
	H105	H	0.879606	0.602097	0.595570
	H106	H	0.118317	0.398412	0.587478
	H107	H	0.880695	0.400887	0.404244
	H108	H	0.902836	0.621381	0.100402
	H109	H	0.087136	0.382821	0.094747
	H110	H	0.095883	0.621980	0.898219
	H111	H	0.907471	0.381246	0.899916
	H112	H	0.100761	0.915188	0.616419
	H113	H	0.093303	0.093545	0.383002
	H114	H	0.900718	0.094056	0.619020
	H115	H	0.911116	0.904181	0.383502
	H116	H	0.621620	0.098598	0.897983
	H117	H	0.377896	0.104700	0.098949
	H118	H	0.612996	0.918660	0.088766
	H119	H	0.385861	0.908723	0.914402
	C120	C	0.378820	0.008626	0.621325
	C121	C	0.621315	0.990943	0.621253
	C122	C	0.621507	0.008787	0.378226
	C123	C	0.379526	0.990846	0.378739
	C124	C	0.621652	0.378478	0.008863
	C125	C	0.621967	0.621739	0.991774
	C126	C	0.377749	0.622145	0.008622
	C127	C	0.377945	0.378521	0.991401
	C128	C	0.008300	0.620835	0.378676
	C129	C	0.991456	0.621848	0.622163
	C130	C	0.008425	0.379064	0.621355
	C131	C	0.991288	0.378168	0.378052
	C132	C	0.878709	0.508934	0.121582
	C133	C	0.120863	0.490883	0.121384
	C134	C	0.120701	0.509153	0.878631
	C135	C	0.878275	0.491619	0.878218
	C136	C	0.121972	0.878051	0.508431
	C137	C	0.122275	0.121646	0.491139
	C138	C	0.878861	0.121111	0.508986
	C139	C	0.878423	0.877871	0.491292
	C140	C	0.509002	0.121145	0.878220
	C141	C	0.491399	0.121899	0.122194
	C142	C	0.508610	0.879294	0.121018
	C143	C	0.491243	0.878317	0.877912
	C144	C	0.380827	0.884595	0.676185
	C145	C	0.618866	0.115011	0.675880
	C146	C	0.619333	0.884825	0.322819
	C147	C	0.382236	0.115454	0.324908
	C148	C	0.676109	0.381566	0.885358
	C149	C	0.676893	0.619842	0.114759
	C150	C	0.322933	0.619281	0.885655
	C151	C	0.323193	0.381368	0.114502
	C152	C	0.884566	0.674907	0.382784
	C153	C	0.115396	0.676078	0.618189
	C154	C	0.884822	0.324078	0.618604
	C155	C	0.115362	0.324104	0.381998
	C156	C	0.885086	0.381523	0.676322
	C157	C	0.114785	0.620001	0.677132
	C158	C	0.884645	0.618394	0.324312
	C159	C	0.114594	0.379929	0.322880
	C160	C	0.381788	0.675706	0.885182
	C161	C	0.618867	0.677146	0.114733
	C162	C	0.617699	0.324484	0.884939
	C163	C	0.381614	0.324283	0.114794
	C164	C	0.675960	0.884431	0.380979
	C165	C	0.675875	0.114989	0.618280
	C166	C	0.324244	0.884298	0.618247
	C167	C	0.324981	0.115352	0.382270
	C168	C	0.880427	0.384871	0.176100
	C169	C	0.118285	0.614785	0.176769
	C170	C	0.118376	0.384924	0.823509
	C171	C	0.880818	0.615862	0.824028
	C172	C	0.176214	0.880865	0.385208
	C173	C	0.176955	0.118719	0.614348
	C174	C	0.824083	0.118828	0.385722
	C175	C	0.823377	0.880445	0.614429
	C176	C	0.385131	0.175386	0.882255
	C177	C	0.615357	0.175732	0.117566
	C178	C	0.384592	0.825218	0.117206
	C179	C	0.614988	0.823680	0.881787
	C180	C	0.385051	0.881393	0.175940
	C181	C	0.615071	0.119716	0.176528
	C182	C	0.385733	0.119404	0.823443
	C183	C	0.614745	0.879962	0.823309
	C184	C	0.882263	0.175788	0.385442
	C185	C	0.119175	0.176105	0.614629
	C186	C	0.118574	0.823003	0.385433
	C187	C	0.881807	0.824117	0.614818
	C188	C	0.175389	0.384751	0.881276
	C189	C	0.175217	0.615247	0.119134
	C190	C	0.823869	0.384754	0.118123
	C191	C	0.824193	0.616084	0.882094
	C192	C	0.401073	0.095223	0.599618
	C193	C	0.599240	0.904086	0.599643
	C194	C	0.599806	0.095276	0.400089
	C195	C	0.400908	0.903945	0.399681
	C196	C	0.600322	0.400181	0.094844
	C197	C	0.600098	0.599298	0.905877
	C198	C	0.399194	0.600528	0.094772
	C199	C	0.399118	0.399953	0.905061
	C200	C	0.094937	0.598726	0.399899
	C201	C	0.904840	0.600081	0.600808
	C202	C	0.094938	0.401030	0.600120
	C203	C	0.904854	0.400224	0.399797
	C204	C	0.900816	0.595579	0.100341
	C205	C	0.099378	0.404230	0.099392
	C206	C	0.098622	0.595522	0.900810
	C207	C	0.899958	0.404892	0.899450
	C208	C	0.100402	0.900088	0.594625
	C209	C	0.100702	0.100026	0.404951
	C210	C	0.899934	0.099636	0.594913
	C211	C	0.899818	0.899664	0.405398
	C212	C	0.595594	0.099470	0.899559
	C213	C	0.404775	0.099695	0.101001
	C214	C	0.594899	0.901549	0.099522
	C215	C	0.404763	0.900178	0.899259
	Zn216	Zn	0.499979	-0.000343	0.749659
	Zn217	Zn	0.500316	0.000099	0.250089
	Zn218	Zn	0.750773	0.500483	0.000272
	Zn219	Zn	0.248840	0.500474	-0.000068
	Zn220	Zn	-0.000066	0.749170	0.500329
	Zn221	Zn	0.000300	0.250064	0.499915
	Zn222	Zn	-0.000074	0.500459	0.750431
	Zn223	Zn	-0.000321	0.499452	0.249698
	Zn224	Zn	0.499880	0.750584	-0.000124
	Zn225	Zn	0.500012	0.249963	0.000290
	Zn226	Zn	0.749625	-0.000442	0.499889
	Zn227	Zn	0.251097	-0.000124	0.499652
	N228	N	0.413968	0.962972	0.678479
	N229	N	0.585637	0.036752	0.677750
	N230	N	0.586099	0.962970	0.321216
	N231	N	0.415332	0.037143	0.322631
	N232	N	0.678734	0.414482	0.963322
	N233	N	0.678712	0.586070	0.037333
	N234	N	0.320331	0.586863	0.963473
	N235	N	0.320791	0.414275	0.036771
	N236	N	0.962469	0.676475	0.415861
	N237	N	0.037546	0.677403	0.584842
	N238	N	0.962492	0.322362	0.585036
	N239	N	0.037627	0.322860	0.415553
	N240	N	0.962924	0.415191	0.677870
	N241	N	0.036752	0.587086	0.679686
	N242	N	0.962682	0.585373	0.321780
	N243	N	0.036507	0.412858	0.320483
	N244	N	0.415138	0.677726	0.962720
	N245	N	0.585482	0.678582	0.037298
	N246	N	0.584552	0.322586	0.962524
	N247	N	0.414534	0.322089	0.037050
	N248	N	0.677411	0.962405	0.415016
	N249	N	0.677494	0.036831	0.584948
	N250	N	0.323029	0.962338	0.584830
	N251	N	0.323180	0.037038	0.415036
	N252	N	0.913891	0.463017	0.178355
	N253	N	0.084939	0.536580	0.178108
	N254	N	0.085012	0.463023	0.821863
	N255	N	0.913876	0.537576	0.821577
	N256	N	0.178511	0.914346	0.462752
	N257	N	0.179259	0.085720	0.536492
	N258	N	0.821450	0.085869	0.463377
	N259	N	0.821052	0.913403	0.536724
	N260	N	0.462883	0.176635	0.915776
	N261	N	0.537405	0.177228	0.084755
	N262	N	0.462343	0.823773	0.083688
	N263	N	0.537059	0.822441	0.914912
	N264	N	0.463175	0.914133	0.178483
	N265	N	0.536847	0.086900	0.179527
	N266	N	0.463569	0.086083	0.820996
	N267	N	0.536974	0.913307	0.820864
	N268	N	0.915763	0.177299	0.462904
	N269	N	0.085787	0.177905	0.537119
	N270	N	0.085627	0.821242	0.463156
	N271	N	0.915567	0.822596	0.537378
	N272	N	0.176883	0.462946	0.914899
	N273	N	0.176677	0.537370	0.085222
	N274	N	0.822803	0.462800	0.084884
	N275	N	0.822227	0.537804	0.914828
