data_Molecule from HDF5

_cell_length_a		16.489900
_cell_length_b		16.216593
_cell_length_c		16.126661
_cell_angle_alpha	90.161086
_cell_angle_beta	90.041519
_cell_angle_gamma	90.137341
_symmetry_space_group_name_H-M	'P 1'
_symmetry_Int_Tables_number		1

loop_
	_symmetry_equiv_pos_as_xyz
	x,y,z

loop_
	_atom_site_label
	_atom_site_type_symbol
	_atom_site_fract_x
	_atom_site_fract_y
	_atom_site_fract_z
	H0	H	0.396213	0.828867	0.707762
	H1	H	0.598879	0.154497	0.713703
	H2	H	0.592865	0.827755	0.282620
	H3	H	0.397657	0.154820	0.278756
	H4	H	0.716766	0.385923	0.835834
	H5	H	0.715740	0.598369	0.159024
	H6	H	0.272989	0.604025	0.837797
	H7	H	0.278688	0.390345	0.159493
	H8	H	0.836035	0.711140	0.392714
	H9	H	0.155974	0.716596	0.598846
	H10	H	0.837318	0.274024	0.597499
	H11	H	0.156444	0.273328	0.387850
	H12	H	0.838117	0.391686	0.714777
	H13	H	0.156519	0.600902	0.716882
	H14	H	0.836489	0.594303	0.277890
	H15	H	0.157734	0.393745	0.277059
	H16	H	0.395609	0.708161	0.833705
	H17	H	0.595434	0.707958	0.160780
	H18	H	0.600063	0.273219	0.834584
	H19	H	0.397141	0.277372	0.160830
	H20	H	0.716243	0.831797	0.387663
	H21	H	0.717687	0.152775	0.600199
	H22	H	0.275580	0.832438	0.597479
	H23	H	0.276928	0.153935	0.386726
	H24	H	0.896941	0.330715	0.211278
	H25	H	0.093535	0.657890	0.209322
	H26	H	0.101182	0.332849	0.776196
	H27	H	0.896309	0.656923	0.781047
	H28	H	0.213813	0.889005	0.331258
	H29	H	0.216679	0.099967	0.655473
	H30	H	0.776447	0.097476	0.331212
	H31	H	0.776049	0.887257	0.655308
	H32	H	0.338158	0.214076	0.891484
	H33	H	0.656461	0.214128	0.103412
	H34	H	0.337502	0.773314	0.099429
	H35	H	0.656540	0.775044	0.894652
	H36	H	0.335807	0.891728	0.212158
	H37	H	0.657473	0.092565	0.213667
	H38	H	0.336446	0.094855	0.776121
	H39	H	0.655776	0.888806	0.776376
	H40	H	0.894900	0.209472	0.329416
	H41	H	0.097800	0.209945	0.657372
	H42	H	0.093512	0.779290	0.329084
	H43	H	0.894691	0.778040	0.657179
	H44	H	0.218567	0.334576	0.889710
	H45	H	0.218308	0.654446	0.105882
	H46	H	0.775801	0.332765	0.104698
	H47	H	0.777163	0.653839	0.893286
	H48	H	0.409057	0.108187	0.586342
	H49	H	0.583230	0.879091	0.578681
	H50	H	0.586948	0.106859	0.409465
	H51	H	0.414386	0.878161	0.401859
	H52	H	0.587879	0.400091	0.115062
	H53	H	0.587462	0.576353	0.881754
	H54	H	0.403138	0.593201	0.118795
	H55	H	0.401404	0.407977	0.880985
	H56	H	0.111275	0.592577	0.408563
	H57	H	0.880316	0.594596	0.589249
	H58	H	0.106886	0.407090	0.578741
	H59	H	0.890019	0.408780	0.416975
	H60	H	0.111354	0.407368	0.591039
	H61	H	0.886637	0.583703	0.577149
	H62	H	0.108364	0.580124	0.406290
	H63	H	0.881404	0.409969	0.390326
	H64	H	0.399014	0.572874	0.112624
	H65	H	0.584757	0.586229	0.878976
	H66	H	0.590983	0.407742	0.113607
	H67	H	0.412076	0.408007	0.883797
	H68	H	0.591051	0.109290	0.405546
	H69	H	0.594307	0.875148	0.581338
	H70	H	0.407285	0.107429	0.580056
	H71	H	0.398515	0.878893	0.416259
	H72	H	0.895411	0.610431	0.078423
	H73	H	0.091883	0.374450	0.092246
	H74	H	0.090293	0.609968	0.912340
	H75	H	0.907123	0.374421	0.895086
	H76	H	0.097659	0.910304	0.611933
	H77	H	0.086308	0.083695	0.376934
	H78	H	0.907222	0.075990	0.606575
	H79	H	0.905569	0.899519	0.376459
	H80	H	0.609742	0.081985	0.906307
	H81	H	0.383588	0.077488	0.090135
	H82	H	0.608876	0.904420	0.086274
	H83	H	0.378839	0.897945	0.894726
	H84	H	0.613034	0.900068	0.093922
	H85	H	0.380891	0.089805	0.089203
	H86	H	0.609269	0.082163	0.907193
	H87	H	0.381472	0.893191	0.908997
	H88	H	0.911213	0.086652	0.608913
	H89	H	0.089586	0.082558	0.376314
	H90	H	0.078780	0.913642	0.605382
	H91	H	0.900857	0.904969	0.375990
	H92	H	0.088039	0.611105	0.904799
	H93	H	0.082052	0.380069	0.084453
	H94	H	0.902988	0.614115	0.097090
	H95	H	0.916417	0.383199	0.913945
	H96	H	0.402977	0.110285	0.584272
	H97	H	0.585689	0.875249	0.590160
	H98	H	0.585544	0.108965	0.403343
	H99	H	0.395538	0.871015	0.396806
	H100	H	0.583225	0.405715	0.112025
	H101	H	0.594450	0.582329	0.878262
	H102	H	0.418790	0.581486	0.109704
	H103	H	0.407615	0.398693	0.878937
	H104	H	0.113371	0.587616	0.397373
	H105	H	0.884573	0.578294	0.592925
	H106	H	0.112883	0.396836	0.583146
	H107	H	0.878723	0.386261	0.404864
	H108	H	0.914937	0.605142	0.082644
	H109	H	0.094168	0.378673	0.078549
	H110	H	0.083241	0.607520	0.910248
	H111	H	0.895047	0.377231	0.914204
	H112	H	0.084411	0.895269	0.612713
	H113	H	0.087650	0.080349	0.378247
	H114	H	0.899616	0.083701	0.611765
	H115	H	0.907765	0.906569	0.378445
	H116	H	0.608623	0.080545	0.906536
	H117	H	0.385982	0.084304	0.078691
	H118	H	0.612573	0.895491	0.086229
	H119	H	0.383928	0.907765	0.905822
	C120	C	0.375230	0.001583	0.614794
	C121	C	0.618721	0.983431	0.615802
	C122	C	0.617533	0.001175	0.374140
	C123	C	0.374074	0.983476	0.373196
	C124	C	0.618451	0.372154	0.005963
	C125	C	0.618469	0.613445	0.987775
	C126	C	0.375719	0.614561	0.006417
	C127	C	0.376268	0.373306	0.988607
	C128	C	0.004962	0.616258	0.373345
	C129	C	0.988945	0.617873	0.617967
	C130	C	0.005635	0.372109	0.616299
	C131	C	0.988933	0.371442	0.372135
	C132	C	0.874469	0.502836	0.117821
	C133	C	0.118689	0.485167	0.117082
	C134	C	0.118963	0.503399	0.875724
	C135	C	0.875341	0.484709	0.876045
	C136	C	0.116578	0.874472	0.502151
	C137	C	0.118541	0.114541	0.484708
	C138	C	0.874897	0.114044	0.502011
	C139	C	0.874473	0.872273	0.484833
	C140	C	0.504826	0.114350	0.874014
	C141	C	0.488887	0.114277	0.118035
	C142	C	0.505149	0.870082	0.118432
	C143	C	0.487449	0.869331	0.873233
	C144	C	0.375911	0.878312	0.670609
	C145	C	0.618706	0.105491	0.675040
	C146	C	0.614197	0.877424	0.318932
	C147	C	0.376554	0.105993	0.316041
	C148	C	0.677398	0.368720	0.884170
	C149	C	0.676116	0.615814	0.110483
	C150	C	0.314661	0.618995	0.885294
	C151	C	0.318340	0.372088	0.111008
	C152	C	0.884251	0.672783	0.373395
	C153	C	0.108219	0.677419	0.618540
	C154	C	0.885617	0.313222	0.616905
	C155	C	0.108838	0.313175	0.370357
	C156	C	0.885816	0.371778	0.675254
	C157	C	0.108608	0.619197	0.677031
	C158	C	0.884565	0.614860	0.316009
	C159	C	0.109498	0.373102	0.314756
	C160	C	0.375518	0.671508	0.883413
	C161	C	0.616292	0.670429	0.111203
	C162	C	0.619251	0.312574	0.883470
	C163	C	0.377039	0.315581	0.111543
	C164	C	0.675420	0.879344	0.371373
	C165	C	0.677674	0.104848	0.618379
	C166	C	0.316016	0.880172	0.615758
	C167	C	0.316551	0.105508	0.369869
	C168	C	0.876191	0.379844	0.174387
	C169	C	0.115652	0.608417	0.173456
	C170	C	0.119876	0.381725	0.815731
	C171	C	0.876028	0.607580	0.818812
	C172	C	0.174359	0.871660	0.379750
	C173	C	0.176938	0.117404	0.606964
	C174	C	0.816035	0.115645	0.379794
	C175	C	0.815837	0.870130	0.606959
	C176	C	0.385518	0.174145	0.872543
	C177	C	0.608857	0.173500	0.120478
	C178	C	0.385006	0.812490	0.118177
	C179	C	0.608066	0.812678	0.874275
	C180	C	0.384395	0.871275	0.174820
	C181	C	0.609366	0.113128	0.175606
	C182	C	0.384802	0.114946	0.814939
	C183	C	0.607917	0.869455	0.815506
	C184	C	0.875201	0.171383	0.378839
	C185	C	0.117892	0.172257	0.607922
	C186	C	0.114893	0.816577	0.378822
	C187	C	0.875088	0.815510	0.607983
	C188	C	0.178651	0.382644	0.872091
	C189	C	0.177281	0.606661	0.121680
	C190	C	0.815610	0.381158	0.121194
	C191	C	0.816607	0.606004	0.874391
	C192	C	0.399422	0.086496	0.590784
	C193	C	0.594795	0.898433	0.590611
	C194	C	0.594561	0.086337	0.398795
	C195	C	0.396302	0.898168	0.397741
	C196	C	0.594367	0.397243	0.091339
	C197	C	0.595609	0.588820	0.901846
	C198	C	0.399859	0.589593	0.091570
	C199	C	0.400279	0.397659	0.903411
	C200	C	0.089177	0.593408	0.397305
	C201	C	0.905396	0.592661	0.593414
	C202	C	0.088867	0.396717	0.591425
	C203	C	0.905016	0.394949	0.396718
	C204	C	0.897645	0.587864	0.093235
	C205	C	0.095926	0.400106	0.092384
	C206	C	0.094404	0.587555	0.901745
	C207	C	0.899164	0.400178	0.900520
	C208	C	0.093636	0.899141	0.587904
	C209	C	0.094710	0.089495	0.399301
	C210	C	0.899022	0.089275	0.586973
	C211	C	0.898013	0.896576	0.399259
	C212	C	0.587739	0.088985	0.899134
	C213	C	0.405196	0.090792	0.093112
	C214	C	0.589535	0.893203	0.095243
	C215	C	0.403343	0.892787	0.896419
	Zn216	Zn	0.496189	-0.008535	0.743415
	Zn217	Zn	0.496703	-0.007587	0.247230
	Zn218	Zn	0.746562	0.492807	-0.002767
	Zn219	Zn	0.247584	0.494934	-0.002146
	Zn220	Zn	-0.004191	0.746001	0.494017
	Zn221	Zn	-0.002515	0.241459	0.493405
	Zn222	Zn	-0.002795	0.494636	0.747480
	Zn223	Zn	-0.003136	0.494116	0.243934
	Zn224	Zn	0.496421	0.740784	-0.003673
	Zn225	Zn	0.497377	0.244275	-0.003082
	Zn226	Zn	0.746217	-0.007632	0.493130
	Zn227	Zn	0.246404	-0.005905	0.493607
	N228	N	0.412176	0.954727	0.669928
	N229	N	0.582852	0.028731	0.673547
	N230	N	0.579010	0.954309	0.320478
	N231	N	0.411606	0.029166	0.317858
	N232	N	0.676968	0.404847	0.961469
	N233	N	0.677533	0.580933	0.032617
	N234	N	0.314597	0.584241	0.962928
	N235	N	0.317525	0.407040	0.033451
	N236	N	0.960169	0.673784	0.408464
	N237	N	0.032747	0.676553	0.582605
	N238	N	0.961274	0.313129	0.581134
	N239	N	0.032805	0.311859	0.404964
	N240	N	0.961301	0.407687	0.675008
	N241	N	0.033156	0.582843	0.676793
	N242	N	0.960644	0.580466	0.315933
	N243	N	0.033727	0.408669	0.315804
	N244	N	0.412791	0.668644	0.959527
	N245	N	0.581221	0.669320	0.033822
	N246	N	0.583274	0.314537	0.960217
	N247	N	0.412412	0.316060	0.034330
	N248	N	0.677445	0.957210	0.405171
	N249	N	0.677849	0.027841	0.582691
	N250	N	0.315391	0.957995	0.581847
	N251	N	0.314957	0.028366	0.404780
	N252	N	0.912232	0.456321	0.172440
	N253	N	0.079642	0.531677	0.170892
	N254	N	0.083488	0.457812	0.817817
	N255	N	0.911794	0.531084	0.819391
	N256	N	0.175651	0.906756	0.457585
	N257	N	0.177628	0.082408	0.529262
	N258	N	0.815514	0.080713	0.457462
	N259	N	0.815411	0.904687	0.529235
	N260	N	0.461069	0.173760	0.908718
	N261	N	0.532863	0.174286	0.085048
	N262	N	0.461249	0.811669	0.083835
	N263	N	0.532072	0.812300	0.909144
	N264	N	0.460212	0.906418	0.174984
	N265	N	0.533749	0.077257	0.174460
	N266	N	0.460041	0.078427	0.815802
	N267	N	0.532034	0.904080	0.814516
	N268	N	0.911103	0.170588	0.455780
	N269	N	0.082264	0.170555	0.530720
	N270	N	0.079721	0.817934	0.456074
	N271	N	0.910724	0.816671	0.530950
	N272	N	0.178316	0.459450	0.908719
	N273	N	0.179350	0.529248	0.087379
	N274	N	0.814485	0.458538	0.086775
	N275	N	0.816094	0.528805	0.909128
	O276	O	0.604344	0.462533	0.570862
	H277	H	0.612960	0.456261	0.572189
	H278	H	0.605450	0.461067	0.550844
	O279	O	0.608473	0.644018	0.510725
	H280	H	0.598157	0.635340	0.526835
	H281	H	0.618158	0.644468	0.511105
	O282	O	1.115460	-0.101428	1.008108
	H283	H	1.117816	-0.099507	1.013191
	H284	H	1.109556	-0.091035	1.009163
	O285	O	0.498835	0.550788	0.370741
	H286	H	0.484726	0.551678	0.366192
	H287	H	0.493168	0.564634	0.378709
	O288	O	0.963073	1.042735	0.925651
	H289	H	0.959254	1.018268	0.932118
	H290	H	0.958576	1.049922	0.932747
	O291	O	0.180654	0.841332	-0.052199
	H292	H	0.196359	0.831294	-0.052998
	H293	H	0.161969	0.848834	-0.054302
	O294	O	0.398587	0.688071	0.379483
	H295	H	0.396877	0.692683	0.384081
	H296	H	0.396724	0.686903	0.395487
	O297	O	0.372481	0.495878	0.637629
	H298	H	0.382621	0.482657	0.625148
	H299	H	0.354715	0.492428	0.667577
	O300	O	0.446065	0.629321	0.410984
	H301	H	0.450232	0.632169	0.430224
	H302	H	0.442765	0.620832	0.418407
	O303	O	0.455951	0.564579	0.348240
	H304	H	0.451212	0.580367	0.354103
	H305	H	0.458259	0.574267	0.348633
	O306	O	0.316788	0.315473	0.623091
	H307	H	0.316351	0.319442	0.613990
	H308	H	0.347018	0.318591	0.619542
	O309	O	0.308447	0.583153	0.455753
	H310	H	0.294190	0.583246	0.461612
	H311	H	0.318780	0.574146	0.465933
	O312	O	-0.152548	-0.086987	0.005992
	H313	H	-0.147158	-0.086774	0.006441
	H314	H	-0.155473	-0.086897	-0.006232
	O315	O	0.527409	0.641326	0.698950
	H316	H	0.519865	0.646162	0.714247
	H317	H	0.528833	0.631966	0.703046
	O318	O	0.056016	1.136103	1.030870
	H319	H	0.059538	1.154698	1.043670
	H320	H	0.051799	1.122966	1.048758
	O321	O	0.460202	0.541049	0.581730
	H322	H	0.464617	0.523554	0.587453
	H323	H	0.458836	0.531310	0.576607
	O324	O	0.156124	1.094088	0.149403
	H325	H	0.158912	1.070813	0.139531
	H326	H	0.163246	1.097400	0.135673
	O327	O	0.667424	0.504122	0.522507
	H328	H	0.665861	0.522428	0.520860
	H329	H	0.663746	0.498260	0.509986
	O330	O	0.682718	-0.499354	1.624492
	H331	H	0.693432	-0.505299	1.613130
	H332	H	0.689121	-0.500875	1.625220
	O333	O	-0.062922	-0.027909	1.137036
	H334	H	-0.058139	-0.033737	1.137077
	H335	H	-0.065623	-0.023872	1.141193
	O336	O	0.644629	0.356932	0.505107
	H337	H	0.628047	0.367908	0.497681
	H338	H	0.661676	0.344863	0.494975
	O339	O	0.301596	-0.674590	0.510406
	H340	H	0.286045	-0.685370	0.509404
	H341	H	0.308394	-0.663809	0.514613
	O342	O	-0.048374	0.086691	0.018021
	H343	H	-0.050865	0.077159	0.022437
	H344	H	-0.056513	0.107360	0.006224
	O345	O	1.029671	0.084878	1.119524
	H346	H	1.024400	0.098696	1.113430
	H347	H	1.040024	0.079412	1.126704
	O348	O	0.903360	1.097843	-0.053267
	H349	H	0.879405	1.108000	-0.037994
	H350	H	0.892529	1.093254	-0.063232
	O351	O	0.456431	0.403219	0.656377
	H352	H	0.468799	0.386168	0.677055
	H353	H	0.468279	0.407505	0.652525
	O354	O	1.128901	0.161718	1.147558
	H355	H	1.132821	0.155974	1.143241
	H356	H	1.138014	0.163629	1.159262
	O357	O	0.487451	0.492590	0.400560
	H358	H	0.487062	0.503630	0.394123
	H359	H	0.492383	0.481830	0.397267
	O360	O	0.473650	0.433836	0.334234
	H361	H	0.469478	0.429730	0.339369
	H362	H	0.460985	0.433200	0.337222
	O363	O	-0.029441	0.863940	1.151291
	H364	H	-0.046078	0.855364	1.143896
	H365	H	-0.026876	0.853986	1.152248
	O366	O	0.451478	0.399613	0.530579
	H367	H	0.438256	0.394946	0.531994
	H368	H	0.450198	0.414502	0.529655
	O369	O	-0.098737	1.197246	-0.074463
	H370	H	-0.091196	1.195506	-0.077620
	H371	H	-0.098018	1.196520	-0.091665
	O372	O	0.777863	0.856914	0.936586
	H373	H	0.798876	0.844480	0.958041
	H374	H	0.781169	0.852934	0.914765
	O375	O	0.652669	0.625233	0.640764
	H376	H	0.640941	0.629898	0.627538
	H377	H	0.652616	0.609833	0.646795
	O378	O	0.910777	0.855810	-0.076070
	H379	H	0.926715	0.865539	-0.084596
	H380	H	0.902289	0.851153	-0.088532
	O381	O	0.818891	0.018948	-0.158928
	H382	H	0.799603	0.024875	-0.155841
	H383	H	0.829458	0.029230	-0.156819
	O384	O	0.932759	0.828167	0.055287
	H385	H	0.940416	0.835207	0.059271
	H386	H	0.930835	0.826449	0.044125
	O387	O	0.114271	-0.064961	-0.163736
	H388	H	0.125376	-0.036265	-0.157112
	H389	H	0.111598	-0.070869	-0.153344
	O390	O	-0.082312	1.045577	-0.196661
	H391	H	-0.093238	1.034110	-0.200440
	H392	H	-0.094078	1.034502	-0.188134
	O393	O	1.143791	1.017653	0.989363
	H394	H	1.156269	1.031356	0.987776
	H395	H	1.132096	1.013809	0.978971
	O396	O	0.517523	0.338126	0.496239
	H397	H	0.512758	0.327955	0.489261
	H398	H	0.503878	0.331322	0.499839
	O399	O	0.038821	0.863057	0.804053
	H400	H	0.053712	0.862262	0.797883
	H401	H	0.030456	0.866422	0.789838
	O402	O	0.515462	0.327769	0.389563
	H403	H	0.514822	0.344042	0.380170
	H404	H	0.511494	0.325966	0.376134
	O405	O	0.875595	0.903139	0.117966
	H406	H	0.882623	0.891521	0.116405
	H407	H	0.869098	0.892496	0.126207
	O408	O	1.206422	0.976464	-0.021716
	H409	H	1.209725	0.975999	-0.016790
	H410	H	1.204805	0.977047	-0.037435
	O411	O	0.892049	0.186075	0.846952
	H412	H	0.882619	0.176592	0.861489
	H413	H	0.909304	0.195133	0.842317
	O414	O	0.526980	0.450778	0.625741
	H415	H	0.528402	0.439903	0.631886
	H416	H	0.531562	0.457102	0.625799
	O417	O	0.520482	0.413859	0.349511
	H418	H	0.522159	0.404880	0.346126
	H419	H	0.521350	0.410534	0.347381
