data_Molecule from HDF5

_cell_length_a		16.272303
_cell_length_b		16.195452
_cell_length_c		16.087689
_cell_angle_alpha	90.148313
_cell_angle_beta	89.474636
_cell_angle_gamma	90.115326
_symmetry_space_group_name_H-M	'P 1'
_symmetry_Int_Tables_number		1

loop_
	_symmetry_equiv_pos_as_xyz
	x,y,z

loop_
	_atom_site_label
	_atom_site_type_symbol
	_atom_site_fract_x
	_atom_site_fract_y
	_atom_site_fract_z
	H0	H	0.408225	0.847211	0.717387
	H1	H	0.603736	0.177543	0.715557
	H2	H	0.607395	0.848652	0.285727
	H3	H	0.410174	0.177137	0.294693
	H4	H	0.722788	0.410299	0.840855
	H5	H	0.717404	0.613565	0.169505
	H6	H	0.292135	0.612180	0.839175
	H7	H	0.290536	0.413090	0.168894
	H8	H	0.843420	0.727798	0.408477
	H9	H	0.170831	0.727590	0.603359
	H10	H	0.843097	0.295938	0.606305
	H11	H	0.170339	0.296887	0.403430
	H12	H	0.842005	0.414342	0.719711
	H13	H	0.171352	0.609915	0.717540
	H14	H	0.841140	0.609022	0.293925
	H15	H	0.170097	0.413076	0.286981
	H16	H	0.409597	0.724637	0.837238
	H17	H	0.604069	0.728630	0.168509
	H18	H	0.604992	0.299298	0.838525
	H19	H	0.402210	0.298554	0.168765
	H20	H	0.724955	0.849035	0.399866
	H21	H	0.721842	0.175421	0.605558
	H22	H	0.290679	0.847431	0.604347
	H23	H	0.292179	0.175070	0.404267
	H24	H	0.906326	0.346359	0.218266
	H25	H	0.101721	0.676706	0.216267
	H26	H	0.104357	0.346639	0.791109
	H27	H	0.910362	0.677064	0.794082
	H28	H	0.221881	0.910622	0.339583
	H29	H	0.220442	0.110895	0.669142
	H30	H	0.793915	0.113201	0.339982
	H31	H	0.788402	0.910874	0.668687
	H32	H	0.341588	0.227718	0.904402
	H33	H	0.667885	0.230958	0.102086
	H34	H	0.342297	0.798820	0.102937
	H35	H	0.670008	0.796336	0.899713
	H36	H	0.341779	0.915463	0.218783
	H37	H	0.668929	0.114721	0.218131
	H38	H	0.341628	0.108775	0.791933
	H39	H	0.671323	0.916069	0.787537
	H40	H	0.910233	0.224620	0.339417
	H41	H	0.104397	0.224775	0.670515
	H42	H	0.108068	0.797468	0.340384
	H43	H	0.906640	0.799758	0.671467
	H44	H	0.223233	0.348528	0.901916
	H45	H	0.220253	0.675438	0.105351
	H46	H	0.787048	0.348487	0.107594
	H47	H	0.791780	0.675721	0.904915
	H48	H	0.414400	0.128479	0.594349
	H49	H	0.597561	0.893425	0.600440
	H50	H	0.601596	0.127722	0.416139
	H51	H	0.416356	0.892307	0.406586
	H52	H	0.580480	0.415133	0.119909
	H53	H	0.591844	0.597843	0.889607
	H54	H	0.417620	0.604788	0.119657
	H55	H	0.408728	0.412321	0.881111
	H56	H	0.118008	0.598481	0.416821
	H57	H	0.891200	0.607079	0.595244
	H58	H	0.123899	0.424018	0.604234
	H59	H	0.885343	0.412334	0.406593
	H60	H	0.127045	0.409327	0.598074
	H61	H	0.890558	0.602823	0.601830
	H62	H	0.125965	0.602644	0.398948
	H63	H	0.890906	0.413137	0.421518
	H64	H	0.410093	0.613241	0.124848
	H65	H	0.597979	0.612755	0.882521
	H66	H	0.606620	0.412352	0.128519
	H67	H	0.408681	0.429838	0.886832
	H68	H	0.602855	0.131099	0.410040
	H69	H	0.594636	0.897097	0.590913
	H70	H	0.409059	0.130285	0.595368
	H71	H	0.416264	0.894922	0.415771
	H72	H	0.916550	0.627570	0.098216
	H73	H	0.098451	0.394632	0.092500
	H74	H	0.110242	0.633900	0.907766
	H75	H	0.907385	0.391186	0.909793
	H76	H	0.103054	0.916905	0.625860
	H77	H	0.106233	0.107181	0.382940
	H78	H	0.913999	0.104594	0.623701
	H79	H	0.908518	0.918258	0.384639
	H80	H	0.621676	0.108118	0.916209
	H81	H	0.387417	0.106332	0.104565
	H82	H	0.618931	0.920400	0.081160
	H83	H	0.387880	0.910995	0.912829
	H84	H	0.620819	0.931524	0.099911
	H85	H	0.387825	0.111885	0.095974
	H86	H	0.621180	0.101073	0.907307
	H87	H	0.392958	0.923395	0.916212
	H88	H	0.911337	0.103376	0.623169
	H89	H	0.101364	0.098222	0.387295
	H90	H	0.099892	0.925724	0.622748
	H91	H	0.918313	0.928453	0.390063
	H92	H	0.090043	0.628320	0.905675
	H93	H	0.100054	0.392841	0.096384
	H94	H	0.907950	0.629172	0.094560
	H95	H	0.919246	0.395924	0.910311
	H96	H	0.412940	0.130401	0.599625
	H97	H	0.604574	0.893658	0.591443
	H98	H	0.596530	0.128455	0.412208
	H99	H	0.407294	0.892510	0.411053
	H100	H	0.598457	0.436925	0.118582
	H101	H	0.608516	0.599194	0.884653
	H102	H	0.406593	0.601358	0.122744
	H103	H	0.423759	0.419761	0.887562
	H104	H	0.126125	0.616090	0.414297
	H105	H	0.888001	0.610504	0.602743
	H106	H	0.119555	0.421376	0.588659
	H107	H	0.892562	0.426301	0.412141
	H108	H	0.909167	0.631587	0.104244
	H109	H	0.096842	0.394116	0.096489
	H110	H	0.099032	0.625453	0.924121
	H111	H	0.912292	0.395517	0.920807
	H112	H	0.093284	0.918106	0.622627
	H113	H	0.095428	0.107348	0.387418
	H114	H	0.912557	0.102217	0.622904
	H115	H	0.922651	0.913397	0.386938
	H116	H	0.624985	0.111870	0.905955
	H117	H	0.390162	0.101491	0.095648
	H118	H	0.627596	0.911276	0.098762
	H119	H	0.388572	0.920856	0.903361
	C120	C	0.383697	0.020692	0.625534
	C121	C	0.627573	1.003516	0.624247
	C122	C	0.629398	0.020945	0.381814
	C123	C	0.385495	1.002511	0.383268
	C124	C	0.625833	0.391505	0.013479
	C125	C	0.627240	0.633703	0.995037
	C126	C	0.383962	0.634401	0.012687
	C127	C	0.384052	0.391876	0.994599
	C128	C	0.015141	0.633954	0.383043
	C129	C	0.998207	0.635305	0.627983
	C130	C	0.015432	0.389952	0.626867
	C131	C	0.997860	0.389034	0.382944
	C132	C	0.882153	0.520595	0.127801
	C133	C	0.126722	0.502592	0.124802
	C134	C	0.128859	0.520575	0.882669
	C135	C	0.884945	0.503160	0.884473
	C136	C	0.128388	0.890746	0.514184
	C137	C	0.128588	0.132975	0.495592
	C138	C	0.885433	0.132664	0.513770
	C139	C	0.886006	0.891284	0.496582
	C140	C	0.514149	0.134928	0.881526
	C141	C	0.496276	0.136010	0.126247
	C142	C	0.514625	0.891802	0.123906
	C143	C	0.498175	0.889834	0.880634
	C144	C	0.387207	0.896557	0.680311
	C145	C	0.624657	0.127710	0.679031
	C146	C	0.627273	0.897683	0.324497
	C147	C	0.388924	0.127376	0.330275
	C148	C	0.683794	0.391632	0.889742
	C149	C	0.680944	0.633503	0.119684
	C150	C	0.329776	0.632004	0.888268
	C151	C	0.328287	0.393579	0.119465
	C152	C	0.891953	0.689462	0.387156
	C153	C	0.121807	0.690166	0.624397
	C154	C	0.891970	0.334205	0.625946
	C155	C	0.121378	0.334757	0.383776
	C156	C	0.891507	0.392898	0.682475
	C157	C	0.121965	0.631139	0.680888
	C158	C	0.891011	0.630380	0.330209
	C159	C	0.121296	0.392723	0.325963
	C160	C	0.388030	0.688328	0.887494
	C161	C	0.624142	0.690552	0.119251
	C162	C	0.625189	0.336249	0.888579
	C163	C	0.384056	0.336608	0.119253
	C164	C	0.685772	0.897748	0.381261
	C165	C	0.683550	0.126732	0.624405
	C166	C	0.328855	0.896730	0.624064
	C167	C	0.330064	0.126098	0.384857
	C168	C	0.885173	0.396220	0.181870
	C169	C	0.123018	0.627203	0.179474
	C170	C	0.125655	0.396354	0.827786
	C171	C	0.889231	0.627429	0.830512
	C172	C	0.184165	0.891305	0.389469
	C173	C	0.182744	0.130903	0.620063
	C174	C	0.831243	0.132066	0.389461
	C175	C	0.827654	0.891849	0.620115
	C176	C	0.390687	0.189926	0.884298
	C177	C	0.619383	0.192401	0.122748
	C178	C	0.391124	0.836489	0.123077
	C179	C	0.621163	0.834325	0.880663
	C180	C	0.390952	0.894571	0.180661
	C181	C	0.619871	0.134545	0.180491
	C182	C	0.390612	0.130521	0.828433
	C183	C	0.621945	0.894407	0.825133
	C184	C	0.889408	0.187643	0.389129
	C185	C	0.125060	0.187611	0.620757
	C186	C	0.127497	0.835023	0.389776
	C187	C	0.886706	0.836568	0.621450
	C188	C	0.184327	0.397014	0.883447
	C189	C	0.181976	0.626439	0.124207
	C190	C	0.825835	0.397353	0.126603
	C191	C	0.829948	0.626698	0.885751
	C192	C	0.405574	0.107196	0.603115
	C193	C	0.605482	0.917024	0.601150
	C194	C	0.606988	0.106931	0.405844
	C195	C	0.407015	0.915732	0.404598
	C196	C	0.602165	0.414793	0.099890
	C197	C	0.605820	0.610252	0.908018
	C198	C	0.405143	0.612767	0.099943
	C199	C	0.407182	0.414086	0.907565
	C200	C	0.101139	0.612097	0.403809
	C201	C	0.912197	0.613317	0.606394
	C202	C	0.101271	0.411739	0.603704
	C203	C	0.911930	0.410944	0.406414
	C204	C	0.904537	0.606994	0.105580
	C205	C	0.104867	0.416171	0.101992
	C206	C	0.106499	0.607061	0.905771
	C207	C	0.906592	0.416593	0.907096
	C208	C	0.105505	0.913604	0.601253
	C209	C	0.107429	0.110872	0.408537
	C210	C	0.906456	0.109994	0.600830
	C211	C	0.909427	0.913605	0.409806
	C212	C	0.600303	0.113465	0.903296
	C213	C	0.410702	0.113338	0.104963
	C214	C	0.600183	0.914446	0.100350
	C215	C	0.411960	0.911735	0.903910
	Zn216	Zn	0.506518	0.013030	0.752380
	Zn217	Zn	0.506083	0.013266	0.254455
	Zn218	Zn	0.754741	0.512056	0.005388
	Zn219	Zn	0.256469	0.511926	0.004232
	Zn220	Zn	0.007777	0.763737	0.505368
	Zn221	Zn	0.006480	0.260285	0.505536
	Zn222	Zn	0.006539	0.511747	0.755620
	Zn223	Zn	0.005879	0.511440	0.253717
	Zn224	Zn	0.506360	0.761437	0.003123
	Zn225	Zn	0.504016	0.264432	0.003467
	Zn226	Zn	0.757306	0.011866	0.504370
	Zn227	Zn	0.256038	0.011324	0.503679
	N228	N	0.420506	0.974724	0.681576
	N229	N	0.590412	0.050011	0.679003
	N230	N	0.593097	0.975405	0.324592
	N231	N	0.422751	0.049606	0.329120
	N232	N	0.684258	0.425256	0.968373
	N233	N	0.682963	0.598824	0.041496
	N234	N	0.327007	0.599185	0.967103
	N235	N	0.327983	0.427260	0.040950
	N236	N	0.970011	0.692098	0.419048
	N237	N	0.043856	0.692771	0.592109
	N238	N	0.970064	0.332008	0.592038
	N239	N	0.043769	0.332169	0.418182
	N240	N	0.968949	0.426950	0.683079
	N241	N	0.044173	0.597842	0.683225
	N242	N	0.968469	0.596436	0.327686
	N243	N	0.043220	0.425674	0.325190
	N244	N	0.421036	0.689707	0.965917
	N245	N	0.591528	0.690646	0.040504
	N246	N	0.589738	0.335955	0.966498
	N247	N	0.417955	0.335288	0.040611
	N248	N	0.687447	0.975472	0.415930
	N249	N	0.685411	0.048425	0.590932
	N250	N	0.326580	0.974843	0.590661
	N251	N	0.327746	0.047405	0.417094
	N252	N	0.919446	0.473899	0.182847
	N253	N	0.089337	0.549224	0.180037
	N254	N	0.092070	0.474291	0.827128
	N255	N	0.922587	0.549494	0.829488
	N256	N	0.184850	0.925236	0.468034
	N257	N	0.185139	0.097763	0.541267
	N258	N	0.828708	0.098566	0.467954
	N259	N	0.827001	0.925008	0.541433
	N260	N	0.468537	0.192594	0.916888
	N261	N	0.541716	0.193670	0.090070
	N262	N	0.468810	0.834615	0.088435
	N263	N	0.543238	0.831662	0.914711
	N264	N	0.468650	0.928410	0.181410
	N265	N	0.542366	0.100195	0.182988
	N266	N	0.468310	0.097270	0.826493
	N267	N	0.544324	0.928006	0.824720
	N268	N	0.922392	0.188193	0.467589
	N269	N	0.092216	0.189146	0.542396
	N270	N	0.093530	0.834467	0.468445
	N271	N	0.922342	0.836034	0.543535
	N272	N	0.186583	0.475446	0.916652
	N273	N	0.184434	0.547921	0.091077
	N274	N	0.823807	0.475773	0.093749
	N275	N	0.827205	0.548374	0.918707
	O276	O	0.508932	0.487600	0.563480
	H277	H	0.516255	0.484702	0.575180
	H278	H	0.502010	0.479775	0.574877
	O279	O	0.546235	0.551788	0.542123
	H280	H	0.547498	0.552931	0.534220
	H281	H	0.538430	0.555553	0.538288
	O282	O	0.927737	1.013457	0.023801
	H283	H	0.922081	1.011278	0.027000
	H284	H	0.931567	1.007214	0.014789
	O285	O	0.997000	-0.038400	1.042370
	H286	H	0.993508	-0.041733	1.036224
	H287	H	1.001444	-0.055158	1.043633
	O288	O	0.042279	-0.075190	-0.097235
	H289	H	0.037033	-0.092777	-0.105054
	H290	H	0.046404	-0.065080	-0.096486
	O291	O	0.473507	0.552014	0.488086
	H292	H	0.472586	0.547137	0.497627
	H293	H	0.467901	0.554362	0.497379
	O294	O	0.547726	0.542738	0.648393
	H295	H	0.550193	0.550500	0.638541
	H296	H	0.548562	0.553292	0.649362
	O297	O	0.000318	0.063638	0.986919
	H298	H	-0.003248	0.065726	0.991398
	H299	H	-0.008165	0.064187	0.994641
	O300	O	0.561643	0.502864	0.439710
	H301	H	0.569837	0.495606	0.440643
	H302	H	0.566308	0.506196	0.429020
	O303	O	1.060365	1.034394	0.027804
	H304	H	1.072126	1.037442	0.020355
	H305	H	1.065971	1.045701	0.013476
	O306	O	-0.483322	1.462505	0.385715
	H307	H	-0.467230	1.471589	0.389570
	H308	H	-0.478389	1.458615	0.374603
	O309	O	0.577464	0.588548	0.460278
	H310	H	0.566528	0.584820	0.467506
	H311	H	0.581913	0.591666	0.460810
	O312	O	0.085840	0.006401	0.016967
	H313	H	0.078013	0.001925	0.024161
	H314	H	0.090097	-0.004382	0.012437
	O315	O	1.011999	0.053539	0.028645
	H316	H	1.010607	0.044860	0.028514
	H317	H	1.011914	0.053339	0.026100
	O318	O	1.051535	0.865517	0.957888
	H319	H	1.058962	0.875111	0.957382
	H320	H	1.066775	0.861253	0.950652
	O321	O	-0.066927	-0.066129	0.971937
	H322	H	-0.055653	-0.066858	0.982659
	H323	H	-0.059245	-0.079775	0.966027
	O324	O	0.365813	0.496925	0.492441
	H325	H	0.363573	0.483776	0.489264
	H326	H	0.355024	0.495672	0.480636
	O327	O	-0.058945	-0.064810	-0.039715
	H328	H	-0.067503	-0.056468	-0.042704
	H329	H	-0.043772	-0.066165	-0.029792
	O330	O	0.412219	0.532324	0.487114
	H331	H	0.421175	0.532915	0.489623
	H332	H	0.409839	0.530782	0.493622
	O333	O	-0.597964	0.486574	0.522009
	H334	H	-0.594016	0.480895	0.518990
	H335	H	-0.596619	0.473668	0.526520
	O336	O	-0.011691	0.056407	0.111802
	H337	H	-0.010285	0.073722	0.112370
	H338	H	-0.023223	0.063207	0.120830
	O339	O	0.951260	0.017727	1.013066
	H340	H	0.945609	0.018709	1.016203
	H341	H	0.953145	0.012633	1.002735
	O342	O	1.030055	1.073747	0.953178
	H343	H	1.016810	1.069984	0.959437
	H344	H	1.045955	1.073632	0.956681
	O345	O	1.050294	0.966169	0.017006
	H346	H	1.050385	0.971856	0.014174
	H347	H	1.046034	0.968675	0.006293
	O348	O	0.472584	0.448620	0.626973
	H349	H	0.476804	0.441839	0.629766
	H350	H	0.479282	0.452676	0.616335
	O351	O	0.473569	0.582957	0.442240
	H352	H	0.470444	0.580834	0.441944
	H353	H	0.472046	0.582943	0.445806
	O354	O	0.547035	0.513422	0.497478
	H355	H	0.553737	0.509489	0.493062
	H356	H	0.542562	0.512225	0.501842
	O357	O	1.047672	-0.045514	0.993251
	H358	H	1.057206	-0.052432	0.990739
	H359	H	1.039150	-0.046865	1.000173
	O360	O	0.607998	0.414215	0.468505
	H361	H	0.593931	0.419730	0.479025
	H362	H	0.608603	0.417349	0.470353
	O363	O	0.969655	0.042065	1.052238
	H364	H	0.957700	0.035580	1.065587
	H365	H	0.961347	0.042144	1.040612
	O366	O	0.641421	0.408988	0.435599
	H367	H	0.656208	0.414984	0.433756
	H368	H	0.641261	0.427263	0.441012
	O369	O	0.933346	-0.009779	1.084180
	H370	H	0.935369	-0.010839	1.090741
	H371	H	0.926729	0.002988	1.084442
	O372	O	0.054196	0.099419	0.030908
	H373	H	0.034791	0.105163	0.031169
	H374	H	0.059918	0.105872	0.039663
	O375	O	0.970143	0.103497	0.006387
	H376	H	0.972097	0.099402	0.019868
	H377	H	0.964986	0.093823	0.005039
	O378	O	0.493056	0.482288	0.543396
	H379	H	0.488422	0.478507	0.541125
	H380	H	0.494922	0.480591	0.534754
	O381	O	0.472732	0.616367	0.537841
	H382	H	0.456643	0.619254	0.531292
	H383	H	0.468055	0.615376	0.557100
