data_Molecule from HDF5

_cell_length_a		16.473837
_cell_length_b		16.167554
_cell_length_c		15.979616
_cell_angle_alpha	90.125885
_cell_angle_beta	90.233903
_cell_angle_gamma	90.154797
_symmetry_space_group_name_H-M	'P 1'
_symmetry_Int_Tables_number		1

loop_
	_symmetry_equiv_pos_as_xyz
	x,y,z

loop_
	_atom_site_label
	_atom_site_type_symbol
	_atom_site_fract_x
	_atom_site_fract_y
	_atom_site_fract_z
	H0	H	0.412162	0.833206	0.702888
	H1	H	0.602563	0.165132	0.709528
	H2	H	0.598203	0.833257	0.286646
	H3	H	0.411878	0.165567	0.285399
	H4	H	0.717957	0.398221	0.830202
	H5	H	0.723002	0.603436	0.160501
	H6	H	0.289248	0.600822	0.831540
	H7	H	0.289449	0.397423	0.161311
	H8	H	0.844265	0.717186	0.394295
	H9	H	0.167695	0.716064	0.596847
	H10	H	0.843840	0.282423	0.593900
	H11	H	0.167844	0.283855	0.396791
	H12	H	0.840967	0.404211	0.706470
	H13	H	0.167839	0.596924	0.711397
	H14	H	0.843040	0.595840	0.281176
	H15	H	0.168503	0.402423	0.282282
	H16	H	0.408435	0.707982	0.829314
	H17	H	0.602159	0.711403	0.163695
	H18	H	0.598940	0.288346	0.829132
	H19	H	0.408809	0.288041	0.163428
	H20	H	0.722941	0.837000	0.391162
	H21	H	0.723621	0.163299	0.599121
	H22	H	0.288380	0.837721	0.599341
	H23	H	0.290318	0.163930	0.393535
	H24	H	0.912010	0.332651	0.204434
	H25	H	0.100351	0.665035	0.206741
	H26	H	0.095727	0.333307	0.787006
	H27	H	0.910391	0.666429	0.786696
	H28	H	0.220608	0.898663	0.330289
	H29	H	0.222130	0.102500	0.660518
	H30	H	0.789739	0.102608	0.330766
	H31	H	0.790775	0.897956	0.660382
	H32	H	0.342177	0.213768	0.895641
	H33	H	0.665490	0.218705	0.097952
	H34	H	0.341674	0.782968	0.095109
	H35	H	0.666519	0.782088	0.896976
	H36	H	0.341455	0.902890	0.209897
	H37	H	0.668542	0.097152	0.210918
	H38	H	0.342117	0.093010	0.781856
	H39	H	0.668162	0.901545	0.782668
	H40	H	0.909562	0.209962	0.328527
	H41	H	0.102479	0.210679	0.662881
	H42	H	0.101914	0.788224	0.328678
	H43	H	0.911518	0.790405	0.663813
	H44	H	0.220835	0.336085	0.892765
	H45	H	0.223859	0.661538	0.100019
	H46	H	0.788616	0.335981	0.098028
	H47	H	0.788210	0.663191	0.894080
	H48	H	0.419044	0.114043	0.579307
	H49	H	0.602539	0.879427	0.593371
	H50	H	0.603188	0.117850	0.406433
	H51	H	0.410422	0.877343	0.389233
	H52	H	0.586787	0.410528	0.111459
	H53	H	0.594021	0.594765	0.876559
	H54	H	0.408558	0.587459	0.116252
	H55	H	0.403544	0.403478	0.873331
	H56	H	0.124369	0.607684	0.403798
	H57	H	0.887879	0.597864	0.595399
	H58	H	0.119911	0.401604	0.586490
	H59	H	0.890898	0.403230	0.403289
	H60	H	0.119600	0.410872	0.589904
	H61	H	0.889731	0.600176	0.584166
	H62	H	0.116275	0.588483	0.414975
	H63	H	0.890376	0.405912	0.401431
	H64	H	0.415598	0.589530	0.114687
	H65	H	0.604357	0.592259	0.875293
	H66	H	0.602747	0.398634	0.119920
	H67	H	0.411329	0.417598	0.880293
	H68	H	0.600756	0.118738	0.402417
	H69	H	0.594326	0.884249	0.585591
	H70	H	0.401253	0.121101	0.585556
	H71	H	0.423626	0.887429	0.411292
	H72	H	0.911715	0.616440	0.084537
	H73	H	0.099107	0.381429	0.085233
	H74	H	0.095467	0.613303	0.915633
	H75	H	0.902723	0.379217	0.900197
	H76	H	0.103322	0.914621	0.614555
	H77	H	0.083513	0.093647	0.379014
	H78	H	0.915129	0.092503	0.614639
	H79	H	0.917821	0.906488	0.377351
	H80	H	0.619250	0.102813	0.914435
	H81	H	0.386703	0.094119	0.098815
	H82	H	0.622129	0.901407	0.093607
	H83	H	0.389791	0.900375	0.905636
	H84	H	0.618488	0.902556	0.085252
	H85	H	0.388857	0.099689	0.085206
	H86	H	0.615559	0.081702	0.906420
	H87	H	0.390013	0.907257	0.899492
	H88	H	0.911931	0.090710	0.615589
	H89	H	0.109091	0.103644	0.369404
	H90	H	0.094393	0.908746	0.613396
	H91	H	0.907747	0.905843	0.374790
	H92	H	0.110517	0.620505	0.906098
	H93	H	0.101758	0.380207	0.088198
	H94	H	0.908947	0.617475	0.088222
	H95	H	0.912975	0.381942	0.898424
	H96	H	0.416894	0.120510	0.598522
	H97	H	0.605699	0.883427	0.581178
	H98	H	0.599163	0.117051	0.406805
	H99	H	0.397239	0.881219	0.413982
	H100	H	0.605863	0.419663	0.114595
	H101	H	0.597680	0.584172	0.879525
	H102	H	0.412026	0.593923	0.117805
	H103	H	0.418662	0.403243	0.878125
	H104	H	0.121504	0.586380	0.392599
	H105	H	0.890835	0.589505	0.588678
	H106	H	0.122592	0.403616	0.595973
	H107	H	0.889473	0.402503	0.399667
	H108	H	0.913713	0.616527	0.088567
	H109	H	0.098596	0.381192	0.089099
	H110	H	0.093706	0.618677	0.897363
	H111	H	0.908984	0.383195	0.908896
	H112	H	0.103114	0.904946	0.616765
	H113	H	0.106843	0.075495	0.378591
	H114	H	0.914782	0.088662	0.613857
	H115	H	0.912148	0.914413	0.378350
	H116	H	0.625088	0.097044	0.893059
	H117	H	0.392392	0.086023	0.086913
	H118	H	0.618270	0.909596	0.091682
	H119	H	0.387207	0.899179	0.896029
	C120	C	0.384521	0.009093	0.616387
	C121	C	0.628824	0.991240	0.617009
	C122	C	0.627768	0.008642	0.375329
	C123	C	0.383535	0.991165	0.375261
	C124	C	0.625510	0.379434	0.005029
	C125	C	0.626723	0.620014	0.987345
	C126	C	0.383976	0.618779	0.005587
	C127	C	0.383261	0.378582	0.987052
	C128	C	0.013993	0.622503	0.373525
	C129	C	0.996895	0.623504	0.618847
	C130	C	0.013148	0.377343	0.618052
	C131	C	0.997692	0.376433	0.373227
	C132	C	0.883698	0.507966	0.116430
	C133	C	0.128003	0.490073	0.117134
	C134	C	0.126449	0.508358	0.876154
	C135	C	0.881259	0.490732	0.874106
	C136	C	0.127808	0.879703	0.504794
	C137	C	0.127648	0.120101	0.486288
	C138	C	0.885324	0.119860	0.504612
	C139	C	0.885141	0.879719	0.486878
	C140	C	0.513014	0.121145	0.874492
	C141	C	0.496586	0.121974	0.118954
	C142	C	0.512418	0.876104	0.118693
	C143	C	0.496283	0.874913	0.872514
	C144	C	0.389665	0.883830	0.668407
	C145	C	0.624611	0.115553	0.672782
	C146	C	0.621690	0.883449	0.321799
	C147	C	0.389455	0.115978	0.321627
	C148	C	0.679336	0.380117	0.879610
	C149	C	0.683244	0.620934	0.111866
	C150	C	0.327817	0.618792	0.880787
	C151	C	0.327994	0.378698	0.111980
	C152	C	0.892427	0.678349	0.374769
	C153	C	0.119290	0.677948	0.616919
	C154	C	0.891392	0.321778	0.614010
	C155	C	0.119645	0.322010	0.376312
	C156	C	0.890148	0.381953	0.670234
	C157	C	0.119246	0.618920	0.674116
	C158	C	0.891726	0.618158	0.318314
	C159	C	0.119850	0.380617	0.319052
	C160	C	0.387383	0.672136	0.879532
	C161	C	0.623202	0.674533	0.113297
	C162	C	0.620411	0.325230	0.879058
	C163	C	0.387090	0.324213	0.113085
	C164	C	0.683496	0.885434	0.374010
	C165	C	0.684698	0.114544	0.617761
	C166	C	0.327924	0.886128	0.616670
	C167	C	0.328732	0.114976	0.374911
	C168	C	0.889051	0.382836	0.169508
	C169	C	0.123342	0.615113	0.171254
	C170	C	0.119650	0.383146	0.822591
	C171	C	0.887414	0.616149	0.821807
	C172	C	0.182077	0.880291	0.379435
	C173	C	0.183595	0.120918	0.611210
	C174	C	0.829133	0.119976	0.379761
	C175	C	0.829579	0.879628	0.611488
	C176	C	0.390770	0.175972	0.875378
	C177	C	0.618015	0.179216	0.117938
	C178	C	0.390199	0.821208	0.115721
	C179	C	0.618223	0.820349	0.876231
	C180	C	0.389995	0.880627	0.172969
	C181	C	0.619626	0.118527	0.173439
	C182	C	0.390513	0.115953	0.819175
	C183	C	0.619071	0.879902	0.819451
	C184	C	0.888780	0.173375	0.378492
	C185	C	0.124263	0.174804	0.612232
	C186	C	0.123392	0.825156	0.378871
	C187	C	0.889575	0.826037	0.613157
	C188	C	0.181538	0.384660	0.875415
	C189	C	0.184467	0.613315	0.118084
	C190	C	0.827640	0.384673	0.116667
	C191	C	0.826965	0.614632	0.875499
	C192	C	0.406025	0.096172	0.594338
	C193	C	0.607370	0.904710	0.593547
	C194	C	0.607237	0.095418	0.398302
	C195	C	0.404185	0.904384	0.398255
	C196	C	0.604706	0.402600	0.092740
	C197	C	0.604975	0.597209	0.899811
	C198	C	0.405805	0.596857	0.093455
	C199	C	0.404821	0.401247	0.899597
	C200	C	0.098909	0.600514	0.396772
	C201	C	0.911426	0.602076	0.596091
	C202	C	0.098705	0.399071	0.597192
	C203	C	0.912328	0.397653	0.394923
	C204	C	0.905098	0.594356	0.093870
	C205	C	0.106275	0.403499	0.094126
	C206	C	0.106004	0.595189	0.899312
	C207	C	0.901827	0.403931	0.896151
	C208	C	0.106778	0.902720	0.592419
	C209	C	0.106085	0.097445	0.398481
	C210	C	0.907387	0.097317	0.592113
	C211	C	0.906378	0.902203	0.399424
	C212	C	0.598081	0.099928	0.897686
	C213	C	0.411556	0.099928	0.096870
	C214	C	0.597504	0.897909	0.096613
	C215	C	0.410972	0.895978	0.893913
	Zn216	Zn	0.505452	-0.000799	0.743985
	Zn217	Zn	0.505538	-0.000509	0.248654
	Zn218	Zn	0.754319	0.499492	-0.003964
	Zn219	Zn	0.256136	0.499165	-0.003560
	Zn220	Zn	0.005851	0.752891	0.496494
	Zn221	Zn	0.006036	0.246549	0.495383
	Zn222	Zn	0.004343	0.499923	0.748139
	Zn223	Zn	0.005958	0.498872	0.244103
	Zn224	Zn	0.504475	0.745508	-0.003901
	Zn225	Zn	0.503979	0.251898	-0.003818
	Zn226	Zn	0.757612	-0.000062	0.495316
	Zn227	Zn	0.255678	0.000435	0.495820
	N228	N	0.424486	0.961366	0.668109
	N229	N	0.590586	0.037747	0.672494
	N230	N	0.587880	0.961111	0.322327
	N231	N	0.422699	0.038036	0.321679
	N232	N	0.682766	0.413178	0.959185
	N233	N	0.685559	0.587890	0.032547
	N234	N	0.325659	0.586352	0.960207
	N235	N	0.325583	0.411757	0.032723
	N236	N	0.969389	0.681070	0.408554
	N237	N	0.042331	0.680882	0.583426
	N238	N	0.968911	0.318764	0.582272
	N239	N	0.042628	0.319064	0.409159
	N240	N	0.966882	0.415740	0.672876
	N241	N	0.042120	0.585675	0.675401
	N242	N	0.968287	0.584301	0.317434
	N243	N	0.043100	0.413964	0.317339
	N244	N	0.421680	0.672185	0.958132
	N245	N	0.588859	0.674222	0.034691
	N246	N	0.587767	0.324801	0.958066
	N247	N	0.420864	0.324080	0.034475
	N248	N	0.687297	0.964276	0.406758
	N249	N	0.687418	0.036242	0.583818
	N250	N	0.324677	0.965091	0.584841
	N251	N	0.324877	0.036217	0.407488
	N252	N	0.923180	0.460469	0.169635
	N253	N	0.088832	0.537471	0.170684
	N254	N	0.086108	0.460985	0.823012
	N255	N	0.920603	0.538197	0.820698
	N256	N	0.184908	0.913623	0.458741
	N257	N	0.185861	0.087590	0.531887
	N258	N	0.827030	0.087164	0.459201
	N259	N	0.826679	0.912203	0.532068
	N260	N	0.467821	0.179121	0.909311
	N261	N	0.540819	0.181509	0.084726
	N262	N	0.467324	0.818253	0.082825
	N263	N	0.540932	0.817206	0.908679
	N264	N	0.466942	0.914073	0.175087
	N265	N	0.543177	0.083805	0.174569
	N266	N	0.467511	0.082783	0.818293
	N267	N	0.542214	0.912894	0.816758
	N268	N	0.923075	0.173323	0.456961
	N269	N	0.090102	0.174510	0.533530
	N270	N	0.090418	0.824511	0.457832
	N271	N	0.923314	0.825927	0.534582
	N272	N	0.185645	0.463521	0.908133
	N273	N	0.187470	0.534534	0.085410
	N274	N	0.824194	0.463346	0.084199
	N275	N	0.822958	0.535540	0.907086
	O276	O	0.974247	0.965957	-0.010290
	H277	H	0.971535	0.956268	-0.004388
	H278	H	0.975282	0.969116	-0.017894
	O279	O	-0.022291	-0.039735	0.001605
	H280	H	-0.018367	-0.043578	0.007571
	H281	H	-0.024233	-0.048567	0.000610
	O282	O	-0.075842	-0.045347	1.009062
	H283	H	-0.081625	-0.048719	1.012308
	H284	H	-0.070574	-0.045289	1.003655
	O285	O	0.516254	0.562621	0.546484
	H286	H	0.516570	0.573198	0.545227
	H287	H	0.508645	0.559828	0.546261
	O288	O	0.482075	0.585090	0.518126
	H289	H	0.485384	0.584838	0.515721
	H290	H	0.485935	0.586459	0.514540
	O291	O	0.567383	0.535817	0.449914
	H292	H	0.568346	0.540561	0.455216
	H293	H	0.575933	0.539077	0.454189
	O294	O	-0.495867	-0.416350	0.514300
	H295	H	-0.492414	-0.406424	0.505907
	H296	H	-0.502250	-0.404593	0.511414
	O297	O	0.489665	0.537942	0.519018
	H298	H	0.496146	0.539664	0.515807
	H299	H	0.489372	0.542332	0.519683
	O300	O	-0.046467	1.004972	0.999378
	H301	H	-0.055456	1.002145	0.995251
	H302	H	-0.049980	1.014098	1.005267
	O303	O	0.543155	0.551280	0.518866
	H304	H	0.541638	0.548348	0.518210
	H305	H	0.544775	0.539761	0.527038
	O306	O	-0.060599	-0.034671	1.020567
	H307	H	-0.056615	-0.026668	1.021899
	H308	H	-0.064787	-0.040503	1.023947
	O309	O	0.989342	0.963316	0.990674
	H310	H	0.999250	0.962866	0.993157
	H311	H	0.993144	0.959120	0.978641
	O312	O	0.536926	0.519600	0.500484
	H313	H	0.531528	0.516492	0.502089
	H314	H	0.540228	0.515836	0.508411
	O315	O	0.519289	0.573694	0.421458
	H316	H	0.524058	0.562929	0.421497
	H317	H	0.516274	0.578394	0.407108
	O318	O	-0.052476	0.964016	0.055316
	H319	H	-0.050166	0.975239	0.052204
	H320	H	-0.065879	0.958963	0.055321
	O321	O	0.976950	0.990355	-0.000475
	H322	H	0.972441	0.993998	-0.001598
	H323	H	0.976838	0.986384	0.004440
