data_Molecule from HDF5

_cell_length_a		16.371588
_cell_length_b		16.654921
_cell_length_c		16.356855
_cell_angle_alpha	90.067707
_cell_angle_beta	89.828881
_cell_angle_gamma	90.015026
_symmetry_space_group_name_H-M	'P 1'
_symmetry_Int_Tables_number		1

loop_
	_symmetry_equiv_pos_as_xyz
	x,y,z

loop_
	_atom_site_label
	_atom_site_type_symbol
	_atom_site_fract_x
	_atom_site_fract_y
	_atom_site_fract_z
	H0	H	0.413219	0.858275	0.722151
	H1	H	0.626072	0.169548	0.721651
	H2	H	0.625270	0.856246	0.275330
	H3	H	0.416851	0.170478	0.277452
	H4	H	0.741252	0.409705	0.837628
	H5	H	0.741667	0.619637	0.155378
	H6	H	0.303141	0.616564	0.836603
	H7	H	0.302227	0.413999	0.156113
	H8	H	0.863045	0.739344	0.386315
	H9	H	0.176013	0.737829	0.604465
	H10	H	0.863304	0.289024	0.607289
	H11	H	0.176103	0.290705	0.387870
	H12	H	0.861402	0.408631	0.719518
	H13	H	0.179005	0.617005	0.715274
	H14	H	0.860757	0.619652	0.274361
	H15	H	0.178948	0.410757	0.276388
	H16	H	0.413979	0.736817	0.839785
	H17	H	0.631517	0.740353	0.153208
	H18	H	0.631066	0.289101	0.840473
	H19	H	0.415257	0.295059	0.155590
	H20	H	0.742409	0.855955	0.391921
	H21	H	0.746015	0.167445	0.606871
	H22	H	0.297027	0.857019	0.603354
	H23	H	0.298338	0.170486	0.393878
	H24	H	0.913404	0.358204	0.218780
	H25	H	0.122489	0.671359	0.216613
	H26	H	0.122489	0.357436	0.776378
	H27	H	0.913208	0.670219	0.772771
	H28	H	0.237535	0.912106	0.337055
	H29	H	0.234238	0.114875	0.657611
	H30	H	0.798632	0.117027	0.338806
	H31	H	0.799594	0.908675	0.656863
	H32	H	0.362339	0.235628	0.892829
	H33	H	0.680308	0.234908	0.103241
	H34	H	0.362147	0.791958	0.104891
	H35	H	0.676421	0.789028	0.886394
	H36	H	0.359901	0.912797	0.216080
	H37	H	0.681671	0.115740	0.215919
	H38	H	0.359537	0.115206	0.781317
	H39	H	0.678244	0.908991	0.774924
	H40	H	0.909377	0.237467	0.340206
	H41	H	0.125357	0.237103	0.653217
	H42	H	0.126667	0.791503	0.339111
	H43	H	0.909977	0.789161	0.653758
	H44	H	0.239034	0.357265	0.894384
	H45	H	0.238598	0.672784	0.098360
	H46	H	0.796539	0.358256	0.103049
	H47	H	0.795396	0.669895	0.889028
	H48	H	0.426058	0.127309	0.592146
	H49	H	0.609211	0.902183	0.582899
	H50	H	0.607885	0.122891	0.412498
	H51	H	0.432019	0.903131	0.406610
	H52	H	0.603260	0.422668	0.109481
	H53	H	0.604104	0.597869	0.887191
	H54	H	0.429391	0.603184	0.111387
	H55	H	0.431239	0.424158	0.881875
	H56	H	0.130346	0.606053	0.415125
	H57	H	0.907359	0.604280	0.579109
	H58	H	0.136585	0.414696	0.582778
	H59	H	0.903415	0.421002	0.406591
	H60	H	0.127655	0.428293	0.574411
	H61	H	0.907811	0.597922	0.583855
	H62	H	0.130502	0.596897	0.406625
	H63	H	0.907462	0.423446	0.413941
	H64	H	0.433189	0.602158	0.109996
	H65	H	0.602521	0.605778	0.884167
	H66	H	0.611515	0.424304	0.112403
	H67	H	0.433743	0.420966	0.882083
	H68	H	0.614042	0.124742	0.408885
	H69	H	0.607105	0.902393	0.589061
	H70	H	0.431960	0.124389	0.588490
	H71	H	0.427457	0.902261	0.411073
	H72	H	0.931178	0.626293	0.086034
	H73	H	0.110017	0.400564	0.090277
	H74	H	0.108971	0.626054	0.907454
	H75	H	0.924249	0.402120	0.911414
	H76	H	0.106537	0.918793	0.612970
	H77	H	0.107692	0.100238	0.383575
	H78	H	0.938052	0.098441	0.608074
	H79	H	0.929080	0.928885	0.383803
	H80	H	0.634816	0.111708	0.916606
	H81	H	0.406244	0.110556	0.087251
	H82	H	0.633195	0.929668	0.089050
	H83	H	0.404904	0.918230	0.911842
	H84	H	0.636996	0.919284	0.087052
	H85	H	0.408052	0.104794	0.084203
	H86	H	0.629397	0.094447	0.915456
	H87	H	0.410760	0.926549	0.918073
	H88	H	0.936196	0.108318	0.610666
	H89	H	0.104967	0.104399	0.383400
	H90	H	0.110511	0.925128	0.611926
	H91	H	0.938196	0.926489	0.387491
	H92	H	0.114103	0.627501	0.907124
	H93	H	0.109424	0.403090	0.084345
	H94	H	0.933795	0.624718	0.084227
	H95	H	0.935893	0.403253	0.900811
	H96	H	0.425697	0.124675	0.584636
	H97	H	0.604001	0.904698	0.584703
	H98	H	0.608296	0.124723	0.405412
	H99	H	0.426870	0.900448	0.405212
	H100	H	0.606646	0.430312	0.107937
	H101	H	0.610418	0.602415	0.883049
	H102	H	0.432660	0.605764	0.111412
	H103	H	0.429930	0.420827	0.880384
	H104	H	0.134919	0.607922	0.403061
	H105	H	0.904883	0.604356	0.586715
	H106	H	0.133184	0.430110	0.591681
	H107	H	0.906558	0.428622	0.407491
	H108	H	0.930613	0.624773	0.082797
	H109	H	0.115448	0.401385	0.086658
	H110	H	0.110562	0.627935	0.903000
	H111	H	0.937997	0.409134	0.915203
	H112	H	0.103423	0.924755	0.609420
	H113	H	0.110300	0.104168	0.381495
	H114	H	0.928884	0.101094	0.611310
	H115	H	0.933073	0.919858	0.381664
	H116	H	0.637146	0.102621	0.900611
	H117	H	0.405777	0.104538	0.091025
	H118	H	0.631277	0.925023	0.078381
	H119	H	0.406438	0.928834	0.906867
	C120	C	0.396192	0.022144	0.620552
	C121	C	0.640872	1.005377	0.619155
	C122	C	0.642356	0.020796	0.376187
	C123	C	0.397489	1.005347	0.375909
	C124	C	0.640984	0.393227	0.005126
	C125	C	0.640806	0.635824	0.988452
	C126	C	0.399423	0.635295	0.005967
	C127	C	0.400011	0.392451	0.987460
	C128	C	0.027856	0.636075	0.375049
	C129	C	1.010750	0.634898	0.616710
	C130	C	0.028010	0.392538	0.617113
	C131	C	1.010471	0.392391	0.375778
	C132	C	0.897967	0.522592	0.117986
	C133	C	0.142451	0.505930	0.118430
	C134	C	0.142149	0.523131	0.874500
	C135	C	0.898534	0.506856	0.875037
	C136	C	0.140270	0.891599	0.506382
	C137	C	0.139476	0.134631	0.487977
	C138	C	0.899383	0.134669	0.505855
	C139	C	0.899329	0.892156	0.488716
	C140	C	0.528684	0.134949	0.878103
	C141	C	0.512505	0.136304	0.119298
	C142	C	0.528837	0.892718	0.118142
	C143	C	0.511261	0.892052	0.877218
	C144	C	0.394620	0.904706	0.681103
	C145	C	0.644676	0.122164	0.681316
	C146	C	0.643815	0.903244	0.315400
	C147	C	0.397331	0.123465	0.317297
	C148	C	0.701796	0.390895	0.885692
	C149	C	0.702158	0.638446	0.107525
	C150	C	0.341441	0.636033	0.885087
	C151	C	0.341150	0.393597	0.108111
	C152	C	0.909680	0.697652	0.369891
	C153	C	0.129320	0.696263	0.621155
	C154	C	0.909997	0.330520	0.623195
	C155	C	0.129284	0.331594	0.371242
	C156	C	0.909210	0.390063	0.679152
	C157	C	0.130776	0.636433	0.676424
	C158	C	0.908684	0.638200	0.313976
	C159	C	0.130563	0.391542	0.315880
	C160	C	0.396271	0.695960	0.886754
	C161	C	0.646974	0.698331	0.106443
	C162	C	0.646789	0.330907	0.887167
	C163	C	0.397489	0.334496	0.107750
	C164	C	0.702254	0.902974	0.373489
	C165	C	0.704130	0.121475	0.623864
	C166	C	0.336799	0.904287	0.622188
	C167	C	0.338360	0.123566	0.374996
	C168	C	0.895130	0.405068	0.178534
	C169	C	0.142037	0.624301	0.177150
	C170	C	0.142085	0.404542	0.815993
	C171	C	0.894820	0.623477	0.813261
	C172	C	0.199080	0.892034	0.385544
	C173	C	0.196852	0.135154	0.608850
	C174	C	0.838122	0.136230	0.386601
	C175	C	0.838822	0.889792	0.608474
	C176	C	0.409377	0.194953	0.875340
	C177	C	0.632554	0.194936	0.121528
	C178	C	0.409537	0.832612	0.122111
	C179	C	0.629691	0.830584	0.871053
	C180	C	0.408325	0.892832	0.177356
	C181	C	0.633067	0.135546	0.177687
	C182	C	0.408343	0.135180	0.819670
	C183	C	0.630264	0.889843	0.814950
	C184	C	0.893327	0.196193	0.387404
	C185	C	0.142598	0.195790	0.606544
	C186	C	0.144061	0.831963	0.386690
	C187	C	0.894084	0.830446	0.607172
	C188	C	0.199728	0.404297	0.874759
	C189	C	0.199788	0.624998	0.118108
	C190	C	0.836752	0.405211	0.120948
	C191	C	0.836359	0.623379	0.871354
	C192	C	0.420763	0.104090	0.595487
	C193	C	0.614321	0.924333	0.592925
	C194	C	0.617414	0.102688	0.401833
	C195	C	0.421707	0.923267	0.400618
	C196	C	0.614690	0.418649	0.088184
	C197	C	0.613552	0.609548	0.906362
	C198	C	0.424622	0.610796	0.089274
	C199	C	0.424544	0.415312	0.903372
	C200	C	0.110529	0.610983	0.400861
	C201	C	0.928211	0.609391	0.590579
	C202	C	0.110825	0.417417	0.590490
	C203	C	0.927376	0.417181	0.401887
	C204	C	0.924265	0.603982	0.092075
	C205	C	0.118510	0.423237	0.094248
	C206	C	0.118133	0.605629	0.898856
	C207	C	0.924921	0.425843	0.901534
	C208	C	0.114455	0.915773	0.589739
	C209	C	0.114719	0.110050	0.404461
	C210	C	0.926253	0.109716	0.588411
	C211	C	0.925809	0.917737	0.405891
	C212	C	0.612028	0.110231	0.903579
	C213	C	0.428544	0.113185	0.094585
	C214	C	0.612058	0.917466	0.092343
	C215	C	0.428925	0.917442	0.904352
	Zn216	Zn	0.519368	0.013550	0.749621
	Zn217	Zn	0.520575	0.013825	0.246636
	Zn218	Zn	0.768749	0.514373	-0.003653
	Zn219	Zn	0.272162	0.514559	-0.003965
	Zn220	Zn	0.018805	0.764023	0.496656
	Zn221	Zn	0.019556	0.263682	0.496089
	Zn222	Zn	0.019784	0.514609	0.745148
	Zn223	Zn	0.019426	0.513972	0.247830
	Zn224	Zn	0.519755	0.763768	-0.002723
	Zn225	Zn	0.521403	0.264132	-0.002413
	Zn226	Zn	0.772113	0.012234	0.497546
	Zn227	Zn	0.267069	0.013743	0.497472
	N228	N	0.430540	0.979201	0.680398
	N229	N	0.606064	0.049044	0.678531
	N230	N	0.607615	0.977677	0.316717
	N231	N	0.433248	0.049015	0.317662
	N232	N	0.698184	0.429077	0.960096
	N233	N	0.698394	0.600110	0.033146
	N234	N	0.343356	0.599092	0.960086
	N235	N	0.342457	0.428961	0.032368
	N236	N	0.984685	0.696387	0.407191
	N237	N	0.053756	0.695360	0.584685
	N238	N	0.984774	0.331961	0.585066
	N239	N	0.053403	0.331936	0.407537
	N240	N	0.983632	0.428037	0.675388
	N241	N	0.056115	0.598962	0.673736
	N242	N	0.983067	0.600453	0.317132
	N243	N	0.055529	0.428351	0.318404
	N244	N	0.431581	0.695770	0.962945
	N245	N	0.609919	0.697032	0.031195
	N246	N	0.609924	0.332206	0.962702
	N247	N	0.433299	0.333626	0.031856
	N248	N	0.701593	0.977135	0.410249
	N249	N	0.701945	0.047842	0.586040
	N250	N	0.337390	0.978363	0.585479
	N251	N	0.338238	0.048987	0.410606
	N252	N	0.932584	0.478995	0.176870
	N253	N	0.107271	0.549227	0.177567
	N254	N	0.107313	0.479612	0.815482
	N255	N	0.932717	0.550176	0.815669
	N256	N	0.197250	0.928061	0.461119
	N257	N	0.195142	0.097937	0.534027
	N258	N	0.841583	0.098840	0.461321
	N259	N	0.842210	0.927569	0.533949
	N260	N	0.485658	0.195201	0.910400
	N261	N	0.556402	0.196023	0.086441
	N262	N	0.485772	0.832100	0.086281
	N263	N	0.554746	0.832011	0.909035
	N264	N	0.483496	0.929233	0.175103
	N265	N	0.557367	0.099806	0.176305
	N266	N	0.483569	0.098591	0.821299
	N267	N	0.555763	0.927651	0.818776
	N268	N	0.930448	0.195659	0.462626
	N269	N	0.107527	0.195293	0.530326
	N270	N	0.108643	0.831331	0.462952
	N271	N	0.931130	0.831972	0.531571
	N272	N	0.200028	0.479029	0.910174
	N273	N	0.200459	0.550188	0.082723
	N274	N	0.838178	0.479428	0.084317
	N275	N	0.838361	0.549666	0.908921
	O276	O	0.480519	0.731714	0.512173
	H277	H	0.468319	0.732429	0.487049
	H278	H	0.488440	0.723823	0.508062
	O279	O	0.508919	0.454563	0.438356
	H280	H	0.513819	0.460407	0.451392
	H281	H	0.495499	0.466036	0.433896
	O282	O	1.637177	1.569635	0.387141
	H283	H	1.621245	1.565531	0.393932
	H284	H	1.631389	1.563877	0.399073
	O285	O	0.836688	-0.962640	0.023808
	H286	H	0.826050	-0.968519	0.037091
	H287	H	0.845639	-0.960794	0.045314
	O288	O	0.035330	-0.099184	0.163259
	H289	H	0.036839	-0.107225	0.160167
	H290	H	0.027910	-0.108281	0.175119
	O291	O	0.895033	0.959863	-0.206389
	H292	H	0.888402	0.973251	-0.212180
	H293	H	0.902240	0.950801	-0.208473
	O294	O	-0.048692	0.947464	-0.057617
	H295	H	-0.055581	0.964602	-0.072896
	H296	H	-0.040858	0.958549	-0.043558
	O297	O	0.725499	0.391423	0.610419
	H298	H	0.717483	0.388601	0.598883
	H299	H	0.716758	0.412062	0.621061
	O300	O	0.166469	0.208737	0.856561
	H301	H	0.167264	0.192488	0.876741
	H302	H	0.142597	0.207104	0.860877
	O303	O	0.236558	-0.019866	0.783505
	H304	H	0.247424	-0.050046	0.770898
	H305	H	0.251498	-0.042248	0.768553
	O306	O	-0.174469	1.210597	0.830025
	H307	H	-0.184096	1.227453	0.864935
	H308	H	-0.169009	1.205870	0.809707
	O309	O	0.227033	0.210844	0.016311
	H310	H	0.228269	0.191858	0.002526
	H311	H	0.242604	0.219497	0.009799
	O312	O	-0.353172	0.356399	0.487913
	H313	H	-0.359236	0.343954	0.488119
	H314	H	-0.357189	0.347232	0.501128
	O315	O	0.215273	0.215659	1.180160
	H316	H	0.213940	0.220682	1.144920
	H317	H	0.240586	0.210016	1.197613
	O318	O	0.493174	1.294448	-0.289234
	H319	H	0.489210	1.272611	-0.259776
	H320	H	0.487049	1.318701	-0.282923
	O321	O	0.538435	0.566249	0.704506
	H322	H	0.541094	0.570140	0.696044
	H323	H	0.553613	0.586710	0.707864
	O324	O	0.490326	0.734262	0.276658
	H325	H	0.487699	0.728414	0.279513
	H326	H	0.481875	0.756589	0.250868
	O327	O	-0.064173	0.812815	1.931940
	H328	H	-0.065564	0.822850	1.925769
	H329	H	-0.058786	0.809215	1.934388
	O330	O	0.305455	-0.668897	-0.487466
	H331	H	0.309683	-0.657407	-0.496115
	H332	H	0.293218	-0.684230	-0.491182
	O333	O	1.039154	0.813814	0.790765
	H334	H	1.038783	0.810784	0.793957
	H335	H	1.041746	0.815673	0.773095
	O336	O	1.220045	-0.087759	1.080412
	H337	H	1.207378	-0.064305	1.072436
	H338	H	1.217650	-0.070949	1.084347
	O339	O	1.339890	0.342418	1.323823
	H340	H	1.346944	0.339878	1.335625
	H341	H	1.352033	0.359515	1.340339
	O342	O	0.581171	0.398463	0.298414
	H343	H	0.574962	0.384196	0.324265
	H344	H	0.589508	0.406524	0.291513
	O345	O	0.219362	0.068588	0.201179
	H346	H	0.195510	0.059994	0.210819
	H347	H	0.240333	0.077160	0.221908
	O348	O	1.310125	0.499823	1.506960
	H349	H	1.313820	0.499650	1.517343
	H350	H	1.313637	0.496397	1.497201
	O351	O	0.728768	0.485284	-0.710161
	H352	H	0.696310	0.503987	-0.702422
	H353	H	0.752034	0.494605	-0.742289
	O354	O	-0.102857	1.045614	0.809004
	H355	H	-0.101654	1.070031	0.810241
	H356	H	-0.108428	1.061190	0.797680
	O357	O	0.982066	1.213449	0.798919
	H358	H	0.980401	1.206560	0.798570
	H359	H	0.967141	1.220422	0.803069
	O360	O	0.301411	0.731082	0.465827
	H361	H	0.282822	0.727274	0.484024
	H362	H	0.291859	0.733608	0.483390
	O363	O	0.319513	0.512180	0.677987
	H364	H	0.330263	0.491324	0.684432
	H365	H	0.307817	0.488965	0.698340
	O366	O	0.928264	0.099192	1.197216
	H367	H	0.933665	0.113104	1.192826
	H368	H	0.908378	0.098527	1.210252
	O369	O	0.464509	0.311263	0.462025
	H370	H	0.470715	0.327070	0.476774
	H371	H	0.475323	0.298032	0.433193
	O372	O	0.729538	0.307590	0.379363
	H373	H	0.738274	0.345939	0.383831
	H374	H	0.735967	0.292196	0.413239
	O375	O	-0.191325	0.800043	1.023297
	H376	H	-0.206702	0.805671	1.005290
	H377	H	-0.203716	0.794292	1.013508
	O378	O	0.576000	0.657642	0.365739
	H379	H	0.575426	0.658926	0.362807
	H380	H	0.573874	0.650958	0.354604
	O381	O	0.819026	-0.007367	0.211683
	H382	H	0.807109	-0.022539	0.229311
	H383	H	0.807104	-0.023919	0.219949
	O384	O	0.032152	0.007494	1.097271
	H385	H	0.007345	0.020624	1.112641
	H386	H	0.025387	0.005017	1.088600
	O387	O	0.150585	1.054830	0.946073
	H388	H	0.145567	1.035920	0.936842
	H389	H	0.132920	1.045673	0.935208
	O390	O	0.086571	0.041938	0.815002
	H391	H	0.114098	0.034158	0.799357
	H392	H	0.065085	0.048025	0.813359
	O393	O	0.891391	1.178080	0.063016
	H394	H	0.885317	1.153227	0.071975
	H395	H	0.898792	1.184605	0.082465
	O396	O	-0.147590	0.138934	0.981076
	H397	H	-0.124622	0.140994	1.002489
	H398	H	-0.165027	0.152037	0.981018
	O399	O	0.000154	1.215512	-0.038433
	H400	H	-0.000618	1.212610	-0.031500
	H401	H	-0.004439	1.210088	-0.021116
	O402	O	-0.473535	-0.481662	0.701265
	H403	H	-0.463672	-0.484493	0.704246
	H404	H	-0.491683	-0.491467	0.702192
	O405	O	0.064813	-0.089862	0.067361
	H406	H	0.083504	-0.097617	0.083979
	H407	H	0.060545	-0.087685	0.060365
	O408	O	0.360926	0.483099	0.564956
	H409	H	0.354104	0.483897	0.563486
	H410	H	0.351648	0.465434	0.570775
	O411	O	0.575141	0.291190	0.537583
	H412	H	0.564321	0.290642	0.549442
	H413	H	0.575757	0.286134	0.532022
	O414	O	0.550597	0.290186	0.284641
	H415	H	0.566454	0.268990	0.265028
	H416	H	0.588383	0.290952	0.276587
	O417	O	0.620865	0.542737	0.577907
	H418	H	0.629120	0.549086	0.595489
	H419	H	0.609708	0.534640	0.561389
	O420	O	0.739304	0.656185	0.482711
	H421	H	0.741934	0.646354	0.487938
	H422	H	0.746332	0.661382	0.478444
	O423	O	-0.694123	0.548760	0.283131
	H424	H	-0.711405	0.551175	0.265692
	H425	H	-0.695772	0.573084	0.277618
	O426	O	1.042209	0.842769	1.107545
	H427	H	1.038685	0.838383	1.097174
	H428	H	1.059658	0.857973	1.103725
	O429	O	0.642325	0.576769	0.608373
	H430	H	0.653901	0.575077	0.619053
	H431	H	0.638551	0.598343	0.607495
	O432	O	0.989930	0.050619	1.066733
	H433	H	0.980167	0.062859	1.062856
	H434	H	0.991561	0.042728	1.069986
	O435	O	0.077158	0.162960	0.213800
	H436	H	0.088914	0.159321	0.222216
	H437	H	0.088838	0.177770	0.222008
	O438	O	1.220929	-0.187815	-0.023073
	H439	H	1.222996	-0.186699	-0.011840
	H440	H	1.230638	-0.186502	-0.004985
	O441	O	0.320983	0.311587	0.697042
	H442	H	0.301430	0.287586	0.703089
	H443	H	0.335477	0.300127	0.679204
	O444	O	0.360887	0.650619	0.673259
	H445	H	0.373763	0.642663	0.665486
	H446	H	0.364500	0.631929	0.660070
	O447	O	0.702602	0.582284	0.592785
	H448	H	0.706111	0.566608	0.575961
	H449	H	0.712043	0.581979	0.592153
	O450	O	0.627238	0.637037	0.333560
	H451	H	0.620802	0.642954	0.327703
	H452	H	0.616409	0.629088	0.338198
	O453	O	0.469992	0.698848	0.650024
	H454	H	0.467426	0.687516	0.657388
	H455	H	0.473004	0.699599	0.644871
	O456	O	0.711476	-0.292039	-0.366940
	H457	H	0.699252	-0.276736	-0.347225
	H458	H	0.712458	-0.290775	-0.383756
	O459	O	0.325932	0.712663	0.300773
	H460	H	0.316001	0.709962	0.343532
	H461	H	0.342236	0.720128	0.300050
	O462	O	-0.162243	0.825285	0.186795
	H463	H	-0.147267	0.816437	0.194753
	H464	H	-0.159555	0.816279	0.144113
	O465	O	1.209874	-0.179831	-0.192004
	H466	H	1.194143	-0.200290	-0.210672
	H467	H	1.219412	-0.192157	-0.148235
