data_Molecule from HDF5

_cell_length_a		16.230489
_cell_length_b		16.201703
_cell_length_c		16.226102
_cell_angle_alpha	90.261592
_cell_angle_beta	90.255588
_cell_angle_gamma	89.956707
_symmetry_space_group_name_H-M	'P 1'
_symmetry_Int_Tables_number		1

loop_
	_symmetry_equiv_pos_as_xyz
	x,y,z

loop_
	_atom_site_label
	_atom_site_type_symbol
	_atom_site_fract_x
	_atom_site_fract_y
	_atom_site_fract_z
	H0	H	0.402346	0.835907	0.717747
	H1	H	0.599231	0.164096	0.718429
	H2	H	0.598926	0.836393	0.287614
	H3	H	0.401812	0.165141	0.291315
	H4	H	0.712369	0.401079	0.839402
	H5	H	0.716142	0.600853	0.167733
	H6	H	0.285470	0.597920	0.839580
	H7	H	0.287193	0.402566	0.168443
	H8	H	0.836809	0.713489	0.404604
	H9	H	0.164652	0.714110	0.606109
	H10	H	0.836677	0.286740	0.600074
	H11	H	0.165291	0.283739	0.406554
	H12	H	0.836114	0.401596	0.714831
	H13	H	0.165192	0.595887	0.717916
	H14	H	0.836422	0.595997	0.290510
	H15	H	0.165139	0.398461	0.289544
	H16	H	0.402370	0.712542	0.839081
	H17	H	0.600490	0.714749	0.167767
	H18	H	0.597278	0.286532	0.840203
	H19	H	0.405097	0.289001	0.169138
	H20	H	0.711648	0.834161	0.405882
	H21	H	0.714916	0.163699	0.604491
	H22	H	0.290387	0.834098	0.600012
	H23	H	0.283674	0.162457	0.404119
	H24	H	0.904032	0.334500	0.214725
	H25	H	0.100228	0.663585	0.220765
	H26	H	0.098241	0.334699	0.790551
	H27	H	0.902004	0.664135	0.789346
	H28	H	0.214581	0.898445	0.339987
	H29	H	0.216524	0.098187	0.667577
	H30	H	0.785947	0.095390	0.339349
	H31	H	0.787096	0.901737	0.668632
	H32	H	0.335772	0.212116	0.906770
	H33	H	0.665377	0.214223	0.102461
	H34	H	0.336794	0.786677	0.100794
	H35	H	0.664906	0.784824	0.905382
	H36	H	0.336076	0.903228	0.215238
	H37	H	0.665039	0.099959	0.219677
	H38	H	0.336596	0.097920	0.790186
	H39	H	0.665395	0.902375	0.790708
	H40	H	0.901491	0.211548	0.339157
	H41	H	0.099124	0.212131	0.668201
	H42	H	0.099140	0.782846	0.340526
	H43	H	0.905191	0.787588	0.669509
	H44	H	0.212809	0.335914	0.906786
	H45	H	0.213772	0.665187	0.103651
	H46	H	0.787540	0.335045	0.099757
	H47	H	0.787730	0.664819	0.906252
	H48	H	0.403843	0.116697	0.590138
	H49	H	0.602225	0.879732	0.596892
	H50	H	0.583446	0.113609	0.416181
	H51	H	0.418761	0.881829	0.398512
	H52	H	0.591330	0.399393	0.122536
	H53	H	0.590680	0.587148	0.888993
	H54	H	0.409699	0.598854	0.122306
	H55	H	0.409074	0.411586	0.889130
	H56	H	0.116470	0.585679	0.411485
	H57	H	0.883945	0.593303	0.596558
	H58	H	0.119005	0.399340	0.592926
	H59	H	0.887661	0.417632	0.409877
	H60	H	0.116795	0.411487	0.595717
	H61	H	0.883313	0.593149	0.596061
	H62	H	0.119463	0.594382	0.410033
	H63	H	0.879056	0.399974	0.397096
	H64	H	0.402786	0.594774	0.122598
	H65	H	0.589972	0.598320	0.886145
	H66	H	0.604495	0.409172	0.124272
	H67	H	0.409141	0.399711	0.885593
	H68	H	0.603766	0.118248	0.418600
	H69	H	0.588897	0.881263	0.603946
	H70	H	0.403707	0.120049	0.602505
	H71	H	0.410918	0.886788	0.422643
	H72	H	0.902040	0.617167	0.091345
	H73	H	0.096351	0.381454	0.097421
	H74	H	0.092770	0.618848	0.908484
	H75	H	0.899383	0.380239	0.909318
	H76	H	0.098330	0.906146	0.621914
	H77	H	0.092028	0.091288	0.387055
	H78	H	0.894518	0.087976	0.623924
	H79	H	0.909513	0.901892	0.387052
	H80	H	0.617879	0.091404	0.909647
	H81	H	0.384179	0.100284	0.093121
	H82	H	0.619667	0.907178	0.102940
	H83	H	0.382322	0.905005	0.908353
	H84	H	0.619297	0.902333	0.093784
	H85	H	0.385523	0.088777	0.095121
	H86	H	0.619360	0.096699	0.909943
	H87	H	0.384243	0.905983	0.911465
	H88	H	0.917682	0.084972	0.615305
	H89	H	0.094057	0.090424	0.385763
	H90	H	0.094670	0.908059	0.621178
	H91	H	0.902623	0.904499	0.385224
	H92	H	0.091341	0.617379	0.910752
	H93	H	0.092336	0.382829	0.097630
	H94	H	0.905549	0.620280	0.106205
	H95	H	0.909274	0.380845	0.901616
	H96	H	0.414748	0.115698	0.597015
	H97	H	0.590672	0.885041	0.589472
	H98	H	0.595023	0.121679	0.400188
	H99	H	0.394762	0.877234	0.405114
	H100	H	0.589867	0.415553	0.118652
	H101	H	0.600324	0.592791	0.883943
	H102	H	0.409287	0.590340	0.119213
	H103	H	0.399035	0.406504	0.884692
	H104	H	0.116789	0.591748	0.417598
	H105	H	0.883129	0.593051	0.596937
	H106	H	0.121335	0.403782	0.605421
	H107	H	0.883613	0.396310	0.420320
	H108	H	0.916781	0.614177	0.095481
	H109	H	0.094142	0.383034	0.093991
	H110	H	0.094060	0.618308	0.910102
	H111	H	0.909297	0.383968	0.913718
	H112	H	0.094339	0.903809	0.622863
	H113	H	0.092289	0.089623	0.386965
	H114	H	0.910183	0.106654	0.625058
	H115	H	0.907409	0.909184	0.388369
	H116	H	0.617787	0.093705	0.913920
	H117	H	0.381119	0.095971	0.103574
	H118	H	0.616141	0.911927	0.095418
	H119	H	0.384054	0.908864	0.909159
	C120	C	0.379793	0.008298	0.624501
	C121	C	0.622104	0.990814	0.625658
	C122	C	0.621929	0.008865	0.382674
	C123	C	0.379100	0.990593	0.381360
	C124	C	0.622569	0.379228	0.012939
	C125	C	0.622289	0.621867	0.995015
	C126	C	0.378891	0.622139	0.012378
	C127	C	0.378526	0.378640	0.995472
	C128	C	0.009159	0.619552	0.383739
	C129	C	0.992286	0.620927	0.625480
	C130	C	0.009732	0.377534	0.625232
	C131	C	0.992376	0.376117	0.381618
	C132	C	0.879834	0.508121	0.124936
	C133	C	0.122709	0.491381	0.125910
	C134	C	0.121133	0.508919	0.882051
	C135	C	0.878129	0.491178	0.881104
	C136	C	0.123076	0.877007	0.513273
	C137	C	0.121900	0.119268	0.495201
	C138	C	0.878407	0.120942	0.512642
	C139	C	0.878988	0.877607	0.495671
	C140	C	0.509288	0.121645	0.882884
	C141	C	0.492279	0.123172	0.126103
	C142	C	0.509502	0.879026	0.124806
	C143	C	0.492231	0.878098	0.881597
	C144	C	0.382710	0.884670	0.679407
	C145	C	0.619620	0.115021	0.680491
	C146	C	0.618961	0.884915	0.326636
	C147	C	0.380941	0.115326	0.327983
	C148	C	0.675745	0.381113	0.888854
	C149	C	0.678028	0.620422	0.118789
	C150	C	0.323538	0.618664	0.888526
	C151	C	0.324910	0.382116	0.119422
	C152	C	0.885527	0.674899	0.385198
	C153	C	0.115748	0.675762	0.624696
	C154	C	0.885656	0.323833	0.620962
	C155	C	0.116280	0.321344	0.385250
	C156	C	0.885561	0.380906	0.678216
	C157	C	0.115802	0.617494	0.680933
	C158	C	0.885395	0.616661	0.328387
	C159	C	0.116101	0.378571	0.327420
	C160	C	0.381412	0.675788	0.888419
	C161	C	0.620181	0.676989	0.118904
	C162	C	0.618144	0.324385	0.889065
	C163	C	0.383452	0.325782	0.119823
	C164	C	0.675190	0.883849	0.385062
	C165	C	0.677219	0.114685	0.623966
	C166	C	0.326559	0.883980	0.621260
	C167	C	0.322632	0.114037	0.384304
	C168	C	0.883165	0.383840	0.177851
	C169	C	0.120322	0.614832	0.182201
	C170	C	0.118316	0.384176	0.828213
	C171	C	0.881227	0.615014	0.826832
	C172	C	0.177174	0.878345	0.389110
	C173	C	0.177908	0.117559	0.618794
	C174	C	0.823416	0.116753	0.388680
	C175	C	0.824937	0.880838	0.619752
	C176	C	0.385147	0.175417	0.885655
	C177	C	0.616300	0.177062	0.123689
	C178	C	0.385627	0.824854	0.121218
	C179	C	0.615998	0.822947	0.884793
	C180	C	0.385543	0.882389	0.178473
	C181	C	0.616100	0.119934	0.181347
	C182	C	0.385655	0.118544	0.827653
	C183	C	0.616211	0.881104	0.827619
	C184	C	0.880808	0.174563	0.388642
	C185	C	0.119605	0.174203	0.619329
	C186	C	0.119736	0.821211	0.389363
	C187	C	0.883689	0.824423	0.620114
	C188	C	0.175579	0.384890	0.885597
	C189	C	0.177119	0.615557	0.124305
	C190	C	0.825203	0.384092	0.120752
	C191	C	0.824631	0.615398	0.885153
	C192	C	0.401270	0.095015	0.603116
	C193	C	0.600294	0.904356	0.603443
	C194	C	0.600412	0.095488	0.405004
	C195	C	0.401647	0.904301	0.402445
	C196	C	0.601567	0.401355	0.099644
	C197	C	0.600251	0.599373	0.908703
	C198	C	0.400706	0.600851	0.098941
	C199	C	0.399545	0.399514	0.908694
	C200	C	0.095270	0.597096	0.406273
	C201	C	0.905770	0.599513	0.603033
	C202	C	0.096605	0.398540	0.604357
	C203	C	0.905837	0.398081	0.402795
	C204	C	0.901604	0.594769	0.103958
	C205	C	0.100676	0.404838	0.103101
	C206	C	0.099175	0.595739	0.903238
	C207	C	0.899541	0.404259	0.901964
	C208	C	0.101906	0.899242	0.599607
	C209	C	0.099322	0.097070	0.408846
	C210	C	0.900720	0.099432	0.599224
	C211	C	0.900096	0.898898	0.409239
	C212	C	0.596077	0.100273	0.904778
	C213	C	0.405893	0.101532	0.103741
	C214	C	0.596297	0.900582	0.103533
	C215	C	0.405732	0.900190	0.903190
	Zn216	Zn	0.500523	0.000327	0.753420
	Zn217	Zn	0.500342	0.000835	0.253380
	Zn218	Zn	0.750715	0.500260	0.003836
	Zn219	Zn	0.249921	0.500657	0.003657
	Zn220	Zn	0.001008	0.749158	0.504231
	Zn221	Zn	0.001031	0.248755	0.504117
	Zn222	Zn	0.000441	0.499119	0.753146
	Zn223	Zn	0.001530	0.498877	0.254032
	Zn224	Zn	0.500964	0.750053	0.003735
	Zn225	Zn	0.500998	0.250852	0.004127
	Zn226	Zn	0.749904	-0.000962	0.504383
	Zn227	Zn	0.250967	-0.001766	0.503476
	N228	N	0.415004	0.963303	0.681688
	N229	N	0.585996	0.037086	0.681762
	N230	N	0.586575	0.963490	0.324952
	N231	N	0.415299	0.037720	0.325878
	N232	N	0.678426	0.414645	0.966834
	N233	N	0.679573	0.586830	0.040756
	N234	N	0.321726	0.586091	0.966641
	N235	N	0.321994	0.414417	0.041167
	N236	N	0.963456	0.676659	0.418953
	N237	N	0.037860	0.678096	0.590972
	N238	N	0.963987	0.321636	0.588617
	N239	N	0.038332	0.319575	0.418182
	N240	N	0.963633	0.413542	0.680784
	N241	N	0.037857	0.583961	0.681391
	N242	N	0.963276	0.582918	0.327465
	N243	N	0.038051	0.411716	0.325104
	N244	N	0.415241	0.677940	0.966319
	N245	N	0.586348	0.678186	0.040971
	N246	N	0.585821	0.322955	0.967236
	N247	N	0.416201	0.323492	0.041641
	N248	N	0.677268	0.961735	0.419162
	N249	N	0.678970	0.036468	0.590427
	N250	N	0.324543	0.961643	0.587903
	N251	N	0.321159	0.035502	0.416661
	N252	N	0.916466	0.461812	0.180406
	N253	N	0.087635	0.536516	0.183669
	N254	N	0.085187	0.462284	0.825879
	N255	N	0.913811	0.536633	0.824076
	N256	N	0.179428	0.912070	0.467029
	N257	N	0.179179	0.084042	0.540772
	N258	N	0.822041	0.084137	0.466749
	N259	N	0.821636	0.912941	0.541364
	N260	N	0.463137	0.177511	0.919395
	N261	N	0.538438	0.179018	0.089896
	N262	N	0.463875	0.822582	0.088791
	N263	N	0.537857	0.820877	0.917382
	N264	N	0.463673	0.915428	0.180793
	N265	N	0.537793	0.087176	0.183091
	N266	N	0.463826	0.086059	0.825791
	N267	N	0.538287	0.914779	0.825734
	N268	N	0.914571	0.177145	0.466767
	N269	N	0.085872	0.175999	0.541371
	N270	N	0.086813	0.820183	0.467410
	N271	N	0.916381	0.822169	0.541976
	N272	N	0.177451	0.463416	0.918425
	N273	N	0.178602	0.537665	0.089960
	N274	N	0.823013	0.462623	0.088600
	N275	N	0.822779	0.537458	0.918359
	O276	O	0.517867	0.559250	0.513613
	H277	H	0.522804	0.553810	0.512211
	H278	H	0.497295	0.554978	0.512206
	O279	O	0.054708	0.027562	0.056406
	H280	H	0.059486	0.021644	0.061706
	H281	H	0.056956	0.025558	0.047875
	O282	O	0.530239	0.486704	0.477190
	H283	H	0.541481	0.494236	0.475792
	H284	H	0.544709	0.487722	0.477888
	O285	O	0.436468	0.492917	0.492640
	H286	H	0.440178	0.487061	0.479598
	H287	H	0.441598	0.499298	0.489806
	O288	O	1.098689	0.069942	0.065777
	H289	H	1.107177	0.069967	0.063607
	H290	H	1.101457	0.078520	0.065631
	O291	O	-0.503296	0.495236	-0.448263
	H292	H	-0.498435	0.491604	-0.445552
	H293	H	-0.495580	0.497164	-0.436514
	O294	O	0.529791	0.513576	0.514044
	H295	H	0.537214	0.516826	0.519639
	H296	H	0.532256	0.519886	0.512808
	O297	O	0.485551	1.476157	-0.423096
	H298	H	0.480374	1.478278	-0.423835
	H299	H	0.492160	1.472499	-0.421813
	O300	O	1.086729	0.063651	1.033668
	H301	H	1.083197	0.064602	1.031253
	H302	H	1.090607	0.075767	1.032323
	O303	O	0.502654	0.604863	0.557098
	H304	H	0.488826	0.613904	0.556518
	H305	H	0.494831	0.605515	0.562950
	O306	O	0.033599	1.024565	1.025103
	H307	H	0.037523	1.032214	1.030030
	H308	H	0.029360	1.015319	1.037378
	O309	O	0.480008	0.614839	0.509385
	H310	H	0.472739	0.617415	0.510945
	H311	H	0.474809	0.618024	0.507346
