data_Molecule from HDF5

_cell_length_a		16.635799
_cell_length_b		16.633801
_cell_length_c		16.595456
_cell_angle_alpha	90.188755
_cell_angle_beta	89.893809
_cell_angle_gamma	89.939630
_symmetry_space_group_name_H-M	'P 1'
_symmetry_Int_Tables_number		1

loop_
	_symmetry_equiv_pos_as_xyz
	x,y,z

loop_
	_atom_site_label
	_atom_site_type_symbol
	_atom_site_fract_x
	_atom_site_fract_y
	_atom_site_fract_z
	H0	H	0.394196	0.843658	0.710384
	H1	H	0.608589	0.150988	0.710254
	H2	H	0.609620	0.842560	0.263432
	H3	H	0.397541	0.153138	0.265119
	H4	H	0.723340	0.393679	0.830906
	H5	H	0.723510	0.603590	0.142560
	H6	H	0.278533	0.604949	0.833764
	H7	H	0.279256	0.391807	0.141602
	H8	H	0.847645	0.720279	0.382870
	H9	H	0.158340	0.719784	0.593018
	H10	H	0.849443	0.273343	0.596567
	H11	H	0.157548	0.277125	0.382010
	H12	H	0.848778	0.390907	0.711140
	H13	H	0.157377	0.604581	0.709317
	H14	H	0.846869	0.603284	0.267473
	H15	H	0.158356	0.393792	0.266543
	H16	H	0.393522	0.720923	0.834072
	H17	H	0.608434	0.720764	0.142654
	H18	H	0.606712	0.278115	0.830322
	H19	H	0.397856	0.277030	0.142388
	H20	H	0.724436	0.841549	0.380500
	H21	H	0.723569	0.151988	0.592357
	H22	H	0.279406	0.843355	0.594255
	H23	H	0.277082	0.149914	0.376942
	H24	H	0.897464	0.342112	0.208172
	H25	H	0.105442	0.654717	0.207037
	H26	H	0.107761	0.344179	0.763987
	H27	H	0.897695	0.653605	0.767430
	H28	H	0.224783	0.893538	0.331471
	H29	H	0.224773	0.103537	0.642423
	H30	H	0.780828	0.103467	0.332462
	H31	H	0.783885	0.895211	0.643892
	H32	H	0.346820	0.217407	0.884218
	H33	H	0.658865	0.219920	0.092154
	H34	H	0.348059	0.775153	0.095426
	H35	H	0.655721	0.773777	0.880921
	H36	H	0.348476	0.892355	0.210882
	H37	H	0.658907	0.103550	0.207858
	H38	H	0.347180	0.101093	0.767143
	H39	H	0.657172	0.890690	0.765815
	H40	H	0.897357	0.219195	0.332038
	H41	H	0.108935	0.220990	0.641813
	H42	H	0.107409	0.778264	0.330327
	H43	H	0.900874	0.779623	0.644222
	H44	H	0.223917	0.342499	0.880815
	H45	H	0.222266	0.653703	0.091003
	H46	H	0.781749	0.341923	0.091916
	H47	H	0.782550	0.654226	0.885368
	H48	H	0.414568	0.109620	0.576303
	H49	H	0.598870	0.882014	0.577963
	H50	H	0.595258	0.110006	0.398326
	H51	H	0.422122	0.888970	0.396985
	H52	H	0.589771	0.411807	0.098180
	H53	H	0.591769	0.592265	0.873781
	H54	H	0.418954	0.589188	0.098661
	H55	H	0.414681	0.405390	0.874072
	H56	H	0.114244	0.581346	0.392382
	H57	H	0.893988	0.587616	0.570593
	H58	H	0.112867	0.411667	0.576127
	H59	H	0.892135	0.409216	0.401879
	H60	H	0.113862	0.408894	0.574486
	H61	H	0.892264	0.583021	0.578789
	H62	H	0.118476	0.593594	0.394374
	H63	H	0.890605	0.412229	0.395669
	H64	H	0.408298	0.586114	0.100788
	H65	H	0.596046	0.581938	0.875856
	H66	H	0.589770	0.405078	0.099758
	H67	H	0.410351	0.409319	0.874361
	H68	H	0.591021	0.108668	0.395913
	H69	H	0.587697	0.884457	0.579916
	H70	H	0.417023	0.107431	0.575872
	H71	H	0.415186	0.889050	0.405512
	H72	H	0.918798	0.606364	0.074187
	H73	H	0.092823	0.384512	0.080539
	H74	H	0.095731	0.608942	0.905594
	H75	H	0.913858	0.385015	0.893031
	H76	H	0.086990	0.906289	0.598337
	H77	H	0.086560	0.089056	0.376602
	H78	H	0.914328	0.081988	0.597056
	H79	H	0.918230	0.914751	0.378033
	H80	H	0.615248	0.082690	0.891574
	H81	H	0.393210	0.085346	0.074369
	H82	H	0.612213	0.906706	0.069161
	H83	H	0.393405	0.913733	0.902983
	H84	H	0.611658	0.915027	0.073635
	H85	H	0.391099	0.086881	0.079441
	H86	H	0.617348	0.094495	0.896782
	H87	H	0.389677	0.910360	0.894690
	H88	H	0.918194	0.088808	0.597436
	H89	H	0.096013	0.088178	0.374077
	H90	H	0.097572	0.904961	0.602161
	H91	H	0.918067	0.900521	0.374012
	H92	H	0.093866	0.612442	0.892990
	H93	H	0.086808	0.387552	0.076240
	H94	H	0.905338	0.610016	0.073238
	H95	H	0.919335	0.389422	0.901015
	H96	H	0.414877	0.107610	0.573787
	H97	H	0.592658	0.887045	0.569481
	H98	H	0.591740	0.107496	0.401138
	H99	H	0.412071	0.885012	0.395722
	H100	H	0.595664	0.408995	0.100259
	H101	H	0.584878	0.584621	0.878077
	H102	H	0.414673	0.579219	0.095286
	H103	H	0.414941	0.410582	0.877059
	H104	H	0.112104	0.587576	0.404291
	H105	H	0.889933	0.591962	0.577681
	H106	H	0.111920	0.411283	0.573177
	H107	H	0.889500	0.404627	0.396678
	H108	H	0.912493	0.612272	0.085164
	H109	H	0.093917	0.386430	0.072966
	H110	H	0.084068	0.606844	0.899484
	H111	H	0.909166	0.387206	0.902269
	H112	H	0.094272	0.914865	0.597810
	H113	H	0.090906	0.079799	0.377289
	H114	H	0.910798	0.088376	0.601076
	H115	H	0.906395	0.908598	0.372728
	H116	H	0.612580	0.085398	0.903949
	H117	H	0.391170	0.090755	0.075142
	H118	H	0.615128	0.907313	0.077955
	H119	H	0.389895	0.904869	0.902246
	C120	C	0.381961	0.006044	0.608092
	C121	C	0.624816	0.987476	0.608692
	C122	C	0.625278	0.005983	0.365111
	C123	C	0.382967	0.989584	0.365982
	C124	C	0.623541	0.377011	-0.004551
	C125	C	0.623473	0.619361	0.978684
	C126	C	0.380839	0.618167	-0.003891
	C127	C	0.381066	0.376232	0.978244
	C128	C	0.011699	0.619759	0.365532
	C129	C	0.994795	0.619792	0.608298
	C130	C	0.011006	0.377161	0.608126
	C131	C	0.993742	0.376790	0.365742
	C132	C	0.880357	0.506372	0.109480
	C133	C	0.122654	0.489526	0.107720
	C134	C	0.123664	0.506736	0.866354
	C135	C	0.881679	0.489947	0.866828
	C136	C	0.124974	0.876617	0.495966
	C137	C	0.124389	0.119186	0.478553
	C138	C	0.881835	0.118732	0.495636
	C139	C	0.882697	0.877048	0.478704
	C140	C	0.511502	0.118638	0.866243
	C141	C	0.494812	0.119874	0.108523
	C142	C	0.511087	0.876852	0.107948
	C143	C	0.493257	0.875943	0.866555
	C144	C	0.377380	0.890171	0.669705
	C145	C	0.627061	0.104355	0.669873
	C146	C	0.627727	0.889290	0.303916
	C147	C	0.379099	0.105956	0.304768
	C148	C	0.683303	0.375202	0.877775
	C149	C	0.683457	0.621940	0.095963
	C150	C	0.318990	0.622479	0.880228
	C151	C	0.320080	0.373599	0.095184
	C152	C	0.894564	0.679942	0.364269
	C153	C	0.111237	0.680238	0.611342
	C154	C	0.895594	0.314612	0.613482
	C155	C	0.111029	0.317184	0.363611
	C156	C	0.895153	0.373178	0.670332
	C157	C	0.110955	0.622644	0.668968
	C158	C	0.893944	0.621583	0.306944
	C159	C	0.111284	0.375051	0.306120
	C160	C	0.376444	0.680130	0.880326
	C161	C	0.626233	0.680148	0.095777
	C162	C	0.625135	0.317969	0.877357
	C163	C	0.378837	0.316780	0.095731
	C164	C	0.684894	0.888803	0.362322
	C165	C	0.683992	0.104879	0.611232
	C166	C	0.320223	0.890013	0.611649
	C167	C	0.319681	0.104905	0.360852
	C168	C	0.878964	0.389066	0.168673
	C169	C	0.123712	0.607669	0.166713
	C170	C	0.126139	0.390121	0.804895
	C171	C	0.879863	0.607267	0.807849
	C172	C	0.184609	0.875028	0.378150
	C173	C	0.184546	0.122042	0.595552
	C174	C	0.821238	0.121541	0.378970
	C175	C	0.823532	0.876104	0.596882
	C176	C	0.393844	0.177618	0.865267
	C177	C	0.611957	0.179790	0.110420
	C178	C	0.394617	0.815955	0.112797
	C179	C	0.609606	0.814642	0.863136
	C180	C	0.394707	0.874366	0.169993
	C181	C	0.612181	0.121735	0.167679
	C182	C	0.393843	0.119626	0.807322
	C183	C	0.610224	0.872713	0.805952
	C184	C	0.879212	0.178897	0.378726
	C185	C	0.126998	0.180167	0.595365
	C186	C	0.126454	0.817733	0.377774
	C187	C	0.881638	0.818715	0.596994
	C188	C	0.183567	0.389406	0.863045
	C189	C	0.181620	0.607291	0.108981
	C190	C	0.821401	0.388912	0.110780
	C191	C	0.822361	0.607445	0.866107
	C192	C	0.408273	0.087153	0.582272
	C193	C	0.599927	0.905799	0.583194
	C194	C	0.599912	0.087681	0.391041
	C195	C	0.409126	0.908662	0.392074
	C196	C	0.598836	0.401433	0.077828
	C197	C	0.598040	0.593541	0.897183
	C198	C	0.406823	0.592105	0.077356
	C199	C	0.406198	0.401229	0.896514
	C200	C	0.093611	0.594689	0.390104
	C201	C	0.913417	0.594683	0.582885
	C202	C	0.091802	0.403208	0.581902
	C203	C	0.912035	0.401677	0.390883
	C204	C	0.904994	0.588320	0.084655
	C205	C	0.098173	0.407499	0.083573
	C206	C	0.098526	0.588145	0.892050
	C207	C	0.906822	0.408359	0.891645
	C208	C	0.100204	0.901644	0.578082
	C209	C	0.098624	0.093151	0.397283
	C210	C	0.907322	0.093626	0.577307
	C211	C	0.907085	0.901091	0.396475
	C212	C	0.593658	0.094352	0.890370
	C213	C	0.413290	0.094899	0.083530
	C214	C	0.591993	0.902360	0.081176
	C215	C	0.412188	0.902111	0.892608
	Zn216	Zn	0.502675	-0.003682	0.737283
	Zn217	Zn	0.503744	-0.001652	0.236877
	Zn218	Zn	0.752011	0.497791	-0.012348
	Zn219	Zn	0.252437	0.497549	-0.012676
	Zn220	Zn	0.003887	0.748342	0.487325
	Zn221	Zn	0.002436	0.248137	0.487210
	Zn222	Zn	0.002343	0.498494	0.737009
	Zn223	Zn	0.002424	0.498003	0.237157
	Zn224	Zn	0.501269	0.747040	-0.012314
	Zn225	Zn	0.503168	0.247975	-0.012571
	Zn226	Zn	0.753361	-0.002757	0.486978
	Zn227	Zn	0.253484	-0.001753	0.486992
	N228	N	0.415208	0.963520	0.667767
	N229	N	0.590937	0.030176	0.668642
	N230	N	0.591333	0.963433	0.305503
	N231	N	0.417656	0.033212	0.307699
	N232	N	0.682454	0.411211	0.952285
	N233	N	0.682008	0.584740	0.022020
	N234	N	0.321824	0.584516	0.953381
	N235	N	0.321191	0.409752	0.020963
	N236	N	0.968967	0.678920	0.399966
	N237	N	0.037925	0.678714	0.574273
	N238	N	0.968655	0.317033	0.575267
	N239	N	0.036790	0.317725	0.399768
	N240	N	0.968027	0.411483	0.667125
	N241	N	0.037271	0.585909	0.667556
	N242	N	0.967832	0.584761	0.307644
	N243	N	0.037315	0.411388	0.307226
	N244	N	0.414412	0.677550	0.953519
	N245	N	0.589664	0.678735	0.021777
	N246	N	0.588852	0.318772	0.951704
	N247	N	0.416009	0.318087	0.021909
	N248	N	0.683567	0.962639	0.399580
	N249	N	0.682882	0.030975	0.574115
	N250	N	0.322886	0.963277	0.573979
	N251	N	0.321771	0.031350	0.398189
	N252	N	0.914771	0.463380	0.168091
	N253	N	0.087921	0.533387	0.166242
	N254	N	0.089505	0.464074	0.806714
	N255	N	0.916177	0.533175	0.808114
	N256	N	0.184076	0.910684	0.452914
	N257	N	0.182994	0.084837	0.521709
	N258	N	0.822647	0.084863	0.452913
	N259	N	0.823837	0.911400	0.522286
	N260	N	0.468217	0.177275	0.900935
	N261	N	0.537719	0.178961	0.074501
	N262	N	0.467958	0.817277	0.074945
	N263	N	0.535656	0.816294	0.900057
	N264	N	0.468112	0.911605	0.167195
	N265	N	0.538198	0.085344	0.166825
	N266	N	0.468354	0.084061	0.807287
	N267	N	0.536741	0.909921	0.807707
	N268	N	0.916242	0.177407	0.452440
	N269	N	0.090277	0.178592	0.521524
	N270	N	0.090175	0.818474	0.452032
	N271	N	0.917644	0.818969	0.522475
	N272	N	0.182114	0.462913	0.900563
	N273	N	0.181330	0.532753	0.073247
	N274	N	0.821936	0.463107	0.074836
	N275	N	0.823436	0.533499	0.901962
	O276	O	0.177150	0.825903	0.161538
	H277	H	0.164031	0.836945	0.142895
	H278	H	0.162943	0.837051	0.163965
	O279	O	0.590961	0.431905	0.337824
	H280	H	0.589116	0.420781	0.354488
	H281	H	0.597342	0.425123	0.331526
	O282	O	0.781154	0.006414	0.807841
	H283	H	0.764730	0.005462	0.802440
	H284	H	0.787735	0.009432	0.805081
	O285	O	0.488118	0.388961	0.561671
	H286	H	0.493438	0.382684	0.558040
	H287	H	0.472925	0.385583	0.564344
	O288	O	0.465984	0.271310	0.709057
	H289	H	0.438751	0.261021	0.719394
	H290	H	0.458662	0.252931	0.719563
	O291	O	0.282289	0.269092	0.512438
	H292	H	0.272312	0.268801	0.543112
	H293	H	0.260807	0.259052	0.532761
	O294	O	1.088292	-0.044065	0.915771
	H295	H	1.092605	-0.044682	0.928737
	H296	H	1.090317	-0.042384	0.925308
	O297	O	0.486485	0.685792	0.263635
	H298	H	0.468013	0.689177	0.262333
	H299	H	0.475093	0.699222	0.251132
	O300	O	-0.383276	-0.434589	1.356083
	H301	H	-0.384717	-0.442363	1.353365
	H302	H	-0.383493	-0.419869	1.358703
	O303	O	0.690777	0.322680	0.675176
	H304	H	0.671528	0.334276	0.650162
	H305	H	0.685360	0.345011	0.658646
	O306	O	0.735958	0.561066	0.440554
	H307	H	0.722233	0.552322	0.448621
	H308	H	0.736575	0.563578	0.441459
	O309	O	0.540588	0.722743	0.531996
	H310	H	0.526304	0.714447	0.538986
	H311	H	0.533881	0.728401	0.541904
	O312	O	0.721734	0.713329	0.525908
	H313	H	0.731566	0.717918	0.520152
	H314	H	0.715915	0.717684	0.517835
	O315	O	1.152383	1.050326	0.931537
	H316	H	1.155129	1.052666	0.941967
	H317	H	1.138833	1.061029	0.941256
	O318	O	0.504348	0.710141	0.659970
	H319	H	0.524421	0.725107	0.676171
	H320	H	0.527399	0.705227	0.659620
	O321	O	0.294021	0.702833	0.694843
	H322	H	0.309791	0.700107	0.708547
	H323	H	0.274220	0.729063	0.719155
	O324	O	0.780915	1.204234	-0.040476
	H325	H	0.766798	1.230380	-0.038227
	H326	H	0.778342	1.203213	-0.057182
	O327	O	-0.047798	0.176913	1.067931
	H328	H	-0.063937	0.180920	1.074228
	H329	H	-0.037636	0.186818	1.092442
	O330	O	0.530091	0.283030	0.267578
	H331	H	0.519658	0.288778	0.257673
	H332	H	0.514580	0.285013	0.249042
	O333	O	0.558981	0.602328	0.327125
	H334	H	0.574513	0.604312	0.343229
	H335	H	0.552438	0.619485	0.323393
	O336	O	0.430538	0.431195	0.277634
	H337	H	0.435627	0.459437	0.276763
	H338	H	0.428254	0.451990	0.274930
	O339	O	0.938934	-0.229405	0.954533
	H340	H	0.948010	-0.232940	0.966244
	H341	H	0.944417	-0.227039	0.935764
	O342	O	-0.211904	-0.212092	0.020231
	H343	H	-0.203846	-0.201164	0.004858
	H344	H	-0.229378	-0.223493	0.013658
	O345	O	0.179857	1.037329	1.121840
	H346	H	0.174950	1.051926	1.126032
	H347	H	0.180470	1.041738	1.131891
	O348	O	0.209837	0.202929	0.192676
	H349	H	0.243415	0.234042	0.224690
	H350	H	0.214055	0.187695	0.163221
	O351	O	0.707821	0.461286	0.282454
	H352	H	0.728760	0.449556	0.269501
	H353	H	0.714842	0.449888	0.297406
	O354	O	-0.194815	-0.199675	1.190198
	H355	H	-0.203934	-0.182359	1.162468
	H356	H	-0.218026	-0.221969	1.189200
	O357	O	0.323661	0.484322	0.575475
	H358	H	0.339507	0.484410	0.556483
	H359	H	0.316849	0.498980	0.581185
	O360	O	0.296791	0.282630	0.702469
	H361	H	0.298407	0.322527	0.702133
	H362	H	0.261028	0.254470	0.734892
	O363	O	-0.026956	-0.220844	0.207880
	H364	H	-0.069657	-0.213589	0.199161
	H365	H	-0.036427	-0.246400	0.236044
	O366	O	0.501266	0.589790	0.555989
	H367	H	0.478841	0.592144	0.561942
	H368	H	0.498630	0.594592	0.575855
	O369	O	0.717403	0.282408	0.275798
	H370	H	0.695807	0.292224	0.295931
	H371	H	0.694799	0.293737	0.291370
	O372	O	0.832897	1.039732	-0.043326
	H373	H	0.830328	1.057614	-0.029975
	H374	H	0.828420	1.046991	-0.034375
	O375	O	0.992172	0.001406	0.202599
	H376	H	0.987806	-0.001592	0.197356
	H377	H	0.994090	0.013897	0.204584
	O378	O	0.741468	0.430574	0.531317
	H379	H	0.744834	0.439503	0.545765
	H380	H	0.734841	0.433256	0.532798
	O381	O	0.201728	0.806807	0.800516
	H382	H	0.203057	0.827445	0.821803
	H383	H	0.188668	0.820973	0.813092
	O384	O	0.954239	0.207790	0.877975
	H385	H	0.943289	0.211945	0.872109
	H386	H	0.954941	0.203313	0.892022
	O387	O	0.882688	0.990914	-0.025322
	H388	H	0.884172	0.998138	-0.026758
	H389	H	0.882241	1.008903	-0.013044
	O390	O	0.436845	0.508746	0.369671
	H391	H	0.431757	0.509310	0.372022
	H392	H	0.441080	0.512776	0.371536
	O393	O	0.286025	0.470475	0.705125
	H394	H	0.289835	0.475377	0.715524
	H395	H	0.279586	0.483306	0.708687
	O396	O	0.204397	0.970356	0.783881
	H397	H	0.216232	0.979699	0.779011
	H398	H	0.198139	0.988622	0.801537
	O399	O	-0.023862	-0.083053	1.026396
	H400	H	-0.022530	-0.070938	1.029103
	H401	H	-0.029209	-0.076386	1.033531
	O402	O	0.709693	0.288173	0.462097
	H403	H	0.698276	0.294904	0.468256
	H404	H	0.722455	0.273944	0.472337
	O405	O	1.055172	0.226569	0.956034
	H406	H	1.030757	0.226666	0.964618
	H407	H	1.042461	0.220893	0.955796
	O408	O	0.236622	-0.056741	0.047405
	H409	H	0.242138	-0.052763	0.072268
	H410	H	0.233461	-0.056937	0.056897
	O411	O	1.032423	0.987438	0.763794
	H412	H	1.035501	1.005508	0.758196
	H413	H	1.018934	0.992036	0.771122
	O414	O	0.459092	0.261516	0.429379
	H415	H	0.441405	0.276704	0.419287
	H416	H	0.440611	0.253913	0.418313
	O417	O	0.555147	0.323508	0.525668
	H418	H	0.540361	0.322858	0.544772
	H419	H	0.531045	0.318302	0.491376
	O420	O	0.648067	0.668715	0.369692
	H421	H	0.642283	0.642059	0.378380
	H422	H	0.632043	0.665476	0.398643
	O423	O	-0.170357	0.092976	1.057513
	H424	H	-0.170746	0.100555	1.075733
	H425	H	-0.174544	0.110132	1.066623
	O426	O	0.280340	0.530844	0.259591
	H427	H	0.279294	0.561746	0.268579
	H428	H	0.252835	0.534978	0.237059
	O429	O	0.936377	1.153711	0.776342
	H430	H	0.926172	1.167410	0.770759
	H431	H	0.905694	1.154012	0.774775
	O432	O	0.419406	0.575468	0.709577
	H433	H	0.443661	0.559885	0.717651
	H434	H	0.419544	0.593930	0.717453
	O435	O	0.067419	0.991678	0.080958
	H436	H	0.065586	0.988091	0.080012
	H437	H	0.059739	0.991017	0.086736
	O438	O	-0.143389	-0.007652	0.202872
	H439	H	-0.153016	-0.013223	0.210759
	H440	H	-0.154727	-0.009016	0.207104
	O441	O	0.040083	0.187528	0.172991
	H442	H	0.042228	0.208767	0.196142
	H443	H	0.070544	0.180584	0.173580
	O444	O	0.534345	0.491402	0.548815
	H445	H	0.523435	0.493104	0.561112
	H446	H	0.535808	0.482913	0.550607
	O447	O	0.221241	1.214598	1.019830
	H448	H	0.229956	1.244246	1.021156
	H449	H	0.206102	1.220966	1.018335
	O450	O	0.210796	0.790600	0.960714
	H451	H	0.218601	0.775087	0.974857
	H452	H	0.198126	0.797944	0.972533
	O453	O	0.546045	0.431989	0.714932
	H454	H	0.551622	0.417813	0.705769
	H455	H	0.550329	0.416384	0.718893
	O456	O	0.190044	0.186992	0.799591
	H457	H	0.178366	0.162762	0.816395
	H458	H	0.164216	0.177260	0.818935
	O459	O	0.457267	0.650067	0.453371
	H460	H	0.454774	0.644857	0.451728
	H461	H	0.458667	0.640767	0.466923
	O462	O	0.812745	0.809494	0.795485
	H463	H	0.845652	0.821961	0.808549
	H464	H	0.814848	0.834776	0.820997
	O465	O	0.819769	0.180346	0.170469
	H466	H	0.812903	0.186825	0.189899
	H467	H	0.823180	0.185643	0.189154
	O468	O	0.283456	0.721737	0.443599
	H469	H	0.315342	0.725629	0.466149
	H470	H	0.257912	0.751364	0.454788
	O471	O	0.287066	0.451400	0.426294
	H472	H	0.288501	0.483304	0.427250
	H473	H	0.284806	0.446575	0.432712
	O474	O	0.292003	0.705307	0.273832
	H475	H	0.280578	0.724493	0.255220
	H476	H	0.286232	0.708352	0.323392
	O477	O	0.309291	0.300870	1.292591
	H478	H	0.316137	0.309361	1.330937
	H479	H	0.333382	0.334478	1.291415
	O480	O	0.356099	0.600615	0.552620
	H481	H	0.356757	0.610776	0.582385
	H482	H	0.348529	0.598403	0.549317
	O483	O	0.726846	0.532304	0.708518
	H484	H	0.731698	0.564415	0.712415
	H485	H	0.740243	0.549202	0.729164
	O486	O	1.034522	-0.201390	1.042244
	H487	H	1.015448	-0.201210	1.051748
	H488	H	1.033927	-0.199320	1.040042
	O489	O	1.030419	0.778192	-0.225097
	H490	H	1.037926	0.778124	-0.246828
	H491	H	1.050470	0.773307	-0.223457
	O492	O	-0.019386	-0.036580	0.205866
	H493	H	-0.032642	-0.045519	0.223606
	H494	H	-0.026726	-0.058418	0.208727
	O495	O	-0.020391	0.984447	0.795846
	H496	H	-0.017345	0.994240	0.796219
	H497	H	-0.018054	0.975431	0.804501
	O498	O	0.780277	1.214259	0.767977
	H499	H	0.773395	1.209071	0.751327
	H500	H	0.759476	1.232104	0.757453
	O501	O	0.713169	0.707461	0.698060
	H502	H	0.745947	0.742498	0.727097
	H503	H	0.706856	0.715186	0.657000
