data_Molecule from HDF5

_cell_length_a		16.172075
_cell_length_b		16.176852
_cell_length_c		16.367013
_cell_angle_alpha	89.954312
_cell_angle_beta	90.276274
_cell_angle_gamma	89.834892
_symmetry_space_group_name_H-M	'P 1'
_symmetry_Int_Tables_number		1

loop_
	_symmetry_equiv_pos_as_xyz
	x,y,z

loop_
	_atom_site_label
	_atom_site_type_symbol
	_atom_site_fract_x
	_atom_site_fract_y
	_atom_site_fract_z
	H0	H	0.406471	0.839938	0.714025
	H1	H	0.606192	0.167510	0.714745
	H2	H	0.604593	0.840362	0.283587
	H3	H	0.402458	0.167602	0.283182
	H4	H	0.718730	0.407121	0.835295
	H5	H	0.720710	0.602538	0.161982
	H6	H	0.289825	0.602387	0.835047
	H7	H	0.291794	0.404930	0.161819
	H8	H	0.840164	0.715575	0.401030
	H9	H	0.169417	0.714232	0.597577
	H10	H	0.839949	0.290371	0.595509
	H11	H	0.169981	0.289977	0.404600
	H12	H	0.841061	0.403049	0.713279
	H13	H	0.169183	0.600814	0.714195
	H14	H	0.841150	0.603336	0.282852
	H15	H	0.168400	0.399418	0.283244
	H16	H	0.405844	0.718988	0.835086
	H17	H	0.605133	0.719170	0.161786
	H18	H	0.602411	0.289670	0.835637
	H19	H	0.407986	0.289030	0.161651
	H20	H	0.716133	0.837835	0.402500
	H21	H	0.718280	0.168505	0.596427
	H22	H	0.295744	0.836919	0.594190
	H23	H	0.289817	0.167910	0.400347
	H24	H	0.904970	0.338564	0.213585
	H25	H	0.106191	0.665625	0.216701
	H26	H	0.103781	0.338626	0.787113
	H27	H	0.904155	0.666895	0.782979
	H28	H	0.219194	0.903355	0.335445
	H29	H	0.219226	0.098092	0.662607
	H30	H	0.789752	0.100786	0.336400
	H31	H	0.791298	0.903977	0.662254
	H32	H	0.340169	0.217683	0.900484
	H33	H	0.670578	0.214431	0.094942
	H34	H	0.340310	0.790805	0.094599
	H35	H	0.670148	0.790664	0.902534
	H36	H	0.340464	0.904717	0.211909
	H37	H	0.668924	0.103993	0.215177
	H38	H	0.341474	0.105346	0.781754
	H39	H	0.669500	0.902855	0.784768
	H40	H	0.905280	0.217619	0.337088
	H41	H	0.104801	0.216628	0.662436
	H42	H	0.103810	0.786137	0.336178
	H43	H	0.909157	0.788710	0.662940
	H44	H	0.217700	0.338494	0.903450
	H45	H	0.218454	0.668197	0.098393
	H46	H	0.793239	0.338303	0.094939
	H47	H	0.792737	0.668692	0.901969
	H48	H	0.404291	0.123540	0.592600
	H49	H	0.602651	0.885601	0.591031
	H50	H	0.600043	0.121916	0.406544
	H51	H	0.407666	0.884133	0.403167
	H52	H	0.597436	0.413033	0.113130
	H53	H	0.600755	0.610129	0.878356
	H54	H	0.413215	0.594675	0.113445
	H55	H	0.402275	0.407415	0.878453
	H56	H	0.122328	0.594000	0.407037
	H57	H	0.884474	0.600496	0.594238
	H58	H	0.123997	0.411266	0.601034
	H59	H	0.888137	0.410120	0.409537
	H60	H	0.125968	0.401919	0.594304
	H61	H	0.888470	0.593876	0.586914
	H62	H	0.121312	0.592835	0.409943
	H63	H	0.888570	0.415349	0.403874
	H64	H	0.415019	0.599813	0.114442
	H65	H	0.608075	0.588303	0.882641
	H66	H	0.597728	0.405347	0.115988
	H67	H	0.412702	0.420570	0.886063
	H68	H	0.594915	0.121897	0.402751
	H69	H	0.597170	0.884630	0.598233
	H70	H	0.417489	0.121402	0.597953
	H71	H	0.415459	0.885188	0.399575
	H72	H	0.912950	0.624206	0.100378
	H73	H	0.097047	0.386218	0.091143
	H74	H	0.091145	0.618857	0.910223
	H75	H	0.905282	0.380925	0.898042
	H76	H	0.103283	0.909100	0.615473
	H77	H	0.092357	0.088948	0.386323
	H78	H	0.911659	0.091777	0.614949
	H79	H	0.910944	0.898732	0.380113
	H80	H	0.622311	0.099434	0.909603
	H81	H	0.382685	0.116297	0.086323
	H82	H	0.623750	0.911155	0.097643
	H83	H	0.388547	0.913032	0.906475
	H84	H	0.623494	0.907048	0.090644
	H85	H	0.396115	0.083110	0.076899
	H86	H	0.621492	0.091080	0.906646
	H87	H	0.387891	0.913615	0.902974
	H88	H	0.915179	0.097569	0.615975
	H89	H	0.092880	0.105689	0.382354
	H90	H	0.098367	0.908036	0.613824
	H91	H	0.902042	0.914433	0.381836
	H92	H	0.103891	0.622745	0.908085
	H93	H	0.100736	0.384742	0.092132
	H94	H	0.921420	0.617253	0.089870
	H95	H	0.922718	0.387769	0.903338
	H96	H	0.414618	0.117995	0.584407
	H97	H	0.593839	0.887995	0.589906
	H98	H	0.595021	0.119731	0.408988
	H99	H	0.414274	0.887433	0.407944
	H100	H	0.604576	0.409346	0.115841
	H101	H	0.585617	0.594014	0.887175
	H102	H	0.409619	0.598750	0.115307
	H103	H	0.419633	0.404210	0.883056
	H104	H	0.121831	0.590714	0.406682
	H105	H	0.887135	0.589886	0.596779
	H106	H	0.120426	0.411945	0.590138
	H107	H	0.885857	0.408841	0.402180
	H108	H	0.907370	0.620943	0.086708
	H109	H	0.098023	0.384498	0.094778
	H110	H	0.094670	0.622938	0.898056
	H111	H	0.908665	0.387231	0.915718
	H112	H	0.100647	0.905239	0.616475
	H113	H	0.106610	0.095555	0.380565
	H114	H	0.908236	0.097830	0.617711
	H115	H	0.919710	0.913015	0.386984
	H116	H	0.624096	0.097361	0.900955
	H117	H	0.383613	0.088702	0.110944
	H118	H	0.621151	0.915126	0.091192
	H119	H	0.387190	0.910770	0.904241
	C120	C	0.384287	0.011843	0.619699
	C121	C	0.626252	0.994996	0.620792
	C122	C	0.625715	0.012467	0.377672
	C123	C	0.382910	0.994879	0.376057
	C124	C	0.627685	0.381586	0.007171
	C125	C	0.627104	0.625874	0.990463
	C126	C	0.383437	0.626127	0.006379
	C127	C	0.383603	0.382165	0.990333
	C128	C	0.013240	0.622517	0.378274
	C129	C	0.995886	0.623071	0.621334
	C130	C	0.014254	0.380574	0.621633
	C131	C	0.995955	0.381515	0.377587
	C132	C	0.884585	0.511853	0.120565
	C133	C	0.126801	0.494162	0.121273
	C134	C	0.125662	0.512253	0.877780
	C135	C	0.883497	0.494480	0.877379
	C136	C	0.128395	0.879366	0.507326
	C137	C	0.126339	0.123807	0.491116
	C138	C	0.882771	0.124606	0.508258
	C139	C	0.883466	0.880575	0.490763
	C140	C	0.513927	0.125208	0.876908
	C141	C	0.496058	0.125131	0.120186
	C142	C	0.513807	0.882677	0.120385
	C143	C	0.496604	0.882886	0.877089
	C144	C	0.386500	0.888426	0.675331
	C145	C	0.624938	0.118868	0.675907
	C146	C	0.624120	0.888967	0.322221
	C147	C	0.383534	0.118621	0.321231
	C148	C	0.681430	0.385734	0.884055
	C149	C	0.682554	0.623011	0.113319
	C150	C	0.327773	0.623192	0.883880
	C151	C	0.329360	0.384500	0.112947
	C152	C	0.889379	0.677949	0.380388
	C153	C	0.119985	0.677506	0.618652
	C154	C	0.889518	0.327128	0.616971
	C155	C	0.120502	0.326699	0.382486
	C156	C	0.890056	0.382848	0.675680
	C157	C	0.120015	0.620913	0.676453
	C158	C	0.890242	0.622394	0.321295
	C159	C	0.119876	0.381197	0.322444
	C160	C	0.385487	0.681236	0.883896
	C161	C	0.625083	0.681088	0.113097
	C162	C	0.623942	0.327320	0.884248
	C163	C	0.387131	0.326881	0.112960
	C164	C	0.679647	0.887728	0.381421
	C165	C	0.681190	0.119041	0.617493
	C166	C	0.331411	0.887104	0.615792
	C167	C	0.327320	0.118559	0.379493
	C168	C	0.885985	0.387682	0.175260
	C169	C	0.125674	0.617281	0.177843
	C170	C	0.124091	0.388040	0.824087
	C171	C	0.884683	0.617998	0.821450
	C172	C	0.181842	0.882595	0.384299
	C173	C	0.181498	0.119571	0.613898
	C174	C	0.827277	0.121992	0.385337
	C175	C	0.829215	0.883522	0.613745
	C176	C	0.389549	0.180255	0.879674
	C177	C	0.620791	0.178569	0.116640
	C178	C	0.389458	0.828426	0.115906
	C179	C	0.620962	0.828204	0.881335
	C180	C	0.389775	0.884809	0.174351
	C181	C	0.620018	0.123615	0.176202
	C182	C	0.390128	0.124581	0.820662
	C183	C	0.620543	0.883938	0.822746
	C184	C	0.884605	0.180124	0.385745
	C185	C	0.124268	0.178008	0.613954
	C186	C	0.124745	0.824175	0.384781
	C187	C	0.887721	0.826400	0.614003
	C188	C	0.180458	0.387732	0.882070
	C189	C	0.181554	0.618601	0.119023
	C190	C	0.830247	0.387415	0.116432
	C191	C	0.829636	0.619124	0.880889
	C192	C	0.405750	0.098717	0.597879
	C193	C	0.604215	0.908497	0.599379
	C194	C	0.603217	0.098911	0.399564
	C195	C	0.405690	0.908132	0.397366
	C196	C	0.606283	0.402869	0.092869
	C197	C	0.604735	0.603875	0.904779
	C198	C	0.405882	0.604277	0.092261
	C199	C	0.405089	0.404211	0.904599
	C200	C	0.099647	0.599182	0.401131
	C201	C	0.909116	0.601364	0.599157
	C202	C	0.100992	0.402059	0.601274
	C203	C	0.909832	0.404579	0.398972
	C204	C	0.907128	0.598364	0.098747
	C205	C	0.105152	0.407630	0.099173
	C206	C	0.103185	0.599049	0.899139
	C207	C	0.905618	0.407706	0.899282
	C208	C	0.107196	0.901177	0.593127
	C209	C	0.103960	0.102756	0.405110
	C210	C	0.905117	0.102190	0.594104
	C211	C	0.904609	0.902392	0.405062
	C212	C	0.600138	0.102608	0.899185
	C213	C	0.409585	0.102686	0.098000
	C214	C	0.600390	0.904802	0.099576
	C215	C	0.410324	0.905802	0.898358
	Zn216	Zn	0.504889	0.003855	0.748615
	Zn217	Zn	0.504860	0.004696	0.248804
	Zn218	Zn	0.756182	0.504020	-0.000856
	Zn219	Zn	0.254058	0.504297	-0.001181
	Zn220	Zn	0.005180	0.750888	0.499213
	Zn221	Zn	0.005015	0.253468	0.499520
	Zn222	Zn	0.004702	0.502583	0.749283
	Zn223	Zn	0.005175	0.501988	0.248936
	Zn224	Zn	0.505313	0.755140	-0.001603
	Zn225	Zn	0.505078	0.252681	-0.001048
	Zn226	Zn	0.753731	0.003062	0.499231
	Zn227	Zn	0.256498	0.002228	0.498396
	N228	N	0.418635	0.967088	0.677853
	N229	N	0.591623	0.040581	0.678184
	N230	N	0.591258	0.967432	0.319823
	N231	N	0.417571	0.040569	0.319052
	N232	N	0.683852	0.418678	0.961647
	N233	N	0.683916	0.589351	0.036142
	N234	N	0.326436	0.589738	0.961144
	N235	N	0.326973	0.418167	0.035749
	N236	N	0.967009	0.678197	0.415030
	N237	N	0.042061	0.678705	0.584680
	N238	N	0.967672	0.325669	0.583908
	N239	N	0.042565	0.326630	0.416054
	N240	N	0.968595	0.415367	0.678774
	N241	N	0.041737	0.587882	0.678245
	N242	N	0.968317	0.588297	0.320286
	N243	N	0.041518	0.414304	0.319046
	N244	N	0.419417	0.683067	0.961299
	N245	N	0.591278	0.682910	0.035654
	N246	N	0.591193	0.324706	0.961511
	N247	N	0.420295	0.325479	0.035685
	N248	N	0.680472	0.965436	0.415497
	N249	N	0.682042	0.041228	0.583813
	N250	N	0.329930	0.964857	0.582082
	N251	N	0.326984	0.040533	0.412995
	N252	N	0.918893	0.466088	0.177963
	N253	N	0.092437	0.539126	0.179272
	N254	N	0.090613	0.466296	0.821577
	N255	N	0.917745	0.539513	0.819294
	N256	N	0.184488	0.915932	0.461546
	N257	N	0.182959	0.086590	0.536439
	N258	N	0.825958	0.088354	0.462560
	N259	N	0.826456	0.916708	0.536293
	N260	N	0.467242	0.180691	0.914038
	N261	N	0.542798	0.179852	0.082901
	N262	N	0.467610	0.826871	0.083141
	N263	N	0.543043	0.827365	0.914422
	N264	N	0.468151	0.917919	0.177311
	N265	N	0.541408	0.090984	0.178388
	N266	N	0.468304	0.090789	0.818865
	N267	N	0.542125	0.917411	0.820083
	N268	N	0.918286	0.181868	0.463082
	N269	N	0.090713	0.180946	0.536466
	N270	N	0.092290	0.821850	0.462376
	N271	N	0.920489	0.824124	0.536545
	N272	N	0.181725	0.466214	0.914577
	N273	N	0.182609	0.540878	0.084599
	N274	N	0.829142	0.465534	0.083209
	N275	N	0.828875	0.541471	0.915097
	O276	O	-0.530514	-0.439257	1.448941
	H277	H	-0.541456	-0.433709	1.452735
	H278	H	-0.532085	-0.442415	1.442779
	O279	O	0.453941	0.515964	0.385360
	H280	H	0.448210	0.512976	0.372244
	H281	H	0.455755	0.519104	0.375633
	O282	O	0.482258	0.564916	0.380220
	H283	H	0.498693	0.566331	0.386612
	H284	H	0.482457	0.552842	0.372047
	O285	O	0.447175	0.537020	0.437304
	H286	H	0.448605	0.533209	0.452708
	H287	H	0.436521	0.544338	0.429711
	O288	O	0.420904	0.521390	0.430147
	H289	H	0.413693	0.527265	0.429390
	H290	H	0.426192	0.528224	0.427700
	O291	O	0.042115	1.036985	0.973869
	H292	H	0.040250	1.042640	0.972100
	H293	H	0.048939	1.035316	0.971379
	O294	O	0.539760	0.558522	0.413902
	H295	H	0.534702	0.547136	0.412929
	H296	H	0.546840	0.558508	0.418222
	O297	O	1.035559	0.040085	-0.021827
	H298	H	1.034838	0.047343	-0.024661
	H299	H	1.036745	0.039938	-0.022238
