data_Molecule from HDF5

_cell_length_a		16.283622
_cell_length_b		16.206923
_cell_length_c		16.167011
_cell_angle_alpha	90.120146
_cell_angle_beta	89.848052
_cell_angle_gamma	89.881889
_symmetry_space_group_name_H-M	'P 1'
_symmetry_Int_Tables_number		1

loop_
	_symmetry_equiv_pos_as_xyz
	x,y,z

loop_
	_atom_site_label
	_atom_site_type_symbol
	_atom_site_fract_x
	_atom_site_fract_y
	_atom_site_fract_z
	H0	H	0.401656	0.839051	0.721749
	H1	H	0.594868	0.169592	0.720606
	H2	H	0.597881	0.840193	0.294474
	H3	H	0.400079	0.169573	0.294793
	H4	H	0.714178	0.404285	0.844025
	H5	H	0.713648	0.606165	0.172220
	H6	H	0.285762	0.602941	0.843000
	H7	H	0.285303	0.407087	0.172838
	H8	H	0.834664	0.718822	0.410291
	H9	H	0.162904	0.720004	0.606697
	H10	H	0.834807	0.291272	0.605952
	H11	H	0.162571	0.289113	0.408340
	H12	H	0.835289	0.406671	0.722955
	H13	H	0.163409	0.602154	0.721896
	H14	H	0.834288	0.602035	0.295378
	H15	H	0.162430	0.405952	0.293252
	H16	H	0.402119	0.718586	0.843065
	H17	H	0.595988	0.718504	0.173303
	H18	H	0.597407	0.291326	0.843501
	H19	H	0.400308	0.291823	0.172721
	H20	H	0.715270	0.841205	0.406369
	H21	H	0.711860	0.168717	0.607455
	H22	H	0.284128	0.840491	0.607417
	H23	H	0.286062	0.169479	0.410799
	H24	H	0.902068	0.339670	0.219664
	H25	H	0.094470	0.669225	0.220536
	H26	H	0.097047	0.338679	0.795225
	H27	H	0.901647	0.669031	0.796016
	H28	H	0.216209	0.903012	0.343199
	H29	H	0.211821	0.104033	0.672282
	H30	H	0.784195	0.103820	0.343628
	H31	H	0.784650	0.907036	0.672531
	H32	H	0.335333	0.218756	0.911265
	H33	H	0.663058	0.221219	0.107195
	H34	H	0.335383	0.791856	0.106345
	H35	H	0.663939	0.789729	0.908797
	H36	H	0.335552	0.908084	0.222396
	H37	H	0.663403	0.103148	0.222693
	H38	H	0.335057	0.103170	0.795773
	H39	H	0.664078	0.906608	0.793401
	H40	H	0.900234	0.218592	0.343083
	H41	H	0.095484	0.216836	0.672906
	H42	H	0.098111	0.790304	0.342170
	H43	H	0.900826	0.792582	0.672782
	H44	H	0.215094	0.339908	0.907604
	H45	H	0.212048	0.668531	0.107611
	H46	H	0.783045	0.341596	0.108611
	H47	H	0.785110	0.668593	0.909572
	H48	H	0.398429	0.124073	0.604272
	H49	H	0.595391	0.885623	0.601899
	H50	H	0.590295	0.123006	0.413217
	H51	H	0.409172	0.885942	0.407102
	H52	H	0.601844	0.415939	0.128084
	H53	H	0.586893	0.598634	0.891527
	H54	H	0.400348	0.595818	0.126362
	H55	H	0.401275	0.405812	0.886475
	H56	H	0.117047	0.604153	0.417816
	H57	H	0.880182	0.610658	0.598364
	H58	H	0.116987	0.412519	0.607641
	H59	H	0.880911	0.404466	0.418536
	H60	H	0.117737	0.403448	0.598789
	H61	H	0.887195	0.590079	0.594095
	H62	H	0.112926	0.592616	0.418482
	H63	H	0.884755	0.416118	0.417370
	H64	H	0.408966	0.597200	0.124672
	H65	H	0.596267	0.602057	0.887194
	H66	H	0.584632	0.421221	0.121582
	H67	H	0.403249	0.420124	0.891294
	H68	H	0.590139	0.120358	0.418893
	H69	H	0.589871	0.887279	0.601993
	H70	H	0.408369	0.122106	0.606576
	H71	H	0.412206	0.891027	0.422251
	H72	H	0.914942	0.622913	0.111896
	H73	H	0.092171	0.385370	0.105843
	H74	H	0.092159	0.622697	0.910335
	H75	H	0.896647	0.382517	0.910921
	H76	H	0.088070	0.911217	0.623793
	H77	H	0.098993	0.099951	0.387291
	H78	H	0.888772	0.090742	0.627708
	H79	H	0.903596	0.914959	0.390509
	H80	H	0.617004	0.104138	0.918806
	H81	H	0.384631	0.100196	0.095656
	H82	H	0.613498	0.912379	0.094088
	H83	H	0.384822	0.912977	0.917630
	H84	H	0.616670	0.917406	0.106906
	H85	H	0.384758	0.092058	0.103216
	H86	H	0.614958	0.092128	0.915163
	H87	H	0.382673	0.913075	0.912445
	H88	H	0.917440	0.090466	0.620120
	H89	H	0.093551	0.090950	0.390992
	H90	H	0.093683	0.910871	0.626006
	H91	H	0.909561	0.913042	0.391439
	H92	H	0.088697	0.619658	0.918970
	H93	H	0.089673	0.388834	0.097990
	H94	H	0.907850	0.617757	0.087758
	H95	H	0.915364	0.387305	0.910097
	H96	H	0.404709	0.119750	0.596594
	H97	H	0.592356	0.888121	0.596881
	H98	H	0.594776	0.123534	0.416573
	H99	H	0.397636	0.885658	0.418198
	H100	H	0.587891	0.403480	0.127971
	H101	H	0.595111	0.592235	0.891623
	H102	H	0.404479	0.602827	0.126709
	H103	H	0.414573	0.410665	0.892635
	H104	H	0.117108	0.596658	0.407266
	H105	H	0.880367	0.595027	0.614520
	H106	H	0.112670	0.414796	0.596040
	H107	H	0.879406	0.410012	0.408100
	H108	H	0.891039	0.627142	0.104398
	H109	H	0.097879	0.386227	0.098968
	H110	H	0.098235	0.622027	0.917945
	H111	H	0.905319	0.390134	0.926231
	H112	H	0.091574	0.916266	0.623353
	H113	H	0.087619	0.100323	0.389914
	H114	H	0.905337	0.115409	0.630856
	H115	H	0.904972	0.908915	0.388344
	H116	H	0.618880	0.100576	0.907514
	H117	H	0.380677	0.102449	0.106093
	H118	H	0.619281	0.903719	0.104338
	H119	H	0.382441	0.908307	0.915659
	C120	C	0.376031	0.013104	0.630871
	C121	C	0.619876	0.995738	0.629037
	C122	C	0.620562	0.013396	0.386988
	C123	C	0.378070	0.996704	0.387221
	C124	C	0.620150	0.384307	0.016904
	C125	C	0.620312	0.626360	0.999439
	C126	C	0.377078	0.626643	0.016604
	C127	C	0.377838	0.384051	0.999294
	C128	C	0.007014	0.625954	0.386445
	C129	C	0.990688	0.627173	0.630567
	C130	C	0.007418	0.382735	0.629485
	C131	C	0.990541	0.382261	0.386089
	C132	C	0.876590	0.513714	0.129756
	C133	C	0.120574	0.495440	0.129639
	C134	C	0.121214	0.512553	0.886606
	C135	C	0.877841	0.495706	0.887444
	C136	C	0.120459	0.883215	0.515572
	C137	C	0.120185	0.125384	0.498849
	C138	C	0.876414	0.126716	0.516830
	C139	C	0.877660	0.884136	0.499228
	C140	C	0.507819	0.126958	0.886684
	C141	C	0.491170	0.127304	0.130454
	C142	C	0.508309	0.883162	0.130163
	C143	C	0.491788	0.883305	0.886502
	C144	C	0.380407	0.888646	0.684684
	C145	C	0.615864	0.120345	0.683315
	C146	C	0.618180	0.889567	0.331910
	C147	C	0.380664	0.120358	0.332871
	C148	C	0.675646	0.385490	0.892979
	C149	C	0.675085	0.625177	0.123393
	C150	C	0.323126	0.623784	0.892346
	C151	C	0.322795	0.386664	0.123503
	C152	C	0.883444	0.680873	0.390022
	C153	C	0.113982	0.682286	0.627608
	C154	C	0.883754	0.328738	0.626509
	C155	C	0.113721	0.327051	0.388129
	C156	C	0.883873	0.386422	0.684432
	C157	C	0.114366	0.623600	0.684617
	C158	C	0.883247	0.622900	0.332799
	C159	C	0.113372	0.385109	0.330689
	C160	C	0.381000	0.680839	0.892374
	C161	C	0.616468	0.680936	0.124024
	C162	C	0.617626	0.329216	0.892546
	C163	C	0.380055	0.329454	0.123656
	C164	C	0.676405	0.890059	0.387802
	C165	C	0.673998	0.119818	0.627297
	C166	C	0.322038	0.889160	0.627693
	C167	C	0.323075	0.120071	0.389854
	C168	C	0.880547	0.389353	0.183599
	C169	C	0.116107	0.620092	0.183528
	C170	C	0.117996	0.388223	0.832156
	C171	C	0.880689	0.619577	0.832918
	C172	C	0.176990	0.884156	0.392078
	C173	C	0.173917	0.123244	0.623256
	C174	C	0.821955	0.124052	0.392725
	C175	C	0.822624	0.886934	0.623346
	C176	C	0.384447	0.181506	0.890476
	C177	C	0.614644	0.182230	0.127175
	C178	C	0.384437	0.829268	0.127341
	C179	C	0.615140	0.828140	0.888888
	C180	C	0.384454	0.886877	0.184892
	C181	C	0.614608	0.124096	0.184983
	C182	C	0.384183	0.123812	0.832965
	C183	C	0.615177	0.885884	0.831325
	C184	C	0.879703	0.180926	0.392443
	C185	C	0.116228	0.179756	0.623408
	C186	C	0.118467	0.827996	0.391587
	C187	C	0.879893	0.829665	0.623401
	C188	C	0.176392	0.388788	0.888274
	C189	C	0.174483	0.619556	0.127439
	C190	C	0.821711	0.390139	0.127934
	C191	C	0.822686	0.619325	0.889325
	C192	C	0.397304	0.099741	0.609160
	C193	C	0.598760	0.909488	0.606895
	C194	C	0.598269	0.099857	0.409648
	C195	C	0.399940	0.909748	0.409203
	C196	C	0.597844	0.406841	0.103476
	C197	C	0.599052	0.604155	0.912600
	C198	C	0.398188	0.605013	0.103479
	C199	C	0.399866	0.405774	0.912590
	C200	C	0.093260	0.604152	0.408177
	C201	C	0.904768	0.605187	0.608748
	C202	C	0.093775	0.403933	0.607345
	C203	C	0.903871	0.403767	0.408178
	C204	C	0.898108	0.600217	0.107968
	C205	C	0.099520	0.409205	0.107425
	C206	C	0.099441	0.599095	0.909002
	C207	C	0.899267	0.408934	0.909311
	C208	C	0.097854	0.906019	0.601967
	C209	C	0.099496	0.103547	0.411965
	C210	C	0.897597	0.105235	0.603767
	C211	C	0.899574	0.905912	0.412497
	C212	C	0.594598	0.105339	0.907454
	C213	C	0.405338	0.104974	0.107982
	C214	C	0.594197	0.904749	0.108319
	C215	C	0.405703	0.904994	0.908754
	Zn216	Zn	0.499139	0.004799	0.757889
	Zn217	Zn	0.499428	0.004793	0.259107
	Zn218	Zn	0.748536	0.504753	0.008233
	Zn219	Zn	0.249190	0.504555	0.008267
	Zn220	Zn	-0.001361	0.755642	0.507510
	Zn221	Zn	-0.001164	0.253305	0.507826
	Zn222	Zn	-0.000452	0.504180	0.759080
	Zn223	Zn	-0.001360	0.504860	0.257661
	Zn224	Zn	0.499495	0.754450	0.008203
	Zn225	Zn	0.499348	0.256030	0.008459
	Zn226	Zn	0.748668	0.004900	0.507944
	Zn227	Zn	0.248770	0.004647	0.507772
	N228	N	0.413123	0.966791	0.686703
	N229	N	0.582603	0.042382	0.684396
	N230	N	0.583984	0.967326	0.331438
	N231	N	0.414175	0.042380	0.331371
	N232	N	0.677186	0.419223	0.971210
	N233	N	0.677688	0.591876	0.045015
	N234	N	0.320571	0.590782	0.970588
	N235	N	0.321343	0.419857	0.045189
	N236	N	0.961468	0.682916	0.422597
	N237	N	0.036180	0.684513	0.594634
	N238	N	0.961568	0.326491	0.593092
	N239	N	0.036068	0.325233	0.421798
	N240	N	0.961775	0.419246	0.686299
	N241	N	0.036768	0.590233	0.686836
	N242	N	0.960969	0.589499	0.330580
	N243	N	0.035665	0.418593	0.329472
	N244	N	0.413740	0.682794	0.970575
	N245	N	0.583027	0.681548	0.046052
	N246	N	0.583947	0.328473	0.970540
	N247	N	0.413511	0.327742	0.045590
	N248	N	0.677903	0.968026	0.421516
	N249	N	0.676737	0.041602	0.594162
	N250	N	0.319192	0.967535	0.595129
	N251	N	0.321409	0.041994	0.423128
	N252	N	0.914033	0.467352	0.184985
	N253	N	0.083613	0.542071	0.185294
	N254	N	0.084267	0.466255	0.831159
	N255	N	0.914535	0.541675	0.831755
	N256	N	0.178537	0.917809	0.470445
	N257	N	0.176758	0.090257	0.544741
	N258	N	0.820109	0.090834	0.470844
	N259	N	0.820767	0.919819	0.544881
	N260	N	0.462471	0.183525	0.923207
	N261	N	0.536882	0.184401	0.094077
	N262	N	0.462335	0.826642	0.094188
	N263	N	0.537303	0.826379	0.922451
	N264	N	0.462240	0.919593	0.186813
	N265	N	0.536940	0.090737	0.187010
	N266	N	0.461862	0.090652	0.830531
	N267	N	0.537534	0.919474	0.829756
	N268	N	0.912781	0.182679	0.470633
	N269	N	0.083431	0.181016	0.545166
	N270	N	0.084084	0.827447	0.469368
	N271	N	0.913669	0.828173	0.545432
	N272	N	0.178627	0.467062	0.921258
	N273	N	0.177298	0.541296	0.094292
	N274	N	0.819120	0.468325	0.095392
	N275	N	0.821132	0.541383	0.922798
	O276	O	0.477503	0.488570	0.519822
	H277	H	0.477831	0.485055	0.519492
	H278	H	0.480260	0.487580	0.517973
	O279	O	0.129520	-0.108544	-0.038805
	H280	H	0.128667	-0.120312	-0.039961
	H281	H	0.132611	-0.102163	-0.048930
	O282	O	0.541074	0.498063	0.501921
	H283	H	0.543924	0.503245	0.499362
	H284	H	0.542383	0.499523	0.493769
	O285	O	0.519224	0.483403	0.469117
	H286	H	0.524620	0.482184	0.468012
	H287	H	0.523205	0.479735	0.470062
	O288	O	1.122491	-0.060607	-0.087437
	H289	H	1.124396	-0.060238	-0.085533
	H290	H	1.124090	-0.057526	-0.090443
	O291	O	-0.523241	0.480994	-0.463992
	H292	H	-0.520349	0.480504	-0.460216
	H293	H	-0.521582	0.480900	-0.466106
	O294	O	0.484139	0.509490	0.447727
	H295	H	0.480824	0.508235	0.442727
	H296	H	0.489144	0.499984	0.451637
	O297	O	0.520399	1.470752	-0.475859
	H298	H	0.512646	1.472314	-0.475917
	H299	H	0.526665	1.479134	-0.475354
	O300	O	1.131729	-0.081830	0.936578
	H301	H	1.136006	-0.090285	0.948064
	H302	H	1.133421	-0.087405	0.939858
	O303	O	0.484734	0.524831	0.505559
	H304	H	0.483601	0.524334	0.503567
	H305	H	0.481530	0.531506	0.512086
	O306	O	0.136580	0.905474	0.875854
	H307	H	0.145231	0.911923	0.865103
	H308	H	0.137801	0.897846	0.867056
	O309	O	0.488846	0.536045	0.527943
	H310	H	0.480102	0.531781	0.527552
	H311	H	0.487030	0.531886	0.531044
