data_Molecule from HDF5

_cell_length_a		16.209582
_cell_length_b		16.282151
_cell_length_c		16.242600
_cell_angle_alpha	89.958639
_cell_angle_beta	89.987774
_cell_angle_gamma	90.007743
_symmetry_space_group_name_H-M	'P 1'
_symmetry_Int_Tables_number		1

loop_
	_symmetry_equiv_pos_as_xyz
	x,y,z

loop_
	_atom_site_label
	_atom_site_type_symbol
	_atom_site_fract_x
	_atom_site_fract_y
	_atom_site_fract_z
	H0	H	0.401278	0.835929	0.715061
	H1	H	0.599415	0.163695	0.714737
	H2	H	0.599467	0.836509	0.285607
	H3	H	0.402873	0.163531	0.286607
	H4	H	0.712803	0.402453	0.835566
	H5	H	0.712916	0.596965	0.164107
	H6	H	0.286234	0.597026	0.835432
	H7	H	0.286790	0.402738	0.164279
	H8	H	0.836255	0.713217	0.401703
	H9	H	0.164564	0.712956	0.597303
	H10	H	0.835814	0.285983	0.598246
	H11	H	0.163697	0.286342	0.401448
	H12	H	0.835095	0.403522	0.712337
	H13	H	0.164521	0.597249	0.712572
	H14	H	0.836403	0.598120	0.286538
	H15	H	0.164350	0.401823	0.286402
	H16	H	0.400347	0.715152	0.836137
	H17	H	0.598293	0.714271	0.163712
	H18	H	0.598018	0.285924	0.836725
	H19	H	0.400586	0.285035	0.163684
	H20	H	0.713203	0.835797	0.403176
	H21	H	0.713627	0.164595	0.596730
	H22	H	0.286001	0.836415	0.598438
	H23	H	0.285583	0.163668	0.401055
	H24	H	0.900976	0.336628	0.214897
	H25	H	0.097043	0.663816	0.212630
	H26	H	0.097891	0.336526	0.785626
	H27	H	0.902081	0.664212	0.786013
	H28	H	0.213356	0.902835	0.335965
	H29	H	0.213046	0.097330	0.664364
	H30	H	0.787002	0.098382	0.335442
	H31	H	0.785957	0.902228	0.663375
	H32	H	0.336298	0.214041	0.901311
	H33	H	0.664712	0.213022	0.097742
	H34	H	0.335576	0.786392	0.098874
	H35	H	0.663851	0.785598	0.901585
	H36	H	0.336132	0.902024	0.214209
	H37	H	0.665177	0.097392	0.213080
	H38	H	0.336487	0.098520	0.785884
	H39	H	0.664685	0.901766	0.786695
	H40	H	0.902069	0.214447	0.335758
	H41	H	0.098911	0.214561	0.663421
	H42	H	0.099288	0.785375	0.336284
	H43	H	0.899804	0.784265	0.663407
	H44	H	0.212453	0.335611	0.903026
	H45	H	0.212236	0.663652	0.095903
	H46	H	0.787153	0.335988	0.096599
	H47	H	0.786578	0.664118	0.902600
	H48	H	0.398730	0.119687	0.594697
	H49	H	0.600475	0.881390	0.592749
	H50	H	0.590926	0.116203	0.406642
	H51	H	0.406929	0.884598	0.412716
	H52	H	0.595965	0.410485	0.117284
	H53	H	0.592272	0.591847	0.882853
	H54	H	0.398781	0.589506	0.118638
	H55	H	0.405800	0.404517	0.881809
	H56	H	0.118046	0.586753	0.400343
	H57	H	0.884748	0.584404	0.592066
	H58	H	0.119339	0.403942	0.595752
	H59	H	0.884767	0.409698	0.412045
	H60	H	0.117255	0.404974	0.590776
	H61	H	0.878976	0.596647	0.600802
	H62	H	0.121812	0.602052	0.403408
	H63	H	0.882064	0.410640	0.401972
	H64	H	0.412890	0.588380	0.113692
	H65	H	0.591177	0.594662	0.882343
	H66	H	0.588351	0.405403	0.116664
	H67	H	0.404304	0.407072	0.882253
	H68	H	0.595479	0.117436	0.408581
	H69	H	0.590753	0.882604	0.599956
	H70	H	0.412355	0.117583	0.600880
	H71	H	0.401351	0.880889	0.404736
	H72	H	0.906990	0.616329	0.091500
	H73	H	0.095836	0.381324	0.094731
	H74	H	0.106999	0.618788	0.915405
	H75	H	0.904747	0.382144	0.903873
	H76	H	0.099311	0.903835	0.620206
	H77	H	0.090059	0.089623	0.384842
	H78	H	0.901976	0.086512	0.616672
	H79	H	0.908039	0.897107	0.380066
	H80	H	0.621085	0.093742	0.896697
	H81	H	0.382903	0.088387	0.097546
	H82	H	0.621560	0.902036	0.103171
	H83	H	0.382442	0.902381	0.912540
	H84	H	0.616573	0.899177	0.082894
	H85	H	0.380532	0.099166	0.094657
	H86	H	0.618759	0.102834	0.913406
	H87	H	0.384831	0.913645	0.907889
	H88	H	0.915840	0.092881	0.614351
	H89	H	0.090748	0.099688	0.381529
	H90	H	0.091916	0.914136	0.615152
	H91	H	0.897610	0.909336	0.380990
	H92	H	0.093771	0.622188	0.890802
	H93	H	0.091322	0.381741	0.096929
	H94	H	0.903801	0.618105	0.094659
	H95	H	0.907382	0.383395	0.905361
	H96	H	0.410352	0.113940	0.586669
	H97	H	0.589782	0.885755	0.588478
	H98	H	0.594676	0.118473	0.403464
	H99	H	0.411879	0.882243	0.403348
	H100	H	0.596286	0.401375	0.119975
	H101	H	0.594337	0.593638	0.882181
	H102	H	0.407392	0.601874	0.119358
	H103	H	0.407737	0.406948	0.882994
	H104	H	0.115604	0.592429	0.415127
	H105	H	0.882838	0.598497	0.585753
	H106	H	0.117064	0.408800	0.594558
	H107	H	0.880828	0.401530	0.407552
	H108	H	0.907784	0.617094	0.095293
	H109	H	0.092015	0.383463	0.091982
	H110	H	0.080259	0.611187	0.913026
	H111	H	0.905248	0.383015	0.906489
	H112	H	0.086556	0.901393	0.617033
	H113	H	0.098870	0.093240	0.381526
	H114	H	0.904174	0.101522	0.620279
	H115	H	0.913349	0.911475	0.386122
	H116	H	0.614501	0.084132	0.911677
	H117	H	0.384866	0.092156	0.087199
	H118	H	0.613661	0.918107	0.091644
	H119	H	0.379610	0.904254	0.900809
	C120	C	0.378640	0.008295	0.622069
	C121	C	0.622013	0.991870	0.621650
	C122	C	0.622001	0.008727	0.378390
	C123	C	0.378633	0.991197	0.378746
	C124	C	0.621206	0.378479	0.008988
	C125	C	0.621006	0.621462	0.991082
	C126	C	0.378098	0.621525	0.008693
	C127	C	0.378153	0.378002	0.991287
	C128	C	0.009666	0.621514	0.378277
	C129	C	0.991083	0.621436	0.621002
	C130	C	0.008664	0.378196	0.621617
	C131	C	0.991351	0.379095	0.378869
	C132	C	0.878454	0.508735	0.121751
	C133	C	0.121009	0.490890	0.121723
	C134	C	0.121479	0.508671	0.878421
	C135	C	0.878169	0.491666	0.877817
	C136	C	0.120976	0.878579	0.508744
	C137	C	0.122094	0.122170	0.491009
	C138	C	0.878967	0.121916	0.508294
	C139	C	0.878313	0.877669	0.490867
	C140	C	0.509313	0.121856	0.878809
	C141	C	0.491677	0.121242	0.121724
	C142	C	0.508744	0.878431	0.121552
	C143	C	0.491308	0.878666	0.878683
	C144	C	0.380972	0.885106	0.676971
	C145	C	0.619606	0.115092	0.676590
	C146	C	0.619703	0.885357	0.323629
	C147	C	0.381681	0.114752	0.323919
	C148	C	0.675465	0.381655	0.884894
	C149	C	0.674925	0.617729	0.115187
	C150	C	0.323450	0.618255	0.884584
	C151	C	0.323982	0.381597	0.115193
	C152	C	0.885413	0.675737	0.381312
	C153	C	0.115283	0.675790	0.618382
	C154	C	0.884880	0.323816	0.618649
	C155	C	0.114952	0.324371	0.381143
	C156	C	0.884618	0.381856	0.675593
	C157	C	0.115356	0.618462	0.675440
	C158	C	0.885435	0.618447	0.324044
	C159	C	0.115219	0.381891	0.324230
	C160	C	0.380199	0.676834	0.885012
	C161	C	0.617904	0.675738	0.115091
	C162	C	0.618587	0.323867	0.885233
	C163	C	0.380991	0.323542	0.114968
	C164	C	0.675928	0.884950	0.382138
	C165	C	0.676375	0.115462	0.618254
	C166	C	0.323513	0.885327	0.619282
	C167	C	0.323783	0.114815	0.381184
	C168	C	0.880558	0.385544	0.177148
	C169	C	0.118287	0.614712	0.175495
	C170	C	0.118669	0.385320	0.823547
	C171	C	0.881371	0.615258	0.823807
	C172	C	0.175623	0.881965	0.384893
	C173	C	0.175832	0.118148	0.615146
	C174	C	0.824348	0.118914	0.384605
	C175	C	0.823645	0.881366	0.614674
	C176	C	0.385254	0.176284	0.881454
	C177	C	0.615443	0.175831	0.118743
	C178	C	0.384984	0.823764	0.119658
	C179	C	0.615198	0.823807	0.881546
	C180	C	0.385087	0.881379	0.176821
	C181	C	0.615989	0.117849	0.175768
	C182	C	0.385282	0.118737	0.824291
	C183	C	0.615453	0.881469	0.824369
	C184	C	0.881335	0.176809	0.384785
	C185	C	0.119629	0.176755	0.614581
	C186	C	0.118833	0.823810	0.385127
	C187	C	0.880472	0.822822	0.614518
	C188	C	0.175496	0.384861	0.881796
	C189	C	0.175376	0.614575	0.117633
	C190	C	0.824067	0.385101	0.118296
	C191	C	0.823968	0.615188	0.881649
	C192	C	0.400599	0.094778	0.600501
	C193	C	0.599966	0.905583	0.600106
	C194	C	0.600059	0.094960	0.399862
	C195	C	0.400246	0.904947	0.400473
	C196	C	0.599924	0.399524	0.095560
	C197	C	0.599211	0.599921	0.904869
	C198	C	0.399982	0.599697	0.095007
	C199	C	0.399659	0.399735	0.904727
	C200	C	0.096192	0.600150	0.399907
	C201	C	0.904602	0.599702	0.599420
	C202	C	0.095412	0.399714	0.600061
	C203	C	0.904759	0.400878	0.400778
	C204	C	0.899729	0.595087	0.099931
	C205	C	0.099560	0.404454	0.100618
	C206	C	0.099900	0.595137	0.900034
	C207	C	0.899442	0.404912	0.898974
	C208	C	0.098855	0.900064	0.595023
	C209	C	0.099944	0.100500	0.404755
	C210	C	0.900944	0.100123	0.594843
	C211	C	0.899959	0.899399	0.404560
	C212	C	0.595751	0.100014	0.900763
	C213	C	0.405003	0.099482	0.099695
	C214	C	0.595014	0.900044	0.099135
	C215	C	0.404691	0.900412	0.900572
	Zn216	Zn	0.500540	0.000177	0.750709
	Zn217	Zn	0.500511	-0.000441	0.249860
	Zn218	Zn	0.749398	0.499918	-0.000306
	Zn219	Zn	0.249504	0.499267	-0.000134
	Zn220	Zn	0.000011	0.749196	0.499948
	Zn221	Zn	0.000094	0.250341	0.499520
	Zn222	Zn	0.000003	0.500407	0.749730
	Zn223	Zn	0.000153	0.500225	0.250515
	Zn224	Zn	0.499721	0.750202	-0.000202
	Zn225	Zn	0.499959	0.249974	0.000239
	Zn226	Zn	0.750441	0.000374	0.499704
	Zn227	Zn	0.249601	0.000107	0.500117
	N228	N	0.414698	0.962705	0.678767
	N229	N	0.586433	0.037299	0.678710
	N230	N	0.586953	0.963264	0.321115
	N231	N	0.415189	0.037114	0.322301
	N232	N	0.677288	0.414772	0.962818
	N233	N	0.677034	0.584706	0.037280
	N234	N	0.321880	0.584703	0.962395
	N235	N	0.322206	0.414946	0.037377
	N236	N	0.963494	0.677742	0.414282
	N237	N	0.037190	0.677596	0.585341
	N238	N	0.963078	0.321483	0.585863
	N239	N	0.037046	0.322707	0.414490
	N240	N	0.962549	0.415194	0.677444
	N241	N	0.037339	0.585177	0.677272
	N242	N	0.963470	0.585408	0.322185
	N243	N	0.037189	0.415093	0.322684
	N244	N	0.413440	0.678774	0.962946
	N245	N	0.585222	0.678251	0.036918
	N246	N	0.585559	0.321828	0.963225
	N247	N	0.413793	0.321317	0.036905
	N248	N	0.677586	0.962711	0.415251
	N249	N	0.678287	0.037694	0.585128
	N250	N	0.322054	0.962967	0.585883
	N251	N	0.321702	0.037058	0.414481
	N252	N	0.913625	0.463400	0.179343
	N253	N	0.085259	0.536890	0.177987
	N254	N	0.085872	0.463281	0.821364
	N255	N	0.914436	0.537527	0.821561
	N256	N	0.177221	0.915119	0.462751
	N257	N	0.177551	0.085207	0.537329
	N258	N	0.822892	0.085402	0.462350
	N259	N	0.822652	0.915266	0.537090
	N260	N	0.463285	0.178145	0.914647
	N261	N	0.537228	0.178039	0.085723
	N262	N	0.462737	0.822002	0.085693
	N263	N	0.537096	0.821998	0.914635
	N264	N	0.463022	0.914534	0.178103
	N265	N	0.537991	0.084799	0.177672
	N266	N	0.463333	0.085547	0.822481
	N267	N	0.537546	0.914766	0.822425
	N268	N	0.914400	0.178851	0.462786
	N269	N	0.086688	0.179359	0.536527
	N270	N	0.085570	0.821473	0.463113
	N271	N	0.913378	0.820282	0.536543
	N272	N	0.177277	0.462517	0.915152
	N273	N	0.177296	0.536619	0.084970
	N274	N	0.822612	0.462622	0.084613
	N275	N	0.821982	0.537228	0.914577
