data_Molecule from HDF5

_cell_length_a		16.445530
_cell_length_b		16.540272
_cell_length_c		16.105785
_cell_angle_alpha	89.910526
_cell_angle_beta	90.027034
_cell_angle_gamma	89.895746
_symmetry_space_group_name_H-M	'P 1'
_symmetry_Int_Tables_number		1

loop_
	_symmetry_equiv_pos_as_xyz
	x,y,z

loop_
	_atom_site_label
	_atom_site_type_symbol
	_atom_site_fract_x
	_atom_site_fract_y
	_atom_site_fract_z
	H0	H	0.385613	0.834195	0.736073
	H1	H	0.597738	0.148712	0.731992
	H2	H	0.595161	0.828753	0.294391
	H3	H	0.393676	0.148810	0.291034
	H4	H	0.715248	0.383483	0.848847
	H5	H	0.712086	0.589361	0.173328
	H6	H	0.274185	0.594193	0.849500
	H7	H	0.275855	0.382599	0.171436
	H8	H	0.836433	0.712649	0.402294
	H9	H	0.151195	0.714774	0.621919
	H10	H	0.836540	0.266955	0.619551
	H11	H	0.150542	0.263961	0.400355
	H12	H	0.834300	0.389481	0.728072
	H13	H	0.155132	0.591280	0.729643
	H14	H	0.835578	0.592276	0.290818
	H15	H	0.155503	0.389167	0.293886
	H16	H	0.385771	0.712038	0.850449
	H17	H	0.598934	0.706465	0.173102
	H18	H	0.604054	0.266368	0.850303
	H19	H	0.393259	0.271237	0.172794
	H20	H	0.719256	0.833173	0.402337
	H21	H	0.717132	0.146936	0.619089
	H22	H	0.268109	0.834781	0.621157
	H23	H	0.269116	0.145585	0.398814
	H24	H	0.893232	0.331780	0.231610
	H25	H	0.099836	0.647736	0.230052
	H26	H	0.096608	0.329675	0.791141
	H27	H	0.893229	0.649085	0.791375
	H28	H	0.214629	0.883587	0.350396
	H29	H	0.220615	0.101474	0.669155
	H30	H	0.777337	0.091826	0.348285
	H31	H	0.773859	0.886003	0.671798
	H32	H	0.340557	0.218636	0.896802
	H33	H	0.653250	0.209470	0.118972
	H34	H	0.338738	0.762682	0.122656
	H35	H	0.650972	0.765005	0.901415
	H36	H	0.334964	0.887808	0.228775
	H37	H	0.655914	0.086062	0.226344
	H38	H	0.336964	0.098474	0.787535
	H39	H	0.653657	0.887712	0.791492
	H40	H	0.890115	0.209048	0.349784
	H41	H	0.102588	0.212839	0.670780
	H42	H	0.101336	0.767160	0.351922
	H43	H	0.884757	0.767526	0.670661
	H44	H	0.219902	0.331237	0.900343
	H45	H	0.222700	0.643223	0.121034
	H46	H	0.773351	0.332506	0.118115
	H47	H	0.771388	0.646294	0.902502
	H48	H	0.411866	0.098564	0.593610
	H49	H	0.585559	0.878140	0.598464
	H50	H	0.585256	0.103012	0.419474
	H51	H	0.409907	0.879591	0.424267
	H52	H	0.586326	0.407081	0.124522
	H53	H	0.582071	0.577274	0.894894
	H54	H	0.398939	0.568145	0.126120
	H55	H	0.412706	0.400466	0.896002
	H56	H	0.107519	0.579999	0.424780
	H57	H	0.882005	0.579356	0.598971
	H58	H	0.105836	0.401998	0.593064
	H59	H	0.881514	0.405349	0.418248
	H60	H	0.107828	0.401829	0.603611
	H61	H	0.880875	0.581798	0.599830
	H62	H	0.108323	0.580861	0.422601
	H63	H	0.878475	0.394172	0.420917
	H64	H	0.419935	0.570589	0.119172
	H65	H	0.582561	0.578147	0.894912
	H66	H	0.577079	0.393083	0.125368
	H67	H	0.407023	0.400251	0.893626
	H68	H	0.588597	0.102965	0.420952
	H69	H	0.582607	0.877705	0.599259
	H70	H	0.401824	0.101320	0.591777
	H71	H	0.396436	0.876841	0.427725
	H72	H	0.903173	0.605364	0.105006
	H73	H	0.086040	0.375464	0.103160
	H74	H	0.086655	0.600138	0.925564
	H75	H	0.910817	0.381452	0.928151
	H76	H	0.076260	0.900553	0.625473
	H77	H	0.082825	0.077748	0.395445
	H78	H	0.906603	0.081819	0.627932
	H79	H	0.912200	0.900272	0.396319
	H80	H	0.606659	0.081662	0.929908
	H81	H	0.381986	0.075078	0.099974
	H82	H	0.606472	0.895492	0.090225
	H83	H	0.380875	0.893740	0.929197
	H84	H	0.608017	0.904965	0.105096
	H85	H	0.377757	0.084970	0.104594
	H86	H	0.604611	0.072234	0.925167
	H87	H	0.384960	0.905514	0.930584
	H88	H	0.902374	0.081065	0.629758
	H89	H	0.079452	0.074126	0.397545
	H90	H	0.084971	0.903233	0.627926
	H91	H	0.902990	0.897719	0.392638
	H92	H	0.086792	0.601704	0.921569
	H93	H	0.082778	0.377798	0.097436
	H94	H	0.908229	0.600376	0.096270
	H95	H	0.893348	0.373064	0.924291
	H96	H	0.405919	0.102793	0.601152
	H97	H	0.583534	0.879131	0.596788
	H98	H	0.587799	0.103634	0.417514
	H99	H	0.401516	0.873437	0.414928
	H100	H	0.593083	0.393299	0.131607
	H101	H	0.582920	0.577574	0.894946
	H102	H	0.409583	0.587030	0.129397
	H103	H	0.409254	0.405335	0.896701
	H104	H	0.108659	0.582533	0.424923
	H105	H	0.881564	0.581976	0.597168
	H106	H	0.109661	0.393166	0.597363
	H107	H	0.883934	0.400569	0.429428
	H108	H	0.897046	0.602818	0.095395
	H109	H	0.089070	0.375756	0.097128
	H110	H	0.083161	0.599916	0.923206
	H111	H	0.906881	0.373853	0.910449
	H112	H	0.078796	0.908974	0.623553
	H113	H	0.077924	0.079712	0.396814
	H114	H	0.904552	0.077720	0.626443
	H115	H	0.904508	0.906912	0.396479
	H116	H	0.609586	0.079905	0.918949
	H117	H	0.381872	0.085459	0.093420
	H118	H	0.613331	0.888216	0.104636
	H119	H	0.380611	0.901870	0.919515
	C120	C	0.371925	-0.001391	0.631803
	C121	C	0.615475	0.982274	0.631699
	C122	C	0.617672	-0.001713	0.388073
	C123	C	0.371384	0.980847	0.388320
	C124	C	0.617418	0.366592	0.019844
	C125	C	0.614514	0.608324	1.002406
	C126	C	0.374552	0.609446	0.019226
	C127	C	0.376553	0.368875	1.001667
	C128	C	0.003461	0.612711	0.389988
	C129	C	0.986143	0.612215	0.632423
	C130	C	0.002839	0.367609	0.631307
	C131	C	0.986065	0.368101	0.389728
	C132	C	0.872830	0.498256	0.132095
	C133	C	0.118012	0.480184	0.132222
	C134	C	0.117363	0.496531	0.889350
	C135	C	0.872049	0.480801	0.888238
	C136	C	0.113718	0.870220	0.519856
	C137	C	0.114418	0.111199	0.502169
	C138	C	0.873162	0.111296	0.520455
	C139	C	0.873482	0.869445	0.501748
	C140	C	0.503447	0.112021	0.889479
	C141	C	0.486242	0.110826	0.131667
	C142	C	0.504164	0.865415	0.132947
	C143	C	0.486012	0.868206	0.891030
	C144	C	0.367726	0.881428	0.695621
	C145	C	0.616367	0.100986	0.692163
	C146	C	0.616087	0.877458	0.331696
	C147	C	0.372855	0.100523	0.329199
	C148	C	0.676488	0.365027	0.897771
	C149	C	0.673182	0.608465	0.124662
	C150	C	0.313837	0.612535	0.898027
	C151	C	0.316320	0.365692	0.123323
	C152	C	0.884076	0.672268	0.385571
	C153	C	0.104344	0.673216	0.637842
	C154	C	0.883848	0.307948	0.635573
	C155	C	0.103956	0.305997	0.384339
	C156	C	0.882610	0.368911	0.689953
	C157	C	0.106405	0.611743	0.691834
	C158	C	0.883699	0.612639	0.329596
	C159	C	0.106758	0.368406	0.331502
	C160	C	0.369255	0.671700	0.898829
	C161	C	0.616957	0.666878	0.124360
	C162	C	0.620818	0.306491	0.898516
	C163	C	0.374363	0.309826	0.123721
	C164	C	0.677942	0.879696	0.385559
	C165	C	0.676198	0.100077	0.635747
	C166	C	0.309231	0.881651	0.638014
	C167	C	0.310874	0.098935	0.383224
	C168	C	0.873496	0.379265	0.192064
	C169	C	0.119403	0.599314	0.192015
	C170	C	0.116989	0.377251	0.829594
	C171	C	0.872695	0.600715	0.829849
	C172	C	0.174908	0.865920	0.399004
	C173	C	0.178380	0.117129	0.621638
	C174	C	0.816054	0.111075	0.397290
	C175	C	0.813352	0.867209	0.623371
	C176	C	0.386806	0.176203	0.881969
	C177	C	0.605934	0.169036	0.135358
	C178	C	0.385557	0.804784	0.138017
	C179	C	0.604242	0.806550	0.885095
	C180	C	0.383564	0.866904	0.191254
	C181	C	0.607329	0.107779	0.189197
	C182	C	0.384947	0.116137	0.827004
	C183	C	0.605356	0.867382	0.830128
	C184	C	0.872004	0.169487	0.398017
	C185	C	0.119397	0.172722	0.622459
	C186	C	0.118361	0.808021	0.399811
	C187	C	0.868969	0.808494	0.622886
	C188	C	0.178781	0.378594	0.883844
	C189	C	0.180592	0.596901	0.137232
	C190	C	0.813951	0.379481	0.135312
	C191	C	0.811662	0.599173	0.884975
	C192	C	0.398803	0.079750	0.603611
	C193	C	0.590796	0.899772	0.605775
	C194	C	0.593996	0.081432	0.412247
	C195	C	0.395577	0.898122	0.414655
	C196	C	0.592695	0.390791	0.104785
	C197	C	0.589552	0.584511	0.917218
	C198	C	0.401484	0.582760	0.103152
	C199	C	0.402177	0.394514	0.917430
	C200	C	0.086471	0.588303	0.416615
	C201	C	0.903098	0.588026	0.606339
	C202	C	0.086087	0.391828	0.605326
	C203	C	0.903040	0.392741	0.415359
	C204	C	0.896203	0.581280	0.106296
	C205	C	0.093015	0.397819	0.106606
	C206	C	0.092760	0.579099	0.915704
	C207	C	0.896593	0.397755	0.913619
	C208	C	0.087554	0.896907	0.603700
	C209	C	0.087697	0.084735	0.418465
	C210	C	0.897418	0.087195	0.605756
	C211	C	0.899266	0.894598	0.417275
	C212	C	0.585444	0.085568	0.916893
	C213	C	0.402468	0.088380	0.106531
	C214	C	0.587455	0.889155	0.107337
	C215	C	0.403537	0.893122	0.918315
	Zn216	Zn	0.494010	-0.009819	0.761730
	Zn217	Zn	0.495057	-0.011304	0.259972
	Zn218	Zn	0.742961	0.488985	0.010287
	Zn219	Zn	0.247729	0.487685	0.010172
	Zn220	Zn	-0.006130	0.741844	0.511581
	Zn221	Zn	-0.006297	0.239043	0.510309
	Zn222	Zn	-0.004686	0.489187	0.759984
	Zn223	Zn	-0.003923	0.490105	0.261488
	Zn224	Zn	0.495081	0.737262	0.011226
	Zn225	Zn	0.495663	0.240365	0.010758
	Zn226	Zn	0.745999	-0.010187	0.510967
	Zn227	Zn	0.242157	-0.009569	0.510608
	N228	N	0.405807	0.955128	0.691997
	N229	N	0.579085	0.026675	0.689558
	N230	N	0.579228	0.952155	0.333009
	N231	N	0.409737	0.026061	0.332151
	N232	N	0.674655	0.401503	0.974365
	N233	N	0.671822	0.573141	0.047537
	N234	N	0.316864	0.574699	0.973976
	N235	N	0.317325	0.401400	0.046210
	N236	N	0.959540	0.672434	0.422242
	N237	N	0.028443	0.673829	0.601891
	N238	N	0.959845	0.306874	0.600192
	N239	N	0.027935	0.305784	0.419803
	N240	N	0.957743	0.405220	0.687512
	N241	N	0.031829	0.574453	0.688499
	N242	N	0.959211	0.576650	0.331680
	N243	N	0.032400	0.406187	0.334543
	N244	N	0.406296	0.669869	0.975369
	N245	N	0.581249	0.666893	0.047189
	N246	N	0.584840	0.307210	0.975511
	N247	N	0.411005	0.311604	0.047119
	N248	N	0.679127	0.955798	0.419791
	N249	N	0.675814	0.025235	0.598913
	N250	N	0.311594	0.955620	0.599145
	N251	N	0.309846	0.023553	0.419198
	N252	N	0.909427	0.454029	0.190138
	N253	N	0.081072	0.525615	0.188971
	N254	N	0.079649	0.451569	0.832707
	N255	N	0.909494	0.525986	0.831673
	N256	N	0.171903	0.904209	0.474760
	N257	N	0.175288	0.079194	0.545810
	N258	N	0.816443	0.075813	0.474567
	N259	N	0.816038	0.904262	0.547134
	N260	N	0.461541	0.173839	0.920239
	N261	N	0.529710	0.170947	0.100178
	N262	N	0.461536	0.803790	0.102605
	N263	N	0.528777	0.806591	0.921810
	N264	N	0.458324	0.903922	0.188164
	N265	N	0.531794	0.072606	0.187417
	N266	N	0.458413	0.076799	0.831701
	N267	N	0.530598	0.904777	0.833592
	N268	N	0.906773	0.169702	0.475663
	N269	N	0.080501	0.169232	0.547162
	N270	N	0.081263	0.810559	0.475982
	N271	N	0.905532	0.809693	0.546120
	N272	N	0.178968	0.453705	0.920450
	N273	N	0.179711	0.522004	0.100617
	N274	N	0.813145	0.454674	0.098873
	N275	N	0.811155	0.523507	0.920373
	O276	O	0.701794	0.527855	0.712986
	H277	H	0.715052	0.527650	0.727612
	H278	H	0.695390	0.536916	0.714179
	O279	O	0.487294	0.476990	0.518551
	H280	H	0.494170	0.479794	0.525116
	H281	H	0.501730	0.474167	0.525330
	O282	O	1.096809	1.126786	-0.027948
	H283	H	1.110414	1.156795	-0.019325
	H284	H	1.078222	1.126422	-0.036372
	O285	O	1.169620	0.778615	0.016143
	H286	H	1.187543	0.782379	0.017788
	H287	H	1.165550	0.764129	0.015175
	O288	O	0.387466	0.552180	0.621394
	H289	H	0.386262	0.572465	0.625355
	H290	H	0.394442	0.544836	0.607258
	O291	O	0.677902	0.638684	0.540074
	H292	H	0.686216	0.622376	0.529527
	H293	H	0.693110	0.635624	0.524808
	O294	O	0.785519	0.782498	1.027173
	H295	H	0.786472	0.778607	1.040391
	H296	H	0.768556	0.783055	1.028106
	O297	O	0.467304	0.604824	0.498979
	H298	H	0.454241	0.618011	0.495142
	H299	H	0.468495	0.612350	0.502129
	O300	O	0.598743	0.481702	0.408661
	H301	H	0.603627	0.484159	0.421068
	H302	H	0.598201	0.484426	0.400947
	O303	O	0.620094	0.387450	0.392243
	H304	H	0.621520	0.378527	0.395404
	H305	H	0.608987	0.373442	0.385859
	O306	O	0.502594	0.692163	0.336086
	H307	H	0.509628	0.691840	0.328513
	H308	H	0.487493	0.690622	0.322172
	O309	O	1.006029	0.191444	0.196510
	H310	H	0.986621	0.190159	0.184450
	H311	H	0.999987	0.207390	0.190401
	O312	O	0.481689	0.492270	0.382890
	H313	H	0.471197	0.503697	0.400045
	H314	H	0.474711	0.469528	0.380931
	O315	O	-0.131537	0.167598	0.822651
	H316	H	-0.097833	0.160441	0.810183
	H317	H	-0.126809	0.160200	0.832769
	O318	O	-0.185376	0.004011	0.047189
	H319	H	-0.166087	-0.007648	0.032604
	H320	H	-0.187812	0.023743	0.025476
	O321	O	0.352887	0.684031	0.481904
	H322	H	0.356661	0.682115	0.489506
	H323	H	0.354333	0.676329	0.476689
	O324	O	0.969993	-0.217299	1.220241
	H325	H	0.981726	-0.234530	1.224447
	H326	H	0.962743	-0.224222	1.223384
	O327	O	0.557058	0.406857	0.637519
	H328	H	0.557934	0.402411	0.617249
	H329	H	0.568337	0.419625	0.644641
	O330	O	0.189278	1.008091	1.218179
	H331	H	0.192502	1.003902	1.235471
	H332	H	0.193905	0.996207	1.218903
	O333	O	-0.650747	0.441115	-0.617180
	H334	H	-0.652230	0.429928	-0.620592
	H335	H	-0.650770	0.423136	-0.607231
	O336	O	1.028112	1.025608	-0.127694
	H337	H	1.043994	1.005250	-0.140421
	H338	H	1.031035	1.013308	-0.124509
	O339	O	0.200205	1.202485	1.029658
	H340	H	0.201461	1.196142	1.056364
	H341	H	0.220686	1.223850	1.047319
	O342	O	0.335087	0.560122	0.356544
	H343	H	0.324693	0.543390	0.358494
	H344	H	0.354939	0.564037	0.354436
	O345	O	-0.038443	-0.145512	0.825099
	H346	H	-0.006879	-0.141014	0.847686
	H347	H	-0.026895	-0.167319	0.803717
	O348	O	0.669144	0.391168	0.429192
	H349	H	0.662377	0.393160	0.422161
	H350	H	0.672293	0.391058	0.418972
	O351	O	1.095348	1.035166	-0.039231
	H352	H	1.093300	1.036462	-0.030482
	H353	H	1.078784	1.032049	-0.033174
	O354	O	1.172839	1.179841	1.191975
	H355	H	1.128675	1.179764	1.196001
	H356	H	1.173107	1.146914	1.197145
	O357	O	0.025889	-0.229994	-0.001367
	H358	H	0.008687	-0.227401	-0.009401
	H359	H	0.026807	-0.239016	-0.008316
	O360	O	0.497744	0.290667	0.655021
	H361	H	0.507271	0.273860	0.663382
	H362	H	0.505842	0.278313	0.643045
	O363	O	0.879782	-0.189958	-0.094644
	H364	H	0.871575	-0.192136	-0.098182
	H365	H	0.877434	-0.175357	-0.099961
	O366	O	-0.217169	0.195229	0.990099
	H367	H	-0.227431	0.191450	0.978445
	H368	H	-0.229612	0.209351	0.989253
	O369	O	0.903027	-0.049377	0.815846
	H370	H	0.904377	-0.053958	0.805298
	H371	H	0.912038	-0.049021	0.822591
	O372	O	0.515076	0.431018	0.683041
	H373	H	0.520443	0.437842	0.685574
	H374	H	0.510612	0.416349	0.680819
	O375	O	-0.027264	0.115154	0.807418
	H376	H	-0.010321	0.098371	0.793984
	H377	H	-0.028267	0.115141	0.786265
	O378	O	0.527460	0.302770	0.364323
	H379	H	0.509707	0.294361	0.377762
	H380	H	0.521300	0.290657	0.354695
	O381	O	0.064915	0.869666	0.131120
	H382	H	0.057900	0.858445	0.134401
	H383	H	0.055693	0.861173	0.128116
	O384	O	0.496793	0.430730	0.395214
	H385	H	0.486639	0.422250	0.403464
	H386	H	0.496581	0.455398	0.374239
	O387	O	0.785766	0.786715	0.230460
	H388	H	0.793035	0.822422	0.219344
	H389	H	0.792339	0.778823	0.215838
	O390	O	0.943228	1.021907	0.108410
	H391	H	0.950042	1.015946	0.125957
	H392	H	0.951462	1.046821	0.107804
	O393	O	0.978431	0.123911	1.074776
	H394	H	0.971670	0.129191	1.065103
	H395	H	0.983005	0.121750	1.058027
	O396	O	0.678581	0.678599	0.668810
	H397	H	0.679082	0.681694	0.640314
	H398	H	0.678984	0.669879	0.655983
	O399	O	-0.025148	0.943947	0.072767
	H400	H	-0.030148	0.939668	0.080420
	H401	H	-0.013780	0.922104	0.074182
	O402	O	1.322184	1.308286	-0.320524
	H403	H	1.330202	1.337702	-0.311368
	H404	H	1.350170	1.320607	-0.310933
	O405	O	0.312293	0.280908	0.522025
	H406	H	0.294670	0.263745	0.542418
	H407	H	0.318560	0.287820	0.554615
	O408	O	0.474455	0.485980	0.533872
	H409	H	0.485730	0.483356	0.538200
	H410	H	0.469153	0.506000	0.531989
	O411	O	0.943084	1.105421	1.173108
	H412	H	0.947851	1.102690	1.168833
	H413	H	0.931864	1.076327	1.165719
	O414	O	0.634800	0.457209	0.331603
	H415	H	0.630616	0.434802	0.326747
	H416	H	0.631077	0.450624	0.309427
	O417	O	0.197321	0.975338	1.028715
	H418	H	0.197840	0.989759	1.020328
	H419	H	0.179974	0.979840	1.047787
	O420	O	0.206720	0.924480	0.853521
	H421	H	0.227951	0.936140	0.846294
	H422	H	0.225182	0.930576	0.864547
	O423	O	0.171069	0.855406	-0.171153
	H424	H	0.182149	0.879649	-0.170118
	H425	H	0.177327	0.848145	-0.148920
	O426	O	0.660118	0.543425	0.500100
	H427	H	0.658480	0.531635	0.504587
	H428	H	0.661536	0.540524	0.493240
	O429	O	0.300688	0.492792	0.679561
	H430	H	0.302759	0.511334	0.681873
	H431	H	0.307542	0.508857	0.689767
	O432	O	0.303854	0.581127	0.394540
	H433	H	0.310102	0.586894	0.413285
	H434	H	0.309461	0.560535	0.403696
	O435	O	-0.197902	0.050401	-0.124872
	H436	H	-0.189557	0.069577	-0.121974
	H437	H	-0.178574	0.054049	-0.121158
	O438	O	-0.200167	0.992254	1.172003
	H439	H	-0.179212	0.997124	1.174372
	H440	H	-0.214729	0.988357	1.153415
	O441	O	0.450913	0.612589	0.679159
	H442	H	0.472526	0.612476	0.668001
	H443	H	0.465982	0.632832	0.691695
