data_Molecule from HDF5

_cell_length_a		15.872523
_cell_length_b		16.140483
_cell_length_c		16.526304
_cell_angle_alpha	89.689990
_cell_angle_beta	90.492392
_cell_angle_gamma	90.605775
_symmetry_space_group_name_H-M	'P 1'
_symmetry_Int_Tables_number		1

loop_
	_symmetry_equiv_pos_as_xyz
	x,y,z

loop_
	_atom_site_label
	_atom_site_type_symbol
	_atom_site_fract_x
	_atom_site_fract_y
	_atom_site_fract_z
	H0	H	0.399166	0.837729	0.717168
	H1	H	0.610994	0.163702	0.715585
	H2	H	0.608352	0.837299	0.282792
	H3	H	0.399492	0.161789	0.278489
	H4	H	0.717569	0.407386	0.836136
	H5	H	0.724083	0.595199	0.162491
	H6	H	0.293229	0.594304	0.837101
	H7	H	0.296536	0.402173	0.163096
	H8	H	0.835343	0.702492	0.403668
	H9	H	0.172300	0.711622	0.596907
	H10	H	0.837380	0.286696	0.595542
	H11	H	0.174090	0.290727	0.407751
	H12	H	0.841245	0.391821	0.717986
	H13	H	0.173105	0.601536	0.715676
	H14	H	0.841734	0.600021	0.281161
	H15	H	0.173266	0.398883	0.288131
	H16	H	0.407379	0.715768	0.837553
	H17	H	0.612813	0.718174	0.160727
	H18	H	0.603352	0.285925	0.836808
	H19	H	0.405444	0.278839	0.159450
	H20	H	0.708414	0.831362	0.410501
	H21	H	0.718680	0.165571	0.592964
	H22	H	0.295052	0.833026	0.592336
	H23	H	0.296431	0.166591	0.404248
	H24	H	0.903981	0.335903	0.217089
	H25	H	0.114688	0.663074	0.217897
	H26	H	0.113901	0.336506	0.782825
	H27	H	0.904039	0.660520	0.779468
	H28	H	0.214933	0.905316	0.336056
	H29	H	0.220899	0.094456	0.662198
	H30	H	0.792165	0.093657	0.335985
	H31	H	0.793127	0.901992	0.662824
	H32	H	0.337220	0.207848	0.901726
	H33	H	0.674227	0.209698	0.093529
	H34	H	0.339551	0.785589	0.094072
	H35	H	0.675745	0.794057	0.905175
	H36	H	0.339690	0.893847	0.213913
	H37	H	0.671248	0.104184	0.216861
	H38	H	0.339431	0.102002	0.781826
	H39	H	0.672349	0.901125	0.785070
	H40	H	0.902354	0.217786	0.339039
	H41	H	0.109378	0.215963	0.661486
	H42	H	0.099217	0.784786	0.337042
	H43	H	0.902070	0.778437	0.660525
	H44	H	0.212273	0.331078	0.911773
	H45	H	0.220449	0.666291	0.093668
	H46	H	0.795746	0.333469	0.094580
	H47	H	0.801383	0.666366	0.904405
	H48	H	0.416837	0.121482	0.602075
	H49	H	0.599742	0.881618	0.589932
	H50	H	0.606070	0.119539	0.410835
	H51	H	0.416065	0.881283	0.402508
	H52	H	0.601745	0.403567	0.114658
	H53	H	0.602558	0.593210	0.885825
	H54	H	0.416770	0.593403	0.114492
	H55	H	0.413858	0.401575	0.883892
	H56	H	0.127385	0.597054	0.409492
	H57	H	0.881418	0.589562	0.601980
	H58	H	0.127569	0.406177	0.595581
	H59	H	0.886231	0.406285	0.408509
	H60	H	0.124782	0.411383	0.592509
	H61	H	0.885860	0.591864	0.585864
	H62	H	0.125039	0.589175	0.411318
	H63	H	0.887273	0.412522	0.406154
	H64	H	0.418109	0.594216	0.115216
	H65	H	0.597890	0.601748	0.884546
	H66	H	0.600423	0.405592	0.112767
	H67	H	0.406257	0.400590	0.881881
	H68	H	0.595510	0.120616	0.393312
	H69	H	0.598661	0.878351	0.604797
	H70	H	0.422638	0.115884	0.588774
	H71	H	0.410506	0.882390	0.408165
	H72	H	0.920571	0.616909	0.093411
	H73	H	0.091797	0.385693	0.090492
	H74	H	0.097282	0.618973	0.898925
	H75	H	0.912505	0.380256	0.909847
	H76	H	0.102544	0.903291	0.615945
	H77	H	0.101452	0.097138	0.383790
	H78	H	0.910740	0.099451	0.617531
	H79	H	0.901714	0.897724	0.381094
	H80	H	0.629403	0.099518	0.901466
	H81	H	0.384913	0.090678	0.088200
	H82	H	0.624966	0.918967	0.095051
	H83	H	0.387780	0.912444	0.905352
	H84	H	0.629203	0.909649	0.101036
	H85	H	0.386765	0.083882	0.089511
	H86	H	0.624866	0.093583	0.912647
	H87	H	0.384465	0.906367	0.902439
	H88	H	0.908394	0.085412	0.614671
	H89	H	0.095718	0.090784	0.386696
	H90	H	0.096411	0.907369	0.612437
	H91	H	0.907067	0.906788	0.385011
	H92	H	0.091509	0.613208	0.909106
	H93	H	0.109530	0.378132	0.096394
	H94	H	0.918377	0.618168	0.092920
	H95	H	0.912823	0.379121	0.904363
	H96	H	0.407265	0.120427	0.590169
	H97	H	0.587047	0.883044	0.597537
	H98	H	0.586155	0.113196	0.410843
	H99	H	0.407986	0.879511	0.401131
	H100	H	0.599338	0.402884	0.114599
	H101	H	0.607059	0.601227	0.881491
	H102	H	0.416468	0.594865	0.115124
	H103	H	0.409498	0.406971	0.884293
	H104	H	0.127647	0.591979	0.404908
	H105	H	0.887992	0.576411	0.593346
	H106	H	0.126554	0.411569	0.598658
	H107	H	0.884438	0.407638	0.402031
	H108	H	0.919652	0.618453	0.095736
	H109	H	0.093860	0.379445	0.109862
	H110	H	0.104835	0.618105	0.909528
	H111	H	0.918075	0.381913	0.907324
	H112	H	0.094684	0.900127	0.614618
	H113	H	0.093713	0.098852	0.385077
	H114	H	0.922066	0.092407	0.611779
	H115	H	0.912324	0.896776	0.384212
	H116	H	0.625951	0.086779	0.901237
	H117	H	0.384220	0.088119	0.094182
	H118	H	0.625949	0.908299	0.090207
	H119	H	0.386222	0.905827	0.909541
	C120	C	0.385004	0.009394	0.620684
	C121	C	0.626997	0.990384	0.623320
	C122	C	0.624348	0.008411	0.378802
	C123	C	0.382904	0.990548	0.375962
	C124	C	0.628279	0.377754	0.007153
	C125	C	0.632637	0.625637	0.991076
	C126	C	0.386487	0.621846	0.007822
	C127	C	0.382723	0.375061	0.990709
	C128	C	0.015417	0.619463	0.379248
	C129	C	0.996169	0.617351	0.622004
	C130	C	0.015397	0.378139	0.623165
	C131	C	0.997042	0.379588	0.379176
	C132	C	0.887727	0.508717	0.121782
	C133	C	0.129662	0.490485	0.124763
	C134	C	0.126895	0.507381	0.879788
	C135	C	0.886413	0.489774	0.878385
	C136	C	0.125363	0.876493	0.507171
	C137	C	0.128131	0.123294	0.491721
	C138	C	0.883562	0.120970	0.507851
	C139	C	0.879907	0.873280	0.490862
	C140	C	0.515260	0.120884	0.877022
	C141	C	0.496210	0.118905	0.119947
	C142	C	0.515802	0.880089	0.121824
	C143	C	0.497409	0.880635	0.878533
	C144	C	0.382498	0.885948	0.677251
	C145	C	0.628624	0.114781	0.676814
	C146	C	0.624996	0.885150	0.322997
	C147	C	0.382102	0.113636	0.318581
	C148	C	0.680910	0.384565	0.884516
	C149	C	0.687468	0.618841	0.113665
	C150	C	0.330771	0.616944	0.885808
	C151	C	0.331577	0.379812	0.113687
	C152	C	0.887252	0.669355	0.381930
	C153	C	0.122396	0.674235	0.618631
	C154	C	0.888341	0.322835	0.617809
	C155	C	0.123931	0.326669	0.385370
	C156	C	0.890276	0.375261	0.678637
	C157	C	0.122570	0.619173	0.677428
	C158	C	0.890495	0.618480	0.320946
	C159	C	0.123188	0.380170	0.325687
	C160	C	0.387672	0.677054	0.885909
	C161	C	0.632055	0.679977	0.112541
	C162	C	0.624230	0.324093	0.884975
	C163	C	0.385587	0.318342	0.111906
	C164	C	0.675009	0.882209	0.386300
	C165	C	0.682656	0.115472	0.616474
	C166	C	0.330535	0.883655	0.615310
	C167	C	0.330777	0.116058	0.381007
	C168	C	0.885751	0.385027	0.178035
	C169	C	0.131693	0.614594	0.178725
	C170	C	0.129006	0.384507	0.823734
	C171	C	0.886329	0.612668	0.820097
	C172	C	0.178272	0.882511	0.384825
	C173	C	0.183805	0.117324	0.613598
	C174	C	0.828551	0.116410	0.385126
	C175	C	0.828075	0.878938	0.613760
	C176	C	0.387999	0.172823	0.880432
	C177	C	0.623224	0.173829	0.116118
	C178	C	0.389698	0.822906	0.116119
	C179	C	0.624805	0.829348	0.883505
	C180	C	0.389688	0.876834	0.175723
	C181	C	0.621642	0.121189	0.177144
	C182	C	0.389296	0.119942	0.820788
	C183	C	0.622898	0.882600	0.823678
	C184	C	0.883628	0.177954	0.386661
	C185	C	0.127880	0.177607	0.613273
	C186	C	0.120864	0.822440	0.385456
	C187	C	0.882946	0.817927	0.612797
	C188	C	0.178535	0.381772	0.887755
	C189	C	0.184536	0.615940	0.117170
	C190	C	0.832101	0.383603	0.116970
	C191	C	0.835084	0.615525	0.881891
	C192	C	0.408573	0.096599	0.599634
	C193	C	0.602467	0.903353	0.603321
	C194	C	0.602460	0.095203	0.398949
	C195	C	0.405135	0.903500	0.397366
	C196	C	0.606841	0.398050	0.091976
	C197	C	0.609476	0.604944	0.905996
	C198	C	0.410140	0.600425	0.092964
	C199	C	0.403649	0.396745	0.905375
	C200	C	0.103747	0.598893	0.401821
	C201	C	0.907885	0.593110	0.600122
	C202	C	0.103536	0.402610	0.602002
	C203	C	0.908865	0.402111	0.399622
	C204	C	0.912143	0.595318	0.100234
	C205	C	0.105489	0.403663	0.104961
	C206	C	0.104566	0.594378	0.899940
	C207	C	0.908158	0.402865	0.900560
	C208	C	0.104289	0.897337	0.592405
	C209	C	0.104131	0.101934	0.406920
	C210	C	0.906846	0.098873	0.592503
	C211	C	0.900835	0.894105	0.405553
	C212	C	0.603906	0.099705	0.898674
	C213	C	0.408240	0.094599	0.097361
	C214	C	0.603828	0.904967	0.101441
	C215	C	0.409004	0.901777	0.899604
	Zn216	Zn	0.505082	0.000787	0.750266
	Zn217	Zn	0.504963	-0.000531	0.249143
	Zn218	Zn	0.759616	0.500232	-0.000783
	Zn219	Zn	0.254930	0.498969	0.000499
	Zn220	Zn	0.002917	0.744002	0.500073
	Zn221	Zn	0.005589	0.253107	0.500439
	Zn222	Zn	0.006757	0.497555	0.750458
	Zn223	Zn	0.007981	0.500156	0.252155
	Zn224	Zn	0.508582	0.754182	-0.000598
	Zn225	Zn	0.505551	0.246182	-0.001809
	Zn226	Zn	0.752715	-0.001891	0.499506
	Zn227	Zn	0.257157	-0.000057	0.499114
	N228	N	0.415781	0.965041	0.680514
	N229	N	0.594982	0.035980	0.681397
	N230	N	0.594042	0.964567	0.318212
	N231	N	0.413704	0.034408	0.315249
	N232	N	0.683817	0.416878	0.961364
	N233	N	0.687933	0.585839	0.037156
	N234	N	0.330058	0.583352	0.962554
	N235	N	0.329672	0.414300	0.037475
	N236	N	0.965954	0.670192	0.417655
	N237	N	0.042873	0.673127	0.584762
	N238	N	0.967371	0.324389	0.584020
	N239	N	0.044455	0.326222	0.417851
	N240	N	0.970414	0.408685	0.682068
	N241	N	0.042870	0.584679	0.679457
	N242	N	0.971144	0.588092	0.319155
	N243	N	0.043285	0.412413	0.321855
	N244	N	0.421779	0.680212	0.962844
	N245	N	0.598824	0.684312	0.035378
	N246	N	0.592391	0.319574	0.962122
	N247	N	0.416644	0.315060	0.034344
	N248	N	0.674667	0.959704	0.420562
	N249	N	0.681549	0.037123	0.583818
	N250	N	0.332056	0.961390	0.580694
	N251	N	0.330730	0.038371	0.415795
	N252	N	0.919550	0.463779	0.181121
	N253	N	0.098522	0.535565	0.183711
	N254	N	0.097560	0.463622	0.818756
	N255	N	0.917541	0.533472	0.817779
	N256	N	0.180928	0.915600	0.461392
	N257	N	0.183876	0.084147	0.537116
	N258	N	0.828424	0.081579	0.461368
	N259	N	0.826173	0.912768	0.537189
	N260	N	0.467259	0.173645	0.914832
	N261	N	0.544264	0.172599	0.081166
	N262	N	0.469195	0.824759	0.083337
	N263	N	0.545742	0.828149	0.917056
	N264	N	0.469128	0.911531	0.179430
	N265	N	0.541497	0.087651	0.179550
	N266	N	0.469483	0.088294	0.818561
	N267	N	0.542546	0.913900	0.820568
	N268	N	0.917273	0.180898	0.463740
	N269	N	0.093999	0.181521	0.536338
	N270	N	0.088830	0.818451	0.462651
	N271	N	0.914233	0.814282	0.535465
	N272	N	0.177512	0.459389	0.921963
	N273	N	0.183678	0.537729	0.084418
	N274	N	0.833142	0.461540	0.082715
	N275	N	0.834938	0.538092	0.917630
	O276	O	0.971549	0.944807	0.085093
	H277	H	0.981895	0.944538	0.079798
	H278	H	0.976152	0.940215	0.093629
	O279	O	-0.030524	-0.033986	0.993976
	H280	H	-0.026842	-0.029417	0.989388
	H281	H	-0.026040	-0.033458	0.999650
	O282	O	0.048490	0.021344	-0.064059
	H283	H	0.039501	0.032703	-0.071596
	H284	H	0.052919	0.011156	-0.052148
	O285	O	0.513479	0.515244	0.463600
	H286	H	0.508623	0.520372	0.460978
	H287	H	0.514449	0.515762	0.461052
	O288	O	-0.031442	-0.056180	0.033185
	H289	H	-0.021971	-0.057841	0.040184
	H290	H	-0.031335	-0.060965	0.037337
	O291	O	-0.046437	1.073596	-0.058643
	H292	H	-0.044440	1.077574	-0.063774
	H293	H	-0.053031	1.068732	-0.046510
	O294	O	-0.047494	0.962722	0.060277
	H295	H	-0.042159	0.968037	0.067906
	H296	H	-0.048168	0.965774	0.060926
	O297	O	0.535473	0.479447	0.470624
	H298	H	0.541864	0.475214	0.467011
	H299	H	0.538819	0.471022	0.466816
	O300	O	0.510545	0.529706	0.442064
	H301	H	0.505169	0.516603	0.441773
	H302	H	0.508688	0.532533	0.431178
	O303	O	0.988697	-0.067846	1.046660
	H304	H	0.980393	-0.064263	1.064443
	H305	H	0.984094	-0.056612	1.046134
	O306	O	-0.062064	1.053416	0.985766
	H307	H	-0.053337	1.048829	0.982559
	H308	H	-0.071812	1.058718	0.986411
	O309	O	-0.064401	1.130048	0.894125
	H310	H	-0.079232	1.130502	0.894353
	H311	H	-0.064648	1.116071	0.897630
	O312	O	0.022925	0.095081	1.052657
	H313	H	0.027803	0.104798	1.054833
	H314	H	0.037331	0.098879	1.047164
	O315	O	0.075094	-0.078994	-0.038313
	H316	H	0.072485	-0.083491	-0.049133
	H317	H	0.077421	-0.083750	-0.042303
	O318	O	0.025388	0.095237	1.045573
	H319	H	0.020091	0.099750	1.034757
	H320	H	0.014683	0.098276	1.044218
	O321	O	0.543376	0.496765	0.452369
	H322	H	0.539485	0.509308	0.445869
	H323	H	0.540628	0.493510	0.449458
	O324	O	1.005238	0.003507	0.879703
	H325	H	0.999209	0.008290	0.876062
	H326	H	1.002908	0.005878	0.874558
	O327	O	1.063074	1.012721	1.027184
	H328	H	1.069528	1.011847	1.025835
	H329	H	1.052138	1.015861	1.028557
	O330	O	0.505537	0.517409	0.417070
	H331	H	0.496573	0.523206	0.419052
	H332	H	0.503843	0.518890	0.414939
	O333	O	1.068781	0.078187	0.005541
	H334	H	1.074631	0.075484	-0.007868
	H335	H	1.074443	0.076035	-0.000320
	O336	O	0.488662	0.468056	0.441193
	H337	H	0.493743	0.470204	0.442270
	H338	H	0.481360	0.473648	0.447704
	O339	O	0.522254	0.552305	0.487428
	H340	H	0.525377	0.554695	0.489734
	H341	H	0.525722	0.548772	0.484791
	O342	O	0.004321	0.956620	1.028481
	H343	H	0.009994	0.947069	1.023445
	H344	H	-0.004106	0.954694	1.035534
	O345	O	0.499136	0.512404	0.465569
	H346	H	0.504321	0.509733	0.466735
	H347	H	0.498217	0.510105	0.465215
