data_Molecule from HDF5

_cell_length_a		16.343802
_cell_length_b		16.269458
_cell_length_c		16.378521
_cell_angle_alpha	89.825624
_cell_angle_beta	89.783008
_cell_angle_gamma	90.020037
_symmetry_space_group_name_H-M	'P 1'
_symmetry_Int_Tables_number		1

loop_
	_symmetry_equiv_pos_as_xyz
	x,y,z

loop_
	_atom_site_label
	_atom_site_type_symbol
	_atom_site_fract_x
	_atom_site_fract_y
	_atom_site_fract_z
	H0	H	0.387188	0.839299	0.718109
	H1	H	0.593310	0.161886	0.716807
	H2	H	0.594405	0.840045	0.281216
	H3	H	0.388927	0.162941	0.282013
	H4	H	0.709295	0.399835	0.840374
	H5	H	0.707978	0.606183	0.160444
	H6	H	0.269865	0.608119	0.840784
	H7	H	0.268765	0.396606	0.159000
	H8	H	0.827579	0.721041	0.396285
	H9	H	0.149620	0.720328	0.600707
	H10	H	0.827601	0.283845	0.601709
	H11	H	0.150261	0.285532	0.397328
	H12	H	0.828481	0.395877	0.722154
	H13	H	0.148808	0.606610	0.720181
	H14	H	0.828767	0.607785	0.278885
	H15	H	0.148152	0.398593	0.278919
	H16	H	0.387918	0.721317	0.840319
	H17	H	0.592877	0.721044	0.160602
	H18	H	0.594332	0.283194	0.839036
	H19	H	0.387054	0.282048	0.159822
	H20	H	0.709349	0.840402	0.396821
	H21	H	0.705822	0.162937	0.600385
	H22	H	0.270861	0.839339	0.603623
	H23	H	0.272447	0.163257	0.398071
	H24	H	0.886013	0.339955	0.218046
	H25	H	0.093964	0.661909	0.219472
	H26	H	0.095173	0.341284	0.779946
	H27	H	0.884260	0.661385	0.779976
	H28	H	0.209356	0.897711	0.340115
	H29	H	0.207774	0.104673	0.660199
	H30	H	0.769498	0.106883	0.339923
	H31	H	0.770209	0.898608	0.660378
	H32	H	0.328595	0.220954	0.895406
	H33	H	0.650493	0.219711	0.099928
	H34	H	0.329768	0.781419	0.105397
	H35	H	0.650641	0.783297	0.897633
	H36	H	0.331267	0.895462	0.221940
	H37	H	0.649487	0.108339	0.219815
	H38	H	0.329347	0.106274	0.778197
	H39	H	0.649643	0.897244	0.779378
	H40	H	0.887231	0.220686	0.338642
	H41	H	0.091912	0.221395	0.659674
	H42	H	0.090371	0.784611	0.338402
	H43	H	0.883164	0.780106	0.658968
	H44	H	0.210608	0.341575	0.894666
	H45	H	0.210024	0.661455	0.105199
	H46	H	0.769791	0.340450	0.104372
	H47	H	0.770075	0.662774	0.897676
	H48	H	0.403460	0.117116	0.598773
	H49	H	0.584312	0.881321	0.597503
	H50	H	0.580820	0.118384	0.403286
	H51	H	0.392686	0.886529	0.420424
	H52	H	0.584327	0.410521	0.116385
	H53	H	0.574340	0.591978	0.888203
	H54	H	0.399925	0.585752	0.112835
	H55	H	0.394757	0.409281	0.883049
	H56	H	0.104995	0.594476	0.405321
	H57	H	0.875118	0.591078	0.588968
	H58	H	0.102421	0.416058	0.592757
	H59	H	0.875431	0.414026	0.411110
	H60	H	0.105022	0.409214	0.593483
	H61	H	0.876254	0.588406	0.589422
	H62	H	0.101817	0.593002	0.412831
	H63	H	0.872254	0.411975	0.405736
	H64	H	0.402896	0.593196	0.113983
	H65	H	0.582468	0.596871	0.883710
	H66	H	0.576212	0.415210	0.112491
	H67	H	0.399195	0.418496	0.887366
	H68	H	0.573178	0.113899	0.410660
	H69	H	0.568977	0.888303	0.590250
	H70	H	0.403227	0.111886	0.582265
	H71	H	0.395558	0.881651	0.399317
	H72	H	0.902294	0.614546	0.084683
	H73	H	0.080026	0.386455	0.089769
	H74	H	0.074787	0.617264	0.902849
	H75	H	0.894510	0.383816	0.908048
	H76	H	0.078633	0.910970	0.614222
	H77	H	0.084214	0.088870	0.384989
	H78	H	0.896406	0.097659	0.615890
	H79	H	0.904734	0.912951	0.387072
	H80	H	0.605012	0.095603	0.907424
	H81	H	0.377069	0.086105	0.089687
	H82	H	0.605176	0.913148	0.091391
	H83	H	0.374205	0.913399	0.905586
	H84	H	0.604952	0.909767	0.088913
	H85	H	0.374616	0.090753	0.093926
	H86	H	0.601396	0.090017	0.911325
	H87	H	0.373823	0.907612	0.910322
	H88	H	0.893212	0.088411	0.614161
	H89	H	0.076671	0.091979	0.387720
	H90	H	0.078426	0.910781	0.614699
	H91	H	0.897292	0.908131	0.383598
	H92	H	0.073535	0.612371	0.917367
	H93	H	0.077126	0.386968	0.090095
	H94	H	0.891469	0.618785	0.088625
	H95	H	0.905584	0.387823	0.910623
	H96	H	0.389571	0.119743	0.588878
	H97	H	0.584207	0.887243	0.579687
	H98	H	0.584038	0.115764	0.414077
	H99	H	0.412121	0.890182	0.411118
	H100	H	0.576342	0.404693	0.114617
	H101	H	0.583026	0.585960	0.886390
	H102	H	0.394717	0.591308	0.115782
	H103	H	0.405817	0.409450	0.885577
	H104	H	0.101691	0.587265	0.406915
	H105	H	0.875008	0.589595	0.591288
	H106	H	0.102146	0.411165	0.586426
	H107	H	0.872753	0.408841	0.410296
	H108	H	0.900527	0.618422	0.096373
	H109	H	0.078339	0.386987	0.087613
	H110	H	0.086515	0.618749	0.912010
	H111	H	0.897034	0.387701	0.918325
	H112	H	0.079386	0.911052	0.613183
	H113	H	0.082095	0.096545	0.382890
	H114	H	0.902593	0.090603	0.612286
	H115	H	0.896564	0.916435	0.385532
	H116	H	0.603673	0.088369	0.904218
	H117	H	0.375477	0.092358	0.087170
	H118	H	0.603794	0.913382	0.087168
	H119	H	0.376712	0.913863	0.912112
	C120	C	0.367635	0.009903	0.621529
	C121	C	0.609887	0.992313	0.619774
	C122	C	0.611425	0.009733	0.378057
	C123	C	0.369390	0.992589	0.379113
	C124	C	0.610970	0.379623	0.008534
	C125	C	0.611104	0.623301	0.991778
	C126	C	0.368220	0.623131	0.008706
	C127	C	0.367931	0.379887	0.990773
	C128	C	-0.003049	0.623342	0.377294
	C129	C	0.980987	0.622122	0.621014
	C130	C	-0.002670	0.379812	0.622422
	C131	C	0.979725	0.380790	0.377975
	C132	C	0.867136	0.510410	0.121429
	C133	C	0.109961	0.493154	0.120562
	C134	C	0.110725	0.510348	0.878516
	C135	C	0.867797	0.492908	0.880323
	C136	C	0.110331	0.879872	0.508135
	C137	C	0.111273	0.123428	0.491377
	C138	C	0.866940	0.123878	0.508243
	C139	C	0.867519	0.880383	0.491243
	C140	C	0.497580	0.123100	0.876611
	C141	C	0.481676	0.121959	0.120322
	C142	C	0.498969	0.879567	0.121775
	C143	C	0.481229	0.880375	0.878417
	C144	C	0.367570	0.887861	0.679478
	C145	C	0.611408	0.113589	0.677804
	C146	C	0.613073	0.888684	0.319800
	C147	C	0.369135	0.114527	0.320892
	C148	C	0.669986	0.380218	0.888210
	C149	C	0.668835	0.624535	0.112439
	C150	C	0.309747	0.625556	0.888497
	C151	C	0.308478	0.378049	0.111238
	C152	C	0.875988	0.682044	0.376956
	C153	C	0.101431	0.681359	0.620841
	C154	C	0.876047	0.321994	0.622149
	C155	C	0.101344	0.323449	0.377809
	C156	C	0.876445	0.377935	0.681792
	C157	C	0.100954	0.624685	0.680404
	C158	C	0.876544	0.625353	0.318565
	C159	C	0.100632	0.379953	0.318959
	C160	C	0.368113	0.682573	0.888359
	C161	C	0.611465	0.681865	0.112539
	C162	C	0.612753	0.321974	0.887571
	C163	C	0.367516	0.321262	0.111601
	C164	C	0.670442	0.888701	0.377442
	C165	C	0.667573	0.114256	0.619829
	C166	C	0.309671	0.888039	0.622446
	C167	C	0.311469	0.114786	0.378940
	C168	C	0.866974	0.388596	0.179409
	C169	C	0.111973	0.613771	0.180004
	C170	C	0.113420	0.389661	0.819060
	C171	C	0.865941	0.613526	0.819995
	C172	C	0.169635	0.879117	0.387930
	C173	C	0.169020	0.123958	0.612029
	C174	C	0.808695	0.125623	0.387809
	C175	C	0.809026	0.879544	0.612150
	C176	C	0.376797	0.181840	0.876268
	C177	C	0.602251	0.180855	0.119650
	C178	C	0.378450	0.820202	0.124009
	C179	C	0.602131	0.821844	0.877898
	C180	C	0.378800	0.877461	0.181887
	C181	C	0.601797	0.125310	0.179487
	C182	C	0.377167	0.124356	0.818070
	C183	C	0.601761	0.878582	0.819246
	C184	C	0.867259	0.182513	0.387282
	C185	C	0.111037	0.181802	0.611834
	C186	C	0.110724	0.822527	0.387127
	C187	C	0.865491	0.820698	0.611490
	C188	C	0.171002	0.389673	0.876289
	C189	C	0.170191	0.613513	0.123146
	C190	C	0.808812	0.388940	0.122986
	C191	C	0.809055	0.614199	0.878658
	C192	C	0.391758	0.094265	0.597055
	C193	C	0.586029	0.907570	0.596060
	C194	C	0.586604	0.094187	0.402538
	C195	C	0.393127	0.908124	0.403317
	C196	C	0.586188	0.403332	0.092544
	C197	C	0.586854	0.598900	0.907818
	C198	C	0.392216	0.597720	0.092374
	C199	C	0.392737	0.405099	0.907108
	C200	C	0.080945	0.598813	0.401368
	C201	C	0.897165	0.597034	0.596929
	C202	C	0.081339	0.404813	0.598078
	C203	C	0.895410	0.404722	0.402148
	C204	C	0.891154	0.595255	0.097014
	C205	C	0.085381	0.408828	0.096058
	C206	C	0.085370	0.594197	0.903489
	C207	C	0.892299	0.408513	0.905204
	C208	C	0.085633	0.903926	0.592252
	C209	C	0.087957	0.099341	0.407214
	C210	C	0.890624	0.099379	0.592263
	C211	C	0.892246	0.905248	0.407216
	C212	C	0.581589	0.098518	0.900699
	C213	C	0.397485	0.096893	0.096783
	C214	C	0.582721	0.904712	0.096340
	C215	C	0.396946	0.904698	0.902327
	Zn216	Zn	0.489912	0.000949	0.748583
	Zn217	Zn	0.490647	0.001323	0.249590
	Zn218	Zn	0.738857	0.501935	0.001368
	Zn219	Zn	0.239080	0.501932	-0.000298
	Zn220	Zn	-0.011543	0.751590	0.498913
	Zn221	Zn	-0.011197	0.252103	0.499392
	Zn222	Zn	-0.011010	0.500884	0.751240
	Zn223	Zn	-0.011657	0.501710	0.249174
	Zn224	Zn	0.490157	0.751627	0.000661
	Zn225	Zn	0.489185	0.251147	-0.000747
	Zn226	Zn	0.738801	0.001768	0.499857
	Zn227	Zn	0.239802	0.000917	0.499936
	N228	N	0.402622	0.964659	0.679463
	N229	N	0.576336	0.036860	0.677879
	N230	N	0.577205	0.965047	0.320174
	N231	N	0.404362	0.037820	0.320927
	N232	N	0.668712	0.415539	0.964309
	N233	N	0.668799	0.589043	0.036384
	N234	N	0.309421	0.589560	0.964430
	N235	N	0.308636	0.413824	0.035043
	N236	N	0.951820	0.681019	0.412825
	N237	N	0.025747	0.679835	0.584743
	N238	N	0.952146	0.322945	0.586248
	N239	N	0.025263	0.323925	0.413815
	N240	N	0.953003	0.413098	0.682226
	N241	N	0.024877	0.588613	0.680668
	N242	N	0.952858	0.589808	0.318405
	N243	N	0.023922	0.414486	0.318751
	N244	N	0.403544	0.681247	0.964276
	N245	N	0.576329	0.681348	0.036452
	N246	N	0.576528	0.321513	0.963511
	N247	N	0.403205	0.322087	0.035588
	N248	N	0.669692	0.965228	0.412792
	N249	N	0.666922	0.037776	0.584321
	N250	N	0.309541	0.964765	0.587219
	N251	N	0.311118	0.037868	0.414067
	N252	N	0.902423	0.465290	0.178724
	N253	N	0.075247	0.537857	0.178529
	N254	N	0.076702	0.465612	0.820349
	N255	N	0.901318	0.536891	0.820689
	N256	N	0.169600	0.913748	0.464352
	N257	N	0.169227	0.088424	0.536099
	N258	N	0.808350	0.089969	0.463990
	N259	N	0.810201	0.915970	0.536316
	N260	N	0.452636	0.181094	0.911964
	N261	N	0.526405	0.178782	0.083642
	N262	N	0.453995	0.821653	0.087173
	N263	N	0.526104	0.822868	0.914210
	N264	N	0.454891	0.913652	0.180685
	N265	N	0.525898	0.089089	0.179809
	N266	N	0.453336	0.088478	0.818154
	N267	N	0.525557	0.914113	0.819460
	N268	N	0.902781	0.181486	0.463173
	N269	N	0.075991	0.181805	0.535844
	N270	N	0.074449	0.823005	0.462891
	N271	N	0.901007	0.821091	0.535320
	N272	N	0.169542	0.465723	0.912601
	N273	N	0.168851	0.537575	0.086701
	N274	N	0.808876	0.465668	0.087790
	N275	N	0.810038	0.538131	0.915217
	O276	O	0.630255	0.527470	0.522631
	H277	H	0.623570	0.521599	0.531826
	H278	H	0.636570	0.519935	0.520112
	O279	O	1.079019	0.794700	-0.172092
	H280	H	1.093009	0.808742	-0.171647
	H281	H	1.090442	0.764583	-0.185821
	O282	O	0.241053	0.342158	0.660764
	H283	H	0.235214	0.342594	0.657245
	H284	H	0.229949	0.349141	0.649975
	O285	O	1.078978	0.047265	0.156840
	H286	H	1.091521	0.061478	0.157122
	H287	H	1.086868	0.048307	0.158322
	O288	O	-0.108068	-0.075384	1.147572
	H289	H	-0.090567	-0.070538	1.139547
	H290	H	-0.101987	-0.093263	1.154568
	O291	O	0.526755	0.532923	0.502627
	H292	H	0.529270	0.526522	0.492375
	H293	H	0.537802	0.531286	0.497504
	O294	O	0.498656	0.444992	0.495490
	H295	H	0.494958	0.447492	0.485567
	H296	H	0.487072	0.443190	0.501475
	O297	O	1.000758	1.029433	0.785507
	H298	H	0.986142	1.006117	0.782753
	H299	H	1.015016	1.038382	0.777026
	O300	O	-0.159310	-0.104432	-0.061073
	H301	H	-0.150199	-0.104135	-0.061871
	H302	H	-0.163715	-0.111926	-0.052874
	O303	O	0.551229	0.638342	0.658637
	H304	H	0.553145	0.648304	0.662198
	H305	H	0.542859	0.629890	0.653081
	O306	O	0.943829	-0.010360	-0.116871
	H307	H	0.948058	-0.016288	-0.121847
	H308	H	0.956662	-0.014669	-0.111024
	O309	O	0.602664	0.488650	0.549072
	H310	H	0.574320	0.485022	0.546869
	H311	H	0.604697	0.488285	0.566824
	O312	O	0.863589	1.094706	0.037740
	H313	H	0.862248	1.084568	0.036390
	H314	H	0.875280	1.086068	0.032023
	O315	O	0.358071	0.504065	0.687248
	H316	H	0.356748	0.517373	0.702279
	H317	H	0.369668	0.509226	0.684812
	O318	O	0.600599	0.676813	0.537411
	H319	H	0.624738	0.681338	0.543136
	H320	H	0.612404	0.670651	0.542997
	O321	O	1.012437	-0.011524	1.113084
	H322	H	1.027696	0.006669	1.110382
	H323	H	1.030359	-0.019899	1.114844
	O324	O	0.154783	0.172927	1.062020
	H325	H	0.132306	0.180673	1.070566
	H326	H	0.160825	0.185690	1.050135
	O327	O	0.427296	0.588306	0.489052
	H328	H	0.430339	0.584053	0.475175
	H329	H	0.436548	0.579806	0.506874
	O330	O	0.348334	0.552821	0.511499
	H331	H	0.354592	0.563721	0.501380
	H332	H	0.347936	0.565326	0.497274
	O333	O	1.014144	1.190166	0.973871
	H334	H	1.016208	1.190749	0.957208
	H335	H	1.003697	1.191454	0.969557
	O336	O	0.500134	0.577946	0.340959
	H337	H	0.514231	0.576123	0.331672
	H338	H	0.509521	0.568543	0.351588
	O339	O	1.053341	0.203059	1.182009
	H340	H	1.041812	0.215531	1.196282
	H341	H	1.044042	0.198951	1.169590
	O342	O	0.089448	0.992663	0.916681
	H343	H	0.089217	0.997717	0.916859
	H344	H	0.076545	1.005700	0.917775
	O345	O	0.450986	0.521534	0.408156
	H346	H	0.439270	0.517419	0.399311
	H347	H	0.462577	0.522133	0.419219
	O348	O	0.438547	0.448138	0.453774
	H349	H	0.438789	0.448495	0.457339
	H350	H	0.429492	0.472432	0.462155
	O351	O	0.125612	-0.090436	-0.120036
	H352	H	0.119524	-0.058789	-0.124623
	H353	H	0.123040	-0.087276	-0.089491
	O354	O	0.852478	0.801372	-0.023239
	H355	H	0.859402	0.784207	-0.020473
	H356	H	0.860029	0.806848	-0.022060
	O357	O	-0.169986	1.168289	-0.169296
	H358	H	-0.184953	1.168707	-0.162583
	H359	H	-0.172073	1.145839	-0.153888
	O360	O	0.355189	0.427297	0.551303
	H361	H	0.354154	0.444888	0.555158
	H362	H	0.366928	0.427574	0.555713
	O363	O	0.336688	0.420639	0.627933
	H364	H	0.350682	0.422888	0.646279
	H365	H	0.330864	0.421871	0.629814
	O366	O	0.404906	0.477930	0.402951
	H367	H	0.409130	0.484095	0.424440
	H368	H	0.404625	0.470350	0.406113
	O369	O	0.527725	0.307638	0.498681
	H370	H	0.509060	0.308069	0.509642
	H371	H	0.530523	0.310458	0.503603
	O372	O	0.535422	0.512786	0.540298
	H373	H	0.529974	0.514167	0.532243
	H374	H	0.532134	0.507818	0.527178
	O375	O	0.406524	0.587806	0.319346
	H376	H	0.415773	0.601553	0.317050
	H377	H	0.418283	0.583464	0.301625
	O378	O	0.501607	0.368703	0.709055
	H379	H	0.484720	0.376042	0.711173
	H380	H	0.491761	0.358695	0.713627
	O381	O	0.520263	0.446767	0.686395
	H382	H	0.514198	0.450570	0.666825
	H383	H	0.526875	0.454075	0.702440
	O384	O	-0.166755	0.963057	0.846267
	H385	H	-0.165582	0.966199	0.848166
	H386	H	-0.158341	0.943188	0.849955
	O387	O	1.192926	0.951288	-0.100756
	H388	H	1.191983	0.970211	-0.092728
	H389	H	1.207418	0.953410	-0.111792
	O390	O	0.681874	0.468185	0.355266
	H391	H	0.683045	0.454238	0.352522
	H392	H	0.687967	0.445436	0.348830
	O393	O	1.145634	-0.101128	1.164341
	H394	H	1.161720	-0.094219	1.170853
	H395	H	1.141562	-0.096432	1.168421
	O396	O	0.146841	1.037960	0.919976
	H397	H	0.155878	1.048565	0.910167
	H398	H	0.137730	1.055448	0.904045
	O399	O	0.494888	0.655819	0.409361
	H400	H	0.490284	0.655022	0.444563
	H401	H	0.525077	0.663819	0.405567
	O402	O	0.869583	0.004965	1.188216
	H403	H	0.877785	0.015695	1.195754
	H404	H	0.864543	-0.006892	1.203214
	O405	O	0.043350	-0.168102	0.109808
	H406	H	0.048626	-0.172422	0.106003
	H407	H	0.051702	-0.157547	0.114597
	O408	O	0.810148	1.167003	0.996301
	H409	H	0.799521	1.146946	1.010969
	H410	H	0.807100	1.161725	0.985713
	O411	O	0.915276	0.812646	0.082095
	H412	H	0.951008	0.802885	0.071853
	H413	H	0.915772	0.806198	0.068441
	O414	O	-0.012974	0.184939	0.793524
	H415	H	-0.033033	0.185201	0.786208
	H416	H	-0.035294	0.193310	0.779432
	O417	O	1.113465	-0.171045	1.009939
	H418	H	1.115862	-0.184134	1.011758
	H419	H	1.120805	-0.149209	1.020815
	O420	O	0.189002	1.095150	0.156765
	H421	H	0.173372	1.117963	0.160894
	H422	H	0.197184	1.111436	0.173825
	O423	O	1.445149	0.454022	-0.571109
	H424	H	1.448723	0.458385	-0.567318
	H425	H	1.445310	0.462055	-0.581907
	O426	O	-0.163449	-0.111505	1.202703
	H427	H	-0.166161	-0.127629	1.197936
	H428	H	-0.172875	-0.124668	1.214111
	O429	O	0.676077	0.318752	0.352071
	H430	H	0.663963	0.317086	0.354095
	H431	H	0.668433	0.303338	0.357198
