data_Molecule from HDF5

_cell_length_a		16.200823
_cell_length_b		16.189658
_cell_length_c		16.570589
_cell_angle_alpha	89.962296
_cell_angle_beta	89.693607
_cell_angle_gamma	89.936925
_symmetry_space_group_name_H-M	'P 1'
_symmetry_Int_Tables_number		1

loop_
	_symmetry_equiv_pos_as_xyz
	x,y,z

loop_
	_atom_site_label
	_atom_site_type_symbol
	_atom_site_fract_x
	_atom_site_fract_y
	_atom_site_fract_z
	H0	H	0.382202	0.848159	0.711980
	H1	H	0.596899	0.168442	0.710114
	H2	H	0.600700	0.849659	0.264691
	H3	H	0.384754	0.167644	0.269658
	H4	H	0.710252	0.405914	0.831644
	H5	H	0.708176	0.613663	0.149562
	H6	H	0.267727	0.614762	0.830856
	H7	H	0.265713	0.404640	0.146844
	H8	H	0.825774	0.724128	0.389397
	H9	H	0.151344	0.722265	0.586782
	H10	H	0.824245	0.292683	0.589081
	H11	H	0.150087	0.291353	0.387414
	H12	H	0.826516	0.401887	0.709989
	H13	H	0.146315	0.615878	0.710119
	H14	H	0.828040	0.615014	0.269447
	H15	H	0.147209	0.398074	0.265736
	H16	H	0.385730	0.730575	0.832239
	H17	H	0.590845	0.728559	0.149730
	H18	H	0.592528	0.290074	0.830272
	H19	H	0.384559	0.289007	0.148322
	H20	H	0.705557	0.844547	0.389098
	H21	H	0.704035	0.171054	0.586955
	H22	H	0.269892	0.847007	0.593648
	H23	H	0.274375	0.170611	0.390200
	H24	H	0.879959	0.347632	0.212622
	H25	H	0.098639	0.666151	0.213833
	H26	H	0.094255	0.347677	0.766572
	H27	H	0.876765	0.667623	0.766492
	H28	H	0.213605	0.903080	0.331610
	H29	H	0.209367	0.113898	0.646834
	H30	H	0.767564	0.113524	0.330589
	H31	H	0.768659	0.903610	0.646815
	H32	H	0.326609	0.225546	0.888672
	H33	H	0.650366	0.228508	0.089842
	H34	H	0.326880	0.791636	0.095206
	H35	H	0.650903	0.791735	0.890459
	H36	H	0.329905	0.901128	0.214000
	H37	H	0.648302	0.120501	0.212347
	H38	H	0.330412	0.118514	0.766379
	H39	H	0.648281	0.898711	0.767295
	H40	H	0.883677	0.230677	0.329874
	H41	H	0.091005	0.229266	0.646889
	H42	H	0.097356	0.785444	0.331478
	H43	H	0.885196	0.788521	0.646738
	H44	H	0.206449	0.346524	0.885908
	H45	H	0.205063	0.670554	0.090519
	H46	H	0.769031	0.346131	0.092851
	H47	H	0.772632	0.672177	0.891834
	H48	H	0.401250	0.123592	0.577998
	H49	H	0.586152	0.890647	0.576313
	H50	H	0.569146	0.121670	0.397446
	H51	H	0.398880	0.890691	0.401805
	H52	H	0.572065	0.418329	0.100476
	H53	H	0.578655	0.604211	0.876152
	H54	H	0.405291	0.592000	0.097168
	H55	H	0.396293	0.417799	0.874861
	H56	H	0.102038	0.590811	0.400194
	H57	H	0.872856	0.591681	0.578754
	H58	H	0.105367	0.415820	0.580444
	H59	H	0.872767	0.428846	0.393496
	H60	H	0.100382	0.421259	0.574543
	H61	H	0.869424	0.598548	0.584390
	H62	H	0.105275	0.595070	0.393319
	H63	H	0.868717	0.412741	0.396716
	H64	H	0.398100	0.610700	0.105933
	H65	H	0.583835	0.597191	0.878087
	H66	H	0.579612	0.412053	0.105272
	H67	H	0.397543	0.420302	0.876639
	H68	H	0.581364	0.122096	0.406520
	H69	H	0.576331	0.889131	0.590178
	H70	H	0.398853	0.124995	0.581799
	H71	H	0.405338	0.891990	0.395581
	H72	H	0.911929	0.619306	0.079513
	H73	H	0.078805	0.390946	0.077878
	H74	H	0.073883	0.624782	0.893592
	H75	H	0.904804	0.394576	0.900244
	H76	H	0.073726	0.913766	0.600409
	H77	H	0.085997	0.099344	0.374080
	H78	H	0.895222	0.106432	0.603643
	H79	H	0.898976	0.923725	0.376789
	H80	H	0.604206	0.089755	0.893593
	H81	H	0.374947	0.096655	0.079141
	H82	H	0.605553	0.921627	0.082021
	H83	H	0.373054	0.925302	0.894013
	H84	H	0.604685	0.918118	0.078860
	H85	H	0.375144	0.093788	0.080766
	H86	H	0.608190	0.104434	0.893959
	H87	H	0.370680	0.915681	0.900448
	H88	H	0.892462	0.092539	0.600533
	H89	H	0.078424	0.092962	0.378007
	H90	H	0.084029	0.915081	0.604419
	H91	H	0.904059	0.914490	0.375432
	H92	H	0.071512	0.621068	0.899913
	H93	H	0.068887	0.394114	0.082069
	H94	H	0.891610	0.623120	0.072366
	H95	H	0.896137	0.393176	0.901651
	H96	H	0.403364	0.123513	0.581836
	H97	H	0.569667	0.895956	0.575680
	H98	H	0.582297	0.127955	0.392345
	H99	H	0.406404	0.894151	0.404117
	H100	H	0.581710	0.422568	0.102633
	H101	H	0.574733	0.596834	0.880389
	H102	H	0.384527	0.593193	0.104718
	H103	H	0.399107	0.417456	0.876234
	H104	H	0.104986	0.598760	0.401311
	H105	H	0.871964	0.600500	0.575582
	H106	H	0.102614	0.424453	0.582717
	H107	H	0.876224	0.422427	0.408620
	H108	H	0.896600	0.627569	0.092196
	H109	H	0.072024	0.396076	0.071608
	H110	H	0.078814	0.623733	0.899232
	H111	H	0.900158	0.391335	0.894395
	H112	H	0.078899	0.923203	0.599337
	H113	H	0.075641	0.102512	0.375705
	H114	H	0.905484	0.098001	0.598296
	H115	H	0.894251	0.915042	0.372438
	H116	H	0.602434	0.098191	0.906001
	H117	H	0.373816	0.096515	0.082518
	H118	H	0.602908	0.921994	0.077646
	H119	H	0.376648	0.924229	0.905502
	C120	C	0.368444	0.017272	0.611950
	C121	C	0.610063	0.998698	0.611002
	C122	C	0.611175	0.017495	0.367011
	C123	C	0.370982	0.998847	0.369597
	C124	C	0.610216	0.386644	-0.002001
	C125	C	0.610103	0.630830	0.982878
	C126	C	0.364833	0.631315	-0.001897
	C127	C	0.365692	0.386486	0.980534
	C128	C	-0.002402	0.628219	0.367513
	C129	C	0.978364	0.628678	0.610006
	C130	C	-0.003815	0.387618	0.610369
	C131	C	0.979306	0.388079	0.368049
	C132	C	0.867196	0.516866	0.112483
	C133	C	0.107132	0.499524	0.109385
	C134	C	0.108068	0.517003	0.866337
	C135	C	0.867131	0.499816	0.868632
	C136	C	0.112128	0.885424	0.497421
	C137	C	0.111283	0.130682	0.480418
	C138	C	0.866292	0.130765	0.496296
	C139	C	0.867712	0.886719	0.480066
	C140	C	0.498194	0.129857	0.867251
	C141	C	0.480940	0.129233	0.110947
	C142	C	0.498005	0.888214	0.112083
	C143	C	0.480085	0.888606	0.869285
	C144	C	0.364931	0.896433	0.671922
	C145	C	0.613338	0.120537	0.669472
	C146	C	0.616412	0.896890	0.306079
	C147	C	0.367655	0.120049	0.310219
	C148	C	0.670259	0.386591	0.878996
	C149	C	0.668598	0.631860	0.102105
	C150	C	0.306829	0.633229	0.878916
	C151	C	0.305998	0.385404	0.099784
	C152	C	0.875297	0.686826	0.368644
	C153	C	0.101521	0.685185	0.608009
	C154	C	0.873672	0.329916	0.609689
	C155	C	0.101072	0.329288	0.367296
	C156	C	0.874675	0.384345	0.669707
	C157	C	0.099143	0.632095	0.669368
	C158	C	0.876333	0.631900	0.309112
	C159	C	0.099699	0.382791	0.307165
	C160	C	0.365720	0.690814	0.879311
	C161	C	0.609879	0.689191	0.102204
	C162	C	0.611337	0.329063	0.878134
	C163	C	0.364794	0.327656	0.100176
	C164	C	0.668915	0.894427	0.367748
	C165	C	0.666822	0.121726	0.608361
	C166	C	0.309148	0.895665	0.612784
	C167	C	0.312587	0.121369	0.370004
	C168	C	0.862749	0.395754	0.172419
	C169	C	0.113450	0.619118	0.171541
	C170	C	0.111652	0.395861	0.806958
	C171	C	0.861615	0.620081	0.808028
	C172	C	0.173097	0.884067	0.378756
	C173	C	0.169963	0.132309	0.599275
	C174	C	0.807319	0.132185	0.377782
	C175	C	0.808180	0.885094	0.599261
	C176	C	0.375915	0.188074	0.867767
	C177	C	0.601908	0.189844	0.110212
	C178	C	0.376090	0.829503	0.113885
	C179	C	0.602009	0.829574	0.869970
	C180	C	0.377738	0.884089	0.173289
	C181	C	0.600881	0.135305	0.170719
	C182	C	0.378002	0.134355	0.807290
	C183	C	0.600768	0.883528	0.809052
	C184	C	0.865350	0.190595	0.377347
	C185	C	0.111219	0.190128	0.599247
	C186	C	0.115289	0.825371	0.378749
	C187	C	0.866551	0.827829	0.599357
	C188	C	0.167711	0.395248	0.866212
	C189	C	0.166865	0.621408	0.110370
	C190	C	0.807948	0.394900	0.112459
	C191	C	0.809387	0.622375	0.870295
	C192	C	0.393902	0.102050	0.587664
	C193	C	0.584827	0.914125	0.587728
	C194	C	0.585218	0.101941	0.391478
	C195	C	0.396243	0.914165	0.393527
	C196	C	0.585165	0.410527	0.081288
	C197	C	0.586085	0.606412	0.899767
	C198	C	0.388735	0.605896	0.081048
	C199	C	0.390672	0.411167	0.897527
	C200	C	0.082153	0.602424	0.390967
	C201	C	0.893624	0.603991	0.586557
	C202	C	0.080760	0.413036	0.586165
	C203	C	0.894685	0.413831	0.392673
	C204	C	0.892844	0.601514	0.088339
	C205	C	0.080832	0.415719	0.084320
	C206	C	0.082209	0.601189	0.890638
	C207	C	0.892909	0.414945	0.891997
	C208	C	0.086405	0.910175	0.579840
	C209	C	0.086976	0.105437	0.397593
	C210	C	0.890633	0.106177	0.579281
	C211	C	0.892131	0.910844	0.396561
	C212	C	0.582910	0.104641	0.890956
	C213	C	0.396525	0.103019	0.087639
	C214	C	0.582377	0.913381	0.086896
	C215	C	0.395389	0.914363	0.893148
	Zn216	Zn	0.489581	0.008243	0.739960
	Zn217	Zn	0.490328	0.008098	0.240164
	Zn218	Zn	0.740273	0.508903	-0.009113
	Zn219	Zn	0.235543	0.508700	-0.011209
	Zn220	Zn	-0.011243	0.756298	0.488553
	Zn221	Zn	-0.011792	0.260454	0.488787
	Zn222	Zn	-0.013979	0.508341	0.738551
	Zn223	Zn	-0.011654	0.507328	0.239657
	Zn224	Zn	0.488206	0.760688	-0.008719
	Zn225	Zn	0.487894	0.257034	-0.011050
	Zn226	Zn	0.737369	0.007568	0.488716
	Zn227	Zn	0.241291	0.008224	0.489251
	N228	N	0.400823	0.973328	0.671558
	N229	N	0.578804	0.043020	0.671461
	N230	N	0.581812	0.974497	0.305124
	N231	N	0.403010	0.042862	0.309806
	N232	N	0.669709	0.421468	0.954659
	N233	N	0.669000	0.596333	0.026852
	N234	N	0.306086	0.597188	0.953997
	N235	N	0.306221	0.421003	0.024403
	N236	N	0.951873	0.685018	0.403877
	N237	N	0.025381	0.683292	0.571739
	N238	N	0.950257	0.331768	0.573599
	N239	N	0.025175	0.332323	0.404494
	N240	N	0.951858	0.419280	0.670407
	N241	N	0.021635	0.597655	0.670528
	N242	N	0.953579	0.596422	0.308075
	N243	N	0.022769	0.418585	0.307611
	N244	N	0.400725	0.690107	0.954616
	N245	N	0.574227	0.688715	0.027127
	N246	N	0.575097	0.328746	0.953240
	N247	N	0.400847	0.328125	0.024824
	N248	N	0.665776	0.970415	0.404912
	N249	N	0.665011	0.045135	0.572713
	N250	N	0.310917	0.971985	0.576355
	N251	N	0.314425	0.044961	0.406179
	N252	N	0.898811	0.472642	0.172522
	N253	N	0.077138	0.542388	0.171205
	N254	N	0.075370	0.472612	0.806756
	N255	N	0.896880	0.542848	0.807003
	N256	N	0.171485	0.920508	0.453533
	N257	N	0.170070	0.095983	0.524375
	N258	N	0.807868	0.095605	0.452694
	N259	N	0.808832	0.921027	0.524117
	N260	N	0.451686	0.185352	0.904384
	N261	N	0.526320	0.186114	0.073569
	N262	N	0.451824	0.832073	0.076329
	N263	N	0.525801	0.832873	0.907008
	N264	N	0.454637	0.919895	0.172318
	N265	N	0.524598	0.098378	0.171381
	N266	N	0.455248	0.098860	0.806669
	N267	N	0.524018	0.919506	0.808623
	N268	N	0.901482	0.189651	0.452167
	N269	N	0.075405	0.189232	0.524316
	N270	N	0.078023	0.826036	0.453404
	N271	N	0.903065	0.828824	0.524256
	N272	N	0.165831	0.471591	0.902286
	N273	N	0.163092	0.546169	0.072321
	N274	N	0.810483	0.471219	0.076136
	N275	N	0.812712	0.546473	0.907212
	O276	O	0.338234	0.541908	0.322298
	H277	H	0.334450	0.540337	0.327113
	H278	H	0.337419	0.540049	0.330862
	O279	O	0.823363	1.064391	0.134031
	H280	H	0.810521	1.070561	0.123818
	H281	H	0.832832	1.074823	0.113492
	O282	O	0.180868	0.167985	0.986570
	H283	H	0.179996	0.178831	0.987794
	H284	H	0.195077	0.159543	0.982629
	O285	O	0.808163	-0.001139	0.139792
	H286	H	0.782610	-0.004914	0.150068
	H287	H	0.800870	0.014049	0.110602
	O288	O	0.066068	-0.196194	0.814580
	H289	H	0.080042	-0.192002	0.825784
	H290	H	0.057644	-0.209847	0.801396
	O291	O	0.614232	0.433726	0.611203
	H292	H	0.612140	0.427428	0.599240
	H293	H	0.629035	0.444751	0.604185
	O294	O	0.591195	0.505421	0.506353
	H295	H	0.581559	0.513602	0.518017
	H296	H	0.597699	0.509837	0.502752
	O297	O	1.177739	0.847103	0.795538
	H298	H	1.182859	0.875671	0.807014
	H299	H	1.157578	0.849065	0.805070
	O300	O	-0.065692	-0.044278	-0.093201
	H301	H	-0.068282	-0.038196	-0.081732
	H302	H	-0.064096	-0.050897	-0.087100
	O303	O	0.575689	0.449761	0.554739
	H304	H	0.575153	0.455884	0.539968
	H305	H	0.571739	0.451848	0.551309
	O306	O	1.076237	-0.026385	-0.065654
	H307	H	1.080796	-0.018161	-0.063614
	H308	H	1.086684	-0.040102	-0.064179
	O309	O	0.638552	0.316248	0.342509
	H310	H	0.634770	0.293335	0.329918
	H311	H	0.637375	0.322842	0.350229
	O312	O	1.487069	0.497612	0.346337
	H313	H	1.487336	0.501009	0.346825
	H314	H	1.482449	0.497974	0.343810
	O315	O	0.501000	0.580268	0.582291
	H316	H	0.499143	0.584303	0.574256
	H317	H	0.500631	0.596216	0.590306
	O318	O	0.553938	0.369230	0.364702
	H319	H	0.567016	0.378146	0.359970
	H320	H	0.551845	0.361233	0.349934
	O321	O	1.143681	-0.043301	1.120697
	H322	H	1.137602	-0.056358	1.133095
	H323	H	1.154662	-0.032008	1.124618
	O324	O	0.197317	-0.101956	0.868729
	H325	H	0.182781	-0.095074	0.846441
	H326	H	0.218466	-0.120921	0.860489
	O327	O	0.378703	0.356732	0.595535
	H328	H	0.392714	0.349330	0.586209
	H329	H	0.392264	0.357175	0.571529
	O330	O	0.418000	0.644826	0.588485
	H331	H	0.418168	0.643758	0.596365
	H332	H	0.406814	0.634445	0.596754
	O333	O	0.793566	1.194878	0.994713
	H334	H	0.799415	1.190792	0.974394
	H335	H	0.795967	1.211833	0.989231
	O336	O	0.424911	0.524288	0.468108
	H337	H	0.414832	0.532233	0.472759
	H338	H	0.415328	0.521528	0.465253
	O339	O	1.180376	0.199936	1.179489
	H340	H	1.162217	0.174289	1.182496
	H341	H	1.172313	0.199136	1.161677
	O342	O	-0.196085	0.820840	1.124427
	H343	H	-0.210923	0.817860	1.094143
	H344	H	-0.200219	0.848640	1.142443
	O345	O	0.537110	0.603182	0.316740
	H346	H	0.529175	0.605371	0.319590
	H347	H	0.532439	0.621252	0.311524
	O348	O	0.312960	0.457676	0.528743
	H349	H	0.313647	0.456784	0.522622
	H350	H	0.323633	0.453101	0.525859
	O351	O	0.096365	-0.077878	0.010088
	H352	H	0.099509	-0.093534	0.032662
	H353	H	0.095278	-0.056105	0.027084
	O354	O	0.814901	1.187843	-0.170603
	H355	H	0.814322	1.183406	-0.187283
	H356	H	0.830806	1.187089	-0.159601
	O357	O	-0.164272	0.979657	-0.207538
	H358	H	-0.153951	0.980803	-0.199604
	H359	H	-0.178416	0.976435	-0.221741
	O360	O	0.510775	0.605766	0.606853
	H361	H	0.495571	0.597000	0.597323
	H362	H	0.505424	0.597171	0.613982
	O363	O	0.458181	0.523992	0.689664
	H364	H	0.447879	0.509844	0.696746
	H365	H	0.456095	0.512705	0.695289
	O366	O	0.756061	0.654410	0.754206
	H367	H	0.751335	0.654864	0.748404
	H368	H	0.766576	0.665042	0.761897
	O369	O	0.556191	0.702238	0.475712
	H370	H	0.551423	0.720566	0.478160
	H371	H	0.545975	0.704669	0.480957
	O372	O	0.436885	0.520006	0.505140
	H373	H	0.445744	0.511887	0.503587
	H374	H	0.435464	0.531844	0.509144
	O375	O	0.345392	0.580836	0.342281
	H376	H	0.343514	0.574366	0.337966
	H377	H	0.337666	0.583643	0.371857
	O378	O	0.543687	0.577392	0.535041
	H379	H	0.547633	0.573538	0.550012
	H380	H	0.536704	0.583932	0.539619
	O381	O	0.356052	0.406105	0.414594
	H382	H	0.341354	0.413540	0.413557
	H383	H	0.359071	0.411351	0.403780
	O384	O	-0.064046	0.940432	1.020923
	H385	H	-0.065327	0.944489	1.021145
	H386	H	-0.050156	0.947856	1.031717
	O387	O	0.894271	0.866760	-0.010698
	H388	H	0.881049	0.874907	-0.009436
	H389	H	0.906840	0.874708	-0.024210
	O390	O	0.358724	0.401143	0.567733
	H391	H	0.355008	0.407919	0.565913
	H392	H	0.365742	0.386766	0.565481
	O393	O	1.033759	-0.976654	2.070019
	H394	H	1.035274	-0.959028	2.092815
	H395	H	1.007528	-0.990802	2.075421
	O396	O	0.075554	1.006054	1.176480
	H397	H	0.074285	0.998209	1.177652
	H398	H	0.064581	0.992558	1.168118
	O399	O	0.496445	0.440573	0.606749
	H400	H	0.493388	0.430796	0.623118
	H401	H	0.512470	0.440715	0.585186
	O402	O	0.983722	0.027942	0.899191
	H403	H	0.992218	0.017805	0.912599
	H404	H	0.980842	0.026144	0.879771
	O405	O	-0.033802	0.115584	-0.188733
	H406	H	-0.039550	0.126478	-0.194399
	H407	H	-0.039964	0.113845	-0.194283
	O408	O	1.079803	1.007788	0.970343
	H409	H	1.084279	1.008022	0.957659
	H410	H	1.074975	1.005295	0.976189
	O411	O	0.961758	1.199858	-0.030075
	H412	H	0.965135	1.191216	-0.035949
	H413	H	0.969557	1.210943	-0.026522
	O414	O	-0.090503	-0.180924	1.198981
	H415	H	-0.091652	-0.190776	1.226956
	H416	H	-0.112414	-0.174147	1.198343
	O417	O	1.098761	0.037682	0.967045
	H418	H	1.105948	0.035708	0.964342
	H419	H	1.102041	0.036557	0.967368
	O420	O	-0.005185	1.168005	0.194513
	H421	H	-0.005533	1.164565	0.204356
	H422	H	-0.006248	1.154033	0.190556
	O423	O	1.610915	0.584314	-0.589868
	H424	H	1.604389	0.581703	-0.590035
	H425	H	1.608934	0.572913	-0.593418
	O426	O	-0.038258	0.124005	0.925241
	H427	H	-0.037107	0.127024	0.941622
	H428	H	-0.041057	0.119468	0.917221
	O429	O	0.468489	0.528630	0.492460
	H430	H	0.448087	0.522804	0.499870
	H431	H	0.474831	0.555158	0.496731
