data_Molecule from HDF5

_cell_length_a		16.104484
_cell_length_b		16.214760
_cell_length_c		16.236047
_cell_angle_alpha	90.174618
_cell_angle_beta	89.835790
_cell_angle_gamma	90.239263
_symmetry_space_group_name_H-M	'P 1'
_symmetry_Int_Tables_number		1

loop_
	_symmetry_equiv_pos_as_xyz
	x,y,z

loop_
	_atom_site_label
	_atom_site_type_symbol
	_atom_site_fract_x
	_atom_site_fract_y
	_atom_site_fract_z
	H0	H	0.399978	0.834003	0.709282
	H1	H	0.602229	0.162416	0.708644
	H2	H	0.601603	0.834757	0.278056
	H3	H	0.403381	0.163030	0.279865
	H4	H	0.716998	0.399751	0.828693
	H5	H	0.717196	0.596599	0.157523
	H6	H	0.292513	0.593327	0.828228
	H7	H	0.286931	0.398807	0.156850
	H8	H	0.836527	0.709715	0.396371
	H9	H	0.167632	0.713976	0.591500
	H10	H	0.837694	0.286534	0.592716
	H11	H	0.167795	0.284027	0.392827
	H12	H	0.838561	0.401035	0.706873
	H13	H	0.168745	0.601245	0.706618
	H14	H	0.837438	0.596844	0.279496
	H15	H	0.168700	0.400257	0.278569
	H16	H	0.404543	0.713423	0.830219
	H17	H	0.603819	0.714088	0.157552
	H18	H	0.604079	0.281669	0.830757
	H19	H	0.402832	0.284469	0.158934
	H20	H	0.714270	0.833417	0.395324
	H21	H	0.716535	0.162282	0.592241
	H22	H	0.286117	0.833809	0.591256
	H23	H	0.289762	0.163809	0.397814
	H24	H	0.900274	0.334546	0.208142
	H25	H	0.104555	0.662885	0.207946
	H26	H	0.104065	0.335328	0.775402
	H27	H	0.905968	0.663370	0.779894
	H28	H	0.215288	0.901101	0.329998
	H29	H	0.216153	0.099085	0.657860
	H30	H	0.789503	0.094325	0.329017
	H31	H	0.788017	0.900362	0.658390
	H32	H	0.337456	0.210913	0.897517
	H33	H	0.668646	0.213116	0.094230
	H34	H	0.338329	0.784088	0.093037
	H35	H	0.668685	0.785978	0.894021
	H36	H	0.337988	0.897805	0.208770
	H37	H	0.668268	0.098800	0.209129
	H38	H	0.337961	0.096839	0.781458
	H39	H	0.667174	0.899497	0.778444
	H40	H	0.901314	0.214985	0.331045
	H41	H	0.103172	0.215696	0.656826
	H42	H	0.102464	0.783837	0.330131
	H43	H	0.902023	0.783877	0.658289
	H44	H	0.216468	0.333391	0.894001
	H45	H	0.218088	0.662829	0.089831
	H46	H	0.788849	0.334597	0.089750
	H47	H	0.791754	0.663076	0.896268
	H48	H	0.404971	0.116394	0.587833
	H49	H	0.605622	0.876485	0.589605
	H50	H	0.599623	0.119140	0.396275
	H51	H	0.421902	0.886789	0.407428
	H52	H	0.595943	0.398903	0.113196
	H53	H	0.600261	0.593634	0.875061
	H54	H	0.422746	0.596459	0.109088
	H55	H	0.419042	0.406453	0.880740
	H56	H	0.121523	0.590111	0.398604
	H57	H	0.883549	0.591308	0.589745
	H58	H	0.115437	0.415111	0.572428
	H59	H	0.885952	0.407833	0.401739
	H60	H	0.124890	0.414808	0.599402
	H61	H	0.884953	0.593045	0.586092
	H62	H	0.120885	0.594209	0.400281
	H63	H	0.884834	0.405958	0.399608
	H64	H	0.402442	0.597636	0.115220
	H65	H	0.596565	0.590042	0.876746
	H66	H	0.601841	0.409791	0.111398
	H67	H	0.411265	0.396402	0.874497
	H68	H	0.589739	0.113892	0.400529
	H69	H	0.584369	0.879849	0.597929
	H70	H	0.412230	0.115508	0.592846
	H71	H	0.396107	0.880347	0.409018
	H72	H	0.916418	0.613279	0.081130
	H73	H	0.092694	0.384654	0.075970
	H74	H	0.103062	0.616718	0.903275
	H75	H	0.912148	0.382995	0.905381
	H76	H	0.096919	0.899379	0.614262
	H77	H	0.095800	0.099532	0.374389
	H78	H	0.911969	0.091286	0.610904
	H79	H	0.907901	0.893484	0.373867
	H80	H	0.625404	0.097194	0.895359
	H81	H	0.385647	0.088413	0.085987
	H82	H	0.620099	0.905631	0.081352
	H83	H	0.385210	0.908636	0.900988
	H84	H	0.621314	0.912207	0.089748
	H85	H	0.384747	0.089995	0.090451
	H86	H	0.620358	0.093763	0.908972
	H87	H	0.383325	0.902435	0.900396
	H88	H	0.909310	0.094561	0.612138
	H89	H	0.101937	0.087490	0.375410
	H90	H	0.096838	0.912802	0.611310
	H91	H	0.900119	0.908630	0.375073
	H92	H	0.099862	0.618936	0.893694
	H93	H	0.104585	0.376688	0.088829
	H94	H	0.902890	0.617997	0.085802
	H95	H	0.904053	0.378103	0.897048
	H96	H	0.412478	0.113764	0.584474
	H97	H	0.590415	0.884288	0.575594
	H98	H	0.598126	0.114720	0.407092
	H99	H	0.409409	0.877478	0.385972
	H100	H	0.589086	0.408534	0.108043
	H101	H	0.594823	0.595092	0.875874
	H102	H	0.409654	0.579266	0.107676
	H103	H	0.406207	0.409198	0.876222
	H104	H	0.120143	0.590793	0.402967
	H105	H	0.885864	0.588268	0.586841
	H106	H	0.126263	0.391278	0.582585
	H107	H	0.884819	0.404539	0.402863
	H108	H	0.914383	0.617449	0.095092
	H109	H	0.085974	0.381516	0.093274
	H110	H	0.093258	0.613738	0.900154
	H111	H	0.915568	0.381424	0.894394
	H112	H	0.086120	0.906419	0.608973
	H113	H	0.088454	0.089173	0.379145
	H114	H	0.907781	0.090789	0.610598
	H115	H	0.916123	0.906729	0.379500
	H116	H	0.619894	0.084153	0.897525
	H117	H	0.384485	0.094536	0.086737
	H118	H	0.623152	0.902032	0.090009
	H119	H	0.384235	0.904353	0.906178
	C120	C	0.379617	0.006729	0.616718
	C121	C	0.623174	0.989238	0.615943
	C122	C	0.624142	0.007225	0.372210
	C123	C	0.381083	0.990244	0.372514
	C124	C	0.625004	0.376782	0.002395
	C125	C	0.625759	0.621339	0.984490
	C126	C	0.382882	0.619747	0.002314
	C127	C	0.381846	0.375296	0.985384
	C128	C	0.011352	0.619673	0.372127
	C129	C	0.994051	0.620893	0.615648
	C130	C	0.012612	0.378253	0.614144
	C131	C	0.994176	0.377065	0.371601
	C132	C	0.881682	0.507651	0.115558
	C133	C	0.124676	0.489645	0.114521
	C134	C	0.126416	0.507451	0.870438
	C135	C	0.882742	0.489977	0.871488
	C136	C	0.123056	0.877332	0.502948
	C137	C	0.124092	0.120915	0.484841
	C138	C	0.880869	0.119884	0.502759
	C139	C	0.879564	0.875188	0.484999
	C140	C	0.512186	0.119722	0.873208
	C141	C	0.494598	0.119978	0.116155
	C142	C	0.512055	0.877502	0.115708
	C143	C	0.493820	0.877059	0.873067
	C144	C	0.380373	0.883149	0.671595
	C145	C	0.621727	0.113179	0.670868
	C146	C	0.621480	0.883625	0.316435
	C147	C	0.383199	0.113939	0.317793
	C148	C	0.680014	0.378813	0.878303
	C149	C	0.679920	0.617631	0.108431
	C150	C	0.328897	0.615495	0.877903
	C151	C	0.325118	0.378118	0.108387
	C152	C	0.886442	0.672932	0.375722
	C153	C	0.118225	0.676815	0.612511
	C154	C	0.887548	0.323694	0.612377
	C155	C	0.118555	0.321722	0.372706
	C156	C	0.887928	0.380663	0.669209
	C157	C	0.118895	0.619928	0.669282
	C158	C	0.886852	0.616798	0.317621
	C159	C	0.118908	0.379638	0.316089
	C160	C	0.384665	0.674949	0.878803
	C161	C	0.623826	0.676284	0.108336
	C162	C	0.623800	0.320399	0.879266
	C163	C	0.382885	0.321170	0.109208
	C164	C	0.677501	0.882882	0.374895
	C165	C	0.678826	0.113225	0.613129
	C166	C	0.323825	0.882910	0.612983
	C167	C	0.326711	0.114379	0.376364
	C168	C	0.882124	0.383627	0.170107
	C169	C	0.124257	0.613432	0.170175
	C170	C	0.124108	0.384105	0.814087
	C171	C	0.885716	0.614108	0.817558
	C172	C	0.178001	0.880170	0.379120
	C173	C	0.178862	0.119200	0.608793
	C174	C	0.826204	0.116121	0.378465
	C175	C	0.825183	0.878988	0.609100
	C176	C	0.387255	0.174030	0.876595
	C177	C	0.619076	0.175223	0.114222
	C178	C	0.387464	0.821910	0.113338
	C179	C	0.618741	0.822718	0.874207
	C180	C	0.387425	0.878505	0.170810
	C181	C	0.618847	0.118452	0.171396
	C182	C	0.387291	0.117181	0.819060
	C183	C	0.618147	0.879521	0.816943
	C184	C	0.882009	0.175768	0.379333
	C185	C	0.122689	0.177308	0.608124
	C186	C	0.121881	0.821728	0.379395
	C187	C	0.881887	0.821334	0.608940
	C188	C	0.179768	0.383020	0.872991
	C189	C	0.180766	0.613457	0.111482
	C190	C	0.826040	0.383763	0.111510
	C191	C	0.828919	0.614059	0.875211
	C192	C	0.402866	0.092938	0.594803
	C193	C	0.600309	0.902683	0.594124
	C194	C	0.602285	0.093491	0.394772
	C195	C	0.402782	0.903991	0.394319
	C196	C	0.602339	0.399160	0.088683
	C197	C	0.603737	0.599447	0.898317
	C198	C	0.405087	0.597722	0.088397
	C199	C	0.405184	0.397635	0.899386
	C200	C	0.098624	0.598149	0.394033
	C201	C	0.907095	0.597645	0.593970
	C202	C	0.099860	0.400270	0.591485
	C203	C	0.907498	0.399408	0.394482
	C204	C	0.904574	0.593833	0.093928
	C205	C	0.101276	0.403432	0.092422
	C206	C	0.105077	0.594051	0.892611
	C207	C	0.904248	0.403408	0.892733
	C208	C	0.100092	0.899746	0.589269
	C209	C	0.102035	0.098392	0.398599
	C210	C	0.903104	0.098583	0.588835
	C211	C	0.901507	0.896692	0.398441
	C212	C	0.599288	0.098122	0.894380
	C213	C	0.407442	0.097671	0.094103
	C214	C	0.599011	0.900032	0.093632
	C215	C	0.406847	0.898737	0.895865
	Zn216	Zn	0.501979	-0.002222	0.745276
	Zn217	Zn	0.502240	-0.001132	0.243594
	Zn218	Zn	0.753804	0.498826	-0.007479
	Zn219	Zn	0.253826	0.497405	-0.007137
	Zn220	Zn	0.002158	0.748242	0.494016
	Zn221	Zn	0.003060	0.249616	0.493608
	Zn222	Zn	0.004175	0.499274	0.742451
	Zn223	Zn	0.002859	0.498736	0.243796
	Zn224	Zn	0.503836	0.750103	-0.005536
	Zn225	Zn	0.503798	0.247602	-0.004902
	Zn226	Zn	0.752072	-0.002373	0.494209
	Zn227	Zn	0.251689	-0.001192	0.494242
	N228	N	0.414385	0.961062	0.673942
	N229	N	0.587946	0.034928	0.672977
	N230	N	0.589058	0.961892	0.314525
	N231	N	0.416015	0.035839	0.315456
	N232	N	0.681034	0.413216	0.955999
	N233	N	0.681703	0.584478	0.030310
	N234	N	0.327638	0.581801	0.955640
	N235	N	0.324378	0.411085	0.030331
	N236	N	0.964981	0.674933	0.409086
	N237	N	0.039576	0.677373	0.579614
	N238	N	0.966306	0.322098	0.578775
	N239	N	0.040074	0.320008	0.406621
	N240	N	0.966567	0.413957	0.670339
	N241	N	0.040471	0.585847	0.671479
	N242	N	0.965549	0.584475	0.315333
	N243	N	0.040562	0.413146	0.315225
	N244	N	0.417392	0.677682	0.957035
	N245	N	0.590709	0.678632	0.030424
	N246	N	0.590418	0.318990	0.957310
	N247	N	0.417431	0.319347	0.031685
	N248	N	0.679280	0.960656	0.409151
	N249	N	0.679608	0.035246	0.579507
	N250	N	0.323139	0.960842	0.579603
	N251	N	0.325189	0.036403	0.409786
	N252	N	0.915956	0.461744	0.172862
	N253	N	0.090014	0.535506	0.172113
	N254	N	0.091545	0.462531	0.812386
	N255	N	0.918321	0.535893	0.814900
	N256	N	0.179033	0.913988	0.456943
	N257	N	0.179993	0.084727	0.531174
	N258	N	0.825239	0.082195	0.456060
	N259	N	0.823693	0.912019	0.531124
	N260	N	0.465940	0.175733	0.909547
	N261	N	0.540873	0.176186	0.080509
	N262	N	0.465984	0.821197	0.079808
	N263	N	0.540471	0.821426	0.908594
	N264	N	0.465831	0.912401	0.172269
	N265	N	0.540214	0.084845	0.172738
	N266	N	0.465792	0.084066	0.816627
	N267	N	0.539395	0.912415	0.815967
	N268	N	0.915510	0.178165	0.457331
	N269	N	0.089333	0.178384	0.530236
	N270	N	0.088379	0.819963	0.457459
	N271	N	0.914846	0.818725	0.530666
	N272	N	0.181504	0.460775	0.907079
	N273	N	0.181146	0.535620	0.077471
	N274	N	0.825740	0.461547	0.077924
	N275	N	0.826927	0.536008	0.908258
	O276	O	0.979029	0.979201	-0.024723
	H277	H	0.982547	0.984983	-0.016456
	H278	H	0.963349	0.991616	-0.014949
	O279	O	0.057196	-0.008753	0.972336
	H280	H	0.055248	-0.005405	0.977058
	H281	H	0.054585	-0.012480	0.974087
	O282	O	-0.001610	-0.049318	0.030838
	H283	H	0.001386	-0.043978	0.038147
	H284	H	0.001470	-0.053944	0.030172
	O285	O	0.520696	0.443378	0.456290
	H286	H	0.526115	0.446661	0.454135
	H287	H	0.523820	0.444830	0.460457
	O288	O	0.002888	-0.089648	0.026007
	H289	H	0.002278	-0.085908	0.021457
	H290	H	0.007307	-0.089469	0.025955
	O291	O	0.020064	1.003786	-0.042804
	H292	H	0.017265	0.995116	-0.047505
	H293	H	0.019659	0.992345	-0.042304
	O294	O	-0.040781	0.929825	0.023936
	H295	H	-0.041767	0.924840	0.034048
	H296	H	-0.045706	0.940336	0.017918
	O297	O	0.505309	0.500065	0.485732
	H298	H	0.505293	0.504570	0.479339
	H299	H	0.499993	0.503808	0.486792
	O300	O	0.506520	0.405412	0.505524
	H301	H	0.508794	0.397187	0.507049
	H302	H	0.505732	0.409521	0.497260
	O303	O	1.051342	-0.053055	0.970664
	H304	H	1.040429	-0.061483	0.975562
	H305	H	1.057150	-0.063211	0.959472
	O306	O	0.011610	1.043280	0.969887
	H307	H	0.013464	1.051303	0.969035
	H308	H	0.017019	1.048342	0.962106
	O309	O	0.053437	0.995489	0.969757
	H310	H	0.041883	0.989564	0.962094
	H311	H	0.054919	1.000707	0.978757
	O312	O	-0.014338	0.011985	0.995629
	H313	H	-0.031219	0.004240	0.994970
	H314	H	-0.012872	0.012223	1.000300
	O315	O	0.505067	0.435704	0.510497
	H316	H	0.504074	0.429143	0.505798
	H317	H	0.514146	0.428392	0.506746
	O318	O	-0.035608	0.067747	1.046175
	H319	H	-0.026463	0.069022	1.035148
	H320	H	-0.035444	0.081839	1.054891
	O321	O	0.480071	0.557546	0.509346
	H322	H	0.482642	0.543869	0.514631
	H323	H	0.475696	0.559486	0.515181
	O324	O	1.038584	0.107783	1.044963
	H325	H	1.055289	0.112680	1.036028
	H326	H	1.049247	0.106848	1.048871
	O327	O	0.985613	1.013117	1.061397
	H328	H	0.988093	1.012492	1.062868
	H329	H	0.991753	1.009533	1.065513
	O330	O	0.496496	0.555952	0.494978
	H331	H	0.493565	0.558312	0.490203
	H332	H	0.489962	0.564138	0.506955
	O333	O	0.534383	0.482646	0.495736
	H334	H	0.532830	0.484304	0.500777
	H335	H	0.537952	0.480624	0.500834
	O336	O	0.488834	0.509094	0.531419
	H337	H	0.490692	0.505363	0.531511
	H338	H	0.486139	0.507340	0.533950
	O339	O	0.444463	0.513392	0.468293
	H340	H	0.444195	0.523030	0.467655
	H341	H	0.444679	0.506348	0.470988
	O342	O	0.479711	0.512320	0.551463
	H343	H	0.462747	0.514131	0.550115
	H344	H	0.485892	0.514976	0.548970
	O345	O	0.509701	0.514869	0.482380
	H346	H	0.509943	0.517104	0.479460
	H347	H	0.518587	0.521311	0.480456
