data_Molecule from HDF5

_cell_length_a		16.421956
_cell_length_b		16.533323
_cell_length_c		16.457012
_cell_angle_alpha	89.952722
_cell_angle_beta	89.959623
_cell_angle_gamma	89.977368
_symmetry_space_group_name_H-M	'P 1'
_symmetry_Int_Tables_number		1

loop_
	_symmetry_equiv_pos_as_xyz
	x,y,z

loop_
	_atom_site_label
	_atom_site_type_symbol
	_atom_site_fract_x
	_atom_site_fract_y
	_atom_site_fract_z
	H0	H	0.401086	0.846889	0.732583
	H1	H	0.619489	0.158225	0.729657
	H2	H	0.613471	0.842683	0.287251
	H3	H	0.407469	0.159442	0.286263
	H4	H	0.732122	0.398323	0.847163
	H5	H	0.730684	0.606325	0.165217
	H6	H	0.288770	0.610531	0.846978
	H7	H	0.290017	0.398371	0.161763
	H8	H	0.853334	0.725188	0.399171
	H9	H	0.168028	0.723655	0.612369
	H10	H	0.852084	0.279670	0.613689
	H11	H	0.168954	0.281183	0.402620
	H12	H	0.851888	0.396910	0.727793
	H13	H	0.168049	0.606661	0.727174
	H14	H	0.851862	0.607620	0.285155
	H15	H	0.168613	0.397892	0.285094
	H16	H	0.400610	0.730331	0.850611
	H17	H	0.617592	0.725086	0.164084
	H18	H	0.618784	0.279985	0.847392
	H19	H	0.406932	0.282053	0.162104
	H20	H	0.729380	0.841774	0.403979
	H21	H	0.736172	0.157541	0.613743
	H22	H	0.287160	0.845392	0.614973
	H23	H	0.290369	0.159420	0.403682
	H24	H	0.909427	0.344392	0.224212
	H25	H	0.119819	0.658328	0.229611
	H26	H	0.118583	0.346025	0.780812
	H27	H	0.902076	0.658528	0.781035
	H28	H	0.233079	0.897666	0.349582
	H29	H	0.235568	0.110032	0.664213
	H30	H	0.792719	0.103718	0.348885
	H31	H	0.788050	0.894081	0.663289
	H32	H	0.353273	0.225989	0.897800
	H33	H	0.669926	0.220563	0.107302
	H34	H	0.355122	0.777397	0.115552
	H35	H	0.667122	0.777924	0.896708
	H36	H	0.352858	0.896734	0.227902
	H37	H	0.670168	0.102979	0.222967
	H38	H	0.354109	0.111875	0.780774
	H39	H	0.667685	0.895947	0.782585
	H40	H	0.908243	0.222229	0.350072
	H41	H	0.120859	0.226994	0.664411
	H42	H	0.120767	0.777617	0.350921
	H43	H	0.903809	0.778207	0.662548
	H44	H	0.235961	0.346547	0.896241
	H45	H	0.234579	0.658904	0.110827
	H46	H	0.791181	0.345150	0.108966
	H47	H	0.784973	0.658151	0.897173
	H48	H	0.422708	0.114383	0.594719
	H49	H	0.599776	0.889481	0.596530
	H50	H	0.599754	0.115667	0.409760
	H51	H	0.414196	0.887961	0.421907
	H52	H	0.606493	0.405181	0.122227
	H53	H	0.599017	0.597545	0.891108
	H54	H	0.424289	0.587246	0.116265
	H55	H	0.425844	0.412432	0.891354
	H56	H	0.123760	0.595649	0.420593
	H57	H	0.898347	0.588123	0.595655
	H58	H	0.123009	0.411670	0.593595
	H59	H	0.898579	0.413957	0.417822
	H60	H	0.121812	0.414404	0.590479
	H61	H	0.896653	0.593416	0.593872
	H62	H	0.120855	0.586170	0.420471
	H63	H	0.896446	0.412235	0.414175
	H64	H	0.425989	0.592303	0.116330
	H65	H	0.603159	0.585460	0.893716
	H66	H	0.602811	0.419633	0.117208
	H67	H	0.421278	0.412837	0.890564
	H68	H	0.600269	0.112839	0.418913
	H69	H	0.595836	0.891286	0.595085
	H70	H	0.427968	0.111684	0.593222
	H71	H	0.421829	0.886416	0.408843
	H72	H	0.922763	0.615595	0.095704
	H73	H	0.098029	0.388926	0.099631
	H74	H	0.104194	0.616769	0.914679
	H75	H	0.921572	0.392858	0.924498
	H76	H	0.095487	0.915745	0.617782
	H77	H	0.094531	0.090985	0.397609
	H78	H	0.929686	0.088528	0.617916
	H79	H	0.916874	0.909901	0.389920
	H80	H	0.622212	0.088110	0.918446
	H81	H	0.394710	0.094240	0.098380
	H82	H	0.623044	0.913150	0.091505
	H83	H	0.401344	0.916921	0.925339
	H84	H	0.623999	0.916375	0.095725
	H85	H	0.395772	0.095126	0.094809
	H86	H	0.624643	0.091069	0.915266
	H87	H	0.400371	0.920756	0.919280
	H88	H	0.921562	0.098131	0.623853
	H89	H	0.100784	0.095959	0.393022
	H90	H	0.096737	0.909737	0.619493
	H91	H	0.922083	0.920508	0.395838
	H92	H	0.092047	0.612791	0.912609
	H93	H	0.097020	0.393062	0.090030
	H94	H	0.920166	0.615149	0.094494
	H95	H	0.917486	0.387826	0.913577
	H96	H	0.423019	0.111595	0.588934
	H97	H	0.599463	0.890342	0.591683
	H98	H	0.607909	0.116287	0.414330
	H99	H	0.428779	0.892514	0.421458
	H100	H	0.591646	0.408146	0.116808
	H101	H	0.591259	0.588968	0.897612
	H102	H	0.420928	0.590889	0.117492
	H103	H	0.423731	0.416215	0.891890
	H104	H	0.124866	0.590022	0.412724
	H105	H	0.898694	0.589359	0.589859
	H106	H	0.122046	0.416256	0.594821
	H107	H	0.896904	0.410108	0.418023
	H108	H	0.920863	0.617225	0.096944
	H109	H	0.105978	0.388735	0.093553
	H110	H	0.098046	0.610899	0.924080
	H111	H	0.929452	0.391987	0.914546
	H112	H	0.101080	0.913689	0.619617
	H113	H	0.102490	0.087109	0.395758
	H114	H	0.916190	0.084975	0.621463
	H115	H	0.929153	0.909608	0.395001
	H116	H	0.622682	0.092940	0.920046
	H117	H	0.396973	0.091522	0.096674
	H118	H	0.625166	0.911159	0.096326
	H119	H	0.397714	0.913814	0.919197
	C120	C	0.389828	0.010099	0.627545
	C121	C	0.632627	0.993351	0.627877
	C122	C	0.633431	0.009820	0.383952
	C123	C	0.389609	0.993181	0.385156
	C124	C	0.632655	0.380064	0.013938
	C125	C	0.631318	0.623400	0.997927
	C126	C	0.389520	0.624557	0.013300
	C127	C	0.390455	0.381692	0.995689
	C128	C	0.019014	0.623534	0.384698
	C129	C	1.001831	0.622997	0.626727
	C130	C	0.018240	0.381047	0.626950
	C131	C	1.002243	0.380634	0.385144
	C132	C	0.890075	0.511494	0.127078
	C133	C	0.133155	0.494015	0.126942
	C134	C	0.132120	0.510346	0.883425
	C135	C	0.888596	0.494078	0.883668
	C136	C	0.131944	0.880447	0.515358
	C137	C	0.132664	0.124093	0.499329
	C138	C	0.890120	0.122500	0.516578
	C139	C	0.889853	0.879990	0.497559
	C140	C	0.519432	0.124206	0.883988
	C141	C	0.501513	0.124074	0.127230
	C142	C	0.519665	0.881009	0.127137
	C143	C	0.502982	0.882633	0.886365
	C144	C	0.384713	0.893404	0.691052
	C145	C	0.636808	0.111115	0.689008
	C146	C	0.632903	0.890306	0.326460
	C147	C	0.388393	0.112073	0.325973
	C148	C	0.692682	0.379304	0.894852
	C149	C	0.691248	0.625451	0.117369
	C150	C	0.328449	0.628521	0.894814
	C151	C	0.329843	0.379640	0.114385
	C152	C	0.900592	0.684760	0.381332
	C153	C	0.120572	0.683418	0.630038
	C154	C	0.899607	0.320109	0.630928
	C155	C	0.121643	0.321280	0.383817
	C156	C	0.899283	0.378702	0.687581
	C157	C	0.120796	0.625120	0.687126
	C158	C	0.899921	0.625951	0.324627
	C159	C	0.121532	0.379001	0.325420
	C160	C	0.384234	0.688057	0.896467
	C161	C	0.634988	0.684742	0.116567
	C162	C	0.635889	0.320511	0.894814
	C163	C	0.387983	0.321915	0.114592
	C164	C	0.690707	0.889977	0.384643
	C165	C	0.695446	0.110508	0.631560
	C166	C	0.327621	0.892686	0.632554
	C167	C	0.330152	0.112090	0.384177
	C168	C	0.889996	0.391879	0.185121
	C169	C	0.136977	0.611482	0.188649
	C170	C	0.136464	0.393124	0.821178
	C171	C	0.884778	0.611585	0.821867
	C172	C	0.193055	0.878812	0.396738
	C173	C	0.194926	0.127651	0.617189
	C174	C	0.831494	0.123483	0.396767
	C175	C	0.828790	0.876624	0.616175
	C176	C	0.400750	0.185685	0.880025
	C177	C	0.621938	0.181347	0.126834
	C178	C	0.401501	0.819270	0.131814
	C179	C	0.620314	0.819561	0.880675
	C180	C	0.400617	0.878415	0.188041
	C181	C	0.622177	0.123051	0.184424
	C182	C	0.401100	0.128759	0.821841
	C183	C	0.620595	0.878064	0.823458
	C184	C	0.888755	0.182128	0.397301
	C185	C	0.137543	0.185932	0.617244
	C186	C	0.137127	0.819197	0.397426
	C187	C	0.886352	0.819000	0.615786
	C188	C	0.194750	0.393244	0.878791
	C189	C	0.194171	0.611889	0.129465
	C190	C	0.831125	0.392317	0.127991
	C191	C	0.826287	0.611334	0.879603
	C192	C	0.416807	0.091346	0.600152
	C193	C	0.605993	0.911730	0.601899
	C194	C	0.609615	0.093153	0.407640
	C195	C	0.414506	0.910486	0.409988
	C196	C	0.607481	0.404152	0.096996
	C197	C	0.605276	0.597971	0.915815
	C198	C	0.415973	0.597701	0.095326
	C199	C	0.416277	0.406613	0.912681
	C200	C	0.101630	0.597996	0.410699
	C201	C	0.919461	0.597549	0.600566
	C202	C	0.100749	0.406603	0.600665
	C203	C	0.919029	0.405132	0.409595
	C204	C	0.914565	0.594416	0.102588
	C205	C	0.107629	0.411825	0.101530
	C206	C	0.105752	0.592284	0.909637
	C207	C	0.915044	0.412177	0.910117
	C208	C	0.105253	0.905915	0.597494
	C209	C	0.106625	0.098508	0.417014
	C210	C	0.915240	0.097598	0.599586
	C211	C	0.915574	0.905854	0.415101
	C212	C	0.601694	0.098174	0.910345
	C213	C	0.417635	0.100528	0.103628
	C214	C	0.602586	0.906293	0.101652
	C215	C	0.421225	0.909474	0.913445
	Zn216	Zn	0.510252	0.002936	0.756637
	Zn217	Zn	0.511304	0.001372	0.255676
	Zn218	Zn	0.760372	0.502789	0.006198
	Zn219	Zn	0.261565	0.502905	0.003347
	Zn220	Zn	0.010877	0.751950	0.505809
	Zn221	Zn	0.010943	0.251887	0.507691
	Zn222	Zn	0.010011	0.502103	0.754945
	Zn223	Zn	0.010914	0.502643	0.256008
	Zn224	Zn	0.510734	0.752429	0.006388
	Zn225	Zn	0.510863	0.252034	0.004442
	Zn226	Zn	0.761771	0.000658	0.506292
	Zn227	Zn	0.260177	0.001972	0.507702
	N228	N	0.422695	0.967455	0.688082
	N229	N	0.598471	0.037327	0.686971
	N230	N	0.598073	0.965898	0.325852
	N231	N	0.424321	0.037105	0.326399
	N232	N	0.690826	0.415585	0.969900
	N233	N	0.689532	0.588327	0.042687
	N234	N	0.331719	0.589781	0.968674
	N235	N	0.331347	0.415919	0.039298
	N236	N	0.975695	0.683364	0.418011
	N237	N	0.045578	0.682291	0.593268
	N238	N	0.974715	0.321396	0.594095
	N239	N	0.046360	0.322079	0.420136
	N240	N	0.974150	0.415767	0.685209
	N241	N	0.045920	0.588500	0.685369
	N242	N	0.974661	0.588737	0.326496
	N243	N	0.046558	0.415407	0.326312
	N244	N	0.421089	0.685977	0.971295
	N245	N	0.598750	0.683781	0.041234
	N246	N	0.599304	0.320770	0.969854
	N247	N	0.424622	0.322799	0.039572
	N248	N	0.691144	0.965435	0.419699
	N249	N	0.693017	0.036189	0.594452
	N250	N	0.330551	0.966255	0.594121
	N251	N	0.330632	0.037069	0.420199
	N252	N	0.925536	0.467070	0.184761
	N253	N	0.099889	0.537016	0.187469
	N254	N	0.098468	0.467169	0.823610
	N255	N	0.922691	0.537533	0.824284
	N256	N	0.190073	0.916033	0.471218
	N257	N	0.191852	0.089762	0.543033
	N258	N	0.832023	0.087483	0.472132
	N259	N	0.831024	0.913918	0.541743
	N260	N	0.475338	0.183102	0.917717
	N261	N	0.545731	0.182427	0.092378
	N262	N	0.476468	0.820725	0.094945
	N263	N	0.545995	0.822131	0.918951
	N264	N	0.475152	0.916120	0.185304
	N265	N	0.546086	0.088539	0.185177
	N266	N	0.475841	0.091320	0.824191
	N267	N	0.546451	0.916356	0.826723
	N268	N	0.924044	0.181742	0.472876
	N269	N	0.099531	0.183895	0.542920
	N270	N	0.099914	0.820160	0.472057
	N271	N	0.923543	0.821003	0.540940
	N272	N	0.192033	0.467195	0.916554
	N273	N	0.192010	0.537864	0.091958
	N274	N	0.830960	0.467641	0.092719
	N275	N	0.828709	0.537277	0.917350
	O276	O	0.718495	0.672665	0.513059
	H277	H	0.724584	0.654171	0.511824
	H278	H	0.740841	0.681213	0.512669
	O279	O	0.725977	0.286216	0.470798
	H280	H	0.737222	0.263061	0.484677
	H281	H	0.708660	0.285902	0.496646
	O282	O	1.441441	1.340718	0.458463
	H283	H	1.450754	1.329125	0.442148
	H284	H	1.455629	1.348755	0.446474
	O285	O	0.928105	-0.166546	-0.117717
	H286	H	0.926683	-0.177090	-0.086586
	H287	H	0.940042	-0.170314	-0.104538
	O288	O	0.026082	-0.141760	0.011047
	H289	H	0.039082	-0.150912	0.022961
	H290	H	0.037005	-0.136384	0.019009
	O291	O	1.009326	0.857569	0.061458
	H292	H	1.006428	0.855220	0.069871
	H293	H	1.023609	0.845691	0.085880
	O294	O	-0.187265	0.887700	0.059297
	H295	H	-0.165035	0.888289	0.069889
	H296	H	-0.191812	0.916778	0.049706
	O297	O	0.440403	0.475594	0.385649
	H298	H	0.451487	0.502349	0.383552
	H299	H	0.460222	0.468493	0.370413
	O300	O	0.459705	0.537669	0.658505
	H301	H	0.477720	0.555078	0.671054
	H302	H	0.439821	0.523675	0.662813
	O303	O	0.612904	0.299095	0.599420
	H304	H	0.583525	0.301753	0.592841
	H305	H	0.605712	0.300839	0.621278
	O306	O	0.182996	1.100488	1.012313
	H307	H	0.196519	1.122842	1.017200
	H308	H	0.163368	1.109282	0.984669
	O309	O	0.136575	0.214340	0.040542
	H310	H	0.140493	0.219123	0.048546
	H311	H	0.115920	0.214990	0.041574
	O312	O	0.155181	0.808848	0.241277
	H313	H	0.157369	0.811547	0.252081
	H314	H	0.166038	0.787538	0.242571
	O315	O	0.214814	0.200982	1.066425
	H316	H	0.221161	0.211176	1.068452
	H317	H	0.218575	0.205165	1.063580
	O318	O	0.272207	1.266484	-0.686056
	H319	H	0.266881	1.268050	-0.684064
	H320	H	0.294275	1.289402	-0.676384
	O321	O	0.657874	0.460268	0.665100
	H322	H	0.643727	0.446678	0.666002
	H323	H	0.661598	0.446223	0.676178
	O324	O	0.304115	0.551464	0.459330
	H325	H	0.306676	0.547893	0.433342
	H326	H	0.322155	0.542227	0.440775
	O327	O	0.199911	0.813069	1.807980
	H328	H	0.208358	0.792764	1.833401
	H329	H	0.157914	0.799341	1.796612
	O330	O	0.697396	-0.304354	-0.308809
	H331	H	0.698324	-0.335363	-0.317428
	H332	H	0.716669	-0.297993	-0.312688
	O333	O	1.037536	1.201888	1.213485
	H334	H	1.038290	1.199282	1.196855
	H335	H	1.038376	1.206315	1.235470
	O336	O	0.923273	-0.156432	1.204748
	H337	H	0.942963	-0.161744	1.187709
	H338	H	0.921013	-0.134287	1.216510
	O339	O	0.822692	0.188782	0.824513
	H340	H	0.872957	0.199446	0.815711
	H341	H	0.812931	0.135480	0.812856
	O342	O	0.726508	0.474312	0.291832
	H343	H	0.734401	0.457567	0.274692
	H344	H	0.731605	0.453805	0.283649
	O345	O	-0.016790	0.217133	-0.206509
	H346	H	0.013026	0.195678	-0.200873
	H347	H	-0.014070	0.246792	-0.228892
	O348	O	1.375693	0.379489	1.322646
	H349	H	1.400259	0.386769	1.322680
	H350	H	1.395580	0.376837	1.339346
	O351	O	0.533397	0.698584	-0.686885
	H352	H	0.533214	0.703695	-0.675342
	H353	H	0.536674	0.711342	-0.682662
	O354	O	0.103189	1.136168	0.877425
	H355	H	0.120382	1.118446	0.878936
	H356	H	0.094430	1.137833	0.888067
	O357	O	1.074906	1.030091	0.950240
	H358	H	1.081095	1.018419	0.957383
	H359	H	1.083366	1.027052	0.948844
	O360	O	0.396350	0.542041	0.292787
	H361	H	0.416425	0.544929	0.300350
	H362	H	0.376182	0.549114	0.272973
	O363	O	0.572004	0.634452	0.468476
	H364	H	0.568465	0.634394	0.481746
	H365	H	0.588103	0.643169	0.474826
	O366	O	1.031445	-0.208640	0.793108
	H367	H	1.015203	-0.216344	0.833190
	H368	H	1.027154	-0.238985	0.773333
	O369	O	0.572987	0.575475	0.377941
	H370	H	0.602238	0.572481	0.383082
	H371	H	0.580576	0.589700	0.380688
	O372	O	0.795072	0.219954	0.223308
	H373	H	0.811866	0.219426	0.195894
	H374	H	0.815373	0.196348	0.222998
	O375	O	-0.201502	1.026063	0.794407
	H376	H	-0.213411	1.017066	0.768349
	H377	H	-0.178998	1.006067	0.789807
	O378	O	0.590971	0.478317	0.512770
	H379	H	0.578916	0.475572	0.508653
	H380	H	0.593600	0.467491	0.513650
	O381	O	1.094956	0.009257	-0.000618
	H382	H	1.094642	0.019656	-0.005188
	H383	H	1.104225	-0.005113	-0.019060
	O384	O	-0.166124	-0.099181	0.887856
	H385	H	-0.163445	-0.105965	0.895173
	H386	H	-0.155904	-0.108674	0.896991
	O387	O	-0.196867	1.219112	0.986804
	H388	H	-0.189461	1.223271	0.958447
	H389	H	-0.212414	1.236482	0.963869
	O390	O	0.047455	-0.015831	1.139463
	H391	H	0.074336	-0.023061	1.146103
	H392	H	0.054947	-0.015232	1.118904
	O393	O	1.075841	0.804230	0.212189
	H394	H	1.092812	0.789535	0.239978
	H395	H	1.074144	0.817606	0.196600
	O396	O	0.411584	0.540779	0.586259
	H397	H	0.412401	0.555889	0.594305
	H398	H	0.415134	0.540300	0.581293
	O399	O	-0.198100	0.967714	0.216392
	H400	H	-0.200767	0.988517	0.204802
	H401	H	-0.208660	0.984449	0.229236
	O402	O	-0.095676	0.018821	1.015169
	H403	H	-0.092044	0.030772	1.000763
	H404	H	-0.093043	0.013698	0.999490
	O405	O	-0.208042	-0.222062	0.029921
	H406	H	-0.214181	-0.212218	0.050439
	H407	H	-0.235966	-0.242065	0.046347
	O408	O	0.307114	0.479373	0.704527
	H409	H	0.310488	0.492295	0.686867
	H410	H	0.281756	0.481501	0.712769
	O411	O	0.683570	0.301792	0.301133
	H412	H	0.692324	0.287868	0.341948
	H413	H	0.721328	0.274981	0.278782
	O414	O	0.347483	0.423123	0.642844
	H415	H	0.342057	0.423432	0.635889
	H416	H	0.345913	0.441300	0.628005
	O417	O	0.535081	0.305474	0.334358
	H418	H	0.559701	0.300858	0.330201
	H419	H	0.555892	0.293032	0.319723
	O420	O	0.488445	0.608498	0.620493
	H421	H	0.492747	0.598484	0.629208
	H422	H	0.491572	0.627568	0.620027
	O423	O	-0.633287	0.678795	0.382303
	H424	H	-0.616166	0.659527	0.370986
	H425	H	-0.641148	0.694344	0.405881
	O426	O	0.964158	1.202649	1.069133
	H427	H	0.960372	1.202595	1.083047
	H428	H	0.963683	1.178771	1.056177
	O429	O	0.347720	0.304605	0.507527
	H430	H	0.375491	0.309030	0.493941
	H431	H	0.339788	0.308422	0.503839
	O432	O	1.052770	-0.093588	0.957045
	H433	H	1.065833	-0.092576	0.962358
	H434	H	1.067178	-0.105394	0.959233
	O435	O	0.227136	0.026186	0.224724
	H436	H	0.226299	0.061390	0.222932
	H437	H	0.251346	0.038796	0.240608
	O438	O	1.227526	-0.210809	-0.016383
	H439	H	1.244113	-0.199149	-0.009841
	H440	H	1.249494	-0.218920	-0.019075
	O441	O	0.661134	0.476228	0.710823
	H442	H	0.639276	0.487554	0.708472
	H443	H	0.658334	0.453294	0.725632
	O444	O	0.227729	0.984916	0.791265
	H445	H	0.246427	0.969656	0.772504
	H446	H	0.229876	0.954875	0.790766
	O447	O	0.536154	0.719075	0.720779
	H448	H	0.568489	0.717766	0.715912
	H449	H	0.546229	0.738494	0.743714
	O450	O	0.381254	0.570242	0.521386
	H451	H	0.402572	0.567747	0.517546
	H452	H	0.371089	0.564079	0.497288
	O453	O	0.490480	0.283122	0.719286
	H454	H	0.449265	0.288934	0.710700
	H455	H	0.477834	0.258289	0.749475
	O456	O	0.726094	-0.474136	-0.504206
	H457	H	0.733426	-0.492044	-0.502480
	H458	H	0.725795	-0.476291	-0.507483
	O459	O	0.344867	0.717953	0.436151
	H460	H	0.344802	0.723851	0.444178
	H461	H	0.328885	0.721230	0.452450
	O462	O	0.129979	0.977883	-0.061511
	H463	H	0.135647	0.987210	-0.050826
	H464	H	0.130469	0.990221	-0.048738
	O465	O	0.875373	0.055635	0.133295
	H466	H	0.876544	0.058995	0.125158
	H467	H	0.879187	0.037917	0.112808
