data_Molecule from HDF5

_cell_length_a		16.374291
_cell_length_b		16.574266
_cell_length_c		16.462032
_cell_angle_alpha	90.001617
_cell_angle_beta	90.139833
_cell_angle_gamma	90.022416
_symmetry_space_group_name_H-M	'P 1'
_symmetry_Int_Tables_number		1

loop_
	_symmetry_equiv_pos_as_xyz
	x,y,z

loop_
	_atom_site_label
	_atom_site_type_symbol
	_atom_site_fract_x
	_atom_site_fract_y
	_atom_site_fract_z
	H0	H	0.401025	0.849590	0.726333
	H1	H	0.615980	0.161448	0.729390
	H2	H	0.611597	0.848936	0.283634
	H3	H	0.404319	0.164115	0.284167
	H4	H	0.728774	0.401377	0.845507
	H5	H	0.729751	0.613471	0.160588
	H6	H	0.285571	0.611474	0.844822
	H7	H	0.288692	0.403661	0.160549
	H8	H	0.847824	0.727133	0.401452
	H9	H	0.165374	0.729281	0.612604
	H10	H	0.849839	0.283286	0.613672
	H11	H	0.165250	0.288744	0.402405
	H12	H	0.848121	0.402840	0.725190
	H13	H	0.167065	0.610540	0.724720
	H14	H	0.847382	0.611520	0.284145
	H15	H	0.165945	0.405474	0.288221
	H16	H	0.398960	0.730724	0.845439
	H17	H	0.614130	0.730350	0.159906
	H18	H	0.619357	0.279587	0.849150
	H19	H	0.402762	0.285356	0.160539
	H20	H	0.729454	0.849703	0.399226
	H21	H	0.731980	0.161993	0.612409
	H22	H	0.285840	0.848968	0.607936
	H23	H	0.288532	0.165970	0.403355
	H24	H	0.901839	0.348642	0.224633
	H25	H	0.110070	0.663071	0.224335
	H26	H	0.115824	0.350657	0.779389
	H27	H	0.900323	0.661860	0.780733
	H28	H	0.220831	0.908551	0.344750
	H29	H	0.226067	0.111078	0.663711
	H30	H	0.786153	0.110155	0.345209
	H31	H	0.784889	0.903531	0.662167
	H32	H	0.349995	0.228940	0.897705
	H33	H	0.666241	0.230235	0.113786
	H34	H	0.348960	0.787628	0.106536
	H35	H	0.664423	0.785459	0.897525
	H36	H	0.347690	0.905688	0.220665
	H37	H	0.666060	0.113723	0.228971
	H38	H	0.350172	0.113976	0.781523
	H39	H	0.665624	0.902978	0.783793
	H40	H	0.898373	0.229792	0.346658
	H41	H	0.110980	0.228072	0.662459
	H42	H	0.109912	0.786299	0.348370
	H43	H	0.896484	0.782090	0.660682
	H44	H	0.229607	0.349261	0.898540
	H45	H	0.226269	0.663852	0.105674
	H46	H	0.785079	0.349213	0.108435
	H47	H	0.786185	0.663448	0.898842
	H48	H	0.412568	0.120516	0.593762
	H49	H	0.594615	0.897961	0.587851
	H50	H	0.597976	0.119270	0.413328
	H51	H	0.412600	0.894077	0.415140
	H52	H	0.590896	0.421327	0.113363
	H53	H	0.593577	0.597539	0.890773
	H54	H	0.419613	0.595927	0.114628
	H55	H	0.416765	0.418276	0.889366
	H56	H	0.119380	0.595608	0.417872
	H57	H	0.889825	0.595467	0.605421
	H58	H	0.121718	0.415631	0.595327
	H59	H	0.891994	0.417540	0.414634
	H60	H	0.118135	0.416356	0.586361
	H61	H	0.893094	0.606181	0.584809
	H62	H	0.120564	0.595547	0.412277
	H63	H	0.891212	0.416992	0.415135
	H64	H	0.420756	0.598770	0.115771
	H65	H	0.595799	0.596444	0.889765
	H66	H	0.594323	0.414210	0.116776
	H67	H	0.422811	0.419570	0.892218
	H68	H	0.590198	0.116514	0.414524
	H69	H	0.599736	0.893185	0.593927
	H70	H	0.420378	0.119481	0.598125
	H71	H	0.410509	0.891266	0.409607
	H72	H	0.920971	0.615607	0.088378
	H73	H	0.102793	0.392312	0.092696
	H74	H	0.088194	0.613579	0.920067
	H75	H	0.922538	0.396118	0.915690
	H76	H	0.095287	0.914121	0.619963
	H77	H	0.092508	0.093250	0.393492
	H78	H	0.924370	0.096368	0.615080
	H79	H	0.914577	0.912475	0.389040
	H80	H	0.621986	0.092800	0.910600
	H81	H	0.400808	0.090168	0.085103
	H82	H	0.620848	0.920456	0.093870
	H83	H	0.392208	0.913308	0.915536
	H84	H	0.622483	0.916590	0.095012
	H85	H	0.393097	0.092636	0.101912
	H86	H	0.622330	0.100541	0.920625
	H87	H	0.395149	0.921283	0.918769
	H88	H	0.918242	0.098724	0.617428
	H89	H	0.092810	0.106058	0.389942
	H90	H	0.099799	0.916890	0.620082
	H91	H	0.918151	0.926446	0.396346
	H92	H	0.104047	0.619121	0.919169
	H93	H	0.099501	0.390814	0.101506
	H94	H	0.911028	0.621570	0.094176
	H95	H	0.917020	0.394761	0.918506
	H96	H	0.419922	0.116932	0.589493
	H97	H	0.590969	0.894959	0.596281
	H98	H	0.595552	0.116767	0.420692
	H99	H	0.416974	0.894118	0.410143
	H100	H	0.599480	0.421260	0.115607
	H101	H	0.594038	0.595870	0.891723
	H102	H	0.417410	0.598295	0.116446
	H103	H	0.421370	0.413699	0.889575
	H104	H	0.121355	0.600230	0.414935
	H105	H	0.900502	0.583888	0.587942
	H106	H	0.117984	0.424026	0.592335
	H107	H	0.891500	0.417615	0.415855
	H108	H	0.922571	0.619349	0.101272
	H109	H	0.093948	0.394251	0.095131
	H110	H	0.093636	0.620247	0.905819
	H111	H	0.918254	0.392892	0.912495
	H112	H	0.095675	0.919293	0.618295
	H113	H	0.103852	0.098518	0.388497
	H114	H	0.918660	0.092063	0.615849
	H115	H	0.929183	0.914898	0.395095
	H116	H	0.616938	0.088880	0.921392
	H117	H	0.392591	0.106143	0.089839
	H118	H	0.621778	0.917546	0.090883
	H119	H	0.392552	0.920909	0.910762
	C120	C	0.385629	0.014986	0.625636
	C121	C	0.628720	0.998298	0.625903
	C122	C	0.628023	0.014302	0.383184
	C123	C	0.383497	0.997870	0.381391
	C124	C	0.629157	0.385250	0.012169
	C125	C	0.627905	0.628792	0.994648
	C126	C	0.385700	0.629500	0.011453
	C127	C	0.387870	0.385818	0.994650
	C128	C	0.015100	0.628425	0.383607
	C129	C	0.998832	0.628058	0.626005
	C130	C	0.015158	0.386104	0.625048
	C131	C	0.997162	0.386255	0.384138
	C132	C	0.884929	0.515161	0.126636
	C133	C	0.129242	0.497035	0.126527
	C134	C	0.128841	0.514402	0.882287
	C135	C	0.886643	0.498013	0.882604
	C136	C	0.127795	0.886095	0.514301
	C137	C	0.127794	0.129785	0.495631
	C138	C	0.886014	0.128382	0.512380
	C139	C	0.886314	0.885703	0.496774
	C140	C	0.516400	0.127764	0.883720
	C141	C	0.499909	0.128860	0.125737
	C142	C	0.516482	0.886856	0.124103
	C143	C	0.497943	0.885789	0.882578
	C144	C	0.383100	0.896688	0.685856
	C145	C	0.632902	0.115194	0.687970
	C146	C	0.629795	0.896068	0.323525
	C147	C	0.384363	0.117230	0.323608
	C148	C	0.689408	0.382713	0.893461
	C149	C	0.689403	0.631491	0.112797
	C150	C	0.325316	0.630547	0.892321
	C151	C	0.328008	0.384553	0.113229
	C152	C	0.895424	0.687382	0.382383
	C153	C	0.117828	0.688764	0.629705
	C154	C	0.896489	0.325030	0.629790
	C155	C	0.117473	0.328200	0.383828
	C156	C	0.895999	0.384089	0.685855
	C157	C	0.118764	0.629609	0.685587
	C158	C	0.895232	0.629924	0.324064
	C159	C	0.117926	0.386405	0.327001
	C160	C	0.381806	0.689943	0.892763
	C161	C	0.631855	0.689813	0.112830
	C162	C	0.635016	0.321874	0.895256
	C163	C	0.384877	0.325910	0.113229
	C164	C	0.688586	0.896418	0.380977
	C165	C	0.690602	0.115479	0.629614
	C166	C	0.325547	0.896279	0.627052
	C167	C	0.326814	0.117895	0.382522
	C168	C	0.882807	0.396356	0.185619
	C169	C	0.129383	0.615953	0.184652
	C170	C	0.132814	0.396960	0.820764
	C171	C	0.883221	0.615579	0.821843
	C172	C	0.183750	0.887430	0.393456
	C173	C	0.186764	0.130140	0.615521
	C174	C	0.825496	0.129718	0.393063
	C175	C	0.825159	0.884311	0.615170
	C176	C	0.397485	0.188713	0.880054
	C177	C	0.618947	0.189676	0.130554
	C178	C	0.396573	0.827532	0.125187
	C179	C	0.617460	0.826029	0.879796
	C180	C	0.395880	0.886097	0.181944
	C181	C	0.618594	0.131610	0.187988
	C182	C	0.397761	0.131505	0.822107
	C183	C	0.617858	0.884051	0.823118
	C184	C	0.881442	0.189346	0.393847
	C185	C	0.129478	0.188545	0.614903
	C186	C	0.128465	0.827074	0.395111
	C187	C	0.880741	0.824167	0.614540
	C188	C	0.189879	0.396551	0.879646
	C189	C	0.187010	0.616308	0.125604
	C190	C	0.824757	0.396708	0.127552
	C191	C	0.826516	0.616377	0.880563
	C192	C	0.410426	0.097381	0.601044
	C193	C	0.602619	0.916632	0.599988
	C194	C	0.602134	0.096207	0.408876
	C195	C	0.406630	0.914785	0.404792
	C196	C	0.602732	0.411444	0.094080
	C197	C	0.601810	0.603775	0.912280
	C198	C	0.411771	0.604649	0.093982
	C199	C	0.413002	0.410296	0.911775
	C200	C	0.098674	0.604190	0.408127
	C201	C	0.916039	0.602582	0.600087
	C202	C	0.097829	0.411516	0.598825
	C203	C	0.913179	0.410432	0.408383
	C204	C	0.910550	0.597363	0.101748
	C205	C	0.105513	0.414035	0.103133
	C206	C	0.102910	0.596221	0.907735
	C207	C	0.912012	0.415995	0.908013
	C208	C	0.103838	0.909934	0.597891
	C209	C	0.103356	0.106050	0.412194
	C210	C	0.912565	0.102902	0.594611
	C211	C	0.913045	0.910871	0.414762
	C212	C	0.598975	0.101694	0.910099
	C213	C	0.417153	0.103649	0.099669
	C214	C	0.599970	0.911105	0.099952
	C215	C	0.414869	0.911022	0.907794
	Zn216	Zn	0.507378	0.006694	0.755275
	Zn217	Zn	0.507395	0.006760	0.253324
	Zn218	Zn	0.757226	0.506832	0.002841
	Zn219	Zn	0.257892	0.506496	0.002952
	Zn220	Zn	0.006628	0.756723	0.505776
	Zn221	Zn	0.005750	0.257968	0.504348
	Zn222	Zn	0.007757	0.506346	0.753714
	Zn223	Zn	0.006489	0.506255	0.255523
	Zn224	Zn	0.507078	0.758246	0.002896
	Zn225	Zn	0.508951	0.256632	0.003924
	Zn226	Zn	0.757773	0.006733	0.504359
	Zn227	Zn	0.255727	0.007567	0.504980
	N228	N	0.419501	0.971461	0.685314
	N229	N	0.595087	0.041331	0.685702
	N230	N	0.592585	0.970396	0.324993
	N231	N	0.418816	0.041662	0.322572
	N232	N	0.685665	0.421608	0.967048
	N233	N	0.687018	0.594118	0.038491
	N234	N	0.327519	0.593724	0.967082
	N235	N	0.329776	0.421184	0.038443
	N236	N	0.970955	0.686554	0.418718
	N237	N	0.042140	0.688123	0.593536
	N238	N	0.971396	0.326198	0.592652
	N239	N	0.041086	0.327968	0.418305
	N240	N	0.970692	0.421644	0.682726
	N241	N	0.043749	0.592635	0.683524
	N242	N	0.970646	0.593708	0.324856
	N243	N	0.041951	0.421522	0.327032
	N244	N	0.418700	0.689516	0.967919
	N245	N	0.594221	0.688330	0.038171
	N246	N	0.598331	0.323243	0.970199
	N247	N	0.421269	0.326384	0.038276
	N248	N	0.687486	0.970946	0.417244
	N249	N	0.687888	0.042009	0.591374
	N250	N	0.326953	0.970827	0.590416
	N251	N	0.326169	0.042712	0.417622
	N252	N	0.919476	0.471102	0.185262
	N253	N	0.094547	0.540695	0.185562
	N254	N	0.095513	0.471216	0.822445
	N255	N	0.919831	0.540987	0.822991
	N256	N	0.183577	0.923017	0.468812
	N257	N	0.186058	0.094405	0.540178
	N258	N	0.828048	0.092863	0.467825
	N259	N	0.828911	0.922116	0.541100
	N260	N	0.472594	0.186676	0.917629
	N261	N	0.544253	0.188109	0.092479
	N262	N	0.472549	0.827693	0.090072
	N263	N	0.541728	0.826723	0.915730
	N264	N	0.471421	0.922231	0.181428
	N265	N	0.543482	0.094718	0.185318
	N266	N	0.472656	0.094450	0.824234
	N267	N	0.542555	0.920286	0.824691
	N268	N	0.918087	0.188882	0.469109
	N269	N	0.093579	0.188432	0.539392
	N270	N	0.094837	0.825742	0.471569
	N271	N	0.918239	0.825157	0.540131
	N272	N	0.187451	0.470510	0.917118
	N273	N	0.187313	0.541336	0.090367
	N274	N	0.825579	0.471717	0.091999
	N275	N	0.828461	0.542344	0.917645
	O276	O	0.494233	0.350056	0.294484
	H277	H	0.499077	0.340683	0.299850
	H278	H	0.484353	0.359386	0.293274
	O279	O	0.529936	0.373945	0.496035
	H280	H	0.533099	0.361509	0.507211
	H281	H	0.529515	0.381294	0.487457
	O282	O	1.225157	1.225645	0.220601
	H283	H	1.210346	1.224357	0.205247
	H284	H	1.251120	1.244409	0.242469
	O285	O	1.012127	-0.124254	-0.030207
	H286	H	1.035203	-0.131691	-0.047638
	H287	H	1.004444	-0.123244	-0.043592
	O288	O	0.006231	0.216864	0.213215
	H289	H	0.030199	0.207705	0.206127
	H290	H	0.012366	0.232812	0.233822
	O291	O	1.191667	0.827655	-0.184340
	H292	H	1.166690	0.815397	-0.171296
	H293	H	1.180571	0.815604	-0.155055
	O294	O	-0.067226	0.930053	-0.204038
	H295	H	-0.089555	0.943848	-0.210348
	H296	H	-0.084705	0.929061	-0.204705
	O297	O	0.322984	0.334299	0.336933
	H298	H	0.344264	0.338562	0.355489
	H299	H	0.338145	0.359476	0.337448
	O300	O	0.719541	0.282698	0.487689
	H301	H	0.735504	0.270220	0.467408
	H302	H	0.726021	0.276669	0.464593
	O303	O	0.309442	0.304929	0.657561
	H304	H	0.313851	0.326921	0.670729
	H305	H	0.311827	0.299111	0.659133
	O306	O	-0.022398	1.147877	1.035377
	H307	H	-0.027847	1.139176	1.043757
	H308	H	-0.004956	1.149435	1.030751
	O309	O	0.138745	-0.024185	0.089188
	H310	H	0.155979	-0.010195	0.084867
	H311	H	0.117438	-0.017290	0.094615
	O312	O	0.493755	0.499515	0.457244
	H313	H	0.489401	0.494649	0.463045
	H314	H	0.502590	0.491540	0.457946
	O315	O	0.154532	0.223382	1.024876
	H316	H	0.171816	0.244953	1.015842
	H317	H	0.144932	0.209469	1.013662
	O318	O	-0.012128	1.207800	-0.196476
	H319	H	-0.003110	1.214678	-0.206479
	H320	H	-0.012519	1.190020	-0.195850
	O321	O	0.708777	0.584796	0.349874
	H322	H	0.708185	0.578742	0.356960
	H323	H	0.707359	0.576399	0.358007
	O324	O	0.707144	0.707428	0.703020
	H325	H	0.703012	0.699848	0.668597
	H326	H	0.665433	0.705449	0.703921
	O327	O	0.629449	0.312032	1.319664
	H328	H	0.615780	0.327839	1.322858
	H329	H	0.616791	0.322597	1.302540
	O330	O	0.935456	0.006362	0.195625
	H331	H	0.924587	0.021828	0.190823
	H332	H	0.949486	0.025958	0.192927
	O333	O	0.882746	0.921284	0.987205
	H334	H	0.859619	0.917830	1.000957
	H335	H	0.901679	0.923893	0.984091
	O336	O	0.895156	0.069964	1.139327
	H337	H	0.897194	0.076964	1.131787
	H338	H	0.897075	0.064440	1.134667
	O339	O	0.579353	0.534042	0.701317
	H340	H	0.569923	0.521955	0.702217
	H341	H	0.604807	0.531184	0.701225
	O342	O	0.313531	0.487720	0.569161
	H343	H	0.302288	0.461135	0.563072
	H344	H	0.320838	0.491145	0.576526
	O345	O	0.003705	-0.179619	0.140297
	H346	H	-0.010233	-0.170477	0.158965
	H347	H	-0.005251	-0.188591	0.130412
	O348	O	1.134417	0.180134	1.033582
	H349	H	1.156011	0.194492	1.037660
	H350	H	1.132865	0.182089	1.039146
	O351	O	0.863498	0.810976	-0.137026
	H352	H	0.854498	0.798429	-0.136846
	H353	H	0.863532	0.805845	-0.143428
	O354	O	0.607552	0.333795	0.600859
	H355	H	0.612822	0.333460	0.591263
	H356	H	0.604104	0.339039	0.596987
	O357	O	1.006115	1.040744	1.020286
	H358	H	0.998281	1.053237	1.022014
	H359	H	1.002840	1.017648	1.014121
	O360	O	0.660862	0.425115	0.563208
	H361	H	0.673236	0.416640	0.571545
	H362	H	0.668651	0.408141	0.558391
	O363	O	0.437817	0.510463	0.646294
	H364	H	0.431873	0.490722	0.634033
	H365	H	0.441292	0.491246	0.670128
	O366	O	0.812932	0.195145	0.806052
	H367	H	0.837959	0.196742	0.820709
	H368	H	0.808581	0.192494	0.815879
	O369	O	0.524030	0.596042	0.376230
	H370	H	0.513069	0.599568	0.367537
	H371	H	0.532079	0.584176	0.378275
	O372	O	0.709151	0.423941	0.300584
	H373	H	0.697570	0.454766	0.289576
	H374	H	0.700433	0.426276	0.272754
	O375	O	0.128590	1.187692	0.868337
	H376	H	0.139342	1.176779	0.857096
	H377	H	0.118584	1.183186	0.866902
	O378	O	0.702312	0.691667	0.527710
	H379	H	0.702076	0.665028	0.524946
	H380	H	0.693928	0.702195	0.521719
	O381	O	0.815567	0.025557	0.179609
	H382	H	0.810248	0.033121	0.179995
	H383	H	0.814887	0.016097	0.187184
	O384	O	-0.196768	0.028118	0.803362
	H385	H	-0.207069	0.036598	0.801812
	H386	H	-0.212395	0.035303	0.814925
	O387	O	-0.198068	1.214993	0.970878
	H388	H	-0.202377	1.226757	0.967546
	H389	H	-0.204048	1.211964	0.985640
	O390	O	0.208775	-0.190174	0.976757
	H391	H	0.217483	-0.164034	0.999038
	H392	H	0.214199	-0.201761	0.991641
	O393	O	0.820315	0.812047	0.196715
	H394	H	0.802269	0.827624	0.212814
	H395	H	0.825835	0.809355	0.174178
	O396	O	0.429986	0.371722	0.560157
	H397	H	0.433731	0.391214	0.561528
	H398	H	0.429966	0.370597	0.563720
	O399	O	0.193262	0.817589	0.193678
	H400	H	0.185153	0.847324	0.171950
	H401	H	0.158201	0.825791	0.183893
	O402	O	0.218993	0.038908	1.215658
	H403	H	0.232901	0.046192	1.241578
	H404	H	0.221132	0.060994	1.201727
	O405	O	-0.072025	-0.203838	0.029265
	H406	H	-0.081137	-0.213587	0.035662
	H407	H	-0.057395	-0.205417	0.030555
	O408	O	0.475697	0.721466	0.286545
	H409	H	0.469575	0.724915	0.275622
	H410	H	0.451031	0.733302	0.275903
	O411	O	0.461574	0.721967	0.568975
	H412	H	0.467211	0.722704	0.544678
	H413	H	0.460953	0.710725	0.562671
	O414	O	0.523129	0.679941	0.721309
	H415	H	0.516493	0.672335	0.725670
	H416	H	0.514551	0.706292	0.725926
	O417	O	0.338296	0.452978	0.533064
	H418	H	0.342705	0.455784	0.536758
	H419	H	0.331551	0.459731	0.524536
	O420	O	0.532682	0.583700	0.355529
	H421	H	0.521576	0.574903	0.364000
	H422	H	0.521940	0.598344	0.371269
	O423	O	-0.557834	0.432193	0.598252
	H424	H	-0.563441	0.419933	0.611345
	H425	H	-0.549159	0.438225	0.586953
	O426	O	1.065241	1.065326	0.828606
	H427	H	1.065166	1.057586	0.830291
	H428	H	1.052963	1.041667	0.821393
	O429	O	0.291227	0.535010	0.281335
	H430	H	0.259177	0.548879	0.250175
	H431	H	0.295901	0.574378	0.294610
	O432	O	0.814022	-0.021150	0.982666
	H433	H	0.808862	-0.037896	0.990609
	H434	H	0.825918	-0.017001	0.990453
	O435	O	0.219269	0.016499	-0.010093
	H436	H	0.208371	0.030081	-0.010568
	H437	H	0.223557	0.029732	-0.035259
	O438	O	1.021113	-0.061331	0.211571
	H439	H	1.006237	-0.048262	0.203982
	H440	H	1.014826	-0.061301	0.221215
	O441	O	0.510048	0.517633	0.470974
	H442	H	0.521718	0.507464	0.489808
	H443	H	0.503579	0.506750	0.443006
	O444	O	0.222088	0.987290	0.791984
	H445	H	0.221155	0.964560	0.786944
	H446	H	0.235720	0.955823	0.777690
	O447	O	0.567178	0.670962	0.381976
	H448	H	0.556068	0.683113	0.381998
	H449	H	0.564699	0.672662	0.378636
	O450	O	0.301814	0.714167	0.294509
	H451	H	0.288719	0.737383	0.287353
	H452	H	0.283979	0.731773	0.314112
	O453	O	0.486971	0.291669	0.717427
	H454	H	0.481708	0.289062	0.715228
	H455	H	0.493004	0.276197	0.730419
	O456	O	0.716448	-0.492645	-0.338069
	H457	H	0.714736	-0.477109	-0.338831
	H458	H	0.738331	-0.485627	-0.324910
	O459	O	0.379131	0.542663	0.718258
	H460	H	0.394638	0.553658	0.707924
	H461	H	0.364103	0.550623	0.743792
	O462	O	0.289375	0.726557	0.468794
	H463	H	0.289614	0.726874	0.488705
	H464	H	0.270876	0.737905	0.473650
	O465	O	1.031773	-0.212819	-0.211127
	H466	H	1.027943	-0.238834	-0.243562
	H467	H	1.012621	-0.185175	-0.216016
