data_Molecule from HDF5

_cell_length_a		16.333451
_cell_length_b		16.053980
_cell_length_c		16.203473
_cell_angle_alpha	90.638876
_cell_angle_beta	89.869329
_cell_angle_gamma	89.350435
_symmetry_space_group_name_H-M	'P 1'
_symmetry_Int_Tables_number		1

loop_
	_symmetry_equiv_pos_as_xyz
	x,y,z

loop_
	_atom_site_label
	_atom_site_type_symbol
	_atom_site_fract_x
	_atom_site_fract_y
	_atom_site_fract_z
	H0	H	0.401054	0.837554	0.705911
	H1	H	0.592300	0.168699	0.713784
	H2	H	0.596325	0.838906	0.281710
	H3	H	0.394194	0.170292	0.286533
	H4	H	0.709661	0.396986	0.834688
	H5	H	0.707241	0.605256	0.161652
	H6	H	0.273704	0.606569	0.834892
	H7	H	0.276408	0.405509	0.161493
	H8	H	0.831768	0.722772	0.400515
	H9	H	0.158353	0.716439	0.597553
	H10	H	0.830316	0.293483	0.595575
	H11	H	0.157760	0.288144	0.397190
	H12	H	0.829613	0.407920	0.711641
	H13	H	0.154628	0.606846	0.718092
	H14	H	0.830870	0.606044	0.282973
	H15	H	0.156100	0.399637	0.278727
	H16	H	0.394155	0.714651	0.831747
	H17	H	0.586651	0.717866	0.162504
	H18	H	0.590328	0.288379	0.833500
	H19	H	0.396856	0.294457	0.163600
	H20	H	0.715518	0.840904	0.392248
	H21	H	0.705919	0.170660	0.598741
	H22	H	0.281595	0.840051	0.598814
	H23	H	0.276598	0.168545	0.398353
	H24	H	0.895908	0.337693	0.210026
	H25	H	0.088180	0.669734	0.212443
	H26	H	0.091698	0.339357	0.782204
	H27	H	0.892835	0.671541	0.789602
	H28	H	0.213738	0.899061	0.335174
	H29	H	0.209229	0.106513	0.661560
	H30	H	0.775838	0.109704	0.334185
	H31	H	0.778471	0.906281	0.660418
	H32	H	0.330285	0.217702	0.901536
	H33	H	0.657150	0.216198	0.095678
	H34	H	0.328445	0.796408	0.093927
	H35	H	0.655004	0.783872	0.896969
	H36	H	0.331863	0.906946	0.214288
	H37	H	0.656082	0.106371	0.214828
	H38	H	0.331175	0.104159	0.782648
	H39	H	0.656920	0.899080	0.780770
	H40	H	0.898688	0.216761	0.331807
	H41	H	0.090622	0.219581	0.662628
	H42	H	0.095865	0.787247	0.334139
	H43	H	0.898286	0.796820	0.663598
	H44	H	0.210888	0.340362	0.893755
	H45	H	0.203962	0.669884	0.100233
	H46	H	0.780932	0.336408	0.095902
	H47	H	0.772388	0.667466	0.899019
	H48	H	0.397616	0.123570	0.588200
	H49	H	0.596252	0.885398	0.582441
	H50	H	0.585076	0.125831	0.398868
	H51	H	0.404210	0.886869	0.407788
	H52	H	0.586035	0.421354	0.113021
	H53	H	0.584615	0.591892	0.879881
	H54	H	0.400267	0.597121	0.113901
	H55	H	0.404901	0.409580	0.882692
	H56	H	0.109327	0.589836	0.401749
	H57	H	0.876883	0.598204	0.595362
	H58	H	0.109241	0.418310	0.595235
	H59	H	0.879708	0.418283	0.404577
	H60	H	0.112536	0.406859	0.590945
	H61	H	0.875201	0.605854	0.594620
	H62	H	0.111581	0.598618	0.403316
	H63	H	0.875816	0.411626	0.397537
	H64	H	0.396716	0.603285	0.115951
	H65	H	0.584848	0.589245	0.881906
	H66	H	0.578922	0.404040	0.116040
	H67	H	0.396581	0.408083	0.878273
	H68	H	0.578210	0.118563	0.410710
	H69	H	0.590727	0.883577	0.592943
	H70	H	0.401170	0.124087	0.594165
	H71	H	0.404154	0.885385	0.403511
	H72	H	0.897155	0.619450	0.083539
	H73	H	0.086490	0.388964	0.076896
	H74	H	0.087579	0.623008	0.913548
	H75	H	0.901270	0.385498	0.902450
	H76	H	0.097399	0.921185	0.616282
	H77	H	0.084784	0.088966	0.383200
	H78	H	0.899331	0.099288	0.614490
	H79	H	0.911081	0.914906	0.382661
	H80	H	0.609184	0.088829	0.906728
	H81	H	0.376796	0.108551	0.083372
	H82	H	0.608514	0.910847	0.083483
	H83	H	0.377731	0.908910	0.908387
	H84	H	0.610416	0.914359	0.093243
	H85	H	0.381287	0.086578	0.090802
	H86	H	0.611526	0.094949	0.899556
	H87	H	0.378062	0.919475	0.898702
	H88	H	0.900626	0.099820	0.613485
	H89	H	0.085816	0.101509	0.378971
	H90	H	0.080711	0.913938	0.612348
	H91	H	0.903334	0.908785	0.378816
	H92	H	0.085565	0.625249	0.902807
	H93	H	0.095855	0.382373	0.089810
	H94	H	0.892504	0.622962	0.092501
	H95	H	0.900957	0.384642	0.903128
	H96	H	0.404682	0.121626	0.589652
	H97	H	0.584605	0.887788	0.582759
	H98	H	0.593486	0.123831	0.411714
	H99	H	0.407319	0.886846	0.404674
	H100	H	0.597504	0.408156	0.119773
	H101	H	0.581443	0.590996	0.882246
	H102	H	0.393167	0.597812	0.115217
	H103	H	0.398429	0.416843	0.882268
	H104	H	0.108108	0.592819	0.409607
	H105	H	0.877711	0.601886	0.588713
	H106	H	0.106723	0.415543	0.583282
	H107	H	0.877474	0.408411	0.407737
	H108	H	0.902697	0.620653	0.093315
	H109	H	0.078573	0.385592	0.092238
	H110	H	0.077446	0.620718	0.909424
	H111	H	0.900617	0.384666	0.902407
	H112	H	0.094201	0.904054	0.619422
	H113	H	0.095867	0.092766	0.378432
	H114	H	0.898911	0.100463	0.615448
	H115	H	0.901455	0.919738	0.381533
	H116	H	0.609689	0.097446	0.908443
	H117	H	0.372902	0.102295	0.105384
	H118	H	0.611888	0.905010	0.090443
	H119	H	0.372988	0.906683	0.894676
	C120	C	0.373958	0.013483	0.618630
	C121	C	0.617112	0.995051	0.617629
	C122	C	0.616721	0.013722	0.375561
	C123	C	0.374258	0.995577	0.377008
	C124	C	0.615674	0.380266	0.007300
	C125	C	0.612609	0.622704	0.989416
	C126	C	0.368827	0.627142	0.006336
	C127	C	0.371497	0.383393	0.989548
	C128	C	0.002443	0.625407	0.376355
	C129	C	0.984555	0.629617	0.622087
	C130	C	0.001655	0.385000	0.618730
	C131	C	0.985400	0.381733	0.373840
	C132	C	0.870882	0.511596	0.118354
	C133	C	0.113921	0.495285	0.117795
	C134	C	0.114126	0.514095	0.876646
	C135	C	0.870499	0.494801	0.875652
	C136	C	0.119106	0.881993	0.507278
	C137	C	0.116483	0.125244	0.489021
	C138	C	0.871469	0.128568	0.505971
	C139	C	0.875519	0.885852	0.489354
	C140	C	0.502307	0.123911	0.876407
	C141	C	0.484674	0.127299	0.121081
	C142	C	0.502079	0.883564	0.117964
	C143	C	0.484132	0.880067	0.872428
	C144	C	0.379078	0.887884	0.670763
	C145	C	0.613595	0.119299	0.675771
	C146	C	0.616824	0.889054	0.318766
	C147	C	0.374731	0.120528	0.323306
	C148	C	0.671155	0.379414	0.883773
	C149	C	0.668314	0.623522	0.112835
	C150	C	0.312699	0.625388	0.883365
	C151	C	0.315841	0.386288	0.113142
	C152	C	0.880106	0.683683	0.379599
	C153	C	0.108498	0.681375	0.618927
	C154	C	0.879018	0.330865	0.615833
	C155	C	0.108272	0.325139	0.376309
	C156	C	0.878741	0.387926	0.673681
	C157	C	0.106618	0.626419	0.678715
	C158	C	0.879718	0.625636	0.321140
	C159	C	0.107546	0.380546	0.317125
	C160	C	0.372324	0.679828	0.881949
	C161	C	0.608649	0.679926	0.113295
	C162	C	0.611528	0.325299	0.882950
	C163	C	0.375462	0.330755	0.114059
	C164	C	0.675797	0.889882	0.374204
	C165	C	0.669629	0.120392	0.617976
	C166	C	0.319809	0.889145	0.617150
	C167	C	0.316010	0.119482	0.378800
	C168	C	0.875103	0.386997	0.172990
	C169	C	0.109121	0.620316	0.174360
	C170	C	0.112549	0.389338	0.819837
	C171	C	0.871870	0.620954	0.824545
	C172	C	0.175378	0.880469	0.384116
	C173	C	0.171006	0.125219	0.612733
	C174	C	0.815489	0.127543	0.382765
	C175	C	0.818206	0.887711	0.612196
	C176	C	0.379144	0.179933	0.880181
	C177	C	0.607969	0.180569	0.117495
	C178	C	0.378139	0.831940	0.115235
	C179	C	0.606483	0.822137	0.875545
	C180	C	0.379896	0.887149	0.175029
	C181	C	0.607409	0.125536	0.176767
	C182	C	0.379870	0.123578	0.820836
	C183	C	0.607447	0.879787	0.818025
	C184	C	0.876098	0.181566	0.381590
	C185	C	0.112018	0.181361	0.613316
	C186	C	0.116640	0.824691	0.383640
	C187	C	0.877661	0.832915	0.613645
	C188	C	0.171799	0.389667	0.875444
	C189	C	0.166767	0.620460	0.118361
	C190	C	0.818019	0.386385	0.116189
	C191	C	0.811949	0.618795	0.879008
	C192	C	0.394964	0.100640	0.596966
	C193	C	0.596602	0.908165	0.593228
	C194	C	0.592670	0.100333	0.399984
	C195	C	0.398396	0.908684	0.398949
	C196	C	0.593747	0.404138	0.093912
	C197	C	0.590209	0.597965	0.903653
	C198	C	0.390288	0.605744	0.092680
	C199	C	0.393398	0.405054	0.903494
	C200	C	0.087655	0.601042	0.398408
	C201	C	0.898979	0.608428	0.599472
	C202	C	0.087324	0.407224	0.596402
	C203	C	0.899718	0.405639	0.396631
	C204	C	0.891327	0.598508	0.096311
	C205	C	0.093203	0.408223	0.093371
	C206	C	0.090585	0.600963	0.901266
	C207	C	0.894080	0.407693	0.896376
	C208	C	0.097117	0.905940	0.593629
	C209	C	0.095122	0.101276	0.402705
	C210	C	0.893055	0.106415	0.592216
	C211	C	0.898629	0.907836	0.403301
	C212	C	0.587965	0.100570	0.898449
	C213	C	0.399213	0.105491	0.099685
	C214	C	0.588046	0.904165	0.095695
	C215	C	0.398536	0.904431	0.894127
	Zn216	Zn	0.494724	0.003368	0.744809
	Zn217	Zn	0.494859	0.004750	0.248625
	Zn218	Zn	0.743045	0.501255	-0.001866
	Zn219	Zn	0.242078	0.505016	-0.001905
	Zn220	Zn	-0.004335	0.756124	0.498992
	Zn221	Zn	-0.005506	0.255027	0.497046
	Zn222	Zn	-0.008061	0.506051	0.748951
	Zn223	Zn	-0.006749	0.503194	0.245457
	Zn224	Zn	0.491483	0.753684	-0.003282
	Zn225	Zn	0.493458	0.254092	-0.001565
	Zn226	Zn	0.744908	0.005662	0.496785
	Zn227	Zn	0.246314	0.004155	0.498238
	N228	N	0.411931	0.966385	0.672002
	N229	N	0.581552	0.040387	0.675770
	N230	N	0.581015	0.967068	0.319307
	N231	N	0.410412	0.042418	0.322189
	N232	N	0.673908	0.412636	0.962281
	N233	N	0.670918	0.588821	0.034782
	N234	N	0.310165	0.593547	0.961771
	N235	N	0.313064	0.418241	0.034726
	N236	N	0.957290	0.683659	0.413342
	N237	N	0.031619	0.683442	0.584338
	N238	N	0.956472	0.329028	0.582121
	N239	N	0.031161	0.325599	0.410837
	N240	N	0.956161	0.420958	0.675485
	N241	N	0.028553	0.595208	0.681014
	N242	N	0.956728	0.590210	0.319027
	N243	N	0.030250	0.415172	0.315607
	N244	N	0.406520	0.681204	0.959354
	N245	N	0.574704	0.679542	0.035519
	N246	N	0.577926	0.325465	0.960923
	N247	N	0.409400	0.328754	0.036285
	N248	N	0.676049	0.968617	0.408651
	N249	N	0.672055	0.042112	0.582656
	N250	N	0.316451	0.968236	0.585399
	N251	N	0.315650	0.040845	0.411407
	N252	N	0.907285	0.465833	0.174545
	N253	N	0.077266	0.541538	0.174180
	N254	N	0.077411	0.467738	0.820545
	N255	N	0.907495	0.542895	0.822334
	N256	N	0.177251	0.915258	0.462128
	N257	N	0.173830	0.091123	0.534472
	N258	N	0.812434	0.095492	0.461220
	N259	N	0.816842	0.920046	0.533873
	N260	N	0.456300	0.180522	0.913688
	N261	N	0.530789	0.182088	0.083674
	N262	N	0.455096	0.829399	0.080431
	N263	N	0.528845	0.822096	0.908566
	N264	N	0.457996	0.918383	0.176883
	N265	N	0.529886	0.093127	0.179302
	N266	N	0.457560	0.089619	0.818280
	N267	N	0.530451	0.915120	0.815897
	N268	N	0.910204	0.182271	0.459143
	N269	N	0.078880	0.181638	0.535337
	N270	N	0.082550	0.825359	0.461299
	N271	N	0.912904	0.831849	0.536368
	N272	N	0.173030	0.468352	0.909868
	N273	N	0.169849	0.541653	0.083663
	N274	N	0.815258	0.464796	0.082799
	N275	N	0.811149	0.539402	0.910130
	O276	O	1.025720	-0.126076	0.951060
	H277	H	1.031885	-0.134106	0.943335
	H278	H	1.029532	-0.111731	0.946414
	O279	O	0.520450	0.429177	0.516845
	H280	H	0.520876	0.419679	0.521224
	H281	H	0.502406	0.420483	0.519999
	O282	O	0.481185	0.479994	0.602196
	H283	H	0.486043	0.465915	0.608402
	H284	H	0.477673	0.466401	0.594163
	O285	O	0.514275	0.486842	0.355522
	H286	H	0.512176	0.488097	0.352652
	H287	H	0.520117	0.493458	0.369265
	O288	O	0.576715	0.551653	0.504403
	H289	H	0.577983	0.543834	0.501053
	H290	H	0.578637	0.539949	0.510546
	O291	O	0.000589	0.044849	1.058836
	H292	H	-0.003606	0.032779	1.058816
	H293	H	-0.010786	0.035804	1.060648
	O294	O	1.037866	0.979757	0.089254
	H295	H	1.036902	0.978166	0.093342
	H296	H	1.042337	0.978332	0.089646
	O297	O	1.002170	1.026744	0.024609
	H298	H	0.992423	1.027545	0.032892
	H299	H	1.009088	1.021357	0.034384
	O300	O	0.613516	0.348963	0.435533
	H301	H	0.611249	0.347174	0.437063
	H302	H	0.621097	0.349170	0.438207
	O303	O	0.484086	0.415080	0.529073
	H304	H	0.483996	0.420777	0.512961
	H305	H	0.471073	0.418316	0.542804
	O306	O	0.488309	0.376947	0.379407
	H307	H	0.491943	0.376155	0.377557
	H308	H	0.487762	0.370006	0.367463
	O309	O	0.577522	0.557657	0.417993
	H310	H	0.579389	0.543848	0.421646
	H311	H	0.565216	0.555885	0.411117
	O312	O	0.909524	1.001491	0.936827
	H313	H	0.907295	1.015777	0.936042
	H314	H	0.901668	0.988232	0.927798
	O315	O	1.059519	1.132801	0.112562
	H316	H	1.068328	1.143203	0.107885
	H317	H	1.058988	1.123514	0.127453
	O318	O	0.568184	0.508302	0.660176
	H319	H	0.563778	0.498130	0.646789
	H320	H	0.549353	0.518449	0.671499
	O321	O	0.569477	0.495376	0.419933
	H322	H	0.565777	0.505601	0.417641
	H323	H	0.569773	0.508328	0.412217
	O324	O	0.108069	0.960825	0.970934
	H325	H	0.114392	0.952073	0.980277
	H326	H	0.118839	0.963377	0.969911
	O327	O	-0.003732	1.081943	0.924795
	H328	H	0.010485	1.077945	0.919109
	H329	H	0.000251	1.088022	0.922231
	O330	O	-0.012457	-0.085055	-0.028691
	H331	H	-0.007755	-0.082164	-0.018155
	H332	H	-0.007943	-0.089830	-0.032481
	O333	O	0.347597	0.406379	0.660825
	H334	H	0.328760	0.402515	0.664018
	H335	H	0.353381	0.415561	0.658317
	O336	O	-0.071836	-0.026041	-0.016442
	H337	H	-0.083690	-0.028525	-0.009565
	H338	H	-0.082626	-0.024634	-0.024112
	O339	O	0.039305	0.083716	-0.042834
	H340	H	0.048844	0.094254	-0.040951
	H341	H	0.032811	0.070702	-0.025419
	O342	O	0.385571	0.474480	0.531175
	H343	H	0.370261	0.463707	0.538523
	H344	H	0.381313	0.465718	0.531683
	O345	O	0.075708	0.950785	1.053663
	H346	H	0.061402	0.943591	1.055834
	H347	H	0.077744	0.958573	1.046118
	O348	O	0.437631	0.495692	0.551480
	H349	H	0.432225	0.492336	0.543146
	H350	H	0.439826	0.506069	0.549479
	O351	O	0.517510	0.630133	0.591891
	H352	H	0.536615	0.633162	0.596154
	H353	H	0.509033	0.645334	0.588268
	O354	O	-0.014446	1.103441	-0.047266
	H355	H	-0.021175	1.097568	-0.036547
	H356	H	-0.029851	1.110751	-0.049714
	O357	O	0.353920	0.612089	0.411122
	H358	H	0.365130	0.601766	0.410267
	H359	H	0.349674	0.620129	0.407946
	O360	O	1.492436	-0.453509	1.365802
	H361	H	1.490036	-0.448518	1.355119
	H362	H	1.510886	-0.453584	1.362577
	O363	O	0.373546	0.457916	0.444679
	H364	H	0.373060	0.439672	0.458284
	H365	H	0.371225	0.475088	0.447661
	O366	O	0.601493	0.596994	0.458706
	H367	H	0.615839	0.603373	0.461931
	H368	H	0.601233	0.585786	0.470502
	O369	O	0.980080	-0.044306	-0.007884
	H370	H	0.984401	-0.052172	-0.015639
	H371	H	0.974424	-0.045571	-0.003694
	O372	O	0.398199	0.546830	0.578209
	H373	H	0.399291	0.558283	0.575078
	H374	H	0.394133	0.537978	0.572079
	O375	O	1.025289	0.037521	1.100578
	H376	H	1.019547	0.032343	1.098940
	H377	H	1.019059	0.050257	1.097784
	O378	O	-0.154005	0.866537	0.115463
	H379	H	-0.151015	0.866398	0.108289
	H380	H	-0.162923	0.856043	0.114717
	O381	O	0.519766	0.637166	0.611491
	H382	H	0.529037	0.633595	0.615264
	H383	H	0.510942	0.636509	0.613923
	O384	O	1.054135	0.993892	-0.125186
	H385	H	1.054381	0.980761	-0.125116
	H386	H	1.049457	0.999642	-0.120979
	O387	O	0.849724	0.155249	0.942911
	H388	H	0.837832	0.152849	0.943848
	H389	H	0.846682	0.162678	0.920599
	O390	O	0.904233	1.004903	0.018354
	H391	H	0.887935	1.008191	0.018372
	H392	H	0.914795	0.997401	0.007010
	O393	O	0.476364	0.533908	0.355485
	H394	H	0.476129	0.542608	0.353159
	H395	H	0.475456	0.540730	0.365330
