data_Molecule from HDF5

_cell_length_a		16.470812
_cell_length_b		16.363904
_cell_length_c		16.390793
_cell_angle_alpha	89.983441
_cell_angle_beta	90.244975
_cell_angle_gamma	89.942198
_symmetry_space_group_name_H-M	'P 1'
_symmetry_Int_Tables_number		1

loop_
	_symmetry_equiv_pos_as_xyz
	x,y,z

loop_
	_atom_site_label
	_atom_site_type_symbol
	_atom_site_fract_x
	_atom_site_fract_y
	_atom_site_fract_z
	H0	H	0.394518	0.847081	0.731508
	H1	H	0.604153	0.163853	0.729637
	H2	H	0.607724	0.848684	0.286076
	H3	H	0.392822	0.165681	0.288427
	H4	H	0.719809	0.400968	0.851624
	H5	H	0.725425	0.614366	0.167139
	H6	H	0.277576	0.610156	0.851959
	H7	H	0.277004	0.395389	0.168270
	H8	H	0.843028	0.729157	0.401810
	H9	H	0.158250	0.727201	0.617546
	H10	H	0.842314	0.285118	0.612898
	H11	H	0.159592	0.283487	0.406716
	H12	H	0.841985	0.401704	0.728733
	H13	H	0.158678	0.610276	0.732356
	H14	H	0.843796	0.612905	0.284796
	H15	H	0.158779	0.397548	0.288978
	H16	H	0.395058	0.725376	0.850885
	H17	H	0.607273	0.728100	0.168116
	H18	H	0.600355	0.288075	0.850495
	H19	H	0.395388	0.283749	0.169187
	H20	H	0.725561	0.849409	0.399561
	H21	H	0.720785	0.164009	0.615814
	H22	H	0.277637	0.848153	0.616966
	H23	H	0.277632	0.164764	0.403506
	H24	H	0.893995	0.347063	0.231970
	H25	H	0.109738	0.660962	0.234975
	H26	H	0.103072	0.344572	0.791275
	H27	H	0.894393	0.663740	0.787323
	H28	H	0.223051	0.898321	0.352489
	H29	H	0.224831	0.113836	0.667563
	H30	H	0.776704	0.112675	0.352595
	H31	H	0.778671	0.899313	0.668122
	H32	H	0.341041	0.226129	0.905911
	H33	H	0.659050	0.225467	0.114621
	H34	H	0.343406	0.782457	0.115612
	H35	H	0.657810	0.783264	0.902836
	H36	H	0.343084	0.899329	0.231599
	H37	H	0.657222	0.112308	0.233747
	H38	H	0.341362	0.110124	0.788399
	H39	H	0.658586	0.900822	0.789522
	H40	H	0.895194	0.225799	0.350287
	H41	H	0.104615	0.225248	0.669574
	H42	H	0.106701	0.781918	0.352725
	H43	H	0.894492	0.784239	0.668529
	H44	H	0.222148	0.345096	0.903671
	H45	H	0.225421	0.660903	0.119173
	H46	H	0.777689	0.347360	0.116506
	H47	H	0.777670	0.663951	0.902438
	H48	H	0.419142	0.116813	0.598713
	H49	H	0.587062	0.890985	0.599375
	H50	H	0.591462	0.121020	0.421566
	H51	H	0.412125	0.894087	0.424527
	H52	H	0.593232	0.421688	0.123963
	H53	H	0.580447	0.590650	0.900345
	H54	H	0.412586	0.590568	0.122714
	H55	H	0.414384	0.419205	0.899611
	H56	H	0.113591	0.593176	0.418637
	H57	H	0.889276	0.590146	0.598350
	H58	H	0.112430	0.422067	0.600939
	H59	H	0.885776	0.412304	0.418669
	H60	H	0.117225	0.412002	0.605524
	H61	H	0.886251	0.595544	0.602121
	H62	H	0.112524	0.596819	0.426165
	H63	H	0.890251	0.416559	0.426337
	H64	H	0.415525	0.592680	0.121655
	H65	H	0.589816	0.600956	0.893344
	H66	H	0.585894	0.415038	0.123482
	H67	H	0.410075	0.412963	0.896130
	H68	H	0.583602	0.118452	0.420467
	H69	H	0.589488	0.891495	0.595823
	H70	H	0.408805	0.118156	0.590930
	H71	H	0.409024	0.891397	0.420331
	H72	H	0.918871	0.613377	0.089736
	H73	H	0.093260	0.390397	0.093916
	H74	H	0.091825	0.621428	0.911480
	H75	H	0.907525	0.389485	0.916330
	H76	H	0.091529	0.916559	0.624708
	H77	H	0.087253	0.092936	0.397294
	H78	H	0.911328	0.104812	0.626892
	H79	H	0.910224	0.919843	0.397326
	H80	H	0.614681	0.095472	0.915023
	H81	H	0.388063	0.094177	0.094770
	H82	H	0.614536	0.911732	0.097062
	H83	H	0.384990	0.915418	0.914773
	H84	H	0.609409	0.921375	0.093709
	H85	H	0.388240	0.092038	0.100565
	H86	H	0.614239	0.100387	0.921866
	H87	H	0.387300	0.910846	0.923199
	H88	H	0.901994	0.091322	0.625728
	H89	H	0.089496	0.096580	0.396105
	H90	H	0.090055	0.921874	0.621499
	H91	H	0.914065	0.919061	0.398033
	H92	H	0.079597	0.613940	0.924863
	H93	H	0.089456	0.388953	0.103374
	H94	H	0.906165	0.619818	0.093754
	H95	H	0.913811	0.392405	0.919770
	H96	H	0.408322	0.122217	0.603064
	H97	H	0.591082	0.890040	0.599161
	H98	H	0.587660	0.116337	0.427870
	H99	H	0.414670	0.893473	0.419207
	H100	H	0.593873	0.412290	0.127408
	H101	H	0.595394	0.587289	0.896937
	H102	H	0.412326	0.593913	0.123584
	H103	H	0.406165	0.420832	0.896458
	H104	H	0.110632	0.588540	0.424623
	H105	H	0.887620	0.596733	0.595852
	H106	H	0.113601	0.412216	0.594114
	H107	H	0.888728	0.421496	0.417906
	H108	H	0.917382	0.618539	0.103531
	H109	H	0.083475	0.393790	0.096600
	H110	H	0.098582	0.618539	0.929639
	H111	H	0.907026	0.391626	0.923070
	H112	H	0.085752	0.917060	0.622185
	H113	H	0.090880	0.092485	0.396585
	H114	H	0.917063	0.090596	0.620697
	H115	H	0.911284	0.916385	0.396211
	H116	H	0.611126	0.092089	0.921833
	H117	H	0.385515	0.097796	0.099257
	H118	H	0.614646	0.920265	0.103992
	H119	H	0.389217	0.920708	0.922235
	C120	C	0.378956	0.014457	0.630764
	C121	C	0.621054	0.996107	0.630559
	C122	C	0.620929	0.014552	0.389255
	C123	C	0.378424	0.997805	0.388276
	C124	C	0.621482	0.384773	0.019490
	C125	C	0.622194	0.626855	1.001136
	C126	C	0.379326	0.625709	0.018357
	C127	C	0.378541	0.383862	1.002160
	C128	C	0.008495	0.626628	0.388728
	C129	C	0.992110	0.626804	0.631896
	C130	C	0.009510	0.383911	0.631203
	C131	C	0.992431	0.383154	0.388733
	C132	C	0.880079	0.513309	0.130031
	C133	C	0.122189	0.495253	0.131698
	C134	C	0.121799	0.512804	0.889480
	C135	C	0.877744	0.496423	0.887492
	C136	C	0.121827	0.884730	0.518740
	C137	C	0.121741	0.126209	0.501449
	C138	C	0.877889	0.127444	0.519196
	C139	C	0.878547	0.884740	0.501462
	C140	C	0.508432	0.127752	0.887668
	C141	C	0.491397	0.127360	0.131141
	C142	C	0.508757	0.884762	0.130857
	C143	C	0.491455	0.883411	0.887740
	C144	C	0.376286	0.894870	0.691245
	C145	C	0.622624	0.116016	0.690135
	C146	C	0.624731	0.895902	0.327010
	C147	C	0.375284	0.117480	0.327943
	C148	C	0.679797	0.382810	0.899125
	C149	C	0.684340	0.631302	0.120003
	C150	C	0.317708	0.628474	0.899566
	C151	C	0.317894	0.379173	0.121111
	C152	C	0.890398	0.688150	0.384129
	C153	C	0.110620	0.687393	0.635349
	C154	C	0.889983	0.324526	0.632103
	C155	C	0.111611	0.322737	0.387328
	C156	C	0.889821	0.382707	0.689601
	C157	C	0.110969	0.629047	0.692642
	C158	C	0.890668	0.630363	0.325855
	C159	C	0.111415	0.379948	0.328990
	C160	C	0.376551	0.685534	0.898761
	C161	C	0.625607	0.687939	0.120346
	C162	C	0.620530	0.326849	0.898472
	C163	C	0.376850	0.323316	0.121349
	C164	C	0.683693	0.896190	0.383732
	C165	C	0.680894	0.115926	0.633505
	C166	C	0.318092	0.895311	0.634240
	C167	C	0.317587	0.117075	0.385323
	C168	C	0.876111	0.394695	0.191862
	C169	C	0.126939	0.613662	0.194130
	C170	C	0.122368	0.392483	0.830321
	C171	C	0.876424	0.616332	0.827752
	C172	C	0.182549	0.880711	0.399624
	C173	C	0.183802	0.130395	0.620367
	C174	C	0.817245	0.130308	0.399655
	C175	C	0.818533	0.881445	0.620553
	C176	C	0.389026	0.186840	0.886379
	C177	C	0.611062	0.186422	0.133438
	C178	C	0.390611	0.822996	0.133829
	C179	C	0.610464	0.823473	0.885253
	C180	C	0.390433	0.881153	0.191600
	C181	C	0.610375	0.130058	0.192491
	C182	C	0.389002	0.128966	0.828176
	C183	C	0.610824	0.882221	0.828659
	C184	C	0.876358	0.186623	0.398790
	C185	C	0.124043	0.186067	0.621390
	C186	C	0.124533	0.823037	0.399750
	C187	C	0.876261	0.824027	0.620674
	C188	C	0.181558	0.392831	0.886307
	C189	C	0.184693	0.613622	0.136436
	C190	C	0.818162	0.394860	0.134143
	C191	C	0.817814	0.616222	0.884640
	C192	C	0.404625	0.097554	0.605015
	C193	C	0.596244	0.912609	0.605327
	C194	C	0.594818	0.097065	0.415824
	C195	C	0.404413	0.914707	0.414025
	C196	C	0.597816	0.409198	0.103057
	C197	C	0.596126	0.600560	0.918692
	C198	C	0.406098	0.600021	0.101079
	C199	C	0.403224	0.410202	0.919033
	C200	C	0.090736	0.600393	0.415486
	C201	C	0.909296	0.601550	0.606022
	C202	C	0.092773	0.408354	0.607117
	C203	C	0.909893	0.409261	0.413779
	C204	C	0.906629	0.595894	0.103305
	C205	C	0.095921	0.412681	0.105457
	C206	C	0.097205	0.596236	0.914855
	C207	C	0.902179	0.412888	0.912611
	C208	C	0.096581	0.911127	0.601123
	C209	C	0.096423	0.101083	0.418301
	C210	C	0.902903	0.102706	0.602735
	C211	C	0.904316	0.910869	0.418569
	C212	C	0.591726	0.103138	0.912464
	C213	C	0.408830	0.101898	0.105677
	C214	C	0.591326	0.910472	0.105583
	C215	C	0.408717	0.908480	0.912778
	Zn216	Zn	0.500230	0.005079	0.759250
	Zn217	Zn	0.499912	0.006550	0.260246
	Zn218	Zn	0.750436	0.505675	0.009619
	Zn219	Zn	0.250515	0.503589	0.010699
	Zn220	Zn	0.000127	0.756184	0.510164
	Zn221	Zn	0.000328	0.254551	0.510122
	Zn222	Zn	0.000882	0.504579	0.761009
	Zn223	Zn	0.000982	0.504428	0.259937
	Zn224	Zn	0.500632	0.755112	0.009500
	Zn225	Zn	0.499997	0.256341	0.010353
	Zn226	Zn	0.750020	0.005544	0.510312
	Zn227	Zn	0.250847	0.006011	0.509658
	N228	N	0.413301	0.970010	0.689254
	N229	N	0.586189	0.040448	0.688688
	N230	N	0.586206	0.970245	0.330617
	N231	N	0.412441	0.042153	0.329637
	N232	N	0.680835	0.417793	0.975319
	N233	N	0.682375	0.594153	0.044884
	N234	N	0.319157	0.592265	0.975158
	N235	N	0.319049	0.416254	0.045943
	N236	N	0.964584	0.685951	0.422443
	N237	N	0.035450	0.686338	0.598408
	N238	N	0.965364	0.325108	0.596446
	N239	N	0.036446	0.324389	0.423586
	N240	N	0.965094	0.418923	0.689125
	N241	N	0.036048	0.592526	0.691032
	N242	N	0.965417	0.592893	0.328526
	N243	N	0.036355	0.416691	0.329779
	N244	N	0.414093	0.683994	0.973718
	N245	N	0.587663	0.685301	0.045552
	N246	N	0.585261	0.327704	0.974286
	N247	N	0.414029	0.326408	0.046461
	N248	N	0.681409	0.970897	0.421997
	N249	N	0.679935	0.040304	0.597117
	N250	N	0.319729	0.970829	0.597365
	N251	N	0.319291	0.041554	0.421859
	N252	N	0.913854	0.469464	0.189479
	N253	N	0.088673	0.539083	0.191343
	N254	N	0.085842	0.468125	0.832240
	N255	N	0.912915	0.540916	0.829399
	N256	N	0.181204	0.918136	0.474624
	N257	N	0.182457	0.094117	0.544731
	N258	N	0.818051	0.094428	0.475492
	N259	N	0.819910	0.918354	0.545176
	N260	N	0.464485	0.186317	0.922477
	N261	N	0.536289	0.184786	0.095976
	N262	N	0.465384	0.825045	0.096801
	N263	N	0.535168	0.823916	0.921141
	N264	N	0.464911	0.918680	0.189966
	N265	N	0.534958	0.094086	0.191192
	N266	N	0.464282	0.092909	0.828764
	N267	N	0.535814	0.918666	0.830041
	N268	N	0.913269	0.185146	0.474086
	N269	N	0.085950	0.183396	0.546651
	N270	N	0.087602	0.825266	0.474671
	N271	N	0.912727	0.825719	0.545424
	N272	N	0.181370	0.468666	0.922426
	N273	N	0.181789	0.539050	0.098514
	N274	N	0.820639	0.469764	0.096430
	N275	N	0.818544	0.540537	0.921176
	O276	O	0.714748	0.291287	0.484337
	H277	H	0.705353	0.303185	0.441379
	H278	H	0.746770	0.263278	0.471679
	O279	O	1.111981	0.099980	0.815630
	H280	H	1.095243	0.097612	0.826726
	H281	H	1.122843	0.104557	0.824788
	O282	O	0.301749	0.593265	0.361904
	H283	H	0.317493	0.579656	0.375252
	H284	H	0.293613	0.597693	0.358631
	O285	O	0.475995	0.708115	0.308483
	H286	H	0.498716	0.718198	0.324807
	H287	H	0.490100	0.719262	0.302043
	O288	O	0.975260	0.825355	0.179962
	H289	H	0.953595	0.834097	0.175939
	H290	H	0.949695	0.811681	0.194166
	O291	O	0.426137	0.388680	0.584812
	H292	H	0.406708	0.384231	0.586517
	H293	H	0.432446	0.395707	0.579683
	O294	O	0.049798	-0.062663	0.995148
	H295	H	0.036438	-0.069379	0.976693
	H296	H	0.049666	-0.093378	0.997322
	O297	O	0.454076	0.431388	0.490992
	H298	H	0.459581	0.430669	0.489020
	H299	H	0.452822	0.439613	0.486252
	O300	O	0.564687	0.721743	0.450405
	H301	H	0.554144	0.719351	0.478286
	H302	H	0.590470	0.726996	0.472042
	O303	O	0.632503	0.496716	0.312993
	H304	H	0.623797	0.511594	0.315246
	H305	H	0.650989	0.502350	0.300402
	O306	O	0.286674	0.713198	0.485292
	H307	H	0.274145	0.727369	0.475820
	H308	H	0.280497	0.717578	0.467107
	O309	O	0.784241	0.030365	0.024230
	H310	H	0.783344	0.035796	0.025748
	H311	H	0.789233	0.029533	0.009870
	O312	O	0.023445	0.787128	0.793572
	H313	H	0.028856	0.759448	0.774846
	H314	H	0.049011	0.796431	0.790255
	O315	O	0.579281	0.393798	0.610258
	H316	H	0.591684	0.378137	0.588400
	H317	H	0.582649	0.398674	0.591716
	O318	O	1.028790	0.208217	-0.058874
	H319	H	1.019667	0.218844	-0.082452
	H320	H	1.010374	0.182853	-0.046301
	O321	O	0.004729	0.146418	-0.174021
	H322	H	0.018086	0.138626	-0.192605
	H323	H	-0.021371	0.146109	-0.188822
	O324	O	0.349205	0.460157	0.327946
	H325	H	0.352896	0.459060	0.321948
	H326	H	0.351200	0.459755	0.329180
	O327	O	0.479084	0.357120	0.711664
	H328	H	0.484566	0.357858	0.712293
	H329	H	0.501945	0.343942	0.714515
	O330	O	-0.024670	0.952601	-0.001414
	H331	H	-0.023132	0.969351	-0.013051
	H332	H	-0.021419	0.953347	-0.004257
	O333	O	0.457119	0.505787	0.580142
	H334	H	0.454129	0.510400	0.573271
	H335	H	0.451280	0.512338	0.575762
	O336	O	0.179700	0.188702	0.187693
	H337	H	0.183575	0.171807	0.173150
	H338	H	0.192604	0.163222	0.175644
	O339	O	0.263446	0.755374	0.267206
	H340	H	0.264439	0.722931	0.269331
	H341	H	0.290891	0.769046	0.259056
	O342	O	-0.080665	1.068356	1.174938
	H343	H	-0.058339	1.046779	1.186420
	H344	H	-0.081971	1.080248	1.176247
	O345	O	0.794201	0.795937	0.035286
	H346	H	0.783109	0.785802	0.018783
	H347	H	0.785528	0.796292	0.015674
	O348	O	0.415633	0.479341	0.313137
	H349	H	0.412434	0.487411	0.318552
	H350	H	0.404216	0.471751	0.312109
	O351	O	-0.055625	0.865854	0.876318
	H352	H	-0.050553	0.862226	0.890430
	H353	H	-0.061194	0.866657	0.850503
	O354	O	0.155936	0.876560	0.077695
	H355	H	0.137905	0.877349	0.083582
	H356	H	0.163000	0.867124	0.089341
	O357	O	0.183525	-0.163374	0.986364
	H358	H	0.185417	-0.180302	0.990323
	H359	H	0.165196	-0.172650	1.000305
	O360	O	0.542751	0.443114	0.616663
	H361	H	0.538453	0.446876	0.620438
	H362	H	0.530455	0.443146	0.599213
	O363	O	0.193902	-0.188045	0.833365
	H364	H	0.187912	-0.158716	0.840238
	H365	H	0.202582	-0.189927	0.870910
	O366	O	0.516585	0.318926	0.309686
	H367	H	0.529871	0.316221	0.300897
	H368	H	0.508814	0.304808	0.322187
	O369	O	0.557657	0.474052	0.378837
	H370	H	0.570234	0.489332	0.364451
	H371	H	0.558563	0.486249	0.383541
	O372	O	0.794036	0.026487	0.805509
	H373	H	0.790781	0.048580	0.812674
	H374	H	0.782897	0.055937	0.788389
	O375	O	0.492017	0.413806	0.447358
	H376	H	0.488777	0.420148	0.448243
	H377	H	0.482868	0.418922	0.461407
	O378	O	0.683206	0.683066	0.689725
	H379	H	0.692418	0.654049	0.711472
	H380	H	0.644014	0.683362	0.696127
	O381	O	0.483548	0.313843	0.641375
	H382	H	0.505297	0.312921	0.617965
	H383	H	0.478130	0.296387	0.635212
	O384	O	0.683360	0.317018	0.322764
	H385	H	0.662377	0.302419	0.302494
	H386	H	0.693967	0.370948	0.312791
	O387	O	0.156314	-0.003941	0.975063
	H388	H	0.158695	-0.013383	0.969910
	H389	H	0.152648	-0.026183	0.969121
	O390	O	-0.114152	0.213381	0.112619
	H391	H	-0.091330	0.210991	0.112732
	H392	H	-0.108011	0.192522	0.114073
	O393	O	1.137455	0.996402	0.869438
	H394	H	1.156798	1.008663	0.857725
	H395	H	1.124972	1.017087	0.873104
	O396	O	0.885679	-0.080729	-0.090162
	H397	H	0.892729	-0.082755	-0.099486
	H398	H	0.895133	-0.073050	-0.097549
	O399	O	0.809882	0.193987	0.815790
	H400	H	0.794396	0.211895	0.842890
	H401	H	0.819269	0.211741	0.809403
	O402	O	1.192757	1.206184	1.023130
	H403	H	1.208470	1.214810	1.024472
	H404	H	1.157511	1.215158	1.015093
	O405	O	1.011351	0.781566	0.025044
	H406	H	1.010056	0.783697	0.058419
	H407	H	1.007655	0.784371	0.017583
	O408	O	0.814129	-0.177461	0.199096
	H409	H	0.807099	-0.131758	0.198050
	H410	H	0.806258	-0.180101	0.153633
	O411	O	1.020654	1.223754	0.221050
	H412	H	1.041056	1.236469	0.237208
	H413	H	1.041313	1.228977	0.230116
	O414	O	0.702657	0.471547	0.547826
	H415	H	0.694116	0.475064	0.531153
	H416	H	0.705934	0.493754	0.538019
	O417	O	0.374697	0.506924	0.704651
	H418	H	0.389567	0.487407	0.700941
	H419	H	0.369951	0.489496	0.703923
	O420	O	0.176794	0.014666	0.213956
	H421	H	0.182524	0.003584	0.214727
	H422	H	0.176335	-0.008956	0.221915
	O423	O	0.650775	0.519612	0.707649
	H424	H	0.639412	0.517350	0.709288
	H425	H	0.665787	0.521804	0.705693
	O426	O	0.526323	0.708114	0.721888
	H427	H	0.521878	0.717592	0.738870
	H428	H	0.509172	0.707390	0.719930
	O429	O	0.064268	0.943421	0.199502
	H430	H	0.069788	0.921266	0.208610
	H431	H	0.088838	0.952537	0.195921
	O432	O	0.691141	0.609241	0.387020
	H433	H	0.692918	0.628807	0.372051
	H434	H	0.684837	0.628726	0.402145
	O435	O	0.372793	0.521270	0.585549
	H436	H	0.362655	0.507876	0.602790
	H437	H	0.361905	0.526958	0.587641
	O438	O	-0.205445	0.212679	-0.017322
	H439	H	-0.223301	0.237882	-0.014739
	H440	H	-0.184895	0.206121	0.002167
	O441	O	1.054877	0.097786	0.007017
	H442	H	1.063952	0.092386	0.023556
	H443	H	1.059151	0.092534	0.007442
	O444	O	-0.203637	0.988285	1.205758
	H445	H	-0.192210	1.009170	1.184409
	H446	H	-0.207147	0.997004	1.225562
	O447	O	0.341529	0.640504	0.643624
	H448	H	0.323995	0.636439	0.645891
	H449	H	0.335179	0.638962	0.659408
	O450	O	0.718424	0.723961	0.533963
	H451	H	0.719014	0.723711	0.574833
	H452	H	0.743697	0.748028	0.549327
	O453	O	0.315821	0.424693	0.597272
	H454	H	0.329196	0.421049	0.581669
	H455	H	0.320822	0.441477	0.596187
