data_Molecule from HDF5

_cell_length_a		16.105967
_cell_length_b		16.281043
_cell_length_c		16.213086
_cell_angle_alpha	90.019062
_cell_angle_beta	90.152155
_cell_angle_gamma	89.883542
_symmetry_space_group_name_H-M	'P 1'
_symmetry_Int_Tables_number		1

loop_
	_symmetry_equiv_pos_as_xyz
	x,y,z

loop_
	_atom_site_label
	_atom_site_type_symbol
	_atom_site_fract_x
	_atom_site_fract_y
	_atom_site_fract_z
	H0	H	0.402861	0.838988	0.708724
	H1	H	0.601799	0.166459	0.711633
	H2	H	0.601132	0.839336	0.281594
	H3	H	0.399598	0.166101	0.277738
	H4	H	0.716480	0.405826	0.829034
	H5	H	0.716825	0.599124	0.159469
	H6	H	0.291480	0.601887	0.830001
	H7	H	0.290351	0.405704	0.159048
	H8	H	0.838100	0.718726	0.394475
	H9	H	0.167618	0.719416	0.593655
	H10	H	0.837767	0.291762	0.591892
	H11	H	0.167134	0.288452	0.393335
	H12	H	0.838230	0.406635	0.705635
	H13	H	0.169103	0.602240	0.706351
	H14	H	0.837767	0.602466	0.280051
	H15	H	0.168869	0.405347	0.281327
	H16	H	0.402857	0.718793	0.832293
	H17	H	0.604741	0.717095	0.159869
	H18	H	0.604975	0.286748	0.831206
	H19	H	0.403614	0.287430	0.158358
	H20	H	0.717981	0.840109	0.395915
	H21	H	0.716106	0.167999	0.594359
	H22	H	0.289707	0.839441	0.590399
	H23	H	0.289585	0.168900	0.397980
	H24	H	0.904447	0.340323	0.209729
	H25	H	0.101833	0.667108	0.208154
	H26	H	0.104259	0.340529	0.777673
	H27	H	0.904443	0.668101	0.778079
	H28	H	0.215752	0.907986	0.329103
	H29	H	0.214621	0.101727	0.659142
	H30	H	0.787285	0.102403	0.329601
	H31	H	0.792370	0.908261	0.659474
	H32	H	0.338652	0.218275	0.895756
	H33	H	0.668984	0.216521	0.095638
	H34	H	0.339120	0.786834	0.095653
	H35	H	0.668086	0.788494	0.898377
	H36	H	0.336474	0.904832	0.206812
	H37	H	0.667633	0.101511	0.211330
	H38	H	0.336566	0.100406	0.783495
	H39	H	0.668464	0.903178	0.782147
	H40	H	0.901570	0.219614	0.329446
	H41	H	0.102416	0.219437	0.657495
	H42	H	0.102023	0.790450	0.329516
	H43	H	0.903374	0.789364	0.657161
	H44	H	0.217319	0.340085	0.897008
	H45	H	0.216920	0.668027	0.091410
	H46	H	0.792915	0.338585	0.089810
	H47	H	0.789495	0.668757	0.896922
	H48	H	0.406653	0.117398	0.577397
	H49	H	0.598942	0.886376	0.587811
	H50	H	0.588787	0.120120	0.398944
	H51	H	0.409750	0.883367	0.389593
	H52	H	0.591656	0.405977	0.111803
	H53	H	0.587037	0.611952	0.875400
	H54	H	0.407620	0.595391	0.114285
	H55	H	0.417959	0.399789	0.876992
	H56	H	0.121942	0.603756	0.406526
	H57	H	0.886663	0.594511	0.582912
	H58	H	0.123722	0.403846	0.584623
	H59	H	0.885946	0.413654	0.401822
	H60	H	0.118312	0.415178	0.578667
	H61	H	0.884011	0.596288	0.589111
	H62	H	0.118979	0.591102	0.402500
	H63	H	0.884506	0.411914	0.399073
	H64	H	0.412906	0.593176	0.111998
	H65	H	0.612166	0.595875	0.872629
	H66	H	0.602472	0.406005	0.114602
	H67	H	0.400775	0.410403	0.874240
	H68	H	0.591718	0.117931	0.407277
	H69	H	0.596460	0.885862	0.591199
	H70	H	0.398719	0.125532	0.598620
	H71	H	0.418606	0.891280	0.407166
	H72	H	0.913863	0.618974	0.088330
	H73	H	0.096136	0.385568	0.091751
	H74	H	0.095891	0.623793	0.890149
	H75	H	0.905494	0.386289	0.901474
	H76	H	0.097795	0.921552	0.608212
	H77	H	0.095504	0.100151	0.374978
	H78	H	0.913329	0.096612	0.609228
	H79	H	0.904203	0.909932	0.373878
	H80	H	0.622749	0.089706	0.895029
	H81	H	0.388000	0.085459	0.086820
	H82	H	0.620785	0.909577	0.088943
	H83	H	0.381283	0.907891	0.891447
	H84	H	0.621293	0.910023	0.089616
	H85	H	0.380305	0.101264	0.095359
	H86	H	0.623494	0.102476	0.903445
	H87	H	0.384370	0.902086	0.908989
	H88	H	0.910141	0.104543	0.612391
	H89	H	0.097225	0.096670	0.376000
	H90	H	0.084283	0.906315	0.609574
	H91	H	0.911211	0.915903	0.377661
	H92	H	0.091851	0.617088	0.904170
	H93	H	0.094772	0.388479	0.085175
	H94	H	0.909817	0.620400	0.083728
	H95	H	0.913641	0.386370	0.893061
	H96	H	0.422039	0.118516	0.595529
	H97	H	0.595121	0.887387	0.587548
	H98	H	0.598078	0.121424	0.401619
	H99	H	0.398419	0.885165	0.407294
	H100	H	0.597979	0.415611	0.109958
	H101	H	0.587497	0.583549	0.884392
	H102	H	0.412849	0.598131	0.113118
	H103	H	0.416899	0.419045	0.882175
	H104	H	0.124666	0.599789	0.393693
	H105	H	0.884311	0.601427	0.583761
	H106	H	0.122785	0.416309	0.592454
	H107	H	0.884848	0.410907	0.402183
	H108	H	0.908218	0.622274	0.089601
	H109	H	0.101279	0.385973	0.086434
	H110	H	0.105947	0.623561	0.901823
	H111	H	0.915917	0.390140	0.903705
	H112	H	0.103723	0.903763	0.616309
	H113	H	0.093243	0.097646	0.376329
	H114	H	0.905575	0.097822	0.612234
	H115	H	0.912805	0.907021	0.376050
	H116	H	0.616965	0.090531	0.910478
	H117	H	0.386929	0.101285	0.076389
	H118	H	0.621410	0.909205	0.089618
	H119	H	0.388295	0.918780	0.905258
	C120	C	0.380783	0.012105	0.617274
	C121	C	0.624715	0.994899	0.617562
	C122	C	0.622904	0.011714	0.373796
	C123	C	0.379809	0.994997	0.372928
	C124	C	0.625984	0.380969	0.003122
	C125	C	0.624943	0.624983	0.986513
	C126	C	0.382329	0.624703	0.004119
	C127	C	0.382250	0.380938	0.985759
	C128	C	0.012480	0.626408	0.372136
	C129	C	0.994438	0.626202	0.614381
	C130	C	0.012121	0.383530	0.613621
	C131	C	0.994306	0.383196	0.372456
	C132	C	0.882070	0.512193	0.115626
	C133	C	0.125489	0.495056	0.115563
	C134	C	0.126123	0.512993	0.871046
	C135	C	0.881854	0.495799	0.871404
	C136	C	0.124167	0.882660	0.502615
	C137	C	0.124055	0.126200	0.484924
	C138	C	0.880135	0.127493	0.502376
	C139	C	0.881223	0.883037	0.484927
	C140	C	0.511685	0.123544	0.874113
	C141	C	0.494344	0.124101	0.116396
	C142	C	0.511786	0.881207	0.117168
	C143	C	0.494061	0.880681	0.874051
	C144	C	0.383275	0.888002	0.670808
	C145	C	0.622219	0.117764	0.673403
	C146	C	0.621131	0.888244	0.319375
	C147	C	0.380416	0.117758	0.316483
	C148	C	0.679878	0.384635	0.878804
	C149	C	0.679839	0.620870	0.110340
	C150	C	0.328055	0.622490	0.879846
	C151	C	0.327554	0.384457	0.109841
	C152	C	0.887415	0.681026	0.374205
	C153	C	0.118585	0.681306	0.612974
	C154	C	0.887469	0.329241	0.611643
	C155	C	0.118151	0.326848	0.373659
	C156	C	0.887758	0.386307	0.668546
	C157	C	0.119278	0.623261	0.669202
	C158	C	0.887359	0.623243	0.317394
	C159	C	0.119015	0.385203	0.318142
	C160	C	0.383738	0.680658	0.881050
	C161	C	0.623440	0.679112	0.110651
	C162	C	0.624617	0.325096	0.879747
	C163	C	0.384054	0.325808	0.109448
	C164	C	0.679108	0.888665	0.376320
	C165	C	0.678417	0.118705	0.614309
	C166	C	0.326518	0.888489	0.612343
	C167	C	0.325906	0.119166	0.376643
	C168	C	0.884249	0.388864	0.171168
	C169	C	0.122843	0.618562	0.170374
	C170	C	0.124021	0.389298	0.816064
	C171	C	0.883961	0.619469	0.816559
	C172	C	0.178255	0.886933	0.378446
	C173	C	0.178076	0.122894	0.609412
	C174	C	0.824321	0.124070	0.378847
	C175	C	0.828620	0.887051	0.609832
	C176	C	0.387428	0.179569	0.876007
	C177	C	0.619178	0.179004	0.115347
	C178	C	0.387678	0.825691	0.115110
	C179	C	0.618741	0.825948	0.877346
	C180	C	0.386419	0.884441	0.170453
	C181	C	0.618650	0.121675	0.172829
	C182	C	0.386646	0.121460	0.819723
	C183	C	0.618858	0.882866	0.819458
	C184	C	0.881530	0.181748	0.378465
	C185	C	0.122214	0.181472	0.608602
	C186	C	0.122186	0.828307	0.378570
	C187	C	0.883849	0.827986	0.608624
	C188	C	0.180461	0.389237	0.875143
	C189	C	0.179549	0.618939	0.111949
	C190	C	0.828403	0.388131	0.112108
	C191	C	0.826652	0.619388	0.875166
	C192	C	0.402674	0.098179	0.596598
	C193	C	0.603079	0.908716	0.595464
	C194	C	0.599681	0.097554	0.395952
	C195	C	0.402273	0.908857	0.394915
	C196	C	0.603906	0.402676	0.089680
	C197	C	0.602168	0.603678	0.899726
	C198	C	0.404591	0.602124	0.090784
	C199	C	0.405082	0.403074	0.900020
	C200	C	0.099454	0.604664	0.394405
	C201	C	0.907213	0.603938	0.591895
	C202	C	0.099254	0.405276	0.591831
	C203	C	0.907355	0.405646	0.394456
	C204	C	0.904175	0.598268	0.093663
	C205	C	0.103929	0.408893	0.094049
	C206	C	0.104190	0.599232	0.892310
	C207	C	0.904899	0.409823	0.893064
	C208	C	0.101759	0.904205	0.588981
	C209	C	0.101984	0.104616	0.398242
	C210	C	0.903104	0.106178	0.588998
	C211	C	0.902903	0.904523	0.398258
	C212	C	0.598755	0.101013	0.896515
	C213	C	0.407642	0.102309	0.093238
	C214	C	0.598736	0.903064	0.095666
	C215	C	0.407063	0.902841	0.895589
	Zn216	Zn	0.502620	0.002262	0.746337
	Zn217	Zn	0.501566	0.003106	0.244672
	Zn218	Zn	0.753139	0.503189	-0.005792
	Zn219	Zn	0.254368	0.503870	-0.005860
	Zn220	Zn	0.002914	0.754314	0.493493
	Zn221	Zn	0.002431	0.255068	0.493144
	Zn222	Zn	0.003681	0.504336	0.741686
	Zn223	Zn	0.003556	0.503982	0.244895
	Zn224	Zn	0.503477	0.752840	-0.003674
	Zn225	Zn	0.504294	0.251876	-0.005456
	Zn226	Zn	0.753170	0.004105	0.494580
	Zn227	Zn	0.252123	0.004606	0.494291
	N228	N	0.416447	0.965743	0.674127
	N229	N	0.589326	0.039956	0.675315
	N230	N	0.586558	0.965724	0.317907
	N231	N	0.413371	0.039701	0.314133
	N232	N	0.680707	0.418499	0.956565
	N233	N	0.680607	0.587781	0.032357
	N234	N	0.327288	0.588189	0.957405
	N235	N	0.326317	0.418158	0.032081
	N236	N	0.966095	0.683010	0.407622
	N237	N	0.039855	0.682969	0.579585
	N238	N	0.966000	0.327350	0.578229
	N239	N	0.039620	0.325470	0.406745
	N240	N	0.966271	0.419383	0.669809
	N241	N	0.040924	0.589707	0.670159
	N242	N	0.965893	0.589812	0.316207
	N243	N	0.041010	0.419645	0.317500
	N244	N	0.416773	0.682219	0.959468
	N245	N	0.589938	0.681560	0.032382
	N246	N	0.591666	0.322785	0.958016
	N247	N	0.417655	0.323617	0.031460
	N248	N	0.680067	0.966441	0.409808
	N249	N	0.680365	0.041134	0.580295
	N250	N	0.324810	0.966540	0.579764
	N251	N	0.325490	0.041868	0.410895
	N252	N	0.916782	0.466963	0.173771
	N253	N	0.089916	0.540747	0.172797
	N254	N	0.090885	0.467307	0.813210
	N255	N	0.917684	0.541730	0.813972
	N256	N	0.179594	0.919947	0.456536
	N257	N	0.179514	0.089473	0.531411
	N258	N	0.823532	0.090937	0.456841
	N259	N	0.826921	0.920682	0.531900
	N260	N	0.466337	0.180940	0.908920
	N261	N	0.540826	0.180846	0.081044
	N262	N	0.466443	0.823516	0.082929
	N263	N	0.540192	0.824436	0.910454
	N264	N	0.464675	0.918255	0.171911
	N265	N	0.540299	0.088509	0.173660
	N266	N	0.464885	0.087168	0.818705
	N267	N	0.540413	0.916427	0.817534
	N268	N	0.915482	0.184001	0.456456
	N269	N	0.089284	0.183696	0.530151
	N270	N	0.089145	0.825518	0.456811
	N271	N	0.915765	0.825237	0.530070
	N272	N	0.181986	0.466921	0.908305
	N273	N	0.181288	0.541110	0.078534
	N274	N	0.826913	0.465698	0.078325
	N275	N	0.825217	0.541515	0.908351
	O276	O	0.446654	0.483394	0.537771
	H277	H	0.439795	0.493086	0.537734
	H278	H	0.451362	0.484729	0.535869
	O279	O	0.475586	0.478442	0.466834
	H280	H	0.478450	0.477024	0.474315
	H281	H	0.467260	0.480165	0.471143
	O282	O	0.520414	0.482811	0.424367
	H283	H	0.522762	0.485764	0.428208
	H284	H	0.535332	0.486537	0.441332
	O285	O	-0.460614	1.529436	1.568304
	H286	H	-0.475216	1.533626	1.569675
	H287	H	-0.457567	1.531838	1.556318
	O288	O	0.484236	0.513365	0.478574
	H289	H	0.480012	0.506760	0.479793
	H290	H	0.480894	0.510606	0.470645
	O291	O	-0.477888	-0.611656	1.512491
	H292	H	-0.476819	-0.626482	1.505239
	H293	H	-0.479926	-0.612845	1.517118
	O294	O	0.541847	0.471278	0.467099
	H295	H	0.536704	0.470731	0.463896
	H296	H	0.540433	0.468868	0.472987
	O297	O	0.482787	0.608368	0.487652
	H298	H	0.485310	0.608828	0.490385
	H299	H	0.496381	0.604816	0.486131
	O300	O	0.403929	0.411952	0.538777
	H301	H	0.395954	0.403657	0.539156
	H302	H	0.412174	0.417710	0.536190
	O303	O	0.476833	0.455553	0.464516
	H304	H	0.463931	0.458003	0.468466
	H305	H	0.473877	0.461884	0.473413
	O306	O	0.994671	-0.010247	0.926627
	H307	H	1.001105	-0.014108	0.915693
	H308	H	0.999850	-0.006257	0.927861
	O309	O	0.588657	0.487530	0.438352
	H310	H	0.590900	0.482105	0.444201
	H311	H	0.588250	0.479878	0.442358
	O312	O	0.615020	0.508682	0.521785
	H313	H	0.606834	0.500028	0.517168
	H314	H	0.615033	0.517564	0.508635
	O315	O	0.999910	0.010364	0.957529
	H316	H	0.998118	0.009217	0.954757
	H317	H	0.987838	0.012754	0.968611
	O318	O	-0.015993	-0.018014	-0.021134
	H319	H	-0.019022	-0.013302	-0.026660
	H320	H	-0.015992	-0.021260	-0.031703
	O321	O	0.493713	0.482125	0.439808
	H322	H	0.490017	0.477135	0.441091
	H323	H	0.493164	0.480485	0.438022
	O324	O	0.961800	0.006281	-0.038578
	H325	H	0.960962	-0.002281	-0.039567
	H326	H	0.963086	-0.005034	-0.038735
	O327	O	1.024051	0.997274	-0.059362
	H328	H	1.019514	1.008579	-0.057688
	H329	H	1.031419	1.002147	-0.047422
	O330	O	0.512476	0.527452	0.522109
	H331	H	0.510757	0.533419	0.515972
	H332	H	0.523098	0.527629	0.512671
	O333	O	0.524945	0.499537	0.473885
	H334	H	0.529052	0.497838	0.472186
	H335	H	0.534197	0.490529	0.479602
