data_Molecule from HDF5

_cell_length_a		16.247180
_cell_length_b		16.471640
_cell_length_c		16.260036
_cell_angle_alpha	89.960315
_cell_angle_beta	90.012624
_cell_angle_gamma	90.102709
_symmetry_space_group_name_H-M	'P 1'
_symmetry_Int_Tables_number		1

loop_
	_symmetry_equiv_pos_as_xyz
	x,y,z

loop_
	_atom_site_label
	_atom_site_type_symbol
	_atom_site_fract_x
	_atom_site_fract_y
	_atom_site_fract_z
	H0	H	0.384368	0.849366	0.711752
	H1	H	0.591788	0.168434	0.710047
	H2	H	0.594597	0.849159	0.269276
	H3	H	0.389218	0.169182	0.273460
	H4	H	0.705784	0.409371	0.827889
	H5	H	0.708697	0.609570	0.153426
	H6	H	0.273849	0.611313	0.828451
	H7	H	0.271571	0.407498	0.152749
	H8	H	0.828882	0.727603	0.384867
	H9	H	0.149703	0.729688	0.595879
	H10	H	0.828110	0.289791	0.594290
	H11	H	0.148514	0.287134	0.383952
	H12	H	0.828389	0.405961	0.708819
	H13	H	0.152197	0.610687	0.706243
	H14	H	0.828467	0.611265	0.272196
	H15	H	0.151162	0.407643	0.273123
	H16	H	0.385588	0.730811	0.831748
	H17	H	0.596898	0.729329	0.153300
	H18	H	0.595386	0.288804	0.831427
	H19	H	0.386838	0.290869	0.153290
	H20	H	0.709757	0.848511	0.386490
	H21	H	0.709330	0.167887	0.593271
	H22	H	0.268788	0.849419	0.594218
	H23	H	0.270357	0.168574	0.388161
	H24	H	0.885347	0.349384	0.210078
	H25	H	0.095455	0.668074	0.212575
	H26	H	0.093459	0.349663	0.770452
	H27	H	0.888357	0.668036	0.770469
	H28	H	0.207595	0.907514	0.328627
	H29	H	0.205998	0.110359	0.653028
	H30	H	0.770152	0.110297	0.328897
	H31	H	0.773709	0.907970	0.652670
	H32	H	0.328927	0.230050	0.886944
	H33	H	0.650527	0.229671	0.097138
	H34	H	0.330226	0.787731	0.100133
	H35	H	0.649912	0.790766	0.886549
	H36	H	0.326955	0.909349	0.207351
	H37	H	0.651114	0.112798	0.210600
	H38	H	0.326785	0.110624	0.775405
	H39	H	0.650116	0.909178	0.773909
	H40	H	0.880901	0.230443	0.330207
	H41	H	0.094497	0.230082	0.650564
	H42	H	0.096330	0.786754	0.330141
	H43	H	0.885298	0.788098	0.650683
	H44	H	0.209186	0.348905	0.888184
	H45	H	0.211542	0.668449	0.095540
	H46	H	0.768718	0.350001	0.094775
	H47	H	0.769415	0.667712	0.885753
	H48	H	0.389916	0.124404	0.581172
	H49	H	0.580252	0.894594	0.581657
	H50	H	0.578088	0.121798	0.396828
	H51	H	0.396657	0.895393	0.403120
	H52	H	0.572424	0.421297	0.103256
	H53	H	0.580399	0.596735	0.876957
	H54	H	0.404931	0.595152	0.103697
	H55	H	0.399199	0.420960	0.876581
	H56	H	0.108492	0.605871	0.400816
	H57	H	0.877876	0.595709	0.572826
	H58	H	0.105766	0.414597	0.576623
	H59	H	0.869780	0.416490	0.392955
	H60	H	0.102738	0.421412	0.575613
	H61	H	0.873413	0.593747	0.586553
	H62	H	0.100206	0.596297	0.409974
	H63	H	0.873063	0.411600	0.407656
	H64	H	0.403205	0.605022	0.107307
	H65	H	0.573579	0.602013	0.878028
	H66	H	0.580368	0.411083	0.109611
	H67	H	0.404934	0.418564	0.877220
	H68	H	0.576964	0.119468	0.404172
	H69	H	0.581059	0.894289	0.584314
	H70	H	0.400244	0.124373	0.590243
	H71	H	0.398664	0.894662	0.397599
	H72	H	0.904838	0.617721	0.069960
	H73	H	0.077482	0.397908	0.078681
	H74	H	0.090370	0.623960	0.904272
	H75	H	0.898177	0.393759	0.895560
	H76	H	0.066456	0.919597	0.600272
	H77	H	0.070971	0.091570	0.380889
	H78	H	0.898716	0.096455	0.604497
	H79	H	0.903313	0.917186	0.375397
	H80	H	0.608304	0.104107	0.894889
	H81	H	0.375712	0.099443	0.079191
	H82	H	0.605929	0.919806	0.081983
	H83	H	0.371794	0.913119	0.902578
	H84	H	0.605571	0.918146	0.079982
	H85	H	0.373643	0.099037	0.083540
	H86	H	0.603218	0.104720	0.908190
	H87	H	0.376042	0.920458	0.909268
	H88	H	0.904681	0.099415	0.603655
	H89	H	0.074185	0.109209	0.373038
	H90	H	0.079423	0.908293	0.609247
	H91	H	0.899107	0.913985	0.373746
	H92	H	0.082059	0.626065	0.888691
	H93	H	0.083459	0.395520	0.078617
	H94	H	0.890064	0.626493	0.080913
	H95	H	0.902688	0.395994	0.900499
	H96	H	0.402774	0.120714	0.576754
	H97	H	0.578499	0.895127	0.583509
	H98	H	0.584260	0.122351	0.402065
	H99	H	0.402747	0.896475	0.401662
	H100	H	0.585921	0.424151	0.106053
	H101	H	0.581058	0.605248	0.875459
	H102	H	0.395039	0.597888	0.107649
	H103	H	0.400161	0.415231	0.874561
	H104	H	0.105272	0.592221	0.395762
	H105	H	0.871884	0.606429	0.579775
	H106	H	0.105634	0.418854	0.582331
	H107	H	0.877154	0.426227	0.402564
	H108	H	0.908049	0.622131	0.089781
	H109	H	0.079441	0.395088	0.083720
	H110	H	0.073498	0.619269	0.902847
	H111	H	0.896294	0.394500	0.902868
	H112	H	0.084576	0.926062	0.603970
	H113	H	0.088897	0.096555	0.372711
	H114	H	0.899413	0.102176	0.606864
	H115	H	0.898385	0.919027	0.374682
	H116	H	0.602801	0.092600	0.901155
	H117	H	0.373555	0.103329	0.081288
	H118	H	0.604552	0.920312	0.079345
	H119	H	0.373605	0.923330	0.899053
	C120	C	0.366784	0.017579	0.613554
	C121	C	0.610861	1.000216	0.613144
	C122	C	0.611682	0.016348	0.368814
	C123	C	0.368035	1.000681	0.369681
	C124	C	0.610752	0.388264	-0.000375
	C125	C	0.611166	0.631603	0.983419
	C126	C	0.369366	0.630794	-0.000028
	C127	C	0.369526	0.387712	0.982723
	C128	C	-0.001626	0.629382	0.369799
	C129	C	0.981171	0.629965	0.610985
	C130	C	-0.002181	0.387578	0.610177
	C131	C	0.979735	0.386795	0.368658
	C132	C	0.868601	0.517037	0.112069
	C133	C	0.112246	0.501098	0.112628
	C134	C	0.112846	0.517607	0.867947
	C135	C	0.868217	0.500178	0.868123
	C136	C	0.109725	0.886911	0.498478
	C137	C	0.109774	0.130166	0.482079
	C138	C	0.867972	0.130254	0.498738
	C139	C	0.868545	0.886262	0.481302
	C140	C	0.497855	0.131036	0.870403
	C141	C	0.481195	0.130936	0.112794
	C142	C	0.498546	0.888328	0.112785
	C143	C	0.480309	0.888410	0.871557
	C144	C	0.366037	0.897149	0.671869
	C145	C	0.611112	0.120695	0.670567
	C146	C	0.613071	0.896742	0.309143
	C147	C	0.368409	0.121083	0.311700
	C148	C	0.668446	0.388785	0.877401
	C149	C	0.669906	0.630060	0.104941
	C150	C	0.312048	0.630706	0.877606
	C151	C	0.311233	0.388422	0.104675
	C152	C	0.877159	0.688033	0.367085
	C153	C	0.101925	0.689475	0.613193
	C154	C	0.876374	0.329103	0.612457
	C155	C	0.100800	0.327601	0.366010
	C156	C	0.876595	0.387104	0.669306
	C157	C	0.103275	0.629998	0.668141
	C158	C	0.876782	0.629983	0.311091
	C159	C	0.101943	0.387247	0.310751
	C160	C	0.367783	0.690198	0.879166
	C161	C	0.614226	0.689798	0.104848
	C162	C	0.613231	0.328866	0.878982
	C163	C	0.368274	0.330255	0.104836
	C164	C	0.670429	0.896360	0.367684
	C165	C	0.669465	0.120419	0.612407
	C166	C	0.308226	0.897078	0.613530
	C167	C	0.309390	0.120714	0.368894
	C168	C	0.866801	0.397243	0.170877
	C169	C	0.114212	0.620215	0.172833
	C170	C	0.112865	0.397272	0.809920
	C171	C	0.868646	0.620431	0.809848
	C172	C	0.168890	0.887392	0.377221
	C173	C	0.167973	0.130398	0.603814
	C174	C	0.809079	0.130057	0.377372
	C175	C	0.811423	0.887412	0.603627
	C176	C	0.377052	0.190239	0.868661
	C177	C	0.602461	0.189841	0.114908
	C178	C	0.377885	0.828439	0.116531
	C179	C	0.601544	0.830259	0.868929
	C180	C	0.376257	0.888831	0.170204
	C181	C	0.602554	0.131685	0.171589
	C182	C	0.375772	0.130793	0.813199
	C183	C	0.601843	0.889100	0.812772
	C184	C	0.864343	0.189826	0.377989
	C185	C	0.112193	0.189714	0.602837
	C186	C	0.113254	0.827538	0.377936
	C187	C	0.866809	0.827701	0.602582
	C188	C	0.170560	0.397022	0.868167
	C189	C	0.171847	0.620671	0.114200
	C190	C	0.808987	0.397334	0.112995
	C191	C	0.809487	0.620179	0.867024
	C192	C	0.390736	0.101304	0.589725
	C193	C	0.586850	0.916424	0.589756
	C194	C	0.587012	0.099479	0.393731
	C195	C	0.392356	0.917161	0.393816
	C196	C	0.586541	0.411969	0.084259
	C197	C	0.585890	0.608211	0.898932
	C198	C	0.393963	0.606460	0.084227
	C199	C	0.394208	0.411230	0.898260
	C200	C	0.082671	0.605151	0.394976
	C201	C	0.896391	0.605636	0.586759
	C202	C	0.082636	0.411283	0.585326
	C203	C	0.895532	0.410977	0.393765
	C204	C	0.893690	0.600518	0.087363
	C205	C	0.087299	0.417879	0.087535
	C206	C	0.088999	0.601117	0.891554
	C207	C	0.891955	0.416658	0.892398
	C208	C	0.084233	0.910989	0.582631
	C209	C	0.085068	0.106159	0.397520
	C210	C	0.893540	0.106324	0.582969
	C211	C	0.893120	0.909854	0.396689
	C212	C	0.582719	0.107273	0.894529
	C213	C	0.396409	0.107371	0.088284
	C214	C	0.583271	0.912455	0.087675
	C215	C	0.395750	0.911973	0.896499
	Zn216	Zn	0.488657	0.009229	0.742623
	Zn217	Zn	0.489869	0.008948	0.240234
	Zn218	Zn	0.739371	0.509086	-0.009512
	Zn219	Zn	0.241369	0.509088	-0.009333
	Zn220	Zn	-0.010888	0.757413	0.489680
	Zn221	Zn	-0.011315	0.258794	0.489923
	Zn222	Zn	-0.009535	0.508757	0.738670
	Zn223	Zn	-0.010616	0.509264	0.241771
	Zn224	Zn	0.489780	0.760530	-0.006932
	Zn225	Zn	0.490160	0.259058	-0.008106
	Zn226	Zn	0.740619	0.007776	0.490463
	Zn227	Zn	0.238074	0.008995	0.490979
	N228	N	0.401579	0.973015	0.672107
	N229	N	0.575459	0.045060	0.671238
	N230	N	0.577104	0.972260	0.309884
	N231	N	0.404078	0.045526	0.311863
	N232	N	0.667178	0.424926	0.953586
	N233	N	0.668321	0.594757	0.028359
	N234	N	0.312800	0.594456	0.953878
	N235	N	0.311598	0.423178	0.027779
	N236	N	0.953826	0.687936	0.402656
	N237	N	0.024920	0.689559	0.578399
	N238	N	0.952981	0.329330	0.576510
	N239	N	0.023736	0.326700	0.400740
	N240	N	0.953106	0.422653	0.668170
	N241	N	0.027239	0.593392	0.666719
	N242	N	0.953120	0.594098	0.312665
	N243	N	0.025552	0.423186	0.312144
	N244	N	0.402348	0.690624	0.956248
	N245	N	0.578345	0.690873	0.028147
	N246	N	0.578275	0.328387	0.955929
	N247	N	0.403511	0.329467	0.027888
	N248	N	0.669803	0.971688	0.403840
	N249	N	0.669444	0.044518	0.577375
	N250	N	0.308385	0.972789	0.578169
	N251	N	0.309150	0.044814	0.404252
	N252	N	0.903250	0.472548	0.170244
	N253	N	0.077887	0.544753	0.171962
	N254	N	0.077783	0.473086	0.809422
	N255	N	0.904343	0.544859	0.810290
	N256	N	0.166873	0.923620	0.453255
	N257	N	0.166611	0.094236	0.527740
	N258	N	0.811297	0.093663	0.453325
	N259	N	0.812344	0.923174	0.527258
	N260	N	0.454207	0.190687	0.903198
	N261	N	0.525960	0.189514	0.078933
	N262	N	0.455035	0.827889	0.081791
	N263	N	0.524924	0.829821	0.904693
	N264	N	0.452414	0.925080	0.168070
	N265	N	0.526217	0.095772	0.170394
	N266	N	0.452037	0.094990	0.813868
	N267	N	0.525343	0.924356	0.814065
	N268	N	0.900391	0.189974	0.454518
	N269	N	0.076819	0.189974	0.525961
	N270	N	0.077087	0.827372	0.454306
	N271	N	0.901376	0.826813	0.525441
	N272	N	0.170913	0.472809	0.903333
	N273	N	0.170895	0.545439	0.077788
	N274	N	0.809937	0.473023	0.077035
	N275	N	0.809110	0.544538	0.902465
	O276	O	0.523656	0.621326	0.539284
	H277	H	0.509195	0.618137	0.534292
	H278	H	0.509704	0.602185	0.555188
	O279	O	0.884076	1.049894	0.065021
	H280	H	0.877042	1.056256	0.058277
	H281	H	0.882736	1.056908	0.070716
	O282	O	0.059710	0.195125	0.893061
	H283	H	0.078408	0.206830	0.904083
	H284	H	0.074569	0.186631	0.905089
	O285	O	0.851307	0.183235	-0.062488
	H286	H	0.857252	0.166854	-0.070664
	H287	H	0.842656	0.185275	-0.050910
	O288	O	0.126615	-0.149175	1.058188
	H289	H	0.132744	-0.162891	1.046162
	H290	H	0.131243	-0.136237	1.043278
	O291	O	0.588095	0.530829	0.583302
	H292	H	0.600325	0.542319	0.578413
	H293	H	0.593568	0.535990	0.576718
	O294	O	0.539728	0.373423	0.314653
	H295	H	0.534385	0.368872	0.308354
	H296	H	0.539231	0.366170	0.317060
	O297	O	1.187071	0.814730	0.868720
	H298	H	1.190425	0.817251	0.846674
	H299	H	1.178748	0.803934	0.866582
	O300	O	-0.025316	-0.133876	-0.117906
	H301	H	-0.015521	-0.143957	-0.109128
	H302	H	-0.036856	-0.123790	-0.123370
	O303	O	0.528880	0.701819	0.666358
	H304	H	0.531165	0.711145	0.667805
	H305	H	0.508403	0.703769	0.657823
	O306	O	1.144772	-0.045553	0.018941
	H307	H	1.145888	-0.058154	-0.002813
	H308	H	1.115104	-0.042561	0.024476
	O309	O	0.650094	0.508745	0.387921
	H310	H	0.649426	0.502110	0.385383
	H311	H	0.653868	0.504300	0.404706
	O312	O	1.403640	0.369555	0.359889
	H313	H	1.394952	0.376285	0.371291
	H314	H	1.421657	0.366238	0.363265
	O315	O	0.672739	0.428459	0.363627
	H316	H	0.668845	0.422668	0.360428
	H317	H	0.681534	0.434649	0.361602
	O318	O	0.505467	0.559788	0.358969
	H319	H	0.513684	0.537062	0.355808
	H320	H	0.509023	0.562847	0.349436
	O321	O	1.019700	0.092447	1.048935
	H322	H	1.019266	0.076608	1.049614
	H323	H	1.028148	0.098414	1.053117
	O324	O	0.177364	-0.063706	0.839666
	H325	H	0.195953	-0.057877	0.824802
	H326	H	0.185642	-0.060267	0.843027
	O327	O	0.380503	0.462942	0.441006
	H328	H	0.386081	0.441877	0.440465
	H329	H	0.380633	0.465835	0.447248
	O330	O	0.315304	0.678207	0.338159
	H331	H	0.320889	0.680008	0.337365
	H332	H	0.305253	0.658783	0.337138
	O333	O	0.801477	0.904956	1.025303
	H334	H	0.791092	0.898455	1.026937
	H335	H	0.809726	0.909107	1.038254
	O336	O	0.614066	0.356215	0.443461
	H337	H	0.613095	0.364718	0.447618
	H338	H	0.604420	0.356022	0.440846
	O339	O	1.185587	0.182367	1.176659
	H340	H	1.167386	0.174391	1.174440
	H341	H	1.189795	0.175942	1.192337
	O342	O	-0.057342	0.811085	1.172993
	H343	H	-0.054141	0.797880	1.172765
	H344	H	-0.055342	0.815402	1.163230
	O345	O	0.587968	0.592400	0.469925
	H346	H	0.595335	0.594209	0.459536
	H347	H	0.574203	0.581366	0.472404
	O348	O	0.465202	0.477382	0.560377
	H349	H	0.459012	0.483701	0.573478
	H350	H	0.465965	0.474155	0.571483
	O351	O	0.089559	-0.085363	0.075634
	H352	H	0.090008	-0.071527	0.078860
	H353	H	0.087917	-0.085422	0.071826
	O354	O	0.933494	1.125415	-0.141597
	H355	H	0.937471	1.111062	-0.129317
	H356	H	0.953422	1.136214	-0.148332
	O357	O	-0.191643	0.929875	-0.192039
	H358	H	-0.199021	0.925259	-0.208915
	H359	H	-0.194664	0.930161	-0.185855
	O360	O	0.376257	0.361826	0.603763
	H361	H	0.391385	0.383652	0.600838
	H362	H	0.376922	0.354764	0.617476
	O363	O	0.473858	0.630332	0.425924
	H364	H	0.487160	0.650135	0.405657
	H365	H	0.482464	0.612246	0.435500
	O366	O	0.393221	0.576585	0.661412
	H367	H	0.382382	0.580660	0.642018
	H368	H	0.395094	0.562030	0.666350
	O369	O	0.635308	0.567488	0.697483
	H370	H	0.632040	0.563560	0.696878
	H371	H	0.634983	0.562637	0.687493
	O372	O	0.353270	0.533326	0.605373
	H373	H	0.353722	0.534909	0.615437
	H374	H	0.359214	0.549780	0.589831
	O375	O	0.309030	0.347748	0.513036
	H376	H	0.306990	0.360222	0.544526
	H377	H	0.299481	0.323710	0.520617
	O378	O	0.484416	0.427663	0.469514
	H379	H	0.463858	0.433843	0.460132
	H380	H	0.485338	0.425307	0.475777
	O381	O	0.400405	0.629311	0.427558
	H382	H	0.396528	0.635992	0.417415
	H383	H	0.393945	0.624103	0.401940
	O384	O	-0.085001	1.116799	0.899600
	H385	H	-0.087164	1.122464	0.891153
	H386	H	-0.086783	1.114283	0.892844
	O387	O	0.873277	1.021337	0.113855
	H388	H	0.862737	1.023023	0.111152
	H389	H	0.876394	1.041543	0.117068
	O390	O	0.454026	0.412719	0.636214
	H391	H	0.450553	0.430945	0.643246
	H392	H	0.472246	0.418037	0.639256
	O393	O	0.962367	-0.892933	1.801644
	H394	H	0.958191	-0.881147	1.794439
	H395	H	0.962730	-0.886485	1.804665
	O396	O	0.035090	1.187702	1.095769
	H397	H	0.036098	1.192081	1.116071
	H398	H	0.024947	1.175501	1.095820
	O399	O	0.430791	0.395095	0.629173
	H400	H	0.448155	0.402865	0.631828
	H401	H	0.445732	0.383543	0.638840
	O402	O	0.917960	-0.014451	0.850986
	H403	H	0.926953	-0.022989	0.845853
	H404	H	0.918684	-0.011849	0.854178
	O405	O	-0.193761	-0.173629	0.100380
	H406	H	-0.197311	-0.164011	0.098179
	H407	H	-0.177491	-0.170268	0.094316
	O408	O	1.074905	0.957922	1.054905
	H409	H	1.081693	0.941492	1.057653
	H410	H	1.056486	0.963103	1.045867
	O411	O	1.046863	0.960133	-0.155234
	H412	H	1.047934	0.954243	-0.159747
	H413	H	1.041623	0.973976	-0.153195
	O414	O	-0.108812	0.019243	1.187293
	H415	H	-0.104740	0.009615	1.185611
	H416	H	-0.111904	0.021324	1.184645
	O417	O	0.868055	-0.054009	0.888605
	H418	H	0.867612	-0.046369	0.892040
	H419	H	0.861479	-0.059274	0.887638
	O420	O	-0.069729	1.126336	0.195767
	H421	H	-0.060293	1.136349	0.215163
	H422	H	-0.070362	1.124706	0.183319
	O423	O	1.669402	0.668971	-0.454247
	H424	H	1.669541	0.674705	-0.469211
	H425	H	1.670945	0.672917	-0.449289
	O426	O	0.187162	0.183743	0.994361
	H427	H	0.186335	0.184805	1.014214
	H428	H	0.195859	0.179937	1.016761
	O429	O	0.474093	0.574724	0.339955
	H430	H	0.463036	0.594740	0.333146
	H431	H	0.469532	0.571173	0.337237
