data_Molecule from HDF5

_cell_length_a		16.268354
_cell_length_b		16.183001
_cell_length_c		16.246696
_cell_angle_alpha	90.114689
_cell_angle_beta	89.972263
_cell_angle_gamma	90.111675
_symmetry_space_group_name_H-M	'P 1'
_symmetry_Int_Tables_number		1

loop_
	_symmetry_equiv_pos_as_xyz
	x,y,z

loop_
	_atom_site_label
	_atom_site_type_symbol
	_atom_site_fract_x
	_atom_site_fract_y
	_atom_site_fract_z
	H0	H	0.396836	0.834157	0.706096
	H1	H	0.593726	0.163789	0.707872
	H2	H	0.592926	0.834426	0.280382
	H3	H	0.396305	0.163137	0.279510
	H4	H	0.710294	0.400315	0.829445
	H5	H	0.710476	0.598660	0.157787
	H6	H	0.281763	0.596085	0.829832
	H7	H	0.279511	0.399550	0.157157
	H8	H	0.831036	0.712333	0.395757
	H9	H	0.160091	0.713091	0.590359
	H10	H	0.831099	0.286287	0.589828
	H11	H	0.159752	0.284461	0.393761
	H12	H	0.831983	0.400231	0.707783
	H13	H	0.160339	0.597986	0.706661
	H14	H	0.831396	0.597066	0.278486
	H15	H	0.158850	0.399511	0.277176
	H16	H	0.397628	0.711283	0.829226
	H17	H	0.593497	0.712322	0.158208
	H18	H	0.593412	0.285677	0.828796
	H19	H	0.397904	0.285746	0.158609
	H20	H	0.708759	0.834740	0.394169
	H21	H	0.709467	0.163880	0.592206
	H22	H	0.280731	0.835578	0.591866
	H23	H	0.281652	0.163926	0.395654
	H24	H	0.896090	0.334823	0.207095
	H25	H	0.094352	0.663365	0.207177
	H26	H	0.093510	0.333537	0.779167
	H27	H	0.898710	0.664436	0.780163
	H28	H	0.210085	0.900366	0.329071
	H29	H	0.209918	0.099260	0.657122
	H30	H	0.781830	0.096678	0.329103
	H31	H	0.779700	0.900592	0.657371
	H32	H	0.331426	0.211799	0.896574
	H33	H	0.660029	0.212622	0.091570
	H34	H	0.331030	0.785036	0.090746
	H35	H	0.660244	0.785320	0.896566
	H36	H	0.332281	0.899276	0.208098
	H37	H	0.659875	0.097042	0.207652
	H38	H	0.331840	0.096071	0.780560
	H39	H	0.659527	0.900152	0.777304
	H40	H	0.898845	0.211482	0.328327
	H41	H	0.091695	0.212724	0.657550
	H42	H	0.091374	0.786753	0.328117
	H43	H	0.898103	0.786316	0.658090
	H44	H	0.208720	0.333109	0.894924
	H45	H	0.209826	0.662714	0.091631
	H46	H	0.781414	0.334343	0.091442
	H47	H	0.781474	0.663205	0.894557
	H48	H	0.406799	0.118878	0.597919
	H49	H	0.588629	0.883409	0.577935
	H50	H	0.584014	0.113595	0.405273
	H51	H	0.407195	0.880980	0.394682
	H52	H	0.590161	0.404837	0.110612
	H53	H	0.597195	0.588463	0.874704
	H54	H	0.400763	0.588573	0.110494
	H55	H	0.401819	0.406549	0.876413
	H56	H	0.112024	0.586579	0.394455
	H57	H	0.876700	0.601085	0.585397
	H58	H	0.111145	0.411533	0.585805
	H59	H	0.879078	0.408339	0.397475
	H60	H	0.113939	0.404763	0.590682
	H61	H	0.882583	0.586385	0.579237
	H62	H	0.115055	0.599297	0.396364
	H63	H	0.877339	0.402826	0.399014
	H64	H	0.404261	0.591932	0.110681
	H65	H	0.582627	0.585901	0.880566
	H66	H	0.590127	0.405707	0.111068
	H67	H	0.403894	0.404077	0.876653
	H68	H	0.595506	0.119073	0.402366
	H69	H	0.593858	0.879074	0.589611
	H70	H	0.408768	0.112921	0.579295
	H71	H	0.404659	0.885060	0.408684
	H72	H	0.910140	0.612523	0.079265
	H73	H	0.090179	0.381059	0.082697
	H74	H	0.093660	0.615876	0.902073
	H75	H	0.892322	0.379603	0.901706
	H76	H	0.087988	0.914417	0.608397
	H77	H	0.090758	0.088656	0.377117
	H78	H	0.902704	0.084121	0.607195
	H79	H	0.902232	0.893247	0.373380
	H80	H	0.618705	0.100466	0.890284
	H81	H	0.374958	0.086807	0.105496
	H82	H	0.609274	0.914891	0.085600
	H83	H	0.378382	0.910163	0.891781
	H84	H	0.616596	0.902765	0.096176
	H85	H	0.375599	0.109085	0.082142
	H86	H	0.610501	0.096405	0.914279
	H87	H	0.375926	0.895749	0.898725
	H88	H	0.908465	0.098172	0.609726
	H89	H	0.086207	0.092193	0.376632
	H90	H	0.082027	0.899998	0.610900
	H91	H	0.889209	0.910917	0.374516
	H92	H	0.090071	0.618053	0.895840
	H93	H	0.089498	0.379603	0.088902
	H94	H	0.892148	0.618321	0.082719
	H95	H	0.907582	0.381190	0.890719
	H96	H	0.391749	0.120124	0.585507
	H97	H	0.580899	0.882944	0.588913
	H98	H	0.586948	0.118037	0.393441
	H99	H	0.394476	0.878781	0.400635
	H100	H	0.589348	0.405042	0.110655
	H101	H	0.587189	0.599694	0.875699
	H102	H	0.399543	0.592967	0.111829
	H103	H	0.401056	0.403530	0.876156
	H104	H	0.109478	0.592485	0.406058
	H105	H	0.877600	0.587804	0.595052
	H106	H	0.112356	0.403232	0.582424
	H107	H	0.880842	0.406856	0.403841
	H108	H	0.904696	0.619346	0.096481
	H109	H	0.084169	0.382072	0.085677
	H110	H	0.086306	0.614123	0.901724
	H111	H	0.908594	0.385778	0.908232
	H112	H	0.097299	0.902800	0.613431
	H113	H	0.091346	0.093682	0.374520
	H114	H	0.893790	0.095425	0.613607
	H115	H	0.909793	0.912064	0.380600
	H116	H	0.608864	0.077247	0.896901
	H117	H	0.385518	0.079164	0.076580
	H118	H	0.612497	0.898727	0.079926
	H119	H	0.382567	0.907832	0.907540
	C120	C	0.373936	0.008190	0.615254
	C121	C	0.616421	0.990658	0.614576
	C122	C	0.616787	0.008022	0.371856
	C123	C	0.373607	0.990337	0.372531
	C124	C	0.617992	0.377052	0.001984
	C125	C	0.617475	0.620332	0.985423
	C126	C	0.373872	0.619601	0.002395
	C127	C	0.373719	0.376510	0.985194
	C128	C	0.003750	0.620601	0.370918
	C129	C	0.987634	0.620619	0.614896
	C130	C	0.004016	0.377673	0.614716
	C131	C	0.987240	0.377229	0.371278
	C132	C	0.873817	0.507963	0.114487
	C133	C	0.116813	0.489824	0.114623
	C134	C	0.117973	0.506777	0.871432
	C135	C	0.874363	0.490747	0.871400
	C136	C	0.116861	0.877781	0.501841
	C137	C	0.117147	0.120757	0.484647
	C138	C	0.873806	0.120794	0.501625
	C139	C	0.872417	0.877107	0.485022
	C140	C	0.504156	0.119830	0.872571
	C141	C	0.487552	0.120335	0.115784
	C142	C	0.503958	0.876840	0.115120
	C143	C	0.487238	0.876522	0.871300
	C144	C	0.376348	0.883674	0.669097
	C145	C	0.614557	0.114532	0.670013
	C146	C	0.613436	0.883537	0.317769
	C147	C	0.376009	0.114115	0.317267
	C148	C	0.672089	0.380057	0.878191
	C149	C	0.672401	0.618346	0.108902
	C150	C	0.319750	0.616689	0.878502
	C151	C	0.318121	0.379353	0.108567
	C152	C	0.880175	0.675247	0.374339
	C153	C	0.110915	0.675839	0.611504
	C154	C	0.880290	0.323419	0.611203
	C155	C	0.110569	0.322026	0.373491
	C156	C	0.880840	0.379800	0.669937
	C157	C	0.111149	0.618311	0.669302
	C158	C	0.880210	0.617899	0.316314
	C159	C	0.110221	0.379595	0.315708
	C160	C	0.376909	0.674396	0.878681
	C161	C	0.614639	0.675247	0.108970
	C162	C	0.614200	0.322831	0.877976
	C163	C	0.376841	0.322837	0.109251
	C164	C	0.671046	0.883761	0.374193
	C165	C	0.671622	0.114663	0.612487
	C166	C	0.318939	0.884237	0.612274
	C167	C	0.319289	0.114571	0.375216
	C168	C	0.875939	0.383822	0.169290
	C169	C	0.114325	0.614103	0.169057
	C170	C	0.114454	0.382823	0.816746
	C171	C	0.877709	0.614929	0.817251
	C172	C	0.171784	0.880420	0.378104
	C173	C	0.171733	0.118814	0.608479
	C174	C	0.819238	0.117716	0.378023
	C175	C	0.817457	0.879982	0.608369
	C176	C	0.380476	0.174153	0.876210
	C177	C	0.610913	0.175123	0.112524
	C178	C	0.380298	0.822341	0.111576
	C179	C	0.611132	0.822358	0.874757
	C180	C	0.380883	0.879207	0.169994
	C181	C	0.610914	0.117677	0.170141
	C182	C	0.380763	0.117079	0.817998
	C183	C	0.610820	0.879418	0.815864
	C184	C	0.877623	0.174418	0.377511
	C185	C	0.113546	0.175546	0.608501
	C186	C	0.112606	0.824164	0.377400
	C187	C	0.876410	0.823339	0.608851
	C188	C	0.171910	0.382574	0.873942
	C189	C	0.171946	0.613724	0.111948
	C190	C	0.819093	0.383499	0.111724
	C191	C	0.819470	0.614440	0.874081
	C192	C	0.395810	0.094941	0.593955
	C193	C	0.594219	0.904155	0.592100
	C194	C	0.595120	0.094529	0.393788
	C195	C	0.395533	0.903885	0.394775
	C196	C	0.596436	0.398848	0.088409
	C197	C	0.595426	0.597899	0.899211
	C198	C	0.395193	0.597755	0.088650
	C199	C	0.395696	0.398329	0.898864
	C200	C	0.089938	0.599069	0.392542
	C201	C	0.901332	0.598285	0.593081
	C202	C	0.090267	0.399904	0.592710
	C203	C	0.901173	0.399418	0.393504
	C204	C	0.895687	0.594325	0.092637
	C205	C	0.094515	0.403209	0.092474
	C206	C	0.096367	0.593652	0.893530
	C207	C	0.896306	0.404409	0.893636
	C208	C	0.095585	0.899478	0.588325
	C209	C	0.095869	0.098247	0.398449
	C210	C	0.895473	0.099104	0.587992
	C211	C	0.893957	0.898896	0.398362
	C212	C	0.590386	0.097806	0.894233
	C213	C	0.400898	0.098208	0.094288
	C214	C	0.590354	0.898985	0.093470
	C215	C	0.401229	0.898252	0.892961
	Zn216	Zn	0.495528	-0.001165	0.742766
	Zn217	Zn	0.495434	-0.001216	0.244302
	Zn218	Zn	0.745961	0.499166	-0.006541
	Zn219	Zn	0.245264	0.498276	-0.006893
	Zn220	Zn	-0.004832	0.749163	0.493003
	Zn221	Zn	-0.004357	0.248736	0.492983
	Zn222	Zn	-0.003819	0.498853	0.743682
	Zn223	Zn	-0.005110	0.498869	0.242295
	Zn224	Zn	0.495865	0.748103	-0.006162
	Zn225	Zn	0.495954	0.248739	-0.005998
	Zn226	Zn	0.744317	-0.000666	0.493167
	Zn227	Zn	0.245856	-0.000437	0.493805
	N228	N	0.410071	0.961748	0.671029
	N229	N	0.580993	0.036340	0.671398
	N230	N	0.580242	0.961728	0.316159
	N231	N	0.409318	0.036029	0.315606
	N232	N	0.674724	0.412809	0.956370
	N233	N	0.674393	0.585039	0.030919
	N234	N	0.317439	0.583425	0.956317
	N235	N	0.316047	0.412060	0.030394
	N236	N	0.957887	0.677065	0.407666
	N237	N	0.033092	0.677335	0.578472
	N238	N	0.958035	0.322043	0.577592
	N239	N	0.033067	0.320598	0.407477
	N240	N	0.958768	0.412882	0.672127
	N241	N	0.033444	0.584563	0.671358
	N242	N	0.957927	0.584917	0.314026
	N243	N	0.032518	0.413184	0.314268
	N244	N	0.410268	0.676020	0.956450
	N245	N	0.581049	0.676447	0.031375
	N246	N	0.580891	0.321242	0.955858
	N247	N	0.410645	0.320899	0.031690
	N248	N	0.673333	0.962007	0.407078
	N249	N	0.673036	0.036628	0.578791
	N250	N	0.317232	0.962624	0.579789
	N251	N	0.317790	0.036674	0.408823
	N252	N	0.909288	0.461942	0.171118
	N253	N	0.080792	0.536041	0.170743
	N254	N	0.081725	0.461124	0.815192
	N255	N	0.911124	0.537039	0.815510
	N256	N	0.174549	0.913181	0.456497
	N257	N	0.174128	0.085530	0.530476
	N258	N	0.816848	0.084798	0.456060
	N259	N	0.815171	0.912996	0.530339
	N260	N	0.458317	0.175993	0.909279
	N261	N	0.533073	0.176965	0.079720
	N262	N	0.457973	0.821149	0.078182
	N263	N	0.533579	0.820387	0.908296
	N264	N	0.458745	0.912487	0.172362
	N265	N	0.533034	0.084218	0.172247
	N266	N	0.458631	0.084122	0.815557
	N267	N	0.532776	0.912282	0.813444
	N268	N	0.910598	0.176405	0.455466
	N269	N	0.080329	0.176744	0.530705
	N270	N	0.079097	0.822543	0.455086
	N271	N	0.909609	0.821524	0.531053
	N272	N	0.174167	0.460816	0.907158
	N273	N	0.173404	0.535547	0.078547
	N274	N	0.817669	0.461477	0.078284
	N275	N	0.817429	0.536267	0.907168
	O276	O	0.568232	-0.449748	1.540501
	H277	H	0.564300	-0.458110	1.545998
	H278	H	0.577039	-0.441504	1.544140
	O279	O	0.570159	0.543033	0.540172
	H280	H	0.559877	0.542186	0.535273
	H281	H	0.570443	0.533789	0.535790
	O282	O	1.533873	1.513072	0.528472
	H283	H	1.527573	1.520660	0.532864
	H284	H	1.536985	1.511516	0.526084
	O285	O	0.520489	0.515579	0.545957
	H286	H	0.529800	0.517474	0.551695
	H287	H	0.528524	0.521098	0.545338
