data_Molecule from HDF5

_cell_length_a		16.021749
_cell_length_b		16.393336
_cell_length_c		16.140150
_cell_angle_alpha	89.894318
_cell_angle_beta	90.362692
_cell_angle_gamma	89.682158
_symmetry_space_group_name_H-M	'P 1'
_symmetry_Int_Tables_number		1

loop_
	_symmetry_equiv_pos_as_xyz
	x,y,z

loop_
	_atom_site_label
	_atom_site_type_symbol
	_atom_site_fract_x
	_atom_site_fract_y
	_atom_site_fract_z
	H0	H	0.409924	0.836599	0.715224
	H1	H	0.605921	0.162745	0.717620
	H2	H	0.604944	0.836853	0.287021
	H3	H	0.404945	0.162527	0.285112
	H4	H	0.717848	0.402092	0.834078
	H5	H	0.717926	0.592705	0.165825
	H6	H	0.292183	0.596852	0.834939
	H7	H	0.297654	0.402570	0.166649
	H8	H	0.840990	0.716535	0.397749
	H9	H	0.171200	0.712503	0.602450
	H10	H	0.840455	0.285665	0.601516
	H11	H	0.169064	0.282906	0.398745
	H12	H	0.839160	0.404498	0.711551
	H13	H	0.172210	0.595872	0.712693
	H14	H	0.840665	0.598484	0.286229
	H15	H	0.172756	0.402958	0.291814
	H16	H	0.401736	0.718040	0.837172
	H17	H	0.610952	0.715973	0.164011
	H18	H	0.609646	0.281665	0.836860
	H19	H	0.405239	0.282388	0.162844
	H20	H	0.719957	0.835900	0.406161
	H21	H	0.720045	0.163949	0.599385
	H22	H	0.293531	0.836170	0.598830
	H23	H	0.289796	0.162442	0.401412
	H24	H	0.907498	0.336966	0.216663
	H25	H	0.106067	0.662594	0.215377
	H26	H	0.107620	0.337861	0.784415
	H27	H	0.904392	0.662513	0.784827
	H28	H	0.215442	0.904025	0.334246
	H29	H	0.218955	0.095060	0.665970
	H30	H	0.793207	0.096329	0.335495
	H31	H	0.799276	0.905300	0.667641
	H32	H	0.341919	0.217248	0.897013
	H33	H	0.672159	0.212868	0.101889
	H34	H	0.341941	0.784856	0.102182
	H35	H	0.671735	0.784649	0.900364
	H36	H	0.339060	0.904693	0.210665
	H37	H	0.672927	0.095661	0.213665
	H38	H	0.340191	0.099448	0.786660
	H39	H	0.673269	0.902518	0.791823
	H40	H	0.899781	0.217473	0.337417
	H41	H	0.110057	0.217697	0.663633
	H42	H	0.108281	0.782859	0.337455
	H43	H	0.905776	0.783758	0.664351
	H44	H	0.220482	0.335787	0.904547
	H45	H	0.221156	0.662124	0.099171
	H46	H	0.794638	0.335886	0.097449
	H47	H	0.789768	0.662230	0.900773
	H48	H	0.416879	0.116168	0.598366
	H49	H	0.602334	0.885489	0.590782
	H50	H	0.591652	0.114354	0.407729
	H51	H	0.419029	0.885858	0.407097
	H52	H	0.604222	0.400354	0.120792
	H53	H	0.596425	0.598638	0.880302
	H54	H	0.417782	0.586542	0.115956
	H55	H	0.416462	0.411592	0.884330
	H56	H	0.127812	0.593910	0.402415
	H57	H	0.881882	0.593212	0.604852
	H58	H	0.129780	0.401082	0.602067
	H59	H	0.886772	0.400587	0.416969
	H60	H	0.123294	0.400290	0.581697
	H61	H	0.884617	0.607422	0.584694
	H62	H	0.126841	0.600208	0.413553
	H63	H	0.890313	0.419761	0.409914
	H64	H	0.421244	0.600793	0.118542
	H65	H	0.600352	0.591993	0.881188
	H66	H	0.601201	0.412923	0.116201
	H67	H	0.417718	0.401653	0.881255
	H68	H	0.604156	0.115102	0.412887
	H69	H	0.608444	0.880958	0.599406
	H70	H	0.414599	0.113557	0.588189
	H71	H	0.406075	0.882645	0.410467
	H72	H	0.925656	0.610912	0.089997
	H73	H	0.101622	0.384774	0.091745
	H74	H	0.094818	0.614670	0.908932
	H75	H	0.916840	0.384523	0.907087
	H76	H	0.098219	0.901734	0.619855
	H77	H	0.092979	0.098307	0.380992
	H78	H	0.923346	0.095669	0.617064
	H79	H	0.912644	0.897531	0.379452
	H80	H	0.623658	0.095385	0.918139
	H81	H	0.384109	0.094112	0.100242
	H82	H	0.622746	0.909118	0.086963
	H83	H	0.384761	0.893474	0.915410
	H84	H	0.626073	0.910577	0.099821
	H85	H	0.387163	0.103569	0.084577
	H86	H	0.623706	0.083794	0.908702
	H87	H	0.392928	0.919432	0.917206
	H88	H	0.912210	0.100637	0.622148
	H89	H	0.100052	0.092944	0.381578
	H90	H	0.102146	0.906275	0.619656
	H91	H	0.906263	0.912058	0.381365
	H92	H	0.102404	0.615848	0.909843
	H93	H	0.106899	0.380677	0.099049
	H94	H	0.902320	0.615303	0.083380
	H95	H	0.911191	0.383211	0.907676
	H96	H	0.406993	0.117553	0.594721
	H97	H	0.597117	0.884040	0.600607
	H98	H	0.600983	0.118230	0.400234
	H99	H	0.410678	0.880256	0.397507
	H100	H	0.591282	0.403767	0.115879
	H101	H	0.592517	0.592741	0.882659
	H102	H	0.407455	0.596489	0.121823
	H103	H	0.408917	0.406059	0.879171
	H104	H	0.123375	0.587707	0.411663
	H105	H	0.892428	0.583507	0.584118
	H106	H	0.120983	0.418409	0.593035
	H107	H	0.881643	0.405265	0.396295
	H108	H	0.910276	0.620135	0.106246
	H109	H	0.097311	0.382678	0.100330
	H110	H	0.098475	0.617183	0.902647
	H111	H	0.914817	0.382773	0.902531
	H112	H	0.096621	0.906250	0.618098
	H113	H	0.091536	0.089420	0.385731
	H114	H	0.912899	0.088599	0.618477
	H115	H	0.921878	0.908519	0.384654
	H116	H	0.628618	0.096562	0.904175
	H117	H	0.391376	0.086268	0.086108
	H118	H	0.627415	0.900174	0.093621
	H119	H	0.383149	0.909777	0.893618
	C120	C	0.384863	0.007928	0.622267
	C121	C	0.630398	0.991478	0.624800
	C122	C	0.628249	0.008153	0.379280
	C123	C	0.382742	0.990696	0.377048
	C124	C	0.628297	0.377110	0.008863
	C125	C	0.627037	0.621417	0.990921
	C126	C	0.384745	0.622583	0.009460
	C127	C	0.386097	0.378241	0.990985
	C128	C	0.015771	0.622563	0.379134
	C129	C	0.996437	0.621590	0.621016
	C130	C	0.014741	0.378798	0.621423
	C131	C	0.996026	0.379602	0.379577
	C132	C	0.884656	0.507735	0.121614
	C133	C	0.130101	0.490679	0.124145
	C134	C	0.128303	0.508359	0.878662
	C135	C	0.884314	0.491206	0.877508
	C136	C	0.127527	0.877175	0.509805
	C137	C	0.126053	0.121602	0.491605
	C138	C	0.885166	0.122545	0.510000
	C139	C	0.885774	0.878304	0.491400
	C140	C	0.515417	0.121115	0.879937
	C141	C	0.497504	0.121959	0.121128
	C142	C	0.515417	0.879029	0.121564
	C143	C	0.497233	0.879120	0.880286
	C144	C	0.388528	0.885299	0.677391
	C145	C	0.626500	0.114111	0.679553
	C146	C	0.625909	0.885486	0.324702
	C147	C	0.384730	0.113741	0.322651
	C148	C	0.681841	0.380706	0.883841
	C149	C	0.681845	0.615511	0.115964
	C150	C	0.328972	0.618611	0.884972
	C151	C	0.333378	0.381606	0.116311
	C152	C	0.890649	0.678221	0.379278
	C153	C	0.121546	0.675114	0.620851
	C154	C	0.889767	0.323808	0.620371
	C155	C	0.120534	0.322772	0.380587
	C156	C	0.889312	0.382900	0.675274
	C157	C	0.122138	0.617025	0.675974
	C158	C	0.890504	0.619569	0.323460
	C159	C	0.122098	0.381920	0.326933
	C160	C	0.383380	0.679046	0.886023
	C161	C	0.628270	0.676764	0.115149
	C162	C	0.627807	0.320951	0.885152
	C163	C	0.387007	0.321813	0.114580
	C164	C	0.683124	0.884971	0.383986
	C165	C	0.683412	0.114696	0.620993
	C166	C	0.330604	0.885117	0.619516
	C167	C	0.327212	0.113691	0.380150
	C168	C	0.887445	0.385560	0.177766
	C169	C	0.126755	0.613671	0.177998
	C170	C	0.127345	0.386133	0.822573
	C171	C	0.884808	0.613828	0.822603
	C172	C	0.180258	0.882073	0.384498
	C173	C	0.181785	0.117093	0.616132
	C174	C	0.829349	0.118371	0.385419
	C175	C	0.833923	0.883001	0.617355
	C176	C	0.391234	0.178289	0.878829
	C177	C	0.622395	0.175979	0.120942
	C178	C	0.390927	0.823705	0.120421
	C179	C	0.622142	0.823145	0.881564
	C180	C	0.389485	0.883010	0.174697
	C181	C	0.622827	0.117482	0.176586
	C182	C	0.390365	0.119525	0.823727
	C183	C	0.622960	0.881724	0.827190
	C184	C	0.882866	0.178484	0.386318
	C185	C	0.127339	0.177801	0.614983
	C186	C	0.126649	0.821889	0.385972
	C187	C	0.887174	0.822680	0.615653
	C188	C	0.183576	0.385058	0.882427
	C189	C	0.184034	0.613597	0.120067
	C190	C	0.831118	0.384882	0.118623
	C191	C	0.827760	0.613593	0.880371
	C192	C	0.406355	0.093471	0.600101
	C193	C	0.608899	0.905643	0.603236
	C194	C	0.605688	0.093629	0.400574
	C195	C	0.405244	0.905121	0.398734
	C196	C	0.605565	0.399016	0.095067
	C197	C	0.603246	0.600707	0.904042
	C198	C	0.408502	0.600873	0.096316
	C199	C	0.408078	0.400001	0.904038
	C200	C	0.103277	0.600526	0.402357
	C201	C	0.908932	0.600753	0.598078
	C202	C	0.102131	0.400118	0.598818
	C203	C	0.908677	0.401854	0.401368
	C204	C	0.906381	0.593433	0.099701
	C205	C	0.108565	0.404988	0.103239
	C206	C	0.105318	0.593775	0.900644
	C207	C	0.907544	0.405548	0.899446
	C208	C	0.105565	0.898310	0.596768
	C209	C	0.101947	0.100020	0.404984
	C210	C	0.909052	0.101133	0.596758
	C211	C	0.907214	0.899679	0.404302
	C212	C	0.602838	0.098612	0.903572
	C213	C	0.410064	0.100832	0.097386
	C214	C	0.602945	0.900367	0.099876
	C215	C	0.409638	0.901161	0.902168
	Zn216	Zn	0.506633	0.000115	0.753097
	Zn217	Zn	0.505723	0.000070	0.248758
	Zn218	Zn	0.755049	0.498823	-0.000764
	Zn219	Zn	0.258366	0.498913	0.001205
	Zn220	Zn	0.005934	0.749698	0.500715
	Zn221	Zn	0.004843	0.251846	0.499900
	Zn222	Zn	0.005848	0.500623	0.748180
	Zn223	Zn	0.006835	0.499853	0.252315
	Zn224	Zn	0.506682	0.751181	0.000599
	Zn225	Zn	0.506809	0.250082	-0.000023
	Zn226	Zn	0.758929	0.000098	0.501883
	Zn227	Zn	0.254649	-0.000765	0.500049
	N228	N	0.421552	0.962668	0.679222
	N229	N	0.594508	0.036388	0.682340
	N230	N	0.592514	0.962997	0.321738
	N231	N	0.418317	0.036276	0.320275
	N232	N	0.682117	0.415176	0.961489
	N233	N	0.681286	0.581903	0.037735
	N234	N	0.329690	0.584337	0.962934
	N235	N	0.332761	0.415935	0.038473
	N236	N	0.969863	0.680412	0.412846
	N237	N	0.042446	0.677944	0.587220
	N238	N	0.968919	0.321145	0.587626
	N239	N	0.041179	0.321123	0.412458
	N240	N	0.967992	0.416319	0.675933
	N241	N	0.043216	0.584452	0.676236
	N242	N	0.969277	0.585767	0.323154
	N243	N	0.043700	0.416873	0.326205
	N244	N	0.417563	0.681604	0.964492
	N245	N	0.594838	0.680308	0.036442
	N246	N	0.595255	0.318462	0.963765
	N247	N	0.419342	0.319814	0.035834
	N248	N	0.684678	0.962180	0.417269
	N249	N	0.686172	0.037381	0.587875
	N250	N	0.328327	0.962348	0.585705
	N251	N	0.325765	0.036367	0.413314
	N252	N	0.920216	0.463041	0.179732
	N253	N	0.093955	0.536341	0.180791
	N254	N	0.093510	0.463739	0.820137
	N255	N	0.919150	0.536710	0.820718
	N256	N	0.180909	0.915914	0.462590
	N257	N	0.180971	0.082925	0.538473
	N258	N	0.830512	0.084349	0.463449
	N259	N	0.832770	0.916888	0.539205
	N260	N	0.470153	0.179375	0.913168
	N261	N	0.543323	0.178813	0.087043
	N262	N	0.470335	0.820924	0.088358
	N263	N	0.542835	0.821302	0.913815
	N264	N	0.467913	0.916679	0.175644
	N265	N	0.543998	0.084678	0.176822
	N266	N	0.468745	0.084776	0.824467
	N267	N	0.544212	0.916084	0.826309
	N268	N	0.916768	0.181354	0.464876
	N269	N	0.093243	0.180734	0.536356
	N270	N	0.094758	0.818610	0.464780
	N271	N	0.918577	0.819673	0.536435
	N272	N	0.184177	0.461874	0.916593
	N273	N	0.186176	0.536130	0.087281
	N274	N	0.829214	0.461917	0.084505
	N275	N	0.827285	0.536243	0.913955
	O276	O	1.044037	0.884052	-0.011781
	H277	H	1.043430	0.881928	-0.018496
	H278	H	1.040349	0.873155	-0.006364
	O279	O	-0.066622	-0.076602	1.056928
	H280	H	-0.079038	-0.080810	1.069895
	H281	H	-0.065008	-0.082426	1.062398
	O282	O	0.080621	0.090967	0.084155
	H283	H	0.081921	0.099521	0.079591
	H284	H	0.078601	0.089526	0.079978
	O285	O	0.495390	0.510624	0.482185
	H286	H	0.502669	0.510435	0.477591
	H287	H	0.503679	0.508184	0.477416
	O288	O	0.039226	-0.034243	-0.023360
	H289	H	0.038206	-0.020133	-0.015540
	H290	H	0.039403	-0.046979	-0.020110
	O291	O	-0.077086	1.065966	-0.008836
	H292	H	-0.083766	1.056447	-0.009478
	H293	H	-0.069141	1.069482	0.000467
	O294	O	0.023903	1.028353	0.000662
	H295	H	0.023564	1.029812	-0.004456
	H296	H	0.025616	1.030433	0.007187
	O297	O	0.496294	0.502107	0.437522
	H298	H	0.495343	0.503689	0.434445
	H299	H	0.497160	0.505228	0.431002
	O300	O	0.465820	0.520192	0.454392
	H301	H	0.455001	0.517500	0.449176
	H302	H	0.476810	0.515806	0.458985
	O303	O	0.959358	0.104513	1.001050
	H304	H	0.956861	0.100167	0.994113
	H305	H	0.958037	0.096317	1.001906
	O306	O	0.084650	1.018878	1.022397
	H307	H	0.084910	1.022230	1.022476
	H308	H	0.080815	1.015993	1.010514
	O309	O	-0.014621	0.952705	1.010269
	H310	H	-0.029358	0.942367	1.011835
	H311	H	-0.010703	0.964700	0.997518
	O312	O	-0.040876	0.135835	0.889620
	H313	H	-0.029858	0.130211	0.884237
	H314	H	-0.043024	0.146981	0.891047
	O315	O	0.020232	0.103840	-0.004996
	H316	H	0.029520	0.095336	-0.015318
	H317	H	0.029798	0.115792	-0.001166
	O318	O	0.039663	-0.061675	1.017977
	H319	H	0.048227	-0.062717	1.015621
	H320	H	0.035290	-0.071367	1.024001
	O321	O	0.538279	0.508851	0.450591
	H322	H	0.537943	0.509275	0.447008
	H323	H	0.532529	0.501938	0.447737
	O324	O	0.963876	-0.061692	0.946100
	H325	H	0.973837	-0.062698	0.953136
	H326	H	0.953159	-0.059825	0.945868
	O327	O	0.978710	1.027488	1.059359
	H328	H	0.972685	1.026638	1.041980
	H329	H	0.982034	1.023625	1.066805
	O330	O	0.460085	0.538164	0.417827
	H331	H	0.468786	0.536855	0.423568
	H332	H	0.455200	0.546733	0.413808
	O333	O	1.005339	-0.021910	-0.040825
	H334	H	1.005772	-0.015326	-0.031566
	H335	H	0.992653	-0.009230	-0.036695
	O336	O	0.478493	0.519324	0.426616
	H337	H	0.481792	0.517097	0.428471
	H338	H	0.471413	0.521945	0.435557
	O339	O	0.523323	0.470135	0.447613
	H340	H	0.515721	0.470902	0.447701
	H341	H	0.523957	0.472156	0.445386
	O342	O	0.101362	0.937164	0.986189
	H343	H	0.104352	0.941299	0.985708
	H344	H	0.101683	0.931407	0.974867
	O345	O	0.465552	0.505889	0.415880
	H346	H	0.458758	0.510897	0.422737
	H347	H	0.460372	0.513342	0.406024
