data_Molecule from HDF5

_cell_length_a		16.596901
_cell_length_b		16.356522
_cell_length_c		16.463199
_cell_angle_alpha	89.846938
_cell_angle_beta	90.030419
_cell_angle_gamma	90.039391
_symmetry_space_group_name_H-M	'P 1'
_symmetry_Int_Tables_number		1

loop_
	_symmetry_equiv_pos_as_xyz
	x,y,z

loop_
	_atom_site_label
	_atom_site_type_symbol
	_atom_site_fract_x
	_atom_site_fract_y
	_atom_site_fract_z
	H0	H	0.412534	0.850068	0.728242
	H1	H	0.628713	0.163845	0.730882
	H2	H	0.621262	0.849848	0.289053
	H3	H	0.413349	0.167376	0.282631
	H4	H	0.745718	0.398579	0.850349
	H5	H	0.740983	0.615017	0.161297
	H6	H	0.292597	0.617877	0.849173
	H7	H	0.294318	0.395960	0.160839
	H8	H	0.863784	0.731640	0.400751
	H9	H	0.176341	0.733415	0.615038
	H10	H	0.864320	0.285934	0.612992
	H11	H	0.174698	0.284887	0.396527
	H12	H	0.864429	0.401855	0.730054
	H13	H	0.173876	0.621538	0.735384
	H14	H	0.865536	0.618423	0.281785
	H15	H	0.175013	0.402204	0.281394
	H16	H	0.411173	0.731703	0.848025
	H17	H	0.618661	0.724146	0.164685
	H18	H	0.626681	0.285182	0.849072
	H19	H	0.412895	0.282679	0.161433
	H20	H	0.742904	0.852374	0.399139
	H21	H	0.744849	0.164986	0.615968
	H22	H	0.293401	0.852925	0.616774
	H23	H	0.296319	0.167143	0.397943
	H24	H	0.912512	0.353286	0.230704
	H25	H	0.124700	0.667889	0.224165
	H26	H	0.121816	0.349263	0.785760
	H27	H	0.911732	0.667519	0.782547
	H28	H	0.241084	0.905933	0.350614
	H29	H	0.245391	0.120652	0.663308
	H30	H	0.796336	0.117271	0.350487
	H31	H	0.796036	0.900775	0.663910
	H32	H	0.366293	0.236570	0.892215
	H33	H	0.676976	0.229751	0.110858
	H34	H	0.361416	0.788524	0.109535
	H35	H	0.676369	0.785732	0.900792
	H36	H	0.363422	0.902758	0.229167
	H37	H	0.676375	0.114840	0.228755
	H38	H	0.365909	0.119583	0.777491
	H39	H	0.675412	0.899416	0.782580
	H40	H	0.917328	0.229571	0.348120
	H41	H	0.126100	0.233528	0.664175
	H42	H	0.121826	0.792207	0.348904
	H43	H	0.914870	0.787447	0.665678
	H44	H	0.240710	0.349039	0.897654
	H45	H	0.245441	0.663891	0.113480
	H46	H	0.794890	0.352961	0.115651
	H47	H	0.794624	0.666653	0.896097
	H48	H	0.426940	0.123813	0.592751
	H49	H	0.609163	0.896371	0.588311
	H50	H	0.611631	0.124760	0.415951
	H51	H	0.429060	0.896220	0.420776
	H52	H	0.607937	0.423012	0.117495
	H53	H	0.611638	0.600371	0.889505
	H54	H	0.426540	0.591983	0.117091
	H55	H	0.436041	0.421634	0.894509
	H56	H	0.133292	0.600647	0.416895
	H57	H	0.909992	0.596675	0.593823
	H58	H	0.129524	0.423295	0.591115
	H59	H	0.907833	0.419991	0.419117
	H60	H	0.130063	0.425907	0.595445
	H61	H	0.909185	0.596880	0.595764
	H62	H	0.133108	0.599471	0.413096
	H63	H	0.910880	0.424848	0.421474
	H64	H	0.434996	0.593170	0.114529
	H65	H	0.609531	0.590981	0.892504
	H66	H	0.605970	0.420381	0.117615
	H67	H	0.427645	0.418963	0.890832
	H68	H	0.606989	0.123978	0.416426
	H69	H	0.610161	0.893673	0.594752
	H70	H	0.440636	0.120074	0.598332
	H71	H	0.429473	0.895461	0.418295
	H72	H	0.926402	0.623184	0.087848
	H73	H	0.105386	0.395714	0.093371
	H74	H	0.106514	0.619832	0.922979
	H75	H	0.931923	0.393856	0.912315
	H76	H	0.106809	0.918118	0.621641
	H77	H	0.116346	0.093584	0.393806
	H78	H	0.935358	0.096886	0.617339
	H79	H	0.927982	0.924650	0.395210
	H80	H	0.631003	0.092817	0.915243
	H81	H	0.409626	0.097278	0.088389
	H82	H	0.628347	0.924521	0.094083
	H83	H	0.406261	0.919835	0.913008
	H84	H	0.635126	0.916601	0.106737
	H85	H	0.410421	0.089374	0.095077
	H86	H	0.630555	0.098521	0.919411
	H87	H	0.408333	0.918331	0.921416
	H88	H	0.929522	0.099597	0.621062
	H89	H	0.102916	0.092264	0.398949
	H90	H	0.111895	0.925127	0.621303
	H91	H	0.934147	0.921803	0.395829
	H92	H	0.107742	0.621228	0.920502
	H93	H	0.108147	0.394848	0.092891
	H94	H	0.929216	0.624426	0.097406
	H95	H	0.936094	0.399885	0.922993
	H96	H	0.436603	0.117482	0.584129
	H97	H	0.603984	0.896419	0.593012
	H98	H	0.609723	0.122638	0.419576
	H99	H	0.431188	0.897009	0.419619
	H100	H	0.609069	0.419961	0.117952
	H101	H	0.602705	0.598187	0.892823
	H102	H	0.430453	0.600101	0.118599
	H103	H	0.428294	0.427963	0.895217
	H104	H	0.134765	0.602892	0.414826
	H105	H	0.909049	0.598565	0.594716
	H106	H	0.132061	0.421170	0.595421
	H107	H	0.909598	0.424899	0.415346
	H108	H	0.935422	0.620556	0.090834
	H109	H	0.106457	0.393815	0.095748
	H110	H	0.105460	0.619833	0.920381
	H111	H	0.924560	0.395405	0.922444
	H112	H	0.104376	0.925803	0.618093
	H113	H	0.106796	0.105161	0.393360
	H114	H	0.929431	0.093014	0.618861
	H115	H	0.928957	0.918428	0.392677
	H116	H	0.628568	0.092045	0.921329
	H117	H	0.406601	0.097899	0.098039
	H118	H	0.633405	0.908618	0.093101
	H119	H	0.410769	0.926336	0.917798
	C120	C	0.399412	0.017169	0.626735
	C121	C	0.641112	0.999449	0.626530
	C122	C	0.640860	0.018535	0.385461
	C123	C	0.397879	1.000991	0.385636
	C124	C	0.641099	0.387483	0.014099
	C125	C	0.639479	0.629024	0.996090
	C126	C	0.396661	0.629433	0.013314
	C127	C	0.397766	0.387007	0.996824
	C128	C	0.029780	0.632765	0.383489
	C129	C	1.011861	0.631678	0.629227
	C130	C	0.028083	0.389019	0.627383
	C131	C	1.011659	0.389083	0.384592
	C132	C	0.897842	0.518522	0.126559
	C133	C	0.140782	0.499234	0.126687
	C134	C	0.139386	0.516115	0.886258
	C135	C	0.897520	0.500835	0.884991
	C136	C	0.140493	0.890172	0.516340
	C137	C	0.142196	0.132074	0.498504
	C138	C	0.898614	0.130566	0.515276
	C139	C	0.897681	0.887640	0.498491
	C140	C	0.528404	0.130174	0.882906
	C141	C	0.512063	0.128327	0.126459
	C142	C	0.528131	0.885473	0.129229
	C143	C	0.511212	0.886645	0.884406
	C144	C	0.394616	0.898184	0.688600
	C145	C	0.645714	0.117159	0.689844
	C146	C	0.641326	0.898181	0.327244
	C147	C	0.395150	0.119737	0.323244
	C148	C	0.703721	0.382443	0.896761
	C149	C	0.700018	0.632404	0.114507
	C150	C	0.334373	0.634387	0.896012
	C151	C	0.335397	0.379863	0.113880
	C152	C	0.911593	0.692431	0.381995
	C153	C	0.129454	0.693111	0.632744
	C154	C	0.910993	0.326829	0.630808
	C155	C	0.128310	0.326292	0.380091
	C156	C	0.910960	0.384546	0.689027
	C157	C	0.127891	0.637539	0.693185
	C158	C	0.912367	0.636013	0.322487
	C159	C	0.128397	0.384815	0.322647
	C160	C	0.393133	0.691720	0.895430
	C161	C	0.639101	0.686472	0.116245
	C162	C	0.644525	0.325971	0.895854
	C163	C	0.394688	0.323363	0.114191
	C164	C	0.701664	0.899412	0.382221
	C165	C	0.703637	0.117549	0.632610
	C166	C	0.335272	0.899707	0.632992
	C167	C	0.337277	0.120006	0.381111
	C168	C	0.894596	0.400316	0.189618
	C169	C	0.143713	0.619480	0.185524
	C170	C	0.141192	0.396964	0.825108
	C171	C	0.893631	0.619594	0.822537
	C172	C	0.200314	0.887952	0.397444
	C173	C	0.204096	0.137081	0.616338
	C174	C	0.837631	0.134668	0.397127
	C175	C	0.836810	0.883656	0.616890
	C176	C	0.412779	0.194596	0.876314
	C177	C	0.629874	0.189534	0.129059
	C178	C	0.409113	0.827262	0.129467
	C179	C	0.628944	0.825384	0.882057
	C180	C	0.410120	0.884004	0.188997
	C181	C	0.629683	0.132146	0.187617
	C182	C	0.412601	0.136323	0.818764
	C183	C	0.628732	0.882552	0.823450
	C184	C	0.897472	0.190584	0.395983
	C185	C	0.144713	0.193568	0.616729
	C186	C	0.141336	0.831253	0.396679
	C187	C	0.895921	0.826974	0.617514
	C188	C	0.200471	0.397066	0.880864
	C189	C	0.203774	0.617212	0.130700
	C190	C	0.835977	0.400366	0.132537
	C191	C	0.835626	0.619407	0.879651
	C192	C	0.426758	0.099320	0.599386
	C193	C	0.615222	0.916995	0.599731
	C194	C	0.616513	0.101953	0.410380
	C195	C	0.422902	0.917862	0.412085
	C196	C	0.614989	0.413586	0.096123
	C197	C	0.614907	0.603784	0.913276
	C198	C	0.422998	0.602563	0.095260
	C199	C	0.423409	0.414854	0.914833
	C200	C	0.112322	0.608153	0.408029
	C201	C	0.930723	0.604974	0.602447
	C202	C	0.109396	0.415937	0.601409
	C203	C	0.930438	0.415708	0.411254
	C204	C	0.923057	0.601150	0.099605
	C205	C	0.114393	0.416408	0.101342
	C206	C	0.113883	0.598764	0.913469
	C207	C	0.923414	0.418189	0.911583
	C208	C	0.115025	0.915688	0.598796
	C209	C	0.116218	0.104827	0.416791
	C210	C	0.924080	0.104172	0.597530
	C211	C	0.922904	0.914010	0.416069
	C212	C	0.608916	0.102485	0.910538
	C213	C	0.430255	0.102361	0.100980
	C214	C	0.610719	0.909652	0.105130
	C215	C	0.429639	0.913662	0.909996
	Zn216	Zn	0.519995	0.007395	0.754558
	Zn217	Zn	0.519139	0.008986	0.257006
	Zn218	Zn	0.769246	0.509326	0.005126
	Zn219	Zn	0.268049	0.506903	0.005475
	Zn220	Zn	0.020542	0.760193	0.507803
	Zn221	Zn	0.020011	0.259754	0.506181
	Zn222	Zn	0.019538	0.509491	0.757585
	Zn223	Zn	0.020264	0.510096	0.254639
	Zn224	Zn	0.518573	0.758169	0.005418
	Zn225	Zn	0.520237	0.258379	0.005355
	Zn226	Zn	0.769869	0.009407	0.506348
	Zn227	Zn	0.270399	0.010529	0.507643
	N228	N	0.433703	0.972287	0.684972
	N229	N	0.607547	0.042660	0.686206
	N230	N	0.604299	0.973083	0.329107
	N231	N	0.432380	0.044710	0.326235
	N232	N	0.701741	0.419754	0.971332
	N233	N	0.700653	0.597622	0.038663
	N234	N	0.336592	0.596159	0.970333
	N235	N	0.337160	0.418354	0.039734
	N236	N	0.985696	0.690721	0.419200
	N237	N	0.056258	0.689688	0.593841
	N238	N	0.984864	0.329301	0.593216
	N239	N	0.054720	0.328996	0.418204
	N240	N	0.984643	0.422623	0.686852
	N241	N	0.053850	0.599877	0.690939
	N242	N	0.987029	0.599978	0.322928
	N243	N	0.054990	0.423281	0.325376
	N244	N	0.431371	0.688523	0.969420
	N245	N	0.602457	0.684754	0.041510
	N246	N	0.606421	0.328914	0.969828
	N247	N	0.432609	0.327432	0.040120
	N248	N	0.701716	0.975533	0.417586
	N249	N	0.700934	0.043422	0.593984
	N250	N	0.338135	0.974971	0.595584
	N251	N	0.338966	0.045225	0.419132
	N252	N	0.932464	0.474984	0.186104
	N253	N	0.105565	0.544975	0.183357
	N254	N	0.104450	0.472282	0.827948
	N255	N	0.931408	0.544886	0.825701
	N256	N	0.199973	0.923572	0.472779
	N257	N	0.202782	0.099923	0.541570
	N258	N	0.837988	0.098467	0.472386
	N259	N	0.837731	0.920636	0.541757
	N260	N	0.485753	0.190962	0.915535
	N261	N	0.555644	0.187337	0.091569
	N262	N	0.483544	0.827896	0.093081
	N263	N	0.554731	0.827641	0.918986
	N264	N	0.485225	0.919289	0.189060
	N265	N	0.555437	0.095192	0.186315
	N266	N	0.485491	0.096855	0.822701
	N267	N	0.554401	0.919777	0.824626
	N268	N	0.934522	0.188291	0.470546
	N269	N	0.107187	0.190811	0.542400
	N270	N	0.104870	0.832361	0.471595
	N271	N	0.932737	0.829148	0.542799
	N272	N	0.199454	0.472314	0.917899
	N273	N	0.202154	0.541344	0.095134
	N274	N	0.838309	0.474714	0.093805
	N275	N	0.837441	0.544275	0.917279
	O276	O	0.463132	0.717915	0.556949
	H277	H	0.465008	0.725082	0.573738
	H278	H	0.457666	0.705333	0.542798
	O279	O	0.333222	0.391238	0.366708
	H280	H	0.333945	0.412268	0.361709
	H281	H	0.338347	0.380269	0.349486
	O282	O	1.308287	1.721761	0.482910
	H283	H	1.308961	1.733957	0.485613
	H284	H	1.293240	1.706620	0.505859
	O285	O	0.703201	-0.542331	-0.457435
	H286	H	0.710812	-0.557205	-0.466533
	H287	H	0.684357	-0.528299	-0.474235
	O288	O	0.223356	0.044605	-0.139213
	H289	H	0.209521	0.043328	-0.155348
	H290	H	0.228145	0.039099	-0.157666
	O291	O	0.840794	0.811652	0.022462
	H292	H	0.840958	0.812600	0.028746
	H293	H	0.825884	0.800451	0.024933
	O294	O	-0.197190	1.035875	-0.131962
	H295	H	-0.194760	1.039587	-0.131306
	H296	H	-0.206084	1.045694	-0.132484
	O297	O	0.579789	0.319634	0.525870
	H298	H	0.567093	0.324682	0.523822
	H299	H	0.568624	0.324400	0.497288
	O300	O	0.343546	0.336014	0.684150
	H301	H	0.395736	0.322546	0.694099
	H302	H	0.330756	0.318600	0.632945
	O303	O	0.220160	-0.078029	0.811606
	H304	H	0.214001	-0.088240	0.785756
	H305	H	0.211125	-0.076507	0.812199
	O306	O	0.003197	1.184641	0.882712
	H307	H	0.004658	1.191650	0.868794
	H308	H	0.007326	1.173406	0.878982
	O309	O	0.197620	0.206043	0.148707
	H310	H	0.204245	0.202705	0.122945
	H311	H	0.208891	0.178053	0.145075
	O312	O	-0.182498	0.805983	0.209709
	H313	H	-0.190393	0.781657	0.232592
	H314	H	-0.189079	0.826387	0.193801
	O315	O	0.179712	-0.119284	1.187160
	H316	H	0.194722	-0.142822	1.208161
	H317	H	0.173800	-0.094539	1.194422
	O318	O	0.540673	1.305622	-0.712211
	H319	H	0.550552	1.281116	-0.730688
	H320	H	0.569581	1.303852	-0.707379
	O321	O	0.500271	0.392016	0.512017
	H322	H	0.495943	0.397592	0.492814
	H323	H	0.480119	0.400273	0.498738
	O324	O	0.513941	0.678407	0.294024
	H325	H	0.527399	0.696592	0.298048
	H326	H	0.512823	0.694171	0.291040
	O327	O	0.012091	0.992533	1.799618
	H328	H	-0.003154	0.977400	1.803170
	H329	H	0.004462	0.999882	1.795354
	O330	O	0.369873	-0.506274	-0.581448
	H331	H	0.355067	-0.500187	-0.589030
	H332	H	0.365504	-0.500352	-0.567823
	O333	O	1.001880	0.813622	1.207869
	H334	H	0.992502	0.819713	1.218266
	H335	H	0.996618	0.803647	1.223208
	O336	O	1.119490	-0.176927	0.813102
	H337	H	1.119603	-0.205082	0.821755
	H338	H	1.088655	-0.184348	0.835975
	O339	O	1.032007	0.207774	1.207477
	H340	H	1.042118	0.222174	1.213152
	H341	H	1.053907	0.216971	1.192495
	O342	O	0.729463	0.481767	0.295304
	H343	H	0.740990	0.478793	0.299101
	H344	H	0.728130	0.468033	0.279961
	O345	O	0.214223	0.043047	0.174617
	H346	H	0.206131	0.034260	0.169727
	H347	H	0.222494	0.025080	0.164409
	O348	O	1.565779	0.458096	1.726690
	H349	H	1.546800	0.465577	1.723251
	H350	H	1.580669	0.468304	1.712196
	O351	O	0.707146	0.695236	-0.684601
	H352	H	0.695931	0.685616	-0.656755
	H353	H	0.697108	0.679722	-0.680805
	O354	O	0.014977	1.086569	1.151327
	H355	H	0.023830	1.103564	1.155873
	H356	H	0.028308	1.080906	1.144309
	O357	O	0.990716	0.835620	1.012057
	H358	H	0.998543	0.840552	1.032623
	H359	H	0.996523	0.819701	1.039472
	O360	O	0.454956	0.578708	0.719785
	H361	H	0.454731	0.563137	0.697573
	H362	H	0.429777	0.567038	0.735795
	O363	O	0.293394	0.486977	0.728337
	H364	H	0.309892	0.434568	0.712601
	H365	H	0.255085	0.478591	0.767709
	O366	O	0.974866	0.041004	0.995467
	H367	H	0.950537	0.033664	0.994338
	H368	H	0.983097	0.048238	0.991387
	O369	O	0.484423	0.479767	0.486831
	H370	H	0.473869	0.464610	0.471859
	H371	H	0.500819	0.487040	0.493658
	O372	O	0.739541	0.297096	0.476049
	H373	H	0.759696	0.275780	0.481864
	H374	H	0.721241	0.290610	0.500811
	O375	O	0.022135	1.102898	1.046526
	H376	H	0.040610	1.081137	1.041416
	H377	H	0.002098	1.099978	1.044035
	O378	O	0.745093	0.554897	0.444787
	H379	H	0.747782	0.563739	0.449468
	H380	H	0.742246	0.570138	0.433545
	O381	O	1.231124	0.208133	0.016386
	H382	H	1.260730	0.225328	0.012242
	H383	H	1.243052	0.188553	-0.006893
	O384	O	0.139648	0.146754	0.941953
	H385	H	0.139889	0.140967	0.936150
	H386	H	0.141079	0.120156	0.926183
	O387	O	0.009260	0.990350	1.220430
	H388	H	-0.000090	0.997140	1.221668
	H389	H	-0.000101	0.982467	1.208211
	O390	O	0.067659	0.048468	0.790991
	H391	H	0.056527	0.036069	0.792183
	H392	H	0.051598	0.046987	0.798094
	O393	O	0.797205	1.008609	0.087569
	H394	H	0.788601	1.018470	0.103395
	H395	H	0.793183	1.017420	0.104973
	O396	O	-0.194700	0.222908	0.983014
	H397	H	-0.209460	0.246356	0.976680
	H398	H	-0.187379	0.226824	0.966004
	O399	O	-0.089850	0.868883	-0.094953
	H400	H	-0.121587	0.878503	-0.085304
	H401	H	-0.075314	0.858239	-0.066916
	O402	O	-0.296917	-0.313135	0.683121
	H403	H	-0.348358	-0.305658	0.694814
	H404	H	-0.287413	-0.365725	0.692989
	O405	O	-0.092818	-0.085326	-0.021942
	H406	H	-0.094525	-0.075411	-0.030653
	H407	H	-0.103246	-0.087450	-0.004117
	O408	O	0.541094	0.721003	0.714095
	H409	H	0.523724	0.716203	0.709435
	H410	H	0.530689	0.721351	0.741260
	O411	O	0.711926	0.315337	0.308858
	H412	H	0.724308	0.330434	0.315182
	H413	H	0.733244	0.296645	0.332062
	O414	O	0.302578	0.585607	0.586736
	H415	H	0.309894	0.578300	0.584919
	H416	H	0.294365	0.564552	0.619669
	O417	O	0.554764	0.573687	0.380770
	H418	H	0.549518	0.583712	0.373093
	H419	H	0.548647	0.583889	0.371185
	O420	O	0.592533	0.645055	0.477369
	H421	H	0.564439	0.641507	0.495056
	H422	H	0.614908	0.653576	0.493075
	O423	O	-0.700358	0.533381	0.284993
	H424	H	-0.716528	0.531264	0.252877
	H425	H	-0.681522	0.535769	0.275750
	O426	O	0.951080	0.967044	0.856856
	H427	H	0.953658	0.949596	0.853140
	H428	H	0.947891	0.971630	0.872805
	O429	O	0.303773	0.293716	0.528892
	H430	H	0.291475	0.305655	0.508011
	H431	H	0.280014	0.284498	0.520365
	O432	O	0.823535	0.202156	0.813412
	H433	H	0.805331	0.201603	0.810061
	H434	H	0.844563	0.187863	0.807493
	O435	O	-0.131837	0.161966	0.183747
	H436	H	-0.107991	0.166441	0.178922
	H437	H	-0.116284	0.155611	0.173830
	O438	O	1.219432	-0.200654	-0.016017
	H439	H	1.232270	-0.217846	-0.010308
	H440	H	1.215520	-0.193540	-0.023835
	O441	O	0.500246	0.295178	0.718334
	H442	H	0.515871	0.298101	0.738195
	H443	H	0.511323	0.281579	0.727699
	O444	O	0.471278	0.571671	0.475723
	H445	H	0.484612	0.560093	0.471539
	H446	H	0.476526	0.582087	0.469186
	O447	O	0.728994	0.530154	0.724427
	H448	H	0.734056	0.514584	0.715781
	H449	H	0.743432	0.523258	0.741513
	O450	O	0.473320	0.474319	0.282556
	H451	H	0.470920	0.455745	0.279629
	H452	H	0.487220	0.482201	0.291969
	O453	O	0.663793	0.311363	0.648362
	H454	H	0.655370	0.329332	0.644996
	H455	H	0.638144	0.310852	0.632044
	O456	O	0.743085	-0.269907	-0.468687
	H457	H	0.776420	-0.237760	-0.458482
	H458	H	0.734194	-0.278481	-0.420720
	O459	O	0.306546	0.718151	0.304504
	H460	H	0.299837	0.714027	0.342858
	H461	H	0.339850	0.700749	0.299589
	O462	O	-0.089329	0.992059	0.178122
	H463	H	-0.092805	0.983945	0.187329
	H464	H	-0.096406	0.993323	0.186526
	O465	O	1.178347	-0.078404	0.050340
	H466	H	1.165460	-0.077228	0.038578
	H467	H	1.173004	-0.091732	0.050834
