data_Molecule from HDF5

_cell_length_a		16.122411
_cell_length_b		16.317495
_cell_length_c		16.133210
_cell_angle_alpha	89.941280
_cell_angle_beta	90.355797
_cell_angle_gamma	90.148988
_symmetry_space_group_name_H-M	'P 1'
_symmetry_Int_Tables_number		1

loop_
	_symmetry_equiv_pos_as_xyz
	x,y,z

loop_
	_atom_site_label
	_atom_site_type_symbol
	_atom_site_fract_x
	_atom_site_fract_y
	_atom_site_fract_z
	H0	H	0.407731	0.837625	0.709544
	H1	H	0.607582	0.164675	0.713091
	H2	H	0.603303	0.838052	0.282755
	H3	H	0.406843	0.164945	0.280119
	H4	H	0.714853	0.406062	0.829971
	H5	H	0.720768	0.599482	0.160724
	H6	H	0.292971	0.596840	0.830543
	H7	H	0.294845	0.404696	0.162186
	H8	H	0.841620	0.718233	0.394447
	H9	H	0.170538	0.718986	0.597896
	H10	H	0.841841	0.287383	0.595550
	H11	H	0.170588	0.289367	0.397024
	H12	H	0.839384	0.406328	0.705137
	H13	H	0.170970	0.600431	0.710522
	H14	H	0.840980	0.600703	0.281331
	H15	H	0.172232	0.407919	0.286776
	H16	H	0.404922	0.716178	0.831801
	H17	H	0.607983	0.716898	0.160865
	H18	H	0.606133	0.285788	0.833012
	H19	H	0.404604	0.285134	0.160743
	H20	H	0.719877	0.838573	0.397784
	H21	H	0.721061	0.166035	0.594668
	H22	H	0.290099	0.839596	0.594743
	H23	H	0.292462	0.166176	0.396232
	H24	H	0.906118	0.338820	0.211905
	H25	H	0.105536	0.666025	0.209174
	H26	H	0.102151	0.337501	0.782041
	H27	H	0.907324	0.666081	0.781417
	H28	H	0.216143	0.907536	0.329889
	H29	H	0.221485	0.102241	0.660929
	H30	H	0.791887	0.101254	0.330658
	H31	H	0.795192	0.906030	0.661941
	H32	H	0.341387	0.215905	0.895016
	H33	H	0.670720	0.216987	0.097991
	H34	H	0.340996	0.787221	0.095159
	H35	H	0.670246	0.786583	0.896015
	H36	H	0.339721	0.904782	0.206906
	H37	H	0.671449	0.099465	0.209894
	H38	H	0.340275	0.097799	0.781744
	H39	H	0.672760	0.905430	0.785588
	H40	H	0.904478	0.218365	0.331393
	H41	H	0.107267	0.217837	0.660998
	H42	H	0.108611	0.786344	0.332586
	H43	H	0.906311	0.787355	0.660230
	H44	H	0.218169	0.336853	0.898509
	H45	H	0.221333	0.664778	0.093996
	H46	H	0.791283	0.337779	0.093167
	H47	H	0.789405	0.665190	0.894885
	H48	H	0.409814	0.120371	0.590127
	H49	H	0.590060	0.887279	0.592130
	H50	H	0.601350	0.119543	0.400586
	H51	H	0.406043	0.882427	0.397206
	H52	H	0.595769	0.402828	0.115793
	H53	H	0.593878	0.601732	0.877311
	H54	H	0.414712	0.595842	0.115118
	H55	H	0.401900	0.402558	0.873298
	H56	H	0.128843	0.597733	0.392587
	H57	H	0.887487	0.597631	0.585946
	H58	H	0.127701	0.402338	0.592842
	H59	H	0.883992	0.398684	0.401840
	H60	H	0.121740	0.410940	0.581035
	H61	H	0.888334	0.596246	0.586947
	H62	H	0.125732	0.607405	0.410405
	H63	H	0.892095	0.413438	0.413740
	H64	H	0.412989	0.596660	0.115378
	H65	H	0.603002	0.595459	0.876032
	H66	H	0.604745	0.409015	0.116454
	H67	H	0.414013	0.418970	0.882283
	H68	H	0.596103	0.118366	0.402529
	H69	H	0.605121	0.887057	0.580308
	H70	H	0.419925	0.117898	0.593261
	H71	H	0.415996	0.885730	0.399297
	H72	H	0.918136	0.617285	0.089535
	H73	H	0.094082	0.386518	0.089500
	H74	H	0.091873	0.616245	0.901254
	H75	H	0.912767	0.386585	0.904294
	H76	H	0.094671	0.911879	0.612680
	H77	H	0.096331	0.093032	0.379486
	H78	H	0.920948	0.088003	0.609126
	H79	H	0.907827	0.909004	0.375293
	H80	H	0.627158	0.096655	0.894738
	H81	H	0.387791	0.089248	0.096790
	H82	H	0.622783	0.905871	0.083995
	H83	H	0.385638	0.896164	0.908718
	H84	H	0.622425	0.914309	0.090203
	H85	H	0.384283	0.104254	0.087841
	H86	H	0.624037	0.104165	0.913843
	H87	H	0.393236	0.918133	0.909730
	H88	H	0.920154	0.107135	0.615277
	H89	H	0.094420	0.103034	0.377598
	H90	H	0.098882	0.907461	0.615361
	H91	H	0.916817	0.915363	0.380212
	H92	H	0.101690	0.616399	0.910817
	H93	H	0.104546	0.383564	0.087696
	H94	H	0.912841	0.616486	0.081688
	H95	H	0.906802	0.383403	0.900927
	H96	H	0.417095	0.116734	0.583232
	H97	H	0.607609	0.880044	0.599227
	H98	H	0.600183	0.118466	0.405338
	H99	H	0.409039	0.886144	0.407211
	H100	H	0.595739	0.413528	0.112246
	H101	H	0.593441	0.591391	0.880444
	H102	H	0.413399	0.594458	0.114427
	H103	H	0.422618	0.399417	0.878871
	H104	H	0.120514	0.586884	0.409339
	H105	H	0.887403	0.597354	0.587888
	H106	H	0.124642	0.417298	0.594997
	H107	H	0.886528	0.417093	0.394412
	H108	H	0.909069	0.620477	0.089967
	H109	H	0.099873	0.383486	0.097756
	H110	H	0.104189	0.620404	0.898736
	H111	H	0.912614	0.385267	0.896919
	H112	H	0.100370	0.913318	0.613748
	H113	H	0.103579	0.098553	0.375590
	H114	H	0.903994	0.095595	0.617075
	H115	H	0.918013	0.905126	0.378090
	H116	H	0.619966	0.084950	0.909344
	H117	H	0.391839	0.089496	0.078886
	H118	H	0.625874	0.906030	0.094181
	H119	H	0.384529	0.909286	0.889292
	C120	C	0.385795	0.010651	0.617445
	C121	C	0.629594	0.993106	0.619149
	C122	C	0.627616	0.010670	0.374364
	C123	C	0.382972	0.993275	0.372922
	C124	C	0.626788	0.380283	0.005660
	C125	C	0.626890	0.624112	0.987261
	C126	C	0.384488	0.623348	0.005486
	C127	C	0.384271	0.379105	0.987514
	C128	C	0.015187	0.625322	0.374150
	C129	C	0.996822	0.625057	0.617177
	C130	C	0.015058	0.381748	0.617157
	C131	C	0.997301	0.381971	0.375361
	C132	C	0.884319	0.510229	0.116833
	C133	C	0.128227	0.492945	0.118802
	C134	C	0.127226	0.509393	0.874630
	C135	C	0.882066	0.493150	0.872341
	C136	C	0.126716	0.882443	0.504612
	C137	C	0.128020	0.126011	0.486909
	C138	C	0.885265	0.124785	0.504699
	C139	C	0.885417	0.881512	0.487219
	C140	C	0.514588	0.123176	0.875541
	C141	C	0.497320	0.123203	0.117709
	C142	C	0.514473	0.880263	0.117431
	C143	C	0.497346	0.880006	0.874942
	C144	C	0.387425	0.886943	0.672074
	C145	C	0.627754	0.115983	0.674922
	C146	C	0.624173	0.887067	0.320332
	C147	C	0.386480	0.116506	0.318026
	C148	C	0.678900	0.384639	0.880014
	C149	C	0.682959	0.620539	0.111511
	C150	C	0.329916	0.618880	0.880379
	C151	C	0.330791	0.382772	0.112533
	C152	C	0.891034	0.680308	0.374834
	C153	C	0.121495	0.680346	0.617069
	C154	C	0.890687	0.326012	0.614639
	C155	C	0.121476	0.327424	0.377521
	C156	C	0.889396	0.385098	0.669339
	C157	C	0.121407	0.621970	0.673426
	C158	C	0.890723	0.621949	0.318539
	C159	C	0.122204	0.386218	0.322535
	C160	C	0.385445	0.678140	0.881062
	C161	C	0.626491	0.678695	0.111527
	C162	C	0.624634	0.325102	0.881509
	C163	C	0.385542	0.323502	0.111736
	C164	C	0.682361	0.887317	0.377327
	C165	C	0.684219	0.116672	0.616092
	C166	C	0.329173	0.887732	0.614768
	C167	C	0.329279	0.117017	0.375634
	C168	C	0.886349	0.387413	0.173183
	C169	C	0.126014	0.616493	0.172472
	C170	C	0.123673	0.386444	0.819624
	C171	C	0.885645	0.616724	0.818109
	C172	C	0.180303	0.886011	0.379917
	C173	C	0.183739	0.122848	0.611440
	C174	C	0.829408	0.121819	0.380273
	C175	C	0.831870	0.884840	0.612155
	C176	C	0.390343	0.177457	0.875888
	C177	C	0.621261	0.178909	0.117230
	C178	C	0.390267	0.825249	0.114907
	C179	C	0.621493	0.825148	0.877032
	C180	C	0.389568	0.883803	0.170553
	C181	C	0.621901	0.120206	0.172779
	C182	C	0.390173	0.119089	0.819314
	C183	C	0.622695	0.884188	0.821932
	C184	C	0.885558	0.180026	0.380638
	C185	C	0.126719	0.180405	0.611326
	C186	C	0.126483	0.825812	0.381347
	C187	C	0.887223	0.825908	0.611285
	C188	C	0.181207	0.386047	0.877619
	C189	C	0.183415	0.616046	0.114837
	C190	C	0.829215	0.386807	0.114370
	C191	C	0.827451	0.616372	0.875056
	C192	C	0.408887	0.096167	0.595305
	C193	C	0.607434	0.907105	0.597006
	C194	C	0.605850	0.096394	0.396243
	C195	C	0.404090	0.907193	0.394818
	C196	C	0.605236	0.402075	0.092368
	C197	C	0.603804	0.602739	0.900324
	C198	C	0.407130	0.601871	0.092504
	C199	C	0.406425	0.400647	0.900604
	C200	C	0.102311	0.603731	0.397290
	C201	C	0.910238	0.603430	0.593893
	C202	C	0.101864	0.403728	0.596003
	C203	C	0.910033	0.403362	0.397007
	C204	C	0.906834	0.595830	0.093738
	C205	C	0.106133	0.406670	0.097649
	C206	C	0.105500	0.595486	0.896820
	C207	C	0.904027	0.407285	0.894348
	C208	C	0.104525	0.904601	0.591542
	C209	C	0.104948	0.104479	0.400091
	C210	C	0.908178	0.103204	0.591414
	C211	C	0.907596	0.903345	0.400380
	C212	C	0.601346	0.101787	0.899024
	C213	C	0.410235	0.100901	0.094547
	C214	C	0.601360	0.902239	0.095782
	C215	C	0.410313	0.901524	0.896306
	Zn216	Zn	0.506963	0.001056	0.747002
	Zn217	Zn	0.505857	0.001761	0.245476
	Zn218	Zn	0.754110	0.501784	-0.004884
	Zn219	Zn	0.257337	0.500322	-0.003251
	Zn220	Zn	0.006777	0.753115	0.495507
	Zn221	Zn	0.006177	0.253577	0.495937
	Zn222	Zn	0.005335	0.502225	0.744861
	Zn223	Zn	0.006316	0.502320	0.247303
	Zn224	Zn	0.505986	0.752030	-0.003710
	Zn225	Zn	0.505768	0.252018	-0.002961
	Zn226	Zn	0.757487	0.002284	0.496003
	Zn227	Zn	0.255496	0.003042	0.495688
	N228	N	0.421965	0.964095	0.673617
	N229	N	0.594561	0.038185	0.676870
	N230	N	0.590762	0.964582	0.318553
	N231	N	0.418929	0.038600	0.316075
	N232	N	0.680523	0.418237	0.958226
	N233	N	0.683287	0.587157	0.033160
	N234	N	0.329209	0.585405	0.958753
	N235	N	0.330096	0.416693	0.034557
	N236	N	0.969592	0.682299	0.408775
	N237	N	0.043070	0.682672	0.582950
	N238	N	0.969677	0.323823	0.582779
	N239	N	0.042591	0.324610	0.409495
	N240	N	0.967619	0.419006	0.671084
	N241	N	0.043076	0.588182	0.673632
	N242	N	0.969169	0.588711	0.317855
	N243	N	0.043796	0.419290	0.321027
	N244	N	0.418586	0.681010	0.959898
	N245	N	0.592646	0.681102	0.033103
	N246	N	0.593019	0.322065	0.960552
	N247	N	0.418114	0.321218	0.033019
	N248	N	0.684746	0.965077	0.410253
	N249	N	0.685619	0.039305	0.582230
	N250	N	0.327781	0.965747	0.581591
	N251	N	0.326998	0.039461	0.409213
	N252	N	0.919896	0.465094	0.174673
	N253	N	0.092441	0.538963	0.174978
	N254	N	0.090707	0.464192	0.817827
	N255	N	0.919185	0.539321	0.816618
	N256	N	0.180705	0.920648	0.457797
	N257	N	0.184604	0.089529	0.533065
	N258	N	0.829071	0.087935	0.458349
	N259	N	0.830507	0.918647	0.533927
	N260	N	0.468733	0.180136	0.910048
	N261	N	0.542626	0.180627	0.083365
	N262	N	0.468992	0.822859	0.082621
	N263	N	0.542644	0.822370	0.909117
	N264	N	0.467865	0.917236	0.172367
	N265	N	0.543633	0.086583	0.173299
	N266	N	0.468560	0.085924	0.819152
	N267	N	0.544451	0.917644	0.820527
	N268	N	0.919360	0.182188	0.459031
	N269	N	0.093171	0.182520	0.532771
	N270	N	0.093849	0.823641	0.459978
	N271	N	0.919686	0.823469	0.532513
	N272	N	0.183454	0.463542	0.911349
	N273	N	0.185093	0.538126	0.082245
	N274	N	0.827691	0.464049	0.079924
	N275	N	0.824816	0.538520	0.907986
	O276	O	0.956452	0.985441	0.033141
	H277	H	0.961289	0.981000	0.018579
	H278	H	0.951133	0.975737	0.032039
	O279	O	0.061276	-0.015633	1.087521
	H280	H	0.050740	-0.004968	1.099640
	H281	H	0.052930	-0.008265	1.082024
	O282	O	-0.075500	-0.094857	0.133480
	H283	H	-0.079873	-0.111141	0.148732
	H284	H	-0.066540	-0.090175	0.127555
	O285	O	0.511442	0.480771	0.490365
	H286	H	0.507978	0.486323	0.487701
	H287	H	0.505827	0.486742	0.482789
	O288	O	0.016265	-0.049559	0.026558
	H289	H	0.021461	-0.051626	0.039512
	H290	H	0.012172	-0.053623	0.028462
	O291	O	-0.004328	0.974769	0.104854
	H292	H	-0.004507	0.979076	0.101960
	H293	H	-0.011824	0.968699	0.106301
	O294	O	0.022813	1.117839	-0.058080
	H295	H	0.032206	1.126570	-0.054502
	H296	H	0.024757	1.113457	-0.062031
	O297	O	0.466251	0.449546	0.609611
	H298	H	0.465962	0.447459	0.603008
	H299	H	0.465783	0.452488	0.615926
	O300	O	0.543911	0.475853	0.481668
	H301	H	0.537733	0.474720	0.478667
	H302	H	0.539957	0.474055	0.477357
	O303	O	0.968578	0.070095	0.995761
	H304	H	0.969356	0.071686	0.983389
	H305	H	0.966858	0.074278	0.997404
	O306	O	0.045072	0.948553	1.045822
	H307	H	0.046153	0.952859	1.038161
	H308	H	0.046346	0.943577	1.056788
	O309	O	0.032559	1.035291	0.937664
	H310	H	0.030405	1.032962	0.928615
	H311	H	0.028705	1.031277	0.937472
	O312	O	0.018114	-0.017788	0.945433
	H313	H	0.013595	-0.017940	0.936031
	H314	H	0.017973	-0.028253	0.944960
	O315	O	-0.005383	0.009499	-0.057611
	H316	H	-0.001503	-0.000365	-0.060660
	H317	H	-0.004150	0.006646	-0.054571
	O318	O	-0.000654	0.002880	0.948702
	H319	H	-0.001819	0.004446	0.942212
	H320	H	0.012439	0.009391	0.944382
	O321	O	0.498904	0.479516	0.474005
	H322	H	0.496685	0.481032	0.485494
	H323	H	0.498080	0.478128	0.480496
	O324	O	0.948604	0.026733	0.981281
	H325	H	0.951260	0.034112	0.978489
	H326	H	0.942550	0.036939	0.983688
	O327	O	0.985556	0.948012	0.924272
	H328	H	0.985332	0.934288	0.923412
	H329	H	0.988747	0.950741	0.937503
	O330	O	0.524745	0.470650	0.542692
	H331	H	0.526203	0.487470	0.544388
	H332	H	0.519102	0.461167	0.555665
	O333	O	0.989682	-0.016415	-0.030246
	H334	H	0.982372	-0.007868	-0.030292
	H335	H	0.996517	-0.011412	-0.017811
	O336	O	0.549557	0.499226	0.504895
	H337	H	0.556271	0.483937	0.499551
	H338	H	0.546780	0.495041	0.502984
	O339	O	0.487543	0.505246	0.464226
	H340	H	0.495084	0.502894	0.474603
	H341	H	0.489779	0.506276	0.459197
	O342	O	0.061485	1.011016	1.054524
	H343	H	0.056266	1.008812	1.047121
	H344	H	0.065825	1.012464	1.060418
	O345	O	0.509904	0.524968	0.550705
	H346	H	0.513870	0.525996	0.550122
	H347	H	0.514645	0.520627	0.554201
