data_Molecule from HDF5

_cell_length_a		16.483530
_cell_length_b		15.902973
_cell_length_c		16.116625
_cell_angle_alpha	91.605092
_cell_angle_beta	91.139568
_cell_angle_gamma	91.699025
_symmetry_space_group_name_H-M	'P 1'
_symmetry_Int_Tables_number		1

loop_
	_symmetry_equiv_pos_as_xyz
	x,y,z

loop_
	_atom_site_label
	_atom_site_type_symbol
	_atom_site_fract_x
	_atom_site_fract_y
	_atom_site_fract_z
	H0	H	0.401233	0.831985	0.691211
	H1	H	0.604232	0.166889	0.714745
	H2	H	0.584198	0.834056	0.279717
	H3	H	0.402975	0.169650	0.288200
	H4	H	0.705814	0.396829	0.831416
	H5	H	0.719746	0.616045	0.158940
	H6	H	0.276444	0.597200	0.834115
	H7	H	0.277558	0.398498	0.160177
	H8	H	0.830247	0.703207	0.400962
	H9	H	0.156556	0.725970	0.603081
	H10	H	0.833654	0.283561	0.582091
	H11	H	0.160467	0.291285	0.399050
	H12	H	0.832294	0.398642	0.703867
	H13	H	0.155717	0.611175	0.721389
	H14	H	0.834466	0.591843	0.276423
	H15	H	0.157703	0.400862	0.277626
	H16	H	0.405108	0.695683	0.825975
	H17	H	0.597194	0.722593	0.160321
	H18	H	0.580745	0.289528	0.828843
	H19	H	0.400747	0.293147	0.163729
	H20	H	0.702938	0.833992	0.389829
	H21	H	0.721036	0.165689	0.605471
	H22	H	0.276440	0.839263	0.593184
	H23	H	0.285811	0.168065	0.394784
	H24	H	0.899512	0.331531	0.192288
	H25	H	0.101276	0.666340	0.216120
	H26	H	0.082979	0.334983	0.781553
	H27	H	0.901149	0.669455	0.787122
	H28	H	0.206765	0.896105	0.330339
	H29	H	0.223584	0.116054	0.656345
	H30	H	0.777816	0.097422	0.333238
	H31	H	0.778235	0.898085	0.659027
	H32	H	0.330024	0.202155	0.900059
	H33	H	0.656345	0.226145	0.099179
	H34	H	0.332437	0.785847	0.080545
	H35	H	0.659981	0.790768	0.898924
	H36	H	0.333625	0.897307	0.204376
	H37	H	0.656522	0.111351	0.219300
	H38	H	0.334631	0.091577	0.775380
	H39	H	0.659686	0.905294	0.780712
	H40	H	0.907108	0.196097	0.325793
	H41	H	0.100510	0.221800	0.659360
	H42	H	0.083368	0.785690	0.329967
	H43	H	0.901415	0.793326	0.663987
	H44	H	0.200157	0.334187	0.891944
	H45	H	0.220820	0.665391	0.108201
	H46	H	0.773845	0.339204	0.094800
	H47	H	0.784601	0.669156	0.896268
	H48	H	0.406319	0.125739	0.589746
	H49	H	0.586792	0.880732	0.585609
	H50	H	0.595885	0.122311	0.410420
	H51	H	0.397045	0.879916	0.394515
	H52	H	0.585836	0.411372	0.115881
	H53	H	0.587163	0.594390	0.876481
	H54	H	0.401973	0.588590	0.114648
	H55	H	0.398865	0.407063	0.878864
	H56	H	0.105130	0.585813	0.418580
	H57	H	0.880254	0.591405	0.588693
	H58	H	0.114899	0.410612	0.601400
	H59	H	0.876786	0.392760	0.380716
	H60	H	0.110020	0.409076	0.582560
	H61	H	0.878141	0.591975	0.595338
	H62	H	0.111937	0.588231	0.395589
	H63	H	0.879169	0.388874	0.398482
	H64	H	0.414954	0.592737	0.112439
	H65	H	0.598250	0.594752	0.874394
	H66	H	0.598287	0.421057	0.115209
	H67	H	0.394387	0.396343	0.875878
	H68	H	0.591901	0.121346	0.409928
	H69	H	0.590217	0.879924	0.581233
	H70	H	0.416838	0.122873	0.591794
	H71	H	0.402187	0.882432	0.399539
	H72	H	0.906268	0.624420	0.089321
	H73	H	0.087014	0.379038	0.087960
	H74	H	0.087114	0.615556	0.927324
	H75	H	0.901034	0.381263	0.894082
	H76	H	0.088158	0.921470	0.611713
	H77	H	0.098807	0.079863	0.377618
	H78	H	0.912410	0.097359	0.614811
	H79	H	0.898401	0.902099	0.377604
	H80	H	0.612012	0.106967	0.909849
	H81	H	0.380785	0.078652	0.098922
	H82	H	0.609800	0.918562	0.087385
	H83	H	0.378046	0.901294	0.879044
	H84	H	0.611611	0.917642	0.091343
	H85	H	0.371938	0.106098	0.099089
	H86	H	0.607649	0.089677	0.911401
	H87	H	0.376521	0.885619	0.889896
	H88	H	0.904378	0.093603	0.616206
	H89	H	0.081545	0.094331	0.376924
	H90	H	0.092559	0.915257	0.614326
	H91	H	0.894980	0.901681	0.376532
	H92	H	0.108077	0.628258	0.910764
	H93	H	0.084028	0.381691	0.082206
	H94	H	0.911166	0.623764	0.093454
	H95	H	0.899669	0.385463	0.907543
	H96	H	0.412006	0.122261	0.581394
	H97	H	0.591714	0.878291	0.586925
	H98	H	0.593181	0.119867	0.413991
	H99	H	0.395176	0.881064	0.402101
	H100	H	0.585123	0.425265	0.110429
	H101	H	0.593632	0.584740	0.878226
	H102	H	0.406169	0.601731	0.117931
	H103	H	0.387849	0.404052	0.876030
	H104	H	0.113433	0.608607	0.410474
	H105	H	0.878304	0.596941	0.591051
	H106	H	0.109231	0.426417	0.591237
	H107	H	0.882468	0.405278	0.392877
	H108	H	0.910406	0.621649	0.087018
	H109	H	0.091296	0.379691	0.082040
	H110	H	0.081994	0.623020	0.899304
	H111	H	0.888900	0.380195	0.900356
	H112	H	0.095443	0.922360	0.613257
	H113	H	0.101859	0.100667	0.369200
	H114	H	0.910506	0.089343	0.612193
	H115	H	0.896594	0.904162	0.378325
	H116	H	0.613843	0.095783	0.896344
	H117	H	0.382785	0.094514	0.075687
	H118	H	0.611694	0.914080	0.088607
	H119	H	0.383712	0.902292	0.896894
	C120	C	0.379835	0.012421	0.612971
	C121	C	0.621656	0.990307	0.617799
	C122	C	0.616948	0.010286	0.377700
	C123	C	0.373508	0.992096	0.372844
	C124	C	0.614756	0.385177	0.004731
	C125	C	0.622440	0.626245	0.985420
	C126	C	0.377963	0.618731	0.005162
	C127	C	0.368821	0.376579	0.987258
	C128	C	0.003240	0.619485	0.376981
	C129	C	0.985923	0.626804	0.623103
	C130	C	0.004013	0.381817	0.615879
	C131	C	0.987761	0.373374	0.367001
	C132	C	0.877215	0.512403	0.115041
	C133	C	0.119558	0.490545	0.117982
	C134	C	0.115243	0.511144	0.878959
	C135	C	0.872236	0.493114	0.874437
	C136	C	0.116349	0.884667	0.504282
	C137	C	0.124157	0.125835	0.484211
	C138	C	0.879686	0.118154	0.504441
	C139	C	0.871133	0.876701	0.487165
	C140	C	0.503587	0.120851	0.874856
	C141	C	0.485870	0.126883	0.121675
	C142	C	0.504024	0.882949	0.114210
	C143	C	0.487607	0.873408	0.865921
	C144	C	0.380702	0.883889	0.659444
	C145	C	0.622968	0.116474	0.676656
	C146	C	0.607913	0.884303	0.317843
	C147	C	0.380580	0.119032	0.322513
	C148	C	0.667694	0.380237	0.880605
	C149	C	0.680417	0.632328	0.109599
	C150	C	0.318324	0.615276	0.881739
	C151	C	0.315647	0.379594	0.111212
	C152	C	0.879824	0.668589	0.379202
	C153	C	0.107927	0.686568	0.622710
	C154	C	0.881909	0.322544	0.606428
	C155	C	0.111216	0.325778	0.375998
	C156	C	0.881258	0.379755	0.667036
	C157	C	0.107587	0.629671	0.681710
	C158	C	0.882024	0.613281	0.317370
	C159	C	0.109632	0.380169	0.315203
	C160	C	0.382395	0.664195	0.877662
	C161	C	0.619514	0.685662	0.110193
	C162	C	0.605287	0.326953	0.879146
	C163	C	0.376725	0.326891	0.113092
	C164	C	0.666748	0.884108	0.373242
	C165	C	0.681373	0.115782	0.622441
	C166	C	0.318584	0.887533	0.610558
	C167	C	0.322321	0.118191	0.375603
	C168	C	0.878105	0.383707	0.161273
	C169	C	0.121162	0.616196	0.178028
	C170	C	0.106019	0.384996	0.820102
	C171	C	0.879270	0.619530	0.823135
	C172	C	0.168960	0.879289	0.379665
	C173	C	0.183240	0.132014	0.607650
	C174	C	0.820268	0.114787	0.380892
	C175	C	0.816766	0.878823	0.610838
	C176	C	0.379792	0.168393	0.877938
	C177	C	0.608002	0.186830	0.120343
	C178	C	0.381397	0.824028	0.105155
	C179	C	0.611029	0.825531	0.875473
	C180	C	0.381718	0.879696	0.166431
	C181	C	0.607792	0.130139	0.180046
	C182	C	0.382282	0.113313	0.815882
	C183	C	0.610933	0.882400	0.816637
	C184	C	0.884058	0.164556	0.377213
	C185	C	0.122085	0.184984	0.608928
	C186	C	0.107763	0.824230	0.379415
	C187	C	0.878105	0.826971	0.613217
	C188	C	0.164538	0.384723	0.875021
	C189	C	0.180403	0.615614	0.124156
	C190	C	0.815953	0.387617	0.112335
	C191	C	0.821170	0.619183	0.877465
	C192	C	0.404540	0.100567	0.593485
	C193	C	0.596728	0.902193	0.592222
	C194	C	0.599017	0.098429	0.403933
	C195	C	0.392413	0.904050	0.392699
	C196	C	0.595590	0.411605	0.091379
	C197	C	0.599798	0.599213	0.898704
	C198	C	0.400986	0.599893	0.092477
	C199	C	0.387842	0.396339	0.899696
	C200	C	0.088258	0.599846	0.401157
	C201	C	0.900900	0.600991	0.598908
	C202	C	0.089267	0.407911	0.597246
	C203	C	0.901695	0.390585	0.385071
	C204	C	0.902113	0.600403	0.095914
	C205	C	0.094691	0.402801	0.091652
	C206	C	0.097559	0.599583	0.904835
	C207	C	0.891017	0.404977	0.894681
	C208	C	0.097610	0.911776	0.590648
	C209	C	0.100861	0.099332	0.396978
	C210	C	0.902373	0.099093	0.591769
	C211	C	0.890920	0.896548	0.400066
	C212	C	0.589078	0.102983	0.898673
	C213	C	0.400621	0.100859	0.097999
	C214	C	0.588887	0.909167	0.095048
	C215	C	0.401638	0.890856	0.883286
	Zn216	Zn	0.497954	-0.000623	0.740052
	Zn217	Zn	0.494646	0.002689	0.248973
	Zn218	Zn	0.748551	0.504179	-0.004060
	Zn219	Zn	0.245238	0.500483	-0.002750
	Zn220	Zn	-0.005618	0.752762	0.497804
	Zn221	Zn	-0.001542	0.248235	0.492824
	Zn222	Zn	-0.005804	0.503082	0.750056
	Zn223	Zn	-0.003408	0.499068	0.241462
	Zn224	Zn	0.496897	0.748899	-0.007349
	Zn225	Zn	0.493063	0.253435	-0.003154
	Zn226	Zn	0.746879	-0.000425	0.496881
	Zn227	Zn	0.250325	0.003647	0.494294
	N228	N	0.418399	0.962514	0.661322
	N229	N	0.586694	0.037268	0.674100
	N230	N	0.577467	0.963965	0.320413
	N231	N	0.411669	0.039623	0.320410
	N232	N	0.673539	0.416227	0.959466
	N233	N	0.682433	0.596291	0.030993
	N234	N	0.315433	0.587677	0.962001
	N235	N	0.310581	0.409659	0.031829
	N236	N	0.956163	0.672460	0.415650
	N237	N	0.031228	0.684996	0.587192
	N238	N	0.959160	0.323577	0.575539
	N239	N	0.034386	0.321153	0.407402
	N240	N	0.958154	0.416170	0.672869
	N241	N	0.030819	0.592965	0.681946
	N242	N	0.959709	0.583417	0.315890
	N243	N	0.031735	0.409030	0.309317
	N244	N	0.419085	0.666505	0.955339
	N245	N	0.584403	0.682334	0.031905
	N246	N	0.573049	0.329727	0.957350
	N247	N	0.408851	0.324709	0.034972
	N248	N	0.672473	0.963548	0.409496
	N249	N	0.680639	0.036268	0.586594
	N250	N	0.317794	0.968354	0.582385
	N251	N	0.317643	0.038326	0.406215
	N252	N	0.915967	0.462127	0.163086
	N253	N	0.083833	0.537455	0.174241
	N254	N	0.076026	0.464777	0.822536
	N255	N	0.910059	0.540058	0.820781
	N256	N	0.174475	0.916301	0.458236
	N257	N	0.184740	0.096141	0.528936
	N258	N	0.817324	0.086897	0.461134
	N259	N	0.812179	0.908938	0.531574
	N260	N	0.456188	0.173251	0.914154
	N261	N	0.531150	0.184953	0.084865
	N262	N	0.458264	0.825927	0.073327
	N263	N	0.533563	0.819501	0.905122
	N264	N	0.458799	0.915820	0.172292
	N265	N	0.531012	0.093429	0.180812
	N266	N	0.460368	0.084806	0.813752
	N267	N	0.533141	0.911253	0.810154
	N268	N	0.920640	0.166677	0.454965
	N269	N	0.086189	0.181329	0.531004
	N270	N	0.075852	0.827276	0.457624
	N271	N	0.911400	0.825566	0.535517
	N272	N	0.170247	0.464287	0.911079
	N273	N	0.179286	0.536501	0.087484
	N274	N	0.814980	0.468645	0.084605
	N275	N	0.816634	0.539383	0.908541
	O276	O	0.061357	0.103988	0.041107
	H277	H	0.048843	0.097175	0.035165
	H278	H	0.061671	0.098107	0.062130
	O279	O	0.520466	0.479574	0.531457
	H280	H	0.511736	0.485075	0.533984
	H281	H	0.521716	0.490718	0.536830
	O282	O	0.582654	0.466612	0.528169
	H283	H	0.585475	0.465381	0.528235
	H284	H	0.589852	0.465113	0.534195
	O285	O	-0.034101	0.893239	0.955086
	H286	H	-0.034457	0.898327	0.951639
	H287	H	-0.023830	0.894959	0.957336
	O288	O	0.475664	0.437020	0.505147
	H289	H	0.473527	0.440289	0.513330
	H290	H	0.475524	0.434206	0.491045
	O291	O	0.953273	0.989428	0.961581
	H292	H	0.956603	0.981378	0.957496
	H293	H	0.954553	0.983079	0.968463
	O294	O	1.032680	1.048833	1.110268
	H295	H	1.047266	1.054779	1.101190
	H296	H	1.031221	1.059756	1.105644
	O297	O	1.031215	-0.030456	1.008795
	H298	H	1.039128	-0.026366	1.016911
	H299	H	1.022344	-0.024797	1.013009
	O300	O	0.497630	0.481736	0.516308
	H301	H	0.519196	0.488715	0.515366
	H302	H	0.488126	0.485010	0.528217
	O303	O	1.013878	0.024957	0.066334
	H304	H	1.007982	0.020700	0.059324
	H305	H	1.004316	0.028555	0.074638
	O306	O	-0.015209	0.956093	0.942151
	H307	H	-0.019356	0.957222	0.942393
	H308	H	-0.013982	0.959501	0.944124
	O309	O	0.447138	0.530881	0.393435
	H310	H	0.450988	0.524810	0.393132
	H311	H	0.443644	0.522375	0.380165
	O312	O	0.966024	0.045082	1.023449
	H313	H	0.963710	0.041050	1.016202
	H314	H	0.970681	0.044927	1.022376
	O315	O	0.521076	0.501411	0.444105
	H316	H	0.523354	0.507638	0.441040
	H317	H	0.532347	0.489763	0.451957
	O318	O	0.481251	0.422503	0.532812
	H319	H	0.478370	0.417177	0.528491
	H320	H	0.491498	0.427397	0.535217
	O321	O	1.040927	1.046377	1.043895
	H322	H	1.041336	1.040149	1.042934
	H323	H	1.066452	1.056446	1.044906
	O324	O	0.484521	0.439637	0.504422
	H325	H	0.498961	0.442542	0.508186
	H326	H	0.471654	0.454711	0.493333
	O327	O	0.507277	0.562753	0.562734
	H328	H	0.519788	0.567991	0.560356
	H329	H	0.508535	0.574648	0.565221
	O330	O	1.070745	0.000055	1.008245
	H331	H	1.054011	-0.003985	1.014620
	H332	H	1.074661	0.006227	1.004377
	O333	O	1.043070	1.082467	0.038553
	H334	H	1.041653	1.083380	0.039312
	H335	H	1.047537	1.084908	0.026504
	O336	O	0.446816	0.470517	0.622350
	H337	H	0.439047	0.490330	0.620255
	H338	H	0.440396	0.464130	0.626558
	O339	O	0.564652	0.525651	0.489816
	H340	H	0.558512	0.508007	0.501477
	H341	H	0.570385	0.531571	0.491544
	O342	O	-0.035399	1.080836	-0.020896
	H343	H	-0.035082	1.071566	-0.019859
	H344	H	-0.021863	1.083202	-0.018247
	O345	O	0.028096	-0.078958	-0.035237
	H346	H	0.016567	-0.071443	-0.026678
	H347	H	0.028387	-0.077867	-0.019244
	O348	O	0.456118	0.497996	0.440728
	H349	H	0.449105	0.489458	0.448842
	H350	H	0.455103	0.493400	0.436495
	O351	O	0.548489	0.618966	0.610920
	H352	H	0.535419	0.614070	0.601326
	H353	H	0.548907	0.628425	0.620340
	O354	O	0.514402	0.534455	0.472617
	H355	H	0.514856	0.523216	0.460066
	H356	H	0.518229	0.531504	0.481138
	O357	O	0.534269	0.459658	0.468113
	H358	H	0.525388	0.455465	0.470523
	H359	H	0.545189	0.462603	0.477196
	O360	O	-0.062329	0.025330	-0.026198
	H361	H	-0.063651	0.035291	-0.037381
	H362	H	-0.055663	0.017294	-0.028908
	O363	O	0.581142	0.538383	0.443900
	H364	H	0.580057	0.533789	0.438975
	H365	H	0.581478	0.543240	0.437167
	O366	O	-0.073420	-0.047360	0.893642
	H367	H	-0.080054	-0.061239	0.875839
	H368	H	-0.073739	-0.030551	0.899422
	O369	O	0.341642	0.538351	0.497386
	H370	H	0.334952	0.527315	0.485365
	H371	H	0.356240	0.540578	0.497878
