data_Molecule from HDF5

_cell_length_a		16.210476
_cell_length_b		16.281582
_cell_length_c		16.226026
_cell_angle_alpha	90.038269
_cell_angle_beta	89.883165
_cell_angle_gamma	89.936639
_symmetry_space_group_name_H-M	'P 1'
_symmetry_Int_Tables_number		1

loop_
	_symmetry_equiv_pos_as_xyz
	x,y,z

loop_
	_atom_site_label
	_atom_site_type_symbol
	_atom_site_fract_x
	_atom_site_fract_y
	_atom_site_fract_z
	H0	H	0.399008	0.837532	0.711633
	H1	H	0.594242	0.164999	0.711293
	H2	H	0.596045	0.837207	0.281543
	H3	H	0.398671	0.165023	0.285037
	H4	H	0.710351	0.403024	0.831868
	H5	H	0.709667	0.600233	0.160724
	H6	H	0.283239	0.599115	0.832417
	H7	H	0.284141	0.403748	0.161024
	H8	H	0.832218	0.714293	0.399564
	H9	H	0.160287	0.715647	0.597996
	H10	H	0.832316	0.287438	0.595485
	H11	H	0.161240	0.286273	0.398991
	H12	H	0.832178	0.403585	0.710395
	H13	H	0.161293	0.597914	0.710139
	H14	H	0.831964	0.598905	0.283934
	H15	H	0.161294	0.401604	0.282812
	H16	H	0.396623	0.716452	0.833470
	H17	H	0.595048	0.715438	0.159945
	H18	H	0.595333	0.286249	0.832255
	H19	H	0.398255	0.287385	0.160422
	H20	H	0.711106	0.836146	0.398602
	H21	H	0.710998	0.164147	0.596272
	H22	H	0.283032	0.836689	0.595395
	H23	H	0.281491	0.164093	0.398816
	H24	H	0.899901	0.336236	0.209702
	H25	H	0.093856	0.664625	0.211237
	H26	H	0.094305	0.336269	0.784120
	H27	H	0.898317	0.664157	0.782314
	H28	H	0.211184	0.901453	0.333291
	H29	H	0.207711	0.096461	0.662318
	H30	H	0.784509	0.096853	0.332762
	H31	H	0.783703	0.903108	0.661852
	H32	H	0.332723	0.214736	0.899007
	H33	H	0.660785	0.215370	0.095003
	H34	H	0.333114	0.785737	0.097822
	H35	H	0.660205	0.786106	0.897024
	H36	H	0.332103	0.904459	0.210498
	H37	H	0.661078	0.098954	0.211037
	H38	H	0.332100	0.098772	0.785292
	H39	H	0.660802	0.902274	0.782170
	H40	H	0.898491	0.214298	0.333418
	H41	H	0.095000	0.214016	0.661307
	H42	H	0.096072	0.785199	0.333652
	H43	H	0.898315	0.786900	0.661669
	H44	H	0.211204	0.336728	0.899041
	H45	H	0.209580	0.665473	0.094360
	H46	H	0.781548	0.337380	0.096234
	H47	H	0.783779	0.665369	0.900069
	H48	H	0.398412	0.118316	0.589313
	H49	H	0.580279	0.885320	0.594102
	H50	H	0.585411	0.112408	0.414732
	H51	H	0.397978	0.882669	0.407023
	H52	H	0.584621	0.412980	0.110470
	H53	H	0.587096	0.592402	0.880372
	H54	H	0.406686	0.585255	0.110329
	H55	H	0.407667	0.416568	0.882259
	H56	H	0.116429	0.599448	0.403400
	H57	H	0.875775	0.597464	0.596333
	H58	H	0.112393	0.409978	0.585829
	H59	H	0.879852	0.409493	0.403315
	H60	H	0.115525	0.409183	0.596958
	H61	H	0.880834	0.596682	0.582200
	H62	H	0.111083	0.590846	0.410949
	H63	H	0.878507	0.404199	0.401464
	H64	H	0.409712	0.601508	0.114572
	H65	H	0.589634	0.597701	0.878448
	H66	H	0.586612	0.401338	0.114590
	H67	H	0.410036	0.398792	0.878508
	H68	H	0.600812	0.120030	0.405118
	H69	H	0.593382	0.885894	0.580855
	H70	H	0.400966	0.119707	0.594947
	H71	H	0.405082	0.882526	0.398318
	H72	H	0.898128	0.620077	0.094462
	H73	H	0.089300	0.385640	0.086515
	H74	H	0.077639	0.613949	0.903693
	H75	H	0.901506	0.383085	0.902894
	H76	H	0.091405	0.919647	0.611210
	H77	H	0.096667	0.088770	0.379545
	H78	H	0.913413	0.097485	0.613471
	H79	H	0.900984	0.904700	0.378311
	H80	H	0.611779	0.088033	0.906522
	H81	H	0.376393	0.098446	0.096374
	H82	H	0.611936	0.903994	0.078685
	H83	H	0.380582	0.906632	0.910837
	H84	H	0.611593	0.917861	0.092212
	H85	H	0.379893	0.097703	0.085430
	H86	H	0.616330	0.094623	0.897449
	H87	H	0.380329	0.914488	0.902300
	H88	H	0.895928	0.100260	0.619147
	H89	H	0.082126	0.090368	0.382774
	H90	H	0.077432	0.900954	0.612045
	H91	H	0.904253	0.909799	0.381437
	H92	H	0.097789	0.616287	0.914885
	H93	H	0.094982	0.382001	0.090417
	H94	H	0.908564	0.616892	0.094100
	H95	H	0.905865	0.384572	0.902970
	H96	H	0.404617	0.117324	0.590556
	H97	H	0.598119	0.879565	0.598578
	H98	H	0.583561	0.117560	0.395389
	H99	H	0.408686	0.886312	0.408524
	H100	H	0.596049	0.409324	0.115263
	H101	H	0.593420	0.591999	0.878225
	H102	H	0.394734	0.595287	0.117454
	H103	H	0.393345	0.406886	0.875652
	H104	H	0.113815	0.588127	0.399052
	H105	H	0.881804	0.585354	0.591269
	H106	H	0.116634	0.399062	0.590145
	H107	H	0.880258	0.404993	0.407238
	H108	H	0.903290	0.616073	0.084737
	H109	H	0.088798	0.383620	0.094588
	H110	H	0.095714	0.622574	0.892651
	H111	H	0.903441	0.384249	0.907062
	H112	H	0.099775	0.899540	0.620564
	H113	H	0.089510	0.101921	0.377313
	H114	H	0.901078	0.084258	0.612859
	H115	H	0.907812	0.904632	0.379886
	H116	H	0.615793	0.099631	0.908249
	H117	H	0.380555	0.089233	0.092739
	H118	H	0.618276	0.900385	0.096866
	H119	H	0.376373	0.903747	0.900483
	C120	C	0.374360	0.009664	0.619406
	C121	C	0.618494	0.992201	0.619304
	C122	C	0.618902	0.008720	0.375578
	C123	C	0.374946	0.992089	0.376230
	C124	C	0.618238	0.379186	0.004866
	C125	C	0.618105	0.622612	0.987642
	C126	C	0.375049	0.622500	0.005219
	C127	C	0.375370	0.379357	0.987797
	C128	C	0.005029	0.621258	0.376012
	C129	C	0.988298	0.621532	0.618510
	C130	C	0.005707	0.378471	0.619048
	C131	C	0.988446	0.378261	0.375647
	C132	C	0.874475	0.509421	0.119152
	C133	C	0.118910	0.492394	0.119034
	C134	C	0.118403	0.509180	0.875408
	C135	C	0.875497	0.492216	0.875843
	C136	C	0.118562	0.877945	0.506356
	C137	C	0.117636	0.121376	0.488673
	C138	C	0.875166	0.122143	0.506317
	C139	C	0.875708	0.878663	0.488786
	C140	C	0.505673	0.122396	0.875929
	C141	C	0.487861	0.122860	0.119071
	C142	C	0.505364	0.879457	0.118387
	C143	C	0.488033	0.879802	0.875963
	C144	C	0.377951	0.886238	0.673940
	C145	C	0.615067	0.115833	0.673962
	C146	C	0.616604	0.885724	0.319830
	C147	C	0.377865	0.115714	0.321866
	C148	C	0.673001	0.382360	0.881126
	C149	C	0.672326	0.620163	0.111459
	C150	C	0.320366	0.619886	0.881691
	C151	C	0.321006	0.382688	0.111589
	C152	C	0.881342	0.676547	0.378603
	C153	C	0.111695	0.676899	0.616977
	C154	C	0.881592	0.324748	0.616116
	C155	C	0.112341	0.323825	0.378516
	C156	C	0.881417	0.382431	0.673225
	C157	C	0.112113	0.618706	0.673183
	C158	C	0.881116	0.618925	0.321491
	C159	C	0.112299	0.380884	0.320647
	C160	C	0.376914	0.677993	0.882072
	C161	C	0.615486	0.677704	0.111034
	C162	C	0.616000	0.324112	0.881234
	C163	C	0.377861	0.324914	0.111398
	C164	C	0.673753	0.885377	0.378032
	C165	C	0.673320	0.115319	0.616900
	C166	C	0.320236	0.885927	0.616221
	C167	C	0.319528	0.115309	0.378596
	C168	C	0.878385	0.385439	0.172731
	C169	C	0.115301	0.615853	0.173634
	C170	C	0.115329	0.385213	0.821365
	C171	C	0.878248	0.615637	0.820585
	C172	C	0.173477	0.880722	0.382484
	C173	C	0.170984	0.117581	0.613019
	C174	C	0.821133	0.118449	0.382235
	C175	C	0.821155	0.882171	0.612606
	C176	C	0.381744	0.177022	0.878694
	C177	C	0.611846	0.177589	0.116051
	C178	C	0.381744	0.824329	0.117040
	C179	C	0.611374	0.824278	0.877208
	C180	C	0.381533	0.882912	0.173612
	C181	C	0.612021	0.119626	0.173323
	C182	C	0.381705	0.119681	0.821734
	C183	C	0.611730	0.882324	0.820387
	C184	C	0.877946	0.176586	0.382447
	C185	C	0.115235	0.176134	0.612465
	C186	C	0.116068	0.823349	0.382493
	C187	C	0.877873	0.824508	0.612637
	C188	C	0.173356	0.385516	0.878347
	C189	C	0.172934	0.616007	0.115569
	C190	C	0.819658	0.386197	0.116261
	C191	C	0.821307	0.616376	0.878946
	C192	C	0.395154	0.096141	0.597912
	C193	C	0.596875	0.905879	0.597505
	C194	C	0.596437	0.094529	0.398387
	C195	C	0.397399	0.905952	0.398248
	C196	C	0.595696	0.401224	0.091250
	C197	C	0.596385	0.600470	0.901206
	C198	C	0.397205	0.600347	0.091743
	C199	C	0.397263	0.401103	0.901034
	C200	C	0.091411	0.599295	0.397907
	C201	C	0.901710	0.599610	0.596295
	C202	C	0.092512	0.399762	0.597317
	C203	C	0.901934	0.399946	0.397428
	C204	C	0.896717	0.595504	0.097677
	C205	C	0.097396	0.406012	0.096993
	C206	C	0.096673	0.595291	0.897195
	C207	C	0.897109	0.406434	0.897827
	C208	C	0.096069	0.900079	0.592392
	C209	C	0.095914	0.100028	0.402142
	C210	C	0.897088	0.100513	0.592856
	C211	C	0.897927	0.899893	0.402272
	C212	C	0.592307	0.100747	0.897780
	C213	C	0.401366	0.101467	0.097818
	C214	C	0.591645	0.900870	0.095876
	C215	C	0.401476	0.901793	0.898208
	Zn216	Zn	0.496408	0.001333	0.747792
	Zn217	Zn	0.496571	0.000653	0.247414
	Zn218	Zn	0.746365	0.501308	-0.003304
	Zn219	Zn	0.247576	0.500849	-0.003478
	Zn220	Zn	-0.003347	0.749824	0.497584
	Zn221	Zn	-0.002812	0.250260	0.497390
	Zn222	Zn	-0.003014	0.500198	0.746823
	Zn223	Zn	-0.003414	0.500240	0.247852
	Zn224	Zn	0.496522	0.750821	-0.003266
	Zn225	Zn	0.496262	0.250879	-0.003435
	Zn226	Zn	0.747539	0.000174	0.497474
	Zn227	Zn	0.245669	0.000700	0.497581
	N228	N	0.410759	0.964036	0.675953
	N229	N	0.581561	0.038151	0.675475
	N230	N	0.583095	0.963340	0.318306
	N231	N	0.411584	0.038027	0.320309
	N232	N	0.674427	0.415990	0.958943
	N233	N	0.674062	0.586527	0.033612
	N234	N	0.319366	0.585929	0.959331
	N235	N	0.319650	0.416045	0.033702
	N236	N	0.959265	0.677996	0.411940
	N237	N	0.033653	0.678685	0.583812
	N238	N	0.959926	0.322055	0.583292
	N239	N	0.034383	0.322168	0.412155
	N240	N	0.959500	0.415319	0.674875
	N241	N	0.034283	0.584958	0.674233
	N242	N	0.959063	0.585221	0.319797
	N243	N	0.034319	0.414124	0.318936
	N244	N	0.410139	0.679589	0.960006
	N245	N	0.582265	0.679153	0.033068
	N246	N	0.582521	0.322243	0.959173
	N247	N	0.410875	0.322810	0.033280
	N248	N	0.675078	0.962767	0.412144
	N249	N	0.675754	0.037486	0.584031
	N250	N	0.317814	0.963814	0.583059
	N251	N	0.317624	0.037518	0.411787
	N252	N	0.911547	0.463131	0.174956
	N253	N	0.082458	0.538063	0.175813
	N254	N	0.082081	0.463087	0.819320
	N255	N	0.911349	0.537721	0.818540
	N256	N	0.174809	0.914390	0.460184
	N257	N	0.172668	0.084403	0.535057
	N258	N	0.819375	0.085412	0.460207
	N259	N	0.819830	0.915295	0.534667
	N260	N	0.459883	0.178941	0.911427
	N261	N	0.533632	0.179962	0.083253
	N262	N	0.459656	0.822119	0.083433
	N263	N	0.533413	0.822624	0.911060
	N264	N	0.459330	0.916495	0.174445
	N265	N	0.534140	0.086440	0.175368
	N266	N	0.459737	0.086225	0.820054
	N267	N	0.534005	0.916163	0.819629
	N268	N	0.910736	0.179131	0.460571
	N269	N	0.082579	0.178482	0.534356
	N270	N	0.082655	0.821453	0.460455
	N271	N	0.911244	0.822365	0.534735
	N272	N	0.175412	0.463324	0.911232
	N273	N	0.175044	0.538188	0.082037
	N274	N	0.816955	0.464313	0.083849
	N275	N	0.819574	0.538946	0.912653
	O276	O	0.497579	-0.542294	1.383568
	H277	H	0.502181	-0.548514	1.370065
	H278	H	0.499079	-0.540003	1.378327
	O279	O	0.508743	0.447576	0.400751
	H280	H	0.499284	0.453851	0.408260
	H281	H	0.511712	0.444072	0.406306
	O282	O	1.489339	1.490430	0.424551
	H283	H	1.484185	1.480023	0.421008
	H284	H	1.489898	1.498048	0.421315
	O285	O	0.512382	0.461091	0.357337
	H286	H	0.511637	0.459415	0.366786
	H287	H	0.513599	0.465213	0.346095
