data_Molecule from HDF5

_cell_length_a		16.481377
_cell_length_b		16.747988
_cell_length_c		16.477485
_cell_angle_alpha	89.906725
_cell_angle_beta	89.992927
_cell_angle_gamma	90.028605
_symmetry_space_group_name_H-M	'P 1'
_symmetry_Int_Tables_number		1

loop_
	_symmetry_equiv_pos_as_xyz
	x,y,z

loop_
	_atom_site_label
	_atom_site_type_symbol
	_atom_site_fract_x
	_atom_site_fract_y
	_atom_site_fract_z
	H0	H	0.372783	0.848738	0.712986
	H1	H	0.586547	0.156225	0.712007
	H2	H	0.583715	0.846632	0.268371
	H3	H	0.378175	0.158916	0.268920
	H4	H	0.704300	0.396319	0.833176
	H5	H	0.699537	0.605464	0.147436
	H6	H	0.263159	0.603469	0.830206
	H7	H	0.264662	0.401568	0.147617
	H8	H	0.823044	0.722581	0.383735
	H9	H	0.136486	0.725160	0.596548
	H10	H	0.824875	0.278243	0.600306
	H11	H	0.136606	0.282292	0.386833
	H12	H	0.822680	0.399737	0.710439
	H13	H	0.138181	0.605759	0.709137
	H14	H	0.822310	0.605677	0.269453
	H15	H	0.137527	0.400144	0.272079
	H16	H	0.373142	0.725559	0.833347
	H17	H	0.587535	0.724912	0.145051
	H18	H	0.590929	0.277903	0.833314
	H19	H	0.377308	0.282248	0.146281
	H20	H	0.700368	0.846400	0.384228
	H21	H	0.704208	0.156693	0.594982
	H22	H	0.257050	0.847677	0.594509
	H23	H	0.259520	0.157831	0.385757
	H24	H	0.873623	0.348339	0.213631
	H25	H	0.086746	0.656474	0.212570
	H26	H	0.086583	0.348511	0.767101
	H27	H	0.873447	0.656516	0.765847
	H28	H	0.197177	0.901357	0.329727
	H29	H	0.204127	0.108588	0.644217
	H30	H	0.761826	0.104958	0.329494
	H31	H	0.757549	0.897352	0.644430
	H32	H	0.324791	0.224599	0.881152
	H33	H	0.637688	0.224392	0.095615
	H34	H	0.324094	0.781957	0.094361
	H35	H	0.634700	0.778337	0.879920
	H36	H	0.321267	0.902737	0.204700
	H37	H	0.639674	0.103953	0.207474
	H38	H	0.324652	0.108186	0.766665
	H39	H	0.636375	0.896898	0.766200
	H40	H	0.873067	0.225908	0.333163
	H41	H	0.089884	0.226307	0.644205
	H42	H	0.084751	0.782211	0.332138
	H43	H	0.872427	0.779232	0.644127
	H44	H	0.201633	0.346919	0.886239
	H45	H	0.204445	0.656320	0.095543
	H46	H	0.754266	0.349971	0.099677
	H47	H	0.756932	0.656524	0.883644
	H48	H	0.395509	0.108663	0.571417
	H49	H	0.566130	0.894410	0.573666
	H50	H	0.569445	0.111374	0.402870
	H51	H	0.390291	0.892113	0.399269
	H52	H	0.569599	0.413171	0.102529
	H53	H	0.558995	0.592181	0.879151
	H54	H	0.397302	0.590632	0.100423
	H55	H	0.392632	0.414878	0.876499
	H56	H	0.092208	0.588390	0.398489
	H57	H	0.868959	0.589322	0.575940
	H58	H	0.093153	0.408870	0.574305
	H59	H	0.867889	0.416401	0.403650
	H60	H	0.089593	0.416359	0.574496
	H61	H	0.867946	0.591743	0.577672
	H62	H	0.095426	0.596806	0.399496
	H63	H	0.865276	0.411881	0.398899
	H64	H	0.392154	0.596922	0.103887
	H65	H	0.571829	0.596716	0.873651
	H66	H	0.565401	0.415609	0.098088
	H67	H	0.395637	0.408667	0.874975
	H68	H	0.576292	0.115828	0.397232
	H69	H	0.571394	0.891773	0.576331
	H70	H	0.387747	0.113206	0.574284
	H71	H	0.383310	0.888949	0.396728
	H72	H	0.894601	0.611869	0.077883
	H73	H	0.069109	0.389495	0.088912
	H74	H	0.077022	0.615213	0.901751
	H75	H	0.887591	0.392046	0.903216
	H76	H	0.060882	0.912248	0.599485
	H77	H	0.068586	0.097766	0.374133
	H78	H	0.896353	0.088219	0.599109
	H79	H	0.888680	0.905591	0.371644
	H80	H	0.593607	0.092009	0.902068
	H81	H	0.368838	0.089683	0.080544
	H82	H	0.595983	0.908523	0.079449
	H83	H	0.366023	0.911394	0.898338
	H84	H	0.592865	0.911688	0.073680
	H85	H	0.365252	0.098419	0.080736
	H86	H	0.591807	0.090574	0.904041
	H87	H	0.368940	0.912177	0.906451
	H88	H	0.892160	0.093863	0.601670
	H89	H	0.070647	0.088510	0.376148
	H90	H	0.070368	0.907331	0.604454
	H91	H	0.887096	0.916671	0.375500
	H92	H	0.069841	0.615104	0.894077
	H93	H	0.066760	0.394492	0.075264
	H94	H	0.889317	0.612857	0.076376
	H95	H	0.895224	0.391296	0.897780
	H96	H	0.395034	0.113208	0.579956
	H97	H	0.566045	0.891866	0.579704
	H98	H	0.567262	0.113963	0.393455
	H99	H	0.389852	0.889779	0.391537
	H100	H	0.564707	0.409635	0.100182
	H101	H	0.570639	0.583952	0.878958
	H102	H	0.388791	0.589633	0.102356
	H103	H	0.389361	0.409466	0.873585
	H104	H	0.091751	0.592895	0.406998
	H105	H	0.868137	0.592171	0.574987
	H106	H	0.093970	0.413580	0.580817
	H107	H	0.866280	0.409650	0.405193
	H108	H	0.890793	0.614071	0.081741
	H109	H	0.079915	0.388811	0.079151
	H110	H	0.067415	0.611398	0.903608
	H111	H	0.895767	0.395455	0.906565
	H112	H	0.070823	0.918346	0.601352
	H113	H	0.061729	0.092390	0.378496
	H114	H	0.888948	0.087223	0.600551
	H115	H	0.897410	0.911119	0.377230
	H116	H	0.592697	0.089386	0.901292
	H117	H	0.368867	0.095129	0.072799
	H118	H	0.593619	0.915408	0.079878
	H119	H	0.369631	0.919042	0.901299
	C120	C	0.358825	0.010364	0.609201
	C121	C	0.601665	0.994310	0.609797
	C122	C	0.601596	0.010450	0.366757
	C123	C	0.357464	0.993732	0.365150
	C124	C	0.601425	0.380447	-0.002630
	C125	C	0.600384	0.623227	0.980840
	C126	C	0.359891	0.623508	-0.001966
	C127	C	0.360648	0.380437	0.979813
	C128	C	-0.011099	0.623596	0.368727
	C129	C	0.971669	0.624018	0.610152
	C130	C	-0.011124	0.380970	0.610706
	C131	C	0.970737	0.381337	0.370326
	C132	C	0.858049	0.511212	0.111978
	C133	C	0.103760	0.493411	0.112468
	C134	C	0.102947	0.511200	0.867764
	C135	C	0.859533	0.494635	0.869061
	C136	C	0.100189	0.881329	0.497469
	C137	C	0.100581	0.124176	0.480139
	C138	C	0.859474	0.122760	0.496973
	C139	C	0.858109	0.879774	0.478818
	C140	C	0.489697	0.123534	0.868375
	C141	C	0.472372	0.124616	0.110145
	C142	C	0.489436	0.881458	0.109269
	C143	C	0.471406	0.881735	0.868328
	C144	C	0.354938	0.894604	0.671618
	C145	C	0.604925	0.110375	0.671094
	C146	C	0.602274	0.893099	0.307930
	C147	C	0.358379	0.111800	0.307981
	C148	C	0.663596	0.378009	0.879891
	C149	C	0.660017	0.624426	0.099751
	C150	C	0.301289	0.623804	0.878275
	C151	C	0.303167	0.381314	0.099681
	C152	C	0.870260	0.682645	0.365822
	C153	C	0.089403	0.684776	0.614085
	C154	C	0.871205	0.320036	0.616084
	C155	C	0.089446	0.322341	0.368325
	C156	C	0.870128	0.380203	0.670994
	C157	C	0.090463	0.625362	0.669960
	C158	C	0.870022	0.624534	0.308856
	C159	C	0.090180	0.380951	0.311654
	C160	C	0.356256	0.684070	0.879753
	C161	C	0.604517	0.684094	0.098449
	C162	C	0.607251	0.319045	0.880076
	C163	C	0.359051	0.321980	0.099123
	C164	C	0.660559	0.893119	0.365350
	C165	C	0.663306	0.110253	0.612866
	C166	C	0.297696	0.894014	0.612540
	C167	C	0.299352	0.111270	0.365591
	C168	C	0.855044	0.395144	0.173465
	C169	C	0.105485	0.610007	0.172286
	C170	C	0.104523	0.394543	0.807878
	C171	C	0.855961	0.610358	0.807197
	C172	C	0.158753	0.881389	0.378054
	C173	C	0.162891	0.126615	0.597702
	C174	C	0.800320	0.124564	0.377715
	C175	C	0.797814	0.878531	0.597426
	C176	C	0.372039	0.184497	0.863684
	C177	C	0.590928	0.183748	0.112974
	C178	C	0.370790	0.822360	0.111752
	C179	C	0.588598	0.820100	0.863305
	C180	C	0.369573	0.882334	0.166772
	C181	C	0.591655	0.124212	0.168840
	C182	C	0.371617	0.126323	0.807068
	C183	C	0.589318	0.879017	0.806805
	C184	C	0.855718	0.184470	0.379514
	C185	C	0.106153	0.185199	0.597495
	C186	C	0.102939	0.822142	0.379073
	C187	C	0.854820	0.820038	0.597264
	C188	C	0.162034	0.394010	0.866666
	C189	C	0.163878	0.610068	0.114109
	C190	C	0.795753	0.395734	0.116607
	C191	C	0.797748	0.610482	0.865388
	C192	C	0.385293	0.090654	0.582738
	C193	C	0.575216	0.913642	0.584060
	C194	C	0.577848	0.092236	0.390894
	C195	C	0.380971	0.911567	0.388923
	C196	C	0.574376	0.405809	0.079130
	C197	C	0.574585	0.598065	0.898807
	C198	C	0.385217	0.599262	0.080538
	C199	C	0.385346	0.404174	0.896606
	C200	C	0.071589	0.599603	0.394324
	C201	C	0.889611	0.598507	0.583921
	C202	C	0.070769	0.405933	0.584140
	C203	C	0.888018	0.405730	0.395351
	C204	C	0.884092	0.591996	0.085899
	C205	C	0.078959	0.412012	0.088046
	C206	C	0.078523	0.592762	0.892711
	C207	C	0.885364	0.413943	0.895256
	C208	C	0.074749	0.905688	0.580381
	C209	C	0.074368	0.099693	0.397759
	C210	C	0.885092	0.097170	0.579087
	C211	C	0.883692	0.904162	0.396276
	C212	C	0.571416	0.097967	0.894868
	C213	C	0.389289	0.101157	0.085148
	C214	C	0.572451	0.905013	0.084634
	C215	C	0.389502	0.907030	0.894570
	Zn216	Zn	0.479858	0.002694	0.739588
	Zn217	Zn	0.480986	0.002071	0.237089
	Zn218	Zn	0.728918	0.502693	-0.010051
	Zn219	Zn	0.232450	0.501977	-0.010636
	Zn220	Zn	-0.019615	0.752187	0.488827
	Zn221	Zn	-0.020694	0.252210	0.490530
	Zn222	Zn	-0.019266	0.502581	0.738582
	Zn223	Zn	-0.019451	0.502065	0.240858
	Zn224	Zn	0.480104	0.752289	-0.010883
	Zn225	Zn	0.481296	0.251860	-0.011757
	Zn226	Zn	0.731137	0.002274	0.487296
	Zn227	Zn	0.228321	0.002689	0.488656
	N228	N	0.392341	0.967846	0.669565
	N229	N	0.567524	0.037228	0.669327
	N230	N	0.566480	0.967061	0.308453
	N231	N	0.393480	0.037485	0.307352
	N232	N	0.660253	0.415387	0.953932
	N233	N	0.657749	0.587471	0.025491
	N234	N	0.303293	0.587035	0.952797
	N235	N	0.303884	0.416763	0.024472
	N236	N	0.945285	0.682339	0.402175
	N237	N	0.014304	0.684256	0.577783
	N238	N	0.945993	0.320260	0.579377
	N239	N	0.014066	0.322526	0.403796
	N240	N	0.944424	0.417285	0.667971
	N241	N	0.016105	0.588485	0.667867
	N242	N	0.944949	0.588628	0.310331
	N243	N	0.015259	0.417048	0.312607
	N244	N	0.391683	0.684266	0.955209
	N245	N	0.568288	0.683773	0.023342
	N246	N	0.569473	0.320336	0.954311
	N247	N	0.394045	0.321156	0.023486
	N248	N	0.660434	0.966895	0.401149
	N249	N	0.661550	0.036918	0.575557
	N250	N	0.299869	0.966924	0.574404
	N251	N	0.298444	0.036756	0.400211
	N252	N	0.893091	0.468042	0.170862
	N253	N	0.068877	0.536505	0.171482
	N254	N	0.068600	0.468535	0.808319
	N255	N	0.893466	0.537264	0.809189
	N256	N	0.157270	0.917548	0.452861
	N257	N	0.159467	0.089260	0.523643
	N258	N	0.802399	0.087009	0.451843
	N259	N	0.799546	0.914747	0.522720
	N260	N	0.446538	0.183056	0.901134
	N261	N	0.515558	0.184220	0.077209
	N262	N	0.446504	0.821309	0.077025
	N263	N	0.514378	0.821614	0.900963
	N264	N	0.444376	0.918315	0.165348
	N265	N	0.516897	0.088363	0.167207
	N266	N	0.445781	0.089171	0.809610
	N267	N	0.515437	0.916640	0.809735
	N268	N	0.891515	0.183658	0.454816
	N269	N	0.068039	0.183703	0.523506
	N270	N	0.067476	0.821878	0.454543
	N271	N	0.891585	0.820577	0.522449
	N272	N	0.161441	0.467727	0.902848
	N273	N	0.163053	0.536431	0.077690
	N274	N	0.797556	0.468905	0.079037
	N275	N	0.799698	0.537422	0.903095
	O276	O	-0.085557	0.911810	0.037902
	H277	H	-0.080750	0.911651	0.036808
	H278	H	-0.084115	0.903568	0.050786
	O279	O	0.584900	0.608792	0.326855
	H280	H	0.568521	0.588230	0.326792
	H281	H	0.577575	0.613682	0.343713
	O282	O	0.933029	-0.236720	0.931458
	H283	H	0.931150	-0.219825	0.935096
	H284	H	0.912489	-0.246146	0.937970
	O285	O	0.759091	0.779337	0.206471
	H286	H	0.752854	0.766307	0.221109
	H287	H	0.754184	0.788208	0.188452
	O288	O	0.395916	0.332841	0.499934
	H289	H	0.397070	0.328205	0.505890
	H290	H	0.402463	0.347390	0.507328
	O291	O	0.276245	0.398740	0.553841
	H292	H	0.284608	0.399151	0.532761
	H293	H	0.269864	0.390272	0.561189
	O294	O	1.167911	-0.187554	1.174773
	H295	H	1.149228	-0.191913	1.146230
	H296	H	1.181031	-0.194839	1.188997
	O297	O	0.676654	0.299881	0.467418
	H298	H	0.687521	0.292393	0.447335
	H299	H	0.689847	0.286075	0.442140
	O300	O	-0.226502	0.206548	0.782217
	H301	H	-0.220870	0.195811	0.811088
	H302	H	-0.197868	0.191371	0.783709
	O303	O	0.171352	0.198571	0.799123
	H304	H	0.163870	0.173621	0.808761
	H305	H	0.185212	0.199858	0.790537
	O306	O	0.910593	0.063977	0.980249
	H307	H	0.914612	0.059103	0.994137
	H308	H	0.905281	0.060696	0.988960
	O309	O	0.452661	0.286161	0.694683
	H310	H	0.452066	0.270290	0.707872
	H311	H	0.462477	0.302981	0.698883
	O312	O	0.683148	0.543059	0.698877
	H313	H	0.706839	0.546434	0.713586
	H314	H	0.684431	0.568879	0.697401
	O315	O	0.451093	1.494616	0.553771
	H316	H	0.453436	1.479793	0.569910
	H317	H	0.477837	1.505301	0.567336
	O318	O	0.482826	0.500065	0.293882
	H319	H	0.482212	0.490185	0.300948
	H320	H	0.491509	0.490215	0.287650
	O321	O	0.298865	0.655583	0.636223
	H322	H	0.315938	0.649553	0.622793
	H323	H	0.309613	0.647150	0.624421
	O324	O	0.771452	1.030827	-0.223622
	H325	H	0.757510	1.035385	-0.225968
	H326	H	0.770931	1.022740	-0.227134
	O327	O	-0.236469	-0.200367	1.006515
	H328	H	-0.245753	-0.194545	1.015233
	H329	H	-0.252768	-0.200819	1.006013
	O330	O	0.321843	0.433022	0.632697
	H331	H	0.343382	0.437145	0.644257
	H332	H	0.307571	0.434533	0.653462
	O333	O	-0.231260	0.225121	0.970426
	H334	H	-0.247120	0.243180	0.969450
	H335	H	-0.229400	0.214264	0.972382
	O336	O	0.689213	0.469403	0.275807
	H337	H	0.692300	0.467505	0.277025
	H338	H	0.699918	0.467416	0.261451
	O339	O	0.957360	0.222098	0.770423
	H340	H	0.958788	0.220072	0.754047
	H341	H	0.959341	0.240254	0.771312
	O342	O	0.193001	-0.225185	-0.032426
	H343	H	0.194023	-0.222457	-0.049616
	H344	H	0.212898	-0.245416	-0.049492
	O345	O	-0.013815	1.037096	1.191261
	H346	H	-0.013294	1.024232	1.196471
	H347	H	0.002139	1.044249	1.186939
	O348	O	0.450959	0.718436	0.273450
	H349	H	0.460610	0.721835	0.259719
	H350	H	0.437952	0.730503	0.274485
	O351	O	0.952990	0.783833	0.202517
	H352	H	0.953640	0.779634	0.207163
	H353	H	0.953487	0.772607	0.206515
	O354	O	0.013822	0.224331	1.206884
	H355	H	0.016412	0.246663	1.232014
	H356	H	0.014003	0.219380	1.190200
	O357	O	1.077180	0.997982	0.080285
	H358	H	1.088612	0.994062	0.075816
	H359	H	1.087016	0.997844	0.091747
	O360	O	0.410487	0.564225	0.439737
	H361	H	0.421165	0.558629	0.439611
	H362	H	0.410356	0.564146	0.444277
	O363	O	-0.067013	-0.060563	-0.225670
	H364	H	-0.076651	-0.041919	-0.227015
	H365	H	-0.044895	-0.069865	-0.220374
	O366	O	0.512456	0.282353	0.274114
	H367	H	0.519472	0.266650	0.273782
	H368	H	0.500563	0.267897	0.277088
	O369	O	1.035035	0.065620	-0.236963
	H370	H	1.051136	0.071930	-0.237898
	H371	H	1.045040	0.061323	-0.235934
	O372	O	0.770298	1.051216	0.016011
	H373	H	0.778648	1.057864	0.025978
	H374	H	0.776547	1.055156	0.028765
	O375	O	0.931207	0.236758	0.058530
	H376	H	0.929434	0.233012	0.037626
	H377	H	0.949379	0.243973	0.055410
	O378	O	0.417560	0.725272	0.539538
	H379	H	0.418256	0.719379	0.544788
	H380	H	0.404342	0.728488	0.543261
	O381	O	0.273105	0.711313	1.280958
	H382	H	0.290382	0.713628	1.308500
	H383	H	0.263140	0.718906	1.289742
	O384	O	1.031340	0.231121	0.928384
	H385	H	1.053634	0.233010	0.914081
	H386	H	1.041937	0.224800	0.924853
	O387	O	1.042701	0.776390	0.051569
	H388	H	1.037340	0.777858	0.055950
	H389	H	1.050999	0.769285	0.036518
	O390	O	0.602129	0.420402	0.536373
	H391	H	0.615470	0.420022	0.547640
	H392	H	0.607639	0.423005	0.535635
	O393	O	0.313259	0.554449	0.617364
	H394	H	0.319400	0.549825	0.625949
	H395	H	0.316132	0.541623	0.613615
	O396	O	0.638673	1.584252	1.426857
	H397	H	0.635596	1.582884	1.427500
	H398	H	0.641546	1.558342	1.427348
	O399	O	0.179298	-0.198874	0.788941
	H400	H	0.162349	-0.208179	0.787029
	H401	H	0.180724	-0.199492	0.777110
	O402	O	0.679726	0.298301	0.289832
	H403	H	0.667684	0.323532	0.286531
	H404	H	0.684931	0.274827	0.262851
	O405	O	1.004395	-0.213967	0.775213
	H406	H	0.988490	-0.211398	0.783682
	H407	H	1.007308	-0.231822	0.763414
	O408	O	-0.225730	-0.029082	0.191545
	H409	H	-0.209061	-0.048494	0.187549
	H410	H	-0.232187	-0.027681	0.214784
	O411	O	0.560343	0.417799	0.693637
	H412	H	0.572177	0.416962	0.700153
	H413	H	0.559634	0.418090	0.687658
	O414	O	0.754209	-0.048962	0.944649
	H415	H	0.752643	-0.032403	0.946602
	H416	H	0.760090	-0.041361	0.962513
	O417	O	0.533939	0.716603	0.704436
	H418	H	0.546766	0.729366	0.717216
	H419	H	0.564278	0.718877	0.702262
	O420	O	0.687534	0.711650	0.673218
	H421	H	0.713176	0.740185	0.697797
	H422	H	0.688767	0.718796	0.637408
	O423	O	0.184909	0.209119	1.196925
	H424	H	0.157325	0.217112	1.179632
	H425	H	0.216316	0.242728	1.229943
	O426	O	0.584537	0.724294	0.517353
	H427	H	0.587974	0.734457	0.514667
	H428	H	0.573092	0.716677	0.509199
	O429	O	1.018313	0.908072	1.131080
	H430	H	1.044936	0.902289	1.144854
	H431	H	1.010412	0.877770	1.144626
	O432	O	0.286314	0.309650	0.297747
	H433	H	0.304936	0.324088	0.317445
	H434	H	0.304279	0.329452	0.318053
	O435	O	0.200403	1.225616	0.027456
	H436	H	0.203918	1.214812	0.035117
	H437	H	0.225354	1.246085	0.033906
	O438	O	0.063570	-0.056834	-0.082747
	H439	H	0.065796	-0.057113	-0.085854
	H440	H	0.062469	-0.057090	-0.074065
	O441	O	0.412970	0.475872	0.403029
	H442	H	0.424963	0.462512	0.395429
	H443	H	0.399357	0.477890	0.405631
	O444	O	0.397658	0.475476	0.382878
	H445	H	0.409755	0.467725	0.386021
	H446	H	0.397777	0.477865	0.362875
	O447	O	-0.206517	0.812581	0.799262
	H448	H	-0.197611	0.829390	0.829556
	H449	H	-0.182598	0.835655	0.806488
	O450	O	0.269525	0.715183	1.453763
	H451	H	0.283414	0.712766	1.475618
	H452	H	0.253098	0.728973	1.467004
	O453	O	0.621051	0.495276	0.529895
	H454	H	0.622639	0.495157	0.538190
	H455	H	0.632011	0.482180	0.530967
	O456	O	-0.052429	0.091217	0.956284
	H457	H	-0.041115	0.096678	0.946582
	H458	H	-0.044239	0.084702	0.957995
	O459	O	1.197007	1.040886	0.208583
	H460	H	1.194840	1.079958	0.199425
	H461	H	1.228118	1.048052	0.236985
	O462	O	0.305620	0.533510	0.277758
	H463	H	0.288968	0.552277	0.259480
	H464	H	0.306292	0.560299	0.275389
	O465	O	0.506752	-0.597017	-0.459404
	H466	H	0.518417	-0.593138	-0.450106
	H467	H	0.507999	-0.601646	-0.447713
	O468	O	0.609757	0.372727	0.671458
	H469	H	0.629942	0.348819	0.692903
	H470	H	0.620174	0.377031	0.654324
	O471	O	0.276806	0.296772	0.691803
	H472	H	0.262756	0.307177	0.701582
	H473	H	0.310272	0.303484	0.689036
	O474	O	0.387897	0.394078	0.453240
	H475	H	0.398860	0.391355	0.477385
	H476	H	0.398002	0.400727	0.460055
	O477	O	0.847389	0.155022	1.142161
	H478	H	0.862079	0.127791	1.130695
	H479	H	0.872794	0.159704	1.130049
	O480	O	0.677653	0.629441	0.515529
	H481	H	0.674103	0.622953	0.510576
	H482	H	0.681136	0.649164	0.519223
	O483	O	1.130377	1.000799	1.088154
	H484	H	1.133702	0.998515	1.105314
	H485	H	1.138340	0.994968	1.096982
	O486	O	1.188442	-0.006709	0.782577
	H487	H	1.196002	-0.017870	0.800340
	H488	H	1.201882	-0.024373	0.771785
	O489	O	1.135844	1.010361	-0.051416
	H490	H	1.141249	1.023585	-0.044292
	H491	H	1.131397	1.001246	-0.042018
