data_Molecule from HDF5

_cell_length_a		16.234636
_cell_length_b		16.125792
_cell_length_c		16.251234
_cell_angle_alpha	90.008983
_cell_angle_beta	90.429140
_cell_angle_gamma	90.022493
_symmetry_space_group_name_H-M	'P 1'
_symmetry_Int_Tables_number		1

loop_
	_symmetry_equiv_pos_as_xyz
	x,y,z

loop_
	_atom_site_label
	_atom_site_type_symbol
	_atom_site_fract_x
	_atom_site_fract_y
	_atom_site_fract_z
	H0	H	0.400454	0.832790	0.707460
	H1	H	0.601962	0.161335	0.709339
	H2	H	0.598599	0.832426	0.280145
	H3	H	0.400041	0.162425	0.280530
	H4	H	0.714038	0.397103	0.832091
	H5	H	0.716056	0.598796	0.158354
	H6	H	0.282162	0.596844	0.831538
	H7	H	0.286965	0.396910	0.159157
	H8	H	0.835113	0.708139	0.397928
	H9	H	0.164447	0.709276	0.595804
	H10	H	0.835551	0.281255	0.592545
	H11	H	0.164693	0.283350	0.401271
	H12	H	0.836002	0.394803	0.710685
	H13	H	0.163158	0.595423	0.713014
	H14	H	0.836786	0.596408	0.278692
	H15	H	0.163685	0.396286	0.282343
	H16	H	0.399237	0.710786	0.830559
	H17	H	0.598895	0.711723	0.158547
	H18	H	0.596248	0.284814	0.830676
	H19	H	0.404692	0.283428	0.158760
	H20	H	0.712764	0.832017	0.394716
	H21	H	0.716422	0.160868	0.594099
	H22	H	0.288176	0.831760	0.591886
	H23	H	0.285270	0.161833	0.396213
	H24	H	0.902053	0.330920	0.208204
	H25	H	0.100427	0.660809	0.210789
	H26	H	0.097279	0.331471	0.783639
	H27	H	0.897712	0.660048	0.779267
	H28	H	0.212751	0.896920	0.330699
	H29	H	0.217227	0.096666	0.658669
	H30	H	0.784658	0.096145	0.331259
	H31	H	0.784852	0.895597	0.657696
	H32	H	0.335747	0.210956	0.895417
	H33	H	0.664704	0.210445	0.093158
	H34	H	0.335103	0.784294	0.089129
	H35	H	0.664065	0.781759	0.896291
	H36	H	0.336496	0.896874	0.208241
	H37	H	0.663363	0.097425	0.211852
	H38	H	0.336094	0.096190	0.777279
	H39	H	0.664521	0.896912	0.780063
	H40	H	0.901249	0.210295	0.331319
	H41	H	0.099358	0.209212	0.660012
	H42	H	0.096060	0.782178	0.331269
	H43	H	0.904973	0.784206	0.660057
	H44	H	0.212292	0.331720	0.896894
	H45	H	0.215217	0.660770	0.095658
	H46	H	0.785477	0.332174	0.094456
	H47	H	0.785651	0.661568	0.896330
	H48	H	0.399743	0.119142	0.590073
	H49	H	0.585561	0.883139	0.582266
	H50	H	0.578519	0.110686	0.402918
	H51	H	0.412567	0.880783	0.403188
	H52	H	0.597327	0.404524	0.113331
	H53	H	0.595515	0.575003	0.880665
	H54	H	0.398406	0.590190	0.115067
	H55	H	0.407590	0.409974	0.880224
	H56	H	0.116348	0.583723	0.401956
	H57	H	0.884086	0.591373	0.583149
	H58	H	0.111218	0.413529	0.580927
	H59	H	0.882562	0.407422	0.397186
	H60	H	0.120399	0.406787	0.607342
	H61	H	0.884422	0.582527	0.589406
	H62	H	0.119659	0.592383	0.400282
	H63	H	0.880150	0.398481	0.398248
	H64	H	0.410215	0.581334	0.108487
	H65	H	0.578739	0.595098	0.879717
	H66	H	0.592208	0.406598	0.112475
	H67	H	0.407458	0.397721	0.876712
	H68	H	0.599951	0.113536	0.414715
	H69	H	0.599656	0.877251	0.582772
	H70	H	0.417662	0.113867	0.591734
	H71	H	0.400812	0.878038	0.404278
	H72	H	0.907997	0.614376	0.089387
	H73	H	0.097112	0.376511	0.089604
	H74	H	0.090842	0.611246	0.913623
	H75	H	0.897521	0.375342	0.902707
	H76	H	0.102737	0.910023	0.612880
	H77	H	0.093540	0.089511	0.378309
	H78	H	0.905424	0.089659	0.612872
	H79	H	0.903648	0.904802	0.377202
	H80	H	0.618564	0.090643	0.897770
	H81	H	0.378342	0.097794	0.094497
	H82	H	0.617073	0.903330	0.086186
	H83	H	0.385958	0.910510	0.902463
	H84	H	0.616640	0.907444	0.089078
	H85	H	0.384175	0.093796	0.076834
	H86	H	0.618180	0.094039	0.903473
	H87	H	0.380391	0.905394	0.892298
	H88	H	0.907867	0.083360	0.610303
	H89	H	0.093101	0.089669	0.377971
	H90	H	0.087265	0.905581	0.609588
	H91	H	0.908031	0.902184	0.378705
	H92	H	0.100209	0.619117	0.900456
	H93	H	0.090940	0.377823	0.091751
	H94	H	0.907981	0.614457	0.087319
	H95	H	0.912092	0.378277	0.896123
	H96	H	0.409269	0.112392	0.575505
	H97	H	0.591130	0.876929	0.595468
	H98	H	0.598187	0.120420	0.390785
	H99	H	0.405625	0.876990	0.392423
	H100	H	0.592991	0.401563	0.112950
	H101	H	0.602711	0.598092	0.872091
	H102	H	0.412584	0.597283	0.113073
	H103	H	0.397199	0.404914	0.875335
	H104	H	0.116822	0.590588	0.407858
	H105	H	0.879964	0.591589	0.593351
	H106	H	0.119651	0.387738	0.587086
	H107	H	0.884787	0.403825	0.405948
	H108	H	0.906379	0.615520	0.088512
	H109	H	0.092240	0.379292	0.085980
	H110	H	0.083385	0.613720	0.897924
	H111	H	0.909914	0.381532	0.911721
	H112	H	0.097519	0.893596	0.616152
	H113	H	0.093712	0.089961	0.377710
	H114	H	0.912326	0.087676	0.611218
	H115	H	0.904480	0.899305	0.377113
	H116	H	0.616035	0.087154	0.902945
	H117	H	0.384790	0.079354	0.090034
	H118	H	0.618076	0.903987	0.091168
	H119	H	0.382665	0.898261	0.902432
	C120	C	0.379942	0.006052	0.614633
	C121	C	0.622243	0.987656	0.616035
	C122	C	0.620436	0.005760	0.373817
	C123	C	0.377635	0.988009	0.372127
	C124	C	0.621535	0.375846	0.003876
	C125	C	0.621462	0.618780	0.986121
	C126	C	0.377498	0.618302	0.003630
	C127	C	0.377086	0.375289	0.985988
	C128	C	0.008641	0.617476	0.374291
	C129	C	0.991124	0.617534	0.618244
	C130	C	0.008301	0.374243	0.618441
	C131	C	0.991020	0.374258	0.373761
	C132	C	0.878759	0.505598	0.116844
	C133	C	0.122289	0.487086	0.117620
	C134	C	0.119936	0.505451	0.875629
	C135	C	0.877323	0.487255	0.873995
	C136	C	0.122620	0.874305	0.503950
	C137	C	0.122339	0.117947	0.486613
	C138	C	0.878866	0.116899	0.503513
	C139	C	0.877789	0.873800	0.486300
	C140	C	0.509130	0.119335	0.871943
	C141	C	0.491179	0.118873	0.116253
	C142	C	0.508685	0.875663	0.116285
	C143	C	0.491554	0.875243	0.871549
	C144	C	0.381542	0.881659	0.669461
	C145	C	0.621406	0.112006	0.671500
	C146	C	0.618376	0.881503	0.318265
	C147	C	0.379936	0.112897	0.317935
	C148	C	0.676127	0.377634	0.880656
	C149	C	0.677640	0.618028	0.109302
	C150	C	0.320830	0.616602	0.880441
	C151	C	0.323885	0.377007	0.109776
	C152	C	0.884639	0.671738	0.376570
	C153	C	0.114959	0.672458	0.616530
	C154	C	0.884773	0.318698	0.614101
	C155	C	0.115316	0.320210	0.379150
	C156	C	0.884779	0.375344	0.672591
	C157	C	0.114434	0.615581	0.674591
	C158	C	0.885395	0.615635	0.317799
	C159	C	0.114946	0.376470	0.320348
	C160	C	0.379089	0.673365	0.879949
	C161	C	0.619468	0.674324	0.109517
	C162	C	0.617610	0.321440	0.880109
	C163	C	0.382453	0.320744	0.109864
	C164	C	0.675291	0.881484	0.375233
	C165	C	0.678203	0.111827	0.614100
	C166	C	0.325541	0.881324	0.611961
	C167	C	0.322728	0.112523	0.375156
	C168	C	0.881207	0.380509	0.170835
	C169	C	0.120461	0.611377	0.173316
	C170	C	0.117434	0.380788	0.820919
	C171	C	0.878510	0.611127	0.817692
	C172	C	0.175905	0.876406	0.380150
	C173	C	0.178626	0.115915	0.610004
	C174	C	0.822720	0.115900	0.380264
	C175	C	0.823231	0.875883	0.609173
	C176	C	0.384818	0.173405	0.874366
	C177	C	0.615352	0.173019	0.113675
	C178	C	0.384635	0.821037	0.111432
	C179	C	0.615191	0.819762	0.875664
	C180	C	0.385337	0.877396	0.170254
	C181	C	0.614711	0.116902	0.172606
	C182	C	0.385247	0.116827	0.815682
	C183	C	0.615505	0.877196	0.817940
	C184	C	0.880806	0.172700	0.380235
	C185	C	0.120116	0.172161	0.610650
	C186	C	0.117914	0.819416	0.380415
	C187	C	0.882810	0.820399	0.610392
	C188	C	0.174742	0.380897	0.877289
	C189	C	0.177194	0.611567	0.115822
	C190	C	0.823405	0.381299	0.114160
	C191	C	0.823048	0.612014	0.876039
	C192	C	0.402182	0.092802	0.592265
	C193	C	0.599173	0.901444	0.593488
	C194	C	0.598598	0.092445	0.396159
	C195	C	0.399890	0.901047	0.393532
	C196	C	0.600490	0.397610	0.090559
	C197	C	0.598918	0.595996	0.899912
	C198	C	0.400351	0.596175	0.089645
	C199	C	0.397880	0.397805	0.899785
	C200	C	0.095263	0.595333	0.396812
	C201	C	0.904993	0.595064	0.595532
	C202	C	0.094636	0.396333	0.597859
	C203	C	0.904707	0.396469	0.394363
	C204	C	0.900948	0.592406	0.095140
	C205	C	0.099973	0.400313	0.095776
	C206	C	0.097992	0.592189	0.897562
	C207	C	0.899801	0.400720	0.896756
	C208	C	0.102119	0.896517	0.590488
	C209	C	0.099993	0.096175	0.400211
	C210	C	0.901726	0.093634	0.589410
	C211	C	0.899084	0.895672	0.399826
	C212	C	0.595178	0.097249	0.894551
	C213	C	0.404812	0.096644	0.093749
	C214	C	0.594920	0.898304	0.095156
	C215	C	0.405334	0.897994	0.892704
	Zn216	Zn	0.500727	-0.003055	0.743339
	Zn217	Zn	0.499990	-0.002504	0.245343
	Zn218	Zn	0.749851	0.497301	-0.005014
	Zn219	Zn	0.248683	0.496505	-0.004689
	Zn220	Zn	0.000222	0.745378	0.495701
	Zn221	Zn	0.000099	0.245936	0.495900
	Zn222	Zn	-0.000942	0.496089	0.747343
	Zn223	Zn	0.000549	0.495842	0.245044
	Zn224	Zn	0.499932	0.746657	-0.005415
	Zn225	Zn	0.499878	0.247584	-0.005242
	Zn226	Zn	0.749600	-0.003735	0.494315
	Zn227	Zn	0.250886	-0.003278	0.494721
	N228	N	0.414893	0.960308	0.671470
	N229	N	0.587211	0.034039	0.672829
	N230	N	0.584883	0.959767	0.317264
	N231	N	0.413243	0.034335	0.315783
	N232	N	0.678549	0.410788	0.958654
	N233	N	0.679159	0.584260	0.031470
	N234	N	0.319839	0.582792	0.958319
	N235	N	0.320523	0.410125	0.031705
	N236	N	0.962343	0.672773	0.411157
	N237	N	0.037342	0.673653	0.581948
	N238	N	0.962517	0.317854	0.581116
	N239	N	0.037453	0.318978	0.411724
	N240	N	0.962662	0.409170	0.675528
	N241	N	0.036448	0.582009	0.675763
	N242	N	0.963642	0.582824	0.316000
	N243	N	0.036817	0.409462	0.316885
	N244	N	0.413877	0.674536	0.957293
	N245	N	0.585206	0.674827	0.031755
	N246	N	0.584441	0.320212	0.957806
	N247	N	0.414625	0.319328	0.031870
	N248	N	0.676678	0.959605	0.409046
	N249	N	0.678805	0.033595	0.580176
	N250	N	0.324544	0.959487	0.578554
	N251	N	0.321124	0.033960	0.408048
	N252	N	0.915052	0.458695	0.172739
	N253	N	0.086734	0.532907	0.174494
	N254	N	0.084076	0.459208	0.819630
	N255	N	0.911599	0.532623	0.816236
	N256	N	0.179096	0.909553	0.458061
	N257	N	0.180279	0.083054	0.531712
	N258	N	0.821412	0.081839	0.457923
	N259	N	0.820005	0.908352	0.530994
	N260	N	0.462566	0.175163	0.908677
	N261	N	0.537603	0.174218	0.079252
	N262	N	0.462380	0.819747	0.078535
	N263	N	0.537174	0.818148	0.908149
	N264	N	0.463345	0.910727	0.173230
	N265	N	0.536439	0.084024	0.174408
	N266	N	0.463602	0.083991	0.814009
	N267	N	0.537547	0.910873	0.815163
	N268	N	0.915042	0.173338	0.457911
	N269	N	0.085872	0.173615	0.533060
	N270	N	0.085594	0.817758	0.458504
	N271	N	0.915930	0.818827	0.532712
	N272	N	0.176256	0.459290	0.910624
	N273	N	0.178648	0.533391	0.082126
	N274	N	0.821923	0.459895	0.081133
	N275	N	0.822193	0.534102	0.910287
	O276	O	0.428972	0.507025	0.482079
	H277	H	0.423515	0.511565	0.477697
	H278	H	0.423489	0.505432	0.481483
	O279	O	0.459012	0.436189	0.493535
	H280	H	0.447223	0.437367	0.494674
	H281	H	0.459474	0.434908	0.502187
	O282	O	0.524889	0.498896	0.553107
	H283	H	0.525821	0.496500	0.550418
	H284	H	0.525699	0.496355	0.556418
	O285	O	-0.504946	1.482293	1.538091
	H286	H	-0.498626	1.492848	1.538472
	H287	H	-0.502097	1.490659	1.536480
	O288	O	0.548323	0.570730	0.562810
	H289	H	0.545287	0.574376	0.562203
	H290	H	0.556805	0.573311	0.563068
	O291	O	-0.019804	0.024883	0.987167
	H292	H	-0.013816	0.020718	0.987485
	H293	H	-0.012060	0.027114	0.987152
	O294	O	0.392684	0.508948	0.445659
	H295	H	0.395651	0.504153	0.446069
	H296	H	0.388050	0.516912	0.445315
	O297	O	0.557310	0.517003	0.559584
	H298	H	0.558271	0.522512	0.566282
	H299	H	0.558361	0.511678	0.555779
	O300	O	0.495511	0.532510	0.402933
	H301	H	0.497141	0.538756	0.396010
	H302	H	0.498380	0.533970	0.406867
	O303	O	0.495705	0.438901	0.526346
	H304	H	0.502381	0.443522	0.525878
	H305	H	0.493574	0.428512	0.519033
	O306	O	1.056742	0.045837	0.992959
	H307	H	1.051803	0.047378	0.987782
	H308	H	1.059513	0.042682	0.997425
	O309	O	0.508278	0.549386	0.421202
	H310	H	0.503742	0.554795	0.416516
	H311	H	0.508385	0.543193	0.427214
	O312	O	0.517235	0.510665	0.447196
	H313	H	0.509831	0.508630	0.443876
	H314	H	0.511935	0.516968	0.444809
	O315	O	1.015922	0.085374	1.010340
	H316	H	1.005453	0.090560	1.016703
	H317	H	1.019767	0.090759	1.017906
	O318	O	0.029475	0.023054	0.032819
	H319	H	0.029634	0.024312	0.041491
	H320	H	0.037438	0.020786	0.026732
	O321	O	0.523441	0.606577	0.549528
	H322	H	0.521819	0.608455	0.551792
	H323	H	0.534420	0.605558	0.547553
	O324	O	1.035965	-0.041882	-0.024909
	H325	H	1.030255	-0.032703	-0.032359
	H326	H	1.039896	-0.042682	-0.027165
	O327	O	0.981625	0.983086	-0.023871
	H328	H	0.982960	0.984441	-0.023325
	H329	H	0.981298	0.983333	-0.024786
	O330	O	0.439351	0.510610	0.491406
	H331	H	0.436311	0.505093	0.488394
	H332	H	0.449010	0.516796	0.497086
	O333	O	0.582171	0.606791	0.551886
	H334	H	0.583422	0.605673	0.564029
	H335	H	0.583801	0.593508	0.553186
