data_Molecule from HDF5

_cell_length_a		16.775383
_cell_length_b		16.649834
_cell_length_c		16.472676
_cell_angle_alpha	90.011685
_cell_angle_beta	89.826005
_cell_angle_gamma	89.958452
_symmetry_space_group_name_H-M	'P 1'
_symmetry_Int_Tables_number		1

loop_
	_symmetry_equiv_pos_as_xyz
	x,y,z

loop_
	_atom_site_label
	_atom_site_type_symbol
	_atom_site_fract_x
	_atom_site_fract_y
	_atom_site_fract_z
	H0	H	0.396658	0.842741	0.718072
	H1	H	0.606938	0.153394	0.716588
	H2	H	0.603343	0.840736	0.278130
	H3	H	0.399673	0.153366	0.276427
	H4	H	0.727526	0.386756	0.840416
	H5	H	0.724223	0.602330	0.150934
	H6	H	0.286127	0.600468	0.837882
	H7	H	0.281289	0.391340	0.151211
	H8	H	0.847730	0.717139	0.391215
	H9	H	0.155379	0.721670	0.602565
	H10	H	0.849674	0.273883	0.603993
	H11	H	0.157354	0.274008	0.389047
	H12	H	0.849866	0.391882	0.719146
	H13	H	0.157003	0.603161	0.716708
	H14	H	0.846897	0.597952	0.277894
	H15	H	0.157798	0.392686	0.273711
	H16	H	0.400838	0.716681	0.838014
	H17	H	0.608843	0.718764	0.150414
	H18	H	0.608224	0.275213	0.839435
	H19	H	0.397825	0.276564	0.152589
	H20	H	0.724267	0.842600	0.389536
	H21	H	0.727264	0.151194	0.605206
	H22	H	0.277692	0.843911	0.604912
	H23	H	0.278621	0.150866	0.387826
	H24	H	0.899402	0.341261	0.215990
	H25	H	0.106129	0.652939	0.215512
	H26	H	0.110705	0.343726	0.771093
	H27	H	0.900808	0.652090	0.776138
	H28	H	0.223286	0.891213	0.339581
	H29	H	0.224507	0.104150	0.650508
	H30	H	0.782192	0.102556	0.338778
	H31	H	0.779023	0.890014	0.650485
	H32	H	0.348930	0.220727	0.888424
	H33	H	0.654700	0.222199	0.104025
	H34	H	0.351568	0.772820	0.103465
	H35	H	0.654950	0.772687	0.884874
	H36	H	0.350264	0.890319	0.219283
	H37	H	0.656439	0.103239	0.218782
	H38	H	0.350275	0.104697	0.771794
	H39	H	0.656487	0.892161	0.771744
	H40	H	0.898892	0.216703	0.338317
	H41	H	0.107949	0.218621	0.651722
	H42	H	0.106766	0.777668	0.338857
	H43	H	0.896303	0.776024	0.651679
	H44	H	0.228844	0.344430	0.885801
	H45	H	0.225261	0.652587	0.102047
	H46	H	0.780574	0.343079	0.103111
	H47	H	0.780854	0.649983	0.889135
	H48	H	0.414225	0.107002	0.580646
	H49	H	0.598653	0.884336	0.583835
	H50	H	0.598071	0.111442	0.408823
	H51	H	0.413363	0.882837	0.397684
	H52	H	0.595148	0.410646	0.108713
	H53	H	0.584238	0.589698	0.882257
	H54	H	0.415543	0.590026	0.109452
	H55	H	0.411865	0.412775	0.883274
	H56	H	0.113285	0.588224	0.407457
	H57	H	0.890691	0.592891	0.584141
	H58	H	0.113749	0.408197	0.584243
	H59	H	0.891739	0.405473	0.403618
	H60	H	0.112588	0.405774	0.579919
	H61	H	0.895145	0.583312	0.579476
	H62	H	0.113333	0.587093	0.405072
	H63	H	0.892773	0.404049	0.408377
	H64	H	0.409216	0.585411	0.109566
	H65	H	0.601509	0.587476	0.878149
	H66	H	0.588835	0.412313	0.105722
	H67	H	0.419487	0.411360	0.885254
	H68	H	0.591616	0.110638	0.402858
	H69	H	0.585603	0.887017	0.587410
	H70	H	0.411060	0.108164	0.580898
	H71	H	0.419262	0.890918	0.413277
	H72	H	0.914758	0.609452	0.086675
	H73	H	0.086893	0.389844	0.078812
	H74	H	0.099695	0.611331	0.899074
	H75	H	0.917937	0.386412	0.908902
	H76	H	0.089108	0.909373	0.608402
	H77	H	0.090227	0.088605	0.381571
	H78	H	0.909484	0.083211	0.608558
	H79	H	0.908861	0.912291	0.382453
	H80	H	0.611847	0.086551	0.910005
	H81	H	0.393992	0.087425	0.083001
	H82	H	0.613750	0.908458	0.086416
	H83	H	0.390798	0.903179	0.905587
	H84	H	0.614593	0.905596	0.084769
	H85	H	0.392887	0.084401	0.085557
	H86	H	0.610857	0.084148	0.908686
	H87	H	0.394344	0.907777	0.914672
	H88	H	0.917070	0.083175	0.605764
	H89	H	0.094618	0.082042	0.383037
	H90	H	0.091033	0.909776	0.608453
	H91	H	0.917981	0.908784	0.384553
	H92	H	0.088558	0.607172	0.904730
	H93	H	0.099554	0.385618	0.077904
	H94	H	0.910459	0.608262	0.082162
	H95	H	0.914278	0.385316	0.911562
	H96	H	0.413410	0.107924	0.584049
	H97	H	0.590499	0.890317	0.574997
	H98	H	0.590684	0.107320	0.410830
	H99	H	0.402508	0.883244	0.412784
	H100	H	0.589950	0.406046	0.108610
	H101	H	0.592699	0.574476	0.886619
	H102	H	0.416053	0.582527	0.106773
	H103	H	0.415053	0.405283	0.881404
	H104	H	0.114545	0.589535	0.405168
	H105	H	0.891762	0.583395	0.590939
	H106	H	0.111775	0.411043	0.580082
	H107	H	0.893486	0.408602	0.406909
	H108	H	0.908374	0.609222	0.088174
	H109	H	0.092651	0.384740	0.089390
	H110	H	0.098875	0.608815	0.912389
	H111	H	0.914384	0.384367	0.907016
	H112	H	0.089768	0.910705	0.607258
	H113	H	0.087443	0.082654	0.385695
	H114	H	0.914224	0.089857	0.609692
	H115	H	0.911409	0.902794	0.380013
	H116	H	0.612899	0.086166	0.907269
	H117	H	0.391621	0.088219	0.086784
	H118	H	0.612643	0.907511	0.082904
	H119	H	0.394463	0.913097	0.905170
	C120	C	0.380583	0.005648	0.616064
	C121	C	0.623683	0.989415	0.615623
	C122	C	0.624084	0.006309	0.375131
	C123	C	0.380252	0.988351	0.374505
	C124	C	0.623989	0.376080	0.004246
	C125	C	0.624602	0.617063	0.985939
	C126	C	0.383181	0.617638	0.004198
	C127	C	0.382171	0.376794	0.986826
	C128	C	0.011017	0.618838	0.374406
	C129	C	0.994195	0.619276	0.617081
	C130	C	0.011360	0.375608	0.616201
	C131	C	0.994786	0.374164	0.373280
	C132	C	0.880651	0.505612	0.117607
	C133	C	0.124636	0.489183	0.115699
	C134	C	0.126959	0.506455	0.872530
	C135	C	0.883067	0.487520	0.875641
	C136	C	0.122521	0.877162	0.504550
	C137	C	0.123156	0.117508	0.486677
	C138	C	0.881710	0.117822	0.504212
	C139	C	0.880947	0.876128	0.486357
	C140	C	0.510993	0.118720	0.874871
	C141	C	0.494265	0.119404	0.118165
	C142	C	0.512260	0.874843	0.117695
	C143	C	0.494707	0.875883	0.874135
	C144	C	0.378182	0.889432	0.677878
	C145	C	0.625533	0.106401	0.676715
	C146	C	0.623530	0.887936	0.316921
	C147	C	0.379835	0.106015	0.315389
	C148	C	0.685908	0.370672	0.887063
	C149	C	0.684255	0.620319	0.103844
	C150	C	0.325058	0.619342	0.885274
	C151	C	0.321361	0.373453	0.104426
	C152	C	0.894271	0.677133	0.373295
	C153	C	0.109561	0.680520	0.620187
	C154	C	0.895919	0.314504	0.621326
	C155	C	0.111127	0.314506	0.370581
	C156	C	0.895997	0.373392	0.678421
	C157	C	0.110466	0.621656	0.676954
	C158	C	0.893844	0.618075	0.316496
	C159	C	0.111366	0.373565	0.313593
	C160	C	0.382089	0.677075	0.885579
	C161	C	0.627002	0.678139	0.103620
	C162	C	0.626959	0.314833	0.886617
	C163	C	0.379539	0.316690	0.105054
	C164	C	0.683385	0.888907	0.372366
	C165	C	0.685480	0.105061	0.621143
	C166	C	0.319017	0.889850	0.621655
	C167	C	0.319532	0.104834	0.370634
	C168	C	0.880337	0.388315	0.176518
	C169	C	0.125290	0.606193	0.175836
	C170	C	0.129148	0.390012	0.811624
	C171	C	0.881717	0.605095	0.815728
	C172	C	0.182891	0.873940	0.386650
	C173	C	0.184122	0.121759	0.603816
	C174	C	0.822131	0.120492	0.386056
	C175	C	0.819851	0.872488	0.603838
	C176	C	0.395388	0.179975	0.871148
	C177	C	0.609364	0.180953	0.121629
	C178	C	0.397291	0.813526	0.121228
	C179	C	0.609434	0.814333	0.868504
	C180	C	0.396754	0.871594	0.179088
	C181	C	0.609954	0.121950	0.178724
	C182	C	0.395772	0.122012	0.813199
	C183	C	0.610191	0.873601	0.812123
	C184	C	0.880058	0.177468	0.385827
	C185	C	0.126160	0.178591	0.604458
	C186	C	0.125075	0.817154	0.386367
	C187	C	0.878151	0.815834	0.604318
	C188	C	0.187769	0.390417	0.868417
	C189	C	0.184499	0.605915	0.119471
	C190	C	0.821196	0.388968	0.120557
	C191	C	0.822202	0.604026	0.871912
	C192	C	0.405569	0.086569	0.589400
	C193	C	0.598655	0.908304	0.589539
	C194	C	0.600193	0.088359	0.400028
	C195	C	0.404535	0.906808	0.400352
	C196	C	0.598561	0.402323	0.086294
	C197	C	0.599821	0.591317	0.903703
	C198	C	0.406795	0.593015	0.086820
	C199	C	0.408047	0.402435	0.904576
	C200	C	0.092675	0.595016	0.398906
	C201	C	0.913489	0.593756	0.592039
	C202	C	0.091709	0.401043	0.589058
	C203	C	0.913790	0.398754	0.398830
	C204	C	0.904447	0.587555	0.092780
	C205	C	0.100132	0.407882	0.089386
	C206	C	0.102633	0.588026	0.898090
	C207	C	0.908319	0.406671	0.901661
	C208	C	0.097105	0.902679	0.586724
	C209	C	0.097698	0.091775	0.404923
	C210	C	0.906580	0.092528	0.586654
	C211	C	0.905716	0.900874	0.403812
	C212	C	0.591034	0.092942	0.901230
	C213	C	0.413848	0.093966	0.092338
	C214	C	0.592833	0.900215	0.091860
	C215	C	0.414215	0.900959	0.900827
	Zn216	Zn	0.502386	-0.002755	0.744676
	Zn217	Zn	0.502549	-0.003013	0.246552
	Zn218	Zn	0.752664	0.495835	-0.004588
	Zn219	Zn	0.254346	0.497587	-0.004741
	Zn220	Zn	0.002365	0.748647	0.495545
	Zn221	Zn	0.003029	0.245747	0.495597
	Zn222	Zn	0.003894	0.497026	0.745676
	Zn223	Zn	0.003130	0.497303	0.244939
	Zn224	Zn	0.504017	0.746024	-0.004871
	Zn225	Zn	0.502806	0.248727	-0.004148
	Zn226	Zn	0.753221	-0.002527	0.495357
	Zn227	Zn	0.251287	-0.003112	0.495705
	N228	N	0.415643	0.962504	0.674781
	N229	N	0.587784	0.033340	0.673655
	N230	N	0.587512	0.962044	0.318281
	N231	N	0.416707	0.032500	0.317351
	N232	N	0.684297	0.408038	0.961410
	N233	N	0.682951	0.583098	0.029510
	N234	N	0.325197	0.583167	0.960189
	N235	N	0.322867	0.409927	0.029643
	N236	N	0.968225	0.677767	0.408564
	N237	N	0.036220	0.679447	0.583939
	N238	N	0.968742	0.315820	0.583215
	N239	N	0.037534	0.314734	0.406976
	N240	N	0.968971	0.410555	0.675443
	N241	N	0.037473	0.584341	0.675581
	N242	N	0.967673	0.582468	0.317014
	N243	N	0.037936	0.409854	0.314903
	N244	N	0.417235	0.676547	0.960568
	N245	N	0.590726	0.676474	0.029044
	N246	N	0.589119	0.317967	0.960482
	N247	N	0.416344	0.318270	0.030515
	N248	N	0.684200	0.963676	0.407402
	N249	N	0.684450	0.031364	0.583842
	N250	N	0.320195	0.963273	0.583991
	N251	N	0.319512	0.030459	0.406452
	N252	N	0.916644	0.462030	0.174875
	N253	N	0.088706	0.532514	0.173630
	N254	N	0.092027	0.463314	0.814107
	N255	N	0.919034	0.531824	0.817950
	N256	N	0.181658	0.910517	0.461391
	N257	N	0.182534	0.084460	0.529584
	N258	N	0.822838	0.084281	0.460910
	N259	N	0.821330	0.909237	0.529333
	N260	N	0.467983	0.177977	0.909085
	N261	N	0.536361	0.179410	0.084593
	N262	N	0.470349	0.815199	0.083865
	N263	N	0.536642	0.815520	0.906399
	N264	N	0.469304	0.909122	0.176986
	N265	N	0.537299	0.084318	0.176822
	N266	N	0.468466	0.084520	0.815248
	N267	N	0.537598	0.911152	0.815376
	N268	N	0.916212	0.176259	0.460538
	N269	N	0.089045	0.176308	0.530472
	N270	N	0.088283	0.818765	0.460818
	N271	N	0.915333	0.817802	0.530142
	N272	N	0.186475	0.463991	0.905647
	N273	N	0.184332	0.531903	0.082640
	N274	N	0.821234	0.463098	0.084564
	N275	N	0.822586	0.529907	0.908242
	O276	O	0.015649	0.774378	-0.196746
	H277	H	0.011557	0.748556	-0.201520
	H278	H	0.002055	0.777995	-0.189454
	O279	O	0.444330	0.519167	0.274743
	H280	H	0.420906	0.515383	0.267658
	H281	H	0.447774	0.511205	0.279578
	O282	O	0.996731	0.187992	0.781037
	H283	H	0.985324	0.172372	0.790714
	H284	H	1.001534	0.194911	0.759915
	O285	O	0.423549	0.472134	0.661131
	H286	H	0.414337	0.454505	0.639029
	H287	H	0.421792	0.453706	0.670163
	O288	O	0.498364	0.610674	0.558410
	H289	H	0.491389	0.606888	0.569211
	H290	H	0.493032	0.609734	0.566324
	O291	O	0.281440	0.284071	0.519325
	H292	H	0.285359	0.272773	0.544124
	H293	H	0.274455	0.270124	0.537279
	O294	O	0.791183	0.211024	0.982206
	H295	H	0.782060	0.200001	0.983053
	H296	H	0.789294	0.219493	0.972216
	O297	O	0.474301	0.712829	0.279836
	H298	H	0.472791	0.722702	0.270789
	H299	H	0.475392	0.721626	0.285037
	O300	O	-0.034670	0.213440	1.036724
	H301	H	-0.045372	0.219579	1.054729
	H302	H	-0.034724	0.210417	1.056812
	O303	O	0.718601	0.620095	0.490717
	H304	H	0.717041	0.620620	0.495868
	H305	H	0.726386	0.636154	0.497295
	O306	O	0.577804	0.304205	0.522733
	H307	H	0.596439	0.303270	0.517295
	H308	H	0.576481	0.317697	0.519020
	O309	O	0.314839	0.686301	0.681267
	H310	H	0.292446	0.691210	0.692740
	H311	H	0.309796	0.669633	0.674876
	O312	O	0.611659	0.709106	0.635133
	H313	H	0.599516	0.714603	0.640813
	H314	H	0.592832	0.696513	0.625160
	O315	O	0.931384	0.942925	0.975644
	H316	H	0.929142	0.948129	0.971363
	H317	H	0.924930	0.944566	0.970269
	O318	O	0.552859	0.585591	0.384638
	H319	H	0.540063	0.580158	0.387109
	H320	H	0.541719	0.582521	0.385884
	O321	O	0.211804	0.783032	0.791033
	H322	H	0.218709	0.777440	0.846127
	H323	H	0.177355	0.785437	0.781510
	O324	O	0.971108	0.775338	0.210837
	H325	H	0.956673	0.770116	0.225149
	H326	H	0.937086	0.768654	0.217935
	O327	O	0.068904	0.225718	0.917514
	H328	H	0.065617	0.224634	0.932614
	H329	H	0.049683	0.231000	0.917532
	O330	O	0.728048	0.307834	0.483406
	H331	H	0.748480	0.284664	0.480329
	H332	H	0.728052	0.335577	0.497452
	O333	O	0.474135	0.314577	0.660498
	H334	H	0.471513	0.300389	0.670872
	H335	H	0.488677	0.314204	0.654626
	O336	O	0.615856	0.367184	0.347969
	H337	H	0.600283	0.377309	0.344798
	H338	H	0.602720	0.371970	0.366879
	O339	O	0.938983	-0.053875	0.768716
	H340	H	0.932170	-0.046314	0.785464
	H341	H	0.936423	-0.058527	0.767232
	O342	O	-0.173281	-0.192197	0.065503
	H343	H	-0.176321	-0.185169	0.071237
	H344	H	-0.172904	-0.194093	0.072318
	O345	O	0.080538	1.024741	1.017491
	H346	H	0.081552	1.016279	1.019026
	H347	H	0.069832	1.018621	1.020755
	O348	O	0.213457	0.206596	0.197745
	H349	H	0.204407	0.202379	0.165625
	H350	H	0.214248	0.176744	0.181457
	O351	O	0.692397	0.687055	0.306490
	H352	H	0.679974	0.679289	0.341039
	H353	H	0.667929	0.659521	0.311110
	O354	O	0.239632	-0.074935	1.042078
	H355	H	0.241908	-0.048606	1.037052
	H356	H	0.235284	-0.069670	1.071044
	O357	O	0.528467	0.539088	0.509951
	H358	H	0.533274	0.534958	0.517851
	H359	H	0.528657	0.544931	0.497963
	O360	O	0.292526	0.289384	0.696776
	H361	H	0.331649	0.289096	0.697447
	H362	H	0.263164	0.257039	0.731691
	O363	O	-0.013343	0.025937	0.190502
	H364	H	-0.041780	0.033075	0.193869
	H365	H	-0.006206	0.028835	0.199799
	O366	O	0.582481	0.556335	0.654969
	H367	H	0.579993	0.563646	0.654348
	H368	H	0.590606	0.574925	0.674658
	O369	O	0.765237	0.232813	0.228257
	H370	H	0.727958	0.249220	0.243138
	H371	H	0.760870	0.221090	0.232890
	O372	O	0.875553	0.782407	-0.022815
	H373	H	0.890678	0.796506	-0.022250
	H374	H	0.859062	0.762135	-0.005502
	O375	O	0.768603	-0.038498	0.216990
	H376	H	0.761710	-0.029304	0.242224
	H377	H	0.770780	-0.058591	0.230099
	O378	O	0.433420	0.371941	0.337862
	H379	H	0.409977	0.374108	0.356874
	H380	H	0.425205	0.362440	0.339440
	O381	O	0.093317	0.951738	0.800418
	H382	H	0.082623	0.937873	0.794207
	H383	H	0.098463	0.938282	0.811533
	O384	O	0.807393	-0.173477	0.802781
	H385	H	0.819201	-0.151950	0.817626
	H386	H	0.824963	-0.169790	0.818590
	O387	O	1.085753	0.970449	-0.025875
	H388	H	1.094880	0.971853	-0.019477
	H389	H	1.086280	0.957303	-0.024297
	O390	O	0.536588	0.284076	0.283209
	H391	H	0.515557	0.289112	0.285798
	H392	H	0.531139	0.264175	0.278340
	O393	O	0.452521	0.565750	0.716032
	H394	H	0.424718	0.573765	0.721404
	H395	H	0.454483	0.559286	0.717950
	O396	O	0.227437	0.981753	0.779204
	H397	H	0.238293	0.967609	0.766201
	H398	H	0.229846	0.942150	0.771548
	O399	O	-0.024842	0.102082	0.837314
	H400	H	-0.014146	0.098319	0.841307
	H401	H	-0.028606	0.095274	0.843212
	O402	O	0.437993	0.650290	0.449878
	H403	H	0.431272	0.646683	0.452376
	H404	H	0.433428	0.653587	0.460149
	O405	O	0.863519	0.052539	0.984786
	H406	H	0.868424	0.057993	0.994264
	H407	H	0.859552	0.062702	1.004034
	O408	O	0.226462	0.218888	0.028689
	H409	H	0.223298	0.225452	0.010059
	H410	H	0.251266	0.218854	0.016567
	O411	O	0.715578	0.700272	0.702927
	H412	H	0.693324	0.698335	0.686092
	H413	H	0.730903	0.731486	0.730495
	O414	O	0.588084	0.354015	0.644984
	H415	H	0.600761	0.367450	0.640328
	H416	H	0.598896	0.366148	0.654139
	O417	O	0.701086	0.438650	0.496317
	H418	H	0.700004	0.450203	0.490881
	H419	H	0.705363	0.448475	0.497689
	O420	O	0.280168	0.491457	0.344808
	H421	H	0.273832	0.501578	0.338262
	H422	H	0.279804	0.488137	0.349820
	O423	O	-0.088571	0.013352	1.162202
	H424	H	-0.092830	0.038576	1.151121
	H425	H	-0.079045	0.023281	1.169314
	O426	O	0.337159	0.661492	0.534399
	H427	H	0.347643	0.659308	0.568982
	H428	H	0.332416	0.654315	0.533892
	O429	O	0.773664	0.929376	0.920107
	H430	H	0.765593	0.933832	0.905401
	H431	H	0.766941	0.931792	0.925553
	O432	O	0.613516	0.717374	0.460926
	H433	H	0.608803	0.723876	0.468375
	H434	H	0.616822	0.714489	0.482662
	O435	O	0.174058	0.826610	0.176719
	H436	H	0.171072	0.805950	0.190460
	H437	H	0.175890	0.828948	0.186510
	O438	O	0.066879	0.025381	0.203806
	H439	H	0.044747	0.023770	0.208389
	H440	H	0.065461	0.000107	0.184156
	O441	O	0.037576	0.224573	0.212247
	H442	H	0.064320	0.229737	0.224436
	H443	H	0.044257	0.224809	0.233089
	O444	O	0.433732	0.430498	0.421841
	H445	H	0.425695	0.436088	0.416776
	H446	H	0.439217	0.419454	0.415750
	O447	O	0.242211	1.063871	0.957237
	H448	H	0.240847	1.054398	0.931624
	H449	H	0.227702	1.066552	0.961855
	O450	O	0.227580	0.775456	0.959707
	H451	H	0.244761	0.771406	0.973950
	H452	H	0.237718	0.786115	0.980151
	O453	O	0.279144	0.470117	0.707444
	H454	H	0.258747	0.453297	0.723006
	H455	H	0.280595	0.446293	0.709573
	O456	O	0.198284	0.190631	0.805042
	H457	H	0.172906	0.184412	0.830794
	H458	H	0.181558	0.159713	0.810030
	O459	O	0.789246	0.785423	0.204924
	H460	H	0.757068	0.753474	0.237039
	H461	H	0.787084	0.811969	0.188580
	O462	O	0.725391	0.463204	0.275530
	H463	H	0.742867	0.454432	0.256857
	H464	H	0.721590	0.455684	0.269768
	O465	O	0.784887	0.115378	0.112632
	H466	H	0.773765	0.114871	0.108111
	H467	H	0.782712	0.108418	0.120143
	O468	O	0.295546	0.681676	0.397955
	H469	H	0.286903	0.675733	0.420799
	H470	H	0.284018	0.668234	0.405453
	O471	O	0.283618	0.483095	0.495219
	H472	H	0.279536	0.470365	0.495996
	H473	H	0.284150	0.471823	0.476093
	O474	O	0.278363	0.714341	0.275690
	H475	H	0.291041	0.721494	0.307810
	H476	H	0.301111	0.692705	0.279093
	O477	O	0.345934	0.305476	1.336770
	H478	H	0.336509	0.309866	1.358415
	H479	H	0.334410	0.283789	1.323973
	O480	O	0.625477	0.293818	0.621310
	H481	H	0.626647	0.301653	0.613812
	H482	H	0.629887	0.314177	0.615654
	O483	O	0.727401	0.528431	0.719368
	H484	H	0.717530	0.564283	0.707294
	H485	H	0.757338	0.531786	0.754374
	O486	O	0.798006	0.200515	0.794474
	H487	H	0.815002	0.204489	0.788471
	H488	H	0.796258	0.200668	0.810609
	O489	O	1.023754	0.778080	-0.005866
	H490	H	1.022553	0.785566	0.018774
	H491	H	1.031028	0.772149	-0.005308
	O492	O	0.233246	0.027683	0.211126
	H493	H	0.206552	0.021065	0.215562
	H494	H	0.253931	0.029899	0.244103
	O495	O	-0.006156	0.886522	1.043889
	H496	H	-0.014318	0.875218	1.057529
	H497	H	0.005393	0.885960	1.039984
	O498	O	0.778285	1.033510	0.787765
	H499	H	0.764150	1.044687	0.775925
	H500	H	0.784069	1.046052	0.775118
	O501	O	0.614289	0.430702	0.456407
	H502	H	0.618799	0.425250	0.468104
	H503	H	0.620022	0.431621	0.451559
