data_Molecule from HDF5

_cell_length_a		16.688102
_cell_length_b		16.589107
_cell_length_c		16.584281
_cell_angle_alpha	90.095344
_cell_angle_beta	89.871155
_cell_angle_gamma	89.798387
_symmetry_space_group_name_H-M	'P 1'
_symmetry_Int_Tables_number		1

loop_
	_symmetry_equiv_pos_as_xyz
	x,y,z

loop_
	_atom_site_label
	_atom_site_type_symbol
	_atom_site_fract_x
	_atom_site_fract_y
	_atom_site_fract_z
	H0	H	0.394916	0.830634	0.711797
	H1	H	0.600478	0.144151	0.709865
	H2	H	0.603853	0.830985	0.269603
	H3	H	0.391741	0.141866	0.268422
	H4	H	0.724278	0.378276	0.837933
	H5	H	0.723907	0.595774	0.145566
	H6	H	0.283185	0.587597	0.832674
	H7	H	0.278735	0.382413	0.146285
	H8	H	0.845194	0.712117	0.382443
	H9	H	0.152577	0.710031	0.596896
	H10	H	0.845483	0.263615	0.598982
	H11	H	0.152899	0.263139	0.383579
	H12	H	0.846647	0.380235	0.715720
	H13	H	0.153591	0.592086	0.711365
	H14	H	0.846614	0.596861	0.265882
	H15	H	0.155117	0.382892	0.270879
	H16	H	0.399506	0.703346	0.832885
	H17	H	0.607927	0.711285	0.144672
	H18	H	0.606925	0.264042	0.836791
	H19	H	0.392638	0.264798	0.145518
	H20	H	0.720920	0.832104	0.383759
	H21	H	0.716270	0.144734	0.592853
	H22	H	0.276673	0.832229	0.598130
	H23	H	0.276934	0.142008	0.386174
	H24	H	0.893070	0.332082	0.214634
	H25	H	0.102793	0.643727	0.210347
	H26	H	0.103419	0.330959	0.770241
	H27	H	0.890965	0.640558	0.767506
	H28	H	0.222758	0.879919	0.337094
	H29	H	0.220410	0.094976	0.646157
	H30	H	0.777444	0.093137	0.334612
	H31	H	0.776060	0.881129	0.645580
	H32	H	0.346013	0.209991	0.885497
	H33	H	0.650992	0.212725	0.102668
	H34	H	0.344414	0.765839	0.095488
	H35	H	0.654844	0.765440	0.885117
	H36	H	0.343847	0.881773	0.211504
	H37	H	0.651522	0.095344	0.216542
	H38	H	0.346455	0.095318	0.767422
	H39	H	0.654529	0.880963	0.769530
	H40	H	0.895113	0.206934	0.333763
	H41	H	0.103276	0.209944	0.645483
	H42	H	0.105224	0.765569	0.335486
	H43	H	0.894265	0.768045	0.647223
	H44	H	0.219579	0.330623	0.886897
	H45	H	0.219556	0.642982	0.093976
	H46	H	0.773375	0.334107	0.103027
	H47	H	0.774071	0.639513	0.881912
	H48	H	0.415285	0.096316	0.580532
	H49	H	0.591722	0.874725	0.578009
	H50	H	0.586287	0.098651	0.403876
	H51	H	0.412307	0.875403	0.400189
	H52	H	0.587219	0.404131	0.101730
	H53	H	0.586664	0.569162	0.882842
	H54	H	0.401832	0.576188	0.104996
	H55	H	0.408041	0.396443	0.876527
	H56	H	0.110678	0.574208	0.396212
	H57	H	0.888183	0.574449	0.581312
	H58	H	0.109948	0.394355	0.575247
	H59	H	0.889761	0.403223	0.404324
	H60	H	0.107576	0.402556	0.576174
	H61	H	0.886592	0.578615	0.580687
	H62	H	0.111641	0.582491	0.402771
	H63	H	0.887414	0.399126	0.398737
	H64	H	0.412788	0.570845	0.100478
	H65	H	0.585347	0.578180	0.879340
	H66	H	0.582339	0.401913	0.099322
	H67	H	0.410925	0.399898	0.879070
	H68	H	0.586475	0.099194	0.402627
	H69	H	0.589294	0.873859	0.581785
	H70	H	0.406202	0.097426	0.574155
	H71	H	0.412310	0.876436	0.405807
	H72	H	0.912554	0.598657	0.080013
	H73	H	0.090782	0.374453	0.080276
	H74	H	0.090986	0.600983	0.898101
	H75	H	0.917188	0.377760	0.905290
	H76	H	0.088393	0.898790	0.603262
	H77	H	0.084438	0.078495	0.379475
	H78	H	0.910070	0.081224	0.604720
	H79	H	0.899589	0.903108	0.377099
	H80	H	0.608604	0.070297	0.902839
	H81	H	0.389692	0.075834	0.076947
	H82	H	0.611038	0.893933	0.078293
	H83	H	0.387733	0.894443	0.903446
	H84	H	0.607547	0.900446	0.075523
	H85	H	0.389287	0.072583	0.077528
	H86	H	0.612028	0.075427	0.897241
	H87	H	0.388620	0.899041	0.900499
	H88	H	0.903429	0.074753	0.603766
	H89	H	0.093076	0.074223	0.377284
	H90	H	0.087114	0.899257	0.602753
	H91	H	0.917567	0.906046	0.383719
	H92	H	0.090228	0.599177	0.901154
	H93	H	0.092080	0.374003	0.080781
	H94	H	0.916493	0.594545	0.076218
	H95	H	0.912697	0.376400	0.908660
	H96	H	0.405670	0.100274	0.584858
	H97	H	0.587251	0.875867	0.577960
	H98	H	0.585584	0.097782	0.402936
	H99	H	0.407394	0.874771	0.402886
	H100	H	0.585721	0.398869	0.103531
	H101	H	0.593883	0.573596	0.878019
	H102	H	0.412159	0.583950	0.104325
	H103	H	0.413257	0.394958	0.878680
	H104	H	0.107357	0.573149	0.406117
	H105	H	0.888890	0.576131	0.577384
	H106	H	0.111045	0.398127	0.582799
	H107	H	0.889399	0.395628	0.405252
	H108	H	0.910668	0.596770	0.074185
	H109	H	0.091133	0.374211	0.081834
	H110	H	0.093179	0.601193	0.900932
	H111	H	0.912368	0.375430	0.902425
	H112	H	0.087091	0.897851	0.603983
	H113	H	0.086069	0.069254	0.381681
	H114	H	0.911865	0.073276	0.599956
	H115	H	0.913002	0.889392	0.375944
	H116	H	0.610787	0.077755	0.904781
	H117	H	0.388684	0.075164	0.079605
	H118	H	0.610899	0.900176	0.083417
	H119	H	0.385844	0.894851	0.898168
	C120	C	0.377355	-0.004583	0.612591
	C121	C	0.619700	0.978901	0.610899
	C122	C	0.619376	-0.004231	0.369644
	C123	C	0.377686	0.978353	0.370366
	C124	C	0.619789	0.366621	0.000041
	C125	C	0.621630	0.607944	0.982453
	C126	C	0.379162	0.607118	-0.001017
	C127	C	0.378515	0.365456	0.981620
	C128	C	0.007912	0.609687	0.368890
	C129	C	0.990363	0.608754	0.612047
	C130	C	0.007502	0.365583	0.611631
	C131	C	0.991187	0.366647	0.369977
	C132	C	0.878693	0.495481	0.112323
	C133	C	0.121561	0.478283	0.111967
	C134	C	0.122099	0.496338	0.868898
	C135	C	0.879226	0.478044	0.870855
	C136	C	0.120482	0.865596	0.500412
	C137	C	0.119703	0.107814	0.482211
	C138	C	0.876956	0.108635	0.499366
	C139	C	0.877673	0.866878	0.481893
	C140	C	0.508561	0.108165	0.869252
	C141	C	0.490479	0.108325	0.112707
	C142	C	0.507645	0.865569	0.111546
	C143	C	0.490328	0.864411	0.868732
	C144	C	0.375906	0.877767	0.672196
	C145	C	0.619193	0.097243	0.669700
	C146	C	0.621860	0.878080	0.309618
	C147	C	0.374312	0.095328	0.309488
	C148	C	0.682837	0.361077	0.884153
	C149	C	0.683049	0.612854	0.098835
	C150	C	0.321999	0.607109	0.880152
	C151	C	0.318280	0.363581	0.099123
	C152	C	0.891854	0.671344	0.364967
	C153	C	0.106439	0.669188	0.614621
	C154	C	0.891765	0.304505	0.616241
	C155	C	0.107083	0.304596	0.366432
	C156	C	0.892352	0.362017	0.674486
	C157	C	0.107118	0.610614	0.671526
	C158	C	0.892358	0.613938	0.307019
	C159	C	0.108133	0.363950	0.310339
	C160	C	0.379896	0.664373	0.880057
	C161	C	0.625104	0.670376	0.098572
	C162	C	0.624387	0.304522	0.883474
	C163	C	0.375073	0.305064	0.098812
	C164	C	0.680148	0.878666	0.366376
	C165	C	0.677022	0.097509	0.611820
	C166	C	0.317335	0.878470	0.615582
	C167	C	0.317147	0.095363	0.367929
	C168	C	0.874816	0.379060	0.174612
	C169	C	0.121936	0.596377	0.170841
	C170	C	0.122400	0.377829	0.810258
	C171	C	0.873949	0.594055	0.808614
	C172	C	0.181937	0.862119	0.383544
	C173	C	0.179765	0.111917	0.599402
	C174	C	0.817302	0.111291	0.381674
	C175	C	0.816668	0.863646	0.598997
	C176	C	0.392278	0.169413	0.866940
	C177	C	0.605403	0.170936	0.118661
	C178	C	0.391069	0.805702	0.113813
	C179	C	0.607673	0.805086	0.866867
	C180	C	0.390568	0.863460	0.171481
	C181	C	0.605359	0.112937	0.175734
	C182	C	0.392512	0.112482	0.808438
	C183	C	0.607702	0.862600	0.809125
	C184	C	0.875759	0.167881	0.381248
	C185	C	0.121813	0.169245	0.599150
	C186	C	0.123427	0.805491	0.382818
	C187	C	0.875479	0.807234	0.599670
	C188	C	0.180294	0.377890	0.867738
	C189	C	0.179793	0.596297	0.112963
	C190	C	0.815574	0.379943	0.118822
	C191	C	0.815629	0.593423	0.865567
	C192	C	0.402158	0.076926	0.587155
	C193	C	0.596170	0.896367	0.586457
	C194	C	0.593531	0.077243	0.395520
	C195	C	0.403562	0.896724	0.395780
	C196	C	0.592740	0.393737	0.080537
	C197	C	0.595901	0.581181	0.901150
	C198	C	0.402246	0.583860	0.081732
	C199	C	0.403611	0.390140	0.899422
	C200	C	0.088942	0.583832	0.394473
	C201	C	0.908951	0.583463	0.587009
	C202	C	0.088482	0.391184	0.585401
	C203	C	0.910024	0.392179	0.395507
	C204	C	0.905414	0.575770	0.084686
	C205	C	0.098197	0.395640	0.087805
	C206	C	0.098344	0.578965	0.893023
	C207	C	0.906533	0.397356	0.897828
	C208	C	0.094949	0.891279	0.582034
	C209	C	0.094999	0.081486	0.400788
	C210	C	0.901488	0.083567	0.581324
	C211	C	0.902857	0.892364	0.400229
	C212	C	0.589555	0.082072	0.894540
	C213	C	0.410156	0.081942	0.085647
	C214	C	0.588757	0.890957	0.086364
	C215	C	0.408688	0.889272	0.893540
	Zn216	Zn	0.499256	-0.013643	0.740931
	Zn217	Zn	0.498457	-0.013117	0.240888
	Zn218	Zn	0.749892	0.485966	-0.008352
	Zn219	Zn	0.250189	0.487145	-0.009800
	Zn220	Zn	-0.001333	0.737672	0.490674
	Zn221	Zn	-0.001517	0.236504	0.489878
	Zn222	Zn	-0.000678	0.486983	0.741434
	Zn223	Zn	-0.000375	0.487096	0.240685
	Zn224	Zn	0.499480	0.735964	-0.009479
	Zn225	Zn	0.500275	0.236640	-0.008697
	Zn226	Zn	0.748766	-0.012527	0.490250
	Zn227	Zn	0.248635	-0.012745	0.491886
	N228	N	0.412348	0.951611	0.670794
	N229	N	0.584445	0.022153	0.669575
	N230	N	0.584674	0.951960	0.311352
	N231	N	0.411214	0.021293	0.310821
	N232	N	0.680258	0.398942	0.957644
	N233	N	0.681129	0.574910	0.025414
	N234	N	0.321104	0.572522	0.955216
	N235	N	0.319924	0.400023	0.024998
	N236	N	0.964833	0.668825	0.402721
	N237	N	0.032711	0.668199	0.578305
	N238	N	0.964532	0.306561	0.577926
	N239	N	0.033156	0.305901	0.402576
	N240	N	0.965416	0.399448	0.671677
	N241	N	0.033733	0.573835	0.670376
	N242	N	0.965613	0.576166	0.309109
	N243	N	0.034984	0.401593	0.312211
	N244	N	0.414591	0.664816	0.955042
	N245	N	0.587654	0.667550	0.024889
	N246	N	0.585864	0.307567	0.956633
	N247	N	0.411627	0.305714	0.024539
	N248	N	0.679003	0.952945	0.403054
	N249	N	0.677433	0.022842	0.576154
	N250	N	0.317780	0.952694	0.579356
	N251	N	0.318975	0.021562	0.404936
	N252	N	0.913448	0.452051	0.171011
	N253	N	0.086557	0.521723	0.170432
	N254	N	0.087030	0.452681	0.810456
	N255	N	0.912958	0.521163	0.811817
	N256	N	0.180362	0.898879	0.457773
	N257	N	0.178623	0.074199	0.525716
	N258	N	0.817552	0.075578	0.456295
	N259	N	0.817753	0.899980	0.524658
	N260	N	0.465484	0.166879	0.904139
	N261	N	0.532870	0.168319	0.079987
	N262	N	0.464934	0.806703	0.077221
	N263	N	0.533697	0.805899	0.903089
	N264	N	0.464132	0.900038	0.170269
	N265	N	0.532924	0.074648	0.172009
	N266	N	0.465797	0.074924	0.809823
	N267	N	0.533667	0.898835	0.810016
	N268	N	0.912194	0.166585	0.455422
	N269	N	0.085221	0.166927	0.525285
	N270	N	0.086024	0.807346	0.456630
	N271	N	0.912578	0.808854	0.525736
	N272	N	0.180505	0.452698	0.903071
	N273	N	0.179823	0.521713	0.077212
	N274	N	0.817746	0.453332	0.080874
	N275	N	0.818894	0.520212	0.903954
	O276	O	-0.191756	0.942595	0.172026
	H277	H	-0.200643	0.955289	0.179117
	H278	H	-0.199135	0.958373	0.149327
	O279	O	-0.113350	0.949770	0.020741
	H280	H	-0.113492	0.959897	0.012435
	H281	H	-0.114434	0.939837	0.014841
	O282	O	1.037536	0.045679	0.777267
	H283	H	1.059437	0.025850	0.781544
	H284	H	1.031635	0.025033	0.771200
	O285	O	0.726932	0.274673	0.457053
	H286	H	0.745634	0.241349	0.454259
	H287	H	0.698328	0.274046	0.443725
	O288	O	0.519306	0.639555	0.596783
	H289	H	0.524703	0.640899	0.577114
	H290	H	0.548179	0.646434	0.603317
	O291	O	0.528971	0.709174	0.712492
	H292	H	0.553690	0.718223	0.720197
	H293	H	0.545321	0.725232	0.717810
	O294	O	1.095992	-0.046904	1.196053
	H295	H	1.092477	-0.030213	1.196722
	H296	H	1.098065	-0.023677	1.203708
	O297	O	0.600193	0.596506	0.374507
	H298	H	0.587269	0.597035	0.372137
	H299	H	0.612093	0.608487	0.349683
	O300	O	-0.537235	-0.727724	1.697476
	H301	H	-0.524548	-0.745073	1.712209
	H302	H	-0.529928	-0.712840	1.693002
	O303	O	0.350010	0.334226	0.290801
	H304	H	0.340376	0.340503	0.312757
	H305	H	0.350256	0.328680	0.280801
	O306	O	0.712590	0.277558	0.276954
	H307	H	0.713379	0.297192	0.308047
	H308	H	0.673892	0.292580	0.277744
	O309	O	0.723039	0.703895	0.525074
	H310	H	0.729869	0.707142	0.509346
	H311	H	0.730473	0.720499	0.525723
	O312	O	0.278747	0.523341	0.271996
	H313	H	0.252490	0.527745	0.257567
	H314	H	0.290108	0.528679	0.265576
	O315	O	1.225619	1.045379	0.914631
	H316	H	1.230585	1.035782	0.894633
	H317	H	1.215611	1.030633	0.920882
	O318	O	0.423488	0.330368	0.523423
	H319	H	0.414599	0.334325	0.531426
	H320	H	0.405051	0.337446	0.541291
	O321	O	0.278790	0.706007	0.472653
	H322	H	0.269139	0.718154	0.450415
	H323	H	0.279942	0.720530	0.452363
	O324	O	1.187576	1.177329	-0.195501
	H325	H	1.173063	1.152680	-0.183250
	H326	H	1.178531	1.179238	-0.191035
	O327	O	-0.019627	-0.037528	0.966917
	H328	H	-0.010049	-0.041945	0.962824
	H329	H	-0.027920	-0.032332	0.987197
	O330	O	0.473622	0.705238	0.266252
	H331	H	0.446895	0.710681	0.269366
	H332	H	0.465929	0.723006	0.247938
	O333	O	0.560669	0.287653	0.327926
	H334	H	0.547987	0.307998	0.345488
	H335	H	0.540240	0.268941	0.317782
	O336	O	0.288702	0.695469	0.284234
	H337	H	0.297869	0.669585	0.289977
	H338	H	0.256376	0.726948	0.251182
	O339	O	0.967876	-0.234374	0.989624
	H340	H	0.950862	-0.243098	0.995834
	H341	H	0.961882	-0.229940	0.983411
	O342	O	-0.225755	0.021641	-0.234690
	H343	H	-0.233752	0.047476	-0.233367
	H344	H	-0.245570	0.038605	-0.249176
	O345	O	0.052549	0.761844	1.047276
	H346	H	0.060392	0.775771	1.047385
	H347	H	0.044700	0.757654	1.053301
	O348	O	0.218925	0.200503	0.029213
	H349	H	0.229797	0.223005	0.016180
	H350	H	0.215888	0.189435	0.003934
	O351	O	0.484691	0.270465	0.540083
	H352	H	0.472011	0.269081	0.541838
	H353	H	0.485313	0.278747	0.558791
	O354	O	-0.291028	-0.306019	1.281907
	H355	H	-0.285440	-0.312263	1.268392
	H356	H	-0.277170	-0.290216	1.275128
	O357	O	0.961845	0.958799	0.810170
	H358	H	0.956648	0.939549	0.814454
	H359	H	0.945109	0.968831	0.816767
	O360	O	0.406325	0.562085	0.584282
	H361	H	0.385910	0.554318	0.601632
	H362	H	0.408244	0.567940	0.569185
	O363	O	-0.173269	-0.187938	0.197813
	H364	H	-0.169561	-0.151899	0.197110
	H365	H	-0.157451	-0.177043	0.191058
	O366	O	0.688763	0.302504	0.679041
	H367	H	0.698573	0.307170	0.674124
	H368	H	0.672180	0.323971	0.666087
	O369	O	0.463625	0.266004	0.366928
	H370	H	0.456668	0.253267	0.366712
	H371	H	0.469001	0.270293	0.389331
	O372	O	0.812600	1.169324	0.177477
	H373	H	0.810102	1.166624	0.144954
	H374	H	0.784201	1.201456	0.203949
	O375	O	1.101032	0.066466	0.068751
	H376	H	1.104940	0.071742	0.064558
	H377	H	1.095422	0.072919	0.076785
	O378	O	0.544264	0.548894	0.262556
	H379	H	0.532784	0.552390	0.270201
	H380	H	0.533218	0.566588	0.263310
	O381	O	-0.057582	1.148769	0.835194
	H382	H	-0.035380	1.122694	0.827800
	H383	H	-0.056542	1.165582	0.816890
	O384	O	1.024087	0.216900	1.006301
	H385	H	1.013500	0.213033	1.005219
	H386	H	1.021339	0.211643	1.027345
	O387	O	0.959403	1.023232	-0.101659
	H388	H	0.956316	1.017639	-0.106624
	H389	H	0.965667	1.013855	-0.103974
	O390	O	0.723157	0.461310	0.277082
	H391	H	0.732912	0.457427	0.251387
	H392	H	0.704341	0.468004	0.266120
	O393	O	0.453124	0.538513	0.707833
	H394	H	0.450137	0.557582	0.697835
	H395	H	0.460101	0.553884	0.701703
	O396	O	-0.011943	0.800543	0.847671
	H397	H	-0.015047	0.792800	0.850141
	H398	H	-0.017380	0.798954	0.849273
	O399	O	0.288236	0.278035	0.700455
	H400	H	0.307004	0.304251	0.706827
	H401	H	0.285517	0.254434	0.721593
	O402	O	0.577654	0.526020	0.445510
	H403	H	0.590021	0.528921	0.443030
	H404	H	0.566986	0.529284	0.440598
	O405	O	0.783847	0.196204	0.775025
	H406	H	0.809595	0.204736	0.791003
	H407	H	0.789453	0.213089	0.756580
	O408	O	0.208294	-0.221432	-0.215031
	H409	H	0.232132	-0.250749	-0.247998
	H410	H	0.175454	-0.222014	-0.212072
	O411	O	0.919280	1.040886	1.216437
	H412	H	0.890316	1.060335	1.221776
	H413	H	0.923068	1.071951	1.211845
	O414	O	0.274956	0.449549	0.709894
	H415	H	0.263395	0.457040	0.728856
	H416	H	0.269460	0.444265	0.714146
	O417	O	0.734593	0.427649	0.549330
	H418	H	0.729754	0.409890	0.531524
	H419	H	0.737608	0.428625	0.520955
	O420	O	0.282289	0.306089	0.481076
	H421	H	0.270886	0.288614	0.500385
	H422	H	0.279189	0.316421	0.508117
	O423	O	0.008773	-0.152612	0.855245
	H424	H	-0.001218	-0.165239	0.856277
	H425	H	0.015105	-0.160807	0.856688
	O426	O	0.308481	0.469725	0.424785
	H427	H	0.309421	0.453997	0.421620
	H428	H	0.298135	0.456891	0.417588
	O429	O	1.203682	1.187958	1.196570
	H430	H	1.218149	1.201467	1.162622
	H431	H	1.208422	1.160376	1.192111
	O432	O	0.481037	0.695584	0.447117
	H433	H	0.475652	0.685434	0.435166
	H434	H	0.476171	0.701379	0.456642
	O435	O	0.191496	0.904741	0.031522
	H436	H	0.189866	0.919724	0.036647
	H437	H	0.200316	0.879351	0.017721
	O438	O	-0.172686	0.138935	-0.030642
	H439	H	-0.176626	0.155393	-0.040488
	H440	H	-0.174961	0.131449	-0.056998
	O441	O	0.228279	-0.235832	-0.041835
	H442	H	0.236296	-0.248094	-0.072371
	H443	H	0.229048	-0.251837	-0.045548
	O444	O	0.707386	0.516463	0.697422
	H445	H	0.703662	0.509724	0.715799
	H446	H	0.720151	0.492975	0.666983
	O447	O	0.041161	1.199221	1.209542
	H448	H	0.075379	1.192056	1.207171
	H449	H	0.050286	1.229833	1.236937
	O450	O	-0.005031	0.807958	1.204775
	H451	H	-0.002890	0.818090	1.202213
	H452	H	-0.006320	0.809261	1.218464
	O453	O	0.388782	0.398058	0.279288
	H454	H	0.379771	0.389477	0.288066
	H455	H	0.387859	0.385976	0.280865
	O456	O	0.476473	0.488992	0.426756
	H457	H	0.480474	0.500459	0.424547
	H458	H	0.483027	0.488546	0.430160
	O459	O	0.304725	0.666799	0.674350
	H460	H	0.325496	0.648866	0.655228
	H461	H	0.317657	0.650032	0.651883
	O462	O	0.940802	1.142055	1.039302
	H463	H	0.932059	1.143861	1.056140
	H464	H	0.935169	1.159843	1.036561
	O465	O	0.809955	-0.077148	-0.117071
	H466	H	0.816606	-0.078147	-0.120492
	H467	H	0.806956	-0.078425	-0.124737
	O468	O	0.190483	0.794835	0.183411
	H469	H	0.172847	0.803492	0.152502
	H470	H	0.169123	0.826293	0.179916
	O471	O	0.271658	0.564764	0.514920
	H472	H	0.265632	0.585399	0.495193
	H473	H	0.271583	0.557238	0.509915
	O474	O	0.709229	0.692076	0.696481
	H475	H	0.710856	0.689067	0.683692
	H476	H	0.711273	0.656653	0.683043
	O477	O	0.529803	0.439246	1.539551
	H478	H	0.528226	0.449752	1.538679
	H479	H	0.527749	0.449124	1.538711
	O480	O	0.736759	0.546638	0.434519
	H481	H	0.739990	0.548486	0.439518
	H482	H	0.739360	0.549293	0.404339
	O483	O	0.549625	0.410502	0.718839
	H484	H	0.543794	0.409695	0.733858
	H485	H	0.537389	0.427244	0.704652
	O486	O	1.224099	-0.038046	0.773149
	H487	H	1.231677	-0.063233	0.759195
	H488	H	1.239872	-0.047135	0.769365
	O489	O	1.175171	1.021763	0.214157
	H490	H	1.171319	1.023767	0.189252
	H491	H	1.199770	1.019437	0.233458
	O492	O	-0.216918	-0.234875	0.020598
	H493	H	-0.216456	-0.223923	0.038995
	H494	H	-0.241462	-0.259534	0.026116
	O495	O	-0.227075	1.046398	1.059278
	H496	H	-0.232414	1.053713	1.042987
	H497	H	-0.231167	1.057054	1.041424
	O498	O	1.034662	1.196465	0.860642
	H499	H	1.024030	1.197076	0.856184
	H500	H	1.030475	1.184458	0.876690
	O501	O	0.811665	0.798205	0.803707
	H502	H	0.793805	0.785855	0.787575
	H503	H	0.826570	0.807138	0.821460
