data_Molecule from HDF5

_cell_length_a		16.348544
_cell_length_b		16.355407
_cell_length_c		16.398368
_cell_angle_alpha	89.908776
_cell_angle_beta	89.945752
_cell_angle_gamma	90.004723
_symmetry_space_group_name_H-M	'P 1'
_symmetry_Int_Tables_number		1

loop_
	_symmetry_equiv_pos_as_xyz
	x,y,z

loop_
	_atom_site_label
	_atom_site_type_symbol
	_atom_site_fract_x
	_atom_site_fract_y
	_atom_site_fract_z
	H0	H	0.391412	0.840914	0.724977
	H1	H	0.602178	0.159786	0.718656
	H2	H	0.603315	0.839855	0.280246
	H3	H	0.391863	0.157493	0.280643
	H4	H	0.720494	0.397157	0.841421
	H5	H	0.721044	0.605027	0.160026
	H6	H	0.277951	0.606924	0.842693
	H7	H	0.277177	0.392541	0.159714
	H8	H	0.839998	0.714500	0.401802
	H9	H	0.158458	0.721498	0.611338
	H10	H	0.838363	0.279829	0.606563
	H11	H	0.158995	0.274435	0.396776
	H12	H	0.840139	0.394705	0.723210
	H13	H	0.160353	0.600927	0.721835
	H14	H	0.842327	0.604817	0.281266
	H15	H	0.158663	0.388360	0.277563
	H16	H	0.395543	0.720817	0.841629
	H17	H	0.606408	0.723307	0.158508
	H18	H	0.603122	0.280854	0.840164
	H19	H	0.393438	0.276841	0.159625
	H20	H	0.717771	0.837595	0.398164
	H21	H	0.719072	0.158244	0.603507
	H22	H	0.278868	0.838587	0.607238
	H23	H	0.274486	0.155147	0.391656
	H24	H	0.897268	0.339195	0.221896
	H25	H	0.109454	0.657723	0.226209
	H26	H	0.105754	0.338930	0.782649
	H27	H	0.896686	0.658073	0.781506
	H28	H	0.222149	0.889815	0.343043
	H29	H	0.219949	0.100502	0.661338
	H30	H	0.782950	0.098347	0.341075
	H31	H	0.781534	0.896630	0.662955
	H32	H	0.338888	0.219320	0.897545
	H33	H	0.661216	0.214245	0.099109
	H34	H	0.340751	0.776447	0.107371
	H35	H	0.660009	0.782428	0.897341
	H36	H	0.339238	0.893174	0.222772
	H37	H	0.658149	0.103669	0.220795
	H38	H	0.338056	0.103480	0.781236
	H39	H	0.658648	0.896649	0.780587
	H40	H	0.894612	0.219370	0.343712
	H41	H	0.103463	0.216740	0.662296
	H42	H	0.105568	0.773807	0.344023
	H43	H	0.898109	0.780058	0.663448
	H44	H	0.223052	0.341285	0.896468
	H45	H	0.222215	0.659489	0.107401
	H46	H	0.780869	0.339550	0.105338
	H47	H	0.782542	0.659356	0.899011
	H48	H	0.401222	0.115948	0.591084
	H49	H	0.592830	0.881473	0.597184
	H50	H	0.592894	0.112375	0.416820
	H51	H	0.406586	0.882096	0.411329
	H52	H	0.592340	0.412466	0.114423
	H53	H	0.593784	0.598204	0.883398
	H54	H	0.412262	0.590404	0.114776
	H55	H	0.409991	0.411541	0.888169
	H56	H	0.113757	0.586818	0.418354
	H57	H	0.885599	0.583675	0.596941
	H58	H	0.115693	0.401652	0.592675
	H59	H	0.886515	0.407628	0.414396
	H60	H	0.111764	0.409586	0.588085
	H61	H	0.883652	0.592937	0.594841
	H62	H	0.112815	0.581277	0.415732
	H63	H	0.889082	0.411421	0.414792
	H64	H	0.410748	0.585992	0.113478
	H65	H	0.597048	0.584040	0.886408
	H66	H	0.586224	0.405947	0.113893
	H67	H	0.412623	0.413358	0.888898
	H68	H	0.594515	0.115670	0.406209
	H69	H	0.583259	0.885464	0.593592
	H70	H	0.417412	0.111640	0.595336
	H71	H	0.416961	0.885229	0.408953
	H72	H	0.912789	0.613136	0.092743
	H73	H	0.090969	0.385880	0.090758
	H74	H	0.085853	0.609361	0.917531
	H75	H	0.911891	0.385834	0.914777
	H76	H	0.083550	0.911514	0.612309
	H77	H	0.085551	0.089433	0.388555
	H78	H	0.918907	0.093502	0.615341
	H79	H	0.914557	0.907234	0.390455
	H80	H	0.615888	0.087276	0.900011
	H81	H	0.383219	0.092507	0.091794
	H82	H	0.607750	0.920112	0.086551
	H83	H	0.387982	0.915249	0.915825
	H84	H	0.614308	0.912509	0.098006
	H85	H	0.385779	0.088153	0.086768
	H86	H	0.616035	0.098224	0.910841
	H87	H	0.383067	0.912584	0.907845
	H88	H	0.899206	0.094875	0.622775
	H89	H	0.089647	0.082607	0.389285
	H90	H	0.087917	0.905138	0.615589
	H91	H	0.908054	0.898075	0.384595
	H92	H	0.095864	0.615628	0.912497
	H93	H	0.084554	0.388264	0.091409
	H94	H	0.911029	0.613549	0.091135
	H95	H	0.908412	0.383164	0.913075
	H96	H	0.411469	0.108376	0.579677
	H97	H	0.591112	0.884974	0.586817
	H98	H	0.584587	0.112081	0.410051
	H99	H	0.412528	0.887635	0.418518
	H100	H	0.593632	0.404165	0.117447
	H101	H	0.583842	0.589276	0.890389
	H102	H	0.415268	0.587457	0.112063
	H103	H	0.413093	0.409755	0.888265
	H104	H	0.115844	0.585711	0.412244
	H105	H	0.887384	0.587100	0.588160
	H106	H	0.114696	0.410469	0.597222
	H107	H	0.886095	0.410745	0.410749
	H108	H	0.910308	0.614172	0.093612
	H109	H	0.088486	0.388754	0.085530
	H110	H	0.084962	0.613956	0.905867
	H111	H	0.911718	0.383757	0.910921
	H112	H	0.091639	0.912264	0.614856
	H113	H	0.082117	0.083345	0.392029
	H114	H	0.905591	0.076463	0.613848
	H115	H	0.902747	0.909345	0.386950
	H116	H	0.610467	0.084186	0.913820
	H117	H	0.383834	0.086020	0.093116
	H118	H	0.612579	0.905299	0.085010
	H119	H	0.384874	0.906098	0.914514
	C120	C	0.377652	0.006840	0.621969
	C121	C	0.620240	0.990100	0.622874
	C122	C	0.621218	0.007250	0.379732
	C123	C	0.377777	0.989526	0.379728
	C124	C	0.621931	0.377607	0.009296
	C125	C	0.622613	0.622066	0.992172
	C126	C	0.379560	0.621001	0.009234
	C127	C	0.378437	0.378103	0.992967
	C128	C	0.009360	0.617772	0.382719
	C129	C	0.991512	0.619596	0.625072
	C130	C	0.007986	0.376475	0.624439
	C131	C	0.991755	0.375993	0.380426
	C132	C	0.879126	0.508110	0.124303
	C133	C	0.122094	0.491871	0.123139
	C134	C	0.121561	0.507758	0.880056
	C135	C	0.879422	0.489961	0.880979
	C136	C	0.120992	0.875781	0.510015
	C137	C	0.119241	0.117665	0.494390
	C138	C	0.877125	0.119373	0.511225
	C139	C	0.877785	0.875329	0.493725
	C140	C	0.507526	0.121362	0.878054
	C141	C	0.490428	0.120054	0.121531
	C142	C	0.507310	0.878648	0.122681
	C143	C	0.490689	0.879420	0.880409
	C144	C	0.374250	0.887953	0.683717
	C145	C	0.621074	0.111306	0.680218
	C146	C	0.622007	0.887384	0.320269
	C147	C	0.374055	0.109181	0.319719
	C148	C	0.681001	0.377888	0.889217
	C149	C	0.681259	0.623557	0.112322
	C150	C	0.318431	0.624395	0.890052
	C151	C	0.317524	0.375056	0.111907
	C152	C	0.888563	0.676317	0.381811
	C153	C	0.111147	0.680450	0.628096
	C154	C	0.887072	0.318608	0.625644
	C155	C	0.111169	0.314326	0.378097
	C156	C	0.887703	0.375658	0.683726
	C157	C	0.112104	0.620603	0.683450
	C158	C	0.889722	0.621411	0.321891
	C159	C	0.111168	0.371597	0.319066
	C160	C	0.376876	0.681231	0.889602
	C161	C	0.624474	0.682482	0.111449
	C162	C	0.622281	0.320211	0.888472
	C163	C	0.375492	0.317102	0.112108
	C164	C	0.679399	0.886226	0.378629
	C165	C	0.679477	0.110525	0.622996
	C166	C	0.318283	0.886731	0.624709
	C167	C	0.315294	0.107906	0.375403
	C168	C	0.878192	0.387354	0.182700
	C169	C	0.126475	0.610443	0.185378
	C170	C	0.124246	0.387237	0.821593
	C171	C	0.878144	0.610311	0.821528
	C172	C	0.181616	0.872504	0.390698
	C173	C	0.180232	0.119591	0.613626
	C174	C	0.820377	0.118859	0.389765
	C175	C	0.820249	0.876715	0.614832
	C176	C	0.386974	0.180376	0.877878
	C177	C	0.612175	0.176663	0.120336
	C178	C	0.388127	0.816917	0.125437
	C179	C	0.611614	0.821253	0.878833
	C180	C	0.387373	0.874988	0.183113
	C181	C	0.610672	0.121729	0.180729
	C182	C	0.386463	0.122551	0.820135
	C183	C	0.610844	0.877934	0.820411
	C184	C	0.876185	0.178842	0.391211
	C185	C	0.122065	0.177413	0.614219
	C186	C	0.123716	0.814474	0.391184
	C187	C	0.878125	0.818798	0.615293
	C188	C	0.182620	0.388437	0.878199
	C189	C	0.182610	0.611422	0.125973
	C190	C	0.820172	0.387464	0.124844
	C191	C	0.821506	0.611139	0.880083
	C192	C	0.402752	0.090245	0.596061
	C193	C	0.596041	0.905880	0.599367
	C194	C	0.597515	0.091464	0.404037
	C195	C	0.404381	0.906501	0.405627
	C196	C	0.597599	0.400847	0.093511
	C197	C	0.598429	0.597530	0.908532
	C198	C	0.405410	0.595308	0.091976
	C199	C	0.404633	0.403994	0.909959
	C200	C	0.092460	0.591925	0.408140
	C201	C	0.907590	0.595041	0.600444
	C202	C	0.092024	0.400298	0.599856
	C203	C	0.908916	0.402238	0.406016
	C204	C	0.904042	0.591825	0.099695
	C205	C	0.095690	0.409214	0.096909
	C206	C	0.096098	0.591149	0.904846
	C207	C	0.903596	0.406288	0.905706
	C208	C	0.095279	0.901952	0.592764
	C209	C	0.093180	0.092329	0.411522
	C210	C	0.901096	0.095312	0.595203
	C211	C	0.901598	0.898174	0.409429
	C212	C	0.592140	0.097150	0.901418
	C213	C	0.406106	0.095982	0.097630
	C214	C	0.590093	0.904904	0.097108
	C215	C	0.407101	0.904026	0.905524
	Zn216	Zn	0.498192	-0.000270	0.750609
	Zn217	Zn	0.498403	-0.000139	0.251778
	Zn218	Zn	0.750907	0.499772	0.002013
	Zn219	Zn	0.250092	0.500488	0.001032
	Zn220	Zn	-0.000112	0.746645	0.503080
	Zn221	Zn	-0.000820	0.247972	0.503381
	Zn222	Zn	0.000318	0.497479	0.752247
	Zn223	Zn	0.001359	0.499208	0.252456
	Zn224	Zn	0.500027	0.749810	0.000791
	Zn225	Zn	0.499408	0.248537	0.000457
	Zn226	Zn	0.749322	-0.002671	0.501915
	Zn227	Zn	0.249829	-0.002411	0.500954
	N228	N	0.410504	0.963655	0.682176
	N229	N	0.584968	0.035384	0.680215
	N230	N	0.586838	0.963756	0.320579
	N231	N	0.412539	0.034560	0.322560
	N232	N	0.680954	0.412643	0.965585
	N233	N	0.680378	0.586817	0.037117
	N234	N	0.320100	0.587642	0.965460
	N235	N	0.319362	0.412348	0.036796
	N236	N	0.963840	0.674264	0.418893
	N237	N	0.035159	0.679831	0.592472
	N238	N	0.963035	0.318757	0.589730
	N239	N	0.035891	0.317041	0.415470
	N240	N	0.964011	0.410831	0.683001
	N241	N	0.036726	0.583515	0.681750
	N242	N	0.965909	0.585796	0.322257
	N243	N	0.036010	0.409171	0.320142
	N244	N	0.414270	0.679380	0.964604
	N245	N	0.588900	0.681718	0.035618
	N246	N	0.586470	0.319712	0.964218
	N247	N	0.412884	0.318985	0.037099
	N248	N	0.678986	0.961862	0.414969
	N249	N	0.679138	0.034227	0.588128
	N250	N	0.320450	0.961763	0.586856
	N251	N	0.317462	0.032348	0.412013
	N252	N	0.913920	0.463491	0.182621
	N253	N	0.089870	0.534879	0.183972
	N254	N	0.087215	0.462524	0.822531
	N255	N	0.913534	0.534141	0.822249
	N256	N	0.179944	0.909730	0.465631
	N257	N	0.178876	0.083651	0.537982
	N258	N	0.821121	0.082574	0.465404
	N259	N	0.819691	0.910695	0.538182
	N260	N	0.463278	0.179742	0.912882
	N261	N	0.536421	0.175809	0.084334
	N262	N	0.463617	0.818927	0.088593
	N263	N	0.535912	0.821787	0.915263
	N264	N	0.462303	0.912915	0.181480
	N265	N	0.533729	0.087463	0.181814
	N266	N	0.462631	0.086886	0.820035
	N267	N	0.534544	0.913260	0.820973
	N268	N	0.910463	0.179428	0.467785
	N269	N	0.084642	0.176272	0.539135
	N270	N	0.086877	0.816356	0.466541
	N271	N	0.913207	0.817631	0.539021
	N272	N	0.181164	0.464430	0.913755
	N273	N	0.180133	0.536577	0.088109
	N274	N	0.820503	0.463677	0.089539
	N275	N	0.822100	0.535392	0.916388
	O276	O	0.319354	0.351846	0.684597
	H277	H	0.340046	0.359047	0.692082
	H278	H	0.328232	0.384704	0.691385
	O279	O	0.606429	0.497677	0.531717
	H280	H	0.605547	0.513317	0.531220
	H281	H	0.604334	0.500507	0.537557
	O282	O	0.323022	0.677675	0.340489
	H283	H	0.337671	0.651934	0.324606
	H284	H	0.347784	0.664035	0.326204
	O285	O	1.024828	1.204895	0.164143
	H286	H	1.043901	1.199855	0.169317
	H287	H	1.032955	1.219351	0.165797
	O288	O	0.516346	0.291397	0.310455
	H289	H	0.499183	0.289909	0.311850
	H290	H	0.500659	0.283142	0.323950
	O291	O	0.439513	0.582525	0.631871
	H292	H	0.433189	0.588260	0.609938
	H293	H	0.455539	0.601840	0.621619
	O294	O	1.054699	1.033499	1.148256
	H295	H	1.058920	1.037021	1.168086
	H296	H	1.055468	1.024560	1.149754
	O297	O	0.416566	0.295400	0.460753
	H298	H	0.410356	0.305061	0.480398
	H299	H	0.403827	0.290539	0.478165
	O300	O	0.634278	0.327007	0.596706
	H301	H	0.639586	0.346341	0.589083
	H302	H	0.632223	0.316557	0.574811
	O303	O	0.517857	0.504906	0.389370
	H304	H	0.521210	0.501990	0.382986
	H305	H	0.535135	0.486254	0.389893
	O306	O	0.203139	-0.031525	1.029019
	H307	H	0.203031	-0.017204	1.018542
	H308	H	0.201259	-0.046611	1.036450
	O309	O	1.114207	0.175123	0.140749
	H310	H	1.127288	0.183315	0.104137
	H311	H	1.114933	0.136054	0.136499
	O312	O	0.291062	0.287089	0.557618
	H313	H	0.273099	0.269101	0.571814
	H314	H	0.283595	0.299928	0.586123
	O315	O	0.313843	0.500152	0.687306
	H316	H	0.310259	0.511406	0.691541
	H317	H	0.322081	0.521845	0.693963
	O318	O	-0.196933	-0.027937	0.202579
	H319	H	-0.198991	-0.010674	0.204937
	H320	H	-0.192959	-0.005659	0.210154
	O321	O	0.619303	0.467678	0.538778
	H322	H	0.619615	0.469473	0.541597
	H323	H	0.625580	0.473409	0.544129
	O324	O	1.104370	0.205061	0.960015
	H325	H	1.084096	0.207952	0.950946
	H326	H	1.110386	0.218927	0.946311
	O327	O	0.651898	0.300992	0.492502
	H328	H	0.649860	0.299922	0.475656
	H329	H	0.676011	0.295128	0.491705
	O330	O	-0.195884	0.855271	0.985895
	H331	H	-0.197227	0.842066	0.985424
	H332	H	-0.196426	0.842708	1.001991
	O333	O	-0.405796	0.525751	-0.292647
	H334	H	-0.426368	0.534737	-0.291209
	H335	H	-0.413583	0.525019	-0.310221
	O336	O	0.823946	1.085929	0.038502
	H337	H	0.836226	1.100856	0.031831
	H338	H	0.826080	1.057577	0.027851
	O339	O	-0.075536	0.829528	1.006823
	H340	H	-0.082939	0.817179	1.011213
	H341	H	-0.077538	0.831751	1.013991
	O342	O	0.300768	0.700152	0.491397
	H343	H	0.283780	0.719327	0.476538
	H344	H	0.294498	0.703029	0.452672
	O345	O	-0.114124	0.195374	0.800176
	H346	H	-0.131252	0.211442	0.784798
	H347	H	-0.129684	0.180504	0.808055
	O348	O	0.359215	0.489959	0.406913
	H349	H	0.368940	0.471081	0.422805
	H350	H	0.349709	0.501419	0.411744
	O351	O	0.800034	1.054002	-0.174821
	H352	H	0.804643	1.052364	-0.181138
	H353	H	0.788416	1.042218	-0.163055
	O354	O	1.011191	0.804283	0.877782
	H355	H	1.003547	0.808550	0.862631
	H356	H	1.029162	0.801893	0.887167
	O357	O	0.077838	0.037826	-0.133476
	H358	H	0.080661	0.050224	-0.144306
	H359	H	0.073132	0.038502	-0.131155
	O360	O	0.283312	0.498910	0.343186
	H361	H	0.274128	0.491616	0.350215
	H362	H	0.261994	0.488812	0.345641
	O363	O	1.050737	-0.092370	-0.066596
	H364	H	1.049637	-0.087432	-0.063738
	H365	H	1.057077	-0.098617	-0.056545
	O366	O	0.181750	-0.149480	0.819422
	H367	H	0.176775	-0.141202	0.820224
	H368	H	0.173808	-0.139683	0.825042
	O369	O	0.855909	-0.032172	0.903705
	H370	H	0.868878	-0.032910	0.900950
	H371	H	0.846039	-0.047938	0.916405
	O372	O	0.570418	0.668830	0.706733
	H373	H	0.567701	0.674819	0.684941
	H374	H	0.578227	0.689406	0.730240
	O375	O	-0.183197	0.198145	0.932725
	H376	H	-0.182022	0.203699	0.948493
	H377	H	-0.200524	0.187315	0.922687
	O378	O	0.674409	0.299656	0.301930
	H379	H	0.641197	0.306098	0.298217
	H380	H	0.673237	0.276638	0.288600
	O381	O	0.044733	0.968219	0.194693
	H382	H	0.027974	0.945748	0.195089
	H383	H	0.039757	0.965131	0.198870
	O384	O	0.566392	0.704497	0.441759
	H385	H	0.565030	0.703310	0.425096
	H386	H	0.574168	0.698071	0.449561
	O387	O	0.291178	0.538103	0.542495
	H388	H	0.293292	0.553783	0.552185
	H389	H	0.295011	0.545039	0.543751
	O390	O	0.807648	0.806343	0.187339
	H391	H	0.784097	0.808647	0.185217
	H392	H	0.810512	0.839497	0.195223
	O393	O	0.908402	0.127940	1.193550
	H394	H	0.918188	0.127738	1.173511
	H395	H	0.920544	0.131784	1.187376
	O396	O	0.685016	0.679974	0.635805
	H397	H	0.664491	0.670410	0.638674
	H398	H	0.685971	0.655035	0.630606
	O399	O	0.487910	0.290226	0.683542
	H400	H	0.491670	0.285749	0.687236
	H401	H	0.502442	0.280748	0.682780
	O402	O	0.976244	0.802913	0.194281
	H403	H	0.959692	0.794857	0.187438
	H404	H	0.957348	0.788168	0.195996
	O405	O	0.687535	0.504669	0.627785
	H406	H	0.669528	0.482033	0.619040
	H407	H	0.692222	0.510446	0.634449
	O408	O	0.482081	0.682407	0.596358
	H409	H	0.459003	0.679991	0.576245
	H410	H	0.484958	0.684324	0.598578
	O411	O	1.143069	0.913336	1.034579
	H412	H	1.134173	0.887915	1.023650
	H413	H	1.171006	0.908761	1.040600
	O414	O	0.620308	0.530510	0.324262
	H415	H	0.597949	0.497567	0.319634
	H416	H	0.654728	0.513806	0.309444
	O417	O	0.060697	0.893225	1.022261
	H418	H	0.057842	0.889508	1.036096
	H419	H	0.075063	0.904722	1.025118
	O420	O	0.051240	1.123530	1.071314
	H421	H	0.052283	1.121275	1.077550
	H422	H	0.061739	1.135152	1.072738
	O423	O	0.128092	1.115509	-0.114878
	H424	H	0.135336	1.113607	-0.114595
	H425	H	0.118253	1.122061	-0.123719
	O426	O	0.473697	0.700862	0.298557
	H427	H	0.486654	0.713681	0.286576
	H428	H	0.496899	0.673501	0.285306
	O429	O	0.430787	0.441680	0.305891
	H430	H	0.412379	0.434136	0.315315
	H431	H	0.418944	0.448128	0.305702
	O432	O	0.712514	0.432584	0.321580
	H433	H	0.740808	0.433442	0.296761
	H434	H	0.710691	0.406080	0.332627
	O435	O	0.054896	0.043989	-0.114496
	H436	H	0.049221	0.034367	-0.105538
	H437	H	0.049399	0.041415	-0.126684
	O438	O	0.133613	0.855890	0.903275
	H439	H	0.147027	0.856297	0.887419
	H440	H	0.145160	0.843885	0.901497
	O441	O	0.700570	0.704913	0.461126
	H442	H	0.693339	0.707516	0.476072
	H443	H	0.707380	0.709111	0.472613
