data_Molecule from HDF5

_cell_length_a		16.307362
_cell_length_b		16.316938
_cell_length_c		15.967932
_cell_angle_alpha	90.116788
_cell_angle_beta	89.443841
_cell_angle_gamma	89.730501
_symmetry_space_group_name_H-M	'P 1'
_symmetry_Int_Tables_number		1

loop_
	_symmetry_equiv_pos_as_xyz
	x,y,z

loop_
	_atom_site_label
	_atom_site_type_symbol
	_atom_site_fract_x
	_atom_site_fract_y
	_atom_site_fract_z
	H0	H	0.391388	0.841446	0.709403
	H1	H	0.580959	0.170044	0.705279
	H2	H	0.585986	0.842254	0.280028
	H3	H	0.394553	0.170586	0.285088
	H4	H	0.705809	0.406363	0.830032
	H5	H	0.698491	0.604014	0.163756
	H6	H	0.276208	0.607143	0.830016
	H7	H	0.274748	0.406611	0.161016
	H8	H	0.827445	0.724214	0.395417
	H9	H	0.151195	0.724108	0.598793
	H10	H	0.827404	0.288548	0.600522
	H11	H	0.150990	0.286431	0.390456
	H12	H	0.825156	0.410975	0.710565
	H13	H	0.154617	0.599492	0.706082
	H14	H	0.824259	0.600663	0.286560
	H15	H	0.152269	0.406347	0.280592
	H16	H	0.391717	0.718976	0.829287
	H17	H	0.586290	0.721261	0.160680
	H18	H	0.591117	0.292754	0.829197
	H19	H	0.389615	0.294636	0.161172
	H20	H	0.707964	0.842944	0.389536
	H21	H	0.703610	0.167749	0.594672
	H22	H	0.271561	0.843571	0.596909
	H23	H	0.272006	0.167350	0.391732
	H24	H	0.891922	0.340798	0.210351
	H25	H	0.083529	0.669379	0.210600
	H26	H	0.089117	0.341954	0.779822
	H27	H	0.894128	0.670994	0.786402
	H28	H	0.205811	0.903679	0.328163
	H29	H	0.201843	0.105670	0.659861
	H30	H	0.776894	0.106103	0.328118
	H31	H	0.772090	0.905612	0.658940
	H32	H	0.327368	0.226401	0.894098
	H33	H	0.652301	0.222089	0.094395
	H34	H	0.327190	0.788658	0.099801
	H35	H	0.651318	0.787854	0.888739
	H36	H	0.324206	0.912125	0.209076
	H37	H	0.654414	0.101383	0.205885
	H38	H	0.323691	0.104057	0.784195
	H39	H	0.652443	0.908128	0.779062
	H40	H	0.890132	0.221293	0.329763
	H41	H	0.087517	0.219316	0.661464
	H42	H	0.092145	0.789261	0.330592
	H43	H	0.886556	0.793612	0.660456
	H44	H	0.209587	0.343863	0.892104
	H45	H	0.204377	0.668576	0.099101
	H46	H	0.770929	0.343002	0.099681
	H47	H	0.773789	0.667954	0.896398
	H48	H	0.398069	0.122717	0.592503
	H49	H	0.585770	0.888273	0.581584
	H50	H	0.592673	0.124851	0.404519
	H51	H	0.387154	0.885407	0.399018
	H52	H	0.577090	0.408956	0.115428
	H53	H	0.586074	0.601817	0.874682
	H54	H	0.391032	0.594054	0.115268
	H55	H	0.395448	0.414394	0.874303
	H56	H	0.103368	0.593970	0.407249
	H57	H	0.875789	0.595680	0.585269
	H58	H	0.107126	0.420006	0.595886
	H59	H	0.872242	0.412535	0.403824
	H60	H	0.111060	0.397970	0.589574
	H61	H	0.870396	0.600671	0.598832
	H62	H	0.107278	0.597380	0.398561
	H63	H	0.871694	0.409565	0.406735
	H64	H	0.403562	0.596204	0.112745
	H65	H	0.588290	0.594096	0.875948
	H66	H	0.585805	0.412567	0.115819
	H67	H	0.400965	0.417923	0.877889
	H68	H	0.582834	0.124296	0.393742
	H69	H	0.584077	0.887015	0.589303
	H70	H	0.395294	0.119800	0.581249
	H71	H	0.403934	0.888233	0.395897
	H72	H	0.894111	0.623925	0.097942
	H73	H	0.077954	0.393644	0.077660
	H74	H	0.078094	0.620847	0.901632
	H75	H	0.896142	0.387189	0.900213
	H76	H	0.083983	0.918468	0.614146
	H77	H	0.082765	0.094280	0.376353
	H78	H	0.899724	0.094997	0.611392
	H79	H	0.906285	0.922156	0.379941
	H80	H	0.607975	0.106604	0.900623
	H81	H	0.371391	0.103481	0.092970
	H82	H	0.605126	0.912907	0.087739
	H83	H	0.368722	0.901094	0.903457
	H84	H	0.605759	0.908578	0.083138
	H85	H	0.373341	0.105868	0.086882
	H86	H	0.603824	0.098718	0.906764
	H87	H	0.376634	0.914876	0.915522
	H88	H	0.895916	0.102375	0.615112
	H89	H	0.078887	0.096523	0.377074
	H90	H	0.075842	0.916413	0.611959
	H91	H	0.904688	0.904623	0.373455
	H92	H	0.084398	0.620242	0.909475
	H93	H	0.095264	0.386675	0.084816
	H94	H	0.897314	0.619533	0.086540
	H95	H	0.901055	0.390676	0.906685
	H96	H	0.387226	0.124494	0.589004
	H97	H	0.579372	0.889670	0.584005
	H98	H	0.579467	0.120602	0.407176
	H99	H	0.397019	0.891651	0.411656
	H100	H	0.578534	0.418142	0.112921
	H101	H	0.579570	0.596618	0.877291
	H102	H	0.395151	0.605829	0.116923
	H103	H	0.402578	0.411895	0.874970
	H104	H	0.106143	0.603063	0.406717
	H105	H	0.870817	0.609985	0.587200
	H106	H	0.101079	0.412502	0.573857
	H107	H	0.872467	0.413657	0.408056
	H108	H	0.885001	0.623702	0.089100
	H109	H	0.079161	0.386923	0.096898
	H110	H	0.087719	0.624252	0.900588
	H111	H	0.892684	0.389340	0.908031
	H112	H	0.081521	0.910253	0.616118
	H113	H	0.082356	0.098244	0.374984
	H114	H	0.891651	0.095422	0.614299
	H115	H	0.890095	0.915930	0.372348
	H116	H	0.604893	0.095702	0.895437
	H117	H	0.373577	0.099794	0.088718
	H118	H	0.604115	0.914175	0.082666
	H119	H	0.371109	0.918403	0.895853
	C120	C	0.365620	0.014384	0.617248
	C121	C	0.610049	0.996524	0.614362
	C122	C	0.613151	0.014830	0.371663
	C123	C	0.367982	0.996927	0.373753
	C124	C	0.611024	0.384759	0.004623
	C125	C	0.610934	0.626931	0.986344
	C126	C	0.368233	0.627540	0.004883
	C127	C	0.369593	0.386167	0.985947
	C128	C	-0.002321	0.627217	0.375323
	C129	C	0.980303	0.629737	0.618807
	C130	C	-0.001803	0.383053	0.617299
	C131	C	0.979803	0.382430	0.374481
	C132	C	0.865275	0.513941	0.119894
	C133	C	0.111286	0.496786	0.117454
	C134	C	0.112825	0.514194	0.873723
	C135	C	0.868544	0.497203	0.875675
	C136	C	0.110949	0.884714	0.504395
	C137	C	0.109681	0.126205	0.485576
	C138	C	0.867401	0.127119	0.504076
	C139	C	0.869169	0.885628	0.485274
	C140	C	0.497548	0.129159	0.872921
	C141	C	0.480853	0.129543	0.117016
	C142	C	0.497445	0.883781	0.116057
	C143	C	0.480333	0.883519	0.873613
	C144	C	0.369535	0.891108	0.672547
	C145	C	0.604467	0.120383	0.669310
	C146	C	0.608406	0.891262	0.316810
	C147	C	0.372689	0.121058	0.321040
	C148	C	0.667906	0.386327	0.879763
	C149	C	0.662677	0.624497	0.112901
	C150	C	0.313693	0.626336	0.879722
	C151	C	0.313002	0.387321	0.111178
	C152	C	0.875477	0.684167	0.376753
	C153	C	0.103039	0.685066	0.617517
	C154	C	0.875570	0.327729	0.618741
	C155	C	0.102571	0.325806	0.372755
	C156	C	0.874472	0.388762	0.673116
	C157	C	0.104858	0.623181	0.670929
	C158	C	0.873722	0.622852	0.322538
	C159	C	0.103185	0.385285	0.317835
	C160	C	0.371205	0.681973	0.879261
	C161	C	0.606727	0.682639	0.111596
	C162	C	0.610386	0.330160	0.879110
	C163	C	0.370136	0.331417	0.111286
	C164	C	0.669083	0.891823	0.371224
	C165	C	0.665071	0.119370	0.614012
	C166	C	0.310433	0.891879	0.616190
	C167	C	0.311607	0.119344	0.373864
	C168	C	0.869931	0.390252	0.173875
	C169	C	0.105771	0.620184	0.173382
	C170	C	0.110269	0.391021	0.817372
	C171	C	0.872360	0.620986	0.822228
	C172	C	0.167374	0.884974	0.378613
	C173	C	0.164470	0.125306	0.610612
	C174	C	0.813614	0.125903	0.378397
	C175	C	0.811256	0.886896	0.609777
	C176	C	0.375345	0.186572	0.874794
	C177	C	0.603820	0.183685	0.114091
	C178	C	0.375311	0.827830	0.117583
	C179	C	0.602769	0.826983	0.871338
	C180	C	0.373900	0.888915	0.172284
	C181	C	0.604863	0.123968	0.169762
	C182	C	0.373565	0.125660	0.820147
	C183	C	0.603367	0.886933	0.816755
	C184	C	0.870108	0.183074	0.379038
	C185	C	0.107413	0.181866	0.611115
	C186	C	0.110841	0.827801	0.379692
	C187	C	0.868270	0.831041	0.610605
	C188	C	0.170130	0.391962	0.873451
	C189	C	0.165548	0.619801	0.117601
	C190	C	0.809572	0.391449	0.119075
	C191	C	0.812630	0.619698	0.877355
	C192	C	0.387033	0.100179	0.594294
	C193	C	0.589293	0.910643	0.591711
	C194	C	0.591349	0.100928	0.394818
	C195	C	0.389606	0.910654	0.395788
	C196	C	0.587454	0.406708	0.092126
	C197	C	0.590548	0.604371	0.898625
	C198	C	0.390051	0.605091	0.092258
	C199	C	0.392959	0.408308	0.898234
	C200	C	0.083515	0.604683	0.397439
	C201	C	0.894442	0.608628	0.596887
	C202	C	0.084057	0.403948	0.593398
	C203	C	0.894218	0.405079	0.398987
	C204	C	0.886095	0.600111	0.097939
	C205	C	0.090207	0.411315	0.093645
	C206	C	0.090179	0.599768	0.897157
	C207	C	0.890351	0.411262	0.898141
	C208	C	0.087507	0.908361	0.591546
	C209	C	0.087769	0.103129	0.398743
	C210	C	0.889162	0.104128	0.591181
	C211	C	0.893289	0.907766	0.397882
	C212	C	0.583331	0.106642	0.894577
	C213	C	0.395091	0.109085	0.095896
	C214	C	0.582815	0.905622	0.091686
	C215	C	0.394394	0.905165	0.897918
	Zn216	Zn	0.488383	0.005262	0.744983
	Zn217	Zn	0.489233	0.006596	0.245263
	Zn218	Zn	0.738205	0.505487	-0.003157
	Zn219	Zn	0.242127	0.506621	-0.004356
	Zn220	Zn	-0.010888	0.758124	0.496228
	Zn221	Zn	-0.010955	0.254039	0.495276
	Zn222	Zn	-0.010180	0.506094	0.745593
	Zn223	Zn	-0.011081	0.504548	0.246491
	Zn224	Zn	0.489475	0.754095	-0.005968
	Zn225	Zn	0.489290	0.258766	-0.005224
	Zn226	Zn	0.741215	0.005045	0.493315
	Zn227	Zn	0.237873	0.005793	0.493928
	N228	N	0.403011	0.968330	0.673332
	N229	N	0.570819	0.043156	0.669559
	N230	N	0.574579	0.968728	0.316761
	N231	N	0.407209	0.043842	0.320852
	N232	N	0.668069	0.419960	0.958730
	N233	N	0.665641	0.590584	0.033836
	N234	N	0.311772	0.593116	0.958913
	N235	N	0.312767	0.420736	0.032189
	N236	N	0.953605	0.686973	0.408565
	N237	N	0.024797	0.689179	0.585798
	N238	N	0.953435	0.324049	0.584766
	N239	N	0.024841	0.323999	0.407224
	N240	N	0.951804	0.422151	0.672661
	N241	N	0.027670	0.589477	0.671921
	N242	N	0.950825	0.588026	0.321480
	N243	N	0.025947	0.419910	0.318869
	N244	N	0.404588	0.682873	0.958058
	N245	N	0.575423	0.684138	0.031911
	N246	N	0.575630	0.329140	0.957897
	N247	N	0.404723	0.330576	0.032337
	N248	N	0.672123	0.969823	0.404432
	N249	N	0.668807	0.041420	0.580748
	N250	N	0.307598	0.969605	0.582850
	N251	N	0.308550	0.041141	0.405960
	N252	N	0.903577	0.467356	0.174730
	N253	N	0.072653	0.542798	0.173416
	N254	N	0.075121	0.467952	0.817564
	N255	N	0.906671	0.543810	0.821235
	N256	N	0.167703	0.919648	0.457317
	N257	N	0.166094	0.091278	0.531787
	N258	N	0.812019	0.091620	0.457018
	N259	N	0.811725	0.920113	0.530753
	N260	N	0.453300	0.188837	0.906905
	N261	N	0.525855	0.187444	0.081995
	N262	N	0.453263	0.824428	0.083569
	N263	N	0.525071	0.824754	0.906160
	N264	N	0.450907	0.923042	0.171750
	N265	N	0.527546	0.090793	0.171811
	N266	N	0.450463	0.090513	0.818861
	N267	N	0.526380	0.921451	0.818007
	N268	N	0.903047	0.183982	0.457999
	N269	N	0.073972	0.182515	0.532402
	N270	N	0.076340	0.827538	0.458731
	N271	N	0.903896	0.830339	0.532177
	N272	N	0.171577	0.469394	0.907896
	N273	N	0.169318	0.542219	0.083629
	N274	N	0.806636	0.469312	0.086053
	N275	N	0.810105	0.541708	0.910044
	O276	O	0.083997	-0.119218	-0.099136
	H277	H	0.089418	-0.115045	-0.093334
	H278	H	0.071889	-0.126040	-0.111419
	O279	O	0.501376	0.484001	0.387040
	H280	H	0.497681	0.493952	0.382858
	H281	H	0.499337	0.482466	0.382895
	O282	O	0.501727	0.465868	0.543316
	H283	H	0.489893	0.461514	0.537890
	H284	H	0.501555	0.469229	0.543029
	O285	O	-0.043545	1.050678	0.972362
	H286	H	-0.053369	1.057371	0.967634
	H287	H	-0.049607	1.062879	0.981544
	O288	O	0.541079	0.513919	0.452700
	H289	H	0.535919	0.523070	0.458397
	H290	H	0.532070	0.511698	0.444955
	O291	O	1.009320	0.861142	0.955320
	H292	H	1.017882	0.865800	0.951463
	H293	H	1.006033	0.851338	0.944333
	O294	O	0.923584	1.007510	1.040202
	H295	H	0.929898	1.006990	1.050107
	H296	H	0.917841	1.010127	1.042054
	O297	O	0.998614	0.016358	1.105626
	H298	H	0.998829	0.017649	1.111580
	H299	H	0.992565	0.027852	1.106561
	O300	O	0.459499	0.424238	0.430296
	H301	H	0.456370	0.422405	0.428854
	H302	H	0.463623	0.426784	0.435708
	O303	O	0.991744	0.064647	0.007725
	H304	H	0.998762	0.066606	-0.007010
	H305	H	0.995985	0.070611	0.004019
	O306	O	-0.101547	1.054191	0.903393
	H307	H	-0.100357	1.072600	0.911518
	H308	H	-0.096207	1.066256	0.904615
	O309	O	1.087026	1.071285	0.887512
	H310	H	1.102529	1.063746	0.872944
	H311	H	1.086838	1.063212	0.891387
	O312	O	0.914239	-0.038653	1.104406
	H313	H	0.913622	-0.034090	1.105053
	H314	H	0.910652	-0.061673	1.097780
	O315	O	0.482240	0.485614	0.467400
	H316	H	0.471360	0.490756	0.463294
	H317	H	0.488461	0.480633	0.468922
	O318	O	0.449446	0.497143	0.452240
	H319	H	0.454016	0.500999	0.453983
	H320	H	0.453086	0.500580	0.448320
	O321	O	0.933839	1.106648	1.050306
	H322	H	0.932689	1.110880	1.060948
	H323	H	0.941494	1.108253	1.048637
	O324	O	1.098219	-0.090904	-0.032396
	H325	H	1.096223	-0.080967	-0.033802
	H326	H	1.091548	-0.093728	-0.039858
	O327	O	0.455817	0.509848	0.489239
	H328	H	0.460407	0.497404	0.485827
	H329	H	0.454642	0.494814	0.494748
	O330	O	1.038769	0.045866	1.018473
	H331	H	1.029666	0.043809	1.018261
	H332	H	1.049138	0.039093	1.012038
	O333	O	0.824420	0.977299	-0.054868
	H334	H	0.814040	0.968253	-0.051475
	H335	H	0.827032	0.994831	-0.055839
	O336	O	0.458932	0.472751	0.497090
	H337	H	0.465225	0.466355	0.493472
	H338	H	0.467558	0.474535	0.498456
	O339	O	0.485652	0.476102	0.448159
	H340	H	0.489720	0.477064	0.444332
	H341	H	0.486292	0.469086	0.440916
	O342	O	-0.024283	1.024805	-0.033382
	H343	H	-0.033849	1.026415	-0.041396
	H344	H	-0.041902	1.028325	-0.042401
	O345	O	0.041175	0.053388	0.024103
	H346	H	0.054949	0.052748	0.025267
	H347	H	0.048226	0.056904	0.011636
	O348	O	0.927632	-0.085434	1.132748
	H349	H	0.919073	-0.099344	1.144970
	H350	H	0.923510	-0.082753	1.129818
	O351	O	0.079732	0.926232	0.948374
	H352	H	0.072905	0.925507	0.953352
	H353	H	0.095112	0.908556	0.949765
	O354	O	0.500828	0.491502	0.523001
	H355	H	0.501911	0.496767	0.517135
	H356	H	0.503987	0.502846	0.521933
	O357	O	1.071619	0.033918	-0.086857
	H358	H	1.068266	0.035045	-0.093056
	H359	H	1.082048	0.027238	-0.086557
	O360	O	0.054682	0.084957	0.072668
	H361	H	0.052463	0.076674	0.079054
	H362	H	0.053206	0.074979	0.071101
	O363	O	0.432521	0.589517	0.487757
	H364	H	0.422379	0.592362	0.491339
	H365	H	0.428229	0.589027	0.487742
	O366	O	-0.044214	-0.079288	0.930122
	H367	H	-0.051819	-0.079185	0.939203
	H368	H	-0.045112	-0.077783	0.931960
	O369	O	0.462455	0.564646	0.554658
	H370	H	0.462554	0.554799	0.548016
	H371	H	0.458064	0.555917	0.559285
