data_Molecule from HDF5

_cell_length_a		16.464334
_cell_length_b		16.462356
_cell_length_c		16.310026
_cell_angle_alpha	89.956322
_cell_angle_beta	90.042141
_cell_angle_gamma	90.004787
_symmetry_space_group_name_H-M	'P 1'
_symmetry_Int_Tables_number		1

loop_
	_symmetry_equiv_pos_as_xyz
	x,y,z

loop_
	_atom_site_label
	_atom_site_type_symbol
	_atom_site_fract_x
	_atom_site_fract_y
	_atom_site_fract_z
	H0	H	0.384696	0.837598	0.738189
	H1	H	0.596444	0.152275	0.738888
	H2	H	0.596242	0.836075	0.294896
	H3	H	0.386057	0.152469	0.295266
	H4	H	0.712665	0.387440	0.856580
	H5	H	0.714633	0.604609	0.172307
	H6	H	0.270318	0.600085	0.855062
	H7	H	0.266128	0.386897	0.171741
	H8	H	0.834491	0.722091	0.403566
	H9	H	0.145714	0.720031	0.625231
	H10	H	0.832203	0.270592	0.624447
	H11	H	0.145765	0.271746	0.407860
	H12	H	0.832491	0.386428	0.739623
	H13	H	0.146200	0.602109	0.739778
	H14	H	0.832795	0.604496	0.289746
	H15	H	0.146593	0.390032	0.293295
	H16	H	0.384972	0.716873	0.856674
	H17	H	0.598349	0.718221	0.173732
	H18	H	0.600703	0.268169	0.858469
	H19	H	0.382456	0.271317	0.172725
	H20	H	0.716980	0.838424	0.405964
	H21	H	0.716267	0.150907	0.626637
	H22	H	0.263896	0.839737	0.627981
	H23	H	0.268348	0.152370	0.410905
	H24	H	0.884401	0.337459	0.236338
	H25	H	0.097502	0.652077	0.238371
	H26	H	0.095330	0.336918	0.792908
	H27	H	0.882781	0.652662	0.791539
	H28	H	0.212856	0.888285	0.358617
	H29	H	0.212717	0.103449	0.674431
	H30	H	0.766592	0.101831	0.358439
	H31	H	0.766630	0.886112	0.674296
	H32	H	0.333476	0.219789	0.905880
	H33	H	0.645941	0.219828	0.126830
	H34	H	0.332044	0.772251	0.122277
	H35	H	0.646608	0.769918	0.906628
	H36	H	0.331030	0.890013	0.236866
	H37	H	0.647996	0.098653	0.238311
	H38	H	0.333168	0.102299	0.791358
	H39	H	0.648244	0.887743	0.792754
	H40	H	0.885272	0.213895	0.355256
	H41	H	0.097442	0.219943	0.673464
	H42	H	0.098966	0.771979	0.358163
	H43	H	0.878587	0.767737	0.671947
	H44	H	0.213836	0.337608	0.905205
	H45	H	0.213902	0.651769	0.122041
	H46	H	0.764096	0.340138	0.124409
	H47	H	0.763436	0.651100	0.903395
	H48	H	0.400090	0.106079	0.600091
	H49	H	0.578391	0.881411	0.605105
	H50	H	0.581288	0.106120	0.431170
	H51	H	0.400424	0.879885	0.425544
	H52	H	0.572268	0.409011	0.126210
	H53	H	0.576755	0.584525	0.901545
	H54	H	0.402023	0.579563	0.127042
	H55	H	0.405556	0.406189	0.901316
	H56	H	0.101817	0.585779	0.430279
	H57	H	0.880812	0.578106	0.599724
	H58	H	0.100909	0.408433	0.601468
	H59	H	0.876562	0.404898	0.429259
	H60	H	0.101629	0.407627	0.603541
	H61	H	0.876288	0.581231	0.604913
	H62	H	0.100101	0.580331	0.429243
	H63	H	0.876058	0.408086	0.423956
	H64	H	0.404099	0.585573	0.128831
	H65	H	0.577163	0.580369	0.902673
	H66	H	0.577604	0.405319	0.128562
	H67	H	0.401689	0.405823	0.899800
	H68	H	0.577903	0.107488	0.426486
	H69	H	0.576248	0.884180	0.602309
	H70	H	0.398935	0.109040	0.604224
	H71	H	0.402559	0.882608	0.430276
	H72	H	0.904873	0.608157	0.105756
	H73	H	0.073907	0.381842	0.107738
	H74	H	0.081193	0.606310	0.932035
	H75	H	0.900458	0.383359	0.926723
	H76	H	0.081227	0.905806	0.631817
	H77	H	0.076993	0.082859	0.403045
	H78	H	0.911011	0.076034	0.623789
	H79	H	0.904672	0.909430	0.403817
	H80	H	0.596978	0.072629	0.930650
	H81	H	0.377689	0.077654	0.108111
	H82	H	0.603594	0.904062	0.106453
	H83	H	0.376782	0.901059	0.929461
	H84	H	0.602474	0.904400	0.103250
	H85	H	0.374493	0.089074	0.106391
	H86	H	0.605893	0.084508	0.920670
	H87	H	0.380350	0.909316	0.931799
	H88	H	0.906455	0.094242	0.632666
	H89	H	0.078523	0.085211	0.401972
	H90	H	0.075463	0.913563	0.626715
	H91	H	0.903233	0.908836	0.402935
	H92	H	0.082266	0.608906	0.924570
	H93	H	0.076319	0.385530	0.096770
	H94	H	0.906005	0.605359	0.096932
	H95	H	0.902679	0.383624	0.929705
	H96	H	0.403790	0.107421	0.604533
	H97	H	0.580525	0.883350	0.601247
	H98	H	0.575123	0.104719	0.431362
	H99	H	0.396533	0.880503	0.430213
	H100	H	0.578441	0.411744	0.127228
	H101	H	0.573392	0.582445	0.903586
	H102	H	0.398058	0.583679	0.130721
	H103	H	0.402435	0.409334	0.901569
	H104	H	0.102190	0.583541	0.424955
	H105	H	0.878242	0.585156	0.598632
	H106	H	0.100630	0.406014	0.601949
	H107	H	0.873660	0.402499	0.424086
	H108	H	0.896869	0.609293	0.099210
	H109	H	0.084770	0.380194	0.103312
	H110	H	0.075232	0.606353	0.926780
	H111	H	0.899393	0.382509	0.929907
	H112	H	0.070822	0.904109	0.629605
	H113	H	0.080027	0.082407	0.401997
	H114	H	0.891802	0.079145	0.631572
	H115	H	0.902940	0.910255	0.403733
	H116	H	0.601378	0.088589	0.937370
	H117	H	0.380533	0.082860	0.097602
	H118	H	0.602434	0.906784	0.105354
	H119	H	0.376670	0.908501	0.923440
	C120	C	0.367845	0.003899	0.638041
	C121	C	0.612307	0.986203	0.637598
	C122	C	0.611589	0.002630	0.395726
	C123	C	0.368031	0.985950	0.395537
	C124	C	0.611043	0.373805	0.023498
	C125	C	0.610474	0.616444	1.006959
	C126	C	0.368996	0.615682	0.023676
	C127	C	0.369179	0.373344	1.005491
	C128	C	-0.001853	0.617405	0.393376
	C129	C	0.981157	0.616326	0.636501
	C130	C	-0.002410	0.373655	0.636594
	C131	C	0.979853	0.373041	0.393088
	C132	C	0.868745	0.504221	0.135125
	C133	C	0.112169	0.485996	0.136371
	C134	C	0.111589	0.502880	0.893748
	C135	C	0.867576	0.486687	0.893681
	C136	C	0.110599	0.874076	0.525010
	C137	C	0.111270	0.116860	0.507284
	C138	C	0.869053	0.116008	0.524689
	C139	C	0.868652	0.873873	0.507254
	C140	C	0.498281	0.116013	0.894722
	C141	C	0.481385	0.116055	0.137779
	C142	C	0.498673	0.872423	0.138089
	C143	C	0.481947	0.873547	0.894812
	C144	C	0.365541	0.885513	0.699110
	C145	C	0.615279	0.104773	0.699167
	C146	C	0.614913	0.883780	0.334580
	C147	C	0.367006	0.104839	0.335107
	C148	C	0.672777	0.369780	0.904494
	C149	C	0.673264	0.621241	0.125305
	C150	C	0.309714	0.618148	0.903304
	C151	C	0.306978	0.369285	0.124398
	C152	C	0.880840	0.680451	0.387460
	C153	C	0.098618	0.678877	0.642033
	C154	C	0.879549	0.311704	0.641307
	C155	C	0.098584	0.312157	0.389979
	C156	C	0.879592	0.369620	0.698872
	C157	C	0.098910	0.620241	0.699229
	C158	C	0.880127	0.621420	0.330843
	C159	C	0.099037	0.370853	0.332829
	C160	C	0.366667	0.676458	0.904229
	C161	C	0.615579	0.678359	0.125908
	C162	C	0.616910	0.310090	0.905679
	C163	C	0.364827	0.311804	0.124921
	C164	C	0.674704	0.884960	0.390421
	C165	C	0.675225	0.103788	0.643370
	C166	C	0.305514	0.886429	0.643668
	C167	C	0.308636	0.105088	0.392921
	C168	C	0.865914	0.385056	0.196173
	C169	C	0.115533	0.604557	0.197827
	C170	C	0.113687	0.384231	0.832725
	C171	C	0.864331	0.604789	0.831368
	C172	C	0.172878	0.870367	0.406309
	C173	C	0.172425	0.120857	0.626570
	C174	C	0.807269	0.119303	0.405501
	C175	C	0.806618	0.868945	0.626224
	C176	C	0.380600	0.178696	0.889291
	C177	C	0.599175	0.178202	0.143103
	C178	C	0.379663	0.811964	0.140888
	C179	C	0.600024	0.811705	0.890371
	C180	C	0.379093	0.870677	0.197891
	C181	C	0.600213	0.118122	0.198953
	C182	C	0.380356	0.120195	0.832054
	C183	C	0.600493	0.870051	0.833101
	C184	C	0.866100	0.175374	0.404151
	C185	C	0.115103	0.178978	0.626124
	C186	C	0.115544	0.812612	0.405958
	C187	C	0.862616	0.809731	0.625059
	C188	C	0.172877	0.384782	0.888945
	C189	C	0.173600	0.604488	0.139889
	C190	C	0.805859	0.386428	0.140581
	C191	C	0.805024	0.604403	0.887626
	C192	C	0.393675	0.086106	0.610826
	C193	C	0.585936	0.904500	0.610825
	C194	C	0.585487	0.084639	0.422083
	C195	C	0.392728	0.902618	0.421266
	C196	C	0.583871	0.401011	0.105787
	C197	C	0.583643	0.590059	0.924288
	C198	C	0.394254	0.590166	0.107203
	C199	C	0.395753	0.399448	0.922519
	C200	C	0.079907	0.590840	0.420478
	C201	C	0.899650	0.589291	0.609033
	C202	C	0.079743	0.399743	0.609901
	C203	C	0.897135	0.398073	0.418336
	C204	C	0.894980	0.586114	0.108395
	C205	C	0.086073	0.404086	0.110130
	C206	C	0.086585	0.585588	0.920159
	C207	C	0.893481	0.404695	0.920954
	C208	C	0.083438	0.900268	0.607712
	C209	C	0.085648	0.090786	0.423993
	C210	C	0.895421	0.090417	0.607658
	C211	C	0.895870	0.901558	0.425002
	C212	C	0.580190	0.089420	0.921795
	C213	C	0.399193	0.090556	0.111423
	C214	C	0.581228	0.897817	0.112445
	C215	C	0.399573	0.898930	0.920951
	Zn216	Zn	0.490494	-0.005383	0.765842
	Zn217	Zn	0.490163	-0.006289	0.266717
	Zn218	Zn	0.738741	0.496287	0.014822
	Zn219	Zn	0.241001	0.494531	0.013807
	Zn220	Zn	-0.010454	0.745721	0.515218
	Zn221	Zn	-0.010776	0.244833	0.515400
	Zn222	Zn	-0.010397	0.494422	0.765634
	Zn223	Zn	-0.010770	0.495450	0.264712
	Zn224	Zn	0.489795	0.744459	0.015782
	Zn225	Zn	0.490061	0.245074	0.015599
	Zn226	Zn	0.740769	-0.005098	0.516314
	Zn227	Zn	0.238808	-0.004909	0.517155
	N228	N	0.403564	0.959654	0.695647
	N229	N	0.577077	0.030698	0.695852
	N230	N	0.576254	0.957625	0.337769
	N231	N	0.403185	0.029544	0.336767
	N232	N	0.669413	0.408583	0.979064
	N233	N	0.670273	0.583660	0.050250
	N234	N	0.311102	0.581101	0.978731
	N235	N	0.309492	0.406660	0.049126
	N236	N	0.955060	0.677893	0.425618
	N237	N	0.024289	0.676613	0.603753
	N238	N	0.953865	0.314188	0.603111
	N239	N	0.023452	0.313459	0.426707
	N240	N	0.954007	0.407567	0.695958
	N241	N	0.024745	0.582249	0.696138
	N242	N	0.954202	0.582744	0.334372
	N243	N	0.024285	0.407835	0.334571
	N244	N	0.402865	0.674981	0.980044
	N245	N	0.577244	0.675569	0.051114
	N246	N	0.579331	0.312408	0.980734
	N247	N	0.402700	0.314289	0.049942
	N248	N	0.672776	0.959946	0.427787
	N249	N	0.673671	0.029015	0.606010
	N250	N	0.306743	0.961297	0.606407
	N251	N	0.309212	0.029849	0.429509
	N252	N	0.904228	0.458979	0.192939
	N253	N	0.078081	0.530100	0.196039
	N254	N	0.076239	0.458891	0.835583
	N255	N	0.902708	0.530695	0.835186
	N256	N	0.170056	0.907687	0.481582
	N257	N	0.170033	0.082937	0.551686
	N258	N	0.808700	0.083333	0.481521
	N259	N	0.810578	0.908247	0.551979
	N260	N	0.455079	0.176353	0.927443
	N261	N	0.524359	0.177025	0.105764
	N262	N	0.455115	0.812500	0.104792
	N263	N	0.525355	0.813888	0.928071
	N264	N	0.454112	0.907094	0.196548
	N265	N	0.525989	0.080134	0.195947
	N266	N	0.454479	0.082193	0.835294
	N267	N	0.526234	0.908116	0.835933
	N268	N	0.903544	0.173680	0.479344
	N269	N	0.077706	0.176569	0.550802
	N270	N	0.077490	0.814859	0.480857
	N271	N	0.900429	0.812760	0.549937
	N272	N	0.171857	0.459716	0.925810
	N273	N	0.171864	0.529712	0.102538
	N274	N	0.807353	0.461530	0.103502
	N275	N	0.806807	0.529899	0.925466
	O276	O	0.305049	0.675179	0.332262
	H277	H	0.297574	0.686256	0.383209
	H278	H	0.332222	0.665907	0.323177
	O279	O	1.183356	-0.100193	0.823436
	H280	H	1.188348	-0.068031	0.832175
	H281	H	1.180462	-0.096229	0.803971
	O282	O	-0.141941	1.171472	0.974940
	H283	H	-0.142046	1.170650	0.974302
	H284	H	-0.137364	1.172709	0.972726
	O285	O	0.163414	0.864190	-0.061169
	H286	H	0.129123	0.852391	-0.071937
	H287	H	0.177067	0.888015	-0.055306
	O288	O	1.496553	1.448259	-0.369240
	H289	H	1.487597	1.432679	-0.381505
	H290	H	1.485196	1.437272	-0.376390
	O291	O	0.584646	0.306675	0.560188
	H292	H	0.570106	0.302068	0.583021
	H293	H	0.560028	0.306687	0.550970
	O294	O	-0.111559	0.181560	0.826549
	H295	H	-0.118435	0.162952	0.824282
	H296	H	-0.083994	0.182978	0.821475
	O297	O	0.434479	0.438744	0.294858
	H298	H	0.451567	0.464067	0.295349
	H299	H	0.407697	0.458177	0.294144
	O300	O	0.959554	0.780621	0.896694
	H301	H	0.951587	0.774605	0.930528
	H302	H	0.963845	0.779236	0.890508
	O303	O	0.703445	0.563901	0.465297
	H304	H	0.705641	0.561149	0.455191
	H305	H	0.703188	0.542691	0.466394
	O306	O	0.548693	0.559786	0.313693
	H307	H	0.555670	0.571805	0.315825
	H308	H	0.573238	0.557745	0.310600
	O309	O	1.051938	-0.125416	0.134800
	H310	H	1.067241	-0.125921	0.148438
	H311	H	1.052230	-0.141192	0.146392
	O312	O	-0.221114	1.211752	0.999452
	H313	H	-0.247429	1.223106	0.999342
	H314	H	-0.227022	1.204658	0.979323
	O315	O	0.424110	0.551925	0.546960
	H316	H	0.417881	0.571821	0.561655
	H317	H	0.451704	0.549114	0.533606
	O318	O	0.944213	-0.136108	-0.107242
	H319	H	0.939704	-0.152943	-0.120668
	H320	H	0.930711	-0.144913	-0.091676
	O321	O	0.237260	0.265367	-0.232187
	H322	H	0.239820	0.292306	-0.223427
	H323	H	0.223270	0.275417	-0.226969
	O324	O	0.706053	0.279827	0.490117
	H325	H	0.699758	0.258376	0.504471
	H326	H	0.704717	0.256749	0.486826
	O327	O	0.705632	0.476913	0.299982
	H328	H	0.716213	0.450665	0.289989
	H329	H	0.716260	0.460140	0.293635
	O330	O	0.186030	1.188384	0.207737
	H331	H	0.191303	1.197899	0.209746
	H332	H	0.156456	1.194553	0.205884
	O333	O	0.277021	0.470093	0.521133
	H334	H	0.272630	0.493960	0.500164
	H335	H	0.287943	0.495993	0.536271
	O336	O	-0.059604	0.099729	0.047100
	H337	H	-0.041324	0.093547	0.047224
	H338	H	-0.059553	0.079792	0.057240
	O339	O	-0.176337	0.901312	0.046021
	H340	H	-0.181616	0.925159	0.051135
	H341	H	-0.168101	0.909951	0.020214
	O342	O	-0.150356	1.041171	1.123654
	H343	H	-0.146159	1.037317	1.099311
	H344	H	-0.139393	1.043502	1.130772
	O345	O	0.342930	0.515244	-0.361606
	H346	H	0.373050	0.510663	-0.343201
	H347	H	0.338534	0.529871	-0.377608
	O348	O	0.513213	0.288723	0.312254
	H349	H	0.496689	0.305228	0.305501
	H350	H	0.505871	0.286053	0.300929
	O351	O	0.447406	1.283428	1.477711
	H352	H	0.442267	1.280226	1.470475
	H353	H	0.447598	1.297408	1.482518
	O354	O	0.495052	0.687462	-0.287309
	H355	H	0.503057	0.715077	-0.274619
	H356	H	0.530702	0.661100	-0.296994
	O357	O	-0.037208	-0.222316	1.025732
	H358	H	-0.027399	-0.219506	1.027046
	H359	H	-0.029315	-0.222903	1.048687
	O360	O	0.310937	0.309848	0.696249
	H361	H	0.299819	0.312874	0.654995
	H362	H	0.296878	0.348117	0.698050
	O363	O	0.103101	0.086250	0.892964
	H364	H	0.099910	0.102807	0.905680
	H365	H	0.098304	0.073926	0.902193
	O366	O	0.676270	0.310634	0.324990
	H367	H	0.649468	0.298159	0.314390
	H368	H	0.671851	0.300744	0.362045
	O369	O	0.678109	0.501895	0.717039
	H370	H	0.697923	0.498056	0.735262
	H371	H	0.664591	0.479651	0.697930
	O372	O	0.785442	0.030293	1.193408
	H373	H	0.807497	0.043026	1.194567
	H374	H	0.776075	0.031879	1.202954
	O375	O	0.278637	0.705820	0.494666
	H376	H	0.292645	0.714615	0.513653
	H377	H	0.270987	0.733577	0.507777
	O378	O	0.705930	0.449824	0.593982
	H379	H	0.708418	0.432382	0.586596
	H380	H	0.696972	0.438039	0.590259
	O381	O	0.364242	0.707619	0.639582
	H382	H	0.382733	0.711102	0.629592
	H383	H	0.378316	0.702583	0.677878
	O384	O	0.282999	0.291062	0.529869
	H385	H	0.272373	0.278881	0.520156
	H386	H	0.284388	0.303883	0.513608
	O387	O	0.018198	0.200575	1.221138
	H388	H	-0.002808	0.212812	1.192893
	H389	H	0.021271	0.218393	1.241361
	O390	O	0.197925	-0.030130	0.125966
	H391	H	0.202933	-0.020290	0.144587
	H392	H	0.205605	-0.035810	0.120049
	O393	O	0.971986	1.193276	0.921483
	H394	H	0.981720	1.182532	0.926049
	H395	H	0.966298	1.207525	0.919857
	O396	O	1.186198	0.210807	0.026658
	H397	H	1.176768	0.190982	0.034833
	H398	H	1.215781	0.238522	0.031050
	O399	O	1.159022	0.087171	0.974882
	H400	H	1.161283	0.062874	0.987855
	H401	H	1.160919	0.089578	0.987523
	O402	O	0.976833	0.789566	1.225058
	H403	H	0.940368	0.803241	1.221318
	H404	H	0.971152	0.764129	1.248465
	O405	O	1.289889	1.343130	0.366479
	H406	H	1.293992	1.344060	0.370319
	H407	H	1.305328	1.364005	0.384224
	O408	O	0.465069	-0.289195	0.302447
	H409	H	0.467859	-0.272603	0.276921
	H410	H	0.460655	-0.288556	0.307126
	O411	O	0.927095	0.938958	-0.202133
	H412	H	0.947093	0.934745	-0.198872
	H413	H	0.927903	0.918480	-0.204109
	O414	O	0.536398	0.708409	0.466819
	H415	H	0.546295	0.709728	0.475443
	H416	H	0.546889	0.707277	0.447894
	O417	O	0.775188	0.011481	0.804569
	H418	H	0.798635	0.017107	0.802890
	H419	H	0.753372	0.009111	0.769520
	O420	O	0.020179	-0.026014	0.145226
	H421	H	0.013184	-0.036597	0.144427
	H422	H	0.028973	-0.033690	0.154512
	O423	O	0.664614	0.678016	0.695832
	H424	H	0.675144	0.628647	0.704503
	H425	H	0.654533	0.684951	0.666793
	O426	O	0.520972	0.536164	0.548773
	H427	H	0.533056	0.545155	0.543084
	H428	H	0.511565	0.527322	0.549280
	O429	O	0.049861	1.053167	-0.130553
	H430	H	0.054526	1.038561	-0.141606
	H431	H	0.051111	1.066261	-0.110152
	O432	O	0.440906	0.519571	0.702171
	H433	H	0.460501	0.531060	0.714223
	H434	H	0.449385	0.520786	0.692512
	O435	O	0.704670	0.709359	0.531463
	H436	H	0.722794	0.690720	0.521632
	H437	H	0.724114	0.724413	0.551139
	O438	O	-0.185534	-0.125542	0.193324
	H439	H	-0.183754	-0.129661	0.164882
	H440	H	-0.200210	-0.087517	0.187825
	O441	O	1.478734	0.278288	-0.288068
	H442	H	1.464881	0.253956	-0.262676
	H443	H	1.440970	0.281503	-0.290444
	O444	O	0.122291	1.046639	1.210566
	H445	H	0.145298	1.048236	1.224099
	H446	H	0.130344	1.064439	1.211251
	O447	O	1.180403	0.788029	0.011567
	H448	H	1.191468	0.777755	-0.012601
	H449	H	1.174755	0.795028	-0.006459
	O450	O	0.778012	-0.158397	0.034931
	H451	H	0.757428	-0.160265	0.034515
	H452	H	0.776762	-0.153553	0.022408
	O453	O	0.277626	0.514841	0.303040
	H454	H	0.269679	0.531720	0.298795
	H455	H	0.262030	0.528063	0.300341
