data_Molecule from HDF5

_cell_length_a		16.615054
_cell_length_b		16.673364
_cell_length_c		16.576681
_cell_angle_alpha	90.025032
_cell_angle_beta	89.930812
_cell_angle_gamma	89.892787
_symmetry_space_group_name_H-M	'P 1'
_symmetry_Int_Tables_number		1

loop_
	_symmetry_equiv_pos_as_xyz
	x,y,z

loop_
	_atom_site_label
	_atom_site_type_symbol
	_atom_site_fract_x
	_atom_site_fract_y
	_atom_site_fract_z
	H0	H	0.374375	0.834542	0.723456
	H1	H	0.590353	0.139580	0.720140
	H2	H	0.590569	0.831476	0.273159
	H3	H	0.380651	0.141696	0.277425
	H4	H	0.705391	0.380422	0.840494
	H5	H	0.704178	0.590415	0.151942
	H6	H	0.260793	0.592375	0.843406
	H7	H	0.265395	0.383460	0.155297
	H8	H	0.827064	0.705414	0.393870
	H9	H	0.140756	0.705426	0.601212
	H10	H	0.832044	0.259762	0.606933
	H11	H	0.137510	0.261312	0.387300
	H12	H	0.830644	0.376752	0.722028
	H13	H	0.140135	0.589463	0.717060
	H14	H	0.826162	0.587695	0.279682
	H15	H	0.137710	0.379020	0.273556
	H16	H	0.374557	0.710549	0.844139
	H17	H	0.590737	0.709029	0.151147
	H18	H	0.589239	0.263924	0.840385
	H19	H	0.381272	0.267426	0.155191
	H20	H	0.706040	0.830892	0.389920
	H21	H	0.708221	0.138023	0.605038
	H22	H	0.262678	0.830786	0.603735
	H23	H	0.260919	0.139307	0.390857
	H24	H	0.875375	0.332471	0.220763
	H25	H	0.087102	0.640664	0.218117
	H26	H	0.093378	0.332898	0.771600
	H27	H	0.877309	0.640364	0.774108
	H28	H	0.203225	0.882244	0.340554
	H29	H	0.209735	0.094649	0.649800
	H30	H	0.759684	0.095210	0.343498
	H31	H	0.760528	0.880319	0.651107
	H32	H	0.330117	0.210821	0.888506
	H33	H	0.640555	0.205818	0.099894
	H34	H	0.332127	0.759931	0.108599
	H35	H	0.634601	0.757232	0.883416
	H36	H	0.329649	0.881316	0.218745
	H37	H	0.640748	0.089300	0.215831
	H38	H	0.330264	0.095602	0.771998
	H39	H	0.634885	0.874314	0.768724
	H40	H	0.876101	0.209569	0.342979
	H41	H	0.095384	0.212419	0.648391
	H42	H	0.085351	0.767799	0.339430
	H43	H	0.878947	0.765612	0.652699
	H44	H	0.208676	0.332197	0.888877
	H45	H	0.207209	0.637889	0.106064
	H46	H	0.759647	0.331684	0.103926
	H47	H	0.760065	0.639748	0.889873
	H48	H	0.395653	0.096889	0.584631
	H49	H	0.562193	0.879213	0.580460
	H50	H	0.579769	0.100735	0.403568
	H51	H	0.401455	0.876742	0.408337
	H52	H	0.569950	0.397663	0.107295
	H53	H	0.573446	0.570399	0.885582
	H54	H	0.397343	0.572422	0.108333
	H55	H	0.398093	0.393843	0.886120
	H56	H	0.095466	0.579038	0.412784
	H57	H	0.871947	0.575527	0.587218
	H58	H	0.092486	0.394463	0.573240
	H59	H	0.873739	0.401972	0.407358
	H60	H	0.090221	0.409554	0.583196
	H61	H	0.872073	0.576854	0.585283
	H62	H	0.094449	0.569994	0.405257
	H63	H	0.870024	0.392976	0.408475
	H64	H	0.397076	0.573078	0.108101
	H65	H	0.566612	0.571438	0.887510
	H66	H	0.571766	0.392239	0.109111
	H67	H	0.391426	0.395939	0.883574
	H68	H	0.566364	0.095577	0.402756
	H69	H	0.575442	0.875797	0.576341
	H70	H	0.398430	0.095123	0.583132
	H71	H	0.389676	0.873739	0.411198
	H72	H	0.895448	0.596379	0.086902
	H73	H	0.071021	0.373905	0.084935
	H74	H	0.067857	0.593273	0.912837
	H75	H	0.894666	0.374879	0.908129
	H76	H	0.078649	0.891560	0.611753
	H77	H	0.073379	0.067724	0.387012
	H78	H	0.892957	0.068369	0.606582
	H79	H	0.895147	0.894083	0.384394
	H80	H	0.595051	0.074582	0.909611
	H81	H	0.369788	0.081817	0.090262
	H82	H	0.595524	0.897856	0.084098
	H83	H	0.375417	0.901524	0.914051
	H84	H	0.594930	0.896127	0.082585
	H85	H	0.372700	0.078750	0.083524
	H86	H	0.592975	0.072456	0.911883
	H87	H	0.374141	0.901133	0.911689
	H88	H	0.901428	0.068317	0.603828
	H89	H	0.067482	0.072639	0.387726
	H90	H	0.075132	0.899170	0.608455
	H91	H	0.893809	0.896098	0.383285
	H92	H	0.076092	0.596695	0.911825
	H93	H	0.072432	0.374513	0.085073
	H94	H	0.893378	0.596624	0.084062
	H95	H	0.897622	0.375811	0.908051
	H96	H	0.394919	0.094850	0.581454
	H97	H	0.571522	0.873151	0.589425
	H98	H	0.573597	0.094241	0.415645
	H99	H	0.394476	0.871003	0.399818
	H100	H	0.575758	0.396583	0.109035
	H101	H	0.569891	0.576943	0.883909
	H102	H	0.396758	0.572554	0.107987
	H103	H	0.396035	0.400854	0.886567
	H104	H	0.099650	0.580281	0.401503
	H105	H	0.872877	0.574747	0.585568
	H106	H	0.097722	0.395572	0.589885
	H107	H	0.874772	0.397195	0.415777
	H108	H	0.892108	0.597921	0.086742
	H109	H	0.072486	0.374542	0.086471
	H110	H	0.070550	0.597402	0.904729
	H111	H	0.895600	0.375917	0.911007
	H112	H	0.069668	0.892266	0.609571
	H113	H	0.073743	0.074871	0.384400
	H114	H	0.898948	0.074898	0.609090
	H115	H	0.895397	0.895698	0.385134
	H116	H	0.593587	0.071645	0.908516
	H117	H	0.371898	0.073862	0.089632
	H118	H	0.595059	0.898611	0.082014
	H119	H	0.374264	0.899540	0.913622
	C120	C	0.362696	-0.005592	0.617401
	C121	C	0.604156	0.977165	0.617164
	C122	C	0.605977	-0.005676	0.374340
	C123	C	0.362729	0.976789	0.374522
	C124	C	0.605552	0.363626	0.005265
	C125	C	0.603514	0.606289	0.988112
	C126	C	0.362603	0.606583	0.006267
	C127	C	0.363102	0.365016	0.989399
	C128	C	-0.007697	0.607037	0.375752
	C129	C	0.975537	0.607225	0.618080
	C130	C	-0.007311	0.364662	0.617955
	C131	C	0.974913	0.363962	0.375855
	C132	C	0.860967	0.494604	0.118527
	C133	C	0.104334	0.476474	0.118696
	C134	C	0.104896	0.493854	0.876267
	C135	C	0.862687	0.477411	0.875628
	C136	C	0.105433	0.863464	0.506036
	C137	C	0.105943	0.106187	0.487968
	C138	C	0.863744	0.105601	0.505092
	C139	C	0.862128	0.863869	0.487550
	C140	C	0.491902	0.107124	0.876015
	C141	C	0.475532	0.108084	0.118288
	C142	C	0.493012	0.864528	0.117772
	C143	C	0.474972	0.865205	0.876545
	C144	C	0.357816	0.879622	0.681132
	C145	C	0.608344	0.092739	0.679485
	C146	C	0.608886	0.878032	0.313429
	C147	C	0.361212	0.094327	0.316124
	C148	C	0.665274	0.361763	0.887388
	C149	C	0.664389	0.608910	0.105147
	C150	C	0.301002	0.610331	0.889870
	C151	C	0.304518	0.364227	0.107958
	C152	C	0.874337	0.665695	0.375135
	C153	C	0.093411	0.665981	0.619806
	C154	C	0.877885	0.301114	0.623803
	C155	C	0.091079	0.302259	0.370564
	C156	C	0.877182	0.359513	0.680905
	C157	C	0.093150	0.608458	0.677632
	C158	C	0.873763	0.607295	0.318157
	C159	C	0.091106	0.360831	0.313886
	C160	C	0.357527	0.668998	0.890407
	C161	C	0.607999	0.667882	0.104767
	C162	C	0.607949	0.303829	0.887256
	C163	C	0.362447	0.306693	0.107861
	C164	C	0.666410	0.877646	0.371495
	C165	C	0.666865	0.092229	0.622331
	C166	C	0.301984	0.878124	0.621699
	C167	C	0.301934	0.093340	0.372663
	C168	C	0.857653	0.378518	0.179847
	C169	C	0.106279	0.593448	0.178797
	C170	C	0.109922	0.378563	0.813384
	C171	C	0.859203	0.593850	0.814678
	C172	C	0.163697	0.863070	0.387416
	C173	C	0.168535	0.111561	0.603528
	C174	C	0.801146	0.111381	0.389452
	C175	C	0.801363	0.862126	0.604789
	C176	C	0.376395	0.169722	0.871500
	C177	C	0.593596	0.166206	0.118809
	C178	C	0.377705	0.802003	0.124350
	C179	C	0.588912	0.799824	0.868039
	C180	C	0.376775	0.862138	0.179338
	C181	C	0.593814	0.108338	0.176306
	C182	C	0.376287	0.112085	0.813616
	C183	C	0.589068	0.858094	0.810851
	C184	C	0.859072	0.168549	0.389482
	C185	C	0.111738	0.170208	0.602706
	C186	C	0.105533	0.805870	0.387233
	C187	C	0.859998	0.805089	0.605494
	C188	C	0.167351	0.378352	0.871680
	C189	C	0.165493	0.592384	0.122487
	C190	C	0.799992	0.378190	0.121932
	C191	C	0.800942	0.593508	0.872108
	C192	C	0.389055	0.074710	0.590824
	C193	C	0.577414	0.897035	0.589854
	C194	C	0.580642	0.075689	0.400008
	C195	C	0.387983	0.895216	0.399326
	C196	C	0.579959	0.388449	0.086950
	C197	C	0.577408	0.580510	0.906672
	C198	C	0.389380	0.580290	0.087158
	C199	C	0.387737	0.389577	0.907088
	C200	C	0.074939	0.583234	0.399676
	C201	C	0.893599	0.582765	0.593242
	C202	C	0.072680	0.392143	0.590261
	C203	C	0.894051	0.389853	0.402828
	C204	C	0.886217	0.575906	0.093048
	C205	C	0.078929	0.395363	0.092863
	C206	C	0.078793	0.574705	0.902488
	C207	C	0.888651	0.396632	0.901718
	C208	C	0.081375	0.887544	0.588581
	C209	C	0.078881	0.079315	0.407102
	C210	C	0.890280	0.078313	0.585601
	C211	C	0.887499	0.888421	0.405578
	C212	C	0.572952	0.080260	0.902308
	C213	C	0.393202	0.084797	0.094648
	C214	C	0.574096	0.890098	0.090682
	C215	C	0.395238	0.892933	0.905258
	Zn216	Zn	0.483326	-0.013937	0.747149
	Zn217	Zn	0.484441	-0.014127	0.245934
	Zn218	Zn	0.732873	0.485708	-0.003577
	Zn219	Zn	0.233825	0.485480	-0.001803
	Zn220	Zn	-0.015945	0.735739	0.497113
	Zn221	Zn	-0.015528	0.234863	0.496616
	Zn222	Zn	-0.015936	0.486014	0.746726
	Zn223	Zn	-0.017525	0.485466	0.247269
	Zn224	Zn	0.483205	0.735610	-0.002916
	Zn225	Zn	0.484129	0.236237	-0.003356
	Zn226	Zn	0.733663	-0.014444	0.495818
	Zn227	Zn	0.234115	-0.015218	0.496610
	N228	N	0.394658	0.953168	0.678953
	N229	N	0.570137	0.019975	0.676617
	N230	N	0.572072	0.951725	0.314993
	N231	N	0.398344	0.020782	0.317059
	N232	N	0.664146	0.397942	0.961717
	N233	N	0.661887	0.571462	0.031411
	N234	N	0.303951	0.572240	0.963096
	N235	N	0.304513	0.399535	0.033079
	N236	N	0.949190	0.665945	0.410069
	N237	N	0.019071	0.665661	0.583661
	N238	N	0.950942	0.303961	0.585391
	N239	N	0.017872	0.304064	0.408654
	N240	N	0.949779	0.398301	0.677577
	N241	N	0.018739	0.572557	0.676823
	N242	N	0.948257	0.571587	0.318313
	N243	N	0.017651	0.398428	0.316861
	N244	N	0.395207	0.666827	0.963865
	N245	N	0.571137	0.666473	0.030718
	N246	N	0.571713	0.304689	0.961683
	N247	N	0.397811	0.306774	0.032970
	N248	N	0.664661	0.951177	0.408618
	N249	N	0.664417	0.019211	0.584320
	N250	N	0.304913	0.950489	0.582782
	N251	N	0.302610	0.018937	0.408006
	N252	N	0.894865	0.451876	0.177744
	N253	N	0.068844	0.520320	0.176632
	N254	N	0.071581	0.451522	0.816225
	N255	N	0.896525	0.520504	0.816444
	N256	N	0.163990	0.898013	0.462491
	N257	N	0.164992	0.072331	0.530869
	N258	N	0.803710	0.072796	0.462392
	N259	N	0.802368	0.897840	0.530191
	N260	N	0.449506	0.166658	0.909745
	N261	N	0.519010	0.166325	0.083583
	N262	N	0.451119	0.803499	0.086476
	N263	N	0.517062	0.804270	0.908631
	N264	N	0.449637	0.900382	0.175177
	N265	N	0.519302	0.072971	0.176308
	N266	N	0.449339	0.073780	0.816400
	N267	N	0.517097	0.898269	0.816126
	N268	N	0.897365	0.165113	0.462543
	N269	N	0.073481	0.166909	0.529712
	N270	N	0.070323	0.805797	0.462102
	N271	N	0.897106	0.806123	0.531585
	N272	N	0.164367	0.451059	0.910287
	N273	N	0.164408	0.518649	0.085806
	N274	N	0.801812	0.451529	0.084399
	N275	N	0.802671	0.519893	0.909117
	O276	O	-0.235260	0.967289	0.224389
	H277	H	-0.243431	0.941418	0.220358
	H278	H	-0.254902	0.945609	0.238098
	O279	O	-0.025522	1.081197	0.119853
	H280	H	-0.005752	1.086911	0.125448
	H281	H	-0.025428	1.064614	0.122884
	O282	O	1.040359	0.040859	0.756236
	H283	H	1.051294	0.052145	0.754088
	H284	H	1.055957	0.052451	0.756144
	O285	O	0.987393	0.110539	1.137759
	H286	H	0.980908	0.121276	1.141284
	H287	H	0.982232	0.110899	1.121242
	O288	O	0.776213	0.771919	0.206026
	H289	H	0.792215	0.776039	0.179409
	H290	H	0.804518	0.772154	0.188838
	O291	O	0.687687	0.273789	0.294325
	H292	H	0.703778	0.300946	0.279021
	H293	H	0.712160	0.273178	0.269276
	O294	O	0.822587	-0.011174	0.910752
	H295	H	0.823190	-0.007728	0.889935
	H296	H	0.824711	0.008239	0.907792
	O297	O	0.425694	0.263808	0.428673
	H298	H	0.445395	0.263856	0.406826
	H299	H	0.431934	0.264159	0.436320
	O300	O	-0.323764	-0.321726	1.540766
	H301	H	-0.343304	-0.320722	1.517664
	H302	H	-0.310395	-0.308726	1.523628
	O303	O	0.544519	0.476094	0.483115
	H304	H	0.538809	0.486797	0.481089
	H305	H	0.544752	0.464557	0.476020
	O306	O	0.790406	0.182559	0.188739
	H307	H	0.804227	0.158391	0.171624
	H308	H	0.811385	0.168507	0.168757
	O309	O	0.539509	0.543444	0.274065
	H310	H	0.513643	0.545814	0.273497
	H311	H	0.525980	0.560914	0.277369
	O312	O	0.506342	0.609540	0.407388
	H313	H	0.508691	0.615293	0.412498
	H314	H	0.486429	0.616820	0.396190
	O315	O	0.781356	0.783067	1.001124
	H316	H	0.758262	0.778443	0.983835
	H317	H	0.761031	0.803807	0.985877
	O318	O	0.314527	0.670886	0.682349
	H319	H	0.319458	0.672059	0.685633
	H320	H	0.292690	0.689065	0.702216
	O321	O	0.297927	0.453410	0.679884
	H322	H	0.294590	0.458056	0.679576
	H323	H	0.296669	0.456951	0.683247
	O324	O	1.475317	1.612849	-0.388958
	H325	H	1.471176	1.615833	-0.385454
	H326	H	1.471965	1.615234	-0.389627
	O327	O	-0.308152	-0.305218	0.702349
	H328	H	-0.320292	-0.319759	0.676129
	H329	H	-0.318470	-0.321745	0.681154
	O330	O	0.437188	0.453033	0.598687
	H331	H	0.438365	0.448267	0.600349
	H332	H	0.450517	0.472144	0.598425
	O333	O	0.440961	0.446466	0.314100
	H334	H	0.433854	0.439729	0.327859
	H335	H	0.441094	0.428370	0.312123
	O336	O	0.541783	0.304795	0.491644
	H337	H	0.537316	0.307400	0.489698
	H338	H	0.554606	0.306418	0.495445
	O339	O	1.036191	-0.076468	0.912588
	H340	H	1.041977	-0.070226	0.910839
	H341	H	1.030028	-0.070329	0.905699
	O342	O	0.144547	0.081936	-0.051331
	H343	H	0.153989	0.086317	-0.038488
	H344	H	0.142962	0.094817	-0.064222
	O345	O	-0.041448	1.080831	0.943656
	H346	H	-0.036852	1.066149	0.963634
	H347	H	-0.017511	1.072835	0.934278
	O348	O	0.192237	0.189348	0.199174
	H349	H	0.160145	0.183583	0.210024
	H350	H	0.214854	0.200513	0.225688
	O351	O	0.263009	0.270491	0.517771
	H352	H	0.272504	0.264355	0.531591
	H353	H	0.254603	0.253094	0.518161
	O354	O	0.208466	-0.096343	1.045223
	H355	H	0.216100	-0.113779	1.044285
	H356	H	0.202740	-0.073457	1.038310
	O357	O	0.662012	0.442835	0.528320
	H358	H	0.654061	0.441531	0.524927
	H359	H	0.665756	0.436638	0.524828
	O360	O	1.016384	1.149132	-0.083545
	H361	H	1.033451	1.143103	-0.088106
	H362	H	1.032327	1.162404	-0.085140
	O363	O	0.123069	-0.040697	0.210891
	H364	H	0.132325	-0.028785	0.218970
	H365	H	0.102385	-0.037497	0.215832
	O366	O	0.547025	0.463490	0.656068
	H367	H	0.565333	0.464984	0.637132
	H368	H	0.540483	0.473542	0.656623
	O369	O	0.685829	0.437274	0.284452
	H370	H	0.688993	0.460712	0.266485
	H371	H	0.670251	0.454209	0.282845
	O372	O	1.170167	1.173499	-0.194745
	H373	H	1.167874	1.173373	-0.185655
	H374	H	1.191694	1.200189	-0.216054
	O375	O	0.745603	-0.079840	-0.057800
	H376	H	0.749622	-0.057404	-0.062860
	H377	H	0.739034	-0.067074	-0.081879
	O378	O	0.525682	0.473255	0.642306
	H379	H	0.540220	0.467008	0.638323
	H380	H	0.522397	0.456554	0.637742
	O381	O	-0.037635	1.205577	0.774216
	H382	H	-0.031120	1.225188	0.759004
	H383	H	-0.050908	1.213533	0.780867
	O384	O	1.178238	-0.209422	1.191311
	H385	H	1.160053	-0.185553	1.180225
	H386	H	1.161666	-0.197385	1.163875
	O387	O	0.945939	0.877179	-0.227888
	H388	H	0.927785	0.887354	-0.221976
	H389	H	0.952397	0.888448	-0.239678
	O390	O	0.671410	0.671909	0.312815
	H391	H	0.660965	0.677437	0.299910
	H392	H	0.680577	0.682746	0.292241
	O393	O	0.278782	0.487859	0.322611
	H394	H	0.263948	0.502484	0.311717
	H395	H	0.288823	0.504063	0.327771
	O396	O	0.191836	1.028218	1.155929
	H397	H	0.194076	1.041745	1.161259
	H398	H	0.208145	1.030614	1.159133
	O399	O	0.672902	0.294282	0.686179
	H400	H	0.665701	0.306654	0.658421
	H401	H	0.673754	0.297263	0.683347
	O402	O	0.510556	0.694545	0.367361
	H403	H	0.488583	0.694967	0.363008
	H404	H	0.497034	0.711466	0.363193
	O405	O	0.928108	-0.243670	0.938457
	H406	H	0.897576	-0.237295	0.933077
	H407	H	0.915079	-0.240796	0.943835
	O408	O	0.202392	-0.238057	-0.034315
	H409	H	0.198665	-0.230556	-0.061141
	H410	H	0.223717	-0.249221	-0.045696
	O411	O	0.994651	0.988215	1.200089
	H412	H	0.977620	0.992521	1.207992
	H413	H	0.973801	0.982199	1.197569
	O414	O	0.262730	0.712579	0.459545
	H415	H	0.254206	0.700661	0.475075
	H416	H	0.247277	0.733865	0.458825
	O417	O	0.707973	0.512446	0.720467
	H418	H	0.703213	0.508716	0.716842
	H419	H	0.732999	0.514627	0.737148
	O420	O	0.279718	0.474527	0.517327
	H421	H	0.268839	0.458156	0.504574
	H422	H	0.284802	0.469271	0.513251
	O423	O	0.107097	0.028317	0.907355
	H424	H	0.094006	0.027526	0.913274
	H425	H	0.115116	0.044256	0.920662
	O426	O	0.311045	0.314171	0.311698
	H427	H	0.338426	0.327314	0.324550
	H428	H	0.315695	0.334832	0.323741
	O429	O	1.381342	1.396365	1.523378
	H430	H	1.382569	1.401337	1.513301
	H431	H	1.382642	1.409034	1.517203
	O432	O	0.486468	0.270378	0.667534
	H433	H	0.488640	0.262986	0.670469
	H434	H	0.505119	0.272481	0.666891
	O435	O	-0.210265	0.791472	-0.195948
	H436	H	-0.193786	0.818000	-0.201735
	H437	H	-0.242163	0.761923	-0.229155
	O438	O	0.001868	0.004261	0.004780
	H439	H	-0.002168	-0.002014	-0.008221
	H440	H	-0.002743	0.006503	0.008667
	O441	O	0.030852	-0.246995	0.072010
	H442	H	0.039870	-0.242207	0.052745
	H443	H	0.041362	-0.249243	0.046565
	O444	O	0.203009	0.761319	0.769996
	H445	H	0.179940	0.780722	0.774588
	H446	H	0.179663	0.780458	0.781614
	O447	O	0.203733	0.962387	0.774400
	H448	H	0.224755	0.967901	0.769266
	H449	H	0.212398	0.973993	0.777612
	O450	O	-0.054585	0.772441	1.213498
	H451	H	-0.048012	0.754891	1.216166
	H452	H	-0.032742	0.761458	1.195735
	O453	O	0.700451	0.266094	0.482825
	H454	H	0.729338	0.239806	0.463381
	H455	H	0.690102	0.279580	0.452053
	O456	O	0.662540	0.493121	0.445943
	H457	H	0.657721	0.505050	0.432836
	H458	H	0.668926	0.495103	0.430081
	O459	O	0.300923	0.559101	0.592870
	H460	H	0.299237	0.563397	0.603208
	H461	H	0.300698	0.557155	0.588417
	O462	O	0.835813	1.047057	1.111429
	H463	H	0.837642	1.044190	1.088073
	H464	H	0.819081	1.054338	1.111823
	O465	O	0.763389	0.206907	-0.032491
	H466	H	0.748635	0.230564	-0.036535
	H467	H	0.777514	0.217925	-0.035184
	O468	O	0.278994	0.691710	0.290456
	H469	H	0.245746	0.724258	0.259066
	H470	H	0.270742	0.687475	0.331122
	O471	O	0.516727	0.257095	0.273456
	H472	H	0.531361	0.235934	0.250456
	H473	H	0.554053	0.251020	0.270284
	O474	O	0.495576	0.716641	0.487286
	H475	H	0.496576	0.711870	0.477306
	H476	H	0.474030	0.717857	0.493161
	O477	O	0.772473	0.194328	1.787593
	H478	H	0.793400	0.195571	1.811861
	H479	H	0.751571	0.209045	1.773638
	O480	O	0.498512	0.691398	0.702285
	H481	H	0.505590	0.703002	0.717613
	H482	H	0.510781	0.681916	0.692864
	O483	O	0.387942	0.560199	0.379045
	H484	H	0.379671	0.563883	0.358141
	H485	H	0.378722	0.583257	0.384371
	O486	O	1.211935	0.216147	1.026613
	H487	H	1.206549	0.203044	1.074024
	H488	H	1.245868	0.250260	1.030489
	O489	O	1.002913	0.802649	-0.140214
	H490	H	0.986295	0.813013	-0.153166
	H491	H	0.992393	0.797362	-0.124129
	O492	O	-0.248483	0.031299	-0.095333
	H493	H	-0.258033	0.046672	-0.112570
	H494	H	-0.239790	0.041790	-0.094688
	O495	O	-0.059204	1.113297	1.091546
	H496	H	-0.053126	1.122402	1.097354
	H497	H	-0.063427	1.102492	1.088694
	O498	O	1.273560	1.275183	0.707728
	H499	H	1.295775	1.299990	0.706240
	H500	H	1.294004	1.282392	0.680896
	O501	O	0.913856	0.998380	1.032356
	H502	H	0.923389	1.000150	1.002933
	H503	H	0.906109	0.988501	1.034207
