data_Molecule from HDF5

_cell_length_a		16.239133
_cell_length_b		16.189918
_cell_length_c		16.251878
_cell_angle_alpha	90.023251
_cell_angle_beta	89.974959
_cell_angle_gamma	89.989650
_symmetry_space_group_name_H-M	'P 1'
_symmetry_Int_Tables_number		1

loop_
	_symmetry_equiv_pos_as_xyz
	x,y,z

loop_
	_atom_site_label
	_atom_site_type_symbol
	_atom_site_fract_x
	_atom_site_fract_y
	_atom_site_fract_z
	H0	H	0.404871	0.839550	0.716373
	H1	H	0.602357	0.169060	0.716116
	H2	H	0.602027	0.840078	0.288500
	H3	H	0.405482	0.168914	0.289214
	H4	H	0.719258	0.405551	0.838725
	H5	H	0.719940	0.604390	0.166884
	H6	H	0.289607	0.603279	0.838989
	H7	H	0.290835	0.405139	0.166816
	H8	H	0.839242	0.716761	0.404122
	H9	H	0.167816	0.718724	0.600367
	H10	H	0.838945	0.289463	0.600867
	H11	H	0.167501	0.289744	0.404464
	H12	H	0.839947	0.404392	0.718135
	H13	H	0.168134	0.603517	0.716145
	H14	H	0.840156	0.602861	0.287407
	H15	H	0.167094	0.404458	0.288434
	H16	H	0.406169	0.718124	0.838575
	H17	H	0.602274	0.718555	0.166830
	H18	H	0.603419	0.289871	0.838664
	H19	H	0.407660	0.291497	0.167557
	H20	H	0.717755	0.840177	0.403047
	H21	H	0.717046	0.169648	0.599845
	H22	H	0.289413	0.839544	0.600498
	H23	H	0.289561	0.168740	0.403603
	H24	H	0.906065	0.338869	0.215394
	H25	H	0.103436	0.667742	0.217249
	H26	H	0.103136	0.339255	0.787744
	H27	H	0.905125	0.668993	0.788091
	H28	H	0.219365	0.903813	0.338046
	H29	H	0.218902	0.103716	0.664780
	H30	H	0.789778	0.102692	0.337743
	H31	H	0.788436	0.904711	0.665660
	H32	H	0.339744	0.217574	0.905260
	H33	H	0.668906	0.217252	0.099975
	H34	H	0.340498	0.790366	0.101042
	H35	H	0.669183	0.791201	0.905033
	H36	H	0.340865	0.904671	0.217156
	H37	H	0.668241	0.102903	0.216148
	H38	H	0.340294	0.103134	0.788197
	H39	H	0.668051	0.903709	0.785789
	H40	H	0.905540	0.217989	0.338014
	H41	H	0.101715	0.217246	0.666278
	H42	H	0.101307	0.790048	0.337357
	H43	H	0.904073	0.789378	0.665844
	H44	H	0.217817	0.338952	0.904557
	H45	H	0.217992	0.668389	0.100988
	H46	H	0.791479	0.339537	0.101035
	H47	H	0.790547	0.669196	0.904491
	H48	H	0.400411	0.124232	0.597132
	H49	H	0.599631	0.886832	0.594782
	H50	H	0.595450	0.127639	0.390647
	H51	H	0.409478	0.888584	0.417987
	H52	H	0.605025	0.420812	0.119478
	H53	H	0.598757	0.602113	0.884094
	H54	H	0.410177	0.597139	0.120002
	H55	H	0.402258	0.412958	0.884368
	H56	H	0.123390	0.603058	0.407718
	H57	H	0.886772	0.593851	0.597972
	H58	H	0.119391	0.405885	0.585885
	H59	H	0.889413	0.423191	0.408125
	H60	H	0.117674	0.420374	0.596304
	H61	H	0.885908	0.598416	0.595975
	H62	H	0.117933	0.593607	0.417123
	H63	H	0.880306	0.404531	0.398312
	H64	H	0.411243	0.596676	0.119614
	H65	H	0.602406	0.590830	0.886784
	H66	H	0.587821	0.410879	0.116764
	H67	H	0.416466	0.415699	0.888843
	H68	H	0.582430	0.115166	0.418128
	H69	H	0.593843	0.887101	0.597448
	H70	H	0.418281	0.121420	0.603887
	H71	H	0.404718	0.883414	0.404423
	H72	H	0.910830	0.624334	0.102303
	H73	H	0.101571	0.384602	0.093059
	H74	H	0.097528	0.621223	0.909891
	H75	H	0.913650	0.387453	0.907172
	H76	H	0.105526	0.906037	0.622689
	H77	H	0.095465	0.098882	0.383942
	H78	H	0.916137	0.081807	0.612549
	H79	H	0.916096	0.910981	0.386380
	H80	H	0.618076	0.087866	0.908360
	H81	H	0.386395	0.093730	0.100353
	H82	H	0.618177	0.921556	0.092846
	H83	H	0.386412	0.912708	0.905234
	H84	H	0.625334	0.910099	0.105815
	H85	H	0.384875	0.102916	0.098366
	H86	H	0.624685	0.100732	0.901729
	H87	H	0.386931	0.907354	0.910557
	H88	H	0.920963	0.109260	0.619254
	H89	H	0.100045	0.096996	0.383511
	H90	H	0.097542	0.921868	0.615550
	H91	H	0.907255	0.903871	0.381742
	H92	H	0.097732	0.621671	0.908469
	H93	H	0.098243	0.384278	0.099803
	H94	H	0.919179	0.619063	0.093176
	H95	H	0.913638	0.387611	0.912283
	H96	H	0.414155	0.117637	0.585492
	H97	H	0.595241	0.888178	0.591477
	H98	H	0.613791	0.125172	0.417341
	H99	H	0.419780	0.888314	0.406654
	H100	H	0.603144	0.401472	0.124292
	H101	H	0.591368	0.594932	0.888544
	H102	H	0.411373	0.598272	0.120371
	H103	H	0.413230	0.402111	0.883168
	H104	H	0.120751	0.590281	0.403570
	H105	H	0.888179	0.594876	0.592923
	H106	H	0.124361	0.404700	0.603430
	H107	H	0.887328	0.404054	0.419857
	H108	H	0.906861	0.621364	0.089571
	H109	H	0.094328	0.387412	0.094242
	H110	H	0.096625	0.621303	0.909095
	H111	H	0.909011	0.386347	0.909133
	H112	H	0.087093	0.905487	0.616806
	H113	H	0.095784	0.095470	0.384837
	H114	H	0.895810	0.097760	0.623954
	H115	H	0.905656	0.915916	0.385174
	H116	H	0.620825	0.101033	0.917062
	H117	H	0.387879	0.097189	0.091556
	H118	H	0.621874	0.902904	0.088326
	H119	H	0.388972	0.914074	0.912091
	C120	C	0.382143	0.012449	0.623817
	C121	C	0.625125	0.995980	0.623301
	C122	C	0.625326	0.013611	0.380705
	C123	C	0.382705	0.995640	0.381112
	C124	C	0.626921	0.382294	0.011636
	C125	C	0.625744	0.625116	0.994752
	C126	C	0.382900	0.625512	0.011347
	C127	C	0.383170	0.382347	0.994125
	C128	C	0.012136	0.624911	0.380763
	C129	C	0.995255	0.625388	0.624110
	C130	C	0.011973	0.381803	0.623727
	C131	C	0.994443	0.382015	0.380683
	C132	C	0.883643	0.512452	0.123763
	C133	C	0.126247	0.494698	0.124428
	C134	C	0.126113	0.512516	0.880543
	C135	C	0.882933	0.495845	0.880892
	C136	C	0.125121	0.882323	0.510066
	C137	C	0.125309	0.125573	0.492943
	C138	C	0.882354	0.125227	0.510353
	C139	C	0.880929	0.881904	0.493111
	C140	C	0.512895	0.125899	0.880709
	C141	C	0.495431	0.126014	0.124301
	C142	C	0.513180	0.882862	0.123946
	C143	C	0.496132	0.882704	0.880649
	C144	C	0.384499	0.888802	0.678934
	C145	C	0.622644	0.120025	0.678374
	C146	C	0.622809	0.889320	0.325802
	C147	C	0.385291	0.119687	0.326762
	C148	C	0.681694	0.384950	0.887974
	C149	C	0.681403	0.623961	0.118046
	C150	C	0.327691	0.623317	0.887865
	C151	C	0.328421	0.384807	0.117724
	C152	C	0.888513	0.679633	0.383364
	C153	C	0.118958	0.680754	0.620799
	C154	C	0.887961	0.327394	0.621194
	C155	C	0.118259	0.327240	0.383681
	C156	C	0.888514	0.384232	0.679653
	C157	C	0.118883	0.623820	0.678895
	C158	C	0.888828	0.622757	0.325475
	C159	C	0.118140	0.384272	0.325940
	C160	C	0.385433	0.680518	0.887448
	C161	C	0.622852	0.680488	0.118165
	C162	C	0.624098	0.327582	0.887835
	C163	C	0.386690	0.328490	0.118297
	C164	C	0.679733	0.889219	0.383440
	C165	C	0.679858	0.120243	0.620933
	C166	C	0.327263	0.888765	0.621070
	C167	C	0.327439	0.119563	0.383437
	C168	C	0.885723	0.388389	0.178439
	C169	C	0.123828	0.618605	0.179549
	C170	C	0.123536	0.388418	0.825612
	C171	C	0.885019	0.619779	0.825894
	C172	C	0.181118	0.883807	0.386827
	C173	C	0.180516	0.123433	0.616167
	C174	C	0.827605	0.122749	0.386632
	C175	C	0.826108	0.884497	0.616670
	C176	C	0.389028	0.180393	0.884204
	C177	C	0.619503	0.180356	0.121229
	C178	C	0.389535	0.827704	0.121625
	C179	C	0.620014	0.828037	0.883465
	C180	C	0.389806	0.884969	0.179227
	C181	C	0.619218	0.123510	0.178798
	C182	C	0.389222	0.123665	0.825939
	C183	C	0.619395	0.884207	0.824521
	C184	C	0.885134	0.179898	0.386507
	C185	C	0.122461	0.180048	0.616699
	C186	C	0.122593	0.827279	0.386386
	C187	C	0.883723	0.827027	0.616692
	C188	C	0.180655	0.388257	0.883584
	C189	C	0.180742	0.618897	0.121660
	C190	C	0.829029	0.388585	0.120976
	C191	C	0.828268	0.620094	0.883756
	C192	C	0.404292	0.098988	0.601856
	C193	C	0.602925	0.909697	0.601058
	C194	C	0.603687	0.100379	0.402518
	C195	C	0.404835	0.909046	0.403121
	C196	C	0.605085	0.404364	0.097868
	C197	C	0.603893	0.602712	0.908752
	C198	C	0.404642	0.603719	0.097478
	C199	C	0.404491	0.403867	0.907849
	C200	C	0.098444	0.602330	0.402966
	C201	C	0.909150	0.602587	0.602127
	C202	C	0.098034	0.403829	0.601691
	C203	C	0.907976	0.403908	0.402482
	C204	C	0.905792	0.599269	0.101632
	C205	C	0.104589	0.407939	0.102139
	C206	C	0.103917	0.598921	0.902671
	C207	C	0.905411	0.409442	0.903050
	C208	C	0.103174	0.904599	0.596215
	C209	C	0.103527	0.103657	0.406515
	C210	C	0.904411	0.102918	0.596448
	C211	C	0.903071	0.903711	0.406841
	C212	C	0.598970	0.103253	0.902436
	C213	C	0.408713	0.104418	0.102858
	C214	C	0.599564	0.904895	0.102007
	C215	C	0.409912	0.904926	0.902807
	Zn216	Zn	0.504125	0.003907	0.752152
	Zn217	Zn	0.504318	0.004556	0.252734
	Zn218	Zn	0.755329	0.504322	0.003124
	Zn219	Zn	0.254516	0.503758	0.002675
	Zn220	Zn	0.003820	0.753598	0.501680
	Zn221	Zn	0.003146	0.253591	0.501980
	Zn222	Zn	0.003919	0.504092	0.752411
	Zn223	Zn	0.003740	0.503629	0.251976
	Zn224	Zn	0.504778	0.754203	0.002372
	Zn225	Zn	0.504680	0.254074	0.002868
	Zn226	Zn	0.753173	0.004630	0.501942
	Zn227	Zn	0.253700	0.003934	0.501539
	N228	N	0.417869	0.966856	0.680729
	N229	N	0.589280	0.041885	0.680016
	N230	N	0.589697	0.967517	0.324139
	N231	N	0.418921	0.041661	0.325178
	N232	N	0.683566	0.418354	0.965863
	N233	N	0.682904	0.589806	0.040514
	N234	N	0.325823	0.590127	0.965830
	N235	N	0.326097	0.417734	0.039637
	N236	N	0.966086	0.680807	0.417131
	N237	N	0.040921	0.682202	0.587720
	N238	N	0.965599	0.325447	0.587382
	N239	N	0.040418	0.325834	0.416991
	N240	N	0.966555	0.417440	0.681356
	N241	N	0.041191	0.590040	0.680809
	N242	N	0.966766	0.589336	0.323861
	N243	N	0.040162	0.417641	0.323891
	N244	N	0.419067	0.682131	0.965168
	N245	N	0.589223	0.681487	0.040443
	N246	N	0.590923	0.325656	0.965663
	N247	N	0.419954	0.326808	0.040457
	N248	N	0.681376	0.967452	0.416675
	N249	N	0.681809	0.042131	0.587631
	N250	N	0.325718	0.966674	0.587529
	N251	N	0.325710	0.041366	0.416589
	N252	N	0.919001	0.466539	0.179963
	N253	N	0.090686	0.540371	0.181398
	N254	N	0.090553	0.466604	0.823616
	N255	N	0.918221	0.541451	0.823933
	N256	N	0.182629	0.917300	0.464665
	N257	N	0.182257	0.090084	0.538282
	N258	N	0.825707	0.089461	0.464642
	N259	N	0.824414	0.918043	0.538864
	N260	N	0.466958	0.181921	0.917482
	N261	N	0.541574	0.182077	0.088042
	N262	N	0.467318	0.826415	0.087841
	N263	N	0.542394	0.826889	0.917397
	N264	N	0.467652	0.918474	0.180844
	N265	N	0.541101	0.090254	0.180658
	N266	N	0.467110	0.090340	0.823664
	N267	N	0.541245	0.917254	0.822486
	N268	N	0.918589	0.181327	0.464252
	N269	N	0.088795	0.181462	0.538944
	N270	N	0.088486	0.826254	0.463862
	N271	N	0.917053	0.825261	0.538842
	N272	N	0.182473	0.466430	0.917039
	N273	N	0.182507	0.540752	0.088319
	N274	N	0.827340	0.466909	0.087938
	N275	N	0.826591	0.541972	0.917126
	O276	O	0.510633	0.576094	0.589569
	H277	H	0.519779	0.577634	0.592235
	H278	H	0.517743	0.576789	0.589303
	O279	O	0.063387	0.006377	-0.037014
	H280	H	0.061247	0.012232	-0.028691
	H281	H	0.054330	0.007808	-0.033215
	O282	O	0.509997	0.547148	0.550622
	H283	H	0.516182	0.545648	0.549233
	H284	H	0.510197	0.542896	0.557972
	O285	O	0.473105	0.524435	0.564194
	H286	H	0.480456	0.521965	0.561467
	H287	H	0.468138	0.532096	0.570849
	O288	O	1.062787	0.014204	-0.068228
	H289	H	1.065394	0.006353	-0.076983
	H290	H	1.074459	0.004852	-0.081110
	O291	O	-0.565341	0.548448	-0.452870
	H292	H	-0.560432	0.560150	-0.453475
	H293	H	-0.564005	0.550561	-0.461657
	O294	O	0.443102	0.539799	0.519803
	H295	H	0.445631	0.539590	0.534604
	H296	H	0.443582	0.544675	0.522655
	O297	O	0.098685	0.988188	-0.104021
	H298	H	0.102081	0.982406	-0.111437
	H299	H	0.102387	0.994489	-0.103090
	O300	O	1.098509	-0.027637	0.955919
	H301	H	1.097629	-0.022006	0.966851
	H302	H	1.101888	-0.021613	0.961907
	O303	O	0.486084	0.545976	0.564757
	H304	H	0.484626	0.543559	0.569134
	H305	H	0.482388	0.537510	0.556538
	O306	O	0.047644	0.993091	0.959243
	H307	H	0.045346	0.990059	0.952974
	H308	H	0.050655	0.991087	0.952995
	O309	O	0.509760	0.512729	0.563375
	H310	H	0.499484	0.513733	0.563043
	H311	H	0.495319	0.509242	0.560454
