data_Molecule from HDF5

_cell_length_a		16.372542
_cell_length_b		16.369609
_cell_length_c		16.642268
_cell_angle_alpha	89.937711
_cell_angle_beta	90.244645
_cell_angle_gamma	89.966664
_symmetry_space_group_name_H-M	'P 1'
_symmetry_Int_Tables_number		1

loop_
	_symmetry_equiv_pos_as_xyz
	x,y,z

loop_
	_atom_site_label
	_atom_site_type_symbol
	_atom_site_fract_x
	_atom_site_fract_y
	_atom_site_fract_z
	H0	H	0.412511	0.863878	0.705266
	H1	H	0.627001	0.179011	0.702611
	H2	H	0.632167	0.865822	0.256625
	H3	H	0.409371	0.177350	0.252936
	H4	H	0.741331	0.417810	0.826438
	H5	H	0.747820	0.630256	0.137752
	H6	H	0.296205	0.628161	0.826003
	H7	H	0.294819	0.411099	0.136735
	H8	H	0.863279	0.743905	0.375433
	H9	H	0.182116	0.739152	0.584938
	H10	H	0.863811	0.298829	0.586173
	H11	H	0.179999	0.299047	0.375494
	H12	H	0.865444	0.412273	0.704488
	H13	H	0.178974	0.628551	0.705663
	H14	H	0.864388	0.632101	0.256304
	H15	H	0.177687	0.409974	0.256492
	H16	H	0.415428	0.742987	0.825342
	H17	H	0.627703	0.743902	0.139058
	H18	H	0.621872	0.302993	0.825367
	H19	H	0.409512	0.292935	0.135602
	H20	H	0.741611	0.862221	0.377190
	H21	H	0.741502	0.179781	0.585628
	H22	H	0.302312	0.861582	0.584250
	H23	H	0.299006	0.180038	0.373000
	H24	H	0.907679	0.365492	0.208068
	H25	H	0.127835	0.677737	0.204966
	H26	H	0.128640	0.363646	0.759018
	H27	H	0.910397	0.677332	0.756971
	H28	H	0.243011	0.916412	0.323733
	H29	H	0.248684	0.131179	0.634778
	H30	H	0.796006	0.127749	0.324825
	H31	H	0.800096	0.915399	0.636940
	H32	H	0.362395	0.242779	0.875896
	H33	H	0.679834	0.243708	0.086635
	H34	H	0.363975	0.798774	0.087956
	H35	H	0.680476	0.801757	0.879920
	H36	H	0.367557	0.908959	0.208981
	H37	H	0.678220	0.133316	0.206690
	H38	H	0.364599	0.131392	0.755865
	H39	H	0.678795	0.914049	0.761295
	H40	H	0.913280	0.244936	0.324887
	H41	H	0.129660	0.244797	0.635976
	H42	H	0.127162	0.797923	0.325043
	H43	H	0.916578	0.798616	0.637438
	H44	H	0.240462	0.361760	0.878000
	H45	H	0.240718	0.679612	0.086905
	H46	H	0.800328	0.361838	0.084885
	H47	H	0.801640	0.680388	0.878681
	H48	H	0.438769	0.131671	0.567708
	H49	H	0.605342	0.909422	0.567303
	H50	H	0.611650	0.134682	0.396365
	H51	H	0.434391	0.909742	0.394450
	H52	H	0.607171	0.438247	0.091126
	H53	H	0.614233	0.603299	0.873285
	H54	H	0.432048	0.616099	0.094713
	H55	H	0.436067	0.432349	0.872462
	H56	H	0.133055	0.609580	0.397414
	H57	H	0.905786	0.605829	0.578029
	H58	H	0.133276	0.435694	0.568912
	H59	H	0.910253	0.437359	0.393976
	H60	H	0.134705	0.436068	0.571767
	H61	H	0.906014	0.617164	0.569760
	H62	H	0.132010	0.602369	0.392056
	H63	H	0.908570	0.435534	0.392752
	H64	H	0.426293	0.605667	0.094109
	H65	H	0.602377	0.613044	0.873537
	H66	H	0.605870	0.428428	0.094479
	H67	H	0.428220	0.429940	0.868598
	H68	H	0.606962	0.136380	0.387964
	H69	H	0.617567	0.904330	0.570631
	H70	H	0.432721	0.134443	0.567551
	H71	H	0.434968	0.908658	0.391385
	H72	H	0.927972	0.634970	0.066469
	H73	H	0.108039	0.407483	0.068051
	H74	H	0.106285	0.633449	0.893877
	H75	H	0.930916	0.408829	0.898825
	H76	H	0.115831	0.932786	0.593575
	H77	H	0.107920	0.104586	0.371958
	H78	H	0.934335	0.105473	0.589555
	H79	H	0.930481	0.929107	0.367987
	H80	H	0.631522	0.107962	0.898367
	H81	H	0.410173	0.108711	0.064271
	H82	H	0.632996	0.940030	0.070065
	H83	H	0.406718	0.932504	0.892432
	H84	H	0.637333	0.932881	0.074605
	H85	H	0.412455	0.100985	0.065376
	H86	H	0.636396	0.105293	0.883864
	H87	H	0.407874	0.934012	0.893420
	H88	H	0.936020	0.113529	0.592336
	H89	H	0.105404	0.114025	0.369335
	H90	H	0.110162	0.933839	0.590716
	H91	H	0.930877	0.937388	0.370315
	H92	H	0.107951	0.633626	0.893850
	H93	H	0.107281	0.405926	0.072852
	H94	H	0.935507	0.636274	0.077654
	H95	H	0.926769	0.403595	0.887117
	H96	H	0.436507	0.134735	0.572922
	H97	H	0.607406	0.904391	0.580019
	H98	H	0.602427	0.132014	0.395405
	H99	H	0.437474	0.910798	0.392783
	H100	H	0.614891	0.433333	0.095855
	H101	H	0.615455	0.617592	0.866811
	H102	H	0.437105	0.606208	0.090551
	H103	H	0.428968	0.438538	0.872670
	H104	H	0.136398	0.609520	0.389357
	H105	H	0.911671	0.605293	0.565615
	H106	H	0.135218	0.433450	0.570375
	H107	H	0.909868	0.434592	0.395109
	H108	H	0.940892	0.630178	0.066440
	H109	H	0.103472	0.408949	0.070292
	H110	H	0.106739	0.634791	0.892377
	H111	H	0.939310	0.407868	0.888509
	H112	H	0.111636	0.927299	0.593574
	H113	H	0.114580	0.110313	0.367538
	H114	H	0.928344	0.109931	0.593592
	H115	H	0.937847	0.932520	0.370880
	H116	H	0.638765	0.119448	0.890436
	H117	H	0.408960	0.105396	0.071308
	H118	H	0.634070	0.931274	0.065418
	H119	H	0.407698	0.934449	0.890886
	C120	C	0.401782	0.029230	0.601978
	C121	C	0.642608	1.011449	0.603612
	C122	C	0.641639	0.030248	0.360694
	C123	C	0.400313	1.013132	0.358176
	C124	C	0.641473	0.401050	-0.009074
	C125	C	0.643485	0.643891	0.974253
	C126	C	0.398710	0.642695	-0.010023
	C127	C	0.397336	0.398596	0.973386
	C128	C	0.029809	0.641792	0.359843
	C129	C	1.012917	0.641969	0.603512
	C130	C	0.030564	0.400702	0.602298
	C131	C	1.012903	0.400467	0.359966
	C132	C	0.900007	0.529796	0.103205
	C133	C	0.140539	0.511953	0.103165
	C134	C	0.140469	0.529314	0.861303
	C135	C	0.899766	0.511992	0.859806
	C136	C	0.144216	0.899176	0.489224
	C137	C	0.144020	0.143450	0.471840
	C138	C	0.899008	0.143021	0.488974
	C139	C	0.900217	0.899670	0.472739
	C140	C	0.530165	0.143236	0.859003
	C141	C	0.514003	0.141189	0.101429
	C142	C	0.530814	0.900422	0.103422
	C143	C	0.512352	0.900812	0.861019
	C144	C	0.396158	0.910969	0.663834
	C145	C	0.644968	0.131314	0.662728
	C146	C	0.647762	0.912119	0.298563
	C147	C	0.393812	0.130556	0.294855
	C148	C	0.700981	0.399186	0.873088
	C149	C	0.706042	0.647603	0.091240
	C150	C	0.337189	0.645971	0.872852
	C151	C	0.335171	0.393458	0.089924
	C152	C	0.910867	0.703560	0.357044
	C153	C	0.133318	0.700746	0.604314
	C154	C	0.911717	0.338814	0.604612
	C155	C	0.131896	0.338693	0.357107
	C156	C	0.912152	0.395551	0.663264
	C157	C	0.131794	0.645882	0.664690
	C158	C	0.911485	0.647753	0.297561
	C159	C	0.130729	0.394356	0.297801
	C160	C	0.396758	0.703067	0.872584
	C161	C	0.646765	0.704706	0.091730
	C162	C	0.641757	0.342335	0.872343
	C163	C	0.392375	0.334531	0.089168
	C164	C	0.702635	0.910576	0.358466
	C165	C	0.701935	0.131602	0.604362
	C166	C	0.341195	0.909860	0.603468
	C167	C	0.338565	0.131920	0.354732
	C168	C	0.892922	0.411916	0.166083
	C169	C	0.145115	0.630547	0.164269
	C170	C	0.145098	0.410560	0.800332
	C171	C	0.894793	0.630496	0.798552
	C172	C	0.203324	0.897752	0.370921
	C173	C	0.207367	0.148210	0.588233
	C174	C	0.836924	0.145845	0.371778
	C175	C	0.839729	0.896683	0.589979
	C176	C	0.410482	0.202960	0.857334
	C177	C	0.631991	0.204025	0.105174
	C178	C	0.411797	0.838513	0.106589
	C179	C	0.632137	0.840926	0.860398
	C180	C	0.413601	0.893558	0.166630
	C181	C	0.631275	0.148752	0.164979
	C182	C	0.411455	0.147317	0.797487
	C183	C	0.631572	0.897065	0.801560
	C184	C	0.895208	0.204279	0.371752
	C185	C	0.148022	0.205078	0.588842
	C186	C	0.145806	0.838656	0.371649
	C187	C	0.898038	0.838685	0.590268
	C188	C	0.200833	0.409463	0.859428
	C189	C	0.201342	0.631329	0.105414
	C190	C	0.839371	0.410066	0.104804
	C191	C	0.839986	0.631743	0.858870
	C192	C	0.428303	0.112044	0.576705
	C193	C	0.617520	0.927923	0.579604
	C194	C	0.614746	0.112568	0.386158
	C195	C	0.427840	0.931226	0.385065
	C196	C	0.616585	0.426055	0.072487
	C197	C	0.617826	0.618621	0.892513
	C198	C	0.424423	0.616836	0.071872
	C199	C	0.423431	0.425864	0.892415
	C200	C	0.112326	0.614842	0.385401
	C201	C	0.929629	0.616617	0.578442
	C202	C	0.112908	0.427410	0.577509
	C203	C	0.931040	0.427909	0.386358
	C204	C	0.927142	0.612226	0.077690
	C205	C	0.113895	0.429084	0.077721
	C206	C	0.114546	0.612204	0.886363
	C207	C	0.925263	0.428576	0.884455
	C208	C	0.119770	0.924089	0.571123
	C209	C	0.117067	0.117194	0.390689
	C210	C	0.925362	0.117114	0.570383
	C211	C	0.925595	0.925344	0.391144
	C212	C	0.613573	0.118114	0.883795
	C213	C	0.432060	0.113191	0.074794
	C214	C	0.613268	0.927284	0.077605
	C215	C	0.429230	0.926294	0.885346
	Zn216	Zn	0.521082	0.020835	0.732006
	Zn217	Zn	0.522472	0.021791	0.231190
	Zn218	Zn	0.772491	0.521115	-0.017395
	Zn219	Zn	0.268573	0.520383	-0.017826
	Zn220	Zn	0.021726	0.769685	0.481271
	Zn221	Zn	0.021576	0.272315	0.480913
	Zn222	Zn	0.021128	0.520953	0.732146
	Zn223	Zn	0.020410	0.520567	0.231262
	Zn224	Zn	0.520899	0.772568	-0.017572
	Zn225	Zn	0.520958	0.270979	-0.018459
	Zn226	Zn	0.769825	0.020576	0.481158
	Zn227	Zn	0.273235	0.021462	0.480271
	N228	N	0.432672	0.986407	0.663167
	N229	N	0.609018	0.055408	0.662677
	N230	N	0.610400	0.987279	0.299934
	N231	N	0.431300	0.055347	0.296634
	N232	N	0.700921	0.434768	0.947711
	N233	N	0.704153	0.610454	0.017299
	N234	N	0.337929	0.609291	0.947133
	N235	N	0.338221	0.432767	0.016972
	N236	N	0.985430	0.700153	0.394963
	N237	N	0.058220	0.698753	0.566942
	N238	N	0.986184	0.341882	0.567021
	N239	N	0.057533	0.342270	0.395034
	N240	N	0.986988	0.433364	0.661870
	N241	N	0.055846	0.610343	0.664413
	N242	N	0.986573	0.609849	0.299291
	N243	N	0.055692	0.431858	0.299225
	N244	N	0.434074	0.701092	0.946570
	N245	N	0.608557	0.702511	0.018080
	N246	N	0.605385	0.343321	0.946582
	N247	N	0.430454	0.337805	0.015748
	N248	N	0.698862	0.985030	0.396591
	N249	N	0.700621	0.056070	0.568357
	N250	N	0.344412	0.984546	0.565638
	N251	N	0.342344	0.057813	0.393242
	N252	N	0.929623	0.487583	0.165500
	N253	N	0.108402	0.555023	0.163160
	N254	N	0.108273	0.486027	0.801382
	N255	N	0.931169	0.554876	0.798975
	N256	N	0.202571	0.934433	0.445171
	N257	N	0.205085	0.110823	0.514442
	N258	N	0.839069	0.108688	0.445843
	N259	N	0.841036	0.933767	0.516013
	N260	N	0.485339	0.200682	0.894952
	N261	N	0.557799	0.199673	0.066515
	N262	N	0.485749	0.842683	0.067999
	N263	N	0.557088	0.843101	0.896827
	N264	N	0.488533	0.931164	0.164880
	N265	N	0.556640	0.110255	0.162689
	N266	N	0.486980	0.110809	0.798538
	N267	N	0.555990	0.933539	0.801681
	N268	N	0.933108	0.202647	0.445512
	N269	N	0.109527	0.202449	0.515386
	N270	N	0.109952	0.839218	0.446091
	N271	N	0.934876	0.840286	0.516255
	N272	N	0.198063	0.484291	0.896726
	N273	N	0.198714	0.556364	0.068247
	N274	N	0.843580	0.484169	0.066565
	N275	N	0.842787	0.556853	0.896204
	O276	O	0.739066	0.733322	0.508735
	H277	H	0.738099	0.747231	0.526242
	H278	H	0.745601	0.754497	0.520096
	O279	O	0.495747	0.633566	0.509150
	H280	H	0.497090	0.634466	0.493844
	H281	H	0.481375	0.622389	0.496623
	O282	O	1.320209	1.573735	0.494957
	H283	H	1.323850	1.554868	0.516565
	H284	H	1.312655	1.605420	0.486302
	O285	O	0.907979	-1.074475	-0.014099
	H286	H	0.905779	-1.061220	-0.025951
	H287	H	0.896998	-1.071219	-0.006630
	O288	O	0.064544	-0.017230	0.196322
	H289	H	0.064100	0.003140	0.201836
	H290	H	0.080981	-0.011982	0.182431
	O291	O	0.841010	0.836972	0.123692
	H292	H	0.835539	0.875924	0.132020
	H293	H	0.880971	0.832105	0.129988
	O294	O	-0.181762	1.002187	0.180234
	H295	H	-0.177972	1.027115	0.180423
	H296	H	-0.189939	1.011900	0.198285
	O297	O	0.734512	0.488048	0.385073
	H298	H	0.750791	0.480599	0.368012
	H299	H	0.729545	0.505371	0.414207
	O300	O	0.049331	-0.198403	0.766445
	H301	H	0.048414	-0.202010	0.769889
	H302	H	0.048826	-0.221856	0.749569
	O303	O	0.167801	0.107114	0.910022
	H304	H	0.147644	0.106429	0.903733
	H305	H	0.171450	0.100183	0.891012
	O306	O	-0.046122	1.004378	0.796459
	H307	H	-0.079654	1.016533	0.796325
	H308	H	-0.041608	0.992319	0.780164
	O309	O	0.059263	-0.042894	0.013085
	H310	H	0.058314	-0.047177	0.001516
	H311	H	0.049172	-0.046044	0.000908
	O312	O	-0.270091	0.413487	0.596217
	H313	H	-0.272298	0.389330	0.585933
	H314	H	-0.267194	0.434756	0.612060
	O315	O	0.169857	0.103306	0.857062
	H316	H	0.146160	0.113573	0.843760
	H317	H	0.161731	0.098818	0.844676
	O318	O	0.332884	1.339138	-0.330123
	H319	H	0.324227	1.329833	-0.378038
	H320	H	0.370998	1.340331	-0.327051
	O321	O	0.505865	0.635264	0.413080
	H322	H	0.510344	0.622033	0.428534
	H323	H	0.488622	0.621751	0.416831
	O324	O	0.328304	0.714452	0.282369
	H325	H	0.353114	0.704920	0.282491
	H326	H	0.339545	0.733577	0.264504
	O327	O	0.238132	0.805495	1.957039
	H328	H	0.271360	0.768014	1.953398
	H329	H	0.208994	0.810074	1.959758
	O330	O	0.498987	-0.701355	-0.538691
	H331	H	0.532347	-0.706771	-0.537661
	H332	H	0.488116	-0.688342	-0.553618
	O333	O	0.940128	0.929778	0.831012
	H334	H	0.945813	0.939389	0.847494
	H335	H	0.940277	0.941254	0.845866
	O336	O	1.536195	-0.405264	1.610024
	H337	H	1.535533	-0.397751	1.614428
	H338	H	1.533844	-0.396990	1.610779
	O339	O	1.306676	0.307315	1.509478
	H340	H	1.293399	0.289720	1.496346
	H341	H	1.312670	0.292320	1.490726
	O342	O	0.496197	0.317073	0.685998
	H343	H	0.503138	0.304311	0.682042
	H344	H	0.505603	0.312125	0.680999
	O345	O	0.631095	0.502238	0.393869
	H346	H	0.651733	0.523217	0.408953
	H347	H	0.646627	0.501311	0.375516
	O348	O	1.301101	0.541225	1.258621
	H349	H	1.289676	0.568922	1.261052
	H350	H	1.277150	0.549370	1.253213
	O351	O	0.703409	0.337363	-0.703126
	H352	H	0.651265	0.329082	-0.710084
	H353	H	0.712170	0.390826	-0.714553
	O354	O	0.056043	1.025776	0.963074
	H355	H	0.057059	1.013345	0.960768
	H356	H	0.037781	1.032536	0.960571
	O357	O	1.237712	1.041117	1.195153
	H358	H	1.257095	1.033420	1.193883
	H359	H	1.253681	1.033585	1.195539
	O360	O	0.469004	0.702747	0.524223
	H361	H	0.463509	0.694018	0.518205
	H362	H	0.448265	0.691104	0.527113
	O363	O	0.315923	0.501229	0.694702
	H364	H	0.312939	0.474522	0.691289
	H365	H	0.316882	0.490489	0.708928
	O366	O	0.742904	0.300487	0.452422
	H367	H	0.763867	0.280315	0.434501
	H368	H	0.748079	0.297205	0.415099
	O369	O	0.154691	0.210990	0.948349
	H370	H	0.167540	0.206565	0.941572
	H371	H	0.169255	0.199313	0.940262
	O372	O	0.540451	0.311893	0.274503
	H373	H	0.518403	0.335991	0.256018
	H374	H	0.533347	0.304524	0.258536
	O375	O	-0.085749	1.110798	0.929433
	H376	H	-0.094214	1.113216	0.937026
	H377	H	-0.073277	1.116944	0.923595
	O378	O	0.496992	0.728959	0.280484
	H379	H	0.505683	0.752534	0.273545
	H380	H	0.512837	0.721632	0.301620
	O381	O	1.018873	0.112484	-0.067476
	H382	H	1.026388	0.115578	-0.070624
	H383	H	1.021579	0.114573	-0.057561
	O384	O	0.244915	-0.030624	1.044585
	H385	H	0.241702	-0.043834	1.029901
	H386	H	0.236958	-0.028392	1.028706
	O387	O	0.016447	0.867008	0.883998
	H388	H	0.015780	0.876350	0.875484
	H389	H	0.018733	0.854434	0.884305
	O390	O	-0.191863	0.133917	0.966379
	H391	H	-0.177518	0.130374	0.983717
	H392	H	-0.201368	0.146450	0.979977
	O393	O	1.036059	1.237323	0.197279
	H394	H	1.055289	1.263287	0.214075
	H395	H	1.074997	1.236534	0.194189
	O396	O	0.152992	-0.178607	1.107545
	H397	H	0.125176	-0.164222	1.114732
	H398	H	0.139475	-0.169669	1.091347
	O399	O	0.008106	1.226291	-0.229063
	H400	H	-0.000712	1.242489	-0.228816
	H401	H	-0.011310	1.223377	-0.238222
	O402	O	-0.465856	-0.664388	0.491699
	H403	H	-0.437183	-0.660134	0.464718
	H404	H	-0.466052	-0.643062	0.488234
	O405	O	-0.122612	0.089153	-0.001087
	H406	H	-0.113744	0.091015	0.004623
	H407	H	-0.137672	0.099677	-0.007360
	O408	O	0.451689	0.584492	0.691490
	H409	H	0.454296	0.571097	0.702749
	H410	H	0.440627	0.567422	0.686513
	O411	O	0.555459	0.677529	0.689107
	H412	H	0.545573	0.682996	0.677323
	H413	H	0.529396	0.661353	0.700479
	O414	O	0.731461	0.598941	0.404828
	H415	H	0.728208	0.577467	0.437399
	H416	H	0.736674	0.635357	0.426287
	O417	O	0.611180	0.429079	0.660937
	H418	H	0.602289	0.446853	0.662975
	H419	H	0.599130	0.423935	0.641417
	O420	O	0.731756	0.536606	0.691203
	H421	H	0.751093	0.553492	0.705678
	H422	H	0.724680	0.556562	0.687260
	O423	O	-0.488677	0.468232	0.375746
	H424	H	-0.489839	0.471847	0.364982
	H425	H	-0.489880	0.478844	0.377556
	O426	O	1.304964	0.737871	1.446936
	H427	H	1.303367	0.741161	1.415668
	H428	H	1.283248	0.755188	1.440006
	O429	O	-0.179921	-0.176914	1.042903
	H430	H	-0.210660	-0.178012	1.047572
	H431	H	-0.176257	-0.175010	1.069896
	O432	O	1.194205	0.201225	1.163375
	H433	H	1.204974	0.182476	1.141513
	H434	H	1.205457	0.180468	1.140947
	O435	O	-0.194842	0.047433	-0.240354
	H436	H	-0.212584	0.061706	-0.245501
	H437	H	-0.206497	0.070870	-0.250455
	O438	O	1.008235	-0.167535	0.169399
	H439	H	0.999488	-0.163519	0.169761
	H440	H	1.020142	-0.159801	0.174053
	O441	O	-0.081460	0.106638	1.195257
	H442	H	-0.064825	0.129899	1.199042
	H443	H	-0.075081	0.111595	1.190580
	O444	O	0.601382	0.636050	0.287736
	H445	H	0.627532	0.620360	0.298260
	H446	H	0.599066	0.657056	0.290362
	O447	O	0.479630	0.475812	0.259223
	H448	H	0.468312	0.495940	0.256068
	H449	H	0.470289	0.494623	0.268896
	O450	O	0.211145	0.835825	0.795407
	H451	H	0.198336	0.824220	0.825144
	H452	H	0.205849	0.867029	0.782758
	O453	O	0.811268	0.233720	0.771740
	H454	H	0.807290	0.243490	0.804315
	H455	H	0.795419	0.258228	0.756489
	O456	O	0.349823	-0.532736	-0.531901
	H457	H	0.341047	-0.544371	-0.522040
	H458	H	0.340869	-0.515736	-0.523598
	O459	O	0.716396	0.713298	0.673377
	H460	H	0.680019	0.712013	0.681563
	H461	H	0.724793	0.738558	0.684931
	O462	O	0.241138	0.996160	-0.239916
	H463	H	0.240907	0.987635	-0.252618
	H464	H	0.255044	1.006987	-0.253734
	O465	O	0.964793	0.227771	-0.001717
	H466	H	0.983070	0.224207	-0.008778
	H467	H	0.980873	0.229810	0.001093
