data_Molecule from HDF5

_cell_length_a		16.255833
_cell_length_b		16.296035
_cell_length_c		16.162505
_cell_angle_alpha	90.005310
_cell_angle_beta	89.882822
_cell_angle_gamma	90.139951
_symmetry_space_group_name_H-M	'P 1'
_symmetry_Int_Tables_number		1

loop_
	_symmetry_equiv_pos_as_xyz
	x,y,z

loop_
	_atom_site_label
	_atom_site_type_symbol
	_atom_site_fract_x
	_atom_site_fract_y
	_atom_site_fract_z
	H0	H	0.402732	0.836420	0.713442
	H1	H	0.597620	0.163939	0.713061
	H2	H	0.597032	0.836191	0.287967
	H3	H	0.404138	0.163661	0.286531
	H4	H	0.713181	0.402367	0.834732
	H5	H	0.712522	0.596658	0.164570
	H6	H	0.288186	0.595437	0.834364
	H7	H	0.285266	0.400758	0.164311
	H8	H	0.836155	0.713667	0.402229
	H9	H	0.163532	0.715774	0.599335
	H10	H	0.836227	0.285334	0.598436
	H11	H	0.163469	0.285235	0.399901
	H12	H	0.835203	0.402879	0.712975
	H13	H	0.164620	0.596150	0.712153
	H14	H	0.835190	0.595311	0.288068
	H15	H	0.164751	0.403686	0.286895
	H16	H	0.402005	0.713827	0.835370
	H17	H	0.598133	0.712706	0.164860
	H18	H	0.598144	0.287340	0.834856
	H19	H	0.402253	0.287145	0.164574
	H20	H	0.714430	0.836823	0.402144
	H21	H	0.715374	0.163438	0.599562
	H22	H	0.284443	0.836442	0.599675
	H23	H	0.285890	0.163383	0.401285
	H24	H	0.901454	0.335776	0.213432
	H25	H	0.097853	0.663318	0.212755
	H26	H	0.096091	0.335464	0.786977
	H27	H	0.903815	0.664589	0.787028
	H28	H	0.212244	0.902721	0.334917
	H29	H	0.212470	0.097655	0.664936
	H30	H	0.787627	0.096401	0.335185
	H31	H	0.786233	0.901843	0.664728
	H32	H	0.336487	0.214590	0.901393
	H33	H	0.663642	0.215557	0.098032
	H34	H	0.335960	0.785582	0.099119
	H35	H	0.663789	0.786292	0.901423
	H36	H	0.336125	0.903501	0.213876
	H37	H	0.665371	0.097554	0.212206
	H38	H	0.335737	0.096141	0.787110
	H39	H	0.664682	0.902437	0.786221
	H40	H	0.903057	0.212307	0.334827
	H41	H	0.097980	0.214375	0.664556
	H42	H	0.097820	0.787053	0.335347
	H43	H	0.901138	0.786772	0.664730
	H44	H	0.213241	0.335626	0.901568
	H45	H	0.215491	0.662417	0.098765
	H46	H	0.784029	0.336454	0.098625
	H47	H	0.786928	0.663845	0.901790
	H48	H	0.409683	0.116475	0.596556
	H49	H	0.585617	0.885042	0.595025
	H50	H	0.596892	0.116839	0.412326
	H51	H	0.411571	0.886771	0.414127
	H52	H	0.599199	0.404464	0.119846
	H53	H	0.609206	0.589927	0.877764
	H54	H	0.409336	0.593689	0.117238
	H55	H	0.403088	0.412852	0.882016
	H56	H	0.119188	0.592858	0.398524
	H57	H	0.886345	0.583850	0.591536
	H58	H	0.117255	0.403366	0.587305
	H59	H	0.882488	0.401917	0.409720
	H60	H	0.116199	0.412449	0.594563
	H61	H	0.878755	0.597029	0.602964
	H62	H	0.118575	0.601926	0.409243
	H63	H	0.884500	0.409930	0.407862
	H64	H	0.405232	0.594381	0.118621
	H65	H	0.583260	0.581863	0.887944
	H66	H	0.592397	0.413559	0.116050
	H67	H	0.413713	0.405394	0.884041
	H68	H	0.598207	0.119811	0.402546
	H69	H	0.597024	0.884471	0.585491
	H70	H	0.405702	0.115694	0.588580
	H71	H	0.396202	0.880259	0.408588
	H72	H	0.909934	0.614965	0.091966
	H73	H	0.095987	0.379521	0.102086
	H74	H	0.087055	0.609477	0.924545
	H75	H	0.909734	0.383599	0.904435
	H76	H	0.088336	0.918592	0.613382
	H77	H	0.088542	0.090617	0.384273
	H78	H	0.905150	0.094939	0.619159
	H79	H	0.899851	0.898995	0.378367
	H80	H	0.616014	0.094236	0.910281
	H81	H	0.380693	0.096253	0.101424
	H82	H	0.618426	0.907620	0.099716
	H83	H	0.383012	0.906278	0.907398
	H84	H	0.619613	0.899637	0.092812
	H85	H	0.383134	0.099684	0.087831
	H86	H	0.617744	0.091524	0.904714
	H87	H	0.383087	0.906108	0.906952
	H88	H	0.906740	0.091761	0.617744
	H89	H	0.093214	0.100048	0.380729
	H90	H	0.084046	0.897850	0.618302
	H91	H	0.903669	0.915525	0.383332
	H92	H	0.115969	0.623069	0.904887
	H93	H	0.083355	0.385458	0.090856
	H94	H	0.902377	0.616454	0.090965
	H95	H	0.904787	0.383603	0.910678
	H96	H	0.401281	0.119050	0.595813
	H97	H	0.598249	0.879735	0.599831
	H98	H	0.588853	0.116602	0.405413
	H99	H	0.409792	0.881420	0.397372
	H100	H	0.587423	0.402604	0.117110
	H101	H	0.587737	0.608901	0.878514
	H102	H	0.406828	0.591058	0.116953
	H103	H	0.402585	0.400511	0.878483
	H104	H	0.114427	0.588884	0.411538
	H105	H	0.883400	0.601082	0.584510
	H106	H	0.119739	0.402420	0.598279
	H107	H	0.881088	0.404429	0.402348
	H108	H	0.906201	0.618602	0.098177
	H109	H	0.099653	0.382286	0.084873
	H110	H	0.082980	0.618834	0.887932
	H111	H	0.902294	0.381433	0.903961
	H112	H	0.103757	0.906057	0.621925
	H113	H	0.099343	0.090542	0.380598
	H114	H	0.909168	0.094955	0.618097
	H115	H	0.915837	0.903346	0.383597
	H116	H	0.617694	0.097479	0.906375
	H117	H	0.385571	0.086581	0.092473
	H118	H	0.615540	0.909147	0.088785
	H119	H	0.382830	0.905659	0.907755
	C120	C	0.377756	0.008563	0.621936
	C121	C	0.622011	0.991294	0.621868
	C122	C	0.622263	0.009370	0.378674
	C123	C	0.378399	0.991260	0.378720
	C124	C	0.621115	0.379143	0.008403
	C125	C	0.621153	0.621374	0.990792
	C126	C	0.378527	0.620942	0.008440
	C127	C	0.378291	0.378157	0.990838
	C128	C	0.008518	0.621870	0.378512
	C129	C	0.991642	0.622022	0.621301
	C130	C	0.008725	0.378393	0.621514
	C131	C	0.991262	0.378006	0.378299
	C132	C	0.877571	0.508064	0.121688
	C133	C	0.121359	0.490842	0.121168
	C134	C	0.122373	0.508464	0.877645
	C135	C	0.878483	0.491642	0.878450
	C136	C	0.120688	0.878978	0.508863
	C137	C	0.121669	0.121838	0.491078
	C138	C	0.878902	0.121176	0.509001
	C139	C	0.878242	0.878281	0.491109
	C140	C	0.508306	0.121822	0.878861
	C141	C	0.491750	0.122154	0.121888
	C142	C	0.509071	0.878179	0.121997
	C143	C	0.491543	0.878250	0.878812
	C144	C	0.381442	0.885192	0.676342
	C145	C	0.618535	0.114975	0.675877
	C146	C	0.618406	0.885403	0.324811
	C147	C	0.382832	0.114966	0.324268
	C148	C	0.675806	0.381865	0.884111
	C149	C	0.675256	0.617800	0.115348
	C150	C	0.324656	0.617287	0.883971
	C151	C	0.323367	0.380672	0.115157
	C152	C	0.885026	0.676016	0.381438
	C153	C	0.115107	0.676895	0.618787
	C154	C	0.884821	0.323840	0.618636
	C155	C	0.114967	0.323715	0.380472
	C156	C	0.884409	0.382351	0.675513
	C157	C	0.115507	0.617756	0.674863
	C158	C	0.884537	0.617112	0.324905
	C159	C	0.115447	0.382391	0.324153
	C160	C	0.381300	0.675773	0.884285
	C161	C	0.618755	0.675779	0.115255
	C162	C	0.618648	0.324789	0.884090
	C163	C	0.381364	0.324159	0.115402
	C164	C	0.676314	0.885605	0.381803
	C165	C	0.677166	0.114642	0.619525
	C166	C	0.322399	0.885537	0.620101
	C167	C	0.324416	0.114784	0.381397
	C168	C	0.881035	0.384584	0.175643
	C169	C	0.118491	0.614284	0.175587
	C170	C	0.117713	0.384487	0.824017
	C171	C	0.882188	0.615269	0.824043
	C172	C	0.175417	0.881866	0.384476
	C173	C	0.175188	0.118369	0.615674
	C174	C	0.825173	0.117307	0.384357
	C175	C	0.823986	0.881460	0.615685
	C176	C	0.385158	0.176346	0.881219
	C177	C	0.615088	0.177312	0.118826
	C178	C	0.384951	0.823912	0.119249
	C179	C	0.615070	0.823814	0.881274
	C180	C	0.384810	0.882332	0.176089
	C181	C	0.615951	0.118433	0.175082
	C182	C	0.384620	0.117570	0.824626
	C183	C	0.615595	0.881708	0.824110
	C184	C	0.882065	0.175120	0.384347
	C185	C	0.118517	0.176418	0.615457
	C186	C	0.118221	0.824740	0.384459
	C187	C	0.880790	0.824063	0.615510
	C188	C	0.175436	0.384573	0.881373
	C189	C	0.176583	0.614049	0.118729
	C190	C	0.822814	0.384900	0.118445
	C191	C	0.824316	0.614961	0.881187
	C192	C	0.399294	0.094910	0.600171
	C193	C	0.600126	0.905196	0.599859
	C194	C	0.601108	0.095378	0.400304
	C195	C	0.399597	0.905087	0.400388
	C196	C	0.599317	0.400534	0.095365
	C197	C	0.599705	0.599862	0.903908
	C198	C	0.400561	0.599298	0.095302
	C199	C	0.399973	0.399797	0.903893
	C200	C	0.095090	0.600886	0.400009
	C201	C	0.904973	0.600347	0.599500
	C202	C	0.095456	0.399738	0.599811
	C203	C	0.904942	0.399138	0.400212
	C204	C	0.899492	0.594408	0.100125
	C205	C	0.099593	0.404634	0.099102
	C206	C	0.101577	0.594874	0.899236
	C207	C	0.899387	0.405316	0.899830
	C208	C	0.098612	0.900963	0.595515
	C209	C	0.100126	0.100225	0.404294
	C210	C	0.900528	0.099954	0.595891
	C211	C	0.899957	0.899744	0.404186
	C212	C	0.594857	0.100711	0.900591
	C213	C	0.405442	0.100621	0.100386
	C214	C	0.595438	0.899276	0.100309
	C215	C	0.405228	0.899695	0.900646
	Zn216	Zn	0.499937	-0.000033	0.750461
	Zn217	Zn	0.500764	0.000206	0.250314
	Zn218	Zn	0.748982	0.500095	-0.000435
	Zn219	Zn	0.250319	0.499661	0.000127
	Zn220	Zn	-0.000183	0.750915	0.500127
	Zn221	Zn	0.000210	0.249469	0.499794
	Zn222	Zn	-0.000074	0.500252	0.749746
	Zn223	Zn	0.000157	0.499623	0.249851
	Zn224	Zn	0.499964	0.749531	0.000064
	Zn225	Zn	0.500229	0.251089	-0.000097
	Zn226	Zn	0.750591	0.000122	0.500191
	Zn227	Zn	0.249114	-0.000289	0.500048
	N228	N	0.415281	0.962757	0.677562
	N229	N	0.584872	0.037404	0.677488
	N230	N	0.585469	0.963148	0.322812
	N231	N	0.415662	0.037307	0.322560
	N232	N	0.677269	0.415171	0.962257
	N233	N	0.677160	0.584909	0.037026
	N234	N	0.323121	0.584003	0.962162
	N235	N	0.321549	0.413658	0.036815
	N236	N	0.963181	0.678959	0.414082
	N237	N	0.036976	0.679612	0.586368
	N238	N	0.963146	0.321261	0.585832
	N239	N	0.036835	0.321014	0.413494
	N240	N	0.962339	0.415429	0.677302
	N241	N	0.037729	0.584220	0.676372
	N242	N	0.962304	0.584032	0.323210
	N243	N	0.037677	0.415268	0.322621
	N244	N	0.414260	0.678099	0.962665
	N245	N	0.585694	0.678078	0.036923
	N246	N	0.585486	0.322821	0.962383
	N247	N	0.414862	0.322511	0.037189
	N248	N	0.678745	0.963471	0.414646
	N249	N	0.679443	0.036787	0.586748
	N250	N	0.320245	0.963110	0.587017
	N251	N	0.321631	0.037152	0.414540
	N252	N	0.914502	0.462240	0.177681
	N253	N	0.084557	0.536802	0.176928
	N254	N	0.085355	0.462426	0.821619
	N255	N	0.915161	0.537654	0.822190
	N256	N	0.176878	0.915144	0.462651
	N257	N	0.177337	0.085160	0.537319
	N258	N	0.822944	0.084745	0.462860
	N259	N	0.821971	0.914400	0.537412
	N260	N	0.463025	0.178886	0.914341
	N261	N	0.536948	0.179800	0.086364
	N262	N	0.463010	0.821174	0.086406
	N263	N	0.537141	0.821741	0.914489
	N264	N	0.462751	0.915288	0.178085
	N265	N	0.538371	0.084597	0.176859
	N266	N	0.462301	0.084585	0.823102
	N267	N	0.537747	0.914958	0.822280
	N268	N	0.914882	0.177499	0.462678
	N269	N	0.085824	0.178504	0.537227
	N270	N	0.085081	0.822682	0.462839
	N271	N	0.913725	0.821899	0.537071
	N272	N	0.178544	0.462562	0.913931
	N273	N	0.178464	0.536280	0.085770
	N274	N	0.820541	0.462756	0.085766
	N275	N	0.822079	0.537207	0.914527
