data_Molecule from HDF5

_cell_length_a		16.361048
_cell_length_b		16.099784
_cell_length_c		16.188899
_cell_angle_alpha	90.362856
_cell_angle_beta	90.032742
_cell_angle_gamma	90.216156
_symmetry_space_group_name_H-M	'P 1'
_symmetry_Int_Tables_number		1

loop_
	_symmetry_equiv_pos_as_xyz
	x,y,z

loop_
	_atom_site_label
	_atom_site_type_symbol
	_atom_site_fract_x
	_atom_site_fract_y
	_atom_site_fract_z
	H0	H	0.407887	0.836574	0.706012
	H1	H	0.601948	0.168667	0.712149
	H2	H	0.600824	0.838315	0.284487
	H3	H	0.407334	0.168463	0.286073
	H4	H	0.718334	0.399858	0.834395
	H5	H	0.718096	0.604022	0.162091
	H6	H	0.285986	0.601278	0.833981
	H7	H	0.287511	0.402785	0.162474
	H8	H	0.838984	0.715362	0.403421
	H9	H	0.167212	0.719368	0.597456
	H10	H	0.841447	0.286488	0.597071
	H11	H	0.167070	0.290918	0.398660
	H12	H	0.839833	0.404044	0.711518
	H13	H	0.165978	0.603801	0.714693
	H14	H	0.839978	0.601698	0.284415
	H15	H	0.165755	0.405028	0.282509
	H16	H	0.407036	0.712196	0.831952
	H17	H	0.598848	0.716016	0.162630
	H18	H	0.597297	0.290603	0.833049
	H19	H	0.406587	0.291499	0.163993
	H20	H	0.716996	0.839223	0.397760
	H21	H	0.719327	0.167971	0.599735
	H22	H	0.288270	0.839256	0.596885
	H23	H	0.292198	0.168770	0.398921
	H24	H	0.905127	0.336923	0.209534
	H25	H	0.098871	0.668488	0.210986
	H26	H	0.100245	0.337869	0.782484
	H27	H	0.906449	0.668654	0.788183
	H28	H	0.218233	0.903392	0.332872
	H29	H	0.221580	0.107259	0.661013
	H30	H	0.786799	0.105424	0.334160
	H31	H	0.786625	0.903441	0.660853
	H32	H	0.339077	0.213637	0.901967
	H33	H	0.666438	0.218677	0.096710
	H34	H	0.340027	0.789206	0.093239
	H35	H	0.666599	0.787563	0.898262
	H36	H	0.341115	0.903195	0.212153
	H37	H	0.666063	0.103641	0.212745
	H38	H	0.340978	0.100189	0.782595
	H39	H	0.667270	0.902671	0.781992
	H40	H	0.909832	0.213263	0.331236
	H41	H	0.101535	0.217597	0.662801
	H42	H	0.098078	0.791839	0.331983
	H43	H	0.908310	0.794266	0.663736
	H44	H	0.215328	0.337137	0.897772
	H45	H	0.217234	0.666793	0.099839
	H46	H	0.788334	0.337818	0.096439
	H47	H	0.788524	0.666603	0.898854
	H48	H	0.413203	0.121728	0.590490
	H49	H	0.598527	0.884099	0.591362
	H50	H	0.600359	0.124895	0.402383
	H51	H	0.414735	0.883021	0.394635
	H52	H	0.597065	0.413481	0.115957
	H53	H	0.597855	0.589131	0.881105
	H54	H	0.411755	0.600552	0.115556
	H55	H	0.414255	0.408850	0.882866
	H56	H	0.117601	0.597831	0.412136
	H57	H	0.885412	0.604875	0.592877
	H58	H	0.117590	0.415858	0.587923
	H59	H	0.887548	0.410492	0.403855
	H60	H	0.119657	0.414073	0.594272
	H61	H	0.889103	0.595533	0.587798
	H62	H	0.119519	0.591120	0.399911
	H63	H	0.885292	0.407353	0.401440
	H64	H	0.403255	0.596398	0.117773
	H65	H	0.593568	0.594993	0.880263
	H66	H	0.595820	0.410038	0.115983
	H67	H	0.404226	0.402810	0.877940
	H68	H	0.592000	0.121323	0.404996
	H69	H	0.593956	0.885395	0.589314
	H70	H	0.410952	0.122388	0.591077
	H71	H	0.416424	0.888611	0.412966
	H72	H	0.907439	0.621616	0.090926
	H73	H	0.093036	0.384602	0.089500
	H74	H	0.101162	0.618696	0.916982
	H75	H	0.905386	0.384509	0.911205
	H76	H	0.100542	0.916653	0.614518
	H77	H	0.094180	0.098039	0.380021
	H78	H	0.918720	0.099045	0.612492
	H79	H	0.905834	0.915113	0.380302
	H80	H	0.621957	0.099040	0.899147
	H81	H	0.387888	0.098911	0.084918
	H82	H	0.622601	0.902938	0.090782
	H83	H	0.385716	0.902642	0.899210
	H84	H	0.617876	0.913014	0.084840
	H85	H	0.388449	0.088417	0.095039
	H86	H	0.618658	0.100156	0.910832
	H87	H	0.389206	0.908190	0.907949
	H88	H	0.905074	0.099505	0.617547
	H89	H	0.103509	0.099612	0.377742
	H90	H	0.095124	0.912337	0.614569
	H91	H	0.913934	0.911291	0.381413
	H92	H	0.101955	0.624972	0.899232
	H93	H	0.097977	0.383019	0.088874
	H94	H	0.908768	0.622365	0.094369
	H95	H	0.906567	0.380901	0.898659
	H96	H	0.412596	0.122038	0.592295
	H97	H	0.598510	0.885778	0.585379
	H98	H	0.599055	0.121273	0.411823
	H99	H	0.399367	0.882267	0.406306
	H100	H	0.599308	0.412015	0.116594
	H101	H	0.600508	0.595760	0.878717
	H102	H	0.410140	0.590263	0.112840
	H103	H	0.403991	0.414644	0.880529
	H104	H	0.122520	0.604805	0.400635
	H105	H	0.886621	0.595116	0.598469
	H106	H	0.119968	0.409057	0.589714
	H107	H	0.885757	0.406125	0.405661
	H108	H	0.911445	0.620841	0.091623
	H109	H	0.096265	0.382729	0.093538
	H110	H	0.085205	0.617791	0.906271
	H111	H	0.916704	0.386439	0.905296
	H112	H	0.101482	0.910173	0.616617
	H113	H	0.100571	0.091034	0.381627
	H114	H	0.910531	0.087610	0.612908
	H115	H	0.907042	0.905901	0.378130
	H116	H	0.617253	0.089179	0.905560
	H117	H	0.383239	0.101197	0.097638
	H118	H	0.620632	0.913640	0.096892
	H119	H	0.387775	0.912757	0.897440
	C120	C	0.383261	0.012406	0.618641
	C121	C	0.625376	0.994468	0.618379
	C122	C	0.625131	0.013061	0.376510
	C123	C	0.382934	0.994060	0.376590
	C124	C	0.624901	0.381665	0.007170
	C125	C	0.625232	0.623425	0.988999
	C126	C	0.380505	0.623399	0.006432
	C127	C	0.380262	0.380873	0.989625
	C128	C	0.011635	0.625445	0.376658
	C129	C	0.994827	0.627023	0.621863
	C130	C	0.011734	0.382717	0.619339
	C131	C	0.994334	0.381052	0.375504
	C132	C	0.881236	0.511597	0.119487
	C133	C	0.123361	0.493439	0.119460
	C134	C	0.123827	0.511335	0.877185
	C135	C	0.881722	0.493518	0.877335
	C136	C	0.125663	0.883575	0.505934
	C137	C	0.127330	0.125941	0.488657
	C138	C	0.883200	0.124485	0.505775
	C139	C	0.881307	0.882464	0.488934
	C140	C	0.511795	0.124173	0.876473
	C141	C	0.494586	0.125523	0.120687
	C142	C	0.512286	0.881142	0.119169
	C143	C	0.495360	0.879526	0.873619
	C144	C	0.386164	0.886919	0.670952
	C145	C	0.622817	0.119245	0.674299
	C146	C	0.621748	0.888040	0.321234
	C147	C	0.386748	0.119170	0.323174
	C148	C	0.679785	0.381432	0.883398
	C149	C	0.679884	0.622806	0.112992
	C150	C	0.324916	0.621174	0.882706
	C151	C	0.325321	0.382837	0.113345
	C152	C	0.888054	0.678624	0.381278
	C153	C	0.118210	0.681785	0.618662
	C154	C	0.889579	0.325387	0.617462
	C155	C	0.117867	0.327918	0.378525
	C156	C	0.888854	0.384224	0.674143
	C157	C	0.117377	0.624532	0.677144
	C158	C	0.888563	0.621953	0.322535
	C159	C	0.117209	0.384302	0.320395
	C160	C	0.385101	0.676318	0.881653
	C161	C	0.620632	0.678630	0.113329
	C162	C	0.619658	0.327141	0.882600
	C163	C	0.385033	0.327891	0.114269
	C164	C	0.679178	0.888285	0.377686
	C165	C	0.681031	0.118921	0.618441
	C166	C	0.327005	0.888204	0.616277
	C167	C	0.329264	0.119097	0.378978
	C168	C	0.884514	0.386529	0.172590
	C169	C	0.120066	0.618758	0.174118
	C170	C	0.120631	0.386944	0.820716
	C171	C	0.885156	0.618575	0.824042
	C172	C	0.180082	0.884188	0.382056
	C173	C	0.182992	0.126104	0.612244
	C174	C	0.826585	0.123831	0.382541
	C175	C	0.825707	0.884381	0.612294
	C176	C	0.388277	0.177409	0.880133
	C177	C	0.617734	0.180519	0.117148
	C178	C	0.388954	0.826735	0.114647
	C179	C	0.617944	0.825151	0.877355
	C180	C	0.389533	0.883142	0.173928
	C181	C	0.617456	0.123569	0.175128
	C182	C	0.389175	0.120828	0.821036
	C183	C	0.618207	0.882373	0.819365
	C184	C	0.887647	0.177310	0.381059
	C185	C	0.123646	0.181344	0.613071
	C186	C	0.120353	0.828732	0.381535
	C187	C	0.886135	0.829893	0.613721
	C188	C	0.178114	0.386778	0.877552
	C189	C	0.178949	0.617757	0.119153
	C190	C	0.826548	0.387060	0.116365
	C191	C	0.826776	0.617781	0.879217
	C192	C	0.405579	0.099493	0.597429
	C193	C	0.603478	0.907543	0.595414
	C194	C	0.603574	0.099982	0.399484
	C195	C	0.403988	0.907073	0.398287
	C196	C	0.603661	0.404997	0.093822
	C197	C	0.603701	0.600197	0.902375
	C198	C	0.402125	0.601947	0.093044
	C199	C	0.401236	0.402566	0.902859
	C200	C	0.097629	0.604452	0.398008
	C201	C	0.909196	0.605092	0.599553
	C202	C	0.096901	0.406047	0.597075
	C203	C	0.908457	0.401790	0.397339
	C204	C	0.902633	0.599008	0.098337
	C205	C	0.102060	0.406049	0.097217
	C206	C	0.102416	0.598223	0.900539
	C207	C	0.903258	0.406402	0.898786
	C208	C	0.105005	0.906291	0.592803
	C209	C	0.105771	0.102937	0.402193
	C210	C	0.905025	0.102018	0.592037
	C211	C	0.902802	0.904350	0.402211
	C212	C	0.597182	0.102639	0.898657
	C213	C	0.408728	0.102999	0.098809
	C214	C	0.598097	0.903408	0.097454
	C215	C	0.409668	0.901491	0.895210
	Zn216	Zn	0.504585	0.002597	0.745980
	Zn217	Zn	0.503783	0.003390	0.248976
	Zn218	Zn	0.754276	0.502541	-0.002175
	Zn219	Zn	0.251854	0.501905	-0.001537
	Zn220	Zn	0.003577	0.755232	0.498401
	Zn221	Zn	0.004141	0.252691	0.497203
	Zn222	Zn	0.002353	0.503495	0.749860
	Zn223	Zn	0.002470	0.502684	0.247426
	Zn224	Zn	0.503420	0.751514	-0.002971
	Zn225	Zn	0.502674	0.253791	-0.001408
	Zn226	Zn	0.753083	0.004394	0.497524
	Zn227	Zn	0.255760	0.004229	0.497431
	N228	N	0.420412	0.965220	0.672695
	N229	N	0.589188	0.040910	0.674566
	N230	N	0.588779	0.966639	0.320462
	N231	N	0.419285	0.040409	0.321205
	N232	N	0.683144	0.414707	0.961931
	N233	N	0.682813	0.589212	0.034519
	N234	N	0.321849	0.589245	0.961257
	N235	N	0.322307	0.415121	0.034796
	N236	N	0.965560	0.680927	0.414276
	N237	N	0.041103	0.683662	0.584850
	N238	N	0.966830	0.324214	0.584032
	N239	N	0.040546	0.325538	0.412093
	N240	N	0.965814	0.419140	0.675560
	N241	N	0.039705	0.591540	0.679458
	N242	N	0.966278	0.589497	0.319594
	N243	N	0.039635	0.416875	0.318647
	N244	N	0.418870	0.677864	0.959543
	N245	N	0.587360	0.678950	0.035272
	N246	N	0.586136	0.327242	0.960523
	N247	N	0.418551	0.326653	0.036365
	N248	N	0.681594	0.966903	0.411292
	N249	N	0.682917	0.040270	0.584508
	N250	N	0.325036	0.967271	0.584712
	N251	N	0.326744	0.040494	0.411545
	N252	N	0.917769	0.465070	0.174698
	N253	N	0.086516	0.540234	0.174880
	N254	N	0.087747	0.465499	0.820248
	N255	N	0.918510	0.540256	0.822814
	N256	N	0.183191	0.917863	0.460400
	N257	N	0.185332	0.092226	0.534010
	N258	N	0.823878	0.091424	0.461011
	N259	N	0.822606	0.916301	0.533628
	N260	N	0.465514	0.179647	0.913857
	N261	N	0.540197	0.182115	0.084296
	N262	N	0.466372	0.825288	0.081321
	N263	N	0.540520	0.823289	0.910457
	N264	N	0.467152	0.916442	0.176737
	N265	N	0.539963	0.089937	0.177403
	N266	N	0.466778	0.088432	0.818592
	N267	N	0.540930	0.915674	0.817110
	N268	N	0.922040	0.177920	0.458704
	N269	N	0.089572	0.181293	0.535343
	N270	N	0.087473	0.828030	0.459725
	N271	N	0.920049	0.828806	0.536000
	N272	N	0.180206	0.465043	0.912112
	N273	N	0.180792	0.539066	0.085487
	N274	N	0.824584	0.465843	0.084106
	N275	N	0.824371	0.539052	0.911606
	O276	O	1.059465	0.939794	-0.054883
	H277	H	1.066806	0.943248	-0.055325
	H278	H	1.057550	0.950592	-0.047336
	O279	O	0.007505	-0.061507	-0.105301
	H280	H	0.013349	-0.064070	-0.101164
	H281	H	0.005186	-0.055574	-0.110921
	O282	O	0.017404	-0.023215	0.977640
	H283	H	0.014820	-0.018706	0.973194
	H284	H	0.009241	-0.016698	0.972326
	O285	O	0.462616	0.498562	0.533296
	H286	H	0.451774	0.500451	0.529992
	H287	H	0.467491	0.496046	0.528249
	O288	O	0.501034	0.501369	0.559253
	H289	H	0.500074	0.512955	0.570771
	H290	H	0.513935	0.504761	0.559753
	O291	O	0.523941	0.479418	0.503251
	H292	H	0.524593	0.487074	0.503919
	H293	H	0.528997	0.484218	0.505852
	O294	O	-0.501772	-0.525022	0.507886
	H295	H	-0.496523	-0.527908	0.506844
	H296	H	-0.507468	-0.531498	0.508030
	O297	O	0.523501	0.601860	0.526875
	H298	H	0.535427	0.604103	0.525282
	H299	H	0.516974	0.600889	0.513890
	O300	O	0.036837	0.981028	0.966761
	H301	H	0.032844	0.978308	0.958098
	H302	H	0.028860	0.982119	0.968764
	O303	O	0.489651	0.472563	0.526390
	H304	H	0.489149	0.464869	0.523478
	H305	H	0.483251	0.472495	0.532315
	O306	O	0.031499	-0.044859	0.930829
	H307	H	0.032628	-0.048551	0.921640
	H308	H	0.032866	-0.046719	0.928712
	O309	O	0.992352	1.007049	0.985928
	H310	H	0.991137	1.014533	0.977252
	H311	H	0.986434	1.000548	0.984739
	O312	O	0.508318	0.464507	0.532705
	H313	H	0.503909	0.459427	0.533024
	H314	H	0.504603	0.471362	0.548334
	O315	O	0.502701	0.470624	0.535716
	H316	H	0.505823	0.470845	0.525561
	H317	H	0.505513	0.473730	0.528742
	O318	O	0.000557	0.991745	-0.093815
	H319	H	0.005437	0.986293	-0.094355
	H320	H	0.005309	0.980731	-0.092970
	O321	O	0.987321	0.907309	-0.057024
	H322	H	0.997896	0.914074	-0.054233
	H323	H	0.986944	0.894212	-0.066586
