data_Molecule from HDF5

_cell_length_a		16.184531
_cell_length_b		16.091854
_cell_length_c		16.246710
_cell_angle_alpha	90.826503
_cell_angle_beta	90.552397
_cell_angle_gamma	90.433423
_symmetry_space_group_name_H-M	'P 1'
_symmetry_Int_Tables_number		1

loop_
	_symmetry_equiv_pos_as_xyz
	x,y,z

loop_
	_atom_site_label
	_atom_site_type_symbol
	_atom_site_fract_x
	_atom_site_fract_y
	_atom_site_fract_z
	H0	H	0.406544	0.838628	0.706282
	H1	H	0.608036	0.169543	0.714051
	H2	H	0.604121	0.842401	0.278577
	H3	H	0.406291	0.170994	0.285239
	H4	H	0.715851	0.402873	0.833049
	H5	H	0.722268	0.609103	0.160103
	H6	H	0.287062	0.599635	0.832955
	H7	H	0.291206	0.407292	0.161726
	H8	H	0.838808	0.711157	0.400658
	H9	H	0.169591	0.721872	0.599944
	H10	H	0.840349	0.290542	0.590901
	H11	H	0.170080	0.290873	0.398572
	H12	H	0.840192	0.404047	0.708094
	H13	H	0.168307	0.608206	0.716943
	H14	H	0.841600	0.601843	0.280912
	H15	H	0.170086	0.404204	0.282543
	H16	H	0.405319	0.712843	0.830786
	H17	H	0.606050	0.723563	0.159887
	H18	H	0.598600	0.289782	0.832289
	H19	H	0.407577	0.292449	0.161692
	H20	H	0.713234	0.838766	0.397134
	H21	H	0.722363	0.168702	0.601721
	H22	H	0.289824	0.839280	0.591366
	H23	H	0.291471	0.170565	0.398482
	H24	H	0.907177	0.338136	0.205673
	H25	H	0.108023	0.668431	0.215353
	H26	H	0.102225	0.339185	0.781028
	H27	H	0.904157	0.669565	0.782692
	H28	H	0.216473	0.902330	0.331164
	H29	H	0.223010	0.107760	0.659085
	H30	H	0.789014	0.097097	0.333238
	H31	H	0.791873	0.907381	0.661919
	H32	H	0.338914	0.211669	0.900104
	H33	H	0.668908	0.221972	0.097729
	H34	H	0.338914	0.792554	0.089279
	H35	H	0.669443	0.790171	0.897155
	H36	H	0.339996	0.905912	0.208479
	H37	H	0.669189	0.110015	0.214969
	H38	H	0.341947	0.101593	0.781386
	H39	H	0.670160	0.905712	0.782523
	H40	H	0.906582	0.212124	0.330931
	H41	H	0.106655	0.222116	0.659411
	H42	H	0.100068	0.786812	0.332174
	H43	H	0.908927	0.793566	0.662606
	H44	H	0.213926	0.338295	0.898478
	H45	H	0.221303	0.669435	0.099968
	H46	H	0.790993	0.338744	0.091328
	H47	H	0.791798	0.670824	0.900024
	H48	H	0.411827	0.123232	0.588798
	H49	H	0.586592	0.884797	0.599287
	H50	H	0.595104	0.125420	0.403374
	H51	H	0.401997	0.884569	0.402142
	H52	H	0.595728	0.418019	0.112667
	H53	H	0.602187	0.585627	0.880449
	H54	H	0.413569	0.593389	0.112325
	H55	H	0.410792	0.412803	0.882192
	H56	H	0.117140	0.589153	0.421575
	H57	H	0.890556	0.586116	0.589803
	H58	H	0.124508	0.410649	0.595388
	H59	H	0.886081	0.402650	0.402116
	H60	H	0.121984	0.412264	0.584193
	H61	H	0.882575	0.601137	0.600603
	H62	H	0.125042	0.587410	0.391969
	H63	H	0.889115	0.412229	0.401791
	H64	H	0.419175	0.603418	0.113781
	H65	H	0.586986	0.597800	0.880783
	H66	H	0.598944	0.408395	0.115603
	H67	H	0.411149	0.402687	0.878237
	H68	H	0.597574	0.122205	0.413055
	H69	H	0.594130	0.891089	0.575086
	H70	H	0.412599	0.124574	0.593679
	H71	H	0.414872	0.884266	0.392501
	H72	H	0.918514	0.623691	0.096633
	H73	H	0.092807	0.384957	0.094546
	H74	H	0.099985	0.624280	0.904035
	H75	H	0.915507	0.389165	0.906361
	H76	H	0.103963	0.914740	0.614987
	H77	H	0.103071	0.108067	0.372781
	H78	H	0.914369	0.094653	0.613170
	H79	H	0.910237	0.908981	0.380981
	H80	H	0.623915	0.104459	0.909693
	H81	H	0.380986	0.108722	0.098811
	H82	H	0.624123	0.907016	0.085368
	H83	H	0.391164	0.918250	0.905880
	H84	H	0.618085	0.922694	0.084159
	H85	H	0.388512	0.100188	0.078918
	H86	H	0.622190	0.093439	0.907383
	H87	H	0.384280	0.911743	0.889061
	H88	H	0.917255	0.104185	0.614774
	H89	H	0.105803	0.086878	0.377863
	H90	H	0.098159	0.919483	0.610921
	H91	H	0.907734	0.902396	0.378617
	H92	H	0.092382	0.621848	0.907417
	H93	H	0.097543	0.387287	0.082874
	H94	H	0.918075	0.620966	0.085348
	H95	H	0.902318	0.384727	0.904456
	H96	H	0.416908	0.122863	0.589804
	H97	H	0.611504	0.879310	0.592786
	H98	H	0.604306	0.126447	0.406645
	H99	H	0.416689	0.890528	0.408176
	H100	H	0.604789	0.415941	0.116981
	H101	H	0.604324	0.603158	0.874247
	H102	H	0.407587	0.603541	0.116041
	H103	H	0.402018	0.408248	0.878834
	H104	H	0.128287	0.613784	0.406790
	H105	H	0.886919	0.603719	0.582032
	H106	H	0.121943	0.420570	0.592559
	H107	H	0.884714	0.408518	0.394395
	H108	H	0.908519	0.625581	0.091285
	H109	H	0.104694	0.381361	0.092518
	H110	H	0.098831	0.622220	0.912099
	H111	H	0.911523	0.384787	0.893586
	H112	H	0.095793	0.911242	0.612639
	H113	H	0.086302	0.095854	0.380842
	H114	H	0.908786	0.101580	0.616511
	H115	H	0.903818	0.908036	0.378957
	H116	H	0.626068	0.098870	0.898865
	H117	H	0.388088	0.086577	0.095941
	H118	H	0.624657	0.917140	0.098624
	H119	H	0.384870	0.899738	0.903630
	C120	C	0.384019	0.013705	0.617239
	C121	C	0.627163	0.994816	0.619208
	C122	C	0.625798	0.015024	0.377090
	C123	C	0.383173	0.996578	0.374190
	C124	C	0.625883	0.383534	0.006002
	C125	C	0.627436	0.627358	0.987186
	C126	C	0.383040	0.625792	0.005237
	C127	C	0.381363	0.381571	0.988572
	C128	C	0.014118	0.623980	0.377417
	C129	C	0.995743	0.627193	0.620860
	C130	C	0.013857	0.384198	0.617468
	C131	C	0.996093	0.380686	0.372505
	C132	C	0.885252	0.513557	0.117414
	C133	C	0.127887	0.494459	0.119809
	C134	C	0.124761	0.513250	0.877204
	C135	C	0.882035	0.495945	0.874455
	C136	C	0.126380	0.883151	0.504624
	C137	C	0.127877	0.127224	0.486104
	C138	C	0.883777	0.125456	0.505812
	C139	C	0.881165	0.880961	0.488761
	C140	C	0.514525	0.125881	0.876335
	C141	C	0.495349	0.128253	0.120237
	C142	C	0.513117	0.885843	0.116670
	C143	C	0.496378	0.881926	0.872602
	C144	C	0.386116	0.888675	0.669912
	C145	C	0.626919	0.119950	0.675778
	C146	C	0.623238	0.890771	0.318696
	C147	C	0.386044	0.121556	0.321741
	C148	C	0.678563	0.383953	0.881995
	C149	C	0.683899	0.628196	0.110876
	C150	C	0.326028	0.620677	0.881710
	C151	C	0.328465	0.386031	0.112555
	C152	C	0.888949	0.675852	0.379592
	C153	C	0.119915	0.684025	0.620107
	C154	C	0.889596	0.328443	0.612212
	C155	C	0.120633	0.327518	0.377327
	C156	C	0.889634	0.384572	0.670894
	C157	C	0.119510	0.627423	0.678085
	C158	C	0.890263	0.621312	0.320152
	C159	C	0.120498	0.383884	0.319343
	C160	C	0.384762	0.676981	0.880550
	C161	C	0.626154	0.685349	0.110662
	C162	C	0.620035	0.327503	0.881728
	C163	C	0.386262	0.329098	0.112486
	C164	C	0.677829	0.889279	0.377622
	C165	C	0.683942	0.119471	0.619899
	C166	C	0.328201	0.888787	0.612541
	C167	C	0.328902	0.121211	0.378013
	C168	C	0.886818	0.387935	0.169484
	C169	C	0.127498	0.619128	0.176948
	C170	C	0.122208	0.388469	0.819942
	C171	C	0.884776	0.620665	0.820802
	C172	C	0.179500	0.882834	0.380538
	C173	C	0.184338	0.126667	0.609964
	C174	C	0.827629	0.119137	0.381885
	C175	C	0.828875	0.886121	0.612868
	C176	C	0.389207	0.176889	0.879436
	C177	C	0.619785	0.184140	0.118424
	C178	C	0.388518	0.830199	0.111391
	C179	C	0.620213	0.827352	0.876267
	C180	C	0.389130	0.886600	0.170580
	C181	C	0.619591	0.128458	0.176834
	C182	C	0.390546	0.122075	0.820168
	C183	C	0.620539	0.884988	0.819269
	C184	C	0.885998	0.176101	0.380738
	C185	C	0.126603	0.183640	0.610292
	C186	C	0.121531	0.825412	0.381108
	C187	C	0.887132	0.829524	0.613081
	C188	C	0.177819	0.388051	0.878063
	C189	C	0.183820	0.619458	0.119625
	C190	C	0.828961	0.388436	0.112713
	C191	C	0.828356	0.621000	0.878764
	C192	C	0.406876	0.101055	0.596859
	C193	C	0.604144	0.907589	0.595973
	C194	C	0.605190	0.102245	0.400974
	C195	C	0.404572	0.908881	0.394810
	C196	C	0.605888	0.407160	0.092573
	C197	C	0.604445	0.602746	0.900985
	C198	C	0.406449	0.605931	0.091413
	C199	C	0.401829	0.401700	0.902050
	C200	C	0.100914	0.603040	0.400067
	C201	C	0.909115	0.603822	0.597865
	C202	C	0.100671	0.407631	0.596880
	C203	C	0.909085	0.401542	0.393285
	C204	C	0.908231	0.600733	0.097168
	C205	C	0.105195	0.407116	0.096741
	C206	C	0.103415	0.600180	0.900957
	C207	C	0.903419	0.408950	0.895109
	C208	C	0.105501	0.908012	0.590537
	C209	C	0.104941	0.103917	0.399716
	C210	C	0.906584	0.106110	0.592223
	C211	C	0.901081	0.900549	0.401985
	C212	C	0.601614	0.105179	0.898538
	C213	C	0.408549	0.105147	0.097874
	C214	C	0.599792	0.908783	0.095628
	C215	C	0.409124	0.903511	0.893354
	Zn216	Zn	0.506387	0.005089	0.746053
	Zn217	Zn	0.504832	0.006922	0.247971
	Zn218	Zn	0.755440	0.505038	-0.003121
	Zn219	Zn	0.253633	0.503814	-0.002329
	Zn220	Zn	0.003955	0.753350	0.497367
	Zn221	Zn	0.005089	0.255105	0.495820
	Zn222	Zn	0.004721	0.504645	0.747436
	Zn223	Zn	0.006241	0.503728	0.246793
	Zn224	Zn	0.504844	0.755318	-0.005063
	Zn225	Zn	0.503974	0.254032	-0.002468
	Zn226	Zn	0.753477	0.003768	0.498430
	Zn227	Zn	0.255619	0.004804	0.494634
	N228	N	0.420030	0.967549	0.673113
	N229	N	0.592153	0.041446	0.675564
	N230	N	0.591583	0.969855	0.318297
	N231	N	0.419001	0.042897	0.319283
	N232	N	0.682337	0.418174	0.960267
	N233	N	0.685028	0.593143	0.033160
	N234	N	0.324618	0.589819	0.960191
	N235	N	0.325109	0.417711	0.034392
	N236	N	0.966837	0.677579	0.414660
	N237	N	0.042004	0.684113	0.585254
	N238	N	0.967904	0.327974	0.579864
	N239	N	0.042273	0.325309	0.409727
	N240	N	0.967820	0.418713	0.673889
	N241	N	0.041202	0.592891	0.678729
	N242	N	0.969072	0.589692	0.318753
	N243	N	0.041993	0.416385	0.316538
	N244	N	0.419505	0.680608	0.958392
	N245	N	0.591647	0.684929	0.032534
	N246	N	0.587951	0.327093	0.959845
	N247	N	0.418512	0.326088	0.034407
	N248	N	0.679461	0.967463	0.413626
	N249	N	0.684116	0.040788	0.585263
	N250	N	0.326735	0.967625	0.580632
	N251	N	0.327072	0.042317	0.409950
	N252	N	0.921227	0.466463	0.172576
	N253	N	0.093368	0.540423	0.177178
	N254	N	0.089826	0.467383	0.819224
	N255	N	0.917637	0.541979	0.818019
	N256	N	0.182703	0.918112	0.458398
	N257	N	0.185350	0.092364	0.531689
	N258	N	0.825717	0.088786	0.460601
	N259	N	0.825080	0.917440	0.534570
	N260	N	0.467474	0.179400	0.913772
	N261	N	0.541773	0.184518	0.084158
	N262	N	0.466683	0.829351	0.078742
	N263	N	0.541901	0.825599	0.908624
	N264	N	0.467580	0.920566	0.173910
	N265	N	0.540960	0.094473	0.178202
	N266	N	0.469373	0.090954	0.818347
	N267	N	0.542406	0.918350	0.817012
	N268	N	0.920294	0.180249	0.458791
	N269	N	0.092047	0.184086	0.532455
	N270	N	0.089341	0.825366	0.459240
	N271	N	0.918851	0.826180	0.534902
	N272	N	0.179873	0.466470	0.912945
	N273	N	0.184046	0.540938	0.084682
	N274	N	0.827904	0.467476	0.081059
	N275	N	0.826638	0.542646	0.911497
	O276	O	0.048338	-0.032278	-0.014230
	H277	H	0.057589	-0.026932	-0.013803
	H278	H	0.053619	-0.020649	-0.022702
	O279	O	0.478382	0.429877	0.478261
	H280	H	0.481890	0.419355	0.474615
	H281	H	0.482234	0.435007	0.479349
	O282	O	0.434115	0.547847	0.451369
	H283	H	0.427450	0.554190	0.461897
	H284	H	0.430900	0.539227	0.448639
	O285	O	1.061087	0.067363	1.022701
	H286	H	1.061890	0.071141	1.028677
	H287	H	1.052385	0.060408	1.022800
	O288	O	0.894455	0.044988	-0.003726
	H289	H	0.895944	0.042085	-0.000165
	H290	H	0.901506	0.053626	-0.003490
	O291	O	0.525487	0.543341	0.434964
	H292	H	0.520464	0.525426	0.432774
	H293	H	0.510654	0.543104	0.420114
	O294	O	1.007217	-0.012631	0.990523
	H295	H	1.007197	-0.013280	0.983051
	H296	H	1.005406	-0.019698	0.981525
	O297	O	-0.026358	0.014098	0.011867
	H298	H	-0.022585	0.015527	0.013420
	H299	H	-0.019473	0.016983	0.002059
	O300	O	0.496958	0.428316	0.494474
	H301	H	0.499374	0.428347	0.498643
	H302	H	0.500608	0.416489	0.500865
	O303	O	0.499109	0.598164	0.556149
	H304	H	0.511081	0.592155	0.551506
	H305	H	0.500967	0.616447	0.569482
	O306	O	0.975050	-0.021548	0.025442
	H307	H	0.963625	-0.022379	0.024081
	H308	H	0.982473	-0.016277	0.027761
	O309	O	0.112250	-0.000192	0.992436
	H310	H	0.119008	0.004035	0.991200
	H311	H	0.122854	0.001946	0.986094
	O312	O	0.979688	0.929458	0.962361
	H313	H	0.976782	0.925017	0.966931
	H314	H	0.982099	0.932733	0.962987
	O315	O	0.444471	0.439698	0.591024
	H316	H	0.434750	0.437083	0.600426
	H317	H	0.452240	0.444680	0.587057
	O318	O	0.634967	0.568602	0.571005
	H319	H	0.647446	0.565174	0.575319
	H320	H	0.634098	0.580779	0.563649
	O321	O	0.030385	0.945007	0.972332
	H322	H	0.033943	0.942091	0.963630
	H323	H	0.032395	0.952200	0.972274
	O324	O	0.456456	0.486741	0.461693
	H325	H	0.462594	0.485563	0.467088
	H326	H	0.473341	0.487293	0.468727
	O327	O	0.439828	0.561318	0.523247
	H328	H	0.443344	0.551350	0.539739
	H329	H	0.442334	0.566250	0.516542
	O330	O	0.370880	0.500851	0.464968
	H331	H	0.373640	0.498331	0.483798
	H332	H	0.351967	0.504734	0.459562
	O333	O	0.521666	0.399316	0.438084
	H334	H	0.514593	0.405587	0.445455
	H335	H	0.515762	0.387371	0.441045
	O336	O	0.514613	0.477599	0.468986
	H337	H	0.518785	0.473027	0.460252
	H338	H	0.511613	0.481745	0.463620
	O339	O	1.038891	0.998411	-0.006916
	H340	H	1.051194	0.990086	-0.007676
	H341	H	1.038662	1.002226	-0.001172
	O342	O	0.500007	0.562153	0.507143
	H343	H	0.520626	0.568584	0.508178
	H344	H	0.490175	0.564848	0.492564
	O345	O	0.547826	0.509443	0.553360
	H346	H	0.553065	0.527151	0.560020
	H347	H	0.550826	0.506950	0.546085
	O348	O	-0.011258	-0.001814	-0.006286
	H349	H	-0.016921	-0.015166	-0.003226
	H350	H	-0.013401	-0.006158	-0.009828
	O351	O	-0.059245	1.030521	1.052663
	H352	H	-0.063156	1.047001	1.054966
	H353	H	-0.067006	1.018410	1.055877
	O354	O	0.630955	0.580481	0.481068
	H355	H	0.632888	0.581148	0.469038
	H356	H	0.621155	0.588628	0.468051
	O357	O	0.071601	1.030599	0.967098
	H358	H	0.065052	1.028763	0.966938
	H359	H	0.076744	1.027779	0.964506
