data_Molecule from HDF5

_cell_length_a		16.255862
_cell_length_b		16.236363
_cell_length_c		16.236148
_cell_angle_alpha	90.116465
_cell_angle_beta	90.041012
_cell_angle_gamma	90.001871
_symmetry_space_group_name_H-M	'P 1'
_symmetry_Int_Tables_number		1

loop_
	_symmetry_equiv_pos_as_xyz
	x,y,z

loop_
	_atom_site_label
	_atom_site_type_symbol
	_atom_site_fract_x
	_atom_site_fract_y
	_atom_site_fract_z
	H0	H	0.403206	0.835501	0.712619
	H1	H	0.597825	0.164301	0.713046
	H2	H	0.598325	0.835660	0.286727
	H3	H	0.402609	0.164781	0.287504
	H4	H	0.712546	0.402110	0.835707
	H5	H	0.713168	0.597993	0.164335
	H6	H	0.286759	0.595951	0.835228
	H7	H	0.286082	0.402318	0.164266
	H8	H	0.835399	0.713659	0.403116
	H9	H	0.164638	0.712385	0.596654
	H10	H	0.835918	0.287709	0.596507
	H11	H	0.164815	0.287212	0.402683
	H12	H	0.836291	0.402796	0.713381
	H13	H	0.163685	0.598202	0.713700
	H14	H	0.835014	0.595999	0.287804
	H15	H	0.164311	0.402097	0.285006
	H16	H	0.402113	0.712382	0.834937
	H17	H	0.596539	0.713909	0.163908
	H18	H	0.596924	0.286220	0.835235
	H19	H	0.401986	0.286107	0.164231
	H20	H	0.714910	0.836117	0.401758
	H21	H	0.713769	0.164140	0.597968
	H22	H	0.286817	0.835410	0.596879
	H23	H	0.287020	0.164031	0.402620
	H24	H	0.902175	0.336195	0.213393
	H25	H	0.096945	0.664661	0.212814
	H26	H	0.096917	0.335363	0.787167
	H27	H	0.902658	0.664348	0.787758
	H28	H	0.212716	0.902572	0.335780
	H29	H	0.213796	0.097419	0.664305
	H30	H	0.786700	0.098444	0.336325
	H31	H	0.787395	0.902527	0.664767
	H32	H	0.335369	0.212414	0.903337
	H33	H	0.663671	0.213599	0.097543
	H34	H	0.334882	0.788268	0.096076
	H35	H	0.663338	0.785706	0.901902
	H36	H	0.335805	0.903347	0.213371
	H37	H	0.664260	0.098229	0.214140
	H38	H	0.335879	0.097575	0.785404
	H39	H	0.664091	0.903338	0.787627
	H40	H	0.902663	0.213290	0.336132
	H41	H	0.098140	0.214046	0.664397
	H42	H	0.097864	0.786063	0.335662
	H43	H	0.903727	0.787601	0.664215
	H44	H	0.213087	0.336032	0.903410
	H45	H	0.213792	0.664139	0.098554
	H46	H	0.786631	0.335457	0.098244
	H47	H	0.786098	0.663641	0.903190
	H48	H	0.404973	0.117396	0.591476
	H49	H	0.591031	0.883182	0.593688
	H50	H	0.601760	0.119356	0.408856
	H51	H	0.394954	0.880935	0.410040
	H52	H	0.587256	0.405539	0.115503
	H53	H	0.594886	0.597774	0.880301
	H54	H	0.411907	0.593239	0.115253
	H55	H	0.402363	0.411053	0.883337
	H56	H	0.119080	0.602765	0.405712
	H57	H	0.886217	0.585008	0.591889
	H58	H	0.118194	0.405786	0.592601
	H59	H	0.885188	0.412417	0.406736
	H60	H	0.117975	0.408278	0.593470
	H61	H	0.878031	0.596716	0.603013
	H62	H	0.113573	0.589882	0.414083
	H63	H	0.880662	0.404819	0.399414
	H64	H	0.404445	0.601096	0.120216
	H65	H	0.596976	0.588400	0.882263
	H66	H	0.596595	0.401045	0.119991
	H67	H	0.411984	0.405344	0.884181
	H68	H	0.591096	0.118572	0.399469
	H69	H	0.596591	0.883161	0.590669
	H70	H	0.406406	0.118684	0.596125
	H71	H	0.408593	0.879714	0.394129
	H72	H	0.907574	0.615874	0.090700
	H73	H	0.101549	0.378719	0.097891
	H74	H	0.084175	0.615044	0.906242
	H75	H	0.904810	0.382570	0.907433
	H76	H	0.099055	0.910351	0.618252
	H77	H	0.091938	0.088366	0.384555
	H78	H	0.907519	0.089362	0.616529
	H79	H	0.898733	0.907350	0.380681
	H80	H	0.616541	0.097063	0.913362
	H81	H	0.385481	0.093287	0.083669
	H82	H	0.618533	0.906109	0.100037
	H83	H	0.382148	0.908597	0.903485
	H84	H	0.618223	0.901106	0.089828
	H85	H	0.383851	0.084202	0.100566
	H86	H	0.614638	0.085640	0.906704
	H87	H	0.381096	0.902704	0.904599
	H88	H	0.910852	0.096071	0.617520
	H89	H	0.089822	0.098019	0.382982
	H90	H	0.088298	0.907967	0.615858
	H91	H	0.910679	0.913165	0.385346
	H92	H	0.098582	0.616959	0.914480
	H93	H	0.084661	0.383753	0.097968
	H94	H	0.901872	0.618526	0.093296
	H95	H	0.905035	0.381543	0.904306
	H96	H	0.409824	0.115933	0.592986
	H97	H	0.596148	0.880740	0.596918
	H98	H	0.589420	0.114199	0.413157
	H99	H	0.414925	0.886408	0.413506
	H100	H	0.596657	0.412127	0.116709
	H101	H	0.588099	0.591807	0.884335
	H102	H	0.401387	0.590318	0.117511
	H103	H	0.403272	0.399858	0.880282
	H104	H	0.117860	0.588175	0.397655
	H105	H	0.882707	0.601855	0.586357
	H106	H	0.117928	0.406676	0.594702
	H107	H	0.883354	0.401677	0.410704
	H108	H	0.907344	0.618541	0.097483
	H109	H	0.093814	0.385481	0.083079
	H110	H	0.097761	0.621764	0.898259
	H111	H	0.907870	0.382476	0.906000
	H112	H	0.095140	0.900607	0.619910
	H113	H	0.099494	0.094777	0.380414
	H114	H	0.903354	0.095760	0.618949
	H115	H	0.910904	0.899370	0.381680
	H116	H	0.619861	0.096215	0.900223
	H117	H	0.378834	0.102860	0.099195
	H118	H	0.614814	0.912416	0.091545
	H119	H	0.383685	0.906335	0.908962
	C120	C	0.378921	0.008520	0.621274
	C121	C	0.622398	0.991006	0.621997
	C122	C	0.622408	0.008533	0.378621
	C123	C	0.378387	0.991458	0.378424
	C124	C	0.621314	0.377850	0.008663
	C125	C	0.621134	0.621240	0.991143
	C126	C	0.378047	0.621689	0.008566
	C127	C	0.378039	0.377923	0.991369
	C128	C	0.007956	0.621731	0.378240
	C129	C	0.991048	0.622132	0.621679
	C130	C	0.008984	0.378950	0.621344
	C131	C	0.991893	0.378314	0.377517
	C132	C	0.877910	0.508611	0.121442
	C133	C	0.121212	0.491468	0.121219
	C134	C	0.121298	0.508904	0.878682
	C135	C	0.878095	0.491094	0.878499
	C136	C	0.121653	0.878771	0.508894
	C137	C	0.121936	0.121695	0.491290
	C138	C	0.878994	0.121796	0.509057
	C139	C	0.879056	0.878964	0.491231
	C140	C	0.508383	0.120781	0.878578
	C141	C	0.491458	0.121474	0.122320
	C142	C	0.508231	0.878541	0.121756
	C143	C	0.490824	0.878153	0.877844
	C144	C	0.382303	0.884452	0.675182
	C145	C	0.619170	0.114935	0.676387
	C146	C	0.619071	0.884787	0.324169
	C147	C	0.381923	0.115524	0.324830
	C148	C	0.675445	0.381210	0.884707
	C149	C	0.675345	0.618502	0.115275
	C150	C	0.324317	0.617302	0.884230
	C151	C	0.323856	0.381505	0.115302
	C152	C	0.884448	0.675914	0.381834
	C153	C	0.115146	0.675677	0.617799
	C154	C	0.885011	0.324942	0.617470
	C155	C	0.115738	0.324456	0.381538
	C156	C	0.885158	0.382029	0.675550
	C157	C	0.114781	0.618757	0.676016
	C158	C	0.884132	0.617472	0.324620
	C159	C	0.115447	0.381560	0.323143
	C160	C	0.381357	0.675216	0.884169
	C161	C	0.617766	0.676222	0.114938
	C162	C	0.617556	0.323760	0.884470
	C163	C	0.381473	0.323984	0.115427
	C164	C	0.677076	0.885004	0.381125
	C165	C	0.676612	0.114984	0.618928
	C166	C	0.324367	0.884417	0.618037
	C167	C	0.324359	0.115163	0.381808
	C168	C	0.881021	0.385090	0.176089
	C169	C	0.117906	0.615550	0.175348
	C170	C	0.117792	0.384730	0.824594
	C171	C	0.881548	0.615129	0.824743
	C172	C	0.175214	0.882035	0.384710
	C173	C	0.176558	0.118640	0.615220
	C174	C	0.824364	0.118870	0.385308
	C175	C	0.824911	0.882028	0.615420
	C176	C	0.384197	0.174844	0.882141
	C177	C	0.614991	0.175725	0.118352
	C178	C	0.384332	0.825149	0.117830
	C179	C	0.614696	0.823923	0.881282
	C180	C	0.384829	0.882234	0.176108
	C181	C	0.615300	0.118243	0.176073
	C182	C	0.384684	0.118072	0.823584
	C183	C	0.614789	0.881927	0.824243
	C184	C	0.882237	0.175805	0.385127
	C185	C	0.118891	0.176259	0.615363
	C186	C	0.118314	0.824253	0.384602
	C187	C	0.882416	0.824724	0.615282
	C188	C	0.175518	0.384971	0.882234
	C189	C	0.175646	0.615366	0.118590
	C190	C	0.823747	0.384750	0.118870
	C191	C	0.823690	0.614738	0.881992
	C192	C	0.400522	0.094975	0.599803
	C193	C	0.601069	0.904550	0.600308
	C194	C	0.600684	0.094998	0.400663
	C195	C	0.399890	0.904727	0.399663
	C196	C	0.599945	0.399755	0.095207
	C197	C	0.599741	0.599268	0.904554
	C198	C	0.399342	0.600818	0.095274
	C199	C	0.399428	0.399099	0.904943
	C200	C	0.094695	0.600161	0.399633
	C201	C	0.904531	0.600817	0.600031
	C202	C	0.095574	0.400507	0.600089
	C203	C	0.905274	0.399924	0.399181
	C204	C	0.899200	0.595366	0.100126
	C205	C	0.099748	0.404877	0.099470
	C206	C	0.099812	0.595436	0.900119
	C207	C	0.899627	0.404483	0.899677
	C208	C	0.100511	0.899926	0.595505
	C209	C	0.100184	0.100152	0.404759
	C210	C	0.900711	0.100041	0.595439
	C211	C	0.900374	0.900200	0.404795
	C212	C	0.594651	0.099423	0.900309
	C213	C	0.404845	0.099924	0.100835
	C214	C	0.594945	0.900126	0.100150
	C215	C	0.404566	0.899456	0.899432
	Zn216	Zn	0.500194	-0.000079	0.749678
	Zn217	Zn	0.500251	0.000115	0.250847
	Zn218	Zn	0.749803	0.499470	0.000295
	Zn219	Zn	0.249712	0.500560	0.000509
	Zn220	Zn	0.000425	0.750623	0.500009
	Zn221	Zn	0.000223	0.249934	0.500147
	Zn222	Zn	-0.000257	0.500048	0.749884
	Zn223	Zn	-0.000269	0.500262	0.248871
	Zn224	Zn	0.499587	0.749961	-0.000538
	Zn225	Zn	0.499431	0.249454	0.000238
	Zn226	Zn	0.750715	0.000096	0.500204
	Zn227	Zn	0.250407	-0.000183	0.499986
	N228	N	0.415389	0.962341	0.677239
	N229	N	0.585933	0.037049	0.678004
	N230	N	0.585749	0.962592	0.322721
	N231	N	0.414816	0.037421	0.322622
	N232	N	0.677905	0.414022	0.962906
	N233	N	0.677575	0.585005	0.037284
	N234	N	0.322156	0.584793	0.962370
	N235	N	0.321561	0.414424	0.037416
	N236	N	0.962527	0.678576	0.414369
	N237	N	0.037222	0.677843	0.584712
	N238	N	0.962960	0.323067	0.584491
	N239	N	0.037871	0.322342	0.414652
	N240	N	0.963057	0.414904	0.677859
	N241	N	0.036687	0.586159	0.678525
	N242	N	0.962007	0.584253	0.322704
	N243	N	0.037389	0.414366	0.320698
	N244	N	0.414134	0.678058	0.962409
	N245	N	0.584863	0.677859	0.036911
	N246	N	0.584687	0.321589	0.962508
	N247	N	0.414520	0.321614	0.037506
	N248	N	0.679039	0.962988	0.414564
	N249	N	0.678667	0.037044	0.585520
	N250	N	0.322279	0.962436	0.585063
	N251	N	0.322073	0.037011	0.414455
	N252	N	0.914342	0.462961	0.177493
	N253	N	0.084547	0.537646	0.176958
	N254	N	0.085108	0.462775	0.822029
	N255	N	0.914876	0.537116	0.822568
	N256	N	0.177453	0.915247	0.462655
	N257	N	0.178633	0.085393	0.537190
	N258	N	0.822392	0.085836	0.463251
	N259	N	0.822592	0.914916	0.537294
	N260	N	0.461880	0.176571	0.915751
	N261	N	0.536948	0.177805	0.085725
	N262	N	0.462201	0.822944	0.084644
	N263	N	0.536659	0.821604	0.913977
	N264	N	0.463006	0.914620	0.178610
	N265	N	0.537428	0.085249	0.178501
	N266	N	0.462803	0.085401	0.821289
	N267	N	0.536937	0.914994	0.822130
	N268	N	0.915314	0.177789	0.463002
	N269	N	0.085720	0.178167	0.537409
	N270	N	0.085903	0.821837	0.462887
	N271	N	0.915289	0.822667	0.537252
	N272	N	0.177656	0.463128	0.915159
	N273	N	0.177828	0.537174	0.085665
	N274	N	0.821517	0.462751	0.085881
	N275	N	0.821779	0.536885	0.914796
