data_Molecule from HDF5

_cell_length_a		16.242183
_cell_length_b		16.217105
_cell_length_c		16.132766
_cell_angle_alpha	90.569348
_cell_angle_beta	90.325059
_cell_angle_gamma	89.761062
_symmetry_space_group_name_H-M	'P 1'
_symmetry_Int_Tables_number		1

loop_
	_symmetry_equiv_pos_as_xyz
	x,y,z

loop_
	_atom_site_label
	_atom_site_type_symbol
	_atom_site_fract_x
	_atom_site_fract_y
	_atom_site_fract_z
	H0	H	0.393666	0.841991	0.701124
	H1	H	0.588067	0.170672	0.709103
	H2	H	0.588958	0.842556	0.276648
	H3	H	0.391568	0.171837	0.278619
	H4	H	0.704748	0.402791	0.823552
	H5	H	0.705615	0.605917	0.153233
	H6	H	0.275814	0.605072	0.825141
	H7	H	0.276797	0.406649	0.152631
	H8	H	0.826867	0.723862	0.387623
	H9	H	0.154815	0.724252	0.590899
	H10	H	0.825569	0.295011	0.586148
	H11	H	0.151703	0.287381	0.384961
	H12	H	0.825851	0.411533	0.700913
	H13	H	0.154700	0.607930	0.705874
	H14	H	0.826963	0.607299	0.271706
	H15	H	0.154474	0.407143	0.274134
	H16	H	0.389008	0.720315	0.825940
	H17	H	0.591018	0.719673	0.154179
	H18	H	0.592117	0.285194	0.826505
	H19	H	0.395692	0.297455	0.155205
	H20	H	0.705662	0.843702	0.389767
	H21	H	0.706667	0.170962	0.595715
	H22	H	0.273298	0.844968	0.591184
	H23	H	0.273654	0.171495	0.391757
	H24	H	0.893655	0.343229	0.199601
	H25	H	0.090276	0.670464	0.205615
	H26	H	0.089704	0.343505	0.770894
	H27	H	0.890987	0.671763	0.777112
	H28	H	0.204339	0.906541	0.326151
	H29	H	0.203087	0.110626	0.655175
	H30	H	0.769786	0.108625	0.326632
	H31	H	0.778520	0.908982	0.654339
	H32	H	0.327810	0.220620	0.891167
	H33	H	0.655095	0.221651	0.093903
	H34	H	0.326613	0.791395	0.088357
	H35	H	0.654337	0.788217	0.890190
	H36	H	0.325300	0.910811	0.202257
	H37	H	0.655361	0.103690	0.207506
	H38	H	0.326344	0.103640	0.777951
	H39	H	0.654912	0.904296	0.775595
	H40	H	0.886486	0.220221	0.323254
	H41	H	0.088924	0.225889	0.652370
	H42	H	0.090460	0.791882	0.325244
	H43	H	0.891589	0.795676	0.653390
	H44	H	0.207249	0.343269	0.884319
	H45	H	0.207261	0.669633	0.091302
	H46	H	0.779357	0.342071	0.084073
	H47	H	0.770797	0.668072	0.885671
	H48	H	0.405667	0.125917	0.598799
	H49	H	0.577951	0.889074	0.591769
	H50	H	0.589303	0.128858	0.393238
	H51	H	0.394210	0.890436	0.401018
	H52	H	0.587693	0.412826	0.107315
	H53	H	0.578228	0.600291	0.870911
	H54	H	0.407620	0.600996	0.105551
	H55	H	0.391664	0.418816	0.870735
	H56	H	0.108951	0.602638	0.393919
	H57	H	0.874298	0.603585	0.581244
	H58	H	0.104786	0.416928	0.573619
	H59	H	0.872523	0.417006	0.388061
	H60	H	0.105615	0.419966	0.581600
	H61	H	0.873394	0.602998	0.582043
	H62	H	0.105744	0.601199	0.403317
	H63	H	0.871383	0.408994	0.393023
	H64	H	0.393580	0.603796	0.110676
	H65	H	0.585738	0.595425	0.868820
	H66	H	0.588829	0.414801	0.108487
	H67	H	0.408573	0.414821	0.874388
	H68	H	0.568616	0.121390	0.398116
	H69	H	0.580511	0.894478	0.570285
	H70	H	0.403701	0.118632	0.571375
	H71	H	0.394687	0.887924	0.393954
	H72	H	0.897026	0.624773	0.081615
	H73	H	0.081488	0.390703	0.078293
	H74	H	0.089580	0.623696	0.905367
	H75	H	0.901210	0.390076	0.896272
	H76	H	0.094134	0.912440	0.612755
	H77	H	0.087842	0.097705	0.370322
	H78	H	0.892394	0.092757	0.605803
	H79	H	0.895897	0.922610	0.372629
	H80	H	0.610838	0.102068	0.897826
	H81	H	0.371184	0.107790	0.088003
	H82	H	0.607840	0.905226	0.081499
	H83	H	0.376505	0.918741	0.899526
	H84	H	0.605722	0.916736	0.080855
	H85	H	0.375091	0.103155	0.079572
	H86	H	0.605994	0.096970	0.908187
	H87	H	0.372285	0.911324	0.890533
	H88	H	0.909751	0.100738	0.602000
	H89	H	0.079504	0.092197	0.373328
	H90	H	0.081925	0.929086	0.604241
	H91	H	0.904931	0.913565	0.372969
	H92	H	0.085354	0.627123	0.891032
	H93	H	0.087820	0.390141	0.076597
	H94	H	0.900023	0.623596	0.079504
	H95	H	0.893949	0.387754	0.895339
	H96	H	0.381860	0.129652	0.584582
	H97	H	0.597840	0.885494	0.582833
	H98	H	0.584025	0.121895	0.414324
	H99	H	0.400349	0.890932	0.396528
	H100	H	0.585575	0.415289	0.106223
	H101	H	0.578741	0.590573	0.873919
	H102	H	0.396825	0.590752	0.105230
	H103	H	0.396918	0.401497	0.868036
	H104	H	0.105581	0.594113	0.396504
	H105	H	0.873632	0.603643	0.581796
	H106	H	0.107876	0.412819	0.580080
	H107	H	0.874538	0.416108	0.397335
	H108	H	0.897628	0.623801	0.077469
	H109	H	0.085783	0.387906	0.082454
	H110	H	0.075806	0.620760	0.900607
	H111	H	0.898210	0.387356	0.889213
	H112	H	0.072401	0.909320	0.607183
	H113	H	0.077802	0.102733	0.370752
	H114	H	0.896852	0.111293	0.610547
	H115	H	0.892653	0.911192	0.368608
	H116	H	0.607489	0.089034	0.897999
	H117	H	0.374494	0.096713	0.087479
	H118	H	0.609117	0.913203	0.091351
	H119	H	0.373513	0.907248	0.901941
	C120	C	0.368554	0.016032	0.612405
	C121	C	0.613826	0.998131	0.613589
	C122	C	0.610983	0.015766	0.371078
	C123	C	0.367651	0.998609	0.368946
	C124	C	0.614787	0.383248	-0.001788
	C125	C	0.611299	0.625730	0.980181
	C126	C	0.369676	0.627258	-0.001419
	C127	C	0.370961	0.384881	0.980316
	C128	C	-0.000706	0.629152	0.367242
	C129	C	0.982120	0.632070	0.611993
	C130	C	-0.002215	0.387859	0.607620
	C131	C	0.980948	0.384385	0.364436
	C132	C	0.870123	0.515684	0.108072
	C133	C	0.114096	0.497433	0.110366
	C134	C	0.113272	0.515884	0.867218
	C135	C	0.868087	0.497128	0.865562
	C136	C	0.111905	0.886591	0.498999
	C137	C	0.110755	0.129145	0.480284
	C138	C	0.868356	0.129765	0.497474
	C139	C	0.869536	0.887260	0.480381
	C140	C	0.499806	0.125732	0.871302
	C141	C	0.482128	0.130044	0.114592
	C142	C	0.498935	0.884126	0.112462
	C143	C	0.482351	0.882801	0.868251
	C144	C	0.372194	0.891743	0.665133
	C145	C	0.609980	0.121756	0.670956
	C146	C	0.609316	0.892205	0.314263
	C147	C	0.370388	0.122504	0.315306
	C148	C	0.668096	0.383131	0.873642
	C149	C	0.667862	0.625204	0.104175
	C150	C	0.313524	0.625226	0.874591
	C151	C	0.315275	0.387398	0.103997
	C152	C	0.875719	0.685254	0.368182
	C153	C	0.105469	0.686795	0.610806
	C154	C	0.874752	0.332659	0.606094
	C155	C	0.103398	0.326774	0.365788
	C156	C	0.874769	0.390731	0.663403
	C157	C	0.105522	0.628637	0.667964
	C158	C	0.875947	0.627430	0.310385
	C159	C	0.104907	0.386030	0.310482
	C160	C	0.370158	0.682294	0.874853
	C161	C	0.610626	0.681738	0.104600
	C162	C	0.612102	0.324571	0.875085
	C163	C	0.374366	0.333072	0.105389
	C164	C	0.667654	0.892667	0.370678
	C165	C	0.668885	0.121501	0.614561
	C166	C	0.312256	0.893246	0.610372
	C167	C	0.312040	0.122360	0.371692
	C168	C	0.873075	0.391966	0.162208
	C169	C	0.111544	0.621025	0.167559
	C170	C	0.110749	0.392587	0.809211
	C171	C	0.870549	0.621749	0.813240
	C172	C	0.167160	0.886707	0.375205
	C173	C	0.165820	0.129866	0.605030
	C174	C	0.809148	0.128033	0.374947
	C175	C	0.815804	0.889709	0.604673
	C176	C	0.376728	0.182333	0.871944
	C177	C	0.605861	0.184204	0.113722
	C178	C	0.375460	0.829554	0.108896
	C179	C	0.605372	0.826401	0.870062
	C180	C	0.374899	0.888694	0.165628
	C181	C	0.606038	0.125357	0.169970
	C182	C	0.375985	0.124148	0.815279
	C183	C	0.605495	0.884162	0.812802
	C184	C	0.867473	0.183448	0.373192
	C185	C	0.109074	0.187327	0.603745
	C186	C	0.110524	0.829706	0.375014
	C187	C	0.872227	0.832936	0.604316
	C188	C	0.168730	0.392438	0.866098
	C189	C	0.169466	0.620634	0.110491
	C190	C	0.816002	0.391573	0.104851
	C191	C	0.810200	0.619785	0.866659
	C192	C	0.390517	0.102239	0.591242
	C193	C	0.591954	0.912161	0.589220
	C194	C	0.587504	0.101741	0.394988
	C195	C	0.389749	0.912124	0.390772
	C196	C	0.593557	0.407224	0.085083
	C197	C	0.587821	0.602278	0.893775
	C198	C	0.392752	0.605014	0.084734
	C199	C	0.392709	0.405517	0.893666
	C200	C	0.084600	0.606130	0.390806
	C201	C	0.895985	0.609861	0.588705
	C202	C	0.083696	0.410056	0.585013
	C203	C	0.895189	0.407367	0.386256
	C204	C	0.891773	0.601689	0.085961
	C205	C	0.091704	0.411707	0.086329
	C206	C	0.090439	0.601596	0.891702
	C207	C	0.891056	0.410890	0.887209
	C208	C	0.089498	0.910087	0.585492
	C209	C	0.088282	0.104809	0.394112
	C210	C	0.892711	0.108185	0.583772
	C211	C	0.891391	0.909385	0.393753
	C212	C	0.585939	0.102723	0.894614
	C213	C	0.395939	0.108825	0.091592
	C214	C	0.585129	0.905440	0.090934
	C215	C	0.396401	0.905775	0.890653
	Zn216	Zn	0.490717	0.005767	0.741059
	Zn217	Zn	0.490210	0.007135	0.241679
	Zn218	Zn	0.741200	0.506123	-0.012671
	Zn219	Zn	0.242292	0.505796	-0.011519
	Zn220	Zn	-0.009394	0.759352	0.488937
	Zn221	Zn	-0.010906	0.257424	0.486936
	Zn222	Zn	-0.009685	0.507997	0.739232
	Zn223	Zn	-0.009482	0.506571	0.237426
	Zn224	Zn	0.490787	0.754520	-0.009930
	Zn225	Zn	0.491513	0.256742	-0.009118
	Zn226	Zn	0.741606	0.007871	0.490670
	Zn227	Zn	0.239225	0.007995	0.490853
	N228	N	0.406614	0.969041	0.666552
	N229	N	0.576492	0.043959	0.670712
	N230	N	0.574724	0.969676	0.314460
	N231	N	0.404067	0.044481	0.313420
	N232	N	0.669778	0.418949	0.951221
	N233	N	0.668573	0.590913	0.025627
	N234	N	0.313247	0.591589	0.952389
	N235	N	0.312891	0.418918	0.025228
	N236	N	0.953411	0.686731	0.402901
	N237	N	0.027740	0.688970	0.576827
	N238	N	0.952408	0.330661	0.572216
	N239	N	0.025392	0.325523	0.398403
	N240	N	0.952353	0.424379	0.664527
	N241	N	0.027644	0.595385	0.669050
	N242	N	0.953532	0.593225	0.309605
	N243	N	0.027646	0.421015	0.309302
	N244	N	0.404156	0.683985	0.953090
	N245	N	0.576133	0.682163	0.026638
	N246	N	0.579680	0.324598	0.953696
	N247	N	0.408265	0.331236	0.027505
	N248	N	0.668596	0.970571	0.405400
	N249	N	0.671375	0.043643	0.579697
	N250	N	0.309847	0.971516	0.578137
	N251	N	0.310129	0.044302	0.404329
	N252	N	0.906053	0.469918	0.164467
	N253	N	0.077868	0.543363	0.167817
	N254	N	0.076641	0.470320	0.809893
	N255	N	0.905709	0.544305	0.812032
	N256	N	0.168140	0.921478	0.453296
	N257	N	0.167231	0.094298	0.527190
	N258	N	0.809724	0.095373	0.453216
	N259	N	0.813966	0.922629	0.526467
	N260	N	0.454793	0.183527	0.905866
	N261	N	0.527790	0.187460	0.079969
	N262	N	0.453860	0.826455	0.076749
	N263	N	0.527600	0.825177	0.903567
	N264	N	0.452520	0.921957	0.167889
	N265	N	0.528082	0.092596	0.170795
	N266	N	0.453689	0.089833	0.814748
	N267	N	0.527763	0.918405	0.811355
	N268	N	0.903658	0.184736	0.450491
	N269	N	0.075701	0.187044	0.525277
	N270	N	0.077088	0.829339	0.453214
	N271	N	0.905023	0.831254	0.525887
	N272	N	0.170336	0.470081	0.901567
	N273	N	0.171267	0.542824	0.075696
	N274	N	0.813972	0.469576	0.071933
	N275	N	0.808541	0.541340	0.898220
	O276	O	1.058541	-0.003851	1.082204
	H277	H	1.056725	-0.005486	1.074020
	H278	H	1.067121	0.004219	1.095832
	O279	O	0.902453	1.060688	-0.108536
	H280	H	0.883974	1.078701	-0.112150
	H281	H	0.909199	1.061055	-0.128958
	O282	O	0.368337	0.559862	0.420817
	H283	H	0.372851	0.557671	0.420257
	H284	H	0.362155	0.572970	0.417533
	O285	O	0.575977	0.391812	0.500496
	H286	H	0.572514	0.391091	0.502298
	H287	H	0.568420	0.385614	0.489772
	O288	O	0.320245	0.480026	0.482100
	H289	H	0.317205	0.481917	0.488405
	H290	H	0.333284	0.468980	0.485311
	O291	O	0.421426	-0.422676	1.361680
	H292	H	0.420633	-0.416864	1.361239
	H293	H	0.424328	-0.424309	1.370740
	O294	O	0.972586	1.033219	0.044147
	H295	H	0.971771	1.027080	0.044669
	H296	H	0.986225	1.033899	0.046996
	O297	O	0.942362	0.967357	0.109106
	H298	H	0.931619	0.960328	0.108508
	H299	H	0.940343	0.964935	0.097028
	O300	O	0.582706	0.591595	0.575376
	H301	H	0.576751	0.574794	0.578842
	H302	H	0.579355	0.593189	0.580017
	O303	O	0.481914	0.496236	0.487660
	H304	H	0.486907	0.488564	0.484012
	H305	H	0.469270	0.487589	0.495029
	O306	O	0.558511	0.500219	0.477380
	H307	H	0.560368	0.506918	0.468926
	H308	H	0.562019	0.500855	0.483574
	O309	O	0.587367	0.444320	0.429784
	H310	H	0.595873	0.437799	0.423766
	H311	H	0.600574	0.450751	0.422435
	O312	O	0.925574	1.056012	0.905659
	H313	H	0.924221	1.068895	0.911820
	H314	H	0.933434	1.054400	0.914190
	O315	O	1.109140	0.880238	-0.126037
	H316	H	1.115800	0.869167	-0.125040
	H317	H	1.112837	0.877993	-0.121154
	O318	O	-0.006013	-0.090519	1.018142
	H319	H	-0.015279	-0.088045	1.019260
	H320	H	-0.014285	-0.092050	1.017282
	O321	O	0.533073	0.654910	0.524183
	H322	H	0.516152	0.657522	0.524615
	H323	H	0.539622	0.656919	0.537799
	O324	O	0.039276	1.017200	0.844367
	H325	H	0.039088	1.009945	0.838942
	H326	H	0.038906	1.015966	0.845833
	O327	O	0.047413	1.066719	1.095921
	H328	H	0.054714	1.072917	1.096945
	H329	H	0.049725	1.078684	1.105490
	O330	O	-0.095085	0.095525	-0.073068
	H331	H	-0.105137	0.088679	-0.084309
	H332	H	-0.093703	0.110782	-0.072101
	O333	O	0.537569	0.571774	0.558996
	H334	H	0.533488	0.565953	0.545722
	H335	H	0.523072	0.565691	0.551746
	O336	O	-0.025243	-0.013534	-0.017775
	H337	H	-0.020749	-0.014743	-0.027855
	H338	H	-0.039342	-0.017571	-0.022195
	O339	O	-0.101530	-0.010427	-0.073784
	H340	H	-0.106013	0.001961	-0.077860
	H341	H	-0.094757	-0.016798	-0.058833
	O342	O	0.460940	0.608447	0.556041
	H343	H	0.478899	0.617866	0.557707
	H344	H	0.438404	0.605612	0.549882
	O345	O	0.025868	0.948072	1.165728
	H346	H	0.016018	0.938788	1.167583
	H347	H	0.022599	0.947141	1.172147
	O348	O	0.053326	-0.019784	0.922297
	H349	H	0.068877	-0.018327	0.903322
	H350	H	0.042277	-0.015660	0.915749
	O351	O	0.600819	0.589341	0.534780
	H352	H	0.597436	0.586096	0.546297
	H353	H	0.603521	0.594290	0.537544
	O354	O	0.019889	1.055376	0.056255
	H355	H	0.029601	1.047905	0.066627
	H356	H	0.023168	1.050142	0.053660
	O357	O	0.441166	0.506052	0.427934
	H358	H	0.444574	0.510531	0.436360
	H359	H	0.428272	0.514370	0.437413
	O360	O	1.387548	-0.637390	1.526975
	H361	H	1.384615	-0.639039	1.534378
	H362	H	1.391373	-0.650575	1.523731
	O363	O	0.491295	0.473151	0.577840
	H364	H	0.504251	0.481466	0.575863
	H365	H	0.490221	0.465163	0.576633
	O366	O	0.337507	0.459671	0.505305
	H367	H	0.326076	0.458636	0.495265
	H368	H	0.350311	0.472635	0.492788
	O369	O	0.902219	-0.153913	0.003393
	H370	H	0.897844	-0.157368	-0.004374
	H371	H	0.900778	-0.156583	0.012107
	O372	O	0.439996	0.439113	0.434286
	H373	H	0.438954	0.445116	0.427447
	H374	H	0.435339	0.446543	0.429614
	O375	O	1.030773	0.005677	0.983281
	H376	H	1.042871	0.003286	0.992638
	H377	H	1.034700	0.002653	0.994715
	O378	O	-0.131365	1.033737	-0.001245
	H379	H	-0.141116	1.038638	-0.008586
	H380	H	-0.133273	1.033863	-0.001228
	O381	O	0.538172	0.539569	0.618756
	H382	H	0.553079	0.539832	0.635691
	H383	H	0.529233	0.555697	0.612812
	O384	O	1.106963	1.168215	0.096996
	H385	H	1.121925	1.177986	0.097613
	H386	H	1.099765	1.172514	0.098237
	O387	O	1.482617	0.543255	1.414133
	H388	H	1.477037	0.544744	1.410508
	H389	H	1.480497	0.546956	1.414247
	O390	O	1.112235	1.024701	-0.135590
	H391	H	1.119941	1.017725	-0.135121
	H392	H	1.100713	1.012574	-0.138580
	O393	O	0.544110	0.441560	0.427325
	H394	H	0.545897	0.431886	0.422350
	H395	H	0.543178	0.442789	0.434449
