data_Molecule from HDF5

_cell_length_a		16.620765
_cell_length_b		16.564209
_cell_length_c		16.533212
_cell_angle_alpha	90.072974
_cell_angle_beta	89.977953
_cell_angle_gamma	89.889884
_symmetry_space_group_name_H-M	'P 1'
_symmetry_Int_Tables_number		1

loop_
	_symmetry_equiv_pos_as_xyz
	x,y,z

loop_
	_atom_site_label
	_atom_site_type_symbol
	_atom_site_fract_x
	_atom_site_fract_y
	_atom_site_fract_z
	H0	H	0.384016	0.838891	0.702775
	H1	H	0.589321	0.153927	0.702265
	H2	H	0.592271	0.839692	0.261718
	H3	H	0.382258	0.152976	0.262244
	H4	H	0.709699	0.390039	0.825890
	H5	H	0.707994	0.601049	0.139093
	H6	H	0.267231	0.599053	0.825846
	H7	H	0.268686	0.392761	0.140548
	H8	H	0.830579	0.716234	0.379935
	H9	H	0.142447	0.717233	0.589541
	H10	H	0.830924	0.272329	0.590079
	H11	H	0.142760	0.274945	0.379459
	H12	H	0.831737	0.387450	0.707898
	H13	H	0.142863	0.599141	0.704679
	H14	H	0.829779	0.598959	0.263342
	H15	H	0.143042	0.392082	0.263165
	H16	H	0.383651	0.715091	0.825228
	H17	H	0.590530	0.716098	0.139471
	H18	H	0.595826	0.271926	0.826295
	H19	H	0.384984	0.275968	0.139721
	H20	H	0.708649	0.839783	0.377538
	H21	H	0.706099	0.153728	0.585974
	H22	H	0.265927	0.840240	0.588430
	H23	H	0.266616	0.153476	0.378707
	H24	H	0.883087	0.338459	0.201881
	H25	H	0.089013	0.652300	0.201569
	H26	H	0.091338	0.337558	0.762034
	H27	H	0.881626	0.651090	0.760856
	H28	H	0.208161	0.891303	0.327362
	H29	H	0.207274	0.101040	0.640425
	H30	H	0.765062	0.102036	0.327004
	H31	H	0.767974	0.892952	0.640051
	H32	H	0.332204	0.220151	0.875694
	H33	H	0.643636	0.217161	0.088973
	H34	H	0.331609	0.773345	0.089503
	H35	H	0.643734	0.776222	0.879361
	H36	H	0.332418	0.889794	0.206275
	H37	H	0.643778	0.100679	0.205525
	H38	H	0.332274	0.102521	0.760641
	H39	H	0.644399	0.892926	0.763668
	H40	H	0.883689	0.215524	0.325893
	H41	H	0.089124	0.215061	0.641246
	H42	H	0.091733	0.775242	0.326849
	H43	H	0.884134	0.776659	0.640432
	H44	H	0.209102	0.337932	0.876547
	H45	H	0.205916	0.652279	0.085053
	H46	H	0.766589	0.338819	0.086605
	H47	H	0.765367	0.651455	0.875855
	H48	H	0.395939	0.107828	0.568496
	H49	H	0.580062	0.884283	0.569700
	H50	H	0.573339	0.108845	0.389220
	H51	H	0.400687	0.885308	0.395915
	H52	H	0.575706	0.408708	0.092906
	H53	H	0.580483	0.580633	0.869818
	H54	H	0.399562	0.587334	0.095162
	H55	H	0.399697	0.407377	0.871070
	H56	H	0.099516	0.584276	0.388226
	H57	H	0.874103	0.588765	0.571671
	H58	H	0.097344	0.408577	0.574784
	H59	H	0.871704	0.402132	0.388436
	H60	H	0.098147	0.402668	0.570541
	H61	H	0.877870	0.583644	0.567095
	H62	H	0.100145	0.589934	0.392456
	H63	H	0.875189	0.403585	0.397754
	H64	H	0.393927	0.588271	0.097461
	H65	H	0.571465	0.585699	0.871537
	H66	H	0.574862	0.407993	0.092985
	H67	H	0.397623	0.406424	0.870098
	H68	H	0.572053	0.105025	0.399793
	H69	H	0.580183	0.881832	0.576305
	H70	H	0.394965	0.109785	0.574956
	H71	H	0.395618	0.883756	0.397131
	H72	H	0.896530	0.607820	0.071518
	H73	H	0.077595	0.382596	0.071508
	H74	H	0.076146	0.604581	0.900834
	H75	H	0.895303	0.381689	0.893817
	H76	H	0.078510	0.906112	0.597033
	H77	H	0.075221	0.089230	0.369874
	H78	H	0.902076	0.089495	0.594999
	H79	H	0.897260	0.910162	0.371567
	H80	H	0.596352	0.081678	0.898333
	H81	H	0.376283	0.090217	0.070561
	H82	H	0.599025	0.908712	0.075985
	H83	H	0.375051	0.911222	0.890472
	H84	H	0.599729	0.902079	0.070685
	H85	H	0.378927	0.082785	0.068935
	H86	H	0.599408	0.081945	0.888841
	H87	H	0.373685	0.902419	0.890693
	H88	H	0.891276	0.086086	0.598141
	H89	H	0.081391	0.084308	0.369662
	H90	H	0.076318	0.907956	0.596223
	H91	H	0.901802	0.905418	0.371294
	H92	H	0.083773	0.609890	0.891975
	H93	H	0.079213	0.381774	0.072914
	H94	H	0.896249	0.608047	0.072663
	H95	H	0.904745	0.385527	0.892647
	H96	H	0.400705	0.107809	0.572974
	H97	H	0.574705	0.884950	0.573401
	H98	H	0.581945	0.109314	0.396525
	H99	H	0.396774	0.884764	0.391510
	H100	H	0.575667	0.407879	0.093318
	H101	H	0.579695	0.590584	0.867402
	H102	H	0.395847	0.582656	0.095263
	H103	H	0.398545	0.409367	0.870317
	H104	H	0.097376	0.584041	0.394863
	H105	H	0.876228	0.581619	0.574573
	H106	H	0.095297	0.408674	0.567581
	H107	H	0.874885	0.410873	0.390678
	H108	H	0.897053	0.608461	0.072142
	H109	H	0.076746	0.382250	0.073780
	H110	H	0.071409	0.605995	0.888699
	H111	H	0.899378	0.386031	0.902050
	H112	H	0.075679	0.904796	0.596391
	H113	H	0.074387	0.081502	0.372301
	H114	H	0.899031	0.078597	0.593073
	H115	H	0.896032	0.904275	0.368966
	H116	H	0.600196	0.089859	0.894198
	H117	H	0.375748	0.084466	0.076037
	H118	H	0.596128	0.909371	0.067756
	H119	H	0.376454	0.906542	0.897817
	C120	C	0.365813	0.004681	0.604356
	C121	C	0.608745	0.987703	0.604336
	C122	C	0.608260	0.004461	0.362399
	C123	C	0.365348	0.987947	0.361841
	C124	C	0.608552	0.374941	-0.009703
	C125	C	0.608580	0.617078	0.973703
	C126	C	0.365303	0.617217	-0.008551
	C127	C	0.366910	0.375296	0.974151
	C128	C	-0.004750	0.617248	0.360872
	C129	C	0.978972	0.616425	0.603975
	C130	C	-0.005481	0.373840	0.604574
	C131	C	0.977574	0.373780	0.361141
	C132	C	0.864826	0.504567	0.104089
	C133	C	0.107923	0.486677	0.103538
	C134	C	0.108951	0.503260	0.861309
	C135	C	0.866601	0.487100	0.862461
	C136	C	0.108433	0.874565	0.492453
	C137	C	0.108123	0.117212	0.474743
	C138	C	0.865863	0.117096	0.491638
	C139	C	0.866773	0.875290	0.474545
	C140	C	0.495965	0.117905	0.861020
	C141	C	0.480043	0.117336	0.104241
	C142	C	0.495544	0.874269	0.104401
	C143	C	0.478567	0.874792	0.861436
	C144	C	0.364885	0.886275	0.663342
	C145	C	0.608560	0.106680	0.662728
	C146	C	0.610379	0.886606	0.302039
	C147	C	0.363868	0.105905	0.302176
	C148	C	0.669544	0.371878	0.872645
	C149	C	0.668110	0.619352	0.091915
	C150	C	0.306552	0.618313	0.873030
	C151	C	0.308041	0.373752	0.093106
	C152	C	0.877306	0.676161	0.360667
	C153	C	0.095903	0.676738	0.607226
	C154	C	0.877497	0.313106	0.607722
	C155	C	0.095896	0.314972	0.360292
	C156	C	0.877907	0.370057	0.666532
	C157	C	0.096061	0.618088	0.664504
	C158	C	0.877042	0.618010	0.302766
	C159	C	0.095842	0.372863	0.302291
	C160	C	0.364341	0.675924	0.872787
	C161	C	0.609554	0.676463	0.092164
	C162	C	0.612747	0.313209	0.872976
	C163	C	0.365799	0.315772	0.092603
	C164	C	0.668602	0.886780	0.359352
	C165	C	0.666693	0.106508	0.605105
	C166	C	0.306267	0.886847	0.606451
	C167	C	0.305923	0.106140	0.359914
	C168	C	0.864265	0.385855	0.162439
	C169	C	0.108052	0.605281	0.161814
	C170	C	0.110301	0.384912	0.801630
	C171	C	0.863933	0.604276	0.801415
	C172	C	0.168064	0.872912	0.374234
	C173	C	0.167092	0.119062	0.593426
	C174	C	0.805498	0.119825	0.373987
	C175	C	0.807622	0.874184	0.592910
	C176	C	0.379211	0.179577	0.857917
	C177	C	0.597221	0.177019	0.106950
	C178	C	0.378584	0.813839	0.107456
	C179	C	0.596547	0.815642	0.860140
	C180	C	0.378767	0.871834	0.165433
	C181	C	0.597043	0.119134	0.164980
	C182	C	0.378964	0.120940	0.800714
	C183	C	0.596793	0.873905	0.802812
	C184	C	0.864281	0.176503	0.373344
	C185	C	0.108564	0.175961	0.593641
	C186	C	0.110245	0.815258	0.374090
	C187	C	0.865077	0.816131	0.592930
	C188	C	0.168849	0.385044	0.858716
	C189	C	0.166145	0.605201	0.104054
	C190	C	0.806056	0.386170	0.105266
	C191	C	0.805956	0.604589	0.858771
	C192	C	0.390290	0.086958	0.579355
	C193	C	0.585031	0.905014	0.580042
	C194	C	0.583072	0.086360	0.387888
	C195	C	0.390460	0.905954	0.387416
	C196	C	0.582741	0.400741	0.071986
	C197	C	0.584203	0.592618	0.891015
	C198	C	0.389682	0.593072	0.074389
	C199	C	0.391576	0.400590	0.891906
	C200	C	0.077612	0.593070	0.384992
	C201	C	0.897282	0.591545	0.578422
	C202	C	0.075714	0.399448	0.578492
	C203	C	0.895206	0.398288	0.385558
	C204	C	0.889418	0.586666	0.079258
	C205	C	0.084571	0.403759	0.079582
	C206	C	0.084216	0.585406	0.886662
	C207	C	0.892535	0.405539	0.888838
	C208	C	0.083877	0.899283	0.575030
	C209	C	0.083944	0.092274	0.392018
	C210	C	0.890619	0.091899	0.573969
	C211	C	0.891224	0.899692	0.392038
	C212	C	0.577534	0.091885	0.886540
	C213	C	0.398239	0.092859	0.079000
	C214	C	0.577186	0.899630	0.078672
	C215	C	0.396384	0.899489	0.886084
	Zn216	Zn	0.486911	-0.003976	0.732668
	Zn217	Zn	0.487258	-0.003787	0.233390
	Zn218	Zn	0.737187	0.495495	-0.017980
	Zn219	Zn	0.237233	0.495196	-0.017714
	Zn220	Zn	-0.012874	0.746116	0.483222
	Zn221	Zn	-0.013273	0.245504	0.483173
	Zn222	Zn	-0.012961	0.494679	0.733270
	Zn223	Zn	-0.013443	0.495428	0.232383
	Zn224	Zn	0.486863	0.745246	-0.017270
	Zn225	Zn	0.488146	0.246083	-0.017389
	Zn226	Zn	0.737503	-0.004252	0.483131
	Zn227	Zn	0.236777	-0.003156	0.483770
	N228	N	0.401013	0.960718	0.662288
	N229	N	0.573477	0.031658	0.662619
	N230	N	0.573735	0.960787	0.303626
	N231	N	0.399853	0.031293	0.303103
	N232	N	0.667069	0.409596	0.946577
	N233	N	0.667705	0.583199	0.017128
	N234	N	0.306638	0.582984	0.948086
	N235	N	0.308313	0.409632	0.018320
	N236	N	0.951941	0.675954	0.396112
	N237	N	0.022061	0.675829	0.570284
	N238	N	0.950921	0.315406	0.569791
	N239	N	0.021255	0.315384	0.395793
	N240	N	0.951607	0.407210	0.664513
	N241	N	0.022235	0.581368	0.662690
	N242	N	0.951553	0.582275	0.302737
	N243	N	0.021101	0.408618	0.302506
	N244	N	0.399993	0.675628	0.947735
	N245	N	0.573345	0.675178	0.017523
	N246	N	0.575680	0.314863	0.947192
	N247	N	0.401556	0.316332	0.017590
	N248	N	0.667359	0.961085	0.396271
	N249	N	0.667154	0.031537	0.569756
	N250	N	0.306470	0.961640	0.570727
	N251	N	0.306327	0.031497	0.396148
	N252	N	0.900077	0.460551	0.162110
	N253	N	0.072611	0.530468	0.161642
	N254	N	0.073937	0.459482	0.802925
	N255	N	0.900950	0.530198	0.803644
	N256	N	0.167091	0.909187	0.448948
	N257	N	0.166962	0.083344	0.518554
	N258	N	0.806136	0.083891	0.448738
	N259	N	0.808313	0.910156	0.518240
	N260	N	0.453138	0.177639	0.894947
	N261	N	0.523274	0.176346	0.070195
	N262	N	0.452367	0.815071	0.070232
	N263	N	0.521942	0.815926	0.895968
	N264	N	0.452514	0.908850	0.163442
	N265	N	0.523026	0.082823	0.163525
	N266	N	0.452634	0.083435	0.802550
	N267	N	0.522420	0.909968	0.803429
	N268	N	0.901035	0.174886	0.447576
	N269	N	0.072620	0.174968	0.518826
	N270	N	0.073983	0.816059	0.448683
	N271	N	0.901011	0.816622	0.518266
	N272	N	0.168287	0.459687	0.895065
	N273	N	0.166467	0.530206	0.068818
	N274	N	0.805998	0.461139	0.070109
	N275	N	0.807481	0.530582	0.896019
	O276	O	0.205482	0.780488	-0.056799
	H277	H	0.220043	0.768433	-0.053941
	H278	H	0.212877	0.790285	-0.037662
	O279	O	0.450367	0.359219	0.467268
	H280	H	0.465155	0.346108	0.441414
	H281	H	0.425204	0.359583	0.468861
	O282	O	0.963320	-0.117892	0.820571
	H283	H	0.957493	-0.119638	0.817499
	H284	H	0.961411	-0.111102	0.808536
	O285	O	0.370176	0.614577	0.383759
	H286	H	0.353639	0.616740	0.372280
	H287	H	0.367060	0.637001	0.368422
	O288	O	0.267504	0.713205	0.452438
	H289	H	0.266401	0.702108	0.447357
	H290	H	0.248828	0.730578	0.450966
	O291	O	0.481732	0.427097	0.370171
	H292	H	0.484458	0.429724	0.359916
	H293	H	0.482801	0.430586	0.385112
	O294	O	0.878510	0.218169	1.018241
	H295	H	0.885542	0.207296	1.007179
	H296	H	0.857193	0.222005	1.002695
	O297	O	0.478441	0.585867	0.380117
	H298	H	0.463230	0.587067	0.380602
	H299	H	0.486262	0.593652	0.392939
	O300	O	-0.209703	0.091052	0.890490
	H301	H	-0.216152	0.109124	0.871614
	H302	H	-0.187808	0.086768	0.898423
	O303	O	0.700336	0.705548	0.691969
	H304	H	0.731445	0.738000	0.725590
	H305	H	0.674221	0.705334	0.682106
	O306	O	0.783654	0.202774	0.868602
	H307	H	0.774983	0.217849	0.874360
	H308	H	0.800801	0.199221	0.855246
	O309	O	0.597259	0.475377	0.443427
	H310	H	0.595410	0.475998	0.445568
	H311	H	0.595932	0.477169	0.434199
	O312	O	0.535778	0.437775	0.678075
	H313	H	0.535794	0.441496	0.671394
	H314	H	0.514101	0.436477	0.675206
	O315	O	0.745341	1.139079	0.740201
	H316	H	0.732281	1.164122	0.730753
	H317	H	0.729470	1.143642	0.722408
	O318	O	0.535000	0.706858	0.697743
	H319	H	0.523518	0.714320	0.701338
	H320	H	0.539124	0.717169	0.708285
	O321	O	0.191975	0.788586	0.774684
	H322	H	0.220706	0.759363	0.761007
	H323	H	0.194544	0.777982	0.801414
	O324	O	0.873501	0.938381	-0.106116
	H325	H	0.848863	0.943986	-0.110198
	H326	H	0.874283	0.955171	-0.108933
	O327	O	-0.019110	0.074956	1.162292
	H328	H	-0.024818	0.088806	1.164876
	H329	H	-0.029024	0.073118	1.173196
	O330	O	0.422249	0.612255	0.602558
	H331	H	0.433310	0.604832	0.594641
	H332	H	0.416083	0.601302	0.590538
	O333	O	0.269218	0.280068	0.698521
	H334	H	0.278479	0.271989	0.718500
	H335	H	0.265639	0.274223	0.660994
	O336	O	0.721971	0.261084	0.247624
	H337	H	0.719254	0.290665	0.261076
	H338	H	0.735591	0.239713	0.251246
	O339	O	1.140371	0.159584	0.828978
	H340	H	1.129196	0.141691	0.838379
	H341	H	1.150898	0.157861	0.835185
	O342	O	0.061142	-0.076400	0.024393
	H343	H	0.049658	-0.083045	0.032301
	H344	H	0.058989	-0.070015	0.021117
	O345	O	0.016558	0.778903	0.774090
	H346	H	0.047150	0.775161	0.765343
	H347	H	0.023222	0.778389	0.761944
	O348	O	0.656746	0.498287	0.697029
	H349	H	0.672242	0.514599	0.699018
	H350	H	0.655885	0.521111	0.706196
	O351	O	0.666512	0.679256	0.303577
	H352	H	0.643788	0.673685	0.320811
	H353	H	0.671862	0.666757	0.308167
	O354	O	0.022417	0.180492	0.942318
	H355	H	0.023498	0.155228	0.944820
	H356	H	0.037683	0.189227	0.946938
	O357	O	0.518425	0.679127	0.347048
	H358	H	0.531544	0.682708	0.345830
	H359	H	0.507823	0.682325	0.338750
	O360	O	0.442321	0.284908	0.703265
	H361	H	0.438975	0.287504	0.724993
	H362	H	0.432205	0.277156	0.700195
	O363	O	-0.179687	-0.057519	0.080424
	H364	H	-0.177719	-0.049128	0.090380
	H365	H	-0.168232	-0.067423	0.078454
	O366	O	0.694650	0.417590	0.560818
	H367	H	0.692477	0.421707	0.560724
	H368	H	0.689088	0.423259	0.583086
	O369	O	1.056994	-0.006975	0.053522
	H370	H	1.071054	0.000122	0.060855
	H371	H	1.046572	-0.004876	0.057612
	O372	O	0.769751	0.778896	0.018757
	H373	H	0.790900	0.792368	-0.000366
	H374	H	0.751360	0.750451	0.008030
	O375	O	0.783209	0.112565	0.127230
	H376	H	0.794165	0.099693	0.129057
	H377	H	0.781521	0.102989	0.117261
	O378	O	0.701127	0.461339	0.261639
	H379	H	0.715467	0.470951	0.245038
	H380	H	0.708172	0.466381	0.268011
	O381	O	0.216211	0.971318	1.016258
	H382	H	0.207011	0.982607	1.012007
	H383	H	0.215722	0.975336	1.019663
	O384	O	1.001608	-0.017952	0.878090
	H385	H	1.007836	-0.007320	0.877647
	H386	H	0.999764	-0.027784	0.866605
	O387	O	0.880862	0.973990	0.053646
	H388	H	0.893523	0.979305	0.053567
	H389	H	0.877854	0.992321	0.064256
	O390	O	0.532116	0.296694	0.423719
	H391	H	0.533885	0.308832	0.429048
	H392	H	0.554044	0.285824	0.406505
	O393	O	0.530391	0.281600	0.272888
	H394	H	0.540317	0.264498	0.258581
	H395	H	0.570162	0.283278	0.268946
	O396	O	0.297124	1.316805	1.297028
	H397	H	0.297668	1.323681	1.299335
	H398	H	0.325576	1.326075	1.298818
	O399	O	0.210560	0.023147	1.197805
	H400	H	0.195699	0.046385	1.193748
	H401	H	0.234516	0.029382	1.225046
	O402	O	0.278453	0.565475	0.272919
	H403	H	0.261590	0.566172	0.255434
	H404	H	0.280543	0.577777	0.251522
	O405	O	1.079254	-0.103402	0.954567
	H406	H	1.082509	-0.084610	0.961739
	H407	H	1.081219	-0.119030	0.949221
	O408	O	0.219022	0.101588	-0.045432
	H409	H	0.224472	0.102592	-0.042302
	H410	H	0.232504	0.102508	-0.061050
	O411	O	0.510665	0.681976	0.529691
	H412	H	0.523164	0.680914	0.512518
	H413	H	0.512457	0.685509	0.538092
	O414	O	1.162680	0.173181	1.027323
	H415	H	1.174025	0.193444	1.023497
	H416	H	1.146897	0.171317	1.049592
	O417	O	0.269996	0.279599	0.516952
	H418	H	0.258209	0.271179	0.510854
	H419	H	0.262767	0.282919	0.505696
	O420	O	0.294697	0.684509	0.673802
	H421	H	0.318157	0.670450	0.656411
	H422	H	0.309371	0.661592	0.653867
	O423	O	0.023150	0.216905	1.201557
	H424	H	0.024198	0.224178	1.197644
	H425	H	0.013767	0.236429	1.212429
	O426	O	0.679416	0.283842	0.456297
	H427	H	0.678426	0.296916	0.464725
	H428	H	0.684925	0.267257	0.456885
	O429	O	0.958509	0.776443	1.201658
	H430	H	0.932472	0.780499	1.208369
	H431	H	0.946704	0.759489	1.216857
	O432	O	0.325479	0.596393	0.491551
	H433	H	0.335213	0.588148	0.481827
	H434	H	0.323288	0.584302	0.503915
	O435	O	0.184170	0.800117	0.180774
	H436	H	0.179075	0.824139	0.166709
	H437	H	0.157768	0.811775	0.159036
	O438	O	0.192983	0.198863	0.183901
	H439	H	0.175632	0.187504	0.172656
	H440	H	0.193250	0.217058	0.191367
	O441	O	0.510792	0.513126	0.446590
	H442	H	0.518095	0.506355	0.459288
	H443	H	0.499803	0.507904	0.441965
	O444	O	0.261208	0.428054	0.425065
	H445	H	0.256662	0.434079	0.425278
	H446	H	0.271751	0.438805	0.410871
	O447	O	0.187703	0.968295	0.780765
	H448	H	0.184495	0.938470	0.779573
	H449	H	0.199312	0.955418	0.762260
	O450	O	-0.189855	0.970529	1.193668
	H451	H	-0.203091	0.955493	1.204358
	H452	H	-0.183760	0.955746	1.196918
	O453	O	0.566692	0.512238	0.690471
	H454	H	0.574618	0.501271	0.696422
	H455	H	0.581425	0.523071	0.697769
	O456	O	-0.044413	0.202104	0.780088
	H457	H	-0.035790	0.205024	0.794333
	H458	H	-0.029274	0.206778	0.769837
	O459	O	0.774725	0.812924	0.193903
	H460	H	0.765380	0.810650	0.164570
	H461	H	0.766953	0.798919	0.197375
	O462	O	0.655383	0.522421	0.414282
	H463	H	0.643174	0.521331	0.422284
	H464	H	0.658091	0.531446	0.439313
	O465	O	0.913715	0.036289	0.085055
	H466	H	0.903560	0.031001	0.089555
	H467	H	0.905062	0.034742	0.079194
	O468	O	0.321196	0.695082	0.284334
	H469	H	0.295268	0.728473	0.264214
	H470	H	0.308440	0.690139	0.301236
	O471	O	0.272409	0.462875	0.694978
	H472	H	0.269797	0.455610	0.701461
	H473	H	0.265713	0.444731	0.696780
	O474	O	0.453195	0.479322	0.547732
	H475	H	0.445945	0.480903	0.540228
	H476	H	0.444449	0.465713	0.537652
	O477	O	0.508957	0.350329	1.311762
	H478	H	0.523986	0.347933	1.314675
	H479	H	0.518297	0.359798	1.308701
	O480	O	0.703037	0.704248	0.512325
	H481	H	0.709037	0.706834	0.522405
	H482	H	0.706676	0.710322	0.530225
	O483	O	0.798639	0.806204	0.795362
	H484	H	0.829189	0.819154	0.807385
	H485	H	0.805571	0.831878	0.818835
	O486	O	0.948316	0.015420	0.787662
	H487	H	0.948537	0.010057	0.785291
	H488	H	0.948567	0.034647	0.787057
	O489	O	0.925768	0.804199	-0.027044
	H490	H	0.942926	0.799611	-0.033283
	H491	H	0.935706	0.811102	-0.026425
