data_Molecule from HDF5

_cell_length_a		16.651781
_cell_length_b		16.746008
_cell_length_c		16.457014
_cell_angle_alpha	90.004980
_cell_angle_beta	90.172262
_cell_angle_gamma	89.986317
_symmetry_space_group_name_H-M	'P 1'
_symmetry_Int_Tables_number		1

loop_
	_symmetry_equiv_pos_as_xyz
	x,y,z

loop_
	_atom_site_label
	_atom_site_type_symbol
	_atom_site_fract_x
	_atom_site_fract_y
	_atom_site_fract_z
	H0	H	0.398083	0.843206	0.706498
	H1	H	0.605271	0.153508	0.705497
	H2	H	0.610132	0.842291	0.262716
	H3	H	0.402601	0.152635	0.267495
	H4	H	0.720388	0.394373	0.827266
	H5	H	0.724039	0.600796	0.143469
	H6	H	0.286696	0.596613	0.827712
	H7	H	0.287957	0.397444	0.145261
	H8	H	0.848103	0.718858	0.378367
	H9	H	0.158216	0.716763	0.590102
	H10	H	0.850292	0.270952	0.595038
	H11	H	0.157695	0.275513	0.381071
	H12	H	0.847966	0.390709	0.706827
	H13	H	0.160413	0.596995	0.701963
	H14	H	0.846229	0.599267	0.265000
	H15	H	0.160937	0.397865	0.270949
	H16	H	0.401818	0.713066	0.827122
	H17	H	0.609633	0.718108	0.141994
	H18	H	0.606116	0.278147	0.827592
	H19	H	0.403069	0.280519	0.145290
	H20	H	0.728672	0.844422	0.377396
	H21	H	0.725009	0.151716	0.592537
	H22	H	0.282115	0.842036	0.589217
	H23	H	0.281403	0.150435	0.380048
	H24	H	0.899268	0.340563	0.207142
	H25	H	0.103236	0.653394	0.203489
	H26	H	0.104352	0.340794	0.766766
	H27	H	0.899923	0.652254	0.765998
	H28	H	0.218775	0.896372	0.325547
	H29	H	0.223978	0.101231	0.641543
	H30	H	0.777881	0.105658	0.330956
	H31	H	0.783493	0.893200	0.643005
	H32	H	0.346279	0.215232	0.883402
	H33	H	0.660289	0.216959	0.091674
	H34	H	0.348059	0.776004	0.089902
	H35	H	0.658499	0.775545	0.879920
	H36	H	0.346804	0.894851	0.203427
	H37	H	0.661112	0.097961	0.205529
	H38	H	0.344344	0.095289	0.770394
	H39	H	0.659014	0.894848	0.766721
	H40	H	0.894071	0.219892	0.329593
	H41	H	0.109985	0.218746	0.640962
	H42	H	0.104700	0.778658	0.327219
	H43	H	0.896027	0.774264	0.640949
	H44	H	0.222761	0.341131	0.882510
	H45	H	0.221830	0.653186	0.088106
	H46	H	0.779695	0.341454	0.092740
	H47	H	0.780610	0.650110	0.879540
	H48	H	0.407777	0.109776	0.575058
	H49	H	0.592579	0.887547	0.572579
	H50	H	0.589804	0.105017	0.401552
	H51	H	0.413740	0.886723	0.396782
	H52	H	0.592815	0.407515	0.098221
	H53	H	0.590288	0.583966	0.874732
	H54	H	0.403863	0.587354	0.102781
	H55	H	0.411114	0.403014	0.869731
	H56	H	0.115770	0.586904	0.393504
	H57	H	0.889515	0.591455	0.574221
	H58	H	0.116969	0.400611	0.574492
	H59	H	0.891399	0.403072	0.401943
	H60	H	0.111115	0.408327	0.565169
	H61	H	0.892826	0.585707	0.570337
	H62	H	0.116155	0.591951	0.394323
	H63	H	0.892624	0.412451	0.397515
	H64	H	0.418393	0.582676	0.097654
	H65	H	0.590994	0.587680	0.873222
	H66	H	0.591049	0.406725	0.098295
	H67	H	0.411172	0.405656	0.871184
	H68	H	0.593464	0.106794	0.398024
	H69	H	0.596120	0.885541	0.575875
	H70	H	0.413805	0.108308	0.578058
	H71	H	0.405594	0.883467	0.395919
	H72	H	0.910587	0.607594	0.073117
	H73	H	0.094673	0.385144	0.078389
	H74	H	0.095804	0.610205	0.890150
	H75	H	0.915708	0.386239	0.896128
	H76	H	0.095594	0.906539	0.598682
	H77	H	0.090018	0.086674	0.372833
	H78	H	0.914939	0.082766	0.597013
	H79	H	0.919991	0.904471	0.373853
	H80	H	0.616594	0.093724	0.898217
	H81	H	0.392669	0.089361	0.075314
	H82	H	0.617245	0.903198	0.076361
	H83	H	0.392983	0.910567	0.894757
	H84	H	0.612593	0.906254	0.067128
	H85	H	0.392298	0.088606	0.075605
	H86	H	0.612769	0.084545	0.900416
	H87	H	0.389054	0.901548	0.892273
	H88	H	0.918216	0.083577	0.595624
	H89	H	0.091588	0.088341	0.371797
	H90	H	0.091695	0.909005	0.596721
	H91	H	0.909133	0.907466	0.370995
	H92	H	0.092031	0.607068	0.895493
	H93	H	0.095508	0.385681	0.074826
	H94	H	0.915636	0.604906	0.075375
	H95	H	0.911890	0.385530	0.898694
	H96	H	0.412404	0.106160	0.571975
	H97	H	0.590983	0.886110	0.577554
	H98	H	0.588897	0.106158	0.396593
	H99	H	0.411332	0.883090	0.389385
	H100	H	0.592323	0.405856	0.099336
	H101	H	0.593986	0.584732	0.872444
	H102	H	0.416552	0.597724	0.102713
	H103	H	0.413151	0.403955	0.871874
	H104	H	0.114230	0.589034	0.398457
	H105	H	0.890453	0.584488	0.577259
	H106	H	0.113414	0.412874	0.577703
	H107	H	0.888772	0.404304	0.391536
	H108	H	0.914543	0.603851	0.069904
	H109	H	0.097737	0.383851	0.077267
	H110	H	0.099454	0.609262	0.897018
	H111	H	0.911839	0.384869	0.893903
	H112	H	0.090876	0.904569	0.598547
	H113	H	0.092095	0.085850	0.371402
	H114	H	0.916575	0.086169	0.597914
	H115	H	0.916195	0.915873	0.375882
	H116	H	0.616822	0.086286	0.891142
	H117	H	0.391898	0.089352	0.076025
	H118	H	0.612723	0.912911	0.075268
	H119	H	0.392531	0.903010	0.901889
	C120	C	0.380108	0.005498	0.606907
	C121	C	0.624641	0.989054	0.607619
	C122	C	0.624531	0.004749	0.364923
	C123	C	0.380575	0.987559	0.363024
	C124	C	0.623651	0.375760	-0.005935
	C125	C	0.624365	0.617408	0.977445
	C126	C	0.382616	0.618667	-0.004426
	C127	C	0.382650	0.375424	0.977077
	C128	C	0.011580	0.619392	0.363438
	C129	C	0.994041	0.618465	0.606305
	C130	C	0.011699	0.374352	0.606372
	C131	C	0.994499	0.376033	0.365364
	C132	C	0.881464	0.503554	0.106667
	C133	C	0.125538	0.488460	0.107522
	C134	C	0.125470	0.505361	0.863813
	C135	C	0.881497	0.487907	0.863889
	C136	C	0.123168	0.876245	0.493389
	C137	C	0.123490	0.117729	0.476207
	C138	C	0.882495	0.117787	0.493902
	C139	C	0.882108	0.876414	0.477036
	C140	C	0.511112	0.117752	0.865629
	C141	C	0.495658	0.119280	0.107613
	C142	C	0.511452	0.876029	0.105429
	C143	C	0.494419	0.874309	0.863820
	C144	C	0.379086	0.889407	0.666612
	C145	C	0.625098	0.106254	0.666490
	C146	C	0.628128	0.888949	0.303299
	C147	C	0.381767	0.105396	0.305604
	C148	C	0.681583	0.375238	0.874851
	C149	C	0.684298	0.619514	0.095876
	C150	C	0.325212	0.617037	0.875506
	C151	C	0.326395	0.377123	0.097440
	C152	C	0.894321	0.678461	0.360519
	C153	C	0.111481	0.677040	0.608259
	C154	C	0.895936	0.312664	0.611425
	C155	C	0.111597	0.316279	0.362980
	C156	C	0.895100	0.372276	0.666950
	C157	C	0.112553	0.617536	0.663924
	C158	C	0.893602	0.619230	0.304111
	C159	C	0.113096	0.376655	0.308121
	C160	C	0.382337	0.674779	0.875216
	C161	C	0.627341	0.677650	0.095367
	C162	C	0.624931	0.317230	0.875138
	C163	C	0.383386	0.318917	0.097224
	C164	C	0.687206	0.889910	0.360295
	C165	C	0.684667	0.105365	0.610229
	C166	C	0.321326	0.888821	0.608353
	C167	C	0.321835	0.104350	0.361492
	C168	C	0.880148	0.387071	0.166961
	C169	C	0.123463	0.606560	0.164599
	C170	C	0.124230	0.387626	0.806080
	C171	C	0.880798	0.604958	0.804993
	C172	C	0.180226	0.876360	0.373586
	C173	C	0.183909	0.119438	0.594300
	C174	C	0.819515	0.122464	0.377297
	C175	C	0.822520	0.874264	0.595463
	C176	C	0.392772	0.174879	0.865259
	C177	C	0.613662	0.176888	0.109424
	C178	C	0.394511	0.816556	0.107615
	C179	C	0.611819	0.815731	0.861814
	C180	C	0.393985	0.875339	0.164339
	C181	C	0.613901	0.118100	0.166325
	C182	C	0.391954	0.115581	0.808984
	C183	C	0.612127	0.874920	0.805660
	C184	C	0.877480	0.179366	0.376712
	C185	C	0.127215	0.177767	0.594241
	C186	C	0.123631	0.817990	0.374211
	C187	C	0.878679	0.815372	0.594434
	C188	C	0.183025	0.387868	0.863507
	C189	C	0.182529	0.606289	0.107625
	C190	C	0.820698	0.387522	0.110151
	C191	C	0.821440	0.604098	0.861487
	C192	C	0.404386	0.086824	0.582079
	C193	C	0.600295	0.907617	0.582484
	C194	C	0.598205	0.084990	0.391204
	C195	C	0.403694	0.905552	0.387047
	C196	C	0.599300	0.399927	0.077019
	C197	C	0.599148	0.592700	0.894870
	C198	C	0.406180	0.596080	0.079212
	C199	C	0.405116	0.397741	0.892972
	C200	C	0.093828	0.596111	0.388121
	C201	C	0.912289	0.594386	0.581058
	C202	C	0.092673	0.399821	0.579859
	C203	C	0.912320	0.399817	0.389918
	C204	C	0.906345	0.584430	0.080192
	C205	C	0.102659	0.406178	0.083817
	C206	C	0.102437	0.587437	0.887567
	C207	C	0.906009	0.406425	0.889207
	C208	C	0.099481	0.900042	0.576367
	C209	C	0.098257	0.093665	0.393461
	C210	C	0.909131	0.091501	0.575574
	C211	C	0.907639	0.902019	0.395021
	C212	C	0.593838	0.094692	0.889576
	C213	C	0.413666	0.095864	0.082608
	C214	C	0.592948	0.900533	0.080039
	C215	C	0.412590	0.898124	0.889137
	Zn216	Zn	0.502429	-0.002925	0.736041
	Zn217	Zn	0.503497	-0.003801	0.235140
	Zn218	Zn	0.751853	0.495907	-0.014439
	Zn219	Zn	0.254944	0.496787	-0.013815
	Zn220	Zn	0.002696	0.747501	0.485222
	Zn221	Zn	0.002707	0.246256	0.485282
	Zn222	Zn	0.003193	0.496406	0.734594
	Zn223	Zn	0.003024	0.496179	0.236199
	Zn224	Zn	0.503736	0.745963	-0.014641
	Zn225	Zn	0.503771	0.247557	-0.014137
	Zn226	Zn	0.754063	-0.002414	0.486210
	Zn227	Zn	0.251673	-0.003312	0.484451
	N228	N	0.415040	0.962955	0.665826
	N229	N	0.588695	0.032684	0.665468
	N230	N	0.589925	0.961401	0.306031
	N231	N	0.417149	0.031546	0.306076
	N232	N	0.681051	0.410847	0.949970
	N233	N	0.682631	0.582718	0.021338
	N234	N	0.324785	0.583244	0.951479
	N235	N	0.325522	0.411293	0.021567
	N236	N	0.968850	0.678973	0.396263
	N237	N	0.036550	0.678136	0.573437
	N238	N	0.969659	0.313804	0.574709
	N239	N	0.036518	0.315313	0.397338
	N240	N	0.968284	0.410088	0.664119
	N241	N	0.038427	0.581868	0.663169
	N242	N	0.967686	0.583463	0.305509
	N243	N	0.039074	0.412902	0.309330
	N244	N	0.417122	0.676139	0.951002
	N245	N	0.590943	0.676658	0.020436
	N246	N	0.589718	0.317337	0.950419
	N247	N	0.417298	0.317490	0.021200
	N248	N	0.685226	0.963056	0.397841
	N249	N	0.684778	0.031267	0.574655
	N250	N	0.321519	0.962348	0.572144
	N251	N	0.320601	0.029855	0.396167
	N252	N	0.917171	0.460283	0.164949
	N253	N	0.088990	0.532014	0.165077
	N254	N	0.089269	0.461724	0.805993
	N255	N	0.917205	0.531401	0.806128
	N256	N	0.180325	0.911710	0.448746
	N257	N	0.181861	0.082866	0.519661
	N258	N	0.822534	0.084785	0.451281
	N259	N	0.824556	0.911665	0.521287
	N260	N	0.468026	0.176493	0.899659
	N261	N	0.538963	0.178012	0.073859
	N262	N	0.468689	0.816698	0.071881
	N263	N	0.537546	0.815110	0.897221
	N264	N	0.467843	0.911611	0.163121
	N265	N	0.539503	0.082996	0.165395
	N266	N	0.466748	0.081028	0.808965
	N267	N	0.538092	0.910700	0.806722
	N268	N	0.916066	0.176508	0.450413
	N269	N	0.090204	0.176830	0.519758
	N270	N	0.089154	0.817497	0.449842
	N271	N	0.915022	0.816497	0.519759
	N272	N	0.184309	0.462287	0.898370
	N273	N	0.183937	0.531724	0.072877
	N274	N	0.821336	0.461162	0.073477
	N275	N	0.821588	0.530147	0.897369
	O276	O	0.193448	0.804437	0.173184
	H277	H	0.173744	0.816029	0.148816
	H278	H	0.179820	0.828086	0.159223
	O279	O	0.460679	0.604527	0.287371
	H280	H	0.465469	0.614450	0.273862
	H281	H	0.436638	0.588518	0.289733
	O282	O	0.781659	0.029858	0.766054
	H283	H	0.779578	0.063649	0.763678
	H284	H	0.765544	0.039616	0.740900
	O285	O	0.400860	0.513741	0.514453
	H286	H	0.396272	0.525001	0.525791
	H287	H	0.402471	0.524271	0.508387
	O288	O	0.462528	0.265959	0.709236
	H289	H	0.454957	0.234955	0.741518
	H290	H	0.417839	0.269225	0.700865
	O291	O	0.288572	0.276854	0.511845
	H292	H	0.287456	0.276667	0.521040
	H293	H	0.275388	0.258705	0.544499
	O294	O	1.142170	-0.027807	0.990984
	H295	H	1.141809	-0.013964	1.006146
	H296	H	1.151715	-0.034722	0.985542
	O297	O	0.385065	0.714076	0.277929
	H298	H	0.355844	0.724964	0.268415
	H299	H	0.366698	0.694260	0.265987
	O300	O	-0.278703	-0.534586	1.271172
	H301	H	-0.283645	-0.548618	1.259331
	H302	H	-0.269644	-0.532048	1.255372
	O303	O	0.557637	0.365217	0.660667
	H304	H	0.540835	0.352395	0.662851
	H305	H	0.538910	0.363105	0.655114
	O306	O	0.609693	0.454970	0.433605
	H307	H	0.588412	0.452055	0.432316
	H308	H	0.624183	0.445612	0.436119
	O309	O	0.346241	0.697927	0.638636
	H310	H	0.326314	0.719851	0.646139
	H311	H	0.359907	0.709486	0.613484
	O312	O	0.721770	0.718710	0.506773
	H313	H	0.744565	0.727919	0.519200
	H314	H	0.726582	0.707274	0.526614
	O315	O	1.194480	1.004260	1.038548
	H316	H	1.190713	1.018711	1.030457
	H317	H	1.196627	1.028659	1.056925
	O318	O	0.531754	0.721761	0.697924
	H319	H	0.525362	0.726123	0.720491
	H320	H	0.529360	0.707742	0.699128
	O321	O	0.234160	0.765196	0.749651
	H322	H	0.210291	0.779271	0.770271
	H323	H	0.232472	0.763944	0.768680
	O324	O	0.980459	1.079261	0.048112
	H325	H	0.982423	1.085616	0.045089
	H326	H	0.976794	1.072542	0.043470
	O327	O	0.038392	0.222375	1.205451
	H328	H	0.028896	0.193864	1.216065
	H329	H	0.028644	0.243399	1.231298
	O330	O	0.540232	0.272745	0.265493
	H331	H	0.532047	0.259904	0.255431
	H332	H	0.556372	0.264740	0.264567
	O333	O	0.559669	0.740266	0.426990
	H334	H	0.583390	0.744525	0.428584
	H335	H	0.560659	0.747097	0.410048
	O336	O	0.346807	0.470674	0.302068
	H337	H	0.334732	0.469806	0.302554
	H338	H	0.384984	0.473670	0.301284
	O339	O	0.962634	-0.202211	0.931675
	H340	H	0.967901	-0.195929	0.932918
	H341	H	0.956803	-0.207473	0.938782
	O342	O	-0.215564	-0.221506	0.014233
	H343	H	-0.206823	-0.221409	0.026784
	H344	H	-0.237435	-0.236822	0.017785
	O345	O	0.228894	1.035745	1.203027
	H346	H	0.233069	1.059742	1.214446
	H347	H	0.243360	1.056643	1.220204
	O348	O	0.209902	0.208601	0.190771
	H349	H	0.218551	0.232129	0.219444
	H350	H	0.190171	0.219467	0.200665
	O351	O	0.520874	0.423691	0.333556
	H352	H	0.522958	0.440274	0.332312
	H353	H	0.539879	0.411363	0.351260
	O354	O	-0.207475	-0.213567	1.193006
	H355	H	-0.210532	-0.188173	1.176460
	H356	H	-0.240556	-0.244065	1.227026
	O357	O	0.389967	0.477956	0.538948
	H358	H	0.379185	0.471124	0.539724
	H359	H	0.379523	0.483763	0.540857
	O360	O	0.293413	0.275344	0.695761
	H361	H	0.284851	0.329369	0.699641
	H362	H	0.256581	0.249726	0.728717
	O363	O	-0.036643	-0.228035	0.203054
	H364	H	-0.076415	-0.218368	0.197921
	H365	H	-0.040764	-0.254777	0.235848
	O366	O	0.695432	0.317877	0.672544
	H367	H	0.653690	0.333199	0.668041
	H368	H	0.705586	0.346222	0.648708
	O369	O	0.710722	0.297165	0.288449
	H370	H	0.717331	0.312719	0.290499
	H371	H	0.695120	0.276384	0.278965
	O372	O	0.791987	1.183435	0.014167
	H373	H	0.806091	1.183313	-0.008356
	H374	H	0.772327	1.174642	0.002501
	O375	O	0.983912	-0.154478	0.036127
	H376	H	0.983279	-0.156609	0.023877
	H377	H	0.986975	-0.150225	0.044691
	O378	O	0.735178	0.439587	0.536268
	H379	H	0.736273	0.451799	0.535717
	H380	H	0.734968	0.451166	0.558265
	O381	O	0.147995	0.965809	0.920825
	H382	H	0.141199	0.985704	0.925402
	H383	H	0.157128	0.977800	0.930539
	O384	O	0.876176	0.145558	1.166806
	H385	H	0.874419	0.139715	1.164387
	H386	H	0.884687	0.131219	1.156100
	O387	O	0.773179	0.971241	-0.033589
	H388	H	0.779217	0.972255	-0.033991
	H389	H	0.766584	0.961219	-0.056869
	O390	O	0.556592	0.575279	0.272588
	H391	H	0.538518	0.614501	0.261965
	H392	H	0.554445	0.564794	0.292604
	O393	O	0.281456	0.439493	0.699599
	H394	H	0.297964	0.468045	0.703827
	H395	H	0.269325	0.459637	0.717416
	O396	O	0.211163	0.958596	0.771296
	H397	H	0.221073	0.954878	0.762249
	H398	H	0.214268	0.945873	0.770409
	O399	O	-0.169935	0.167198	0.986913
	H400	H	-0.162707	0.163889	0.986093
	H401	H	-0.185069	0.180637	0.982221
	O402	O	0.721158	0.281172	0.467314
	H403	H	0.726741	0.280357	0.447706
	H404	H	0.741969	0.287309	0.467880
	O405	O	1.103652	0.151353	0.915642
	H406	H	1.123823	0.151972	0.923723
	H407	H	1.096984	0.158166	0.937421
	O408	O	0.145958	-0.102118	-0.010818
	H409	H	0.137160	-0.099960	-0.023911
	H410	H	0.166285	-0.081777	-0.006911
	O411	O	1.047919	1.058912	0.757216
	H412	H	1.050200	1.063701	0.752016
	H413	H	1.047921	1.047825	0.763388
	O414	O	0.441279	0.279090	0.418884
	H415	H	0.453675	0.273002	0.452046
	H416	H	0.447516	0.272000	0.421809
	O417	O	0.568752	0.354213	0.499726
	H418	H	0.569285	0.345229	0.515123
	H419	H	0.579715	0.358779	0.494182
	O420	O	0.694690	0.688906	0.298860
	H421	H	0.672336	0.672077	0.316158
	H422	H	0.682890	0.670721	0.323261
	O423	O	-0.100271	0.039564	0.991196
	H424	H	-0.104641	0.044061	0.978644
	H425	H	-0.100844	0.029919	0.989525
	O426	O	0.295069	0.676315	0.403999
	H427	H	0.282118	0.704192	0.395714
	H428	H	0.298927	0.679431	0.379887
	O429	O	0.966162	1.210081	0.767417
	H430	H	0.973568	1.219256	0.751133
	H431	H	0.946997	1.213825	0.760627
	O432	O	0.402368	0.537877	0.686627
	H433	H	0.426262	0.552023	0.693038
	H434	H	0.402666	0.560676	0.685940
	O435	O	0.020239	1.100730	-0.032544
	H436	H	0.007942	1.095319	-0.033199
	H437	H	0.021354	1.106221	-0.024476
	O438	O	0.016348	-0.062466	-0.036259
	H439	H	0.026583	-0.065163	-0.028793
	H440	H	0.007069	-0.044778	-0.043194
	O441	O	-0.023759	0.178351	0.059684
	H442	H	-0.026529	0.180528	0.057834
	H443	H	-0.018230	0.177869	0.075188
	O444	O	0.467051	0.628554	0.546752
	H445	H	0.469455	0.628766	0.563481
	H446	H	0.487240	0.642235	0.531431
	O447	O	0.229248	1.222524	1.020096
	H448	H	0.257778	1.255951	1.024367
	H449	H	0.221861	1.214130	1.059732
	O450	O	0.224316	0.773334	0.944053
	H451	H	0.248359	0.751185	0.955401
	H452	H	0.218730	0.787113	0.967574
	O453	O	0.551665	0.530015	0.696962
	H454	H	0.555549	0.535064	0.668089
	H455	H	0.565638	0.511429	0.703432
	O456	O	0.184836	0.187117	0.799368
	H457	H	0.169437	0.177699	0.828922
	H458	H	0.160607	0.164116	0.804492
	O459	O	0.549425	0.558644	0.511605
	H460	H	0.526825	0.570564	0.511391
	H461	H	0.549780	0.536910	0.494757
	O462	O	0.813920	0.808573	0.803264
	H463	H	0.844465	0.822526	0.816399
	H464	H	0.820690	0.826301	0.829137
	O465	O	0.792360	-0.014754	0.191792
	H466	H	0.789991	-0.005848	0.183508
	H467	H	0.783476	-0.019568	0.200758
	O468	O	0.366269	0.623060	0.463229
	H469	H	0.355005	0.614908	0.468095
	H470	H	0.351748	0.633743	0.467123
	O471	O	0.285340	0.433151	0.463363
	H472	H	0.278533	0.455779	0.465802
	H473	H	0.283656	0.406778	0.476846
	O474	O	0.286961	0.625281	0.273319
	H475	H	0.282408	0.607915	0.265230
	H476	H	0.266264	0.624056	0.271618
	O477	O	0.308438	0.299853	1.297378
	H478	H	0.327270	0.300582	1.330764
	H479	H	0.330597	0.329968	1.305400
	O480	O	0.701643	0.573205	0.496655
	H481	H	0.685525	0.564559	0.478930
	H482	H	0.711311	0.580903	0.506038
	O483	O	0.734640	0.523396	0.704463
	H484	H	0.728075	0.562976	0.701077
	H485	H	0.756361	0.533835	0.735554
	O486	O	1.023617	-0.181320	1.062788
	H487	H	1.012132	-0.190597	1.075900
	H488	H	1.025580	-0.175276	1.055642
	O489	O	1.035866	0.775185	-0.236987
	H490	H	1.037874	0.792515	-0.232205
	H491	H	1.031581	0.751646	-0.264134
	O492	O	-0.043525	-0.013528	0.213780
	H493	H	-0.037612	-0.027803	0.205324
	H494	H	-0.050762	-0.033624	0.221684
	O495	O	-0.111330	0.942077	0.810082
	H496	H	-0.103171	0.941083	0.805405
	H497	H	-0.123010	0.949219	0.807419
	O498	O	0.795043	1.200140	0.778492
	H499	H	0.765022	1.232544	0.749263
	H500	H	0.811670	1.203973	0.806755
	O501	O	0.719599	0.711485	0.694510
	H502	H	0.747623	0.744481	0.729648
	H503	H	0.679364	0.720418	0.688436
