data_Molecule from HDF5

_cell_length_a		16.519521
_cell_length_b		15.922014
_cell_length_c		16.272240
_cell_angle_alpha	90.554441
_cell_angle_beta	90.204058
_cell_angle_gamma	90.457785
_symmetry_space_group_name_H-M	'P 1'
_symmetry_Int_Tables_number		1

loop_
	_symmetry_equiv_pos_as_xyz
	x,y,z

loop_
	_atom_site_label
	_atom_site_type_symbol
	_atom_site_fract_x
	_atom_site_fract_y
	_atom_site_fract_z
	H0	H	0.410468	0.829113	0.707193
	H1	H	0.606312	0.163614	0.715521
	H2	H	0.606281	0.831929	0.286133
	H3	H	0.407522	0.162964	0.286397
	H4	H	0.724447	0.389471	0.832642
	H5	H	0.732357	0.604893	0.154216
	H6	H	0.288387	0.600248	0.835267
	H7	H	0.284020	0.388792	0.154832
	H8	H	0.846139	0.711428	0.394831
	H9	H	0.169326	0.713790	0.593332
	H10	H	0.845635	0.282915	0.587553
	H11	H	0.169838	0.281249	0.394734
	H12	H	0.848662	0.390687	0.711483
	H13	H	0.166606	0.603588	0.716574
	H14	H	0.847755	0.598677	0.274192
	H15	H	0.167842	0.393252	0.273397
	H16	H	0.414319	0.706982	0.832663
	H17	H	0.607481	0.708847	0.161226
	H18	H	0.601090	0.280036	0.832819
	H19	H	0.411929	0.287663	0.162609
	H20	H	0.722357	0.833230	0.397257
	H21	H	0.727379	0.162397	0.607139
	H22	H	0.287895	0.834468	0.602304
	H23	H	0.293170	0.162347	0.398417
	H24	H	0.908250	0.330043	0.203650
	H25	H	0.110133	0.661020	0.209961
	H26	H	0.104384	0.330120	0.778106
	H27	H	0.910767	0.663224	0.782318
	H28	H	0.230253	0.890711	0.337806
	H29	H	0.225809	0.105475	0.659938
	H30	H	0.783496	0.103775	0.339949
	H31	H	0.789902	0.891923	0.659121
	H32	H	0.344901	0.206315	0.902930
	H33	H	0.669387	0.216452	0.100347
	H34	H	0.346927	0.777767	0.096595
	H35	H	0.671891	0.784784	0.902934
	H36	H	0.347444	0.893188	0.218008
	H37	H	0.668761	0.102959	0.221109
	H38	H	0.348496	0.098798	0.779881
	H39	H	0.668086	0.892545	0.778839
	H40	H	0.913312	0.202280	0.330842
	H41	H	0.103637	0.214320	0.659986
	H42	H	0.103011	0.785300	0.331239
	H43	H	0.911527	0.782819	0.660027
	H44	H	0.223752	0.330642	0.887291
	H45	H	0.227206	0.659288	0.099498
	H46	H	0.790417	0.332341	0.093770
	H47	H	0.792617	0.661222	0.889580
	H48	H	0.416136	0.114978	0.584817
	H49	H	0.599830	0.880052	0.581662
	H50	H	0.609587	0.119201	0.415848
	H51	H	0.413424	0.879463	0.412707
	H52	H	0.593874	0.400867	0.112177
	H53	H	0.601347	0.575780	0.882487
	H54	H	0.417894	0.580373	0.109908
	H55	H	0.419969	0.404107	0.882234
	H56	H	0.118093	0.586352	0.411345
	H57	H	0.894164	0.591384	0.581607
	H58	H	0.121333	0.411605	0.587592
	H59	H	0.894319	0.399853	0.400618
	H60	H	0.123158	0.406363	0.588307
	H61	H	0.895333	0.580556	0.588988
	H62	H	0.121569	0.580583	0.393418
	H63	H	0.894920	0.406451	0.395663
	H64	H	0.417720	0.587413	0.112298
	H65	H	0.593318	0.595575	0.878890
	H66	H	0.615646	0.407874	0.115449
	H67	H	0.412113	0.396881	0.877675
	H68	H	0.594774	0.118852	0.402499
	H69	H	0.606978	0.875877	0.591726
	H70	H	0.411788	0.120345	0.595723
	H71	H	0.417153	0.878290	0.406529
	H72	H	0.926945	0.612086	0.080149
	H73	H	0.096519	0.378119	0.078862
	H74	H	0.098186	0.611453	0.912262
	H75	H	0.907698	0.374248	0.899151
	H76	H	0.101299	0.909172	0.612497
	H77	H	0.106910	0.081817	0.380578
	H78	H	0.908407	0.093098	0.617523
	H79	H	0.911802	0.908323	0.381811
	H80	H	0.621463	0.088214	0.911719
	H81	H	0.395933	0.085782	0.094555
	H82	H	0.624446	0.899116	0.093814
	H83	H	0.393723	0.899463	0.905694
	H84	H	0.618907	0.909889	0.089784
	H85	H	0.392624	0.089219	0.097438
	H86	H	0.621500	0.083752	0.907102
	H87	H	0.394884	0.905095	0.905190
	H88	H	0.917993	0.080113	0.610674
	H89	H	0.100430	0.084300	0.381643
	H90	H	0.099703	0.907977	0.612704
	H91	H	0.912842	0.906500	0.380667
	H92	H	0.106194	0.615125	0.907614
	H93	H	0.100398	0.375569	0.082366
	H94	H	0.912463	0.616749	0.078538
	H95	H	0.920584	0.377036	0.896794
	H96	H	0.423620	0.115515	0.595378
	H97	H	0.594503	0.878396	0.594071
	H98	H	0.591577	0.111800	0.421521
	H99	H	0.420524	0.881639	0.412736
	H100	H	0.600770	0.423356	0.107104
	H101	H	0.613565	0.591410	0.874015
	H102	H	0.412145	0.582668	0.113333
	H103	H	0.409473	0.408158	0.879509
	H104	H	0.125177	0.597925	0.399443
	H105	H	0.890482	0.591859	0.594066
	H106	H	0.121867	0.407564	0.583665
	H107	H	0.891452	0.398955	0.393294
	H108	H	0.919381	0.618252	0.091812
	H109	H	0.095639	0.377121	0.083833
	H110	H	0.097158	0.615067	0.902732
	H111	H	0.915051	0.380465	0.909639
	H112	H	0.101148	0.907483	0.614087
	H113	H	0.105260	0.088669	0.379184
	H114	H	0.924700	0.095238	0.614292
	H115	H	0.911379	0.907488	0.381363
	H116	H	0.622603	0.090026	0.905604
	H117	H	0.394585	0.089851	0.092518
	H118	H	0.622827	0.909622	0.101081
	H119	H	0.392791	0.901998	0.901010
	C120	C	0.387155	0.006772	0.620333
	C121	C	0.630177	0.988110	0.621372
	C122	C	0.628050	0.007242	0.381465
	C123	C	0.387301	0.988609	0.380170
	C124	C	0.630436	0.376781	0.004064
	C125	C	0.632291	0.618491	0.986114
	C126	C	0.387099	0.614714	0.004721
	C127	C	0.384945	0.373785	0.987275
	C128	C	0.015888	0.618226	0.371608
	C129	C	0.999335	0.619935	0.617919
	C130	C	0.016167	0.376422	0.614768
	C131	C	0.999718	0.372485	0.368544
	C132	C	0.888515	0.505844	0.112838
	C133	C	0.128890	0.486151	0.113864
	C134	C	0.128899	0.504615	0.874636
	C135	C	0.886398	0.487400	0.872244
	C136	C	0.130018	0.877032	0.505859
	C137	C	0.131296	0.118448	0.488159
	C138	C	0.887039	0.118332	0.506615
	C139	C	0.884750	0.876136	0.488697
	C140	C	0.515792	0.116965	0.878319
	C141	C	0.500095	0.120611	0.124549
	C142	C	0.515986	0.874213	0.123015
	C143	C	0.500294	0.873366	0.875728
	C144	C	0.389049	0.880370	0.672521
	C145	C	0.627540	0.113534	0.678201
	C146	C	0.626285	0.881845	0.323969
	C147	C	0.388112	0.113329	0.323818
	C148	C	0.685579	0.372310	0.881581
	C149	C	0.691929	0.622102	0.107020
	C150	C	0.329040	0.617118	0.883081
	C151	C	0.325424	0.371873	0.107958
	C152	C	0.894681	0.673849	0.373851
	C153	C	0.120636	0.676606	0.615066
	C154	C	0.894371	0.320268	0.609669
	C155	C	0.121095	0.317636	0.372622
	C156	C	0.895807	0.374236	0.671387
	C157	C	0.119194	0.621673	0.676335
	C158	C	0.895605	0.617871	0.313534
	C159	C	0.120264	0.373427	0.312281
	C160	C	0.391533	0.670389	0.881724
	C161	C	0.629702	0.673817	0.110442
	C162	C	0.624143	0.317760	0.881673
	C163	C	0.388901	0.321683	0.111837
	C164	C	0.683937	0.882487	0.379448
	C165	C	0.687731	0.112700	0.624275
	C166	C	0.328202	0.883064	0.620187
	C167	C	0.331059	0.112871	0.379614
	C168	C	0.888541	0.380483	0.167007
	C169	C	0.129715	0.611021	0.172216
	C170	C	0.125690	0.379711	0.816359
	C171	C	0.889631	0.612833	0.818265
	C172	C	0.189105	0.873946	0.384965
	C173	C	0.186744	0.122589	0.611181
	C174	C	0.826306	0.119776	0.386266
	C175	C	0.828955	0.874253	0.610775
	C176	C	0.393879	0.170351	0.881798
	C177	C	0.620916	0.178354	0.121593
	C178	C	0.395183	0.816379	0.118495
	C179	C	0.622512	0.820248	0.880378
	C180	C	0.395319	0.874056	0.178818
	C181	C	0.620579	0.121757	0.181787
	C182	C	0.395751	0.116521	0.820236
	C183	C	0.620574	0.874059	0.818583
	C184	C	0.890640	0.169244	0.381795
	C185	C	0.126364	0.176942	0.610991
	C186	C	0.126041	0.821579	0.381539
	C187	C	0.889329	0.819648	0.611061
	C188	C	0.184572	0.380032	0.871077
	C189	C	0.187678	0.610141	0.116779
	C190	C	0.829868	0.381661	0.112350
	C191	C	0.830709	0.611853	0.871781
	C192	C	0.410458	0.094148	0.598302
	C193	C	0.607064	0.900850	0.596473
	C194	C	0.605456	0.094124	0.406047
	C195	C	0.410168	0.902133	0.403719
	C196	C	0.609823	0.403290	0.089330
	C197	C	0.609334	0.594562	0.900792
	C198	C	0.409462	0.590501	0.089895
	C199	C	0.407486	0.396387	0.901981
	C200	C	0.099931	0.595131	0.394731
	C201	C	0.915116	0.595307	0.594864
	C202	C	0.100313	0.401244	0.592799
	C203	C	0.915471	0.395352	0.390209
	C204	C	0.912449	0.593066	0.090147
	C205	C	0.104406	0.399371	0.088939
	C206	C	0.106796	0.591285	0.899963
	C207	C	0.908062	0.399937	0.895101
	C208	C	0.107262	0.901171	0.590969
	C209	C	0.110355	0.092581	0.402842
	C210	C	0.910249	0.095934	0.592089
	C211	C	0.905783	0.900208	0.403508
	C212	C	0.600008	0.094029	0.901370
	C213	C	0.416025	0.095543	0.101649
	C214	C	0.600277	0.899076	0.101424
	C215	C	0.415730	0.895768	0.897713
	Zn216	Zn	0.507755	-0.003957	0.746887
	Zn217	Zn	0.508055	-0.002082	0.254392
	Zn218	Zn	0.760690	0.497775	-0.007153
	Zn219	Zn	0.256555	0.494132	-0.005357
	Zn220	Zn	0.007475	0.748501	0.494690
	Zn221	Zn	0.008428	0.245644	0.494072
	Zn222	Zn	0.007423	0.496895	0.747016
	Zn223	Zn	0.008162	0.496367	0.240567
	Zn224	Zn	0.509405	0.744074	-0.002326
	Zn225	Zn	0.506827	0.248116	-0.001265
	Zn226	Zn	0.756579	-0.001570	0.499932
	Zn227	Zn	0.260173	-0.001636	0.499668
	N228	N	0.424955	0.958644	0.673118
	N229	N	0.592749	0.034690	0.676803
	N230	N	0.592157	0.960479	0.325082
	N231	N	0.422599	0.035031	0.324095
	N232	N	0.689733	0.408089	0.958807
	N233	N	0.694005	0.588663	0.028739
	N234	N	0.326198	0.583556	0.960669
	N235	N	0.322776	0.403531	0.029517
	N236	N	0.970469	0.674533	0.409069
	N237	N	0.044968	0.675607	0.579543
	N238	N	0.970152	0.321723	0.574908
	N239	N	0.045067	0.316526	0.406643
	N240	N	0.972445	0.408513	0.674803
	N241	N	0.042631	0.587275	0.678176
	N242	N	0.971939	0.584052	0.311933
	N243	N	0.043701	0.406545	0.309274
	N244	N	0.426719	0.669295	0.958434
	N245	N	0.593364	0.671785	0.034328
	N246	N	0.590643	0.320301	0.958891
	N247	N	0.425109	0.322711	0.035839
	N248	N	0.684925	0.961361	0.414591
	N249	N	0.689510	0.033561	0.589806
	N250	N	0.326818	0.962864	0.588884
	N251	N	0.330314	0.034278	0.413960
	N252	N	0.924400	0.458793	0.167516
	N253	N	0.093912	0.532756	0.170741
	N254	N	0.091557	0.458196	0.818366
	N255	N	0.923379	0.534318	0.818184
	N256	N	0.191669	0.907564	0.463150
	N257	N	0.190070	0.087184	0.533805
	N258	N	0.823887	0.088910	0.464984
	N259	N	0.825636	0.908424	0.533588
	N260	N	0.469488	0.170694	0.917470
	N261	N	0.544957	0.177783	0.086674
	N262	N	0.471366	0.816306	0.084676
	N263	N	0.546803	0.819681	0.915251
	N264	N	0.471562	0.909117	0.181743
	N265	N	0.544440	0.086344	0.183636
	N266	N	0.472521	0.083841	0.818094
	N267	N	0.543521	0.906361	0.815425
	N268	N	0.927939	0.168212	0.457564
	N269	N	0.092828	0.174774	0.533446
	N270	N	0.089757	0.823310	0.457572
	N271	N	0.923377	0.820616	0.534186
	N272	N	0.186852	0.458824	0.906354
	N273	N	0.187151	0.531386	0.081340
	N274	N	0.829824	0.460888	0.079402
	N275	N	0.828452	0.532502	0.904486
	O276	O	0.061000	-0.022751	0.014439
	H277	H	0.061422	-0.027748	0.012670
	H278	H	0.052849	-0.027235	0.016907
	O279	O	0.531864	0.437922	0.415064
	H280	H	0.531747	0.433442	0.413219
	H281	H	0.528354	0.431635	0.399594
	O282	O	0.911253	0.138905	0.035186
	H283	H	0.911879	0.140629	0.037234
	H284	H	0.915615	0.136882	0.033300
	O285	O	-0.029600	0.921440	0.141295
	H286	H	-0.017769	0.923976	0.147607
	H287	H	-0.021545	0.931531	0.147506
	O288	O	0.630004	0.453891	0.458116
	H289	H	0.626236	0.458240	0.465856
	H290	H	0.627957	0.473061	0.461819
	O291	O	0.508208	0.375103	0.560885
	H292	H	0.517093	0.391001	0.558731
	H293	H	0.501157	0.381734	0.546248
	O294	O	0.382121	1.408165	0.623117
	H295	H	0.398172	1.408880	0.638057
	H296	H	0.384414	1.400764	0.618953
	O297	O	0.637247	-0.442493	-0.538877
	H298	H	0.639210	-0.455516	-0.541484
	H299	H	0.630503	-0.449899	-0.543944
	O300	O	0.272952	0.655620	0.638603
	H301	H	0.267481	0.652590	0.624145
	H302	H	0.274096	0.667243	0.644552
	O303	O	0.179088	0.986357	1.028489
	H304	H	0.186174	0.978703	1.017905
	H305	H	0.175926	0.978521	1.012990
	O306	O	-0.493222	1.483003	0.642718
	H307	H	-0.496240	1.488863	0.632043
	H308	H	-0.473686	1.496747	0.645375
	O309	O	1.004885	-0.126328	0.009556
	H310	H	1.007665	-0.125354	0.018391
	H311	H	0.991078	-0.134171	0.005941
	O312	O	-0.129965	-0.016920	0.924400
	H313	H	-0.127181	-0.004423	0.914249
	H314	H	-0.137777	-0.016066	0.927426
	O315	O	0.058194	0.882564	0.831929
	H316	H	0.048585	0.880415	0.831998
	H317	H	0.044092	0.881260	0.825586
	O318	O	0.365100	0.481202	0.484072
	H319	H	0.366498	0.476808	0.503928
	H320	H	0.357595	0.498683	0.492817
	O321	O	0.448202	0.428778	0.389939
	H322	H	0.459665	0.427617	0.395090
	H323	H	0.457056	0.418402	0.388000
	O324	O	0.525200	0.430297	0.368483
	H325	H	0.528570	0.405963	0.363511
	H326	H	0.509196	0.441495	0.373785
	O327	O	0.052446	0.959551	1.098549
	H328	H	0.061652	0.956497	1.096469
	H329	H	0.065075	0.962125	1.105195
	O330	O	0.511969	0.547810	0.643481
	H331	H	0.521078	0.536626	0.643507
	H332	H	0.514191	0.552670	0.637284
	O333	O	0.048852	1.013417	1.164192
	H334	H	0.052051	1.028539	1.162931
	H335	H	0.044244	1.021760	1.178893
	O336	O	1.068367	1.058210	1.072898
	H337	H	1.067450	1.051052	1.083268
	H338	H	1.080387	1.059838	1.071121
	O339	O	0.574715	0.541707	0.430050
	H340	H	0.578599	0.538023	0.425377
	H341	H	0.569701	0.546620	0.418043
	O342	O	1.103427	0.057114	0.077400
	H343	H	1.089293	0.047541	0.068880
	H344	H	1.107852	0.048855	0.084419
	O345	O	0.636538	0.619540	0.575485
	H346	H	0.636802	0.617595	0.553447
	H347	H	0.639451	0.631553	0.564187
	O348	O	1.029112	1.092199	0.939932
	H349	H	1.024477	1.088173	0.928478
	H350	H	1.030291	1.103493	0.941704
	O351	O	1.145423	0.975629	-0.084557
	H352	H	1.141132	0.976498	-0.078432
	H353	H	1.154537	0.984006	-0.093419
	O354	O	0.472860	0.657304	0.328431
	H355	H	0.465384	0.687496	0.313655
	H356	H	0.446500	0.639418	0.323017
	O357	O	0.375918	0.619103	0.530882
	H358	H	0.382353	0.627514	0.533801
	H359	H	0.370462	0.624307	0.527966
	O360	O	-0.003958	-0.014967	0.087631
	H361	H	-0.001185	-0.016725	0.081425
	H362	H	0.010052	-0.023621	0.080926
	O363	O	0.531621	0.559155	0.381104
	H364	H	0.505514	0.571910	0.380399
	H365	H	0.530698	0.546046	0.389377
	O366	O	-0.092177	-0.123371	1.068067
	H367	H	-0.091094	-0.129082	1.070476
	H368	H	-0.094688	-0.121862	1.071173
	O369	O	0.374608	0.329051	0.588774
	H370	H	0.377993	0.330996	0.590653
	H371	H	0.370802	0.308852	0.588886
	O372	O	0.668051	0.336774	0.366981
	H373	H	0.671993	0.340004	0.358465
	H374	H	0.674515	0.345888	0.372982
	O375	O	0.312787	0.574866	0.341463
	H376	H	0.300897	0.565870	0.344783
	H377	H	0.304815	0.556807	0.353089
	O378	O	0.443048	0.547576	0.467105
	H379	H	0.441935	0.544696	0.473655
	H380	H	0.437826	0.552531	0.462293
	O381	O	0.690321	0.487972	0.680900
	H382	H	0.688828	0.523355	0.671005
	H383	H	0.714789	0.503724	0.698938
	O384	O	-0.098997	1.133725	-0.044606
	H385	H	-0.114544	1.146450	-0.048458
	H386	H	-0.088665	1.131673	-0.028847
	O387	O	1.055894	0.052267	0.925711
	H388	H	1.043142	0.051254	0.930138
	H389	H	1.058529	0.042067	0.918254
	O390	O	-0.146066	1.050500	-0.090760
	H391	H	-0.145591	1.060836	-0.081364
	H392	H	-0.158382	1.055002	-0.099441
	O393	O	1.169517	0.951324	-0.026945
	H394	H	1.166011	0.939586	-0.029669
	H395	H	1.166937	0.959119	-0.040779
	O396	O	0.659404	-0.199947	0.733807
	H397	H	0.650135	-0.187367	0.719584
	H398	H	0.646258	-0.202319	0.744998
	O399	O	-0.147220	0.910520	0.998836
	H400	H	-0.141546	0.909602	1.017777
	H401	H	-0.154082	0.919210	0.999074
	O402	O	1.084424	0.947953	0.841630
	H403	H	1.078492	0.948703	0.846217
	H404	H	1.055817	0.955848	0.840207
	O405	O	0.645122	0.397732	0.468562
	H406	H	0.632220	0.385232	0.463439
	H407	H	0.657756	0.398585	0.483219
