data_Molecule from HDF5

_cell_length_a		16.174670
_cell_length_b		16.276384
_cell_length_c		16.275880
_cell_angle_alpha	90.010969
_cell_angle_beta	90.080851
_cell_angle_gamma	89.988764
_symmetry_space_group_name_H-M	'P 1'
_symmetry_Int_Tables_number		1

loop_
	_symmetry_equiv_pos_as_xyz
	x,y,z

loop_
	_atom_site_label
	_atom_site_type_symbol
	_atom_site_fract_x
	_atom_site_fract_y
	_atom_site_fract_z
	H0	H	0.401305	0.836243	0.714305
	H1	H	0.599270	0.163229	0.714057
	H2	H	0.598779	0.837107	0.284858
	H3	H	0.400717	0.163154	0.284625
	H4	H	0.712685	0.403740	0.836036
	H5	H	0.712961	0.596344	0.164879
	H6	H	0.285656	0.597448	0.835659
	H7	H	0.287129	0.403369	0.164064
	H8	H	0.834584	0.712557	0.402457
	H9	H	0.164483	0.713593	0.598353
	H10	H	0.835784	0.286454	0.597662
	H11	H	0.164892	0.286850	0.402581
	H12	H	0.835446	0.401581	0.712742
	H13	H	0.163825	0.599540	0.714651
	H14	H	0.834836	0.596960	0.287036
	H15	H	0.164598	0.402473	0.287410
	H16	H	0.401630	0.714316	0.835572
	H17	H	0.598367	0.714874	0.163752
	H18	H	0.597802	0.286386	0.836852
	H19	H	0.399295	0.283561	0.162938
	H20	H	0.713042	0.835259	0.402684
	H21	H	0.713025	0.163988	0.596092
	H22	H	0.286909	0.835509	0.596087
	H23	H	0.286264	0.164325	0.401939
	H24	H	0.902295	0.336460	0.213238
	H25	H	0.098529	0.664182	0.214565
	H26	H	0.100561	0.336832	0.784505
	H27	H	0.901673	0.663485	0.785965
	H28	H	0.211948	0.903589	0.334998
	H29	H	0.213732	0.097957	0.663831
	H30	H	0.787415	0.096049	0.335514
	H31	H	0.787268	0.902926	0.665081
	H32	H	0.335385	0.213736	0.900671
	H33	H	0.664044	0.214877	0.099085
	H34	H	0.335804	0.786192	0.098704
	H35	H	0.664790	0.786570	0.902078
	H36	H	0.335945	0.902104	0.212955
	H37	H	0.663868	0.100028	0.214645
	H38	H	0.335681	0.097567	0.786541
	H39	H	0.664806	0.902748	0.787369
	H40	H	0.901112	0.215285	0.336707
	H41	H	0.100011	0.215178	0.663537
	H42	H	0.098421	0.784820	0.336549
	H43	H	0.901225	0.784580	0.663641
	H44	H	0.213280	0.335422	0.903280
	H45	H	0.213596	0.664517	0.096364
	H46	H	0.788974	0.335115	0.095460
	H47	H	0.786247	0.663595	0.903291
	H48	H	0.409187	0.117015	0.596734
	H49	H	0.598820	0.881713	0.590530
	H50	H	0.592752	0.117686	0.403970
	H51	H	0.408313	0.882189	0.399599
	H52	H	0.598067	0.406004	0.119094
	H53	H	0.593988	0.586197	0.885502
	H54	H	0.406106	0.596973	0.117208
	H55	H	0.403530	0.403108	0.881198
	H56	H	0.117263	0.594886	0.410158
	H57	H	0.883118	0.591801	0.592443
	H58	H	0.115051	0.412676	0.587270
	H59	H	0.881941	0.400758	0.413000
	H60	H	0.119076	0.411056	0.599117
	H61	H	0.881689	0.592641	0.593456
	H62	H	0.117202	0.589641	0.404835
	H63	H	0.885259	0.414421	0.408543
	H64	H	0.404970	0.591668	0.116382
	H65	H	0.587155	0.597416	0.883510
	H66	H	0.591795	0.409579	0.116159
	H67	H	0.405918	0.410537	0.884095
	H68	H	0.591273	0.115777	0.407942
	H69	H	0.593774	0.879856	0.601413
	H70	H	0.408350	0.115466	0.590223
	H71	H	0.410791	0.885977	0.410549
	H72	H	0.907521	0.617219	0.094882
	H73	H	0.096927	0.381279	0.098000
	H74	H	0.098082	0.615599	0.914349
	H75	H	0.900533	0.379798	0.902478
	H76	H	0.092664	0.906417	0.616829
	H77	H	0.079708	0.096708	0.385557
	H78	H	0.902796	0.092582	0.617560
	H79	H	0.901789	0.913137	0.384373
	H80	H	0.614805	0.084780	0.909264
	H81	H	0.379329	0.096280	0.098454
	H82	H	0.617709	0.909146	0.094011
	H83	H	0.380297	0.917031	0.890463
	H84	H	0.619508	0.905302	0.095873
	H85	H	0.383401	0.096547	0.085012
	H86	H	0.620943	0.095785	0.898685
	H87	H	0.376401	0.888118	0.906157
	H88	H	0.908319	0.092338	0.616025
	H89	H	0.100146	0.105299	0.377610
	H90	H	0.093910	0.906128	0.617043
	H91	H	0.915924	0.906057	0.385556
	H92	H	0.096484	0.619779	0.898656
	H93	H	0.088188	0.384033	0.095934
	H94	H	0.905486	0.617566	0.093353
	H95	H	0.913559	0.383686	0.902037
	H96	H	0.402837	0.118065	0.594377
	H97	H	0.587769	0.885039	0.592357
	H98	H	0.595340	0.116790	0.407178
	H99	H	0.399315	0.881451	0.408101
	H100	H	0.590881	0.402404	0.118444
	H101	H	0.600182	0.596942	0.880116
	H102	H	0.410422	0.593525	0.115414
	H103	H	0.411494	0.404245	0.883374
	H104	H	0.119452	0.595694	0.403572
	H105	H	0.882368	0.593152	0.592457
	H106	H	0.118909	0.401307	0.591708
	H107	H	0.879011	0.404634	0.398966
	H108	H	0.905525	0.618286	0.095651
	H109	H	0.095030	0.383895	0.089114
	H110	H	0.083306	0.614506	0.906610
	H111	H	0.906879	0.384511	0.913355
	H112	H	0.093577	0.907245	0.616068
	H113	H	0.099496	0.083172	0.383995
	H114	H	0.906560	0.097605	0.618019
	H115	H	0.903192	0.897826	0.379930
	H116	H	0.618319	0.100153	0.914289
	H117	H	0.384870	0.084456	0.092599
	H118	H	0.617019	0.905704	0.090854
	H119	H	0.388899	0.914138	0.922391
	C120	C	0.378310	0.008376	0.621418
	C121	C	0.621804	0.991079	0.621990
	C122	C	0.621267	0.008392	0.378271
	C123	C	0.378008	0.991330	0.377845
	C124	C	0.621672	0.378214	0.009269
	C125	C	0.621760	0.621736	0.991647
	C126	C	0.378113	0.622425	0.008007
	C127	C	0.378504	0.377790	0.991389
	C128	C	0.008606	0.621226	0.378702
	C129	C	0.991191	0.621359	0.621511
	C130	C	0.008806	0.379103	0.621274
	C131	C	0.991058	0.378398	0.378586
	C132	C	0.878533	0.508975	0.121751
	C133	C	0.121716	0.491728	0.121994
	C134	C	0.121634	0.508301	0.878363
	C135	C	0.878569	0.491130	0.878093
	C136	C	0.121251	0.878484	0.508045
	C137	C	0.121599	0.122355	0.491282
	C138	C	0.878235	0.122007	0.508555
	C139	C	0.878498	0.877566	0.491881
	C140	C	0.509115	0.121730	0.878423
	C141	C	0.491167	0.121210	0.121003
	C142	C	0.509128	0.878720	0.121380
	C143	C	0.491271	0.878866	0.878788
	C144	C	0.381082	0.885089	0.676022
	C145	C	0.619464	0.114463	0.676512
	C146	C	0.618722	0.885354	0.323308
	C147	C	0.380210	0.114588	0.322415
	C148	C	0.675643	0.381966	0.885343
	C149	C	0.675754	0.617708	0.115607
	C150	C	0.323913	0.618169	0.884386
	C151	C	0.324532	0.381781	0.115028
	C152	C	0.884034	0.674948	0.382214
	C153	C	0.115195	0.676052	0.619012
	C154	C	0.884961	0.324084	0.618417
	C155	C	0.115624	0.324451	0.382096
	C156	C	0.884666	0.381439	0.675500
	C157	C	0.114957	0.619341	0.676781
	C158	C	0.883675	0.617475	0.324894
	C159	C	0.115412	0.381750	0.324623
	C160	C	0.381086	0.676489	0.884433
	C161	C	0.618886	0.676543	0.115130
	C162	C	0.618466	0.324079	0.885649
	C163	C	0.380169	0.322405	0.114444
	C164	C	0.675756	0.884722	0.381648
	C165	C	0.675726	0.114748	0.617516
	C166	C	0.324049	0.884690	0.617433
	C167	C	0.323697	0.115271	0.380944
	C168	C	0.881619	0.385143	0.175936
	C169	C	0.119296	0.615299	0.176747
	C170	C	0.119837	0.385404	0.823046
	C171	C	0.881028	0.614485	0.823620
	C172	C	0.174847	0.882272	0.384358
	C173	C	0.175927	0.118478	0.614954
	C174	C	0.824428	0.117913	0.384723
	C175	C	0.824654	0.881479	0.615751
	C176	C	0.384789	0.176038	0.880812
	C177	C	0.615027	0.176643	0.119089
	C178	C	0.384899	0.824201	0.118489
	C179	C	0.615670	0.824588	0.881885
	C180	C	0.384998	0.881757	0.175518
	C181	C	0.614942	0.119756	0.176600
	C182	C	0.384868	0.118577	0.823851
	C183	C	0.615812	0.882042	0.824882
	C184	C	0.881158	0.176714	0.385183
	C185	C	0.119277	0.176632	0.614819
	C186	C	0.118257	0.823444	0.384904
	C187	C	0.881347	0.822995	0.615157
	C188	C	0.176284	0.384767	0.881634
	C189	C	0.176252	0.615344	0.117985
	C190	C	0.825314	0.384652	0.117550
	C191	C	0.823844	0.614493	0.881727
	C192	C	0.400297	0.094718	0.599974
	C193	C	0.599863	0.904417	0.600880
	C194	C	0.599521	0.094708	0.399876
	C195	C	0.399804	0.905466	0.399511
	C196	C	0.599904	0.399683	0.095347
	C197	C	0.599994	0.599973	0.905216
	C198	C	0.400493	0.600633	0.094176
	C199	C	0.400516	0.399558	0.905095
	C200	C	0.095466	0.599854	0.399900
	C201	C	0.904610	0.599126	0.599248
	C202	C	0.095408	0.401608	0.599073
	C203	C	0.904344	0.400086	0.400405
	C204	C	0.899869	0.595225	0.100836
	C205	C	0.099869	0.405443	0.100711
	C206	C	0.099394	0.594487	0.900088
	C207	C	0.900508	0.404970	0.899710
	C208	C	0.099694	0.900254	0.594455
	C209	C	0.099500	0.101338	0.404779
	C210	C	0.899687	0.100625	0.594774
	C211	C	0.900209	0.899212	0.405615
	C212	C	0.595631	0.099922	0.900705
	C213	C	0.404814	0.098970	0.098798
	C214	C	0.595684	0.900327	0.100077
	C215	C	0.404307	0.900090	0.900104
	Zn216	Zn	0.500015	0.000094	0.750498
	Zn217	Zn	0.500046	0.000410	0.249346
	Zn218	Zn	0.750090	0.499459	0.000905
	Zn219	Zn	0.250102	0.499594	0.000161
	Zn220	Zn	0.000098	0.749130	0.499995
	Zn221	Zn	0.000506	0.250800	0.500509
	Zn222	Zn	0.000112	0.500100	0.749416
	Zn223	Zn	-0.000382	0.499858	0.250613
	Zn224	Zn	0.499832	0.750734	-0.000197
	Zn225	Zn	0.499815	0.249245	0.000060
	Zn226	Zn	0.750188	-0.000749	0.499807
	Zn227	Zn	0.249594	0.000638	0.499641
	N228	N	0.414200	0.962942	0.678506
	N229	N	0.586532	0.036588	0.679089
	N230	N	0.585616	0.963287	0.321051
	N231	N	0.413395	0.036847	0.320375
	N232	N	0.677700	0.414903	0.963103
	N233	N	0.677575	0.584498	0.038007
	N234	N	0.322190	0.585264	0.962152
	N235	N	0.323565	0.415554	0.037617
	N236	N	0.962335	0.676963	0.414915
	N237	N	0.037292	0.677350	0.585475
	N238	N	0.963155	0.322622	0.585535
	N239	N	0.037318	0.322243	0.414903
	N240	N	0.962668	0.415031	0.677262
	N241	N	0.036838	0.585973	0.678310
	N242	N	0.962056	0.584698	0.322434
	N243	N	0.037218	0.414632	0.322541
	N244	N	0.414011	0.679217	0.962351
	N245	N	0.586267	0.679213	0.037043
	N246	N	0.585588	0.321559	0.963527
	N247	N	0.413093	0.319909	0.036480
	N248	N	0.677382	0.962191	0.414955
	N249	N	0.677607	0.036916	0.584691
	N250	N	0.322352	0.962362	0.584325
	N251	N	0.322238	0.037982	0.414817
	N252	N	0.914171	0.463186	0.178626
	N253	N	0.086024	0.537474	0.179477
	N254	N	0.086697	0.463319	0.820838
	N255	N	0.914255	0.536858	0.821465
	N256	N	0.176618	0.915929	0.461814
	N257	N	0.177400	0.085515	0.537188
	N258	N	0.822502	0.084583	0.462221
	N259	N	0.822835	0.914978	0.538125
	N260	N	0.462884	0.178134	0.914090
	N261	N	0.537268	0.177562	0.085157
	N262	N	0.462967	0.822122	0.085713
	N263	N	0.537419	0.822414	0.914465
	N264	N	0.463127	0.915233	0.177286
	N265	N	0.536963	0.085818	0.177779
	N266	N	0.463071	0.085423	0.822393
	N267	N	0.537558	0.915104	0.822785
	N268	N	0.913962	0.179263	0.463151
	N269	N	0.086307	0.179157	0.536934
	N270	N	0.085736	0.820985	0.462936
	N271	N	0.914136	0.820746	0.537305
	N272	N	0.177288	0.462089	0.915510
	N273	N	0.177747	0.537658	0.084922
	N274	N	0.823427	0.462237	0.084512
	N275	N	0.821977	0.536790	0.914840
