data_Molecule from HDF5

_cell_length_a		16.008253
_cell_length_b		16.434407
_cell_length_c		16.000891
_cell_angle_alpha	91.256892
_cell_angle_beta	92.137604
_cell_angle_gamma	90.639424
_symmetry_space_group_name_H-M	'P 1'
_symmetry_Int_Tables_number		1

loop_
	_symmetry_equiv_pos_as_xyz
	x,y,z

loop_
	_atom_site_label
	_atom_site_type_symbol
	_atom_site_fract_x
	_atom_site_fract_y
	_atom_site_fract_z
	H0	H	0.395359	0.834583	0.698396
	H1	H	0.597479	0.160810	0.722159
	H2	H	0.579457	0.837594	0.280223
	H3	H	0.388207	0.163761	0.280680
	H4	H	0.685964	0.406754	0.825719
	H5	H	0.712931	0.604004	0.161355
	H6	H	0.273169	0.589170	0.830732
	H7	H	0.286943	0.406235	0.165462
	H8	H	0.826117	0.712402	0.390431
	H9	H	0.155765	0.723063	0.611966
	H10	H	0.828205	0.283030	0.594657
	H11	H	0.156269	0.282702	0.400111
	H12	H	0.820105	0.412359	0.690310
	H13	H	0.156485	0.602485	0.719836
	H14	H	0.825358	0.590704	0.279757
	H15	H	0.160805	0.402394	0.291759
	H16	H	0.383125	0.709664	0.830528
	H17	H	0.602015	0.721288	0.161226
	H18	H	0.587809	0.279842	0.833354
	H19	H	0.394600	0.287909	0.162373
	H20	H	0.697080	0.836687	0.397007
	H21	H	0.712616	0.162008	0.605453
	H22	H	0.277318	0.837476	0.581415
	H23	H	0.273010	0.164094	0.396395
	H24	H	0.895741	0.335833	0.201762
	H25	H	0.098314	0.661442	0.222183
	H26	H	0.079450	0.337641	0.782116
	H27	H	0.890170	0.665299	0.782376
	H28	H	0.186549	0.905988	0.326980
	H29	H	0.213106	0.104235	0.661792
	H30	H	0.771914	0.091062	0.330135
	H31	H	0.786181	0.905786	0.664996
	H32	H	0.324057	0.212808	0.888873
	H33	H	0.655917	0.219499	0.108173
	H34	H	0.326970	0.782596	0.092679
	H35	H	0.656088	0.783261	0.898733
	H36	H	0.319440	0.909967	0.190754
	H37	H	0.655079	0.102331	0.220400
	H38	H	0.322671	0.087850	0.780484
	H39	H	0.659141	0.902919	0.791135
	H40	H	0.881625	0.212578	0.331773
	H41	H	0.101080	0.220572	0.662072
	H42	H	0.090307	0.778465	0.335452
	H43	H	0.895196	0.788350	0.663137
	H44	H	0.196017	0.336629	0.899004
	H45	H	0.213777	0.661814	0.106836
	H46	H	0.777150	0.336494	0.083241
	H47	H	0.773930	0.664860	0.897502
	H48	H	0.397578	0.118609	0.597153
	H49	H	0.588053	0.884967	0.583907
	H50	H	0.574861	0.113831	0.411354
	H51	H	0.383857	0.884385	0.392481
	H52	H	0.586494	0.412689	0.115787
	H53	H	0.580504	0.598695	0.873632
	H54	H	0.403725	0.596447	0.117474
	H55	H	0.385996	0.405438	0.875869
	H56	H	0.110967	0.598411	0.416779
	H57	H	0.872707	0.598607	0.578465
	H58	H	0.111566	0.409738	0.591644
	H59	H	0.871908	0.405166	0.391776
	H60	H	0.111589	0.411436	0.592970
	H61	H	0.871712	0.593676	0.587206
	H62	H	0.110440	0.591299	0.417066
	H63	H	0.870556	0.398105	0.399528
	H64	H	0.410361	0.594146	0.115616
	H65	H	0.580977	0.591198	0.875720
	H66	H	0.588023	0.408275	0.117895
	H67	H	0.397404	0.408005	0.880914
	H68	H	0.586498	0.115233	0.415780
	H69	H	0.595575	0.879636	0.595307
	H70	H	0.411587	0.114569	0.591802
	H71	H	0.386701	0.881607	0.388903
	H72	H	0.902354	0.617758	0.094244
	H73	H	0.083517	0.385194	0.088063
	H74	H	0.084681	0.617909	0.909977
	H75	H	0.889626	0.383831	0.887344
	H76	H	0.089674	0.904765	0.620651
	H77	H	0.065193	0.105716	0.376880
	H78	H	0.902686	0.099246	0.618155
	H79	H	0.892608	0.890896	0.373633
	H80	H	0.608107	0.090335	0.914617
	H81	H	0.375752	0.082939	0.078816
	H82	H	0.612461	0.904335	0.095033
	H83	H	0.372140	0.900518	0.902565
	H84	H	0.607947	0.911162	0.085134
	H85	H	0.363549	0.101035	0.100870
	H86	H	0.610426	0.095372	0.910251
	H87	H	0.371036	0.907663	0.893243
	H88	H	0.906812	0.092326	0.614444
	H89	H	0.091473	0.098736	0.370855
	H90	H	0.094056	0.919704	0.617737
	H91	H	0.882350	0.910086	0.376822
	H92	H	0.081487	0.617025	0.909802
	H93	H	0.094986	0.381560	0.090449
	H94	H	0.907418	0.614672	0.088592
	H95	H	0.887411	0.385264	0.894389
	H96	H	0.399164	0.116497	0.582042
	H97	H	0.580063	0.882967	0.595974
	H98	H	0.583071	0.118607	0.404173
	H99	H	0.388614	0.884818	0.391683
	H100	H	0.590659	0.412309	0.117295
	H101	H	0.572992	0.596229	0.877219
	H102	H	0.409612	0.601966	0.118042
	H103	H	0.393922	0.396086	0.875869
	H104	H	0.112991	0.594188	0.411149
	H105	H	0.867789	0.603071	0.588198
	H106	H	0.112272	0.409322	0.594263
	H107	H	0.874484	0.407959	0.402896
	H108	H	0.899415	0.615440	0.086369
	H109	H	0.085899	0.380910	0.099300
	H110	H	0.083297	0.616830	0.911791
	H111	H	0.882213	0.382072	0.888920
	H112	H	0.079282	0.914992	0.614570
	H113	H	0.074605	0.081291	0.381330
	H114	H	0.911030	0.100025	0.615689
	H115	H	0.903769	0.908932	0.382250
	H116	H	0.609475	0.097360	0.916672
	H117	H	0.369019	0.110992	0.073420
	H118	H	0.610171	0.917038	0.095816
	H119	H	0.367915	0.896499	0.892617
	C120	C	0.372294	0.008349	0.613951
	C121	C	0.617693	0.990325	0.623631
	C122	C	0.608054	0.008426	0.378185
	C123	C	0.360889	0.992139	0.367124
	C124	C	0.611219	0.381434	0.006055
	C125	C	0.612382	0.624790	0.985883
	C126	C	0.372394	0.621591	0.006529
	C127	C	0.368535	0.377700	0.987870
	C128	C	0.001526	0.620989	0.379596
	C129	C	0.981041	0.627027	0.620193
	C130	C	0.000647	0.382621	0.616018
	C131	C	0.982885	0.376533	0.374020
	C132	C	0.872751	0.508063	0.114545
	C133	C	0.118261	0.490566	0.124427
	C134	C	0.108748	0.509281	0.878697
	C135	C	0.861202	0.492646	0.866778
	C136	C	0.111071	0.882510	0.507063
	C137	C	0.112277	0.124841	0.486441
	C138	C	0.871236	0.122466	0.506078
	C139	C	0.868723	0.877964	0.488182
	C140	C	0.499441	0.120290	0.878552
	C141	C	0.480209	0.125752	0.119061
	C142	C	0.499217	0.882404	0.115226
	C143	C	0.481517	0.875350	0.872581
	C144	C	0.374726	0.884205	0.662750
	C145	C	0.617654	0.112197	0.683178
	C146	C	0.601782	0.886044	0.319519
	C147	C	0.366177	0.114900	0.316397
	C148	C	0.655488	0.384394	0.877685
	C149	C	0.673123	0.623573	0.111720
	C150	C	0.311882	0.613021	0.880681
	C151	C	0.321067	0.384342	0.114866
	C152	C	0.875839	0.674647	0.373592
	C153	C	0.106140	0.683835	0.627203
	C154	C	0.876318	0.324320	0.612396
	C155	C	0.107668	0.321585	0.379817
	C156	C	0.872265	0.388467	0.660185
	C157	C	0.106210	0.624261	0.681528
	C158	C	0.875371	0.613757	0.318882
	C159	C	0.109839	0.380901	0.325822
	C160	C	0.367140	0.672589	0.880455
	C161	C	0.618278	0.682225	0.111517
	C162	C	0.606395	0.321391	0.881531
	C163	C	0.374672	0.325291	0.113131
	C164	C	0.660435	0.885685	0.377600
	C165	C	0.674504	0.112889	0.624561
	C166	C	0.315972	0.885585	0.604691
	C167	C	0.308918	0.115039	0.374016
	C168	C	0.875045	0.384669	0.164915
	C169	C	0.117862	0.612939	0.182946
	C170	C	0.101566	0.386513	0.820792
	C171	C	0.867698	0.616103	0.817536
	C172	C	0.155602	0.884683	0.378818
	C173	C	0.173863	0.124357	0.611910
	C174	C	0.810201	0.114903	0.380694
	C175	C	0.819830	0.883756	0.614322
	C176	C	0.373798	0.174104	0.872931
	C177	C	0.605752	0.181497	0.124995
	C178	C	0.375099	0.824059	0.110653
	C179	C	0.606865	0.821736	0.878437
	C180	C	0.371448	0.886915	0.160243
	C181	C	0.605483	0.123116	0.180765
	C182	C	0.372795	0.112006	0.819233
	C183	C	0.608145	0.880950	0.824542
	C184	C	0.865192	0.174975	0.381296
	C185	C	0.117883	0.181969	0.612278
	C186	C	0.107404	0.821411	0.383052
	C187	C	0.874740	0.825730	0.613776
	C188	C	0.159807	0.385874	0.879014
	C189	C	0.175376	0.613089	0.125447
	C190	C	0.816221	0.385211	0.105999
	C191	C	0.809964	0.615888	0.874984
	C192	C	0.395775	0.094377	0.595683
	C193	C	0.594701	0.904652	0.598860
	C194	C	0.587317	0.093765	0.403018
	C195	C	0.380457	0.905954	0.385463
	C196	C	0.593814	0.404427	0.094235
	C197	C	0.585921	0.602056	0.898164
	C198	C	0.399678	0.603074	0.094288
	C199	C	0.386868	0.397327	0.900000
	C200	C	0.088803	0.600709	0.406928
	C201	C	0.893367	0.605056	0.592527
	C202	C	0.088858	0.403886	0.598155
	C203	C	0.895237	0.397602	0.392394
	C204	C	0.896216	0.593876	0.095486
	C205	C	0.095118	0.404573	0.099737
	C206	C	0.089095	0.595144	0.903244
	C207	C	0.880465	0.406024	0.884890
	C208	C	0.093158	0.906191	0.594838
	C209	C	0.085160	0.101996	0.399125
	C210	C	0.898938	0.103071	0.593621
	C211	C	0.887358	0.897339	0.400266
	C212	C	0.586673	0.100369	0.905899
	C213	C	0.392210	0.104365	0.092234
	C214	C	0.587511	0.904441	0.097467
	C215	C	0.393201	0.895461	0.890681
	Zn216	Zn	0.492027	-0.001784	0.748176
	Zn217	Zn	0.487014	0.001543	0.243223
	Zn218	Zn	0.737440	0.501371	-0.006816
	Zn219	Zn	0.242758	0.499586	-0.000717
	Zn220	Zn	-0.008232	0.753362	0.499212
	Zn221	Zn	-0.008036	0.252174	0.497457
	Zn222	Zn	-0.012041	0.502645	0.743571
	Zn223	Zn	-0.005864	0.498683	0.249609
	Zn224	Zn	0.492004	0.751863	-0.003540
	Zn225	Zn	0.491004	0.252819	-0.002120
	Zn226	Zn	0.742817	-0.000288	0.498498
	Zn227	Zn	0.237022	0.001849	0.493422
	N228	N	0.409162	0.961569	0.668247
	N229	N	0.583285	0.034949	0.682776
	N230	N	0.569756	0.963430	0.319769
	N231	N	0.397879	0.037602	0.311925
	N232	N	0.658835	0.421198	0.956006
	N233	N	0.669940	0.588541	0.032567
	N234	N	0.315245	0.581707	0.959963
	N235	N	0.316899	0.416325	0.035936
	N236	N	0.954987	0.679234	0.410762
	N237	N	0.027042	0.685726	0.589793
	N238	N	0.957244	0.320417	0.585710
	N239	N	0.027763	0.318433	0.408880
	N240	N	0.950683	0.423949	0.663098
	N241	N	0.027377	0.589732	0.677176
	N242	N	0.954562	0.581179	0.322432
	N243	N	0.031183	0.414450	0.322086
	N244	N	0.404304	0.677906	0.959644
	N245	N	0.581358	0.683125	0.032409
	N246	N	0.579856	0.319239	0.962356
	N247	N	0.403526	0.320841	0.033182
	N248	N	0.664258	0.962709	0.413568
	N249	N	0.675145	0.035784	0.588582
	N250	N	0.314265	0.963843	0.575173
	N251	N	0.305572	0.037575	0.404805
	N252	N	0.909543	0.461886	0.170196
	N253	N	0.083346	0.535754	0.182515
	N254	N	0.070415	0.464330	0.820577
	N255	N	0.898781	0.538437	0.812219
	N256	N	0.158116	0.922227	0.456786
	N257	N	0.170421	0.089394	0.532877
	N258	N	0.814007	0.082854	0.459448
	N259	N	0.815991	0.915633	0.535258
	N260	N	0.453435	0.179306	0.909069
	N261	N	0.526837	0.183341	0.087563
	N262	N	0.455831	0.821120	0.083648
	N263	N	0.526860	0.817849	0.907450
	N264	N	0.449750	0.922964	0.163066
	N265	N	0.526176	0.089590	0.177654
	N266	N	0.451808	0.079230	0.822468
	N267	N	0.529304	0.913688	0.820778
	N268	N	0.902626	0.179703	0.460375
	N269	N	0.080308	0.182414	0.533307
	N270	N	0.080466	0.819857	0.463689
	N271	N	0.904060	0.821575	0.534112
	N272	N	0.164337	0.463208	0.914495
	N273	N	0.175815	0.535767	0.089565
	N274	N	0.814397	0.463130	0.075435
	N275	N	0.805592	0.537965	0.904624
	O276	O	0.021739	0.043441	0.063264
	H277	H	0.030725	0.036346	0.062834
	H278	H	0.013109	0.048739	0.068348
	O279	O	0.576910	0.516950	0.594425
	H280	H	0.596372	0.517103	0.603096
	H281	H	0.564019	0.495502	0.583654
	O282	O	0.574163	0.407634	0.530833
	H283	H	0.572914	0.408629	0.538577
	H284	H	0.572592	0.416694	0.531946
	O285	O	0.057753	0.901145	0.918126
	H286	H	0.053768	0.890958	0.910943
	H287	H	0.062333	0.904817	0.917851
	O288	O	0.420808	0.599394	0.463569
	H289	H	0.415175	0.603514	0.457296
	H290	H	0.434175	0.598255	0.482151
	O291	O	0.988822	1.016812	0.986828
	H292	H	0.978507	1.007353	0.983560
	H293	H	0.993674	1.023948	0.995497
	O294	O	0.949948	0.971296	0.903775
	H295	H	0.939992	0.979282	0.915322
	H296	H	0.934362	0.976226	0.897881
	O297	O	0.917409	0.063587	0.980055
	H298	H	0.934379	0.076743	0.982803
	H299	H	0.897228	0.069326	0.967259
	O300	O	0.518124	0.522535	0.481898
	H301	H	0.527375	0.527816	0.479023
	H302	H	0.508371	0.512522	0.472879
	O303	O	0.975438	-0.005182	0.021442
	H304	H	0.961825	-0.010296	0.001970
	H305	H	0.982660	-0.010829	0.024658
	O306	O	0.004638	0.916987	0.954238
	H307	H	0.002865	0.916407	0.947426
	H308	H	0.006813	0.912063	0.953918
	O309	O	1.036843	1.012646	1.105783
	H310	H	1.037469	1.008710	1.104662
	H311	H	1.041120	1.014685	1.086995
	O312	O	0.981494	-0.002760	0.958048
	H313	H	0.978979	-0.005940	0.963571
	H314	H	0.974169	0.003494	0.962561
	O315	O	0.516193	0.509568	0.495506
	H316	H	0.516112	0.501342	0.511053
	H317	H	0.532245	0.502551	0.484402
	O318	O	0.491154	0.470911	0.446154
	H319	H	0.494252	0.480663	0.431667
	H320	H	0.491161	0.461848	0.438978
	O321	O	0.894277	1.147783	0.878181
	H322	H	0.902497	1.154221	0.885623
	H323	H	0.896056	1.157712	0.876890
	O324	O	1.011506	0.019844	0.027318
	H325	H	1.010769	0.036233	0.026618
	H326	H	1.011698	0.021054	0.032477
	O327	O	0.512719	0.475154	0.515929
	H328	H	0.517540	0.472636	0.511921
	H329	H	0.498092	0.478255	0.517855
	O330	O	0.875182	-0.082048	0.989738
	H331	H	0.875526	-0.069386	1.004987
	H332	H	0.862751	-0.078745	0.983397
	O333	O	1.001289	0.979946	0.008203
	H334	H	1.010342	0.976613	0.025519
	H335	H	0.984957	0.985748	0.011925
	O336	O	0.421058	0.553677	0.437633
	H337	H	0.421722	0.565132	0.438377
	H338	H	0.418108	0.560956	0.433087
	O339	O	0.494097	0.531876	0.527976
	H340	H	0.479297	0.542034	0.522466
	H341	H	0.481380	0.531236	0.530411
	O342	O	-0.092262	0.904632	0.065745
	H343	H	-0.087740	0.908708	0.058895
	H344	H	-0.099156	0.902228	0.064458
	O345	O	0.064121	0.074508	0.066008
	H346	H	0.059696	0.076944	0.068982
	H347	H	0.081829	0.064802	0.061833
	O348	O	0.530347	0.440359	0.484004
	H349	H	0.536328	0.437181	0.480275
	H350	H	0.528292	0.436455	0.479768
	O351	O	0.515588	0.587724	0.515260
	H352	H	0.508904	0.590260	0.538100
	H353	H	0.525303	0.581431	0.519807
	O354	O	0.567888	0.548269	0.515350
	H355	H	0.564167	0.548913	0.507669
	H356	H	0.562805	0.557175	0.518795
	O357	O	0.562599	0.384500	0.441691
	H358	H	0.576074	0.390832	0.456553
	H359	H	0.558558	0.371599	0.418706
	O360	O	-0.101195	0.147981	-0.012162
	H361	H	-0.099983	0.134346	-0.003304
	H362	H	-0.102854	0.153695	-0.005033
	O363	O	0.487106	0.466339	0.423272
	H364	H	0.483194	0.467562	0.428421
	H365	H	0.484678	0.476755	0.431441
	O366	O	0.169671	0.048089	1.067162
	H367	H	0.173723	0.045574	1.059835
	H368	H	0.182522	0.041796	1.065433
	O369	O	0.455889	0.514697	0.535851
	H370	H	0.457108	0.528320	0.533216
	H371	H	0.464138	0.518084	0.548150
