data_Molecule from HDF5

_cell_length_a		16.538287
_cell_length_b		16.105430
_cell_length_c		16.187368
_cell_angle_alpha	90.116163
_cell_angle_beta	90.335716
_cell_angle_gamma	89.951170
_symmetry_space_group_name_H-M	'P 1'
_symmetry_Int_Tables_number		1

loop_
	_symmetry_equiv_pos_as_xyz
	x,y,z

loop_
	_atom_site_label
	_atom_site_type_symbol
	_atom_site_fract_x
	_atom_site_fract_y
	_atom_site_fract_z
	H0	H	0.389578	0.824770	0.723516
	H1	H	0.591802	0.151236	0.725639
	H2	H	0.585194	0.822751	0.297598
	H3	H	0.391745	0.153567	0.295381
	H4	H	0.711983	0.379689	0.848339
	H5	H	0.712699	0.593534	0.170465
	H6	H	0.270397	0.594137	0.848130
	H7	H	0.272219	0.380290	0.170249
	H8	H	0.830607	0.706542	0.406504
	H9	H	0.151339	0.708548	0.612732
	H10	H	0.830724	0.272448	0.607025
	H11	H	0.152894	0.269858	0.408237
	H12	H	0.832209	0.385109	0.727720
	H13	H	0.151119	0.592053	0.730381
	H14	H	0.833955	0.592835	0.286424
	H15	H	0.153585	0.387929	0.291885
	H16	H	0.390614	0.703974	0.846105
	H17	H	0.591140	0.701901	0.173657
	H18	H	0.591915	0.269493	0.847221
	H19	H	0.395691	0.275052	0.174977
	H20	H	0.711274	0.827363	0.399258
	H21	H	0.710786	0.149566	0.614428
	H22	H	0.269182	0.828659	0.614513
	H23	H	0.270967	0.151340	0.402573
	H24	H	0.894646	0.324332	0.223729
	H25	H	0.094325	0.653241	0.223409
	H26	H	0.090262	0.322467	0.795814
	H27	H	0.891177	0.652178	0.794664
	H28	H	0.208774	0.883774	0.348171
	H29	H	0.214051	0.099901	0.668040
	H30	H	0.769605	0.094897	0.347037
	H31	H	0.769934	0.880909	0.668378
	H32	H	0.331752	0.207164	0.908008
	H33	H	0.652204	0.203591	0.112505
	H34	H	0.330343	0.769190	0.109122
	H35	H	0.651077	0.767328	0.907073
	H36	H	0.329302	0.885644	0.226129
	H37	H	0.650283	0.088624	0.230977
	H38	H	0.332574	0.093735	0.787054
	H39	H	0.649254	0.881263	0.787628
	H40	H	0.893112	0.202910	0.344345
	H41	H	0.089908	0.203503	0.672580
	H42	H	0.090933	0.771678	0.346748
	H43	H	0.892662	0.776026	0.672869
	H44	H	0.211215	0.325257	0.903443
	H45	H	0.213650	0.649601	0.113756
	H46	H	0.773944	0.326393	0.114444
	H47	H	0.770302	0.648671	0.902030
	H48	H	0.400571	0.105986	0.596913
	H49	H	0.579088	0.869003	0.605828
	H50	H	0.586424	0.105585	0.426245
	H51	H	0.395984	0.872796	0.423001
	H52	H	0.582596	0.402409	0.123953
	H53	H	0.572020	0.565670	0.899734
	H54	H	0.404762	0.570344	0.122122
	H55	H	0.398673	0.389609	0.891113
	H56	H	0.100484	0.568529	0.421116
	H57	H	0.875514	0.583414	0.606416
	H58	H	0.106317	0.403409	0.609536
	H59	H	0.877989	0.392854	0.417941
	H60	H	0.108921	0.388707	0.604456
	H61	H	0.878621	0.583759	0.595936
	H62	H	0.109952	0.584341	0.405444
	H63	H	0.882494	0.402195	0.420676
	H64	H	0.404095	0.580959	0.126046
	H65	H	0.579177	0.589349	0.890291
	H66	H	0.584246	0.392144	0.127480
	H67	H	0.393959	0.404159	0.893572
	H68	H	0.582041	0.107401	0.414849
	H69	H	0.574933	0.875407	0.589992
	H70	H	0.402554	0.103893	0.596956
	H71	H	0.394978	0.870380	0.418387
	H72	H	0.899348	0.606187	0.096940
	H73	H	0.097608	0.367107	0.098593
	H74	H	0.079948	0.602363	0.921135
	H75	H	0.904655	0.372883	0.922632
	H76	H	0.087139	0.902374	0.626473
	H77	H	0.080584	0.083306	0.391281
	H78	H	0.903499	0.080587	0.624127
	H79	H	0.902731	0.888234	0.390012
	H80	H	0.604369	0.070051	0.911452
	H81	H	0.374535	0.087744	0.103772
	H82	H	0.604688	0.894820	0.106946
	H83	H	0.378576	0.901249	0.914695
	H84	H	0.603532	0.894371	0.101062
	H85	H	0.379579	0.080519	0.094623
	H86	H	0.608246	0.087768	0.916166
	H87	H	0.376992	0.893591	0.916117
	H88	H	0.893554	0.080145	0.626553
	H89	H	0.087368	0.076873	0.390374
	H90	H	0.081022	0.905768	0.623287
	H91	H	0.887150	0.902644	0.389182
	H92	H	0.084935	0.603515	0.924624
	H93	H	0.077422	0.369797	0.110592
	H94	H	0.904031	0.604719	0.097031
	H95	H	0.895918	0.370081	0.921702
	H96	H	0.401138	0.104913	0.594780
	H97	H	0.591081	0.870017	0.592930
	H98	H	0.574083	0.102075	0.423111
	H99	H	0.400012	0.871871	0.419036
	H100	H	0.591844	0.399629	0.127310
	H101	H	0.596628	0.569441	0.891348
	H102	H	0.395791	0.574317	0.126557
	H103	H	0.408493	0.399990	0.896853
	H104	H	0.106012	0.590354	0.428351
	H105	H	0.879957	0.574562	0.601767
	H106	H	0.102247	0.398777	0.594863
	H107	H	0.878686	0.400767	0.410704
	H108	H	0.901627	0.603902	0.093206
	H109	H	0.078224	0.376907	0.087715
	H110	H	0.084713	0.606307	0.918126
	H111	H	0.901751	0.369491	0.914455
	H112	H	0.080187	0.898255	0.625995
	H113	H	0.079542	0.074285	0.393785
	H114	H	0.898984	0.072261	0.622236
	H115	H	0.906296	0.908432	0.397450
	H116	H	0.601131	0.075843	0.929153
	H117	H	0.376847	0.074844	0.106837
	H118	H	0.603123	0.899567	0.103258
	H119	H	0.379791	0.898047	0.922415
	C120	C	0.369865	-0.002136	0.628453
	C121	C	0.612289	0.979034	0.628825
	C122	C	0.610554	-0.003055	0.389020
	C123	C	0.367554	0.979846	0.388255
	C124	C	0.615102	0.366155	0.018811
	C125	C	0.613378	0.607547	1.000878
	C126	C	0.370664	0.607473	0.017631
	C127	C	0.371225	0.366744	1.001305
	C128	C	0.000101	0.611996	0.386780
	C129	C	0.983360	0.611782	0.632629
	C130	C	-0.000180	0.366549	0.631547
	C131	C	0.984932	0.367104	0.386623
	C132	C	0.872487	0.497009	0.128195
	C133	C	0.115052	0.479138	0.129905
	C134	C	0.113503	0.496426	0.888835
	C135	C	0.870188	0.478548	0.888186
	C136	C	0.112305	0.869505	0.518129
	C137	C	0.112749	0.110139	0.499287
	C138	C	0.868620	0.109473	0.516975
	C139	C	0.868981	0.868087	0.499642
	C140	C	0.499723	0.110094	0.887433
	C141	C	0.482631	0.110554	0.133281
	C142	C	0.498402	0.865208	0.132650
	C143	C	0.483125	0.865383	0.887028
	C144	C	0.369494	0.874604	0.686350
	C145	C	0.611901	0.101923	0.687442
	C146	C	0.607529	0.872927	0.333219
	C147	C	0.370505	0.103811	0.332116
	C148	C	0.672267	0.362791	0.896689
	C149	C	0.672656	0.610683	0.122361
	C150	C	0.310979	0.610811	0.896260
	C151	C	0.312849	0.363989	0.122516
	C152	C	0.879451	0.668758	0.386614
	C153	C	0.103394	0.669540	0.632269
	C154	C	0.879232	0.309635	0.628651
	C155	C	0.104983	0.308895	0.388128
	C156	C	0.879881	0.366181	0.688449
	C157	C	0.103389	0.611471	0.691059
	C158	C	0.880938	0.612301	0.326577
	C159	C	0.105562	0.367880	0.330479
	C160	C	0.371092	0.665382	0.895182
	C161	C	0.612010	0.664600	0.124025
	C162	C	0.612496	0.307986	0.895947
	C163	C	0.374177	0.311199	0.124920
	C164	C	0.669713	0.875127	0.384391
	C165	C	0.670945	0.101124	0.631824
	C166	C	0.309512	0.876539	0.632157
	C167	C	0.310402	0.102752	0.385547
	C168	C	0.874294	0.373725	0.185892
	C169	C	0.114447	0.603346	0.186204
	C170	C	0.111438	0.372517	0.832374
	C171	C	0.871022	0.602241	0.831753
	C172	C	0.169630	0.866282	0.396526
	C173	C	0.173019	0.115229	0.620532
	C174	C	0.809958	0.111963	0.395073
	C175	C	0.810530	0.864862	0.620729
	C176	C	0.379780	0.168664	0.887456
	C177	C	0.603637	0.166205	0.132840
	C178	C	0.378109	0.807806	0.129994
	C179	C	0.603016	0.806152	0.887367
	C180	C	0.377716	0.865788	0.188394
	C181	C	0.602538	0.109137	0.191807
	C182	C	0.380158	0.111983	0.827372
	C183	C	0.602320	0.862931	0.827780
	C184	C	0.871280	0.165908	0.393756
	C185	C	0.111316	0.166955	0.622780
	C186	C	0.110936	0.810260	0.395917
	C187	C	0.871454	0.812188	0.622957
	C188	C	0.171392	0.373738	0.886182
	C189	C	0.173632	0.601546	0.131289
	C190	C	0.814231	0.374611	0.131397
	C191	C	0.810749	0.600445	0.885048
	C192	C	0.394209	0.082793	0.603428
	C193	C	0.588678	0.893782	0.603625
	C194	C	0.587539	0.082856	0.414051
	C195	C	0.390239	0.893982	0.412962
	C196	C	0.592679	0.390908	0.103901
	C197	C	0.589391	0.582188	0.915935
	C198	C	0.394690	0.582393	0.102746
	C199	C	0.393842	0.390949	0.916026
	C200	C	0.083803	0.588041	0.411221
	C201	C	0.899810	0.587682	0.608598
	C202	C	0.084017	0.389984	0.609275
	C203	C	0.901492	0.391316	0.409711
	C204	C	0.895200	0.582506	0.103116
	C205	C	0.091257	0.393527	0.105742
	C206	C	0.090075	0.581919	0.914025
	C207	C	0.893818	0.393152	0.912548
	C208	C	0.089379	0.895032	0.603105
	C209	C	0.089296	0.085253	0.414162
	C210	C	0.891853	0.084799	0.602293
	C211	C	0.891857	0.892857	0.414440
	C212	C	0.582873	0.085066	0.911847
	C213	C	0.398675	0.087827	0.108852
	C214	C	0.582100	0.889327	0.110288
	C215	C	0.400161	0.890477	0.910848
	Zn216	Zn	0.490981	-0.012556	0.756765
	Zn217	Zn	0.489422	-0.012165	0.262171
	Zn218	Zn	0.743023	0.487552	0.008754
	Zn219	Zn	0.242055	0.486794	0.008713
	Zn220	Zn	-0.009665	0.741660	0.509746
	Zn221	Zn	-0.008264	0.236686	0.509103
	Zn222	Zn	-0.008274	0.487714	0.762044
	Zn223	Zn	-0.006437	0.489504	0.256244
	Zn224	Zn	0.491413	0.735908	0.010280
	Zn225	Zn	0.492280	0.239571	0.010700
	Zn226	Zn	0.740288	-0.012237	0.507510
	Zn227	Zn	0.240704	-0.009459	0.508597
	N228	N	0.406223	0.951067	0.684477
	N229	N	0.575868	0.025053	0.685573
	N230	N	0.571527	0.949897	0.335876
	N231	N	0.405094	0.026342	0.333503
	N232	N	0.674161	0.398253	0.973914
	N233	N	0.673734	0.575882	0.044637
	N234	N	0.310907	0.575070	0.973351
	N235	N	0.310765	0.397692	0.044490
	N236	N	0.954666	0.668668	0.423300
	N237	N	0.027566	0.669967	0.596785
	N238	N	0.955027	0.309933	0.594040
	N239	N	0.029020	0.308178	0.422200
	N240	N	0.955932	0.400446	0.690583
	N241	N	0.027736	0.576280	0.691542
	N242	N	0.956976	0.577693	0.326557
	N243	N	0.029878	0.403202	0.329199
	N244	N	0.407536	0.663203	0.971618
	N245	N	0.576079	0.662945	0.047414
	N246	N	0.577758	0.309727	0.972883
	N247	N	0.409799	0.312811	0.048414
	N248	N	0.671465	0.953294	0.418667
	N249	N	0.671243	0.023704	0.596056
	N250	N	0.309356	0.954227	0.597093
	N251	N	0.308317	0.024530	0.419635
	N252	N	0.909663	0.450977	0.184007
	N253	N	0.078638	0.526275	0.185522
	N254	N	0.076196	0.449906	0.833824
	N255	N	0.907356	0.525457	0.833640
	N256	N	0.170738	0.902337	0.473498
	N257	N	0.174177	0.080701	0.542732
	N258	N	0.808273	0.077580	0.472784
	N259	N	0.808710	0.898763	0.542807
	N260	N	0.455077	0.167817	0.923876
	N261	N	0.528067	0.167170	0.096993
	N262	N	0.454160	0.807239	0.096339
	N263	N	0.527997	0.807518	0.923559
	N264	N	0.453499	0.900920	0.190211
	N265	N	0.526316	0.075318	0.192213
	N266	N	0.455778	0.076245	0.827157
	N267	N	0.526989	0.899109	0.827480
	N268	N	0.906891	0.164727	0.470584
	N269	N	0.074757	0.164142	0.546535
	N270	N	0.075919	0.812081	0.472658
	N271	N	0.906906	0.813946	0.546465
	N272	N	0.172934	0.451869	0.920447
	N273	N	0.174336	0.523177	0.097272
	N274	N	0.812879	0.452291	0.096303
	N275	N	0.809871	0.522471	0.919420
	O276	O	0.306331	0.575108	0.363298
	H277	H	0.300117	0.601342	0.374645
	H278	H	0.291324	0.570786	0.360866
	O279	O	0.057755	0.045434	-0.041088
	H280	H	0.063068	0.050796	-0.039611
	H281	H	0.055760	0.037869	-0.035899
	O282	O	0.854405	-0.071221	0.879791
	H283	H	0.850553	-0.060355	0.870087
	H284	H	0.861111	-0.072611	0.883446
	O285	O	0.632933	0.486301	0.556782
	H286	H	0.627391	0.486594	0.560400
	H287	H	0.628456	0.484981	0.559763
	O288	O	0.933125	0.973351	1.076488
	H289	H	0.919031	0.988803	1.078702
	H290	H	0.922177	0.970998	1.078545
	O291	O	0.149854	0.991178	-0.173183
	H292	H	0.159993	1.000394	-0.167312
	H293	H	0.148609	0.997294	-0.170725
	O294	O	0.948970	0.952990	0.968682
	H295	H	0.958601	0.932525	0.964138
	H296	H	0.955514	0.968087	0.968761
	O297	O	0.392516	0.662661	0.353880
	H298	H	0.379915	0.663480	0.358482
	H299	H	0.400636	0.661777	0.359633
	O300	O	0.583960	0.440100	0.458670
	H301	H	0.587106	0.439279	0.460768
	H302	H	0.580395	0.444400	0.451671
	O303	O	0.500644	0.387440	0.602394
	H304	H	0.505126	0.368312	0.596499
	H305	H	0.491732	0.384983	0.616290
	O306	O	0.529769	0.388424	0.477324
	H307	H	0.549340	0.385065	0.467026
	H308	H	0.538421	0.398776	0.478319
	O309	O	0.390415	0.580427	0.484558
	H310	H	0.390388	0.585226	0.492999
	H311	H	0.386628	0.589495	0.467914
	O312	O	-0.116914	0.130419	-0.111841
	H313	H	-0.113981	0.122599	-0.109410
	H314	H	-0.105311	0.123029	-0.117161
	O315	O	0.867781	1.119192	0.093045
	H316	H	0.869662	1.118607	0.081524
	H317	H	0.871319	1.123322	0.086291
	O318	O	-0.395721	1.524775	0.394569
	H319	H	-0.389226	1.521619	0.378787
	H320	H	-0.387513	1.517876	0.396857
	O321	O	0.914325	0.953076	0.210755
	H322	H	0.898213	0.955554	0.206701
	H323	H	0.908137	0.933265	0.198884
	O324	O	-0.056780	1.132300	-0.152430
	H325	H	-0.057080	1.133070	-0.148463
	H326	H	-0.052474	1.129873	-0.155983
	O327	O	0.362786	0.364614	0.678067
	H328	H	0.372608	0.371643	0.688746
	H329	H	0.369084	0.364656	0.674699
	O330	O	0.577889	-0.366432	1.586946
	H331	H	0.581805	-0.370551	1.587670
	H332	H	0.576336	-0.369153	1.567090
	O333	O	0.146152	0.176156	1.076517
	H334	H	0.145740	0.173748	1.083871
	H335	H	0.157777	0.192362	1.078743
	O336	O	0.682185	0.626311	0.600172
	H337	H	0.675275	0.635861	0.615069
	H338	H	0.684798	0.628462	0.616401
	O339	O	0.507026	-0.608317	0.467584
	H340	H	0.503713	-0.615713	0.474363
	H341	H	0.518487	-0.619209	0.458774
	O342	O	-0.068890	-0.035345	0.062262
	H343	H	-0.065621	-0.049180	0.061232
	H344	H	-0.079953	-0.036876	0.063555
	O345	O	0.983848	-0.026168	1.093467
	H346	H	0.974852	-0.018665	1.091724
	H347	H	0.986953	-0.038673	1.085795
	O348	O	0.965824	0.895638	-0.118496
	H349	H	0.960106	0.884982	-0.106661
	H350	H	0.966162	0.901394	-0.135979
	O351	O	0.505356	0.478893	0.488393
	H352	H	0.504394	0.473359	0.489382
	H353	H	0.512453	0.492266	0.480987
	O354	O	1.067802	0.035718	1.154049
	H355	H	1.056513	0.022895	1.151476
	H356	H	1.078604	0.033012	1.160611
	O357	O	0.303496	0.355388	0.536552
	H358	H	0.306782	0.343400	0.535382
	H359	H	0.307730	0.344839	0.538785
	O360	O	0.405439	0.559127	0.611199
	H361	H	0.397540	0.542012	0.605744
	H362	H	0.414318	0.560732	0.603786
	O363	O	0.137542	0.835425	0.845308
	H364	H	0.147288	0.829287	0.850109
	H365	H	0.139406	0.851273	0.859428
	O366	O	0.550445	0.316012	0.465066
	H367	H	0.559448	0.318267	0.451589
	H368	H	0.550169	0.317683	0.464740
	O369	O	-0.066201	0.847757	0.106628
	H370	H	-0.064148	0.846379	0.113509
	H371	H	-0.082893	0.844174	0.102637
	O372	O	1.459750	0.453684	0.447751
	H373	H	1.473681	0.448917	0.436280
	H374	H	1.465629	0.451681	0.460578
	O375	O	0.986932	-0.066295	0.028683
	H376	H	0.985488	-0.069120	0.027503
	H377	H	0.980836	-0.063789	0.011824
	O378	O	1.501442	1.465468	-0.306411
	H379	H	1.514634	1.479804	-0.305421
	H380	H	1.494202	1.453926	-0.301583
	O381	O	0.826783	-0.078738	0.017205
	H382	H	0.833688	-0.078036	0.021347
	H383	H	0.814828	-0.093476	0.013753
	O384	O	1.057563	0.796454	-0.123102
	H385	H	1.085099	0.802353	-0.109806
	H386	H	1.051292	0.777228	-0.145369
	O387	O	-0.000010	0.050432	-0.004254
	H388	H	0.011456	0.050763	0.008568
	H389	H	0.001062	0.033894	-0.012406
	O390	O	-0.147932	0.812317	0.191961
	H391	H	-0.154787	0.811453	0.189658
	H392	H	-0.151994	0.822002	0.198303
	O393	O	0.974000	1.119221	1.032867
	H394	H	0.969475	1.138754	1.030102
	H395	H	0.996573	1.114086	1.043839
	O396	O	0.639613	0.566094	0.608251
	H397	H	0.638177	0.580898	0.614408
	H398	H	0.638686	0.542990	0.617244
	O399	O	0.065482	1.143594	1.095999
	H400	H	0.063296	1.137721	1.090966
	H401	H	0.074654	1.145839	1.101090
	O402	O	0.539168	0.531690	0.502266
	H403	H	0.535143	0.532487	0.483397
	H404	H	0.542106	0.544462	0.505424
	O405	O	1.141761	0.898935	0.012741
	H406	H	1.140630	0.901540	0.003566
	H407	H	1.147590	0.894325	0.019820
	O408	O	0.443223	1.478344	0.510802
	H409	H	0.441174	1.475159	0.505899
	H410	H	0.431999	1.474396	0.516727
	O411	O	0.327352	-0.508706	0.564280
	H412	H	0.326499	-0.524189	0.573159
	H413	H	0.313932	-0.499895	0.570749
	O414	O	0.582061	0.448684	0.404087
	H415	H	0.576064	0.460552	0.397071
	H416	H	0.597678	0.446120	0.410030
	O417	O	0.495741	0.495848	0.662529
	H418	H	0.492249	0.496124	0.667730
	H419	H	0.492455	0.491338	0.661733
