data_Molecule from HDF5

_cell_length_a		16.766202
_cell_length_b		16.735769
_cell_length_c		16.591062
_cell_angle_alpha	89.854840
_cell_angle_beta	90.111117
_cell_angle_gamma	89.930610
_symmetry_space_group_name_H-M	'P 1'
_symmetry_Int_Tables_number		1

loop_
	_symmetry_equiv_pos_as_xyz
	x,y,z

loop_
	_atom_site_label
	_atom_site_type_symbol
	_atom_site_fract_x
	_atom_site_fract_y
	_atom_site_fract_z
	H0	H	0.384402	0.849036	0.722445
	H1	H	0.605664	0.149319	0.723200
	H2	H	0.598895	0.845412	0.275007
	H3	H	0.385421	0.152128	0.272520
	H4	H	0.717499	0.391389	0.843374
	H5	H	0.713412	0.602507	0.153488
	H6	H	0.271692	0.608289	0.843734
	H7	H	0.271079	0.391680	0.150325
	H8	H	0.841313	0.721256	0.390799
	H9	H	0.146870	0.721859	0.604369
	H10	H	0.846908	0.266734	0.613185
	H11	H	0.146513	0.275655	0.389910
	H12	H	0.844322	0.384948	0.725529
	H13	H	0.146613	0.603911	0.718653
	H14	H	0.839644	0.601991	0.277709
	H15	H	0.148935	0.395369	0.276850
	H16	H	0.387564	0.722370	0.843740
	H17	H	0.597196	0.717313	0.154708
	H18	H	0.602639	0.276281	0.844124
	H19	H	0.385124	0.274353	0.149306
	H20	H	0.721142	0.848480	0.384260
	H21	H	0.723248	0.147499	0.609079
	H22	H	0.269965	0.848063	0.606368
	H23	H	0.267799	0.151339	0.386346
	H24	H	0.889733	0.346369	0.218677
	H25	H	0.095581	0.655483	0.213072
	H26	H	0.102206	0.348188	0.771914
	H27	H	0.886039	0.651806	0.770845
	H28	H	0.215194	0.895393	0.341777
	H29	H	0.217252	0.106372	0.650405
	H30	H	0.765631	0.111710	0.346155
	H31	H	0.770674	0.889477	0.648782
	H32	H	0.345011	0.227047	0.885809
	H33	H	0.642835	0.228865	0.113297
	H34	H	0.340724	0.777958	0.102363
	H35	H	0.646096	0.775227	0.888933
	H36	H	0.339713	0.894765	0.218006
	H37	H	0.644676	0.109828	0.225747
	H38	H	0.344806	0.111147	0.770533
	H39	H	0.644017	0.888648	0.770558
	H40	H	0.881164	0.226652	0.345611
	H41	H	0.103995	0.224255	0.648645
	H42	H	0.097939	0.781094	0.340310
	H43	H	0.889754	0.777041	0.650313
	H44	H	0.220413	0.349204	0.886206
	H45	H	0.215901	0.653100	0.102073
	H46	H	0.772433	0.347026	0.103692
	H47	H	0.769184	0.652268	0.885680
	H48	H	0.401771	0.111168	0.580982
	H49	H	0.583537	0.888727	0.582672
	H50	H	0.588614	0.108522	0.417518
	H51	H	0.411028	0.891008	0.407046
	H52	H	0.569971	0.416044	0.101201
	H53	H	0.579375	0.590271	0.886492
	H54	H	0.405708	0.588797	0.109659
	H55	H	0.414374	0.415206	0.889174
	H56	H	0.108484	0.597893	0.405183
	H57	H	0.885255	0.589642	0.577175
	H58	H	0.096369	0.415937	0.573698
	H59	H	0.884182	0.412024	0.407321
	H60	H	0.101649	0.419887	0.588139
	H61	H	0.886521	0.583043	0.583229
	H62	H	0.103949	0.589569	0.410373
	H63	H	0.884214	0.410109	0.409406
	H64	H	0.403576	0.589085	0.109528
	H65	H	0.584578	0.590375	0.883680
	H66	H	0.583747	0.401160	0.112462
	H67	H	0.406732	0.409854	0.884869
	H68	H	0.578873	0.109747	0.403607
	H69	H	0.578247	0.889957	0.585321
	H70	H	0.408001	0.110652	0.587534
	H71	H	0.401279	0.890870	0.416312
	H72	H	0.902287	0.610224	0.081422
	H73	H	0.082461	0.385964	0.093854
	H74	H	0.083916	0.609081	0.908815
	H75	H	0.902398	0.391251	0.915098
	H76	H	0.084195	0.904581	0.610018
	H77	H	0.079641	0.089317	0.384784
	H78	H	0.900507	0.076857	0.606437
	H79	H	0.909708	0.912932	0.386284
	H80	H	0.603706	0.087268	0.911494
	H81	H	0.387099	0.086175	0.080575
	H82	H	0.603815	0.908513	0.083279
	H83	H	0.385809	0.912374	0.912813
	H84	H	0.604815	0.913399	0.090158
	H85	H	0.386366	0.084246	0.083278
	H86	H	0.602833	0.085224	0.914536
	H87	H	0.385300	0.913623	0.909433
	H88	H	0.919467	0.074261	0.598583
	H89	H	0.082831	0.084171	0.385624
	H90	H	0.088057	0.912995	0.609417
	H91	H	0.905936	0.907848	0.383216
	H92	H	0.081622	0.609993	0.907199
	H93	H	0.079343	0.391713	0.080822
	H94	H	0.895586	0.612980	0.089210
	H95	H	0.906391	0.389270	0.907056
	H96	H	0.408939	0.106933	0.579101
	H97	H	0.579870	0.891666	0.579731
	H98	H	0.572587	0.103153	0.417805
	H99	H	0.398742	0.885937	0.404216
	H100	H	0.591468	0.422109	0.108017
	H101	H	0.582978	0.585254	0.887287
	H102	H	0.404752	0.587414	0.109245
	H103	H	0.405410	0.419869	0.887888
	H104	H	0.108317	0.588358	0.399864
	H105	H	0.882681	0.590757	0.585541
	H106	H	0.104977	0.404703	0.582297
	H107	H	0.884555	0.412761	0.409681
	H108	H	0.906038	0.612785	0.091192
	H109	H	0.092215	0.386372	0.083215
	H110	H	0.081030	0.609626	0.909898
	H111	H	0.911069	0.393495	0.913833
	H112	H	0.079907	0.911423	0.606266
	H113	H	0.077203	0.084537	0.388418
	H114	H	0.914075	0.092279	0.606919
	H115	H	0.903622	0.914032	0.383857
	H116	H	0.603354	0.083931	0.911433
	H117	H	0.385058	0.087460	0.083237
	H118	H	0.606536	0.905267	0.090244
	H119	H	0.383855	0.910684	0.910033
	C120	C	0.372617	0.009176	0.617618
	C121	C	0.616103	0.989843	0.618179
	C122	C	0.614419	0.007026	0.376949
	C123	C	0.370979	0.990777	0.375070
	C124	C	0.615302	0.378826	0.005809
	C125	C	0.614600	0.620504	0.988723
	C126	C	0.372749	0.621071	0.006822
	C127	C	0.373982	0.379702	0.988295
	C128	C	0.004043	0.622371	0.374028
	C129	C	0.985947	0.620222	0.616362
	C130	C	0.002123	0.377526	0.617723
	C131	C	0.985695	0.378572	0.375810
	C132	C	0.871987	0.509088	0.118524
	C133	C	0.115985	0.490618	0.117754
	C134	C	0.115667	0.508611	0.874950
	C135	C	0.872341	0.491568	0.875732
	C136	C	0.115729	0.877999	0.505376
	C137	C	0.114219	0.119542	0.488016
	C138	C	0.874230	0.118697	0.504953
	C139	C	0.873648	0.878086	0.487042
	C140	C	0.503392	0.120498	0.876795
	C141	C	0.485474	0.121180	0.119154
	C142	C	0.502465	0.878196	0.119253
	C143	C	0.485480	0.878257	0.876416
	C144	C	0.367734	0.894838	0.681063
	C145	C	0.622371	0.103489	0.681870
	C146	C	0.617717	0.891987	0.314754
	C147	C	0.367316	0.106016	0.313015
	C148	C	0.676557	0.374588	0.890023
	C149	C	0.673774	0.621459	0.106634
	C150	C	0.312059	0.625389	0.890299
	C151	C	0.311599	0.374343	0.103855
	C152	C	0.887333	0.680868	0.372617
	C153	C	0.100888	0.680986	0.621262
	C154	C	0.890747	0.310941	0.627050
	C155	C	0.101091	0.317237	0.372743
	C156	C	0.889666	0.369740	0.683288
	C157	C	0.100690	0.622640	0.678351
	C158	C	0.886710	0.621952	0.316436
	C159	C	0.102091	0.376325	0.316353
	C160	C	0.369854	0.682162	0.890383
	C161	C	0.615887	0.678365	0.107194
	C162	C	0.619646	0.316878	0.890337
	C163	C	0.368535	0.316324	0.103561
	C164	C	0.678194	0.893357	0.369448
	C165	C	0.680857	0.102665	0.625267
	C166	C	0.310636	0.894276	0.623279
	C167	C	0.308783	0.105457	0.369490
	C168	C	0.870887	0.392800	0.178517
	C169	C	0.115863	0.608098	0.175315
	C170	C	0.119819	0.393883	0.812979
	C171	C	0.868128	0.606027	0.812071
	C172	C	0.174703	0.876905	0.387932
	C173	C	0.176467	0.123954	0.603917
	C174	C	0.808269	0.127240	0.391495
	C175	C	0.812130	0.872891	0.602952
	C176	C	0.390409	0.184917	0.869730
	C177	C	0.598081	0.186199	0.128116
	C178	C	0.386728	0.818437	0.120942
	C179	C	0.600060	0.815979	0.871387
	C180	C	0.386162	0.876415	0.178206
	C181	C	0.598900	0.127147	0.184453
	C182	C	0.390210	0.127231	0.812293
	C183	C	0.598999	0.872602	0.812647
	C184	C	0.865615	0.184570	0.391338
	C185	C	0.120014	0.182193	0.603321
	C186	C	0.116870	0.819983	0.387407
	C187	C	0.871089	0.817071	0.603655
	C188	C	0.178414	0.394448	0.869786
	C189	C	0.175476	0.606931	0.119900
	C190	C	0.812679	0.393207	0.121253
	C191	C	0.809952	0.606150	0.869068
	C192	C	0.398847	0.088664	0.590317
	C193	C	0.588411	0.910674	0.590327
	C194	C	0.587642	0.086334	0.404963
	C195	C	0.396526	0.910261	0.401694
	C196	C	0.589093	0.405409	0.086297
	C197	C	0.589464	0.595742	0.907244
	C198	C	0.397605	0.595515	0.088309
	C199	C	0.401168	0.407143	0.908124
	C200	C	0.085694	0.598816	0.398267
	C201	C	0.905704	0.594970	0.589634
	C202	C	0.080597	0.405721	0.589373
	C203	C	0.905322	0.404304	0.401583
	C204	C	0.894924	0.590590	0.094392
	C205	C	0.091659	0.409378	0.093031
	C206	C	0.089591	0.588664	0.901133
	C207	C	0.899215	0.412028	0.903775
	C208	C	0.091271	0.902521	0.587152
	C209	C	0.087583	0.093296	0.407368
	C210	C	0.903329	0.089319	0.583583
	C211	C	0.899154	0.904314	0.405681
	C212	C	0.582643	0.093069	0.904681
	C213	C	0.406920	0.093681	0.090526
	C214	C	0.583857	0.902420	0.094937
	C215	C	0.405687	0.904804	0.903287
	Zn216	Zn	0.494038	-0.000073	0.746637
	Zn217	Zn	0.493293	-0.000231	0.247992
	Zn218	Zn	0.743470	0.500296	-0.003610
	Zn219	Zn	0.244728	0.500027	-0.003842
	Zn220	Zn	-0.005380	0.750141	0.495748
	Zn221	Zn	-0.006307	0.248041	0.496602
	Zn222	Zn	-0.006677	0.499031	0.746266
	Zn223	Zn	-0.005292	0.499638	0.246361
	Zn224	Zn	0.494442	0.749122	-0.002134
	Zn225	Zn	0.494764	0.250118	-0.002624
	Zn226	Zn	0.744888	-0.001897	0.496463
	Zn227	Zn	0.243126	-0.000771	0.496572
	N228	N	0.405673	0.967318	0.677964
	N229	N	0.582571	0.032152	0.677838
	N230	N	0.578717	0.964026	0.319043
	N231	N	0.405241	0.033483	0.316226
	N232	N	0.673999	0.412749	0.962894
	N233	N	0.673533	0.586410	0.031831
	N234	N	0.313399	0.588196	0.963882
	N235	N	0.314763	0.413158	0.031070
	N236	N	0.961398	0.681338	0.407647
	N237	N	0.028221	0.679898	0.583277
	N238	N	0.961709	0.315657	0.586612
	N239	N	0.027607	0.318345	0.409159
	N240	N	0.959845	0.410903	0.677469
	N241	N	0.028126	0.585525	0.675475
	N242	N	0.960514	0.586393	0.316746
	N243	N	0.029403	0.413817	0.317960
	N244	N	0.406976	0.679811	0.963983
	N245	N	0.579865	0.678156	0.032811
	N246	N	0.581947	0.319423	0.963518
	N247	N	0.406686	0.319358	0.030549
	N248	N	0.676345	0.965863	0.407537
	N249	N	0.677134	0.030744	0.586410
	N250	N	0.313075	0.966499	0.584407
	N251	N	0.310830	0.032658	0.407519
	N252	N	0.906956	0.466009	0.177192
	N253	N	0.079654	0.534601	0.174466
	N254	N	0.081273	0.465856	0.816043
	N255	N	0.906168	0.533455	0.815708
	N256	N	0.174259	0.912376	0.462355
	N257	N	0.173048	0.085538	0.531210
	N258	N	0.813400	0.086525	0.463165
	N259	N	0.813440	0.909943	0.529166
	N260	N	0.462042	0.181004	0.909146
	N261	N	0.526524	0.182913	0.088173
	N262	N	0.460283	0.819096	0.085074
	N263	N	0.528287	0.819217	0.910345
	N264	N	0.459358	0.912859	0.177364
	N265	N	0.527786	0.087153	0.179043
	N266	N	0.461716	0.087644	0.816321
	N267	N	0.526628	0.910871	0.815418
	N268	N	0.905990	0.179519	0.463117
	N269	N	0.081905	0.179699	0.530144
	N270	N	0.080927	0.820534	0.461493
	N271	N	0.908503	0.819963	0.530180
	N272	N	0.176012	0.466878	0.907772
	N273	N	0.176126	0.532726	0.085026
	N274	N	0.813049	0.466560	0.084578
	N275	N	0.812272	0.533702	0.907890
	O276	O	-0.049405	0.760335	-0.032920
	H277	H	-0.039998	0.757706	-0.030100
	H278	H	-0.047798	0.765247	-0.062284
	O279	O	0.657091	0.506079	0.361256
	H280	H	0.663785	0.512449	0.360998
	H281	H	0.634184	0.507185	0.369035
	O282	O	0.986632	0.213156	0.777589
	H283	H	0.967920	0.211166	0.770803
	H284	H	0.971479	0.230589	0.772699
	O285	O	0.515172	0.370048	0.715998
	H286	H	0.490473	0.367427	0.707358
	H287	H	0.502425	0.357939	0.727164
	O288	O	0.300668	0.695808	0.692100
	H289	H	0.309835	0.680691	0.680119
	H290	H	0.319958	0.685179	0.669434
	O291	O	0.300167	0.332861	0.537962
	H292	H	0.305844	0.338209	0.535209
	H293	H	0.280741	0.319740	0.541308
	O294	O	0.762988	0.224192	0.981137
	H295	H	0.761944	0.226255	0.948926
	H296	H	0.736850	0.235841	0.984139
	O297	O	0.355979	0.386950	0.292179
	H298	H	0.349501	0.368381	0.282726
	H299	H	0.380651	0.377725	0.293423
	O300	O	-0.035154	0.064072	0.936843
	H301	H	-0.030712	0.058031	0.939982
	H302	H	-0.038144	0.049299	0.932425
	O303	O	0.715093	0.724896	0.512088
	H304	H	0.705455	0.716573	0.528313
	H305	H	0.738475	0.743166	0.524468
	O306	O	0.708185	0.291792	0.290171
	H307	H	0.685711	0.286063	0.328282
	H308	H	0.708655	0.338391	0.291259
	O309	O	0.501274	0.618347	0.700331
	H310	H	0.497948	0.640710	0.713333
	H311	H	0.486901	0.611906	0.693412
	O312	O	0.492131	0.721423	0.683271
	H313	H	0.479363	0.728716	0.675014
	H314	H	0.485978	0.738321	0.677610
	O315	O	1.184387	0.942988	0.804277
	H316	H	1.184787	0.953133	0.799869
	H317	H	1.192577	0.928607	0.788979
	O318	O	0.641705	0.656594	0.336406
	H319	H	0.632706	0.659347	0.357320
	H320	H	0.641824	0.652505	0.336886
	O321	O	0.200043	0.794531	0.792381
	H322	H	0.214330	0.776037	0.800716
	H323	H	0.201234	0.798576	0.776370
	O324	O	0.957585	0.772993	0.220100
	H325	H	0.947796	0.765033	0.220140
	H326	H	0.940540	0.755810	0.237235
	O327	O	-0.020483	0.120133	0.948589
	H328	H	-0.036240	0.124011	0.942240
	H329	H	-0.014508	0.114887	0.940048
	O330	O	0.468487	0.543931	0.502155
	H331	H	0.450010	0.547766	0.503280
	H332	H	0.460711	0.531319	0.489196
	O333	O	0.485797	0.295486	0.658898
	H334	H	0.478034	0.277104	0.673259
	H335	H	0.469256	0.298269	0.654467
	O336	O	0.803091	0.193818	0.191245
	H337	H	0.773058	0.225043	0.222379
	H338	H	0.805638	0.184213	0.168801
	O339	O	0.764457	-0.032768	0.851447
	H340	H	0.749555	-0.025112	0.853508
	H341	H	0.768864	-0.034064	0.862391
	O342	O	-0.004291	-0.100202	0.002511
	H343	H	-0.016046	-0.100534	-0.001507
	H344	H	-0.021017	-0.112939	-0.010692
	O345	O	0.055432	0.796753	1.074678
	H346	H	0.056878	0.804319	1.080276
	H347	H	0.062514	0.804178	1.074622
	O348	O	0.286416	0.376018	0.379040
	H349	H	0.296301	0.366713	0.387971
	H350	H	0.273768	0.358560	0.356733
	O351	O	0.508836	0.631222	0.270202
	H352	H	0.496244	0.655273	0.254883
	H353	H	0.473374	0.634707	0.274091
	O354	O	0.229448	-0.060668	1.046084
	H355	H	0.226048	-0.070288	1.032163
	H356	H	0.222546	-0.058851	1.047250
	O357	O	0.486973	0.741235	0.523150
	H358	H	0.475759	0.739808	0.499456
	H359	H	0.483938	0.744499	0.495566
	O360	O	0.285719	0.288883	0.703141
	H361	H	0.253140	0.259270	0.736588
	H362	H	0.286132	0.312214	0.685443
	O363	O	0.085588	0.188756	0.052443
	H364	H	0.079302	0.183832	0.054677
	H365	H	0.079513	0.189533	0.051101
	O366	O	0.698137	0.372507	0.487307
	H367	H	0.714152	0.368944	0.499449
	H368	H	0.687374	0.371178	0.495200
	O369	O	0.914081	0.052448	0.038047
	H370	H	0.922058	0.050640	0.042559
	H371	H	0.901485	0.055746	0.024678
	O372	O	0.749027	0.979772	0.002343
	H373	H	0.747313	0.988260	0.003448
	H374	H	0.743919	0.970952	0.020010
	O375	O	0.917004	0.057711	0.228928
	H376	H	0.925850	0.064234	0.219375
	H377	H	0.907555	0.064255	0.223257
	O378	O	0.561345	0.682823	0.486159
	H379	H	0.582812	0.687735	0.478535
	H380	H	0.564935	0.674779	0.467687
	O381	O	0.051119	0.943661	0.849163
	H382	H	0.037877	0.949546	0.851576
	H383	H	0.038950	0.947440	0.838613
	O384	O	1.080157	0.087842	1.092041
	H385	H	1.094547	0.083163	1.090661
	H386	H	1.061551	0.090689	1.085666
	O387	O	0.768852	0.779566	0.030917
	H388	H	0.772350	0.757541	0.021086
	H389	H	0.767197	0.769913	0.038590
	O390	O	0.509695	0.283347	0.278533
	H391	H	0.522275	0.272015	0.267121
	H392	H	0.528161	0.276347	0.283487
	O393	O	0.420830	0.518103	0.502595
	H394	H	0.417792	0.512547	0.505328
	H395	H	0.414971	0.516181	0.502202
	O396	O	0.227001	1.036781	0.885792
	H397	H	0.240879	1.023141	0.861102
	H398	H	0.220827	1.039326	0.893372
	O399	O	-0.170121	0.053471	0.780488
	H400	H	-0.167229	0.031550	0.797505
	H401	H	-0.168273	0.048007	0.778726
	O402	O	0.485951	0.383639	0.460980
	H403	H	0.476473	0.400156	0.459497
	H404	H	0.470864	0.372711	0.462988
	O405	O	1.062265	0.093974	0.998886
	H406	H	1.055480	0.092511	1.010440
	H407	H	1.052527	0.088834	1.002282
	O408	O	0.154813	0.225168	-0.022185
	H409	H	0.164891	0.240069	-0.011034
	H410	H	0.150656	0.224586	-0.016036
	O411	O	0.706582	0.711857	0.707986
	H412	H	0.678963	0.705641	0.694248
	H413	H	0.695324	0.677729	0.696953
	O414	O	0.686006	0.304459	0.682081
	H415	H	0.668674	0.318088	0.666166
	H416	H	0.688907	0.308471	0.687868
	O417	O	0.446819	0.477487	0.438476
	H418	H	0.437373	0.477418	0.429228
	H419	H	0.449275	0.492322	0.436979
	O420	O	0.407104	0.482638	0.571109
	H421	H	0.400825	0.464450	0.570563
	H422	H	0.405209	0.490193	0.563282
	O423	O	0.042924	0.002364	1.177310
	H424	H	0.027821	-0.015781	1.183179
	H425	H	0.026575	0.016170	1.160200
	O426	O	0.269354	0.727416	0.472977
	H427	H	0.255241	0.739496	0.448397
	H428	H	0.261789	0.734784	0.448200
	O429	O	0.806318	0.807902	0.805425
	H430	H	0.774887	0.777969	0.774330
	H431	H	0.812767	0.830295	0.812984
	O432	O	0.520718	0.553644	0.574335
	H433	H	0.498857	0.560011	0.563948
	H434	H	0.512079	0.560752	0.577351
	O435	O	0.239040	0.752768	0.241802
	H436	H	0.233908	0.730604	0.220298
	H437	H	0.208388	0.782363	0.222882
	O438	O	0.216361	0.024847	0.209511
	H439	H	0.215380	0.020041	0.223193
	H440	H	0.224118	0.023838	0.210488
	O441	O	0.015270	0.212690	0.206600
	H442	H	-0.004110	0.224822	0.192992
	H443	H	0.018627	0.227183	0.228357
	O444	O	0.423870	0.285033	0.469910
	H445	H	0.431239	0.282496	0.464259
	H446	H	0.410267	0.286639	0.468531
	O447	O	0.116316	1.101514	0.860226
	H448	H	0.116264	1.098931	0.870248
	H449	H	0.127943	1.113351	0.862070
	O450	O	0.216225	0.778971	0.973867
	H451	H	0.232160	0.755081	0.960942
	H452	H	0.203048	0.781610	0.972616
	O453	O	0.485828	0.471599	0.646879
	H454	H	0.477029	0.472354	0.648201
	H455	H	0.468714	0.468033	0.636894
	O456	O	0.189824	0.194250	0.804034
	H457	H	0.172812	0.181999	0.827502
	H458	H	0.167384	0.176779	0.817910
	O459	O	0.766900	0.967321	0.213009
	H460	H	0.767749	0.971866	0.236230
	H461	H	0.768905	0.959221	0.226485
	O462	O	0.635781	0.393431	0.328413
	H463	H	0.640268	0.411752	0.337844
	H464	H	0.640126	0.399730	0.336817
	O465	O	0.826166	0.084500	0.031475
	H466	H	0.809733	0.077267	0.011159
	H467	H	0.824953	0.083139	0.055333
	O468	O	0.270881	0.541035	0.276180
	H469	H	0.291743	0.514611	0.265836
	H470	H	0.259658	0.528595	0.250370
	O471	O	0.627106	0.265734	0.538691
	H472	H	0.629151	0.264590	0.541213
	H473	H	0.631038	0.262429	0.532729
	O474	O	0.378625	0.717161	0.285851
	H475	H	0.368181	0.705510	0.266493
	H476	H	0.339393	0.728557	0.275200
	O477	O	0.500043	0.502000	1.275362
	H478	H	0.501387	0.505492	1.270883
	H479	H	0.501970	0.506874	1.288773
	O480	O	0.733248	0.451643	0.478563
	H481	H	0.734722	0.449664	0.493688
	H482	H	0.732894	0.441270	0.481876
	O483	O	0.724497	0.516716	0.716552
	H484	H	0.725762	0.514739	0.738025
	H485	H	0.723194	0.504942	0.731677
	O486	O	0.779819	0.212817	0.789874
	H487	H	0.787864	0.171780	0.788325
	H488	H	0.769316	0.223594	0.777279
	O489	O	0.939920	0.934328	-0.170628
	H490	H	0.936670	0.916560	-0.174729
	H491	H	0.931394	0.936348	-0.166844
	O492	O	0.209358	0.212065	0.206521
	H493	H	0.190056	0.189076	0.196341
	H494	H	0.191622	0.198911	0.185825
	O495	O	0.000790	0.766367	0.817517
	H496	H	0.015534	0.767487	0.799456
	H497	H	0.001978	0.759543	0.809570
	O498	O	0.865992	0.939543	1.038460
	H499	H	0.875629	0.939421	1.042705
	H500	H	0.862256	0.952686	1.047555
	O501	O	0.633096	0.567389	0.525817
	H502	H	0.628909	0.566624	0.527385
	H503	H	0.635692	0.557265	0.541959
	O504	O	0.287787	0.464679	0.715219
	H505	H	0.283873	0.457905	0.697557
	H506	H	0.280696	0.466551	0.734992
	O507	O	0.257143	0.511849	0.526037
	H508	H	0.256005	0.502281	0.506700
	H509	H	0.253720	0.498685	0.521815
	O510	O	0.139175	-0.128368	0.186318
	H511	H	0.122365	-0.123577	0.176415
	H512	H	0.124965	-0.111269	0.169499
	O513	O	0.758590	0.760379	0.233246
	H514	H	0.744745	0.748810	0.246223
	H515	H	0.762119	0.774596	0.204854
