data_Molecule from HDF5

_cell_length_a		16.317576
_cell_length_b		16.216936
_cell_length_c		16.178823
_cell_angle_alpha	89.955961
_cell_angle_beta	89.983725
_cell_angle_gamma	90.150309
_symmetry_space_group_name_H-M	'P 1'
_symmetry_Int_Tables_number		1

loop_
	_symmetry_equiv_pos_as_xyz
	x,y,z

loop_
	_atom_site_label
	_atom_site_type_symbol
	_atom_site_fract_x
	_atom_site_fract_y
	_atom_site_fract_z
	H0	H	0.403251	0.835200	0.712656
	H1	H	0.597547	0.164889	0.711662
	H2	H	0.597599	0.835410	0.286436
	H3	H	0.403930	0.164518	0.286804
	H4	H	0.713234	0.401559	0.835549
	H5	H	0.714359	0.599657	0.164154
	H6	H	0.286043	0.597842	0.836210
	H7	H	0.285357	0.400044	0.164492
	H8	H	0.836089	0.713115	0.402949
	H9	H	0.163354	0.715767	0.598186
	H10	H	0.837225	0.284154	0.599534
	H11	H	0.163867	0.286783	0.402148
	H12	H	0.836936	0.402117	0.714616
	H13	H	0.164234	0.598588	0.713645
	H14	H	0.836968	0.597823	0.285243
	H15	H	0.164490	0.403222	0.286725
	H16	H	0.402032	0.713473	0.834842
	H17	H	0.596947	0.712850	0.165127
	H18	H	0.595514	0.287924	0.834605
	H19	H	0.402262	0.285829	0.165055
	H20	H	0.715136	0.836342	0.399847
	H21	H	0.715228	0.164077	0.598721
	H22	H	0.283957	0.835766	0.600993
	H23	H	0.286626	0.163873	0.401213
	H24	H	0.903631	0.335152	0.212634
	H25	H	0.097671	0.665564	0.210900
	H26	H	0.096436	0.335777	0.787927
	H27	H	0.903824	0.664664	0.787371
	H28	H	0.214298	0.900334	0.335846
	H29	H	0.213478	0.098821	0.664430
	H30	H	0.786370	0.098916	0.335847
	H31	H	0.785306	0.900432	0.664531
	H32	H	0.336340	0.213701	0.901569
	H33	H	0.662978	0.215322	0.098799
	H34	H	0.336915	0.784016	0.099180
	H35	H	0.664133	0.785491	0.901663
	H36	H	0.336424	0.900983	0.214110
	H37	H	0.663434	0.097753	0.212976
	H38	H	0.336378	0.096682	0.785795
	H39	H	0.664416	0.902357	0.785649
	H40	H	0.902405	0.213936	0.335320
	H41	H	0.097732	0.213660	0.664850
	H42	H	0.095521	0.788341	0.334742
	H43	H	0.902854	0.786796	0.665270
	H44	H	0.213248	0.335461	0.902048
	H45	H	0.216073	0.663092	0.099802
	H46	H	0.785207	0.335814	0.099059
	H47	H	0.785611	0.664190	0.900294
	H48	H	0.417587	0.116502	0.600861
	H49	H	0.591009	0.879726	0.603944
	H50	H	0.594121	0.116320	0.411275
	H51	H	0.405959	0.886634	0.419456
	H52	H	0.590549	0.407592	0.117178
	H53	H	0.599429	0.589328	0.881530
	H54	H	0.412276	0.589523	0.114936
	H55	H	0.416103	0.411402	0.887131
	H56	H	0.118181	0.593437	0.399590
	H57	H	0.884702	0.595798	0.584787
	H58	H	0.116623	0.399126	0.585484
	H59	H	0.883873	0.400279	0.412899
	H60	H	0.113358	0.417081	0.592141
	H61	H	0.884862	0.584919	0.597963
	H62	H	0.118497	0.601472	0.408305
	H63	H	0.886866	0.414921	0.408285
	H64	H	0.408205	0.598312	0.119756
	H65	H	0.587910	0.590373	0.885332
	H66	H	0.594276	0.404545	0.118290
	H67	H	0.404389	0.395515	0.878440
	H68	H	0.596909	0.118531	0.404958
	H69	H	0.584286	0.887083	0.585058
	H70	H	0.405505	0.113560	0.580123
	H71	H	0.395123	0.877978	0.402461
	H72	H	0.900861	0.617715	0.086786
	H73	H	0.094822	0.383166	0.089663
	H74	H	0.090880	0.615551	0.911756
	H75	H	0.902311	0.381460	0.905652
	H76	H	0.086132	0.905789	0.615898
	H77	H	0.097656	0.091703	0.381607
	H78	H	0.902747	0.087214	0.617404
	H79	H	0.910612	0.906052	0.383582
	H80	H	0.614225	0.091063	0.909058
	H81	H	0.382449	0.092165	0.095451
	H82	H	0.618469	0.903585	0.096205
	H83	H	0.385602	0.911710	0.905299
	H84	H	0.615931	0.905169	0.088870
	H85	H	0.382427	0.094751	0.094003
	H86	H	0.617938	0.092635	0.901078
	H87	H	0.381692	0.903511	0.901423
	H88	H	0.912944	0.091923	0.616238
	H89	H	0.091033	0.091328	0.383574
	H90	H	0.097380	0.903337	0.620025
	H91	H	0.903741	0.902846	0.380463
	H92	H	0.101054	0.618733	0.908735
	H93	H	0.096044	0.380427	0.095933
	H94	H	0.904903	0.619771	0.099078
	H95	H	0.909626	0.383149	0.906488
	H96	H	0.395025	0.122463	0.598666
	H97	H	0.604433	0.881082	0.587699
	H98	H	0.589997	0.116120	0.405418
	H99	H	0.416264	0.882995	0.401443
	H100	H	0.595225	0.409971	0.117645
	H101	H	0.594036	0.600460	0.880210
	H102	H	0.402344	0.589136	0.117900
	H103	H	0.395709	0.414872	0.881536
	H104	H	0.114353	0.590041	0.409951
	H105	H	0.879640	0.600430	0.600368
	H106	H	0.120523	0.404099	0.603824
	H107	H	0.880528	0.404862	0.398347
	H108	H	0.913292	0.614701	0.091074
	H109	H	0.089632	0.382996	0.094253
	H110	H	0.092634	0.618931	0.901230
	H111	H	0.904447	0.383720	0.912129
	H112	H	0.094771	0.914274	0.616348
	H113	H	0.093031	0.097230	0.381303
	H114	H	0.904192	0.098368	0.619737
	H115	H	0.903817	0.911154	0.383371
	H116	H	0.617834	0.098866	0.907633
	H117	H	0.383070	0.092280	0.092426
	H118	H	0.615103	0.910533	0.094422
	H119	H	0.384436	0.903487	0.910592
	C120	C	0.378270	0.008301	0.621460
	C121	C	0.621699	0.991398	0.620885
	C122	C	0.622023	0.008423	0.378181
	C123	C	0.378305	0.991039	0.379012
	C124	C	0.621075	0.378643	0.008626
	C125	C	0.621606	0.621484	0.991432
	C126	C	0.379035	0.620863	0.008829
	C127	C	0.377746	0.378253	0.991308
	C128	C	0.008808	0.622280	0.377922
	C129	C	0.991762	0.622041	0.622044
	C130	C	0.008697	0.377956	0.622311
	C131	C	0.992111	0.378971	0.378523
	C132	C	0.878295	0.508616	0.121194
	C133	C	0.121753	0.491338	0.121290
	C134	C	0.121925	0.508777	0.879059
	C135	C	0.878069	0.491381	0.878982
	C136	C	0.120869	0.879367	0.508698
	C137	C	0.121815	0.121576	0.491351
	C138	C	0.879059	0.121120	0.508662
	C139	C	0.878111	0.878546	0.491623
	C140	C	0.508379	0.121772	0.877564
	C141	C	0.491311	0.121313	0.121575
	C142	C	0.508471	0.877698	0.121809
	C143	C	0.492118	0.878277	0.877703
	C144	C	0.382006	0.884078	0.675361
	C145	C	0.618543	0.115573	0.674955
	C146	C	0.618570	0.884586	0.323809
	C147	C	0.382637	0.115173	0.324417
	C148	C	0.675514	0.381335	0.884572
	C149	C	0.676305	0.619342	0.115343
	C150	C	0.323881	0.618434	0.884779
	C151	C	0.323328	0.380255	0.115659
	C152	C	0.885101	0.675776	0.381671
	C153	C	0.114896	0.677151	0.618761
	C154	C	0.885786	0.322714	0.620092
	C155	C	0.115084	0.324434	0.381566
	C156	C	0.885585	0.381240	0.677053
	C157	C	0.115090	0.618954	0.676115
	C158	C	0.885473	0.618787	0.323158
	C159	C	0.115346	0.382179	0.323963
	C160	C	0.381514	0.675655	0.884260
	C161	C	0.618022	0.675862	0.115681
	C162	C	0.617132	0.324802	0.884181
	C163	C	0.381407	0.323509	0.115688
	C164	C	0.677094	0.885144	0.379967
	C165	C	0.677147	0.115098	0.618957
	C166	C	0.322717	0.884587	0.619891
	C167	C	0.324281	0.115021	0.381081
	C168	C	0.882091	0.384555	0.175512
	C169	C	0.118271	0.615762	0.174488
	C170	C	0.117327	0.384628	0.825210
	C171	C	0.882179	0.615622	0.824559
	C172	C	0.175736	0.881114	0.384677
	C173	C	0.176191	0.119379	0.615295
	C174	C	0.824022	0.119449	0.384828
	C175	C	0.822797	0.880121	0.615415
	C176	C	0.385152	0.175868	0.880769
	C177	C	0.614150	0.176937	0.119067
	C178	C	0.385388	0.822496	0.119310
	C179	C	0.615378	0.823493	0.880969
	C180	C	0.385455	0.880535	0.176513
	C181	C	0.614353	0.118548	0.175949
	C182	C	0.385025	0.117769	0.823280
	C183	C	0.615805	0.881798	0.823651
	C184	C	0.881556	0.176489	0.384739
	C185	C	0.118522	0.176076	0.615349
	C186	C	0.117190	0.824931	0.384153
	C187	C	0.881434	0.823830	0.615974
	C188	C	0.175392	0.384630	0.881899
	C189	C	0.177195	0.614826	0.119188
	C190	C	0.823095	0.384910	0.119266
	C191	C	0.823442	0.615281	0.880595
	C192	C	0.399714	0.094873	0.599567
	C193	C	0.599760	0.904913	0.598678
	C194	C	0.600257	0.094849	0.400755
	C195	C	0.399454	0.904891	0.401178
	C196	C	0.599549	0.400661	0.095550
	C197	C	0.600123	0.599820	0.904559
	C198	C	0.401022	0.598875	0.095201
	C199	C	0.399046	0.400532	0.904908
	C200	C	0.094942	0.601194	0.399544
	C201	C	0.905569	0.600072	0.600582
	C202	C	0.094772	0.400207	0.600253
	C203	C	0.905744	0.400393	0.400071
	C204	C	0.900025	0.595184	0.098928
	C205	C	0.099911	0.404558	0.099668
	C206	C	0.101202	0.595502	0.900772
	C207	C	0.899263	0.405165	0.901389
	C208	C	0.099227	0.901308	0.595096
	C209	C	0.100228	0.099627	0.404612
	C210	C	0.900372	0.098964	0.595358
	C211	C	0.899663	0.900310	0.404772
	C212	C	0.594495	0.100597	0.899327
	C213	C	0.404837	0.099602	0.100146
	C214	C	0.594359	0.899869	0.099634
	C215	C	0.406178	0.899920	0.899290
	Zn216	Zn	0.500399	-0.000202	0.748583
	Zn217	Zn	0.500279	-0.000462	0.250484
	Zn218	Zn	0.749276	0.499887	-0.000211
	Zn219	Zn	0.250096	0.499783	0.000619
	Zn220	Zn	-0.000349	0.750675	0.500315
	Zn221	Zn	0.000115	0.249557	0.500001
	Zn222	Zn	0.000248	0.500471	0.751009
	Zn223	Zn	0.000761	0.500463	0.249100
	Zn224	Zn	0.499875	0.749568	-0.000272
	Zn225	Zn	0.499489	0.250293	-0.000050
	Zn226	Zn	0.750093	0.000215	0.499623
	Zn227	Zn	0.249507	-0.000099	0.500377
	N228	N	0.415604	0.961930	0.676630
	N229	N	0.584765	0.037643	0.676227
	N230	N	0.585259	0.962327	0.322559
	N231	N	0.415669	0.037197	0.322927
	N232	N	0.677921	0.414097	0.963014
	N233	N	0.678441	0.586155	0.037123
	N234	N	0.322162	0.585008	0.963070
	N235	N	0.320818	0.413520	0.037385
	N236	N	0.962718	0.678117	0.414938
	N237	N	0.037070	0.679242	0.586129
	N238	N	0.963399	0.320701	0.586850
	N239	N	0.037542	0.322439	0.414815
	N240	N	0.963124	0.414977	0.678552
	N241	N	0.037530	0.585351	0.678228
	N242	N	0.963394	0.586280	0.320765
	N243	N	0.037769	0.415503	0.322067
	N244	N	0.415153	0.677205	0.962157
	N245	N	0.584683	0.677268	0.037575
	N246	N	0.584057	0.323073	0.962416
	N247	N	0.414548	0.322097	0.037587
	N248	N	0.679043	0.963267	0.413328
	N249	N	0.679074	0.036939	0.585898
	N250	N	0.320424	0.962829	0.586908
	N251	N	0.321291	0.036940	0.414346
	N252	N	0.915742	0.462522	0.176892
	N253	N	0.084456	0.537939	0.175901
	N254	N	0.084802	0.462846	0.823503
	N255	N	0.915756	0.537875	0.823593
	N256	N	0.178249	0.914023	0.463000
	N257	N	0.178171	0.085973	0.537242
	N258	N	0.821966	0.085938	0.462905
	N259	N	0.820781	0.913466	0.537118
	N260	N	0.462680	0.178178	0.913922
	N261	N	0.536480	0.178513	0.085710
	N262	N	0.462857	0.820571	0.085970
	N263	N	0.537645	0.821262	0.913909
	N264	N	0.462945	0.914272	0.177928
	N265	N	0.537075	0.084741	0.177471
	N266	N	0.462735	0.084778	0.821202
	N267	N	0.538203	0.914868	0.821284
	N268	N	0.915364	0.177379	0.462604
	N269	N	0.085405	0.177684	0.537146
	N270	N	0.083536	0.823662	0.462182
	N271	N	0.914946	0.822643	0.538041
	N272	N	0.178407	0.462902	0.914717
	N273	N	0.179423	0.536383	0.086794
	N274	N	0.820735	0.463162	0.086273
	N275	N	0.820661	0.537132	0.913567
