data_Molecule from HDF5

_cell_length_a		16.174628
_cell_length_b		16.320961
_cell_length_c		16.037845
_cell_angle_alpha	90.061311
_cell_angle_beta	89.571073
_cell_angle_gamma	89.801403
_symmetry_space_group_name_H-M	'P 1'
_symmetry_Int_Tables_number		1

loop_
	_symmetry_equiv_pos_as_xyz
	x,y,z

loop_
	_atom_site_label
	_atom_site_type_symbol
	_atom_site_fract_x
	_atom_site_fract_y
	_atom_site_fract_z
	H0	H	0.406460	0.832842	0.709679
	H1	H	0.599617	0.159977	0.706693
	H2	H	0.603610	0.833146	0.279715
	H3	H	0.407427	0.161022	0.284040
	H4	H	0.717495	0.397954	0.829462
	H5	H	0.711606	0.593013	0.161817
	H6	H	0.292169	0.594581	0.827729
	H7	H	0.289144	0.401269	0.160573
	H8	H	0.839583	0.711362	0.396755
	H9	H	0.168065	0.708960	0.594386
	H10	H	0.840156	0.279293	0.597387
	H11	H	0.167865	0.279741	0.392313
	H12	H	0.838466	0.399938	0.708734
	H13	H	0.169342	0.591993	0.705948
	H14	H	0.835794	0.591043	0.287225
	H15	H	0.168222	0.397634	0.279574
	H16	H	0.403461	0.711952	0.829555
	H17	H	0.601490	0.710995	0.160398
	H18	H	0.604525	0.282642	0.829315
	H19	H	0.400857	0.282008	0.159927
	H20	H	0.721044	0.833111	0.392836
	H21	H	0.717932	0.158816	0.594064
	H22	H	0.289231	0.832814	0.596429
	H23	H	0.288084	0.158673	0.397042
	H24	H	0.904806	0.331355	0.207720
	H25	H	0.097611	0.660286	0.208098
	H26	H	0.100942	0.331909	0.782107
	H27	H	0.905738	0.661053	0.782907
	H28	H	0.218603	0.896744	0.328635
	H29	H	0.212758	0.090734	0.661912
	H30	H	0.791817	0.094194	0.328875
	H31	H	0.789217	0.897509	0.660877
	H32	H	0.340271	0.212530	0.893801
	H33	H	0.667161	0.213240	0.094634
	H34	H	0.338817	0.783398	0.097546
	H35	H	0.667278	0.778723	0.891911
	H36	H	0.338355	0.902214	0.208782
	H37	H	0.669298	0.094115	0.205618
	H38	H	0.337815	0.092623	0.785403
	H39	H	0.669551	0.899526	0.780406
	H40	H	0.903905	0.210357	0.329583
	H41	H	0.104081	0.210032	0.659465
	H42	H	0.105349	0.779835	0.329358
	H43	H	0.902970	0.781407	0.660707
	H44	H	0.220075	0.333935	0.892772
	H45	H	0.215161	0.660181	0.093070
	H46	H	0.786827	0.332564	0.095783
	H47	H	0.786950	0.659925	0.896990
	H48	H	0.398283	0.117081	0.592828
	H49	H	0.595360	0.880693	0.581601
	H50	H	0.592268	0.114112	0.393270
	H51	H	0.401350	0.876878	0.401636
	H52	H	0.596166	0.406231	0.114318
	H53	H	0.607788	0.587423	0.872712
	H54	H	0.408995	0.588074	0.112583
	H55	H	0.429146	0.405884	0.880982
	H56	H	0.118394	0.583739	0.405758
	H57	H	0.884523	0.593362	0.588047
	H58	H	0.115148	0.411148	0.574555
	H59	H	0.885421	0.401401	0.405069
	H60	H	0.124394	0.406955	0.600995
	H61	H	0.887619	0.588357	0.585618
	H62	H	0.122125	0.585480	0.394579
	H63	H	0.884812	0.400739	0.401308
	H64	H	0.410725	0.592138	0.113139
	H65	H	0.588637	0.578236	0.881298
	H66	H	0.589301	0.402806	0.113161
	H67	H	0.407533	0.385948	0.868641
	H68	H	0.595709	0.109942	0.410150
	H69	H	0.602261	0.877271	0.587459
	H70	H	0.414454	0.113077	0.595348
	H71	H	0.416136	0.877742	0.392629
	H72	H	0.906180	0.614670	0.097259
	H73	H	0.093264	0.382103	0.078558
	H74	H	0.092685	0.610505	0.907989
	H75	H	0.905982	0.379190	0.904417
	H76	H	0.094892	0.899296	0.614177
	H77	H	0.099066	0.095277	0.372637
	H78	H	0.915236	0.079461	0.609872
	H79	H	0.921760	0.898971	0.377292
	H80	H	0.620709	0.091975	0.907732
	H81	H	0.384545	0.095349	0.087317
	H82	H	0.619887	0.902839	0.081570
	H83	H	0.385958	0.897353	0.907519
	H84	H	0.621796	0.904515	0.089859
	H85	H	0.387455	0.088102	0.085826
	H86	H	0.620784	0.084089	0.899505
	H87	H	0.388791	0.909348	0.905501
	H88	H	0.915970	0.096718	0.614072
	H89	H	0.102910	0.080859	0.375195
	H90	H	0.097283	0.899476	0.614990
	H91	H	0.908053	0.897332	0.373436
	H92	H	0.106340	0.616526	0.900622
	H93	H	0.105275	0.377037	0.086059
	H94	H	0.912615	0.609831	0.086040
	H95	H	0.909797	0.379042	0.898850
	H96	H	0.407290	0.111315	0.580510
	H97	H	0.594440	0.878916	0.591222
	H98	H	0.609360	0.117465	0.399859
	H99	H	0.416032	0.882833	0.410061
	H100	H	0.595775	0.398336	0.116193
	H101	H	0.588516	0.599716	0.874710
	H102	H	0.405997	0.591753	0.115072
	H103	H	0.399180	0.416286	0.875283
	H104	H	0.122784	0.593608	0.402198
	H105	H	0.885494	0.587223	0.591103
	H106	H	0.125695	0.386135	0.582302
	H107	H	0.884810	0.398538	0.403568
	H108	H	0.899495	0.613669	0.084798
	H109	H	0.092431	0.378745	0.092508
	H110	H	0.091883	0.614315	0.893329
	H111	H	0.912663	0.381299	0.904853
	H112	H	0.096434	0.901354	0.614419
	H113	H	0.088943	0.086571	0.378746
	H114	H	0.901283	0.088154	0.617316
	H115	H	0.913171	0.909819	0.379403
	H116	H	0.624071	0.094162	0.896116
	H117	H	0.384642	0.089776	0.092408
	H118	H	0.623773	0.895731	0.086081
	H119	H	0.382806	0.901883	0.896452
	C120	C	0.380160	0.005140	0.617875
	C121	C	0.625306	0.987211	0.615567
	C122	C	0.627336	0.005427	0.372277
	C123	C	0.382262	0.987357	0.373492
	C124	C	0.623622	0.374405	0.004226
	C125	C	0.623114	0.617388	0.986159
	C126	C	0.380974	0.618533	0.003672
	C127	C	0.381544	0.374806	0.984930
	C128	C	0.011777	0.616475	0.373467
	C129	C	0.994922	0.617750	0.616511
	C130	C	0.012774	0.373369	0.616316
	C131	C	0.994057	0.372355	0.372851
	C132	C	0.878801	0.504356	0.117788
	C133	C	0.124076	0.487578	0.115172
	C134	C	0.125713	0.505493	0.871870
	C135	C	0.880693	0.488127	0.873979
	C136	C	0.126075	0.872480	0.504269
	C137	C	0.124607	0.115571	0.485552
	C138	C	0.882762	0.116748	0.503841
	C139	C	0.883645	0.873680	0.486274
	C140	C	0.512776	0.117944	0.873312
	C141	C	0.494822	0.118730	0.116068
	C142	C	0.512633	0.874480	0.116034
	C143	C	0.495109	0.874218	0.873029
	C144	C	0.385012	0.881695	0.672406
	C145	C	0.621047	0.110986	0.669740
	C146	C	0.624084	0.882031	0.317441
	C147	C	0.386061	0.111615	0.320749
	C148	C	0.679704	0.377559	0.879085
	C149	C	0.675733	0.614058	0.111825
	C150	C	0.328451	0.615319	0.877694
	C151	C	0.326382	0.379238	0.110635
	C152	C	0.888260	0.672784	0.376241
	C153	C	0.118901	0.671846	0.614429
	C154	C	0.889156	0.317915	0.616316
	C155	C	0.118570	0.317950	0.373409
	C156	C	0.887938	0.378028	0.671477
	C157	C	0.119656	0.613216	0.669475
	C158	C	0.886463	0.612746	0.321913
	C159	C	0.118621	0.376363	0.317131
	C160	C	0.383666	0.673662	0.878557
	C161	C	0.620766	0.672620	0.111145
	C162	C	0.623319	0.320395	0.878968
	C163	C	0.381731	0.319948	0.110043
	C164	C	0.683021	0.882153	0.373418
	C165	C	0.680137	0.110266	0.613992
	C166	C	0.326759	0.881612	0.615829
	C167	C	0.326454	0.110362	0.376454
	C168	C	0.883160	0.380781	0.171398
	C169	C	0.119277	0.611220	0.170353
	C170	C	0.122476	0.381554	0.818102
	C171	C	0.884299	0.611735	0.819830
	C172	C	0.181329	0.875679	0.378662
	C173	C	0.177109	0.112083	0.611718
	C174	C	0.828890	0.114094	0.378732
	C175	C	0.827456	0.877044	0.611270
	C176	C	0.388920	0.173476	0.875344
	C177	C	0.618555	0.174551	0.114186
	C178	C	0.388066	0.821056	0.115902
	C179	C	0.618747	0.818156	0.873345
	C180	C	0.388143	0.879765	0.171744
	C181	C	0.619698	0.115170	0.169258
	C182	C	0.387785	0.114195	0.821040
	C183	C	0.619748	0.877746	0.817491
	C184	C	0.884428	0.172272	0.379091
	C185	C	0.123148	0.171510	0.610317
	C186	C	0.125053	0.817583	0.379008
	C187	C	0.883982	0.819103	0.611129
	C188	C	0.182113	0.382765	0.872933
	C189	C	0.177844	0.611242	0.113504
	C190	C	0.824343	0.381384	0.115734
	C191	C	0.825432	0.611260	0.876919
	C192	C	0.400553	0.091468	0.595900
	C193	C	0.603778	0.901250	0.593303
	C194	C	0.605722	0.091436	0.394540
	C195	C	0.404646	0.901365	0.395130
	C196	C	0.600494	0.395932	0.091885
	C197	C	0.601379	0.595265	0.898673
	C198	C	0.402073	0.596831	0.090918
	C199	C	0.404945	0.396144	0.897595
	C200	C	0.098698	0.594328	0.394790
	C201	C	0.908178	0.596184	0.594551
	C202	C	0.099333	0.395042	0.592844
	C203	C	0.907422	0.393778	0.396320
	C204	C	0.899977	0.590514	0.096007
	C205	C	0.103334	0.401698	0.092578
	C206	C	0.103681	0.591580	0.894211
	C207	C	0.902880	0.402019	0.896056
	C208	C	0.103168	0.893885	0.591787
	C209	C	0.103236	0.093982	0.398168
	C210	C	0.904508	0.094646	0.591259
	C211	C	0.907324	0.895697	0.399082
	C212	C	0.599562	0.096402	0.894923
	C213	C	0.408097	0.097386	0.094834
	C214	C	0.599387	0.894902	0.092777
	C215	C	0.408114	0.896289	0.896312
	Zn216	Zn	0.503402	-0.002904	0.744994
	Zn217	Zn	0.504533	-0.002959	0.243873
	Zn218	Zn	0.750259	0.496122	-0.004006
	Zn219	Zn	0.253955	0.497270	-0.006147
	Zn220	Zn	0.004236	0.744826	0.494995
	Zn221	Zn	0.004172	0.244086	0.494591
	Zn222	Zn	0.003969	0.496506	0.744079
	Zn223	Zn	0.001720	0.495272	0.245106
	Zn224	Zn	0.502616	0.745318	-0.005129
	Zn225	Zn	0.503220	0.246828	-0.006006
	Zn226	Zn	0.755428	-0.004240	0.494956
	Zn227	Zn	0.252423	-0.004720	0.495562
	N228	N	0.417326	0.959570	0.673991
	N229	N	0.587707	0.033448	0.670989
	N230	N	0.590343	0.959576	0.316287
	N231	N	0.420009	0.034122	0.318561
	N232	N	0.679860	0.410557	0.958159
	N233	N	0.677130	0.580306	0.033104
	N234	N	0.326507	0.581566	0.956406
	N235	N	0.325986	0.412535	0.031922
	N236	N	0.967280	0.675301	0.407399
	N237	N	0.040297	0.674560	0.582211
	N238	N	0.967620	0.315111	0.582520
	N239	N	0.040052	0.315099	0.407266
	N240	N	0.965933	0.411601	0.671865
	N241	N	0.041519	0.580265	0.670955
	N242	N	0.964390	0.578352	0.320148
	N243	N	0.040311	0.409632	0.316722
	N244	N	0.415729	0.675617	0.957653
	N245	N	0.588915	0.674950	0.031824
	N246	N	0.589285	0.318360	0.957904
	N247	N	0.415307	0.317180	0.030947
	N248	N	0.685090	0.959927	0.406973
	N249	N	0.682778	0.032485	0.580997
	N250	N	0.323826	0.959288	0.582610
	N251	N	0.323928	0.032158	0.408445
	N252	N	0.916414	0.458205	0.172728
	N253	N	0.086615	0.533412	0.171698
	N254	N	0.088224	0.458862	0.817295
	N255	N	0.917930	0.534080	0.817576
	N256	N	0.182363	0.908694	0.457671
	N257	N	0.178151	0.077890	0.533198
	N258	N	0.827791	0.080269	0.457409
	N259	N	0.826912	0.910172	0.532400
	N260	N	0.467620	0.176117	0.907163
	N261	N	0.540018	0.176868	0.081731
	N262	N	0.466632	0.817388	0.082116
	N263	N	0.539967	0.815851	0.906903
	N264	N	0.466456	0.912273	0.172053
	N265	N	0.541820	0.081043	0.170529
	N266	N	0.465784	0.079963	0.819910
	N267	N	0.541843	0.912138	0.817486
	N268	N	0.917348	0.173924	0.457945
	N269	N	0.091063	0.173610	0.531149
	N270	N	0.091210	0.815432	0.458064
	N271	N	0.918256	0.817137	0.532356
	N272	N	0.184221	0.460746	0.905828
	N273	N	0.180933	0.533569	0.079883
	N274	N	0.821609	0.459315	0.082983
	N275	N	0.822990	0.533287	0.909674
	O276	O	1.020354	1.033203	0.020431
	H277	H	1.021274	1.042698	0.018118
	H278	H	1.020940	1.025668	0.026746
	O279	O	-0.002492	0.043044	1.113942
	H280	H	0.005951	0.045395	1.128065
	H281	H	0.001402	0.036382	1.106202
	O282	O	-0.061148	0.014677	-0.023758
	H283	H	-0.055572	0.009618	-0.028723
	H284	H	-0.067443	0.021219	-0.032645
	O285	O	0.518778	0.554872	0.420024
	H286	H	0.518931	0.552964	0.418613
	H287	H	0.511855	0.561758	0.415616
	O288	O	0.021197	-0.062606	0.039124
	H289	H	0.013306	-0.060787	0.025829
	H290	H	0.008386	-0.064979	0.044764
	O291	O	0.078582	0.927232	-0.015432
	H292	H	0.065654	0.931149	-0.024877
	H293	H	0.075779	0.912213	-0.019413
	O294	O	-0.008137	0.978499	-0.001734
	H295	H	-0.000293	0.980870	-0.010493
	H296	H	-0.013398	0.994072	0.002298
	O297	O	0.480627	0.479509	0.482524
	H298	H	0.490103	0.484569	0.482232
	H299	H	0.486978	0.481521	0.471575
	O300	O	0.535577	0.511967	0.517232
	H301	H	0.536069	0.501050	0.519728
	H302	H	0.540706	0.523553	0.521532
	O303	O	1.001770	0.019017	0.988170
	H304	H	1.002779	0.015953	0.987311
	H305	H	1.016346	0.016174	0.982294
	O306	O	0.071244	1.050625	0.967908
	H307	H	0.074949	1.062491	0.976902
	H308	H	0.064656	1.054230	0.977560
	O309	O	0.101628	1.035542	1.022307
	H310	H	0.105398	1.039221	1.013569
	H311	H	0.108404	1.048577	1.021924
	O312	O	-0.040108	-0.024045	0.927853
	H313	H	-0.031057	-0.020785	0.926013
	H314	H	-0.047012	-0.019928	0.921595
	O315	O	0.495957	0.524366	0.490172
	H316	H	0.494476	0.520520	0.474740
	H317	H	0.488574	0.530633	0.494112
	O318	O	-0.030978	0.044990	0.879054
	H319	H	-0.033867	0.037048	0.878389
	H320	H	-0.026181	0.047818	0.890124
	O321	O	0.496564	0.552963	0.512073
	H322	H	0.496620	0.555140	0.513604
	H323	H	0.504302	0.535156	0.517785
	O324	O	0.976642	0.064095	1.085921
	H325	H	0.977588	0.058835	1.088712
	H326	H	0.980868	0.056852	1.080142
	O327	O	0.960627	0.998381	0.933091
	H328	H	0.949239	0.987147	0.948561
	H329	H	0.954712	0.993937	0.928623
	O330	O	0.463366	0.524652	0.493370
	H331	H	0.472939	0.515637	0.486268
	H332	H	0.467938	0.521234	0.487060
	O333	O	0.944444	-0.020874	-0.036043
	H334	H	0.940674	-0.020557	-0.033570
	H335	H	0.939537	-0.019576	-0.029657
	O336	O	0.472908	0.531674	0.490524
	H337	H	0.471583	0.531947	0.497503
	H338	H	0.463506	0.532691	0.496439
	O339	O	0.526936	0.515688	0.476711
	H340	H	0.522229	0.523265	0.478869
	H341	H	0.520319	0.528359	0.479761
	O342	O	-0.005361	0.947529	1.073487
	H343	H	-0.005642	0.941738	1.087077
	H344	H	-0.013403	0.962013	1.072574
	O345	O	0.504015	0.536567	0.525279
	H346	H	0.494690	0.544023	0.521698
	H347	H	0.500709	0.530070	0.536173
