data_Molecule from HDF5

_cell_length_a		16.168764
_cell_length_b		16.398631
_cell_length_c		16.112826
_cell_angle_alpha	90.182974
_cell_angle_beta	89.654986
_cell_angle_gamma	89.897359
_symmetry_space_group_name_H-M	'P 1'
_symmetry_Int_Tables_number		1

loop_
	_symmetry_equiv_pos_as_xyz
	x,y,z

loop_
	_atom_site_label
	_atom_site_type_symbol
	_atom_site_fract_x
	_atom_site_fract_y
	_atom_site_fract_z
	H0	H	0.406062	0.840523	0.706985
	H1	H	0.601327	0.167057	0.707699
	H2	H	0.603869	0.840804	0.277873
	H3	H	0.408666	0.167791	0.281785
	H4	H	0.716821	0.407071	0.828287
	H5	H	0.715633	0.600593	0.160421
	H6	H	0.294316	0.598960	0.827794
	H7	H	0.293424	0.407883	0.159341
	H8	H	0.841368	0.718588	0.394729
	H9	H	0.168306	0.719570	0.595993
	H10	H	0.841055	0.288222	0.594367
	H11	H	0.169025	0.287004	0.392114
	H12	H	0.839453	0.408204	0.706429
	H13	H	0.171115	0.599138	0.704350
	H14	H	0.838916	0.598255	0.284207
	H15	H	0.170783	0.406099	0.281298
	H16	H	0.404186	0.718459	0.829706
	H17	H	0.605252	0.720242	0.157665
	H18	H	0.608440	0.286705	0.829947
	H19	H	0.405584	0.289491	0.158310
	H20	H	0.722652	0.841337	0.391960
	H21	H	0.718636	0.167246	0.590865
	H22	H	0.287923	0.841572	0.593285
	H23	H	0.289903	0.166413	0.395933
	H24	H	0.905982	0.340012	0.208397
	H25	H	0.101641	0.665885	0.208284
	H26	H	0.103374	0.339700	0.778829
	H27	H	0.909735	0.666993	0.781235
	H28	H	0.218091	0.906422	0.328383
	H29	H	0.214204	0.099169	0.659429
	H30	H	0.795914	0.097579	0.327020
	H31	H	0.790847	0.907440	0.658923
	H32	H	0.341766	0.218717	0.894571
	H33	H	0.669073	0.217520	0.093926
	H34	H	0.341364	0.787807	0.095863
	H35	H	0.669398	0.786688	0.891179
	H36	H	0.339839	0.906885	0.207197
	H37	H	0.670718	0.098579	0.203681
	H38	H	0.339032	0.097892	0.784529
	H39	H	0.670243	0.906248	0.778680
	H40	H	0.904848	0.217575	0.329288
	H41	H	0.103538	0.217452	0.657674
	H42	H	0.107535	0.786621	0.329829
	H43	H	0.903411	0.789035	0.658915
	H44	H	0.220711	0.340078	0.895014
	H45	H	0.219180	0.665834	0.091750
	H46	H	0.790164	0.339808	0.092159
	H47	H	0.790859	0.666625	0.896544
	H48	H	0.405380	0.124080	0.597069
	H49	H	0.603178	0.885726	0.589103
	H50	H	0.607425	0.123106	0.396062
	H51	H	0.411712	0.885039	0.387520
	H52	H	0.596140	0.409923	0.113773
	H53	H	0.594723	0.593387	0.877382
	H54	H	0.408813	0.607460	0.116290
	H55	H	0.413427	0.411439	0.875807
	H56	H	0.123252	0.594582	0.398454
	H57	H	0.887332	0.596805	0.587656
	H58	H	0.123789	0.404682	0.583739
	H59	H	0.886023	0.417377	0.387984
	H60	H	0.121704	0.410860	0.582869
	H61	H	0.887753	0.598131	0.586710
	H62	H	0.123295	0.599030	0.402659
	H63	H	0.882009	0.391904	0.402502
	H64	H	0.405399	0.586821	0.110729
	H65	H	0.596180	0.598812	0.876222
	H66	H	0.595930	0.407460	0.112027
	H67	H	0.417934	0.407283	0.875204
	H68	H	0.595688	0.119629	0.393211
	H69	H	0.591177	0.890748	0.586293
	H70	H	0.420576	0.116860	0.587999
	H71	H	0.422819	0.892106	0.406023
	H72	H	0.913469	0.618432	0.090025
	H73	H	0.086530	0.391929	0.081812
	H74	H	0.105472	0.621191	0.898960
	H75	H	0.912939	0.389269	0.905227
	H76	H	0.097573	0.911146	0.612194
	H77	H	0.098914	0.088650	0.376679
	H78	H	0.900768	0.097050	0.615146
	H79	H	0.930853	0.920420	0.385164
	H80	H	0.623660	0.093106	0.896193
	H81	H	0.385693	0.103395	0.085526
	H82	H	0.621455	0.912806	0.083103
	H83	H	0.385295	0.906088	0.897716
	H84	H	0.623206	0.909009	0.087801
	H85	H	0.389169	0.094023	0.082572
	H86	H	0.625130	0.100741	0.900162
	H87	H	0.388648	0.906410	0.906576
	H88	H	0.916313	0.088575	0.608116
	H89	H	0.090041	0.100092	0.375396
	H90	H	0.094349	0.909686	0.611737
	H91	H	0.919058	0.889717	0.371526
	H92	H	0.096422	0.618953	0.895621
	H93	H	0.112456	0.385530	0.077813
	H94	H	0.911819	0.617274	0.085203
	H95	H	0.906345	0.385583	0.899404
	H96	H	0.404178	0.118552	0.578994
	H97	H	0.600215	0.889222	0.577259
	H98	H	0.599863	0.117721	0.405185
	H99	H	0.400835	0.886953	0.407763
	H100	H	0.598396	0.408479	0.113598
	H101	H	0.601032	0.594820	0.875562
	H102	H	0.424908	0.595906	0.108085
	H103	H	0.412119	0.405847	0.872873
	H104	H	0.121166	0.593370	0.403434
	H105	H	0.886975	0.596719	0.586312
	H106	H	0.124194	0.408454	0.588365
	H107	H	0.893588	0.414932	0.416634
	H108	H	0.908524	0.619436	0.088181
	H109	H	0.101385	0.382092	0.102564
	H110	H	0.098472	0.617558	0.905335
	H111	H	0.915021	0.387471	0.896087
	H112	H	0.096744	0.907891	0.613067
	H113	H	0.103864	0.101017	0.370981
	H114	H	0.917085	0.106685	0.613885
	H115	H	0.897262	0.917728	0.372841
	H116	H	0.621755	0.094958	0.905097
	H117	H	0.386820	0.095341	0.092133
	H118	H	0.622043	0.906678	0.081080
	H119	H	0.388910	0.914192	0.901058
	C120	C	0.381941	0.012087	0.615902
	C121	C	0.626646	0.995901	0.613774
	C122	C	0.628547	0.012256	0.369959
	C123	C	0.383564	0.995715	0.372108
	C124	C	0.626260	0.381164	0.003246
	C125	C	0.625675	0.624293	0.985480
	C126	C	0.384477	0.624525	0.002492
	C127	C	0.385108	0.381289	0.984290
	C128	C	0.013586	0.624083	0.373167
	C129	C	0.996449	0.624780	0.615282
	C130	C	0.014134	0.380957	0.614420
	C131	C	0.996324	0.380466	0.372501
	C132	C	0.882425	0.511132	0.116525
	C133	C	0.127577	0.494328	0.115930
	C134	C	0.128207	0.511402	0.871391
	C135	C	0.883014	0.495131	0.871749
	C136	C	0.126264	0.881157	0.503098
	C137	C	0.125305	0.124188	0.484119
	C138	C	0.883855	0.124575	0.502594
	C139	C	0.884597	0.881546	0.485295
	C140	C	0.513992	0.124250	0.872733
	C141	C	0.496205	0.124997	0.114821
	C142	C	0.513467	0.881765	0.114440
	C143	C	0.496599	0.880697	0.871851
	C144	C	0.385082	0.889318	0.669997
	C145	C	0.622807	0.118444	0.669643
	C146	C	0.624997	0.889520	0.315232
	C147	C	0.387381	0.118791	0.318506
	C148	C	0.680791	0.385264	0.878231
	C149	C	0.679288	0.621503	0.110527
	C150	C	0.330752	0.620608	0.877566
	C151	C	0.330353	0.386124	0.109524
	C152	C	0.890141	0.679976	0.374898
	C153	C	0.119955	0.680520	0.614257
	C154	C	0.889901	0.326699	0.613785
	C155	C	0.120145	0.325421	0.373049
	C156	C	0.889296	0.386034	0.669486
	C157	C	0.121306	0.620713	0.668384
	C158	C	0.888799	0.620205	0.320075
	C159	C	0.120922	0.384627	0.317892
	C160	C	0.385332	0.679961	0.878541
	C161	C	0.624690	0.681229	0.109045
	C162	C	0.626606	0.325589	0.878896
	C163	C	0.385890	0.327326	0.108970
	C164	C	0.683987	0.889784	0.372198
	C165	C	0.680950	0.118698	0.611550
	C166	C	0.326622	0.889760	0.613105
	C167	C	0.328267	0.118229	0.375204
	C168	C	0.885532	0.388583	0.170714
	C169	C	0.123281	0.617225	0.170819
	C170	C	0.124692	0.388446	0.816638
	C171	C	0.887801	0.618108	0.818249
	C172	C	0.181263	0.884655	0.378045
	C173	C	0.178107	0.120371	0.609551
	C174	C	0.831509	0.119645	0.377145
	C175	C	0.828594	0.885991	0.609760
	C176	C	0.390433	0.180151	0.874611
	C177	C	0.620089	0.179504	0.113110
	C178	C	0.389978	0.826728	0.114491
	C179	C	0.620307	0.825239	0.872010
	C180	C	0.389332	0.885691	0.170021
	C181	C	0.621054	0.120423	0.167741
	C182	C	0.389101	0.119960	0.820182
	C183	C	0.620919	0.884439	0.816132
	C184	C	0.885492	0.179264	0.378293
	C185	C	0.123093	0.179138	0.608644
	C186	C	0.126184	0.825256	0.378999
	C187	C	0.884456	0.827314	0.609747
	C188	C	0.182786	0.388485	0.874335
	C189	C	0.181661	0.617305	0.112991
	C190	C	0.827492	0.388591	0.113276
	C191	C	0.828573	0.617820	0.875256
	C192	C	0.403540	0.097791	0.594444
	C193	C	0.604784	0.910644	0.590913
	C194	C	0.607105	0.098192	0.391526
	C195	C	0.405324	0.910108	0.393973
	C196	C	0.603418	0.402362	0.090432
	C197	C	0.603652	0.602130	0.898789
	C198	C	0.406553	0.603202	0.089226
	C199	C	0.407676	0.402147	0.897191
	C200	C	0.100148	0.602166	0.395045
	C201	C	0.909701	0.603617	0.593261
	C202	C	0.100945	0.401743	0.591807
	C203	C	0.909356	0.401880	0.395477
	C204	C	0.904667	0.596385	0.094364
	C205	C	0.106491	0.408709	0.093823
	C206	C	0.106632	0.597100	0.893468
	C207	C	0.904944	0.409507	0.893629
	C208	C	0.103002	0.902933	0.589925
	C209	C	0.103976	0.102799	0.396840
	C210	C	0.905262	0.103727	0.589800
	C211	C	0.908758	0.903067	0.398723
	C212	C	0.600908	0.102708	0.894262
	C213	C	0.409499	0.103849	0.093111
	C214	C	0.600003	0.903222	0.090975
	C215	C	0.410071	0.902448	0.894968
	Zn216	Zn	0.504561	0.003355	0.744271
	Zn217	Zn	0.505030	0.003890	0.242099
	Zn218	Zn	0.752992	0.502950	-0.005256
	Zn219	Zn	0.257665	0.502689	-0.006959
	Zn220	Zn	0.005408	0.752887	0.494200
	Zn221	Zn	0.004631	0.251932	0.493359
	Zn222	Zn	0.006146	0.503397	0.742185
	Zn223	Zn	0.004889	0.502545	0.245338
	Zn224	Zn	0.504737	0.752579	-0.006308
	Zn225	Zn	0.505727	0.253057	-0.006573
	Zn226	Zn	0.757203	0.003906	0.493020
	Zn227	Zn	0.253223	0.003856	0.493343
	N228	N	0.418796	0.966344	0.671794
	N229	N	0.589748	0.041215	0.671104
	N230	N	0.591376	0.966657	0.313753
	N231	N	0.420794	0.041552	0.316303
	N232	N	0.680352	0.419346	0.956270
	N233	N	0.680010	0.586778	0.032700
	N234	N	0.329973	0.586790	0.955601
	N235	N	0.329665	0.418892	0.030984
	N236	N	0.968728	0.682543	0.407112
	N237	N	0.041365	0.683055	0.581703
	N238	N	0.968429	0.323357	0.580315
	N239	N	0.041555	0.322551	0.406344
	N240	N	0.967447	0.419093	0.669890
	N241	N	0.043687	0.586673	0.668942
	N242	N	0.966579	0.586172	0.318887
	N243	N	0.042798	0.418065	0.317638
	N244	N	0.417988	0.682336	0.957110
	N245	N	0.591997	0.683059	0.030368
	N246	N	0.593272	0.322698	0.957847
	N247	N	0.419099	0.324139	0.030172
	N248	N	0.686369	0.967128	0.405458
	N249	N	0.683239	0.041571	0.577512
	N250	N	0.324557	0.966997	0.580042
	N251	N	0.325893	0.040764	0.407659
	N252	N	0.918871	0.465615	0.172893
	N253	N	0.090424	0.539896	0.172558
	N254	N	0.091372	0.465613	0.814905
	N255	N	0.920909	0.540726	0.815922
	N256	N	0.181446	0.918835	0.456117
	N257	N	0.179482	0.086918	0.531088
	N258	N	0.830296	0.086590	0.455423
	N259	N	0.828296	0.918724	0.531294
	N260	N	0.469100	0.182936	0.906424
	N261	N	0.541496	0.182493	0.080745
	N262	N	0.468299	0.824084	0.080839
	N263	N	0.542058	0.822981	0.905954
	N264	N	0.467157	0.919486	0.169996
	N265	N	0.543082	0.087104	0.168902
	N266	N	0.467015	0.085821	0.819056
	N267	N	0.542875	0.917998	0.815665
	N268	N	0.917409	0.182312	0.457292
	N269	N	0.090821	0.181562	0.529799
	N270	N	0.092871	0.822927	0.457750
	N271	N	0.918481	0.824407	0.531277
	N272	N	0.185268	0.466015	0.907457
	N273	N	0.184445	0.540124	0.079393
	N274	N	0.825659	0.465769	0.079845
	N275	N	0.825826	0.540442	0.908166
	O276	O	-0.503882	-0.392411	1.495387
	H277	H	-0.507043	-0.391480	1.499264
	H278	H	-0.509702	-0.390283	1.497111
	O279	O	0.467252	0.609490	0.516560
	H280	H	0.468318	0.613118	0.514460
	H281	H	0.473495	0.620651	0.526109
	O282	O	0.563614	0.587620	0.501645
	H283	H	0.555923	0.587776	0.495843
	H284	H	0.562705	0.584233	0.499390
	O285	O	0.466398	0.588060	0.473705
	H286	H	0.460089	0.586285	0.473500
	H287	H	0.460096	0.591177	0.472589
	O288	O	0.526912	0.598545	0.496856
	H289	H	0.533156	0.601315	0.497645
	H290	H	0.528118	0.595700	0.492161
	O291	O	-0.121336	0.832692	1.172092
	H292	H	-0.124927	0.834828	1.174257
	H293	H	-0.121323	0.829572	1.169143
	O294	O	0.504611	0.611802	0.547439
	H295	H	0.508178	0.622495	0.551832
	H296	H	0.521030	0.611401	0.539496
	O297	O	0.976499	-0.093131	0.058229
	H298	H	0.980453	-0.099652	0.059735
	H299	H	0.975715	-0.093763	0.058469
