data_Molecule from HDF5

_cell_length_a		16.085674
_cell_length_b		16.237155
_cell_length_c		16.223890
_cell_angle_alpha	90.373394
_cell_angle_beta	89.690070
_cell_angle_gamma	90.627093
_symmetry_space_group_name_H-M	'P 1'
_symmetry_Int_Tables_number		1

loop_
	_symmetry_equiv_pos_as_xyz
	x,y,z

loop_
	_atom_site_label
	_atom_site_type_symbol
	_atom_site_fract_x
	_atom_site_fract_y
	_atom_site_fract_z
	H0	H	0.399511	0.832951	0.709883
	H1	H	0.602401	0.160662	0.712978
	H2	H	0.602055	0.834353	0.278603
	H3	H	0.404200	0.161786	0.282291
	H4	H	0.714024	0.398690	0.830624
	H5	H	0.713378	0.596636	0.159435
	H6	H	0.292366	0.592421	0.829010
	H7	H	0.283452	0.399694	0.158596
	H8	H	0.835257	0.708382	0.397573
	H9	H	0.165930	0.715093	0.594462
	H10	H	0.835987	0.283219	0.593594
	H11	H	0.167098	0.286564	0.394210
	H12	H	0.835966	0.399546	0.708291
	H13	H	0.166955	0.599328	0.706809
	H14	H	0.835430	0.594227	0.283006
	H15	H	0.166323	0.400836	0.278130
	H16	H	0.402548	0.710792	0.831824
	H17	H	0.602744	0.714757	0.158497
	H18	H	0.600930	0.281651	0.832014
	H19	H	0.398572	0.282956	0.159566
	H20	H	0.712811	0.833247	0.398617
	H21	H	0.717623	0.161044	0.596954
	H22	H	0.284433	0.833947	0.594118
	H23	H	0.292145	0.163648	0.401588
	H24	H	0.897883	0.334788	0.209500
	H25	H	0.101784	0.662616	0.209648
	H26	H	0.099515	0.335163	0.777990
	H27	H	0.903090	0.662678	0.780357
	H28	H	0.214929	0.901196	0.331743
	H29	H	0.214401	0.098749	0.660975
	H30	H	0.790274	0.093350	0.331538
	H31	H	0.787411	0.900978	0.660657
	H32	H	0.336237	0.207463	0.898224
	H33	H	0.665473	0.214303	0.095079
	H34	H	0.335915	0.781307	0.095746
	H35	H	0.667551	0.785548	0.896616
	H36	H	0.335615	0.898443	0.209868
	H37	H	0.667719	0.097921	0.207125
	H38	H	0.335859	0.091817	0.785333
	H39	H	0.666592	0.898451	0.780184
	H40	H	0.902654	0.209503	0.331674
	H41	H	0.102676	0.217000	0.658719
	H42	H	0.100766	0.784167	0.330856
	H43	H	0.899942	0.783325	0.658661
	H44	H	0.211747	0.333487	0.895295
	H45	H	0.216686	0.662782	0.092110
	H46	H	0.785961	0.334079	0.091660
	H47	H	0.789423	0.663296	0.899547
	H48	H	0.406077	0.119901	0.604861
	H49	H	0.598200	0.877367	0.591119
	H50	H	0.587680	0.112552	0.402176
	H51	H	0.408822	0.880314	0.400784
	H52	H	0.589738	0.408217	0.111070
	H53	H	0.593232	0.581502	0.879711
	H54	H	0.399100	0.586710	0.114830
	H55	H	0.408082	0.413363	0.880341
	H56	H	0.118869	0.584417	0.397944
	H57	H	0.879759	0.587767	0.600813
	H58	H	0.120321	0.415431	0.594220
	H59	H	0.878748	0.410159	0.383588
	H60	H	0.123875	0.396414	0.588923
	H61	H	0.880395	0.601286	0.583286
	H62	H	0.123463	0.599068	0.396525
	H63	H	0.878402	0.382713	0.405785
	H64	H	0.415887	0.582475	0.108650
	H65	H	0.588212	0.597546	0.877071
	H66	H	0.591401	0.401186	0.113762
	H67	H	0.419202	0.393913	0.879077
	H68	H	0.599647	0.114152	0.411103
	H69	H	0.588340	0.880163	0.592691
	H70	H	0.421303	0.110980	0.591637
	H71	H	0.408124	0.881506	0.404400
	H72	H	0.908025	0.617470	0.094754
	H73	H	0.094099	0.379205	0.090518
	H74	H	0.095689	0.616425	0.902544
	H75	H	0.914050	0.385126	0.906549
	H76	H	0.092681	0.905972	0.613352
	H77	H	0.106116	0.089177	0.376050
	H78	H	0.918587	0.096705	0.612659
	H79	H	0.913218	0.904324	0.379533
	H80	H	0.620566	0.084642	0.896528
	H81	H	0.379243	0.101376	0.087366
	H82	H	0.622137	0.901849	0.092187
	H83	H	0.382202	0.903297	0.903541
	H84	H	0.619134	0.903429	0.082260
	H85	H	0.387048	0.080096	0.081812
	H86	H	0.623602	0.098946	0.902737
	H87	H	0.382056	0.901186	0.902918
	H88	H	0.901767	0.095369	0.616879
	H89	H	0.090948	0.085339	0.382066
	H90	H	0.091574	0.907581	0.612737
	H91	H	0.907029	0.897356	0.375428
	H92	H	0.099560	0.616742	0.900685
	H93	H	0.084952	0.383238	0.087402
	H94	H	0.913600	0.614848	0.088625
	H95	H	0.899099	0.379073	0.902672
	H96	H	0.401239	0.115797	0.583874
	H97	H	0.592949	0.881161	0.583509
	H98	H	0.600535	0.119147	0.396837
	H99	H	0.405660	0.880219	0.402006
	H100	H	0.596257	0.407179	0.114501
	H101	H	0.605178	0.593226	0.873454
	H102	H	0.411676	0.600137	0.114578
	H103	H	0.397705	0.395640	0.872716
	H104	H	0.117861	0.593649	0.410404
	H105	H	0.887108	0.580519	0.581516
	H106	H	0.116814	0.408964	0.575295
	H107	H	0.890217	0.413371	0.417458
	H108	H	0.905937	0.616014	0.087597
	H109	H	0.093611	0.381803	0.081378
	H110	H	0.096306	0.617196	0.898869
	H111	H	0.910095	0.380264	0.891762
	H112	H	0.090483	0.905661	0.613059
	H113	H	0.093803	0.101013	0.376225
	H114	H	0.910624	0.082352	0.610397
	H115	H	0.903664	0.906068	0.377832
	H116	H	0.617140	0.087718	0.912068
	H117	H	0.380362	0.084545	0.103241
	H118	H	0.618212	0.910810	0.088934
	H119	H	0.383250	0.900657	0.905531
	C120	C	0.379193	0.006565	0.620114
	C121	C	0.623165	0.988318	0.618427
	C122	C	0.623706	0.006558	0.374344
	C123	C	0.380209	0.989382	0.375034
	C124	C	0.621954	0.376232	0.004325
	C125	C	0.623602	0.619715	0.985985
	C126	C	0.380858	0.617891	0.003740
	C127	C	0.378277	0.373794	0.986189
	C128	C	0.010087	0.619137	0.373974
	C129	C	0.992185	0.619970	0.616633
	C130	C	0.010511	0.377563	0.615536
	C131	C	0.992130	0.375371	0.372410
	C132	C	0.878870	0.507442	0.117814
	C133	C	0.121506	0.489962	0.115493
	C134	C	0.123744	0.507754	0.872050
	C135	C	0.879483	0.489996	0.872822
	C136	C	0.121617	0.877390	0.504335
	C137	C	0.124963	0.121409	0.486854
	C138	C	0.881692	0.118391	0.504629
	C139	C	0.878565	0.874959	0.486297
	C140	C	0.510706	0.117244	0.875801
	C141	C	0.492056	0.118907	0.118487
	C142	C	0.510393	0.875747	0.117311
	C143	C	0.492504	0.874615	0.874462
	C144	C	0.380033	0.882349	0.672889
	C145	C	0.622142	0.111730	0.674656
	C146	C	0.621460	0.883194	0.317568
	C147	C	0.383658	0.112920	0.320308
	C148	C	0.677117	0.378094	0.880295
	C149	C	0.677214	0.617505	0.109964
	C150	C	0.328043	0.613830	0.879056
	C151	C	0.321613	0.378128	0.109687
	C152	C	0.885027	0.671750	0.377247
	C153	C	0.116495	0.676984	0.614300
	C154	C	0.885324	0.321454	0.613682
	C155	C	0.117199	0.322909	0.373996
	C156	C	0.885450	0.379020	0.670908
	C157	C	0.117126	0.619308	0.670394
	C158	C	0.885050	0.614985	0.320312
	C159	C	0.116803	0.379918	0.316300
	C160	C	0.383119	0.672613	0.880290
	C161	C	0.621742	0.676006	0.109538
	C162	C	0.620798	0.319845	0.880917
	C163	C	0.379129	0.320281	0.110231
	C164	C	0.676561	0.882434	0.377376
	C165	C	0.679249	0.112005	0.616757
	C166	C	0.322785	0.882844	0.615229
	C167	C	0.327999	0.113925	0.379482
	C168	C	0.878877	0.383747	0.171888
	C169	C	0.121315	0.613535	0.171471
	C170	C	0.119934	0.384022	0.816322
	C171	C	0.882630	0.613808	0.818624
	C172	C	0.177165	0.880208	0.380617
	C173	C	0.178030	0.119440	0.611209
	C174	C	0.827375	0.114227	0.380751
	C175	C	0.823871	0.879185	0.610727
	C176	C	0.385678	0.170388	0.878425
	C177	C	0.616418	0.176043	0.115416
	C178	C	0.385491	0.819624	0.115528
	C179	C	0.617629	0.821958	0.876290
	C180	C	0.385279	0.877979	0.172089
	C181	C	0.617645	0.117864	0.171078
	C182	C	0.385571	0.112778	0.822350
	C183	C	0.617209	0.878137	0.818372
	C184	C	0.883626	0.171904	0.380608
	C185	C	0.122421	0.178307	0.609942
	C186	C	0.120351	0.822103	0.380320
	C187	C	0.879659	0.820608	0.609725
	C188	C	0.175806	0.383146	0.874703
	C189	C	0.178551	0.613531	0.113160
	C190	C	0.823441	0.383418	0.112968
	C191	C	0.825946	0.614057	0.877546
	C192	C	0.402547	0.093141	0.599481
	C193	C	0.599813	0.901738	0.595755
	C194	C	0.602243	0.092860	0.396683
	C195	C	0.401160	0.903109	0.396289
	C196	C	0.599223	0.398809	0.090699
	C197	C	0.601831	0.597491	0.899162
	C198	C	0.402386	0.596238	0.090397
	C199	C	0.401609	0.394592	0.899788
	C200	C	0.097521	0.598416	0.395407
	C201	C	0.904993	0.596607	0.594941
	C202	C	0.097727	0.400336	0.592908
	C203	C	0.905056	0.396008	0.395457
	C204	C	0.902284	0.593881	0.096663
	C205	C	0.097827	0.403788	0.093152
	C206	C	0.103335	0.594264	0.894165
	C207	C	0.901189	0.403804	0.894004
	C208	C	0.098388	0.899838	0.590680
	C209	C	0.103519	0.098507	0.400415
	C210	C	0.903658	0.097650	0.590993
	C211	C	0.901174	0.896240	0.399901
	C212	C	0.597752	0.096566	0.897408
	C213	C	0.404858	0.095668	0.097243
	C214	C	0.597387	0.898679	0.094634
	C215	C	0.405196	0.895397	0.897185
	Zn216	Zn	0.501376	-0.003498	0.747750
	Zn217	Zn	0.501899	-0.002027	0.245717
	Zn218	Zn	0.750984	0.498249	-0.004817
	Zn219	Zn	0.251458	0.497602	-0.006270
	Zn220	Zn	0.000605	0.747335	0.494934
	Zn221	Zn	0.001692	0.248132	0.494671
	Zn222	Zn	0.001702	0.499077	0.743842
	Zn223	Zn	0.000345	0.498428	0.245783
	Zn224	Zn	0.501619	0.746868	-0.004772
	Zn225	Zn	0.501023	0.245875	-0.003923
	Zn226	Zn	0.752038	-0.002008	0.496200
	Zn227	Zn	0.251850	-0.001110	0.496836
	N228	N	0.414343	0.960294	0.676041
	N229	N	0.587896	0.033666	0.675655
	N230	N	0.589301	0.961333	0.315627
	N231	N	0.415601	0.034628	0.317520
	N232	N	0.677822	0.412544	0.958030
	N233	N	0.678462	0.583077	0.032126
	N234	N	0.326681	0.580390	0.956905
	N235	N	0.320942	0.410447	0.031689
	N236	N	0.963865	0.674528	0.409858
	N237	N	0.037752	0.677532	0.581539
	N238	N	0.964281	0.320201	0.580168
	N239	N	0.038636	0.319868	0.408161
	N240	N	0.964209	0.413035	0.671990
	N241	N	0.038727	0.584423	0.671835
	N242	N	0.963869	0.582878	0.318159
	N243	N	0.037835	0.411680	0.315133
	N244	N	0.415173	0.675153	0.958750
	N245	N	0.589396	0.677648	0.031206
	N246	N	0.587156	0.318409	0.959156
	N247	N	0.413546	0.317333	0.032265
	N248	N	0.678160	0.960090	0.412060
	N249	N	0.680047	0.034214	0.582616
	N250	N	0.322139	0.961179	0.583185
	N251	N	0.325884	0.036229	0.413035
	N252	N	0.912833	0.461825	0.174813
	N253	N	0.086558	0.535644	0.172967
	N254	N	0.088092	0.462377	0.814578
	N255	N	0.915139	0.535626	0.815565
	N256	N	0.178006	0.914066	0.458675
	N257	N	0.179737	0.084713	0.533642
	N258	N	0.826031	0.081645	0.458825
	N259	N	0.822972	0.912359	0.532880
	N260	N	0.464448	0.173246	0.911160
	N261	N	0.537417	0.176902	0.083296
	N262	N	0.464323	0.818281	0.081840
	N263	N	0.539159	0.819759	0.910455
	N264	N	0.463941	0.912016	0.173403
	N265	N	0.539407	0.083026	0.173040
	N266	N	0.464356	0.080665	0.820488
	N267	N	0.538355	0.910398	0.817289
	N268	N	0.916795	0.174630	0.458531
	N269	N	0.090214	0.179687	0.531554
	N270	N	0.086642	0.820118	0.458445
	N271	N	0.913120	0.817992	0.531585
	N272	N	0.178457	0.461004	0.908508
	N273	N	0.178853	0.535684	0.079198
	N274	N	0.823215	0.461450	0.079997
	N275	N	0.824020	0.536232	0.910482
	O276	O	1.012759	1.060484	0.024856
	H277	H	1.014478	1.063121	0.026591
	H278	H	1.010410	1.054999	0.026226
	O279	O	0.002283	-0.023493	0.949353
	H280	H	0.012963	-0.023134	0.951244
	H281	H	0.010941	-0.029474	0.951099
	O282	O	0.012958	0.040544	0.016881
	H283	H	0.020675	0.044856	0.023456
	H284	H	0.016399	0.029749	0.021085
	O285	O	0.492872	0.413899	0.501289
	H286	H	0.499621	0.413592	0.499745
	H287	H	0.491040	0.409915	0.507688
	O288	O	-0.023096	0.067669	-0.039051
	H289	H	-0.020794	0.067032	-0.034115
	H290	H	-0.017189	0.066953	-0.044254
	O291	O	-0.049654	0.957562	0.011862
	H292	H	-0.056465	0.955104	0.009951
	H293	H	-0.043888	0.964135	0.011917
	O294	O	0.063197	0.985894	0.043210
	H295	H	0.064483	0.989571	0.037762
	H296	H	0.050850	0.981913	0.027494
	O297	O	0.517978	0.468905	0.439603
	H298	H	0.514231	0.471893	0.436904
	H299	H	0.514935	0.466990	0.439265
	O300	O	0.540856	0.485923	0.529775
	H301	H	0.535600	0.488514	0.531535
	H302	H	0.548577	0.492183	0.531349
	O303	O	1.013309	0.070612	1.006261
	H304	H	1.013052	0.071498	1.010076
	H305	H	1.018010	0.079091	1.008034
	O306	O	0.003654	1.040892	1.035068
	H307	H	-0.010895	1.044943	1.041423
	H308	H	0.002028	1.047958	1.034289
	O309	O	0.073983	1.072573	1.089329
	H310	H	0.075242	1.070509	1.098489
	H311	H	0.065696	1.068375	1.085841
	O312	O	0.001913	0.033850	0.920923
	H313	H	0.007517	0.035658	0.914585
	H314	H	-0.001947	0.038928	0.928664
	O315	O	0.593354	0.506299	0.501632
	H316	H	0.593830	0.506355	0.497037
	H317	H	0.592590	0.509221	0.498569
	O318	O	-0.041069	-0.085136	1.010790
	H319	H	-0.035916	-0.088090	0.994936
	H320	H	-0.044757	-0.082285	1.011089
	O321	O	0.473929	0.530506	0.502669
	H322	H	0.476085	0.527673	0.508611
	H323	H	0.482884	0.536882	0.502695
	O324	O	0.960114	0.072276	0.994338
	H325	H	0.973672	0.079534	0.992496
	H326	H	0.969454	0.065852	1.000347
	O327	O	0.996476	0.998165	0.918146
	H328	H	0.980490	1.002937	0.910332
	H329	H	1.006777	0.997636	0.915418
	O330	O	0.472781	0.511485	0.529918
	H331	H	0.473058	0.507037	0.524942
	H332	H	0.467101	0.513673	0.530391
	O333	O	1.022875	-0.049001	-0.042443
	H334	H	1.015262	-0.047179	-0.056355
	H335	H	1.014815	-0.057739	-0.043161
	O336	O	0.448254	0.513116	0.472788
	H337	H	0.441328	0.504094	0.468286
	H338	H	0.451290	0.504392	0.476893
	O339	O	0.509144	0.553228	0.539692
	H340	H	0.503386	0.554694	0.526555
	H341	H	0.503844	0.560614	0.540873
	O342	O	0.210568	0.781327	0.800479
	H343	H	0.212237	0.777692	0.815890
	H344	H	0.209557	0.781234	0.814360
	O345	O	0.513260	0.499792	0.520244
	H346	H	0.506498	0.492052	0.523061
	H347	H	0.521342	0.502028	0.523630
