data_Molecule from HDF5

_cell_length_a		16.502657
_cell_length_b		16.707180
_cell_length_c		16.646796
_cell_angle_alpha	90.196238
_cell_angle_beta	90.059533
_cell_angle_gamma	90.001075
_symmetry_space_group_name_H-M	'P 1'
_symmetry_Int_Tables_number		1

loop_
	_symmetry_equiv_pos_as_xyz
	x,y,z

loop_
	_atom_site_label
	_atom_site_type_symbol
	_atom_site_fract_x
	_atom_site_fract_y
	_atom_site_fract_z
	H0	H	0.391929	0.829538	0.708000
	H1	H	0.595546	0.142898	0.710007
	H2	H	0.602875	0.832833	0.266336
	H3	H	0.384909	0.138359	0.264232
	H4	H	0.713566	0.381363	0.833435
	H5	H	0.717169	0.591125	0.143599
	H6	H	0.275700	0.588608	0.834045
	H7	H	0.270596	0.380158	0.143414
	H8	H	0.837600	0.706478	0.384786
	H9	H	0.152470	0.705477	0.591820
	H10	H	0.838863	0.266062	0.593698
	H11	H	0.149821	0.264219	0.381784
	H12	H	0.837323	0.385834	0.706568
	H13	H	0.153345	0.587792	0.705906
	H14	H	0.837645	0.590866	0.268738
	H15	H	0.149994	0.380124	0.266878
	H16	H	0.390506	0.706072	0.834195
	H17	H	0.604522	0.711345	0.142260
	H18	H	0.599941	0.262094	0.835752
	H19	H	0.381764	0.259995	0.141854
	H20	H	0.715553	0.831858	0.385887
	H21	H	0.711784	0.143302	0.592836
	H22	H	0.277670	0.828628	0.588697
	H23	H	0.273152	0.141131	0.385489
	H24	H	0.885096	0.332698	0.213528
	H25	H	0.101374	0.639976	0.213457
	H26	H	0.101208	0.332168	0.766182
	H27	H	0.889303	0.641076	0.768139
	H28	H	0.218292	0.878580	0.334643
	H29	H	0.211653	0.087512	0.646558
	H30	H	0.768911	0.094297	0.335836
	H31	H	0.777853	0.887555	0.647949
	H32	H	0.336923	0.205554	0.886752
	H33	H	0.647244	0.213052	0.100928
	H34	H	0.339762	0.763124	0.096274
	H35	H	0.652137	0.768263	0.886618
	H36	H	0.340307	0.878583	0.212841
	H37	H	0.649693	0.094833	0.212964
	H38	H	0.335878	0.087804	0.771979
	H39	H	0.652037	0.883941	0.771437
	H40	H	0.884139	0.210844	0.335645
	H41	H	0.098889	0.206951	0.645039
	H42	H	0.101442	0.762900	0.334907
	H43	H	0.893322	0.769833	0.646894
	H44	H	0.217369	0.332671	0.883627
	H45	H	0.214872	0.641871	0.093978
	H46	H	0.772779	0.330160	0.093051
	H47	H	0.772080	0.640584	0.884735
	H48	H	0.408041	0.095127	0.582427
	H49	H	0.588550	0.873278	0.580157
	H50	H	0.584288	0.094653	0.409606
	H51	H	0.409486	0.875959	0.399834
	H52	H	0.577805	0.392531	0.101665
	H53	H	0.584609	0.577149	0.876448
	H54	H	0.404396	0.577315	0.102874
	H55	H	0.404873	0.398824	0.878786
	H56	H	0.107584	0.576495	0.399177
	H57	H	0.880833	0.579176	0.578155
	H58	H	0.106792	0.397199	0.574944
	H59	H	0.882916	0.398438	0.403899
	H60	H	0.107602	0.399101	0.579612
	H61	H	0.880991	0.576406	0.580254
	H62	H	0.105844	0.575860	0.403161
	H63	H	0.882429	0.400926	0.400762
	H64	H	0.407550	0.573423	0.100920
	H65	H	0.582848	0.575465	0.877355
	H66	H	0.586763	0.400326	0.101034
	H67	H	0.409382	0.399048	0.881060
	H68	H	0.583686	0.099807	0.395937
	H69	H	0.584757	0.873850	0.584453
	H70	H	0.398188	0.098500	0.578533
	H71	H	0.408776	0.877484	0.403483
	H72	H	0.906729	0.596508	0.080442
	H73	H	0.082027	0.375489	0.076501
	H74	H	0.084789	0.598029	0.899749
	H75	H	0.903663	0.374073	0.897344
	H76	H	0.083880	0.886151	0.604267
	H77	H	0.087974	0.073393	0.375920
	H78	H	0.903145	0.079450	0.601951
	H79	H	0.907840	0.902644	0.380880
	H80	H	0.606202	0.073875	0.900813
	H81	H	0.381061	0.073448	0.082156
	H82	H	0.603027	0.904701	0.073561
	H83	H	0.382351	0.895419	0.901922
	H84	H	0.608902	0.899653	0.083422
	H85	H	0.383228	0.076924	0.072058
	H86	H	0.607801	0.076501	0.898730
	H87	H	0.381006	0.897053	0.896853
	H88	H	0.904946	0.075659	0.600130
	H89	H	0.078787	0.071302	0.380438
	H90	H	0.093439	0.902003	0.601285
	H91	H	0.908102	0.888895	0.377751
	H92	H	0.084934	0.598419	0.897021
	H93	H	0.079777	0.376601	0.077567
	H94	H	0.908417	0.594706	0.076153
	H95	H	0.906808	0.374720	0.896120
	H96	H	0.400746	0.100790	0.588955
	H97	H	0.583581	0.876117	0.579386
	H98	H	0.571571	0.093698	0.401580
	H99	H	0.405508	0.875658	0.401689
	H100	H	0.576205	0.403896	0.097250
	H101	H	0.582339	0.578166	0.876939
	H102	H	0.409420	0.578471	0.101491
	H103	H	0.407954	0.394104	0.878982
	H104	H	0.106036	0.572767	0.400573
	H105	H	0.880088	0.579750	0.581500
	H106	H	0.109045	0.394155	0.578825
	H107	H	0.881950	0.396642	0.400170
	H108	H	0.903922	0.596162	0.076189
	H109	H	0.080887	0.377534	0.075401
	H110	H	0.082839	0.597809	0.898398
	H111	H	0.905865	0.375967	0.898979
	H112	H	0.074745	0.901079	0.596525
	H113	H	0.080237	0.080606	0.376434
	H114	H	0.907705	0.079516	0.600059
	H115	H	0.896121	0.896044	0.375677
	H116	H	0.607464	0.077062	0.902474
	H117	H	0.385920	0.067026	0.074774
	H118	H	0.607394	0.893178	0.072638
	H119	H	0.378971	0.891595	0.898770
	C120	C	0.372540	-0.005848	0.612040
	C121	C	0.615219	0.978322	0.612016
	C122	C	0.614281	-0.005514	0.369499
	C123	C	0.373798	0.977802	0.368488
	C124	C	0.613865	0.365103	-0.001996
	C125	C	0.616783	0.608684	0.979771
	C126	C	0.374393	0.607834	-0.001180
	C127	C	0.372639	0.364462	0.981118
	C128	C	0.002731	0.606739	0.369049
	C129	C	0.985943	0.608619	0.610547
	C130	C	0.003543	0.366132	0.609312
	C131	C	0.985487	0.365399	0.368341
	C132	C	0.872759	0.493944	0.110316
	C133	C	0.114840	0.478241	0.109986
	C134	C	0.116772	0.495639	0.866735
	C135	C	0.872554	0.477388	0.866378
	C136	C	0.116055	0.864255	0.497636
	C137	C	0.114523	0.106666	0.480835
	C138	C	0.871970	0.109837	0.497925
	C139	C	0.873459	0.866017	0.481983
	C140	C	0.502623	0.106524	0.869602
	C141	C	0.485551	0.107665	0.111031
	C142	C	0.503748	0.865477	0.110220
	C143	C	0.485616	0.864564	0.868263
	C144	C	0.373162	0.876066	0.668291
	C145	C	0.614893	0.096046	0.670448
	C146	C	0.619533	0.878982	0.307626
	C147	C	0.368430	0.092941	0.306202
	C148	C	0.673751	0.362675	0.880557
	C149	C	0.677188	0.610087	0.096851
	C150	C	0.314909	0.608322	0.880992
	C151	C	0.310641	0.361573	0.096935
	C152	C	0.884797	0.666414	0.366782
	C153	C	0.105124	0.666054	0.611041
	C154	C	0.885639	0.306540	0.611612
	C155	C	0.102792	0.304566	0.364396
	C156	C	0.884639	0.365977	0.667465
	C157	C	0.105596	0.607563	0.667478
	C158	C	0.884701	0.609100	0.308942
	C159	C	0.102826	0.362181	0.307230
	C160	C	0.372083	0.666423	0.881144
	C161	C	0.621022	0.669462	0.096312
	C162	C	0.617503	0.303335	0.881728
	C163	C	0.366345	0.302124	0.096135
	C164	C	0.675696	0.878552	0.367067
	C165	C	0.672540	0.096535	0.612165
	C166	C	0.316349	0.875696	0.609057
	C167	C	0.312690	0.094336	0.366160
	C168	C	0.868578	0.378421	0.171806
	C169	C	0.118418	0.594106	0.171729
	C170	C	0.119426	0.378978	0.806485
	C171	C	0.870500	0.594298	0.807779
	C172	C	0.177382	0.860900	0.381193
	C173	C	0.173001	0.107308	0.599070
	C174	C	0.809723	0.112329	0.382069
	C175	C	0.816642	0.867507	0.600553
	C176	C	0.383949	0.165695	0.867906
	C177	C	0.601221	0.171005	0.116858
	C178	C	0.386707	0.803644	0.114237
	C179	C	0.604768	0.806933	0.867530
	C180	C	0.386798	0.861190	0.171969
	C181	C	0.602311	0.112380	0.172954
	C182	C	0.383687	0.107447	0.810844
	C183	C	0.604613	0.864475	0.810343
	C184	C	0.867175	0.170345	0.381988
	C185	C	0.116837	0.166566	0.598281
	C186	C	0.119375	0.803339	0.381166
	C187	C	0.873780	0.808856	0.599927
	C188	C	0.177194	0.379009	0.864702
	C189	C	0.175218	0.595005	0.112711
	C190	C	0.812437	0.377199	0.112081
	C191	C	0.812209	0.593949	0.865499
	C192	C	0.395710	0.076758	0.589812
	C193	C	0.592327	0.895977	0.588324
	C194	C	0.587483	0.075223	0.395146
	C195	C	0.400333	0.897403	0.394058
	C196	C	0.587701	0.391386	0.078930
	C197	C	0.590760	0.583886	0.898245
	C198	C	0.399799	0.583349	0.080331
	C199	C	0.399815	0.390160	0.900458
	C200	C	0.085085	0.581867	0.393877
	C201	C	0.902451	0.585304	0.586744
	C202	C	0.086290	0.390063	0.584812
	C203	C	0.903782	0.391221	0.394235
	C204	C	0.898979	0.574721	0.084787
	C205	C	0.088640	0.397556	0.083887
	C206	C	0.091554	0.576898	0.891499
	C207	C	0.898065	0.395900	0.890642
	C208	C	0.090969	0.889359	0.579366
	C209	C	0.089612	0.082153	0.399048
	C210	C	0.897962	0.085146	0.579491
	C211	C	0.896957	0.889265	0.399601
	C212	C	0.585385	0.082842	0.893711
	C213	C	0.404369	0.080334	0.084019
	C214	C	0.585103	0.891864	0.084160
	C215	C	0.402347	0.887979	0.892368
	Zn216	Zn	0.494206	-0.014607	0.741408
	Zn217	Zn	0.495093	-0.013512	0.238633
	Zn218	Zn	0.743436	0.485251	-0.011318
	Zn219	Zn	0.245144	0.487033	-0.010130
	Zn220	Zn	-0.005520	0.736015	0.489345
	Zn221	Zn	-0.005517	0.237195	0.488687
	Zn222	Zn	-0.004842	0.486918	0.737636
	Zn223	Zn	-0.006089	0.486188	0.240191
	Zn224	Zn	0.495059	0.737001	-0.010681
	Zn225	Zn	0.493371	0.235528	-0.009660
	Zn226	Zn	0.744440	-0.012313	0.490349
	Zn227	Zn	0.244227	-0.014163	0.489427
	N228	N	0.407215	0.950859	0.670447
	N229	N	0.580016	0.021442	0.670498
	N230	N	0.582148	0.952131	0.309036
	N231	N	0.405640	0.019570	0.307331
	N232	N	0.671812	0.400341	0.953902
	N233	N	0.674775	0.573002	0.023223
	N234	N	0.316031	0.572691	0.955168
	N235	N	0.314445	0.399791	0.024337
	N236	N	0.959312	0.665285	0.403410
	N237	N	0.029460	0.667108	0.576720
	N238	N	0.960606	0.306531	0.576191
	N239	N	0.028664	0.306414	0.401739
	N240	N	0.959317	0.401980	0.666586
	N241	N	0.030205	0.572715	0.667524
	N242	N	0.958980	0.572554	0.310206
	N243	N	0.028683	0.399266	0.309389
	N244	N	0.408186	0.666556	0.955472
	N245	N	0.584155	0.668632	0.022462
	N246	N	0.581147	0.304561	0.955882
	N247	N	0.404372	0.303985	0.023002
	N248	N	0.672885	0.951751	0.404775
	N249	N	0.673070	0.022267	0.576803
	N250	N	0.315587	0.950370	0.575113
	N251	N	0.315715	0.021742	0.404134
	N252	N	0.905212	0.452107	0.171032
	N253	N	0.081813	0.520378	0.170462
	N254	N	0.082664	0.452631	0.807360
	N255	N	0.907411	0.520671	0.808178
	N256	N	0.175291	0.898373	0.454565
	N257	N	0.172075	0.070973	0.524904
	N258	N	0.812616	0.075377	0.455411
	N259	N	0.815975	0.902197	0.525937
	N260	N	0.459126	0.165643	0.903475
	N261	N	0.527428	0.168163	0.079209
	N262	N	0.460553	0.806017	0.076662
	N263	N	0.529472	0.806697	0.902615
	N264	N	0.460660	0.898821	0.169724
	N265	N	0.529105	0.073441	0.169488
	N266	N	0.458566	0.071733	0.811361
	N267	N	0.529360	0.899350	0.810572
	N268	N	0.905101	0.169044	0.455220
	N269	N	0.081418	0.166701	0.523524
	N270	N	0.082055	0.805269	0.454656
	N271	N	0.908025	0.807542	0.524905
	N272	N	0.175777	0.452523	0.901408
	N273	N	0.173203	0.521877	0.074986
	N274	N	0.814624	0.450264	0.074599
	N275	N	0.813158	0.520052	0.901157
	O276	O	-0.223927	0.957448	0.213282
	H277	H	-0.229603	0.939911	0.219962
	H278	H	-0.242701	0.942498	0.224810
	O279	O	-0.150096	0.953119	0.055480
	H280	H	-0.152321	0.958840	0.051470
	H281	H	-0.158139	0.944466	0.058470
	O282	O	0.974337	0.014398	0.821551
	H283	H	0.980382	0.030583	0.814407
	H284	H	0.970317	0.033686	0.839068
	O285	O	0.707811	0.271011	0.471160
	H286	H	0.709590	0.260222	0.452709
	H287	H	0.712893	0.265661	0.456413
	O288	O	0.550856	0.652328	0.423593
	H289	H	0.549608	0.657250	0.421541
	H290	H	0.539708	0.658573	0.433539
	O291	O	0.523627	0.707492	0.710527
	H292	H	0.544824	0.722473	0.722125
	H293	H	0.533670	0.719882	0.713662
	O294	O	1.166163	-0.186393	1.174273
	H295	H	1.155221	-0.163621	1.158609
	H296	H	1.158718	-0.182432	1.175477
	O297	O	0.686393	0.680759	0.290360
	H298	H	0.665602	0.676344	0.301293
	H299	H	0.681833	0.677377	0.293613
	O300	O	-0.539983	-0.727038	1.713213
	H301	H	-0.532214	-0.746623	1.717959
	H302	H	-0.541706	-0.739171	1.705946
	O303	O	0.313033	0.302054	0.309390
	H304	H	0.325628	0.313033	0.313171
	H305	H	0.303492	0.289149	0.296582
	O306	O	0.705319	0.280420	0.276216
	H307	H	0.671324	0.283109	0.295159
	H308	H	0.707443	0.325713	0.277658
	O309	O	0.720881	0.714732	0.523943
	H310	H	0.740924	0.734658	0.542988
	H311	H	0.722192	0.723082	0.555631
	O312	O	0.279776	0.518124	0.269616
	H313	H	0.281521	0.520477	0.267680
	H314	H	0.265721	0.514060	0.258419
	O315	O	1.119628	1.043107	0.812792
	H316	H	1.131155	1.012313	0.801260
	H317	H	1.107086	1.022761	0.816781
	O318	O	0.464513	0.254637	0.478811
	H319	H	0.446438	0.259257	0.486931
	H320	H	0.465792	0.253163	0.457307
	O321	O	0.523616	0.576992	0.513792
	H322	H	0.515035	0.580390	0.532136
	H323	H	0.524161	0.574815	0.523359
	O324	O	1.184449	1.181872	-0.199627
	H325	H	1.168207	1.157755	-0.183797
	H326	H	1.158793	1.172993	-0.177624
	O327	O	-0.028992	-0.251741	0.975775
	H328	H	-0.024035	-0.253549	0.978998
	H329	H	-0.010673	-0.236487	0.975926
	O330	O	0.549581	0.565302	0.256180
	H331	H	0.545792	0.560276	0.259371
	H332	H	0.537712	0.582547	0.257019
	O333	O	0.603164	0.438454	0.565950
	H334	H	0.599356	0.461798	0.572972
	H335	H	0.593915	0.432475	0.555776
	O336	O	0.451766	0.704081	0.268603
	H337	H	0.445930	0.716066	0.266475
	H338	H	0.430311	0.715478	0.267006
	O339	O	1.041898	-0.238057	0.778135
	H340	H	1.047672	-0.239722	0.776842
	H341	H	1.030835	-0.241390	0.757915
	O342	O	-0.232492	0.025506	-0.234964
	H343	H	-0.221860	0.070669	-0.226540
	H344	H	-0.266346	0.033693	-0.269565
	O345	O	0.093165	0.810910	1.051417
	H346	H	0.095650	0.813606	1.062399
	H347	H	0.097745	0.824416	1.041261
	O348	O	0.202857	0.204311	0.017020
	H349	H	0.204470	0.214462	0.010482
	H350	H	0.193998	0.208241	0.015284
	O351	O	0.270240	0.265217	0.525642
	H352	H	0.269301	0.261828	0.533609
	H353	H	0.250441	0.249369	0.541378
	O354	O	-0.211070	-0.207272	1.181831
	H355	H	-0.231857	-0.229597	1.178880
	H356	H	-0.198412	-0.200974	1.160625
	O357	O	1.035853	0.916204	0.878642
	H358	H	1.031362	0.911304	0.884615
	H359	H	1.031783	0.907217	0.889377
	O360	O	0.433368	0.536052	0.718505
	H361	H	0.436800	0.537456	0.721946
	H362	H	0.412186	0.530790	0.717156
	O363	O	0.007753	-0.032194	0.223086
	H364	H	-0.007456	-0.033655	0.226857
	H365	H	0.033631	-0.037495	0.225389
	O366	O	0.683030	0.300636	0.678221
	H367	H	0.655220	0.318680	0.671328
	H368	H	0.674831	0.314659	0.645641
	O369	O	0.507493	0.266905	0.266558
	H370	H	0.513955	0.266647	0.254783
	H371	H	0.503941	0.268891	0.247177
	O372	O	0.863662	1.110213	0.060704
	H373	H	0.865954	1.100409	0.066722
	H374	H	0.846340	1.133202	0.077081
	O375	O	1.209480	0.035025	-0.023149
	H376	H	1.195921	0.040381	-0.034349
	H377	H	1.213449	0.036384	-0.036097
	O378	O	0.710343	0.526162	0.420767
	H379	H	0.700734	0.549228	0.424869
	H380	H	0.712588	0.544864	0.433252
	O381	O	-0.043102	1.205370	0.775782
	H382	H	-0.048725	1.201022	0.765045
	H383	H	-0.042669	1.211703	0.772919
	O384	O	0.942452	0.226296	1.041081
	H385	H	0.931568	0.227254	1.067832
	H386	H	0.920431	0.225497	1.039932
	O387	O	0.988182	1.138274	-0.076831
	H388	H	0.988875	1.129470	-0.075687
	H389	H	0.966331	1.138479	-0.060810
	O390	O	0.702991	0.447915	0.273743
	H391	H	0.710783	0.466849	0.275054
	H392	H	0.713702	0.468263	0.275040
	O393	O	0.458587	0.612895	0.486504
	H394	H	0.473897	0.616341	0.478337
	H395	H	0.459058	0.614706	0.517365
	O396	O	-0.031566	0.851277	0.824076
	H397	H	-0.025843	0.877254	0.827597
	H398	H	-0.023957	0.854841	0.831433
	O399	O	0.293589	0.279632	0.699813
	H400	H	0.319226	0.263569	0.713722
	H401	H	0.270242	0.254810	0.706915
	O402	O	0.578535	0.512174	0.525188
	H403	H	0.585015	0.522368	0.534683
	H404	H	0.585010	0.504531	0.516339
	O405	O	0.784485	0.200607	0.777745
	H406	H	0.752399	0.235140	0.747263
	H407	H	0.810890	0.209642	0.800042
	O408	O	0.206510	-0.224708	-0.220181
	H409	H	0.237551	-0.259684	-0.251728
	H410	H	0.174484	-0.234081	-0.203072
	O411	O	0.879818	1.107272	1.200098
	H412	H	0.895758	1.096380	1.208174
	H413	H	0.862144	1.113513	1.208667
	O414	O	0.275628	0.453854	0.712398
	H415	H	0.260550	0.429431	0.721600
	H416	H	0.263313	0.428285	0.723982
	O417	O	0.626020	0.389380	0.443390
	H418	H	0.627370	0.411585	0.442836
	H419	H	0.616924	0.370263	0.427716
	O420	O	0.298844	0.601993	0.508589
	H421	H	0.290997	0.588209	0.508110
	H422	H	0.290609	0.602769	0.496665
	O423	O	-0.011491	-0.063875	1.017411
	H424	H	-0.016359	-0.047307	1.017132
	H425	H	-0.023177	-0.061056	1.029607
	O426	O	0.445494	0.439529	0.254990
	H427	H	0.441260	0.437653	0.257693
	H428	H	0.450966	0.451103	0.260342
	O429	O	1.207149	1.200604	1.200913
	H430	H	1.199972	1.189099	1.189281
	H431	H	1.198458	1.197504	1.186898
	O432	O	0.510276	0.356941	0.531721
	H433	H	0.500905	0.359752	0.520955
	H434	H	0.525038	0.362400	0.515925
	O435	O	0.198109	0.955314	0.054419
	H436	H	0.203567	0.940326	0.044179
	H437	H	0.199367	0.957200	0.055590
	O438	O	-0.221863	0.205910	-0.045527
	H439	H	-0.237243	0.205161	-0.045305
	H440	H	-0.235302	0.202362	-0.042657
	O441	O	0.214847	-0.234438	-0.043275
	H442	H	0.215852	-0.236710	-0.049655
	H443	H	0.224149	-0.252401	-0.055896
	O444	O	0.701743	0.588334	0.696730
	H445	H	0.713250	0.581006	0.703751
	H446	H	0.695800	0.567868	0.703558
	O447	O	0.016823	1.211288	1.211169
	H448	H	0.027931	1.213084	1.224077
	H449	H	0.016023	1.214603	1.226561
	O450	O	-0.049197	0.771654	1.206458
	H451	H	-0.052319	0.758566	1.222826
	H452	H	-0.066124	0.775437	1.201286
	O453	O	0.280044	0.431094	0.417461
	H454	H	0.270452	0.428622	0.412350
	H455	H	0.281124	0.426353	0.420239
	O456	O	0.377258	0.453662	0.500622
	H457	H	0.376303	0.451179	0.500973
	H458	H	0.365802	0.440619	0.497052
	O459	O	0.306616	0.674520	0.681793
	H460	H	0.326454	0.640401	0.680657
	H461	H	0.324693	0.674791	0.644031
	O462	O	1.040012	0.985974	1.131389
	H463	H	1.035199	0.982100	1.135321
	H464	H	1.046633	0.983959	1.132832
	O465	O	0.800652	-0.071080	-0.112148
	H466	H	0.826075	-0.060042	-0.113456
	H467	H	0.786500	-0.041611	-0.138823
	O468	O	0.270895	0.708678	0.262339
	H469	H	0.269362	0.722995	0.252685
	H470	H	0.262064	0.691793	0.254548
	O471	O	0.399311	0.635893	0.466660
	H472	H	0.397281	0.652331	0.479833
	H473	H	0.398456	0.631732	0.461135
	O474	O	0.736970	0.733213	0.731174
	H475	H	0.765234	0.753818	0.760622
	H476	H	0.746135	0.706272	0.741410
	O477	O	0.441101	0.386151	1.481612
	H478	H	0.441088	0.379697	1.481386
	H479	H	0.436711	0.386300	1.478968
	O480	O	0.492808	0.661905	0.554283
	H481	H	0.492794	0.667836	0.561847
	H482	H	0.481566	0.658106	0.538628
	O483	O	0.555215	0.436827	0.717872
	H484	H	0.541294	0.447890	0.718308
	H485	H	0.543495	0.425961	0.722382
	O486	O	1.216659	-0.057192	0.768921
	H487	H	1.228417	-0.085456	0.757859
	H488	H	1.228868	-0.080852	0.760047
	O489	O	1.215888	1.009837	0.216644
	H490	H	1.233584	1.029973	0.219115
	H491	H	1.238370	1.008649	0.209704
	O492	O	-0.129933	-0.171411	0.028736
	H493	H	-0.129069	-0.174382	0.014031
	H494	H	-0.128332	-0.178448	0.017296
	O495	O	-0.235620	1.060239	1.042291
	H496	H	-0.231203	1.049787	1.050114
	H497	H	-0.237757	1.060496	1.055941
	O498	O	1.049327	1.156272	0.969227
	H499	H	1.037618	1.159537	0.963343
	H500	H	1.035699	1.147726	0.971192
	O501	O	0.794502	0.779595	0.876300
	H502	H	0.789465	0.806772	0.884188
	H503	H	0.812879	0.784984	0.889729
