data_Molecule from HDF5

_cell_length_a		16.384773
_cell_length_b		16.311695
_cell_length_c		16.166736
_cell_angle_alpha	89.685817
_cell_angle_beta	90.199485
_cell_angle_gamma	89.889290
_symmetry_space_group_name_H-M	'P 1'
_symmetry_Int_Tables_number		1

loop_
	_symmetry_equiv_pos_as_xyz
	x,y,z

loop_
	_atom_site_label
	_atom_site_type_symbol
	_atom_site_fract_x
	_atom_site_fract_y
	_atom_site_fract_z
	H0	H	0.395412	0.831414	0.726036
	H1	H	0.595634	0.155947	0.723476
	H2	H	0.595657	0.830210	0.295726
	H3	H	0.394883	0.154297	0.290146
	H4	H	0.714731	0.392722	0.847368
	H5	H	0.714419	0.595754	0.173228
	H6	H	0.274055	0.597599	0.849034
	H7	H	0.283021	0.390241	0.174047
	H8	H	0.835722	0.712981	0.406720
	H9	H	0.155110	0.712039	0.618218
	H10	H	0.834104	0.272216	0.616271
	H11	H	0.156468	0.275302	0.412336
	H12	H	0.831998	0.392593	0.728247
	H13	H	0.156794	0.592096	0.731001
	H14	H	0.834737	0.594527	0.292873
	H15	H	0.157160	0.389910	0.296493
	H16	H	0.394731	0.708985	0.845679
	H17	H	0.598648	0.709402	0.171982
	H18	H	0.598134	0.278236	0.844632
	H19	H	0.397256	0.273498	0.171634
	H20	H	0.717295	0.833584	0.403082
	H21	H	0.714504	0.154282	0.611655
	H22	H	0.278391	0.832144	0.612714
	H23	H	0.277254	0.154215	0.403642
	H24	H	0.897395	0.328831	0.226852
	H25	H	0.094078	0.654381	0.226935
	H26	H	0.093134	0.329344	0.799076
	H27	H	0.893743	0.654279	0.794104
	H28	H	0.211038	0.892258	0.346719
	H29	H	0.214613	0.093182	0.672422
	H30	H	0.778488	0.097257	0.347080
	H31	H	0.776317	0.889242	0.671923
	H32	H	0.335764	0.212236	0.903495
	H33	H	0.658882	0.209201	0.110144
	H34	H	0.336256	0.774214	0.110253
	H35	H	0.658173	0.774787	0.906632
	H36	H	0.335184	0.891825	0.225579
	H37	H	0.658623	0.092722	0.227009
	H38	H	0.334695	0.092733	0.792326
	H39	H	0.658147	0.892479	0.791741
	H40	H	0.894818	0.210047	0.347906
	H41	H	0.095566	0.205351	0.676060
	H42	H	0.096754	0.775252	0.349159
	H43	H	0.894188	0.776116	0.674207
	H44	H	0.214787	0.332273	0.908439
	H45	H	0.215018	0.653253	0.116039
	H46	H	0.777522	0.331345	0.115967
	H47	H	0.778614	0.654700	0.907933
	H48	H	0.408825	0.108047	0.598785
	H49	H	0.584253	0.877063	0.603764
	H50	H	0.586387	0.108985	0.416199
	H51	H	0.401570	0.879128	0.425456
	H52	H	0.578816	0.400593	0.122746
	H53	H	0.587880	0.581025	0.894096
	H54	H	0.403877	0.573778	0.123823
	H55	H	0.401377	0.406425	0.893558
	H56	H	0.107457	0.578490	0.424220
	H57	H	0.881350	0.584248	0.599810
	H58	H	0.111071	0.392599	0.604203
	H59	H	0.882963	0.402544	0.425653
	H60	H	0.107056	0.402340	0.600408
	H61	H	0.881172	0.581849	0.603100
	H62	H	0.111742	0.583494	0.416001
	H63	H	0.879874	0.404064	0.417754
	H64	H	0.415620	0.586697	0.124065
	H65	H	0.586548	0.582650	0.894160
	H66	H	0.590030	0.394334	0.128825
	H67	H	0.408667	0.405313	0.894841
	H68	H	0.585497	0.106455	0.419609
	H69	H	0.583800	0.881448	0.594093
	H70	H	0.401389	0.107974	0.594576
	H71	H	0.398473	0.874625	0.415146
	H72	H	0.903848	0.609883	0.112103
	H73	H	0.088107	0.378290	0.097461
	H74	H	0.087551	0.609579	0.919607
	H75	H	0.909031	0.381146	0.929687
	H76	H	0.082093	0.896850	0.626713
	H77	H	0.087996	0.074523	0.396604
	H78	H	0.906673	0.072842	0.622868
	H79	H	0.902238	0.910531	0.395515
	H80	H	0.611048	0.093366	0.927763
	H81	H	0.383949	0.088601	0.088621
	H82	H	0.613160	0.899819	0.103758
	H83	H	0.384924	0.906883	0.920697
	H84	H	0.611699	0.898358	0.098949
	H85	H	0.385843	0.073647	0.099069
	H86	H	0.607750	0.072757	0.917231
	H87	H	0.380142	0.901516	0.909762
	H88	H	0.910180	0.088007	0.627051
	H89	H	0.075761	0.090300	0.395344
	H90	H	0.095049	0.901292	0.629563
	H91	H	0.914164	0.903124	0.396818
	H92	H	0.081096	0.606789	0.921776
	H93	H	0.096974	0.373506	0.105504
	H94	H	0.913254	0.603966	0.097924
	H95	H	0.893650	0.374613	0.924269
	H96	H	0.401534	0.110751	0.602438
	H97	H	0.591985	0.877112	0.597724
	H98	H	0.588757	0.109258	0.419093
	H99	H	0.409301	0.878002	0.416259
	H100	H	0.590725	0.407180	0.124512
	H101	H	0.589096	0.584345	0.893264
	H102	H	0.399815	0.589466	0.130658
	H103	H	0.404575	0.400236	0.890916
	H104	H	0.110327	0.588340	0.424960
	H105	H	0.880655	0.585729	0.603360
	H106	H	0.110641	0.401429	0.610974
	H107	H	0.878614	0.396940	0.421095
	H108	H	0.896836	0.608600	0.096197
	H109	H	0.085786	0.375513	0.109865
	H110	H	0.087828	0.606485	0.926490
	H111	H	0.907435	0.375055	0.912608
	H112	H	0.085813	0.909819	0.624277
	H113	H	0.094731	0.092081	0.389035
	H114	H	0.896392	0.081763	0.630032
	H115	H	0.902881	0.897634	0.391378
	H116	H	0.616903	0.090498	0.904879
	H117	H	0.378851	0.088715	0.106701
	H118	H	0.610671	0.903350	0.100638
	H119	H	0.380828	0.894283	0.921738
	C120	C	0.374170	0.002348	0.630169
	C121	C	0.616951	0.985045	0.629397
	C122	C	0.617668	0.001729	0.387506
	C123	C	0.372997	0.983979	0.386816
	C124	C	0.617847	0.371320	0.017656
	C125	C	0.617959	0.613316	1.001414
	C126	C	0.374851	0.614436	0.018702
	C127	C	0.375724	0.372120	1.000785
	C128	C	0.004199	0.614324	0.390036
	C129	C	0.987018	0.613828	0.633604
	C130	C	0.002769	0.369359	0.635397
	C131	C	0.986896	0.370920	0.391503
	C132	C	0.874675	0.500550	0.132901
	C133	C	0.118993	0.482811	0.134432
	C134	C	0.116016	0.501018	0.891613
	C135	C	0.873519	0.483885	0.890673
	C136	C	0.117466	0.872029	0.519380
	C137	C	0.116799	0.114457	0.502132
	C138	C	0.874316	0.112975	0.518997
	C139	C	0.874698	0.872067	0.501708
	C140	C	0.505197	0.115486	0.885936
	C141	C	0.489449	0.113594	0.129253
	C142	C	0.505359	0.870385	0.130977
	C143	C	0.488392	0.870979	0.886775
	C144	C	0.375415	0.880158	0.687630
	C145	C	0.615580	0.107231	0.685615
	C146	C	0.616608	0.879411	0.331948
	C147	C	0.374597	0.105887	0.328913
	C148	C	0.675910	0.372653	0.895681
	C149	C	0.675155	0.613735	0.124398
	C150	C	0.314662	0.615804	0.897085
	C151	C	0.320531	0.371028	0.124601
	C152	C	0.883583	0.673363	0.388216
	C153	C	0.107482	0.672244	0.636070
	C154	C	0.881824	0.311742	0.635288
	C155	C	0.108366	0.313831	0.392858
	C156	C	0.881034	0.371536	0.690992
	C157	C	0.108282	0.612426	0.692131
	C158	C	0.883229	0.614271	0.331578
	C159	C	0.108682	0.371081	0.335054
	C160	C	0.374659	0.671135	0.895332
	C161	C	0.617525	0.670334	0.124002
	C162	C	0.617755	0.315820	0.894157
	C163	C	0.377273	0.312931	0.123341
	C164	C	0.676981	0.881019	0.385728
	C165	C	0.674921	0.106277	0.629988
	C166	C	0.317182	0.880454	0.631238
	C167	C	0.315976	0.105696	0.385260
	C168	C	0.876454	0.378146	0.189465
	C169	C	0.115742	0.605261	0.190002
	C170	C	0.114424	0.378627	0.835630
	C171	C	0.874477	0.606080	0.832916
	C172	C	0.172838	0.872835	0.396073
	C173	C	0.174858	0.112756	0.624502
	C174	C	0.817107	0.115248	0.396227
	C175	C	0.815943	0.870844	0.623747
	C176	C	0.383979	0.172970	0.885171
	C177	C	0.610551	0.170380	0.129277
	C178	C	0.384320	0.812960	0.130065
	C179	C	0.609807	0.813583	0.887179
	C180	C	0.383804	0.871601	0.187520
	C181	C	0.610468	0.112574	0.187800
	C182	C	0.383198	0.113223	0.830007
	C183	C	0.610054	0.872470	0.830354
	C184	C	0.874842	0.171578	0.396684
	C185	C	0.115705	0.168441	0.626137
	C186	C	0.116272	0.814456	0.397134
	C187	C	0.874636	0.814507	0.624923
	C188	C	0.174815	0.379966	0.890356
	C189	C	0.175689	0.604779	0.134496
	C190	C	0.816492	0.379478	0.134295
	C191	C	0.817006	0.606205	0.889684
	C192	C	0.397039	0.086868	0.605691
	C193	C	0.593367	0.900529	0.605535
	C194	C	0.593762	0.086278	0.411355
	C195	C	0.396177	0.899280	0.411668
	C196	C	0.593605	0.394080	0.102990
	C197	C	0.594516	0.589556	0.915962
	C198	C	0.399389	0.590263	0.104043
	C199	C	0.398200	0.396916	0.915398
	C200	C	0.088065	0.590407	0.414808
	C201	C	0.903060	0.590843	0.609189
	C202	C	0.087457	0.392176	0.612104
	C203	C	0.902475	0.394564	0.414697
	C204	C	0.897916	0.585452	0.109080
	C205	C	0.096906	0.397758	0.111095
	C206	C	0.092363	0.585570	0.915777
	C207	C	0.896758	0.399051	0.914995
	C208	C	0.094443	0.895771	0.604894
	C209	C	0.093036	0.092235	0.416026
	C210	C	0.897749	0.088057	0.604514
	C211	C	0.899228	0.896499	0.416691
	C212	C	0.590011	0.092468	0.909657
	C213	C	0.404648	0.090448	0.105189
	C214	C	0.590012	0.893594	0.107835
	C215	C	0.403885	0.894150	0.910246
	Zn216	Zn	0.496390	-0.006642	0.758183
	Zn217	Zn	0.496789	-0.007581	0.260187
	Zn218	Zn	0.746376	0.492996	0.011341
	Zn219	Zn	0.246795	0.492501	0.011519
	Zn220	Zn	-0.004123	0.743642	0.511685
	Zn221	Zn	-0.005739	0.241505	0.512680
	Zn222	Zn	-0.005332	0.492164	0.763194
	Zn223	Zn	-0.004156	0.491232	0.261974
	Zn224	Zn	0.497720	0.741905	0.008795
	Zn225	Zn	0.496582	0.243856	0.007559
	Zn226	Zn	0.745997	-0.006622	0.508472
	Zn227	Zn	0.245182	-0.006606	0.509088
	N228	N	0.410328	0.956696	0.687088
	N229	N	0.580361	0.030835	0.685476
	N230	N	0.580291	0.955421	0.333064
	N231	N	0.409163	0.029098	0.329593
	N232	N	0.676069	0.406401	0.973422
	N233	N	0.675570	0.578997	0.047248
	N234	N	0.314564	0.581526	0.974958
	N235	N	0.319170	0.406976	0.047429
	N236	N	0.959775	0.673501	0.423965
	N237	N	0.031201	0.673299	0.600347
	N238	N	0.958659	0.310097	0.601495
	N239	N	0.031895	0.313711	0.427494
	N240	N	0.957264	0.406499	0.691243
	N241	N	0.032587	0.576812	0.690763
	N242	N	0.959094	0.578122	0.332603
	N243	N	0.032255	0.406164	0.334288
	N244	N	0.411261	0.670474	0.971978
	N245	N	0.582693	0.670191	0.046550
	N246	N	0.582323	0.314837	0.971080
	N247	N	0.410699	0.313424	0.045384
	N248	N	0.677734	0.958116	0.419561
	N249	N	0.676144	0.029283	0.595870
	N250	N	0.316093	0.957378	0.596175
	N251	N	0.314810	0.028909	0.420660
	N252	N	0.911839	0.454449	0.188793
	N253	N	0.081633	0.528465	0.190244
	N254	N	0.078650	0.454816	0.836349
	N255	N	0.908925	0.529203	0.833417
	N256	N	0.173428	0.907967	0.473097
	N257	N	0.175832	0.080369	0.546175
	N258	N	0.816799	0.079637	0.473436
	N259	N	0.815790	0.905859	0.546194
	N260	N	0.460962	0.174318	0.919194
	N261	N	0.534273	0.171021	0.093634
	N262	N	0.460941	0.812121	0.095954
	N263	N	0.533164	0.812407	0.921238
	N264	N	0.460111	0.906455	0.188383
	N265	N	0.533898	0.077765	0.187830
	N266	N	0.459677	0.078480	0.829995
	N267	N	0.533510	0.907423	0.830027
	N268	N	0.909832	0.170341	0.474084
	N269	N	0.080535	0.169869	0.548734
	N270	N	0.082513	0.813783	0.474975
	N271	N	0.910422	0.815132	0.548017
	N272	N	0.175855	0.457135	0.924424
	N273	N	0.178070	0.527511	0.100824
	N274	N	0.815092	0.456877	0.100224
	N275	N	0.816471	0.529303	0.925090
	O276	O	0.557745	0.456672	0.538245
	H277	H	0.555158	0.454080	0.530798
	H278	H	0.549077	0.458916	0.542114
	O279	O	0.068089	-0.003344	0.146693
	H280	H	0.077196	-0.003099	0.148994
	H281	H	0.062736	0.008033	0.140207
	O282	O	0.928297	0.005142	1.077703
	H283	H	0.934671	-0.003217	1.084366
	H284	H	0.933793	0.002071	1.081789
	O285	O	0.596957	0.290324	0.431525
	H286	H	0.596939	0.284109	0.450042
	H287	H	0.592445	0.283273	0.435447
	O288	O	1.154723	0.880412	0.956464
	H289	H	1.153885	0.880680	0.937293
	H290	H	1.151681	0.887837	0.945684
	O291	O	0.148648	0.955012	0.061928
	H292	H	0.150861	0.953338	0.046931
	H293	H	0.161558	0.963664	0.069948
	O294	O	0.485955	0.402920	0.392977
	H295	H	0.486572	0.412920	0.382444
	H296	H	0.495731	0.413560	0.395333
	O297	O	0.290338	0.588458	0.306428
	H298	H	0.273571	0.610933	0.296077
	H299	H	0.279393	0.599547	0.314234
	O300	O	0.390657	0.466944	0.383221
	H301	H	0.396078	0.491062	0.384446
	H302	H	0.385004	0.464681	0.369635
	O303	O	0.615884	0.619691	0.585415
	H304	H	0.617536	0.629424	0.580039
	H305	H	0.616296	0.622641	0.574654
	O306	O	0.606315	0.627821	0.469333
	H307	H	0.607574	0.622980	0.479998
	H308	H	0.590549	0.639900	0.474189
	O309	O	0.479396	0.438749	0.430300
	H310	H	0.482696	0.441020	0.426596
	H311	H	0.480200	0.432012	0.437684
	O312	O	-0.062913	0.081679	-0.053280
	H313	H	-0.051688	0.076331	-0.036849
	H314	H	-0.071199	0.081348	-0.059306
	O315	O	1.034770	0.883215	-0.090856
	H316	H	1.039512	0.883504	-0.099115
	H317	H	1.031001	0.885967	-0.096650
	O318	O	-0.690899	1.326836	0.598267
	H319	H	-0.704311	1.321276	0.584650
	H320	H	-0.690669	1.355806	0.579347
	O321	O	0.583414	0.535963	0.324242
	H322	H	0.593504	0.538466	0.322578
	H323	H	0.586587	0.540770	0.324612
	O324	O	0.064926	0.998402	0.071908
	H325	H	0.064634	1.009131	0.072787
	H326	H	0.062716	0.996074	0.079619
	O327	O	0.374865	0.621354	0.570692
	H328	H	0.386787	0.625371	0.568147
	H329	H	0.386433	0.600539	0.573642
	O330	O	0.506390	-0.437828	1.689287
	H331	H	0.520112	-0.421339	1.691497
	H332	H	0.525608	-0.448978	1.672920
	O333	O	-0.127403	0.037995	0.911414
	H334	H	-0.124014	0.033709	0.921409
	H335	H	-0.131521	0.035368	0.913074
	O336	O	0.463530	0.312897	0.541168
	H337	H	0.456277	0.298466	0.531839
	H338	H	0.466702	0.317887	0.537229
	O339	O	0.666398	-0.604076	0.339207
	H340	H	0.673533	-0.596453	0.323451
	H341	H	0.654538	-0.613346	0.340881
	O342	O	0.017607	-0.080141	-0.124384
	H343	H	0.014953	-0.077303	-0.132915
	H344	H	0.024456	-0.068018	-0.131180
	O345	O	1.052040	0.020631	0.908244
	H346	H	1.040097	0.025931	0.912017
	H347	H	1.053018	0.027833	0.908619
	O348	O	0.949871	0.958152	-0.029578
	H349	H	0.949999	0.954706	-0.032688
	H350	H	0.943028	0.961331	-0.029076
	O351	O	0.440053	0.290928	0.686751
	H352	H	0.426003	0.285902	0.693742
	H353	H	0.420940	0.285172	0.686023
	O354	O	1.041612	-0.020095	0.990474
	H355	H	1.036757	-0.021763	0.984556
	H356	H	1.026779	-0.022998	0.988387
	O357	O	0.295365	0.544204	0.598912
	H358	H	0.295885	0.533666	0.589194
	H359	H	0.282794	0.528899	0.596672
	O360	O	0.423173	0.622606	0.597602
	H361	H	0.411792	0.621447	0.594926
	H362	H	0.417449	0.625585	0.593140
	O363	O	-0.025571	0.947057	1.121405
	H364	H	-0.010113	0.946637	1.138483
	H365	H	-0.024258	0.952496	1.121609
	O366	O	0.306866	0.681979	0.402898
	H367	H	0.318080	0.690823	0.413873
	H368	H	0.314870	0.693962	0.413404
	O369	O	0.123662	1.022922	0.146030
	H370	H	0.114533	1.030873	0.136182
	H371	H	0.126459	1.032116	0.141208
	O372	O	1.665773	0.399010	0.578252
	H373	H	1.665750	0.409577	0.569702
	H374	H	1.657274	0.398069	0.578073
	O375	O	0.886166	0.142978	-0.063159
	H376	H	0.879318	0.143176	-0.060316
	H377	H	0.874361	0.157547	-0.072310
	O378	O	1.302811	1.478944	-0.341970
	H379	H	1.298217	1.480935	-0.349664
	H380	H	1.318326	1.489616	-0.337558
	O381	O	0.873899	-0.050947	0.105113
	H382	H	0.871667	-0.050095	0.109112
	H383	H	0.876977	-0.047554	0.077465
	O384	O	0.913292	0.946282	0.120553
	H385	H	0.920793	0.942429	0.114964
	H386	H	0.919172	0.945245	0.123751
	O387	O	-0.094996	0.085530	0.013381
	H388	H	-0.099925	0.080502	0.008694
	H389	H	-0.100146	0.092707	0.012298
	O390	O	-0.034607	0.991906	0.096381
	H391	H	-0.033635	0.985011	0.081447
	H392	H	-0.035672	0.988269	0.095545
	O393	O	1.030338	1.074919	1.034496
	H394	H	1.031789	1.082583	1.042726
	H395	H	1.020869	1.081318	1.032779
	O396	O	0.679421	0.636275	0.631462
	H397	H	0.673251	0.630050	0.632624
	H398	H	0.669016	0.622637	0.628276
	O399	O	0.040783	0.965221	0.982465
	H400	H	0.051162	0.959544	0.984617
	H401	H	0.035455	0.966928	0.994756
	O402	O	0.651823	0.675982	0.611654
	H403	H	0.663454	0.674342	0.610991
	H404	H	0.662756	0.670126	0.611139
	O405	O	1.105010	0.921312	-0.072504
	H406	H	1.102260	0.932786	-0.080122
	H407	H	1.110279	0.922432	-0.079488
	O408	O	0.449678	1.524059	0.326743
	H409	H	0.441590	1.538591	0.315869
	H410	H	0.428986	1.533214	0.331524
	O411	O	0.513816	-0.573526	0.640121
	H412	H	0.514261	-0.579987	0.639862
	H413	H	0.509332	-0.561895	0.643225
	O414	O	0.518295	0.445239	0.543061
	H415	H	0.522902	0.451498	0.543579
	H416	H	0.503459	0.441951	0.540603
	O417	O	0.509586	0.512708	0.380653
	H418	H	0.519116	0.536045	0.360796
	H419	H	0.512918	0.498434	0.391495
