data_Molecule from HDF5

_cell_length_a		16.466469
_cell_length_b		16.296276
_cell_length_c		16.347909
_cell_angle_alpha	90.184897
_cell_angle_beta	90.075071
_cell_angle_gamma	90.192762
_symmetry_space_group_name_H-M	'P 1'
_symmetry_Int_Tables_number		1

loop_
	_symmetry_equiv_pos_as_xyz
	x,y,z

loop_
	_atom_site_label
	_atom_site_type_symbol
	_atom_site_fract_x
	_atom_site_fract_y
	_atom_site_fract_z
	H0	H	0.399559	0.834142	0.722763
	H1	H	0.605694	0.155769	0.728566
	H2	H	0.606951	0.835902	0.285744
	H3	H	0.395195	0.153546	0.284608
	H4	H	0.717860	0.391465	0.847687
	H5	H	0.721778	0.603194	0.166591
	H6	H	0.276656	0.599877	0.849167
	H7	H	0.276585	0.387429	0.166344
	H8	H	0.839549	0.712803	0.407848
	H9	H	0.158432	0.717642	0.615047
	H10	H	0.840885	0.273672	0.611155
	H11	H	0.157478	0.274022	0.401047
	H12	H	0.839970	0.391973	0.726543
	H13	H	0.158525	0.600330	0.730795
	H14	H	0.839473	0.600669	0.287412
	H15	H	0.154802	0.387314	0.282425
	H16	H	0.397169	0.711319	0.846328
	H17	H	0.604149	0.717428	0.166508
	H18	H	0.601790	0.276350	0.846635
	H19	H	0.395013	0.273285	0.167292
	H20	H	0.721473	0.837181	0.400955
	H21	H	0.721229	0.156636	0.611557
	H22	H	0.279369	0.836879	0.613285
	H23	H	0.278348	0.153741	0.399201
	H24	H	0.894222	0.333397	0.226525
	H25	H	0.104589	0.654012	0.230539
	H26	H	0.102949	0.335093	0.786638
	H27	H	0.898348	0.655214	0.792894
	H28	H	0.221352	0.888427	0.347736
	H29	H	0.220207	0.099577	0.667364
	H30	H	0.778179	0.104240	0.347874
	H31	H	0.781139	0.893965	0.666113
	H32	H	0.339819	0.212780	0.902189
	H33	H	0.658543	0.215428	0.109596
	H34	H	0.340332	0.773996	0.111727
	H35	H	0.657743	0.774878	0.903629
	H36	H	0.343214	0.887358	0.231111
	H37	H	0.658715	0.100410	0.227644
	H38	H	0.340751	0.096953	0.786326
	H39	H	0.658331	0.892717	0.788200
	H40	H	0.896307	0.215253	0.347147
	H41	H	0.101887	0.213297	0.668813
	H42	H	0.104117	0.773609	0.347572
	H43	H	0.899453	0.780591	0.668481
	H44	H	0.219503	0.335244	0.900334
	H45	H	0.222435	0.652929	0.116736
	H46	H	0.778459	0.334360	0.112177
	H47	H	0.782251	0.654183	0.907232
	H48	H	0.410612	0.110944	0.595655
	H49	H	0.590784	0.882970	0.591904
	H50	H	0.590113	0.110497	0.417642
	H51	H	0.411757	0.882845	0.425359
	H52	H	0.582693	0.407330	0.119438
	H53	H	0.594023	0.589753	0.890113
	H54	H	0.401611	0.582721	0.124434
	H55	H	0.408212	0.403429	0.893211
	H56	H	0.108520	0.583244	0.428134
	H57	H	0.886327	0.590795	0.593624
	H58	H	0.111623	0.404709	0.597294
	H59	H	0.889957	0.410107	0.424921
	H60	H	0.112376	0.407842	0.597091
	H61	H	0.887765	0.579297	0.602154
	H62	H	0.110284	0.575425	0.414729
	H63	H	0.884594	0.408485	0.412272
	H64	H	0.413709	0.574353	0.116733
	H65	H	0.594973	0.575963	0.894422
	H66	H	0.589202	0.398908	0.123786
	H67	H	0.407007	0.406652	0.893075
	H68	H	0.588492	0.109158	0.418786
	H69	H	0.595182	0.879458	0.596509
	H70	H	0.411549	0.110225	0.597020
	H71	H	0.407507	0.879519	0.418723
	H72	H	0.906826	0.612017	0.104041
	H73	H	0.090434	0.380747	0.091725
	H74	H	0.089292	0.609159	0.920506
	H75	H	0.908141	0.375367	0.907585
	H76	H	0.091706	0.910515	0.620265
	H77	H	0.085003	0.086915	0.393353
	H78	H	0.913531	0.081533	0.618912
	H79	H	0.912759	0.909009	0.393278
	H80	H	0.614538	0.082809	0.909829
	H81	H	0.388805	0.075830	0.098265
	H82	H	0.611427	0.906619	0.092413
	H83	H	0.384076	0.900543	0.914762
	H84	H	0.611897	0.908305	0.096340
	H85	H	0.383894	0.086202	0.100469
	H86	H	0.615508	0.093041	0.918780
	H87	H	0.385252	0.904115	0.916827
	H88	H	0.910858	0.087762	0.621855
	H89	H	0.095761	0.086213	0.390775
	H90	H	0.087778	0.907143	0.619843
	H91	H	0.912317	0.901346	0.391403
	H92	H	0.087273	0.608033	0.920181
	H93	H	0.084690	0.380413	0.099064
	H94	H	0.916392	0.606276	0.096828
	H95	H	0.914243	0.381320	0.922225
	H96	H	0.412158	0.109950	0.595945
	H97	H	0.588786	0.880994	0.599036
	H98	H	0.590379	0.110889	0.419380
	H99	H	0.416242	0.882371	0.417359
	H100	H	0.593854	0.409845	0.122236
	H101	H	0.582524	0.583080	0.896507
	H102	H	0.416559	0.590305	0.122335
	H103	H	0.410010	0.406022	0.894512
	H104	H	0.114971	0.590090	0.415464
	H105	H	0.882207	0.591900	0.607445
	H106	H	0.113272	0.406068	0.599496
	H107	H	0.884455	0.398402	0.420755
	H108	H	0.904352	0.608648	0.091519
	H109	H	0.081562	0.384350	0.090860
	H110	H	0.088468	0.608464	0.921790
	H111	H	0.897799	0.376063	0.921264
	H112	H	0.092110	0.905903	0.622034
	H113	H	0.090320	0.077558	0.395794
	H114	H	0.906497	0.081944	0.620998
	H115	H	0.906061	0.905919	0.390244
	H116	H	0.610459	0.081202	0.922372
	H117	H	0.388868	0.084106	0.090220
	H118	H	0.613603	0.903321	0.096098
	H119	H	0.383811	0.904807	0.912937
	C120	C	0.379768	0.004446	0.627736
	C121	C	0.622721	0.987305	0.628424
	C122	C	0.621852	0.004596	0.385939
	C123	C	0.379208	0.986417	0.386023
	C124	C	0.619849	0.373778	0.016245
	C125	C	0.621535	0.616145	0.999073
	C126	C	0.378166	0.614870	0.015801
	C127	C	0.376641	0.372502	0.998932
	C128	C	0.006654	0.615480	0.387465
	C129	C	0.990721	0.618742	0.632226
	C130	C	0.007861	0.373823	0.629502
	C131	C	0.990326	0.373103	0.386054
	C132	C	0.876799	0.503094	0.129379
	C133	C	0.119421	0.486186	0.129038
	C134	C	0.120158	0.503346	0.886849
	C135	C	0.877658	0.484684	0.887549
	C136	C	0.122276	0.874037	0.515772
	C137	C	0.121841	0.116357	0.498981
	C138	C	0.878960	0.116316	0.515121
	C139	C	0.879214	0.875094	0.497749
	C140	C	0.508273	0.116644	0.885048
	C141	C	0.491481	0.115651	0.128713
	C142	C	0.508327	0.872832	0.128480
	C143	C	0.489857	0.872674	0.884603
	C144	C	0.379477	0.883026	0.685180
	C145	C	0.624128	0.107811	0.688424
	C146	C	0.624439	0.884266	0.325610
	C147	C	0.376804	0.105828	0.324567
	C148	C	0.678482	0.372512	0.895728
	C149	C	0.681436	0.620108	0.118819
	C150	C	0.317517	0.617532	0.896371
	C151	C	0.317060	0.369721	0.119042
	C152	C	0.887273	0.674396	0.387376
	C153	C	0.110625	0.677876	0.633533
	C154	C	0.888209	0.313982	0.630221
	C155	C	0.109671	0.313501	0.382774
	C156	C	0.887905	0.372468	0.687781
	C157	C	0.110661	0.619388	0.691195
	C158	C	0.887380	0.618301	0.327652
	C159	C	0.108223	0.369917	0.323653
	C160	C	0.377184	0.673171	0.895006
	C161	C	0.623005	0.677260	0.118832
	C162	C	0.620349	0.315320	0.895111
	C163	C	0.376023	0.313015	0.119388
	C164	C	0.681755	0.884709	0.382764
	C165	C	0.681865	0.108378	0.630618
	C166	C	0.319830	0.884251	0.630596
	C167	C	0.318656	0.105972	0.381924
	C168	C	0.875632	0.382020	0.187737
	C169	C	0.122568	0.605913	0.190322
	C170	C	0.121859	0.383169	0.826025
	C171	C	0.878473	0.606520	0.830830
	C172	C	0.181717	0.870467	0.395685
	C173	C	0.180683	0.118240	0.619524
	C174	C	0.818705	0.120295	0.395456
	C175	C	0.820747	0.874808	0.618406
	C176	C	0.388096	0.174329	0.883302
	C177	C	0.610783	0.175804	0.129173
	C178	C	0.388794	0.812580	0.130974
	C179	C	0.610089	0.814497	0.884533
	C180	C	0.389984	0.869408	0.190180
	C181	C	0.610967	0.118509	0.188035
	C182	C	0.388415	0.116324	0.825741
	C183	C	0.610507	0.872795	0.826981
	C184	C	0.877612	0.175826	0.395079
	C185	C	0.121680	0.174823	0.620049
	C186	C	0.123142	0.813593	0.395639
	C187	C	0.879639	0.818460	0.619542
	C188	C	0.179450	0.383003	0.883058
	C189	C	0.181521	0.605327	0.133751
	C190	C	0.817794	0.382323	0.130795
	C191	C	0.821037	0.606116	0.888026
	C192	C	0.404214	0.088499	0.603055
	C193	C	0.598493	0.903193	0.603207
	C194	C	0.596897	0.088326	0.411420
	C195	C	0.404617	0.903064	0.412605
	C196	C	0.595612	0.398516	0.100193
	C197	C	0.597410	0.590483	0.915478
	C198	C	0.403332	0.589648	0.099330
	C199	C	0.401206	0.397975	0.915431
	C200	C	0.089698	0.590208	0.412323
	C201	C	0.907125	0.594358	0.608024
	C202	C	0.090732	0.398881	0.605131
	C203	C	0.907873	0.398282	0.412146
	C204	C	0.901785	0.587306	0.104643
	C205	C	0.093127	0.403344	0.101858
	C206	C	0.095474	0.586846	0.913252
	C207	C	0.900321	0.399783	0.910346
	C208	C	0.097757	0.900196	0.599003
	C209	C	0.097509	0.091026	0.415067
	C210	C	0.903300	0.091068	0.598893
	C211	C	0.903282	0.898577	0.413614
	C212	C	0.591796	0.092817	0.909737
	C213	C	0.408593	0.089448	0.103631
	C214	C	0.590754	0.898617	0.102493
	C215	C	0.406326	0.896312	0.907867
	Zn216	Zn	0.500173	-0.004785	0.755947
	Zn217	Zn	0.500851	-0.005874	0.258144
	Zn218	Zn	0.749249	0.493951	0.008261
	Zn219	Zn	0.248568	0.493743	0.007765
	Zn220	Zn	0.000150	0.745893	0.508002
	Zn221	Zn	-0.000615	0.244236	0.507339
	Zn222	Zn	-0.001188	0.494517	0.759663
	Zn223	Zn	-0.002170	0.494904	0.257582
	Zn224	Zn	0.499003	0.743665	0.006616
	Zn225	Zn	0.498551	0.244695	0.006833
	Zn226	Zn	0.750405	-0.003135	0.506105
	Zn227	Zn	0.251055	-0.004745	0.507246
	N228	N	0.416236	0.958778	0.683315
	N229	N	0.588036	0.031726	0.687123
	N230	N	0.587805	0.959846	0.327686
	N231	N	0.413616	0.030321	0.327153
	N232	N	0.678512	0.407882	0.972143
	N233	N	0.680531	0.582692	0.043290
	N234	N	0.317878	0.582199	0.972646
	N235	N	0.317196	0.405574	0.043024
	N236	N	0.962589	0.672904	0.423767
	N237	N	0.035089	0.677714	0.597626
	N238	N	0.963684	0.314519	0.594741
	N239	N	0.035496	0.315445	0.420994
	N240	N	0.963168	0.409009	0.687385
	N241	N	0.035006	0.583473	0.690649
	N242	N	0.962810	0.582542	0.327534
	N243	N	0.032939	0.405974	0.325400
	N244	N	0.414138	0.671749	0.970369
	N245	N	0.586245	0.674704	0.043579
	N246	N	0.584434	0.316145	0.970931
	N247	N	0.411958	0.314403	0.043545
	N248	N	0.680350	0.960476	0.419608
	N249	N	0.681173	0.032278	0.593881
	N250	N	0.319857	0.960714	0.595358
	N251	N	0.320122	0.030578	0.419455
	N252	N	0.911554	0.458285	0.186886
	N253	N	0.084838	0.530794	0.187458
	N254	N	0.085424	0.458910	0.828582
	N255	N	0.913016	0.529968	0.830457
	N256	N	0.181355	0.907143	0.471455
	N257	N	0.181186	0.082990	0.543061
	N258	N	0.819443	0.083970	0.471235
	N259	N	0.820068	0.909164	0.541616
	N260	N	0.463570	0.174741	0.919233
	N261	N	0.535363	0.174149	0.093214
	N262	N	0.463442	0.814428	0.093361
	N263	N	0.534230	0.813993	0.919467
	N264	N	0.465199	0.905839	0.188921
	N265	N	0.535789	0.081440	0.187642
	N266	N	0.464403	0.081465	0.826486
	N267	N	0.534864	0.908064	0.826728
	N268	N	0.914515	0.173185	0.470407
	N269	N	0.086167	0.173992	0.543795
	N270	N	0.086991	0.815645	0.471336
	N271	N	0.915335	0.818463	0.543663
	N272	N	0.178674	0.458788	0.920254
	N273	N	0.180040	0.529575	0.096497
	N274	N	0.818236	0.458808	0.095471
	N275	N	0.820123	0.529299	0.922373
	O276	O	0.312473	0.708851	0.483585
	H277	H	0.287626	0.737347	0.466607
	H278	H	0.324009	0.705962	0.446737
	O279	O	0.306231	0.649313	0.316773
	H280	H	0.329684	0.654776	0.300120
	H281	H	0.305538	0.603763	0.315075
	O282	O	0.417551	0.468201	0.366631
	H283	H	0.402342	0.467838	0.381194
	H284	H	0.437252	0.468158	0.358690
	O285	O	1.202750	0.809385	-0.012097
	H286	H	1.195506	0.806431	-0.027208
	H287	H	1.213558	0.793107	-0.007556
	O288	O	0.664669	0.311880	0.498876
	H289	H	0.657666	0.305290	0.511519
	H290	H	0.672245	0.322295	0.506288
	O291	O	0.344065	0.545832	0.540802
	H292	H	0.339391	0.534187	0.527550
	H293	H	0.353797	0.579587	0.527192
	O294	O	1.145782	1.128571	1.175893
	H295	H	1.135209	1.099286	1.177829
	H296	H	1.117374	1.123154	1.181673
	O297	O	0.713173	0.467096	0.296371
	H298	H	0.719951	0.444287	0.280001
	H299	H	0.721121	0.434766	0.286731
	O300	O	0.294060	0.448382	0.499061
	H301	H	0.287639	0.413879	0.510379
	H302	H	0.314535	0.457173	0.501497
	O303	O	0.313967	0.314106	0.696796
	H304	H	0.322344	0.335515	0.692686
	H305	H	0.329465	0.321934	0.704358
	O306	O	0.489830	0.523027	0.464621
	H307	H	0.478709	0.525589	0.478484
	H308	H	0.502697	0.543143	0.446694
	O309	O	0.955070	-0.088804	-0.049066
	H310	H	0.965305	-0.087853	-0.054396
	H311	H	0.950158	-0.084431	-0.061407
	O312	O	0.473864	0.701390	0.353176
	H313	H	0.485576	0.723700	0.334204
	H314	H	0.490449	0.689016	0.355010
	O315	O	0.701766	0.662505	0.709623
	H316	H	0.689454	0.667734	0.721286
	H317	H	0.709431	0.677183	0.736520
	O318	O	-0.099628	0.018102	-0.007000
	H319	H	-0.091611	0.030072	-0.014730
	H320	H	-0.096565	0.010104	-0.017635
	O321	O	0.704789	0.513246	0.496817
	H322	H	0.707822	0.547085	0.500245
	H323	H	0.711159	0.503367	0.481396
	O324	O	1.198352	0.053925	1.137971
	H325	H	1.203808	0.053529	1.141473
	H326	H	1.221026	0.062374	1.152325
	O327	O	0.520235	0.315893	0.301407
	H328	H	0.508993	0.312216	0.291649
	H329	H	0.505647	0.310067	0.317900
	O330	O	-0.150421	0.804613	1.002019
	H331	H	-0.153642	0.786639	0.995706
	H332	H	-0.136793	0.803810	1.016882
	O333	O	-0.395446	0.598953	-0.293660
	H334	H	-0.412064	0.602450	-0.287922
	H335	H	-0.398419	0.599638	-0.300698
	O336	O	1.070878	0.985034	0.084584
	H337	H	1.086911	0.992271	0.099543
	H338	H	1.072006	0.977775	0.097147
	O339	O	0.159104	0.993974	0.939472
	H340	H	0.160681	1.002754	0.933527
	H341	H	0.157256	1.001035	0.933020
	O342	O	0.321698	0.504064	0.702334
	H343	H	0.309314	0.516427	0.700897
	H344	H	0.306413	0.510757	0.679722
	O345	O	0.047374	0.101042	1.140241
	H346	H	0.057385	0.113738	1.144918
	H347	H	0.041980	0.099005	1.148690
	O348	O	0.709555	0.676021	0.524458
	H349	H	0.717874	0.682962	0.546262
	H350	H	0.714602	0.684377	0.540136
	O351	O	1.081866	0.986935	-0.149759
	H352	H	1.091743	0.995659	-0.153585
	H353	H	1.075706	0.991906	-0.154670
	O354	O	1.189368	0.839914	0.820025
	H355	H	1.193987	0.875440	0.823932
	H356	H	1.208939	0.831372	0.825337
	O357	O	0.038005	-0.133826	0.124689
	H358	H	0.046425	-0.132342	0.138238
	H359	H	0.023486	-0.158374	0.131076
	O360	O	0.478905	0.651545	0.542773
	H361	H	0.456338	0.653673	0.537154
	H362	H	0.500424	0.658992	0.543939
	O363	O	1.048821	-0.202664	-0.195299
	H364	H	1.054749	-0.224682	-0.219572
	H365	H	1.084455	-0.194236	-0.193889
	O366	O	-0.072354	0.151041	1.090182
	H367	H	-0.079528	0.141862	1.079633
	H368	H	-0.079906	0.164724	1.098420
	O369	O	0.888153	0.069961	1.003003
	H370	H	0.899417	0.068330	0.989723
	H371	H	0.884250	0.078160	0.996261
	O372	O	0.296703	0.275219	0.537548
	H373	H	0.278832	0.257289	0.555372
	H374	H	0.303704	0.265215	0.545943
	O375	O	-0.206150	-0.209501	0.806407
	H376	H	-0.189638	-0.198742	0.821908
	H377	H	-0.200880	-0.188652	0.825488
	O378	O	0.540944	0.685384	0.456580
	H379	H	0.547479	0.684145	0.451766
	H380	H	0.544782	0.672620	0.463424
	O381	O	0.087995	1.152433	-0.118611
	H382	H	0.095420	1.167025	-0.122751
	H383	H	0.087065	1.157388	-0.086332
	O384	O	0.467646	0.495226	0.675527
	H385	H	0.468142	0.505129	0.671900
	H386	H	0.482752	0.497504	0.652166
	O387	O	0.418432	0.295844	0.415539
	H388	H	0.417067	0.309427	0.432664
	H389	H	0.433893	0.298605	0.434510
	O390	O	0.938079	1.139071	-0.184191
	H391	H	0.945623	1.143076	-0.172189
	H392	H	0.938473	1.155288	-0.183796
	O393	O	0.942535	-0.202869	1.211343
	H394	H	0.938959	-0.216481	1.220874
	H395	H	0.905963	-0.204535	1.210854
	O396	O	0.496217	0.594756	0.711812
	H397	H	0.494365	0.613336	0.720188
	H398	H	0.490718	0.597970	0.708815
	O399	O	-0.148873	0.914471	0.189986
	H400	H	-0.167737	0.924089	0.199669
	H401	H	-0.148504	0.919820	0.164525
	O402	O	1.475858	1.298329	-0.283042
	H403	H	1.484352	1.288628	-0.269427
	H404	H	1.469614	1.313223	-0.277884
	O405	O	0.675690	0.312861	0.324118
	H406	H	0.667337	0.307690	0.356323
	H407	H	0.638383	0.300271	0.320406
	O408	O	0.590641	0.590401	0.324070
	H409	H	0.582303	0.576338	0.323197
	H410	H	0.609450	0.577271	0.335652
	O411	O	0.938244	1.088034	1.014453
	H412	H	0.945636	1.088574	1.010897
	H413	H	0.921745	1.075767	1.012107
	O414	O	0.537672	0.341157	0.572784
	H415	H	0.532636	0.349954	0.583285
	H416	H	0.526656	0.352521	0.599816
	O417	O	0.102835	0.903593	1.059728
	H418	H	0.103242	0.887260	1.045383
	H419	H	0.103485	0.908711	1.059635
	O420	O	-0.118617	0.995949	1.104667
	H421	H	-0.125288	0.984880	1.111454
	H422	H	-0.109833	1.010360	1.112982
	O423	O	-0.148692	1.003446	-0.114616
	H424	H	-0.142667	1.006559	-0.122103
	H425	H	-0.144577	1.012314	-0.109295
	O426	O	-0.136754	0.001456	0.935284
	H427	H	-0.132391	0.012806	0.936227
	H428	H	-0.126050	0.000584	0.945204
	O429	O	0.704959	0.415002	0.633692
	H430	H	0.719703	0.414556	0.633812
	H431	H	0.705729	0.443861	0.619053
	O432	O	0.499883	0.502629	0.499774
	H433	H	0.513882	0.491578	0.493431
	H434	H	0.500646	0.503754	0.498658
	O435	O	-0.071855	0.169949	-0.036367
	H436	H	-0.086688	0.169291	-0.021174
	H437	H	-0.057935	0.159927	-0.046859
	O438	O	0.152582	1.188431	1.053895
	H439	H	0.145618	1.173974	1.085286
	H440	H	0.167877	1.209862	1.068407
	O441	O	0.319694	0.505695	0.337177
	H442	H	0.313652	0.502512	0.314595
	H443	H	0.330982	0.492380	0.365352
