data_Molecule from HDF5

_cell_length_a		16.074944
_cell_length_b		16.156067
_cell_length_c		16.524347
_cell_angle_alpha	89.430619
_cell_angle_beta	89.185702
_cell_angle_gamma	90.283695
_symmetry_space_group_name_H-M	'P 1'
_symmetry_Int_Tables_number		1

loop_
	_symmetry_equiv_pos_as_xyz
	x,y,z

loop_
	_atom_site_label
	_atom_site_type_symbol
	_atom_site_fract_x
	_atom_site_fract_y
	_atom_site_fract_z
	H0	H	0.391495	0.844421	0.717139
	H1	H	0.607462	0.166572	0.710409
	H2	H	0.606565	0.840633	0.276211
	H3	H	0.400078	0.166906	0.272694
	H4	H	0.718669	0.407189	0.832551
	H5	H	0.715381	0.603296	0.154539
	H6	H	0.286100	0.606804	0.831660
	H7	H	0.277811	0.401326	0.152698
	H8	H	0.835082	0.719394	0.397497
	H9	H	0.164951	0.716722	0.588566
	H10	H	0.833833	0.289195	0.593538
	H11	H	0.165679	0.296189	0.394396
	H12	H	0.835333	0.397630	0.714618
	H13	H	0.161060	0.609391	0.708584
	H14	H	0.835575	0.610998	0.277011
	H15	H	0.160933	0.402584	0.271491
	H16	H	0.398310	0.725570	0.834487
	H17	H	0.598321	0.720300	0.154396
	H18	H	0.603737	0.287665	0.833388
	H19	H	0.394708	0.284603	0.154143
	H20	H	0.713602	0.839306	0.398632
	H21	H	0.711088	0.170947	0.583300
	H22	H	0.284087	0.841888	0.595101
	H23	H	0.294030	0.172641	0.396957
	H24	H	0.889003	0.344128	0.217277
	H25	H	0.104049	0.667372	0.209105
	H26	H	0.103826	0.343079	0.772772
	H27	H	0.892505	0.664942	0.771724
	H28	H	0.220559	0.909759	0.332828
	H29	H	0.215923	0.106725	0.654413
	H30	H	0.787596	0.105777	0.330904
	H31	H	0.780761	0.902779	0.653810
	H32	H	0.335007	0.218156	0.898112
	H33	H	0.664228	0.218567	0.090351
	H34	H	0.333700	0.787297	0.098227
	H35	H	0.664369	0.792640	0.894990
	H36	H	0.338424	0.895614	0.218798
	H37	H	0.665343	0.104086	0.204235
	H38	H	0.339567	0.112496	0.773560
	H39	H	0.662784	0.900037	0.773166
	H40	H	0.899419	0.225599	0.332728
	H41	H	0.097569	0.222161	0.653781
	H42	H	0.106043	0.788202	0.333021
	H43	H	0.894720	0.784347	0.653353
	H44	H	0.212660	0.339942	0.895085
	H45	H	0.213680	0.668882	0.087591
	H46	H	0.783811	0.340442	0.093736
	H47	H	0.788567	0.669626	0.895877
	H48	H	0.419394	0.119146	0.581530
	H49	H	0.590976	0.888753	0.580253
	H50	H	0.591849	0.122346	0.391503
	H51	H	0.414491	0.890222	0.407315
	H52	H	0.584374	0.414910	0.104923
	H53	H	0.584080	0.598118	0.882872
	H54	H	0.401361	0.598566	0.110492
	H55	H	0.406510	0.407121	0.876833
	H56	H	0.121068	0.602226	0.392836
	H57	H	0.885292	0.586833	0.582728
	H58	H	0.115851	0.422903	0.588318
	H59	H	0.880978	0.411046	0.408593
	H60	H	0.118250	0.408927	0.589000
	H61	H	0.878286	0.593209	0.593868
	H62	H	0.113875	0.594621	0.407241
	H63	H	0.883925	0.422256	0.405153
	H64	H	0.402707	0.587103	0.106483
	H65	H	0.598202	0.607586	0.875915
	H66	H	0.589207	0.403421	0.110232
	H67	H	0.406500	0.417336	0.879869
	H68	H	0.590883	0.119592	0.398903
	H69	H	0.592650	0.885122	0.591437
	H70	H	0.404763	0.123517	0.582811
	H71	H	0.408656	0.888848	0.405682
	H72	H	0.903692	0.623538	0.083767
	H73	H	0.079708	0.392942	0.078416
	H74	H	0.089514	0.620846	0.897595
	H75	H	0.902738	0.385263	0.905274
	H76	H	0.086690	0.912304	0.604959
	H77	H	0.099199	0.104652	0.376540
	H78	H	0.899991	0.086522	0.606055
	H79	H	0.901206	0.909527	0.375349
	H80	H	0.617168	0.093333	0.898794
	H81	H	0.382604	0.091378	0.087729
	H82	H	0.612863	0.916745	0.076391
	H83	H	0.383119	0.914290	0.906223
	H84	H	0.618755	0.917858	0.094983
	H85	H	0.381371	0.091197	0.088380
	H86	H	0.617490	0.096374	0.900878
	H87	H	0.383781	0.918775	0.907147
	H88	H	0.917087	0.097523	0.603645
	H89	H	0.098965	0.097260	0.379744
	H90	H	0.091138	0.906886	0.608724
	H91	H	0.910229	0.922328	0.381919
	H92	H	0.090443	0.621631	0.898104
	H93	H	0.092879	0.386891	0.082332
	H94	H	0.911041	0.623450	0.091525
	H95	H	0.913156	0.385312	0.894884
	H96	H	0.413863	0.123838	0.594890
	H97	H	0.582222	0.889075	0.588481
	H98	H	0.597781	0.122081	0.396199
	H99	H	0.412762	0.888150	0.401525
	H100	H	0.597509	0.414428	0.108761
	H101	H	0.599973	0.591372	0.879798
	H102	H	0.412256	0.595555	0.106521
	H103	H	0.415421	0.411570	0.880358
	H104	H	0.115722	0.585676	0.393264
	H105	H	0.880527	0.600806	0.581701
	H106	H	0.114011	0.414713	0.576482
	H107	H	0.879050	0.414334	0.398016
	H108	H	0.913600	0.619408	0.082093
	H109	H	0.081609	0.386782	0.093027
	H110	H	0.090301	0.621106	0.896876
	H111	H	0.916391	0.391416	0.907707
	H112	H	0.094115	0.913921	0.607954
	H113	H	0.092240	0.101581	0.379835
	H114	H	0.900432	0.106144	0.611625
	H115	H	0.918232	0.906899	0.379323
	H116	H	0.617062	0.092948	0.901844
	H117	H	0.382003	0.091989	0.088803
	H118	H	0.620718	0.901064	0.084386
	H119	H	0.382653	0.917357	0.903515
	C120	C	0.379640	0.014654	0.617309
	C121	C	0.620152	0.995835	0.613667
	C122	C	0.623630	0.012713	0.369048
	C123	C	0.382153	0.997075	0.373590
	C124	C	0.622070	0.381921	0.002236
	C125	C	0.622669	0.627510	0.985619
	C126	C	0.376916	0.625778	0.001712
	C127	C	0.376831	0.381029	0.984670
	C128	C	0.008258	0.625907	0.370782
	C129	C	0.989952	0.624248	0.613509
	C130	C	0.007395	0.383957	0.614991
	C131	C	0.989826	0.385931	0.372755
	C132	C	0.876935	0.514104	0.116645
	C133	C	0.117929	0.496525	0.112917
	C134	C	0.120746	0.513420	0.869117
	C135	C	0.879586	0.495290	0.872529
	C136	C	0.123064	0.882791	0.501790
	C137	C	0.123783	0.129725	0.484982
	C138	C	0.878200	0.127050	0.500700
	C139	C	0.877960	0.882110	0.485108
	C140	C	0.509336	0.125764	0.871958
	C141	C	0.491284	0.122282	0.114720
	C142	C	0.508687	0.880696	0.117163
	C143	C	0.491096	0.885327	0.874010
	C144	C	0.374988	0.892480	0.676824
	C145	C	0.623737	0.118559	0.670034
	C146	C	0.623825	0.889326	0.315129
	C147	C	0.382273	0.118996	0.313739
	C148	C	0.680142	0.385552	0.880810
	C149	C	0.677496	0.624213	0.106438
	C150	C	0.322956	0.626278	0.880402
	C151	C	0.316804	0.380848	0.104886
	C152	C	0.884629	0.682661	0.375494
	C153	C	0.114737	0.680046	0.609904
	C154	C	0.883310	0.326879	0.614041
	C155	C	0.115137	0.331777	0.373525
	C156	C	0.884291	0.380824	0.674266
	C157	C	0.112874	0.626406	0.669604
	C158	C	0.884845	0.628417	0.315664
	C159	C	0.112914	0.384569	0.312428
	C160	C	0.378949	0.685453	0.881670
	C161	C	0.619065	0.682231	0.106458
	C162	C	0.623041	0.325918	0.881417
	C163	C	0.375098	0.323038	0.105599
	C164	C	0.677748	0.888630	0.375417
	C165	C	0.675540	0.120690	0.607030
	C166	C	0.321445	0.891334	0.616168
	C167	C	0.328732	0.121827	0.375340
	C168	C	0.872877	0.392258	0.176565
	C169	C	0.121230	0.618802	0.169574
	C170	C	0.121957	0.391234	0.812393
	C171	C	0.876304	0.617206	0.812682
	C172	C	0.181702	0.887440	0.380818
	C173	C	0.178258	0.127116	0.606071
	C174	C	0.824370	0.125832	0.379418
	C175	C	0.819454	0.882636	0.605497
	C176	C	0.385135	0.181576	0.875993
	C177	C	0.615259	0.179854	0.110887
	C178	C	0.384162	0.824283	0.117667
	C179	C	0.614850	0.829048	0.874462
	C180	C	0.386632	0.878276	0.177890
	C181	C	0.615779	0.122931	0.167491
	C182	C	0.387367	0.128795	0.814307
	C183	C	0.613834	0.882835	0.813742
	C184	C	0.880644	0.185249	0.380188
	C185	C	0.119521	0.184987	0.605627
	C186	C	0.124640	0.827009	0.381071
	C187	C	0.876370	0.823694	0.605472
	C188	C	0.176329	0.389731	0.872955
	C189	C	0.175934	0.619584	0.109084
	C190	C	0.820461	0.390401	0.114911
	C191	C	0.824692	0.619568	0.874683
	C192	C	0.405190	0.099736	0.593474
	C193	C	0.595628	0.909993	0.592917
	C194	C	0.600535	0.099038	0.389469
	C195	C	0.405254	0.911452	0.397868
	C196	C	0.597673	0.404167	0.086141
	C197	C	0.600721	0.605506	0.901386
	C198	C	0.398918	0.600952	0.085972
	C199	C	0.402016	0.405052	0.900871
	C200	C	0.094504	0.601465	0.391614
	C201	C	0.903593	0.600427	0.592229
	C202	C	0.093601	0.408466	0.591438
	C203	C	0.903863	0.408907	0.396863
	C204	C	0.902218	0.600129	0.092860
	C205	C	0.092090	0.410936	0.090857
	C206	C	0.097083	0.598950	0.891210
	C207	C	0.903727	0.409625	0.895905
	C208	C	0.097936	0.904714	0.585611
	C209	C	0.102972	0.107727	0.400565
	C210	C	0.899647	0.103533	0.585220
	C211	C	0.902845	0.906042	0.400696
	C212	C	0.595008	0.101339	0.894073
	C213	C	0.404531	0.098448	0.094328
	C214	C	0.595041	0.904950	0.092439
	C215	C	0.405373	0.909762	0.898630
	Zn216	Zn	0.500803	0.005029	0.744611
	Zn217	Zn	0.502058	0.003167	0.242923
	Zn218	Zn	0.752537	0.504943	-0.006687
	Zn219	Zn	0.247694	0.504041	-0.008241
	Zn220	Zn	0.000287	0.752308	0.493617
	Zn221	Zn	-0.000380	0.257958	0.492706
	Zn222	Zn	-0.002154	0.504644	0.742046
	Zn223	Zn	-0.002008	0.505324	0.243488
	Zn224	Zn	0.498329	0.755879	-0.006150
	Zn225	Zn	0.499803	0.251783	-0.005253
	Zn226	Zn	0.748973	0.004725	0.492116
	Zn227	Zn	0.253196	0.006810	0.494749
	N228	N	0.410546	0.969944	0.677464
	N229	N	0.589840	0.040257	0.674130
	N230	N	0.590856	0.967484	0.311191
	N231	N	0.414478	0.040244	0.312532
	N232	N	0.680019	0.419329	0.956895
	N233	N	0.680085	0.591215	0.030175
	N234	N	0.321553	0.589976	0.956164
	N235	N	0.317760	0.416211	0.028744
	N236	N	0.962360	0.681231	0.409221
	N237	N	0.037333	0.678825	0.575816
	N238	N	0.960774	0.328604	0.577830
	N239	N	0.037656	0.332299	0.410279
	N240	N	0.962640	0.415516	0.675033
	N241	N	0.034173	0.592529	0.672199
	N242	N	0.962864	0.593939	0.312532
	N243	N	0.034109	0.417277	0.311724
	N244	N	0.411437	0.685418	0.958263
	N245	N	0.585945	0.684647	0.030167
	N246	N	0.587804	0.323494	0.957752
	N247	N	0.411748	0.322888	0.029868
	N248	N	0.677760	0.966369	0.408163
	N249	N	0.673589	0.043381	0.572621
	N250	N	0.323822	0.968442	0.579930
	N251	N	0.328527	0.044958	0.412049
	N252	N	0.907047	0.470587	0.177885
	N253	N	0.085569	0.541235	0.171893
	N254	N	0.088297	0.469300	0.809522
	N255	N	0.909569	0.538949	0.811272
	N256	N	0.181155	0.921085	0.456893
	N257	N	0.181251	0.093686	0.529992
	N258	N	0.822876	0.090187	0.455291
	N259	N	0.820501	0.918429	0.529634
	N260	N	0.462144	0.179918	0.911124
	N261	N	0.536904	0.179661	0.078654
	N262	N	0.461352	0.825589	0.080630
	N263	N	0.537601	0.830505	0.911408
	N264	N	0.465170	0.912391	0.177740
	N265	N	0.537690	0.087719	0.169879
	N266	N	0.465600	0.095049	0.811652
	N267	N	0.535857	0.917463	0.813724
	N268	N	0.913146	0.186316	0.456705
	N269	N	0.086787	0.186904	0.529323
	N270	N	0.088894	0.824046	0.457160
	N271	N	0.912200	0.823387	0.529437
	N272	N	0.175658	0.466708	0.907420
	N273	N	0.173838	0.542514	0.074528
	N274	N	0.822854	0.467254	0.078499
	N275	N	0.826637	0.542743	0.911293
	O276	O	-0.027041	-0.026027	-0.090354
	H277	H	-0.013952	-0.015303	-0.104769
	H278	H	-0.035516	-0.034422	-0.095705
	O279	O	0.543510	0.503472	0.590810
	H280	H	0.544247	0.509149	0.588011
	H281	H	0.541957	0.494640	0.598653
	O282	O	1.046825	-0.105747	0.134506
	H283	H	1.028671	-0.110779	0.130821
	H284	H	1.043743	-0.111872	0.152857
	O285	O	0.011771	0.924194	-0.151229
	H286	H	0.011558	0.930352	-0.144113
	H287	H	0.033355	0.930680	-0.152407
	O288	O	0.531334	0.611515	0.596411
	H289	H	0.526031	0.617618	0.596428
	H290	H	0.536392	0.614385	0.586887
	O291	O	0.565392	0.436786	0.607255
	H292	H	0.566684	0.419387	0.604029
	H293	H	0.567449	0.444827	0.612071
	O294	O	1.069731	0.894921	1.113080
	H295	H	1.062790	0.901277	1.110839
	H296	H	1.049888	0.897975	1.119491
	O297	O	-0.002881	-0.054248	0.067841
	H298	H	0.007285	-0.068549	0.068591
	H299	H	-0.000478	-0.042257	0.064600
	O300	O	0.396607	0.346138	0.601207
	H301	H	0.392082	0.352083	0.602189
	H302	H	0.394836	0.350841	0.615506
	O303	O	-0.016786	1.101804	0.958519
	H304	H	-0.025960	1.100088	0.958347
	H305	H	-0.026610	1.097567	0.967205
	O306	O	0.465521	0.640963	0.380072
	H307	H	0.462275	0.634505	0.392911
	H308	H	0.462627	0.657007	0.368541
	O309	O	0.979185	-0.143249	0.105897
	H310	H	0.973843	-0.154410	0.109201
	H311	H	0.974602	-0.141520	0.081205
	O312	O	-0.034981	0.086493	0.969291
	H313	H	-0.029581	0.093552	0.984663
	H314	H	-0.040865	0.098837	0.958384
	O315	O	0.390225	0.447878	0.473836
	H316	H	0.398476	0.457546	0.478725
	H317	H	0.386249	0.439236	0.477531
	O318	O	0.357034	0.587163	0.402735
	H319	H	0.348627	0.605215	0.394159
	H320	H	0.362799	0.591517	0.393227
	O321	O	0.640651	0.593736	0.448176
	H322	H	0.652749	0.589032	0.436650
	H323	H	0.643769	0.595143	0.425579
	O324	O	0.487194	0.549219	0.584697
	H325	H	0.485844	0.543655	0.574826
	H326	H	0.503239	0.547546	0.581130
	O327	O	-0.132859	1.026761	1.067779
	H328	H	-0.125938	1.035892	1.077926
	H329	H	-0.138098	1.019926	1.071569
	O330	O	0.555756	0.452049	0.501389
	H331	H	0.565185	0.455002	0.505981
	H332	H	0.562096	0.451134	0.517635
	O333	O	-0.095431	0.972069	1.194152
	H334	H	-0.100359	0.956398	1.194979
	H335	H	-0.098622	0.957946	1.192658
	O336	O	1.094272	0.940259	0.981698
	H337	H	1.086182	0.934174	0.985705
	H338	H	1.097499	0.935699	0.996379
	O339	O	0.580028	0.496183	0.325882
	H340	H	0.583245	0.501789	0.332067
	H341	H	0.552484	0.485628	0.339355
	O342	O	0.994269	0.057825	-0.088811
	H343	H	0.998106	0.052508	-0.080604
	H344	H	0.998536	0.058282	-0.093654
	O345	O	0.565899	0.365934	0.347093
	H346	H	0.567150	0.347222	0.339968
	H347	H	0.557345	0.364517	0.359933
	O348	O	1.079439	1.110748	0.907841
	H349	H	1.091042	1.094202	0.909727
	H350	H	1.058066	1.110802	0.918994
	O351	O	1.051500	1.002885	0.010647
	H352	H	1.047064	1.003328	0.019238
	H353	H	1.060364	1.008834	0.006111
	O354	O	0.503710	0.488179	0.489984
	H355	H	0.500112	0.476907	0.505073
	H356	H	0.511488	0.501662	0.505454
	O357	O	0.470235	0.358125	0.490388
	H358	H	0.446461	0.344442	0.483774
	H359	H	0.475306	0.351120	0.496256
	O360	O	-0.035457	0.029468	0.086787
	H361	H	-0.046261	0.021855	0.075350
	H362	H	-0.047558	0.017942	0.109099
	O363	O	0.494774	0.529314	0.424140
	H364	H	0.489164	0.531786	0.417529
	H365	H	0.504525	0.517055	0.417966
	O366	O	0.156733	0.065261	1.030289
	H367	H	0.152228	0.058420	1.017518
	H368	H	0.168911	0.065070	1.030523
	O369	O	0.441926	0.581382	0.411005
	H370	H	0.450993	0.573085	0.409333
	H371	H	0.447568	0.574950	0.417862
	O372	O	0.401915	0.406252	0.577312
	H373	H	0.408111	0.398301	0.594705
	H374	H	0.386519	0.399765	0.591099
	O375	O	0.443229	0.452808	0.483048
	H376	H	0.431185	0.452011	0.485304
	H377	H	0.441273	0.450987	0.487695
	O378	O	0.454115	0.597113	0.418824
	H379	H	0.459045	0.607755	0.408666
	H380	H	0.438364	0.597670	0.429594
	O381	O	0.432334	0.393544	0.633107
	H382	H	0.426495	0.406760	0.619714
	H383	H	0.425361	0.381059	0.642824
	O384	O	0.052921	0.964398	-0.156878
	H385	H	0.043602	0.964382	-0.162247
	H386	H	0.056126	0.967532	-0.156031
	O387	O	1.091411	0.029031	0.991606
	H388	H	1.106789	0.022255	0.995311
	H389	H	1.083651	0.024645	0.999475
	O390	O	0.010115	0.997470	0.058312
	H391	H	0.012922	0.974971	0.059333
	H392	H	0.016952	1.017949	0.078890
	O393	O	0.925357	0.902471	-0.140904
	H394	H	0.924003	0.889873	-0.145137
	H395	H	0.924120	0.900522	-0.132273
	O396	O	0.846352	0.181074	0.889751
	H397	H	0.849420	0.197587	0.874338
	H398	H	0.839508	0.190816	0.895445
	O399	O	-0.104195	0.937135	1.057783
	H400	H	-0.104368	0.935530	1.050880
	H401	H	-0.100287	0.934342	1.047283
	O402	O	0.979715	1.030702	0.816289
	H403	H	0.987193	1.027661	0.828093
	H404	H	0.998028	1.030629	0.806964
	O405	O	0.608920	0.597069	0.494284
	H406	H	0.610722	0.602585	0.489398
	H407	H	0.611378	0.585534	0.479291
