data_Molecule from HDF5

_cell_length_a		16.272743
_cell_length_b		16.254795
_cell_length_c		16.079596
_cell_angle_alpha	89.738274
_cell_angle_beta	89.645704
_cell_angle_gamma	90.100866
_symmetry_space_group_name_H-M	'P 1'
_symmetry_Int_Tables_number		1

loop_
	_symmetry_equiv_pos_as_xyz
	x,y,z

loop_
	_atom_site_label
	_atom_site_type_symbol
	_atom_site_fract_x
	_atom_site_fract_y
	_atom_site_fract_z
	H0	H	0.409476	0.836269	0.710185
	H1	H	0.606288	0.165432	0.705153
	H2	H	0.607344	0.835732	0.281255
	H3	H	0.413477	0.165798	0.282355
	H4	H	0.723223	0.403031	0.829342
	H5	H	0.722513	0.599001	0.159861
	H6	H	0.296947	0.600258	0.829422
	H7	H	0.292767	0.400507	0.160252
	H8	H	0.845610	0.717171	0.394638
	H9	H	0.171473	0.715880	0.594055
	H10	H	0.845289	0.285205	0.594680
	H11	H	0.171249	0.285374	0.393799
	H12	H	0.844175	0.402109	0.708568
	H13	H	0.173081	0.597350	0.705143
	H14	H	0.843631	0.598546	0.281983
	H15	H	0.171602	0.402575	0.279958
	H16	H	0.410396	0.715118	0.829554
	H17	H	0.606881	0.714211	0.160046
	H18	H	0.607610	0.289401	0.829269
	H19	H	0.409004	0.286116	0.160543
	H20	H	0.725684	0.836897	0.394858
	H21	H	0.724079	0.163941	0.592106
	H22	H	0.292235	0.837506	0.597545
	H23	H	0.293493	0.163917	0.393374
	H24	H	0.909229	0.335912	0.209713
	H25	H	0.105053	0.664956	0.206376
	H26	H	0.105736	0.335519	0.782402
	H27	H	0.912654	0.664472	0.780626
	H28	H	0.225762	0.900642	0.330618
	H29	H	0.222192	0.098989	0.660379
	H30	H	0.797277	0.099062	0.329527
	H31	H	0.792597	0.899147	0.659986
	H32	H	0.345733	0.217880	0.893789
	H33	H	0.671604	0.216633	0.093377
	H34	H	0.344426	0.785541	0.095409
	H35	H	0.671444	0.786411	0.894014
	H36	H	0.344150	0.902874	0.209920
	H37	H	0.674129	0.096611	0.204213
	H38	H	0.344080	0.098136	0.782171
	H39	H	0.672710	0.904669	0.781381
	H40	H	0.911206	0.214036	0.329790
	H41	H	0.106199	0.213451	0.660081
	H42	H	0.108126	0.788091	0.329513
	H43	H	0.907977	0.785209	0.660143
	H44	H	0.225635	0.337334	0.895032
	H45	H	0.222797	0.664935	0.093228
	H46	H	0.791880	0.337570	0.096973
	H47	H	0.795125	0.663698	0.893658
	H48	H	0.416018	0.119898	0.594110
	H49	H	0.599389	0.882806	0.592987
	H50	H	0.603815	0.117229	0.401633
	H51	H	0.422201	0.883420	0.396557
	H52	H	0.602462	0.407217	0.114204
	H53	H	0.601714	0.592943	0.877525
	H54	H	0.408983	0.593591	0.115936
	H55	H	0.415582	0.412862	0.877221
	H56	H	0.127294	0.595265	0.394154
	H57	H	0.894374	0.591260	0.579889
	H58	H	0.122678	0.417931	0.589101
	H59	H	0.891012	0.401581	0.408978
	H60	H	0.130456	0.398851	0.596898
	H61	H	0.890962	0.587799	0.593974
	H62	H	0.125569	0.600703	0.404647
	H63	H	0.893670	0.414437	0.404576
	H64	H	0.416932	0.587729	0.111152
	H65	H	0.602057	0.597478	0.874789
	H66	H	0.600759	0.409128	0.113647
	H67	H	0.421383	0.410005	0.878785
	H68	H	0.606859	0.118048	0.400197
	H69	H	0.598815	0.884957	0.583487
	H70	H	0.421902	0.115046	0.583172
	H71	H	0.419679	0.887804	0.411682
	H72	H	0.914699	0.619379	0.094670
	H73	H	0.090882	0.387155	0.083190
	H74	H	0.107469	0.620215	0.895862
	H75	H	0.927400	0.386874	0.904366
	H76	H	0.107300	0.906137	0.616017
	H77	H	0.104201	0.091310	0.377010
	H78	H	0.917209	0.106325	0.618152
	H79	H	0.916841	0.904122	0.374492
	H80	H	0.625462	0.095129	0.898614
	H81	H	0.392149	0.094924	0.084442
	H82	H	0.625156	0.903359	0.080936
	H83	H	0.390677	0.906963	0.902403
	H84	H	0.623444	0.912671	0.086858
	H85	H	0.391866	0.090643	0.088977
	H86	H	0.626354	0.097905	0.900223
	H87	H	0.391132	0.907279	0.904042
	H88	H	0.901774	0.086329	0.616794
	H89	H	0.100002	0.095151	0.376276
	H90	H	0.099329	0.913063	0.611590
	H91	H	0.913311	0.912692	0.376610
	H92	H	0.098324	0.616939	0.898924
	H93	H	0.110605	0.383722	0.079032
	H94	H	0.922085	0.614584	0.083913
	H95	H	0.906733	0.382376	0.912773
	H96	H	0.409108	0.117819	0.583384
	H97	H	0.607568	0.881059	0.587030
	H98	H	0.603329	0.117896	0.398270
	H99	H	0.408042	0.881032	0.403299
	H100	H	0.599352	0.406673	0.113001
	H101	H	0.606311	0.593847	0.874833
	H102	H	0.419526	0.597467	0.113860
	H103	H	0.416168	0.406538	0.875379
	H104	H	0.122156	0.588716	0.403379
	H105	H	0.888059	0.601358	0.589245
	H106	H	0.125036	0.400739	0.576581
	H107	H	0.888208	0.405012	0.396069
	H108	H	0.907972	0.618115	0.082452
	H109	H	0.103515	0.379802	0.097822
	H110	H	0.105618	0.616514	0.904849
	H111	H	0.911402	0.378433	0.890705
	H112	H	0.096818	0.901643	0.613767
	H113	H	0.105772	0.095715	0.374416
	H114	H	0.926472	0.084658	0.607860
	H115	H	0.922674	0.910150	0.378890
	H116	H	0.624977	0.095671	0.901963
	H117	H	0.390092	0.096780	0.090881
	H118	H	0.627573	0.904116	0.092048
	H119	H	0.391647	0.909194	0.903086
	C120	C	0.386720	0.009358	0.616911
	C121	C	0.630100	0.991672	0.615423
	C122	C	0.632533	0.009212	0.371964
	C123	C	0.388282	0.992308	0.373964
	C124	C	0.629966	0.379736	0.003927
	C125	C	0.630534	0.622700	0.985739
	C126	C	0.387744	0.621481	0.003802
	C127	C	0.387564	0.379964	0.986378
	C128	C	0.016858	0.623257	0.372456
	C129	C	0.999818	0.621908	0.615687
	C130	C	0.017348	0.377704	0.616703
	C131	C	0.998998	0.378328	0.373200
	C132	C	0.886354	0.508922	0.116799
	C133	C	0.130199	0.491891	0.115474
	C134	C	0.131852	0.509387	0.872028
	C135	C	0.887374	0.491291	0.873341
	C136	C	0.130329	0.879262	0.503846
	C137	C	0.130449	0.121842	0.485814
	C138	C	0.887910	0.120871	0.504338
	C139	C	0.887871	0.879464	0.486340
	C140	C	0.517017	0.124028	0.871974
	C141	C	0.500010	0.122054	0.115617
	C142	C	0.517234	0.877911	0.116740
	C143	C	0.499461	0.879476	0.873592
	C144	C	0.389040	0.885671	0.672731
	C145	C	0.627269	0.115847	0.668908
	C146	C	0.628336	0.884997	0.318359
	C147	C	0.392197	0.116259	0.318997
	C148	C	0.685097	0.383014	0.878864
	C149	C	0.684830	0.619626	0.110403
	C150	C	0.333693	0.620177	0.879003
	C151	C	0.331204	0.380991	0.110787
	C152	C	0.894139	0.678995	0.374522
	C153	C	0.122806	0.677483	0.613468
	C154	C	0.894060	0.322991	0.614863
	C155	C	0.122401	0.323396	0.374169
	C156	C	0.893597	0.381178	0.671517
	C157	C	0.123623	0.618434	0.668940
	C158	C	0.893319	0.620137	0.318182
	C159	C	0.122621	0.381765	0.317561
	C160	C	0.390122	0.677315	0.879009
	C161	C	0.627338	0.676909	0.110451
	C162	C	0.627648	0.326523	0.878823
	C163	C	0.388716	0.324001	0.111026
	C164	C	0.687146	0.885474	0.374716
	C165	C	0.685863	0.115147	0.612753
	C166	C	0.330544	0.886150	0.616813
	C167	C	0.332638	0.115414	0.374595
	C168	C	0.889039	0.385418	0.172319
	C169	C	0.126596	0.616001	0.169395
	C170	C	0.127218	0.384871	0.819215
	C171	C	0.891618	0.615309	0.818433
	C172	C	0.186771	0.881450	0.379543
	C173	C	0.184428	0.119130	0.610982
	C174	C	0.834378	0.119098	0.379075
	C175	C	0.831178	0.879982	0.610623
	C176	C	0.394250	0.179326	0.874201
	C177	C	0.623168	0.177853	0.113082
	C178	C	0.393457	0.823210	0.115719
	C179	C	0.622691	0.824431	0.874732
	C180	C	0.393375	0.881413	0.172623
	C181	C	0.624274	0.118304	0.168294
	C182	C	0.393463	0.119804	0.818520
	C183	C	0.623521	0.883169	0.818692
	C184	C	0.890718	0.176282	0.379245
	C185	C	0.126702	0.175727	0.610863
	C186	C	0.128433	0.825285	0.379206
	C187	C	0.888576	0.823427	0.610807
	C188	C	0.187067	0.385934	0.874833
	C189	C	0.184934	0.615732	0.112905
	C190	C	0.830436	0.386117	0.116161
	C191	C	0.832575	0.614762	0.874049
	C192	C	0.409144	0.095244	0.593702
	C193	C	0.608416	0.905403	0.594043
	C194	C	0.611187	0.095422	0.393581
	C195	C	0.410268	0.906239	0.397024
	C196	C	0.607696	0.401189	0.091072
	C197	C	0.609561	0.601184	0.898384
	C198	C	0.408972	0.599376	0.091058
	C199	C	0.410944	0.403068	0.899397
	C200	C	0.102894	0.601347	0.394290
	C201	C	0.913497	0.599905	0.594166
	C202	C	0.103734	0.399292	0.594195
	C203	C	0.913109	0.400473	0.396421
	C204	C	0.908477	0.595226	0.093933
	C205	C	0.108218	0.405791	0.093332
	C206	C	0.110166	0.595544	0.893441
	C207	C	0.908592	0.404804	0.896093
	C208	C	0.107817	0.900725	0.591347
	C209	C	0.109566	0.100351	0.398550
	C210	C	0.908887	0.098874	0.591544
	C211	C	0.910834	0.902386	0.399286
	C212	C	0.603381	0.102626	0.893691
	C213	C	0.413523	0.100502	0.094241
	C214	C	0.603126	0.900042	0.093403
	C215	C	0.413336	0.901412	0.896552
	Zn216	Zn	0.508569	0.000560	0.744618
	Zn217	Zn	0.509189	0.000486	0.244234
	Zn218	Zn	0.758190	0.500601	-0.005206
	Zn219	Zn	0.259883	0.501281	-0.005112
	Zn220	Zn	0.008225	0.751771	0.495076
	Zn221	Zn	0.008378	0.249036	0.494743
	Zn222	Zn	0.008747	0.500503	0.744073
	Zn223	Zn	0.008192	0.500566	0.244768
	Zn224	Zn	0.507997	0.749968	-0.005483
	Zn225	Zn	0.508676	0.252013	-0.005170
	Zn226	Zn	0.760140	0.000422	0.494698
	Zn227	Zn	0.258548	0.000827	0.495357
	N228	N	0.423229	0.963230	0.673061
	N229	N	0.593295	0.038137	0.670747
	N230	N	0.595076	0.962764	0.316445
	N231	N	0.426308	0.038819	0.318727
	N232	N	0.686371	0.415764	0.957543
	N233	N	0.686836	0.586638	0.031853
	N234	N	0.332074	0.586295	0.957622
	N235	N	0.330859	0.415314	0.032358
	N236	N	0.971952	0.680923	0.407676
	N237	N	0.044748	0.679686	0.580950
	N238	N	0.971937	0.320921	0.581282
	N239	N	0.044619	0.321351	0.408197
	N240	N	0.971323	0.414449	0.672838
	N241	N	0.046113	0.584511	0.670333
	N242	N	0.970755	0.586185	0.316798
	N243	N	0.045090	0.415367	0.317012
	N244	N	0.423035	0.678307	0.957635
	N245	N	0.594180	0.678719	0.031902
	N246	N	0.593860	0.324415	0.957504
	N247	N	0.423032	0.323446	0.032555
	N248	N	0.690015	0.963631	0.407164
	N249	N	0.687731	0.036992	0.580148
	N250	N	0.328892	0.964000	0.582791
	N251	N	0.330152	0.037311	0.408230
	N252	N	0.923172	0.463001	0.172696
	N253	N	0.093164	0.538234	0.171246
	N254	N	0.093594	0.462556	0.817177
	N255	N	0.924946	0.537624	0.817803
	N256	N	0.187858	0.914345	0.458197
	N257	N	0.186859	0.086348	0.532295
	N258	N	0.832411	0.085423	0.457821
	N259	N	0.830667	0.914141	0.532117
	N260	N	0.472249	0.182024	0.906952
	N261	N	0.544826	0.180374	0.081134
	N262	N	0.471331	0.820794	0.081902
	N263	N	0.544467	0.822008	0.908007
	N264	N	0.471309	0.914613	0.173501
	N265	N	0.546734	0.084445	0.170177
	N266	N	0.470839	0.086103	0.817106
	N267	N	0.545989	0.916599	0.817826
	N268	N	0.923286	0.177543	0.457914
	N269	N	0.093972	0.177612	0.532013
	N270	N	0.094200	0.823788	0.457624
	N271	N	0.923238	0.823152	0.532519
	N272	N	0.190124	0.464216	0.906834
	N273	N	0.187319	0.537587	0.080392
	N274	N	0.828622	0.464027	0.082295
	N275	N	0.830118	0.536678	0.907835
	O276	O	0.969841	1.008964	0.047902
	H277	H	0.975758	1.007162	0.053777
	H278	H	0.969030	1.021145	0.040240
	O279	O	0.010798	-0.007435	0.056107
	H280	H	0.006309	-0.009677	0.057412
	H281	H	0.011439	-0.013311	0.058234
	O282	O	-0.022649	-0.028152	1.035145
	H283	H	-0.017517	-0.031933	1.039215
	H284	H	-0.033805	-0.033033	1.048622
	O285	O	0.419802	0.505324	0.488053
	H286	H	0.421050	0.501307	0.488883
	H287	H	0.417473	0.501131	0.496927
	O288	O	0.423975	0.571442	0.504991
	H289	H	0.421052	0.577910	0.503432
	H290	H	0.426134	0.572112	0.503783
	O291	O	0.493291	0.490322	0.524943
	H292	H	0.490805	0.489143	0.519273
	H293	H	0.502736	0.492891	0.523118
	O294	O	-0.520471	-0.485581	0.531876
	H295	H	-0.525310	-0.484985	0.531562
	H296	H	-0.518767	-0.483795	0.527808
	O297	O	0.448231	0.521243	0.426390
	H298	H	0.449107	0.514670	0.419969
	H299	H	0.445391	0.515510	0.422234
	O300	O	-0.016987	0.980840	1.008752
	H301	H	-0.022243	0.986759	1.006782
	H302	H	-0.002697	0.979944	1.004821
	O303	O	0.432903	0.552874	0.472035
	H304	H	0.427454	0.547515	0.475396
	H305	H	0.433520	0.542147	0.474202
	O306	O	0.007373	-0.005670	1.000506
	H307	H	0.000599	-0.004838	0.998818
	H308	H	-0.000384	-0.005446	0.997471
	O309	O	0.898301	0.941133	1.060913
	H310	H	0.897493	0.941536	1.052199
	H311	H	0.896931	0.932004	1.061217
	O312	O	0.423503	0.507773	0.478285
	H313	H	0.419451	0.509438	0.484869
	H314	H	0.411585	0.514767	0.482649
	O315	O	0.420800	0.571581	0.500412
	H316	H	0.416861	0.584891	0.487659
	H317	H	0.419155	0.575681	0.506664
	O318	O	-0.071145	0.952858	0.058390
	H319	H	-0.072907	0.952011	0.053825
	H320	H	-0.074594	0.951083	0.067610
	O321	O	1.014416	0.970285	0.061873
	H322	H	1.021295	0.962863	0.060137
	H323	H	1.016924	0.973359	0.062997
