data_Molecule from HDF5

_cell_length_a		16.452324
_cell_length_b		15.918209
_cell_length_c		16.166653
_cell_angle_alpha	90.081453
_cell_angle_beta	89.529563
_cell_angle_gamma	90.017216
_symmetry_space_group_name_H-M	'P 1'
_symmetry_Int_Tables_number		1

loop_
	_symmetry_equiv_pos_as_xyz
	x,y,z

loop_
	_atom_site_label
	_atom_site_type_symbol
	_atom_site_fract_x
	_atom_site_fract_y
	_atom_site_fract_z
	H0	H	0.404625	0.837823	0.708811
	H1	H	0.598142	0.171971	0.705502
	H2	H	0.599262	0.837009	0.286723
	H3	H	0.406474	0.171947	0.286133
	H4	H	0.724163	0.400109	0.834813
	H5	H	0.719919	0.610063	0.160210
	H6	H	0.287599	0.609292	0.835146
	H7	H	0.282327	0.400204	0.159407
	H8	H	0.839661	0.717910	0.401856
	H9	H	0.166418	0.719956	0.591899
	H10	H	0.839038	0.293695	0.594911
	H11	H	0.166230	0.289642	0.399510
	H12	H	0.842158	0.405284	0.717240
	H13	H	0.166503	0.606381	0.711757
	H14	H	0.842188	0.606619	0.280165
	H15	H	0.166019	0.403651	0.279000
	H16	H	0.411522	0.713794	0.830734
	H17	H	0.595058	0.714681	0.163440
	H18	H	0.599467	0.294610	0.831437
	H19	H	0.406865	0.294592	0.163995
	H20	H	0.719304	0.839827	0.391930
	H21	H	0.715495	0.169642	0.598551
	H22	H	0.285417	0.839922	0.599997
	H23	H	0.288399	0.171220	0.396384
	H24	H	0.906132	0.338555	0.210036
	H25	H	0.101605	0.671966	0.208023
	H26	H	0.101938	0.338799	0.785957
	H27	H	0.909096	0.673092	0.788665
	H28	H	0.222481	0.900707	0.334634
	H29	H	0.219342	0.111155	0.659785
	H30	H	0.787200	0.107532	0.333643
	H31	H	0.782226	0.901558	0.659582
	H32	H	0.340295	0.218182	0.903432
	H33	H	0.666870	0.219444	0.093717
	H34	H	0.339573	0.791544	0.094870
	H35	H	0.666731	0.791832	0.899913
	H36	H	0.341884	0.902219	0.216483
	H37	H	0.665377	0.105791	0.214586
	H38	H	0.340954	0.105647	0.782586
	H39	H	0.663473	0.901981	0.776541
	H40	H	0.909684	0.215390	0.330680
	H41	H	0.093884	0.214124	0.664878
	H42	H	0.097636	0.795468	0.330750
	H43	H	0.906085	0.795496	0.663499
	H44	H	0.220338	0.340113	0.893267
	H45	H	0.217215	0.671086	0.098054
	H46	H	0.785914	0.341265	0.103416
	H47	H	0.790799	0.671310	0.897715
	H48	H	0.402315	0.125079	0.583154
	H49	H	0.586982	0.883939	0.593172
	H50	H	0.587644	0.124587	0.400459
	H51	H	0.410812	0.885526	0.405968
	H52	H	0.599341	0.401442	0.120122
	H53	H	0.588127	0.599252	0.880638
	H54	H	0.416234	0.595526	0.113005
	H55	H	0.409150	0.398345	0.874512
	H56	H	0.118865	0.585699	0.391453
	H57	H	0.886660	0.602467	0.594134
	H58	H	0.120929	0.410612	0.594105
	H59	H	0.888630	0.413403	0.404921
	H60	H	0.119567	0.408356	0.590305
	H61	H	0.889007	0.596623	0.591329
	H62	H	0.125007	0.613288	0.395455
	H63	H	0.888512	0.413931	0.402288
	H64	H	0.402894	0.604666	0.119789
	H65	H	0.609285	0.604978	0.873132
	H66	H	0.607662	0.424143	0.115565
	H67	H	0.397808	0.423471	0.878597
	H68	H	0.595415	0.121372	0.416046
	H69	H	0.592912	0.887166	0.577062
	H70	H	0.406124	0.128636	0.597072
	H71	H	0.411401	0.885875	0.410997
	H72	H	0.912491	0.624427	0.088736
	H73	H	0.100947	0.387363	0.074500
	H74	H	0.097374	0.626457	0.902272
	H75	H	0.916558	0.387577	0.910833
	H76	H	0.087372	0.914561	0.613164
	H77	H	0.094502	0.098186	0.379760
	H78	H	0.904148	0.096327	0.615526
	H79	H	0.902340	0.919806	0.378605
	H80	H	0.617449	0.100011	0.904613
	H81	H	0.385868	0.098950	0.099667
	H82	H	0.618324	0.912103	0.091226
	H83	H	0.382407	0.904103	0.896126
	H84	H	0.618818	0.911141	0.093414
	H85	H	0.388641	0.102159	0.088701
	H86	H	0.619009	0.092930	0.898662
	H87	H	0.388487	0.907239	0.910926
	H88	H	0.905096	0.097822	0.614919
	H89	H	0.101414	0.097163	0.378008
	H90	H	0.099537	0.907115	0.618756
	H91	H	0.915589	0.915128	0.381480
	H92	H	0.097728	0.625219	0.908019
	H93	H	0.102752	0.380008	0.095893
	H94	H	0.909589	0.625737	0.086691
	H95	H	0.907041	0.384282	0.910514
	H96	H	0.415399	0.122607	0.588675
	H97	H	0.603438	0.880012	0.588848
	H98	H	0.604413	0.128278	0.402161
	H99	H	0.407478	0.885336	0.408363
	H100	H	0.583971	0.418365	0.110600
	H101	H	0.604975	0.584199	0.881464
	H102	H	0.401586	0.587912	0.115177
	H103	H	0.424129	0.419243	0.885692
	H104	H	0.113914	0.597195	0.416303
	H105	H	0.887178	0.596258	0.599113
	H106	H	0.118318	0.412898	0.590591
	H107	H	0.887631	0.411420	0.403561
	H108	H	0.909772	0.626501	0.090045
	H109	H	0.083381	0.388934	0.088339
	H110	H	0.101412	0.627291	0.904899
	H111	H	0.913215	0.384541	0.901490
	H112	H	0.099328	0.922319	0.614758
	H113	H	0.098264	0.091720	0.381243
	H114	H	0.903649	0.097778	0.616222
	H115	H	0.906317	0.906106	0.375397
	H116	H	0.621336	0.101010	0.896505
	H117	H	0.390465	0.091428	0.091931
	H118	H	0.619937	0.909620	0.090954
	H119	H	0.388132	0.918824	0.899752
	C120	C	0.380131	0.014706	0.618632
	C121	C	0.622698	0.994578	0.615887
	C122	C	0.624156	0.014222	0.376236
	C123	C	0.382063	0.995844	0.378526
	C124	C	0.625946	0.384373	0.006532
	C125	C	0.626206	0.625770	0.987950
	C126	C	0.381167	0.625375	0.006978
	C127	C	0.381078	0.383975	0.988535
	C128	C	0.012129	0.627929	0.373794
	C129	C	0.995352	0.627374	0.620749
	C130	C	0.011951	0.382607	0.620890
	C131	C	0.995133	0.382762	0.374299
	C132	C	0.881805	0.515195	0.118732
	C133	C	0.124081	0.495530	0.116347
	C134	C	0.127105	0.515641	0.875474
	C135	C	0.884364	0.496148	0.878656
	C136	C	0.124227	0.884959	0.506258
	C137	C	0.124348	0.125891	0.488950
	C138	C	0.879088	0.126392	0.505917
	C139	C	0.879611	0.883849	0.487742
	C140	C	0.511790	0.126929	0.873968
	C141	C	0.495350	0.126997	0.121013
	C142	C	0.511749	0.881975	0.120506
	C143	C	0.494105	0.881542	0.873770
	C144	C	0.383382	0.888108	0.672486
	C145	C	0.619203	0.120994	0.669932
	C146	C	0.620800	0.887591	0.322248
	C147	C	0.385333	0.121786	0.323000
	C148	C	0.683811	0.382839	0.883466
	C149	C	0.680478	0.627006	0.111682
	C150	C	0.326612	0.626432	0.883219
	C151	C	0.322747	0.382906	0.111377
	C152	C	0.888854	0.681831	0.379390
	C153	C	0.117815	0.682381	0.614536
	C154	C	0.888375	0.330028	0.616692
	C155	C	0.117588	0.326968	0.377422
	C156	C	0.890120	0.385199	0.677818
	C157	C	0.117760	0.626170	0.674232
	C158	C	0.890185	0.626572	0.318646
	C159	C	0.117226	0.383857	0.317684
	C160	C	0.387891	0.678841	0.881315
	C161	C	0.618584	0.679217	0.113328
	C162	C	0.621971	0.330196	0.881513
	C163	C	0.384567	0.329894	0.113646
	C164	C	0.680525	0.889124	0.374666
	C165	C	0.677415	0.120008	0.616181
	C166	C	0.323996	0.889395	0.618692
	C167	C	0.326648	0.121506	0.377844
	C168	C	0.884861	0.389156	0.173881
	C169	C	0.121636	0.621784	0.171211
	C170	C	0.123682	0.389323	0.821360
	C171	C	0.888245	0.622854	0.825238
	C172	C	0.182297	0.883218	0.383235
	C173	C	0.179797	0.127958	0.611773
	C174	C	0.825445	0.126134	0.382325
	C175	C	0.822081	0.883488	0.611084
	C176	C	0.389124	0.181355	0.880492
	C177	C	0.618027	0.182197	0.116089
	C178	C	0.388560	0.828249	0.116184
	C179	C	0.617171	0.828160	0.877924
	C180	C	0.389871	0.883449	0.176838
	C181	C	0.617196	0.125430	0.176042
	C182	C	0.389453	0.125191	0.820417
	C183	C	0.615631	0.883070	0.816510
	C184	C	0.886142	0.180010	0.380940
	C185	C	0.117374	0.179319	0.614303
	C186	C	0.120099	0.830946	0.381151
	C187	C	0.883722	0.830730	0.612931
	C188	C	0.182459	0.390029	0.874973
	C189	C	0.179187	0.621318	0.116458
	C190	C	0.825299	0.390332	0.120341
	C191	C	0.828780	0.621591	0.878866
	C192	C	0.401603	0.102556	0.596235
	C193	C	0.600820	0.906419	0.593078
	C194	C	0.602182	0.102092	0.399334
	C195	C	0.403632	0.908196	0.401625
	C196	C	0.603535	0.407586	0.093035
	C197	C	0.606584	0.602831	0.901006
	C198	C	0.401061	0.602733	0.093596
	C199	C	0.403735	0.406820	0.902015
	C200	C	0.097142	0.605354	0.394892
	C201	C	0.909804	0.605049	0.600688
	C202	C	0.097297	0.404075	0.598362
	C203	C	0.910213	0.406066	0.396945
	C204	C	0.903923	0.602980	0.095255
	C205	C	0.102074	0.407935	0.093161
	C206	C	0.105507	0.603582	0.898328
	C207	C	0.905939	0.408097	0.901065
	C208	C	0.101961	0.907946	0.593024
	C209	C	0.104028	0.102534	0.402174
	C210	C	0.898499	0.103950	0.592990
	C211	C	0.901596	0.906857	0.401019
	C212	C	0.597234	0.104438	0.893987
	C213	C	0.410224	0.104302	0.099619
	C214	C	0.597081	0.904434	0.098412
	C215	C	0.408381	0.903459	0.895836
	Zn216	Zn	0.502803	0.004817	0.743718
	Zn217	Zn	0.503529	0.004055	0.251179
	Zn218	Zn	0.755291	0.505414	-0.002099
	Zn219	Zn	0.252094	0.505416	-0.003108
	Zn220	Zn	0.002599	0.756559	0.497520
	Zn221	Zn	0.002500	0.253165	0.497821
	Zn222	Zn	0.004856	0.505646	0.751055
	Zn223	Zn	0.004041	0.505699	0.243335
	Zn224	Zn	0.502971	0.752670	-0.002330
	Zn225	Zn	0.504040	0.256646	-0.002600
	Zn226	Zn	0.750296	0.004674	0.496453
	Zn227	Zn	0.253251	0.005988	0.497926
	N228	N	0.417452	0.966981	0.672967
	N229	N	0.585531	0.041822	0.669860
	N230	N	0.586382	0.966323	0.323253
	N231	N	0.419143	0.042666	0.323164
	N232	N	0.686475	0.415751	0.962252
	N233	N	0.685475	0.594731	0.032686
	N234	N	0.322174	0.593992	0.962127
	N235	N	0.320496	0.415764	0.032618
	N236	N	0.965442	0.682745	0.413030
	N237	N	0.040778	0.683397	0.582150
	N238	N	0.965087	0.328269	0.581920
	N239	N	0.040722	0.325957	0.411848
	N240	N	0.967930	0.417079	0.680640
	N241	N	0.040449	0.592811	0.678291
	N242	N	0.967676	0.593711	0.314896
	N243	N	0.040184	0.417792	0.315446
	N244	N	0.421291	0.678384	0.959094
	N245	N	0.585550	0.678808	0.035374
	N246	N	0.586557	0.331101	0.959057
	N247	N	0.420014	0.330234	0.036230
	N248	N	0.682618	0.968884	0.407535
	N249	N	0.679890	0.040182	0.583282
	N250	N	0.321827	0.969204	0.586007
	N251	N	0.324420	0.042249	0.411672
	N252	N	0.919630	0.467682	0.172573
	N253	N	0.088240	0.542635	0.171182
	N254	N	0.089953	0.468401	0.821545
	N255	N	0.922188	0.543740	0.824854
	N256	N	0.185025	0.916127	0.462079
	N257	N	0.184199	0.095548	0.532723
	N258	N	0.820642	0.093867	0.461201
	N259	N	0.819402	0.915974	0.532210
	N260	N	0.466171	0.182881	0.912909
	N261	N	0.541280	0.183461	0.082743
	N262	N	0.465424	0.827204	0.081787
	N263	N	0.540483	0.826995	0.912854
	N264	N	0.467278	0.916179	0.179491
	N265	N	0.539864	0.092247	0.179461
	N266	N	0.466802	0.092239	0.816267
	N267	N	0.538125	0.915549	0.813805
	N268	N	0.918759	0.180412	0.458959
	N269	N	0.083690	0.178448	0.536714
	N270	N	0.084682	0.831738	0.458749
	N271	N	0.918809	0.830597	0.535253
	N272	N	0.184622	0.469639	0.908046
	N273	N	0.180977	0.541818	0.082837
	N274	N	0.823323	0.469820	0.086758
	N275	N	0.826387	0.541786	0.911517
	O276	O	-0.017629	0.034890	-0.028872
	H277	H	-0.015932	0.043897	-0.027276
	H278	H	-0.013338	0.034853	-0.032459
	O279	O	0.637681	0.513652	0.558682
	H280	H	0.637198	0.506883	0.573943
	H281	H	0.649299	0.530100	0.564700
	O282	O	0.506074	0.513520	0.498739
	H283	H	0.499805	0.509075	0.503713
	H284	H	0.501950	0.508831	0.501078
	O285	O	0.893396	-0.012619	0.993195
	H286	H	0.879994	-0.011047	0.992625
	H287	H	0.891838	-0.008045	0.989009
	O288	O	1.090917	0.051178	-0.006527
	H289	H	1.096279	0.048029	-0.003450
	H290	H	1.091671	0.045543	0.001044
	O291	O	0.410201	0.489504	0.545865
	H292	H	0.415214	0.477978	0.549212
	H293	H	0.411747	0.486846	0.542446
	O294	O	1.057523	-0.019234	1.036128
	H295	H	1.050008	-0.020319	1.043841
	H296	H	1.065175	-0.026094	1.035643
	O297	O	0.009427	0.001446	-0.022797
	H298	H	0.004310	0.001572	-0.009056
	H299	H	0.011112	0.001684	-0.023588
	O300	O	0.416412	0.516655	0.503825
	H301	H	0.418073	0.516002	0.505075
	H302	H	0.415530	0.519950	0.500438
	O303	O	0.604814	0.495293	0.535912
	H304	H	0.590388	0.482303	0.533592
	H305	H	0.595711	0.489644	0.536756
	O306	O	1.030819	-0.020130	-0.027676
	H307	H	1.027962	-0.026193	-0.021343
	H308	H	1.027430	-0.014089	-0.035336
	O309	O	0.060635	0.022917	1.031565
	H310	H	0.053958	0.024364	1.036260
	H311	H	0.071735	0.021787	1.033739
	O312	O	0.991693	1.004025	0.936383
	H313	H	1.010722	1.007992	0.934477
	H314	H	0.988111	1.001939	0.937518
	O315	O	0.551735	0.533386	0.441276
	H316	H	0.554606	0.529299	0.450829
	H317	H	0.552622	0.530452	0.444909
	O318	O	0.521969	0.484974	0.564068
	H319	H	0.522296	0.487798	0.563710
	H320	H	0.522059	0.470113	0.555261
	O321	O	-0.020279	0.950650	1.006511
	H322	H	-0.023614	0.954445	1.005024
	H323	H	-0.027168	0.941484	1.010312
	O324	O	0.489246	0.437209	0.515590
	H325	H	0.485701	0.434864	0.515550
	H326	H	0.493831	0.441614	0.512157
	O327	O	0.509305	0.557581	0.520124
	H328	H	0.505721	0.566513	0.525692
	H329	H	0.516753	0.559417	0.524208
	O330	O	0.599811	0.445843	0.456977
	H331	H	0.598991	0.432378	0.452422
	H332	H	0.607874	0.450208	0.459655
	O333	O	0.472833	0.454765	0.431790
	H334	H	0.469628	0.465902	0.433061
	H335	H	0.468740	0.458067	0.427044
	O336	O	0.516912	0.458752	0.437879
	H337	H	0.519824	0.455026	0.427368
	H338	H	0.508798	0.456240	0.438366
	O339	O	1.022757	1.032671	0.053943
	H340	H	1.017996	1.037414	0.044820
	H341	H	1.020544	1.029733	0.053160
	O342	O	0.475669	0.620399	0.496493
	H343	H	0.476396	0.631123	0.492743
	H344	H	0.481261	0.618208	0.494598
	O345	O	0.606359	0.403363	0.465657
	H346	H	0.602870	0.388392	0.460039
	H347	H	0.601837	0.410406	0.445852
	O348	O	-0.034450	-0.007061	-0.029897
	H349	H	-0.030752	-0.003463	-0.037824
	H350	H	-0.034845	-0.008486	-0.025401
	O351	O	0.050169	1.079002	1.053276
	H352	H	0.058533	1.079358	1.057739
	H353	H	0.050751	1.085444	1.055684
	O354	O	0.418432	0.472146	0.438478
	H355	H	0.419655	0.473593	0.440899
	H356	H	0.415039	0.478644	0.444558
	O357	O	0.010271	1.039160	0.947925
	H358	H	0.011987	1.045948	0.949182
	H359	H	0.008937	1.036235	0.937313
