data_Molecule from HDF5

_cell_length_a		16.494686
_cell_length_b		16.566946
_cell_length_c		16.342401
_cell_angle_alpha	90.114297
_cell_angle_beta	90.082213
_cell_angle_gamma	89.928759
_symmetry_space_group_name_H-M	'P 1'
_symmetry_Int_Tables_number		1

loop_
	_symmetry_equiv_pos_as_xyz
	x,y,z

loop_
	_atom_site_label
	_atom_site_type_symbol
	_atom_site_fract_x
	_atom_site_fract_y
	_atom_site_fract_z
	H0	H	0.393531	0.846808	0.725959
	H1	H	0.606895	0.157773	0.721543
	H2	H	0.609702	0.843993	0.278314
	H3	H	0.399986	0.160406	0.281131
	H4	H	0.726053	0.396628	0.843622
	H5	H	0.725096	0.611321	0.158675
	H6	H	0.282130	0.609074	0.839993
	H7	H	0.284475	0.400773	0.159310
	H8	H	0.848447	0.729680	0.391683
	H9	H	0.159680	0.730965	0.613698
	H10	H	0.847652	0.285097	0.603123
	H11	H	0.159748	0.276720	0.388546
	H12	H	0.845754	0.405084	0.717037
	H13	H	0.161607	0.611222	0.724954
	H14	H	0.848301	0.612883	0.276215
	H15	H	0.161798	0.397709	0.277832
	H16	H	0.394625	0.728168	0.842471
	H17	H	0.610156	0.726034	0.158175
	H18	H	0.610906	0.279381	0.844479
	H19	H	0.398598	0.282853	0.158900
	H20	H	0.728465	0.845595	0.393280
	H21	H	0.726811	0.156615	0.609010
	H22	H	0.276519	0.847806	0.610483
	H23	H	0.280344	0.158498	0.392771
	H24	H	0.901713	0.346441	0.219419
	H25	H	0.110751	0.660271	0.224142
	H26	H	0.103768	0.346616	0.782104
	H27	H	0.897689	0.662814	0.779069
	H28	H	0.226135	0.895246	0.343095
	H29	H	0.226835	0.110141	0.658591
	H30	H	0.780826	0.109308	0.343737
	H31	H	0.780209	0.894376	0.657757
	H32	H	0.348508	0.226524	0.892195
	H33	H	0.660041	0.225416	0.107344
	H34	H	0.346667	0.780198	0.106793
	H35	H	0.659622	0.775107	0.889468
	H36	H	0.345282	0.900139	0.220882
	H37	H	0.661419	0.106339	0.221420
	H38	H	0.346151	0.105204	0.780591
	H39	H	0.659699	0.890970	0.773389
	H40	H	0.895243	0.227305	0.343921
	H41	H	0.111519	0.226685	0.657737
	H42	H	0.114068	0.776325	0.345500
	H43	H	0.893929	0.778868	0.657970
	H44	H	0.225904	0.348206	0.892222
	H45	H	0.227040	0.660649	0.106555
	H46	H	0.782487	0.347477	0.105440
	H47	H	0.778975	0.661708	0.893777
	H48	H	0.424466	0.110341	0.590259
	H49	H	0.597976	0.889288	0.582764
	H50	H	0.590366	0.109505	0.419372
	H51	H	0.414119	0.889054	0.407208
	H52	H	0.595886	0.415094	0.116031
	H53	H	0.584788	0.586254	0.889530
	H54	H	0.416241	0.592886	0.112423
	H55	H	0.414242	0.410209	0.885332
	H56	H	0.113801	0.590891	0.419206
	H57	H	0.895377	0.591770	0.583969
	H58	H	0.117915	0.413546	0.586666
	H59	H	0.893210	0.418952	0.409987
	H60	H	0.118921	0.417165	0.592485
	H61	H	0.891871	0.590704	0.591743
	H62	H	0.114769	0.588139	0.413963
	H63	H	0.890409	0.411198	0.409242
	H64	H	0.414574	0.590532	0.112611
	H65	H	0.589409	0.595417	0.886442
	H66	H	0.589904	0.418796	0.112998
	H67	H	0.412755	0.417468	0.885740
	H68	H	0.601428	0.116550	0.412198
	H69	H	0.591707	0.888107	0.593053
	H70	H	0.410419	0.112814	0.579583
	H71	H	0.418920	0.892628	0.414770
	H72	H	0.914617	0.617299	0.090731
	H73	H	0.090264	0.392811	0.090180
	H74	H	0.093752	0.618422	0.909696
	H75	H	0.912505	0.391395	0.905277
	H76	H	0.087805	0.920187	0.611293
	H77	H	0.088726	0.090817	0.387110
	H78	H	0.918515	0.088111	0.611751
	H79	H	0.920861	0.910148	0.387545
	H80	H	0.616336	0.087460	0.911558
	H81	H	0.389843	0.092964	0.089529
	H82	H	0.614599	0.910698	0.082591
	H83	H	0.394026	0.914998	0.915894
	H84	H	0.613892	0.919038	0.089672
	H85	H	0.389996	0.094352	0.090485
	H86	H	0.618664	0.094450	0.910496
	H87	H	0.394278	0.917165	0.914803
	H88	H	0.919888	0.099817	0.615217
	H89	H	0.091995	0.092494	0.386793
	H90	H	0.088490	0.914998	0.614560
	H91	H	0.912372	0.919392	0.387978
	H92	H	0.090597	0.615992	0.915267
	H93	H	0.095283	0.393616	0.083658
	H94	H	0.917111	0.615220	0.086541
	H95	H	0.917563	0.394943	0.911903
	H96	H	0.409971	0.117945	0.596029
	H97	H	0.585951	0.892486	0.582592
	H98	H	0.588582	0.114144	0.405288
	H99	H	0.409934	0.889803	0.416120
	H100	H	0.589679	0.411907	0.115692
	H101	H	0.595152	0.586541	0.886850
	H102	H	0.417146	0.590315	0.111287
	H103	H	0.419807	0.414846	0.887756
	H104	H	0.115868	0.593536	0.414549
	H105	H	0.890921	0.597923	0.587845
	H106	H	0.120760	0.410437	0.591530
	H107	H	0.894105	0.414007	0.416800
	H108	H	0.912171	0.616532	0.086173
	H109	H	0.097844	0.389774	0.090687
	H110	H	0.097321	0.618265	0.915261
	H111	H	0.908740	0.392624	0.914013
	H112	H	0.093353	0.918899	0.614007
	H113	H	0.092092	0.089392	0.388591
	H114	H	0.909918	0.093652	0.617739
	H115	H	0.923918	0.921688	0.392534
	H116	H	0.615822	0.092337	0.917619
	H117	H	0.390001	0.094562	0.089462
	H118	H	0.619378	0.909837	0.092716
	H119	H	0.392964	0.915246	0.913418
	C120	C	0.381067	0.010869	0.622556
	C121	C	0.624766	0.992685	0.621082
	C122	C	0.626762	0.010094	0.378680
	C123	C	0.381980	0.994038	0.379389
	C124	C	0.624874	0.381928	0.010435
	C125	C	0.623249	0.623444	0.991961
	C126	C	0.382521	0.624813	0.007782
	C127	C	0.383365	0.382407	0.991248
	C128	C	0.012019	0.625367	0.380857
	C129	C	0.995932	0.626857	0.622867
	C130	C	0.014079	0.383297	0.621110
	C131	C	0.996198	0.381641	0.378430
	C132	C	0.882916	0.512433	0.120505
	C133	C	0.126946	0.495628	0.121919
	C134	C	0.124898	0.513562	0.879860
	C135	C	0.880313	0.496726	0.878230
	C136	C	0.124670	0.882611	0.509879
	C137	C	0.124839	0.124460	0.491718
	C138	C	0.882814	0.125331	0.509841
	C139	C	0.884334	0.883023	0.492834
	C140	C	0.513030	0.123711	0.879553
	C141	C	0.494436	0.124905	0.122291
	C142	C	0.511983	0.881436	0.121386
	C143	C	0.496204	0.880600	0.878853
	C144	C	0.376529	0.893875	0.685114
	C145	C	0.626654	0.110519	0.682385
	C146	C	0.628789	0.891708	0.318175
	C147	C	0.380779	0.112501	0.319617
	C148	C	0.686065	0.378321	0.891401
	C149	C	0.684427	0.628012	0.111187
	C150	C	0.321623	0.627551	0.888077
	C151	C	0.323772	0.381350	0.111244
	C152	C	0.895172	0.688367	0.374989
	C153	C	0.113099	0.689317	0.629089
	C154	C	0.894715	0.325040	0.622054
	C155	C	0.113072	0.318664	0.372595
	C156	C	0.893747	0.384594	0.678531
	C157	C	0.114054	0.629863	0.684876
	C158	C	0.895260	0.630111	0.317419
	C159	C	0.114273	0.379032	0.317388
	C160	C	0.377705	0.686793	0.889393
	C161	C	0.627138	0.685260	0.110975
	C162	C	0.628645	0.320217	0.891704
	C163	C	0.380566	0.322753	0.111079
	C164	C	0.687989	0.892442	0.375154
	C165	C	0.686050	0.109831	0.626173
	C166	C	0.318067	0.894181	0.627346
	C167	C	0.321257	0.111733	0.375628
	C168	C	0.882544	0.393879	0.179990
	C169	C	0.129061	0.613381	0.183400
	C170	C	0.124309	0.394107	0.820878
	C171	C	0.878998	0.615443	0.818819
	C172	C	0.186387	0.877570	0.390926
	C173	C	0.186520	0.128086	0.610835
	C174	C	0.821287	0.127669	0.391087
	C175	C	0.821168	0.877885	0.610776
	C176	C	0.395149	0.185012	0.875218
	C177	C	0.613172	0.184889	0.125415
	C178	C	0.393471	0.821488	0.124219
	C179	C	0.612846	0.816753	0.872603
	C180	C	0.392778	0.880615	0.181336
	C181	C	0.613728	0.125698	0.182012
	C182	C	0.393988	0.124534	0.819705
	C183	C	0.613043	0.874386	0.814790
	C184	C	0.878397	0.186213	0.391175
	C185	C	0.129255	0.186196	0.610463
	C186	C	0.130325	0.818634	0.392170
	C187	C	0.878167	0.820486	0.610884
	C188	C	0.185059	0.395058	0.875501
	C189	C	0.187021	0.613547	0.125000
	C190	C	0.823170	0.394451	0.123280
	C191	C	0.819491	0.614686	0.875605
	C192	C	0.407281	0.092426	0.596262
	C193	C	0.599044	0.910975	0.594122
	C194	C	0.600934	0.092060	0.404720
	C195	C	0.407043	0.911928	0.405210
	C196	C	0.598999	0.407821	0.093255
	C197	C	0.597276	0.596979	0.909153
	C198	C	0.408496	0.598718	0.090620
	C199	C	0.408373	0.407040	0.908037
	C200	C	0.093669	0.598583	0.408237
	C201	C	0.914152	0.600958	0.595688
	C202	C	0.097260	0.406933	0.597014
	C203	C	0.914072	0.407470	0.404567
	C204	C	0.907515	0.594994	0.095170
	C205	C	0.101795	0.413490	0.095840
	C206	C	0.100807	0.595965	0.905619
	C207	C	0.905436	0.414223	0.903232
	C208	C	0.097628	0.910113	0.591804
	C209	C	0.098428	0.098409	0.409158
	C210	C	0.908689	0.100637	0.593114
	C211	C	0.911374	0.909642	0.410839
	C212	C	0.595443	0.098653	0.905565
	C213	C	0.411692	0.100799	0.097152
	C214	C	0.594517	0.906047	0.095808
	C215	C	0.415067	0.908018	0.906818
	Zn216	Zn	0.504441	0.001368	0.750246
	Zn217	Zn	0.503859	0.002387	0.250765
	Zn218	Zn	0.752140	0.504970	0.000729
	Zn219	Zn	0.254986	0.503900	-0.000856
	Zn220	Zn	0.003947	0.754982	0.501664
	Zn221	Zn	0.004812	0.253411	0.500172
	Zn222	Zn	0.004320	0.505587	0.750431
	Zn223	Zn	0.004374	0.504474	0.250699
	Zn224	Zn	0.503861	0.752265	-0.000356
	Zn225	Zn	0.503915	0.253108	0.001125
	Zn226	Zn	0.755081	0.002093	0.500994
	Zn227	Zn	0.252656	0.003074	0.500263
	N228	N	0.415076	0.967309	0.682145
	N229	N	0.589517	0.036446	0.679482
	N230	N	0.591639	0.966082	0.319870
	N231	N	0.417690	0.038155	0.321556
	N232	N	0.683938	0.416091	0.966223
	N233	N	0.681870	0.590304	0.036287
	N234	N	0.324523	0.589692	0.962868
	N235	N	0.325014	0.417447	0.035540
	N236	N	0.969057	0.685489	0.413889
	N237	N	0.038671	0.687453	0.591112
	N238	N	0.970635	0.323927	0.587577
	N239	N	0.038540	0.320107	0.409929
	N240	N	0.969017	0.419922	0.678392
	N241	N	0.040079	0.591985	0.681414
	N242	N	0.968936	0.591661	0.321046
	N243	N	0.040671	0.417647	0.321074
	N244	N	0.414817	0.685034	0.964672
	N245	N	0.589569	0.682565	0.035787
	N246	N	0.591605	0.322310	0.966725
	N247	N	0.416757	0.323121	0.035432
	N248	N	0.687100	0.967350	0.411527
	N249	N	0.685040	0.035540	0.589130
	N250	N	0.320773	0.967984	0.589157
	N251	N	0.321636	0.036910	0.411651
	N252	N	0.918905	0.468590	0.178660
	N253	N	0.092719	0.538822	0.181705
	N254	N	0.087525	0.468582	0.823389
	N255	N	0.915917	0.540984	0.820048
	N256	N	0.182850	0.916833	0.465083
	N257	N	0.184028	0.090455	0.536011
	N258	N	0.824001	0.090139	0.465942
	N259	N	0.825035	0.916401	0.536441
	N260	N	0.470255	0.184809	0.911605
	N261	N	0.537966	0.184658	0.089334
	N262	N	0.468677	0.821714	0.087971
	N263	N	0.539247	0.820669	0.911603
	N264	N	0.467454	0.916970	0.179701
	N265	N	0.539030	0.089130	0.180351
	N266	N	0.468359	0.087097	0.822326
	N267	N	0.539590	0.913441	0.818567
	N268	N	0.916113	0.184554	0.466027
	N269	N	0.091859	0.184152	0.535389
	N270	N	0.093215	0.821216	0.467185
	N271	N	0.916946	0.823603	0.536680
	N272	N	0.185757	0.470210	0.911243
	N273	N	0.185816	0.539337	0.087502
	N274	N	0.823346	0.469214	0.087157
	N275	N	0.820203	0.539739	0.911597
	O276	O	0.545193	0.295832	0.293676
	H277	H	0.515382	0.297533	0.305254
	H278	H	0.530620	0.275577	0.279082
	O279	O	0.719829	0.362489	0.494141
	H280	H	0.736712	0.346938	0.477691
	H281	H	0.724302	0.379498	0.476905
	O282	O	1.467556	1.622300	0.518818
	H283	H	1.465619	1.616037	0.512641
	H284	H	1.479852	1.626905	0.509098
	O285	O	1.060632	0.029559	-0.153366
	H286	H	1.046742	0.026261	-0.142659
	H287	H	1.055228	0.043021	-0.154459
	O288	O	0.021703	0.206427	0.202623
	H289	H	0.008620	0.185994	0.200566
	H290	H	0.015427	0.202841	0.226445
	O291	O	1.203561	0.934152	-0.199669
	H292	H	1.212877	0.958131	-0.213047
	H293	H	1.208327	0.920556	-0.184454
	O294	O	-0.204898	0.978384	0.217495
	H295	H	-0.219409	0.965192	0.234958
	H296	H	-0.220231	0.989466	0.197476
	O297	O	0.520966	0.460696	0.533887
	H298	H	0.543070	0.463051	0.534437
	H299	H	0.524565	0.461134	0.533455
	O300	O	0.446157	0.551795	0.707660
	H301	H	0.448734	0.575889	0.702388
	H302	H	0.465796	0.561187	0.703101
	O303	O	0.461420	0.402639	0.689586
	H304	H	0.500540	0.408213	0.686778
	H305	H	0.445343	0.409103	0.703043
	O306	O	0.175704	1.058451	0.989352
	H307	H	0.167983	1.075940	0.967711
	H308	H	0.180999	1.047496	0.976142
	O309	O	0.171658	0.036219	-0.136010
	H310	H	0.176265	0.033587	-0.145774
	H311	H	0.162773	0.051072	-0.134163
	O312	O	0.374407	0.549113	0.290386
	H313	H	0.366355	0.524246	0.304028
	H314	H	0.356916	0.563884	0.285384
	O315	O	0.220454	0.220577	1.019876
	H316	H	0.228828	0.222500	1.026527
	H317	H	0.227037	0.229754	1.040605
	O318	O	0.279363	1.286334	-0.283349
	H319	H	0.286296	1.288453	-0.274923
	H320	H	0.283771	1.296477	-0.270865
	O321	O	0.726938	0.478608	0.287934
	H322	H	0.723692	0.451498	0.285777
	H323	H	0.745226	0.455620	0.266774
	O324	O	0.686034	0.685608	0.682253
	H325	H	0.685383	0.689497	0.640225
	H326	H	0.644611	0.696275	0.681241
	O327	O	0.285926	0.701963	1.490195
	H328	H	0.251040	0.726988	1.493291
	H329	H	0.280841	0.666682	1.513958
	O330	O	0.786127	0.032617	0.035689
	H331	H	0.783854	0.025746	0.021780
	H332	H	0.775395	0.029957	0.003713
	O333	O	0.993446	1.002858	1.213704
	H334	H	0.997307	0.991098	1.199888
	H335	H	0.979748	0.992488	1.218652
	O336	O	1.094928	-0.039329	1.167547
	H337	H	1.090673	-0.028902	1.158654
	H338	H	1.088786	-0.058893	1.174813
	O339	O	0.788990	0.221158	0.785472
	H340	H	0.820883	0.225090	0.787271
	H341	H	0.756531	0.253733	0.754983
	O342	O	0.527530	0.572925	0.472730
	H343	H	0.541390	0.568591	0.450685
	H344	H	0.537684	0.580313	0.472690
	O345	O	0.038673	0.082334	0.003470
	H346	H	0.033951	0.094336	-0.000719
	H347	H	0.029134	0.072203	0.010969
	O348	O	1.188315	0.195638	1.182049
	H349	H	1.192433	0.169261	1.171368
	H350	H	1.145867	0.192699	1.193755
	O351	O	0.973660	0.815203	-0.044809
	H352	H	0.971053	0.810914	-0.045275
	H353	H	0.973900	0.830874	-0.047323
	O354	O	0.323977	0.767581	0.686283
	H355	H	0.328946	0.769008	0.664895
	H356	H	0.298426	0.788986	0.674023
	O357	O	0.970597	1.216386	0.794278
	H358	H	0.971505	1.217768	0.785109
	H359	H	0.975573	1.224021	0.790208
	O360	O	0.393752	0.353535	0.399147
	H361	H	0.391788	0.359481	0.397885
	H362	H	0.375348	0.351733	0.417188
	O363	O	0.598278	0.286776	0.531939
	H364	H	0.621226	0.283428	0.508326
	H365	H	0.590625	0.285363	0.510231
	O366	O	0.811667	-0.025451	0.890657
	H367	H	0.823035	-0.038026	0.887978
	H368	H	0.798626	-0.021363	0.875710
	O369	O	0.702589	0.608484	0.381848
	H370	H	0.695405	0.594741	0.363409
	H371	H	0.706278	0.586207	0.366308
	O372	O	0.706868	0.322577	0.319338
	H373	H	0.654296	0.311548	0.309760
	H374	H	0.724357	0.308466	0.306085
	O375	O	-0.212690	1.028435	0.784311
	H376	H	-0.233476	1.045319	0.763175
	H377	H	-0.222389	1.053875	0.788401
	O378	O	0.615470	0.479055	0.528020
	H379	H	0.614287	0.489773	0.515071
	H380	H	0.615171	0.485390	0.543689
	O381	O	0.979207	0.213521	0.025907
	H382	H	0.970579	0.213124	0.024725
	H383	H	0.988125	0.208098	0.039135
	O384	O	-0.034901	-0.023607	0.795252
	H385	H	-0.041971	-0.022894	0.793692
	H386	H	-0.041117	-0.024174	0.796223
	O387	O	-0.207366	1.212088	0.984771
	H388	H	-0.189989	1.224094	0.975386
	H389	H	-0.225201	1.220883	0.967635
	O390	O	0.212129	-0.202527	0.940721
	H391	H	0.228367	-0.204173	0.954417
	H392	H	0.206612	-0.210066	0.927513
	O393	O	0.817946	0.817857	0.183298
	H394	H	0.860998	0.810978	0.195200
	H395	H	0.810150	0.849299	0.174811
	O396	O	0.286870	0.304961	0.514562
	H397	H	0.271515	0.290587	0.536692
	H398	H	0.284310	0.301977	0.549440
	O399	O	-0.145930	1.157359	0.196117
	H400	H	-0.130269	1.139335	0.180783
	H401	H	-0.143086	1.138412	0.179275
	O402	O	0.088921	-0.140637	1.018073
	H403	H	0.071950	-0.144392	1.010128
	H404	H	0.095334	-0.120146	1.019889
	O405	O	-0.204748	-0.202376	0.023315
	H406	H	-0.188512	-0.201901	0.033999
	H407	H	-0.214933	-0.220628	0.032956
	O408	O	0.721248	0.530190	0.720648
	H409	H	0.752207	0.541718	0.755706
	H410	H	0.715252	0.570826	0.703212
	O411	O	0.608412	0.689917	0.460137
	H412	H	0.616105	0.690126	0.435209
	H413	H	0.611953	0.671407	0.440437
	O414	O	0.290100	0.482590	0.706022
	H415	H	0.266765	0.473820	0.730545
	H416	H	0.325931	0.492904	0.714369
	O417	O	0.359910	0.370298	0.450509
	H418	H	0.348719	0.358807	0.461154
	H419	H	0.367335	0.362347	0.462693
	O420	O	0.686478	0.320511	0.685570
	H421	H	0.669951	0.329239	0.660131
	H422	H	0.665821	0.342513	0.672541
	O423	O	-0.477852	0.713924	0.712366
	H424	H	-0.487539	0.739095	0.705684
	H425	H	-0.490679	0.738185	0.698351
	O426	O	1.155393	0.974254	1.030822
	H427	H	1.149738	0.973859	1.035420
	H428	H	1.157640	0.979199	1.025753
	O429	O	0.343393	0.443959	0.400371
	H430	H	0.318116	0.445728	0.394887
	H431	H	0.350822	0.426982	0.425292
	O432	O	0.901190	-0.091385	0.928212
	H433	H	0.911687	-0.078670	0.909929
	H434	H	0.889477	-0.098641	0.927614
	O435	O	0.217070	0.032962	0.216348
	H436	H	0.233788	0.039462	0.235997
	H437	H	0.219396	0.015746	0.216122
	O438	O	0.981900	-0.201279	0.205444
	H439	H	0.991111	-0.216320	0.211726
	H440	H	0.998240	-0.201780	0.203526
	O441	O	0.332973	0.557714	0.551581
	H442	H	0.336378	0.537036	0.535377
	H443	H	0.344288	0.543787	0.567309
	O444	O	0.021674	0.791223	0.786062
	H445	H	0.029996	0.764426	0.755855
	H446	H	0.029289	0.808776	0.795335
	O447	O	0.550321	0.509980	0.384330
	H448	H	0.553901	0.510021	0.370295
	H449	H	0.541849	0.517715	0.393652
	O450	O	0.463258	0.724359	0.299658
	H451	H	0.419617	0.716397	0.303758
	H452	H	0.452093	0.751593	0.267630
	O453	O	0.475500	0.293655	0.711382
	H454	H	0.485810	0.283431	0.730931
	H455	H	0.497255	0.304623	0.705611
	O456	O	0.659356	-0.330124	-0.533822
	H457	H	0.666128	-0.316772	-0.553606
	H458	H	0.659480	-0.341447	-0.536718
	O459	O	0.378794	0.438129	0.326001
	H460	H	0.369162	0.443346	0.331505
	H461	H	0.384284	0.437384	0.309393
	O462	O	0.269078	0.729178	0.271630
	H463	H	0.261807	0.729538	0.294299
	H464	H	0.267043	0.703985	0.276492
	O465	O	0.940363	0.058290	-0.001570
	H466	H	0.945020	0.063984	-0.015814
	H467	H	0.930016	0.049397	-0.000307
