data_Molecule from HDF5

_cell_length_a		16.643768
_cell_length_b		16.658077
_cell_length_c		16.563561
_cell_angle_alpha	90.033485
_cell_angle_beta	89.925944
_cell_angle_gamma	89.990180
_symmetry_space_group_name_H-M	'P 1'
_symmetry_Int_Tables_number		1

loop_
	_symmetry_equiv_pos_as_xyz
	x,y,z

loop_
	_atom_site_label
	_atom_site_type_symbol
	_atom_site_fract_x
	_atom_site_fract_y
	_atom_site_fract_z
	H0	H	0.399371	0.840294	0.705851
	H1	H	0.608100	0.150942	0.702683
	H2	H	0.612131	0.840029	0.260735
	H3	H	0.402128	0.151468	0.263951
	H4	H	0.725008	0.392187	0.827547
	H5	H	0.726492	0.600822	0.139343
	H6	H	0.282979	0.601417	0.829023
	H7	H	0.284371	0.391571	0.139950
	H8	H	0.852785	0.721388	0.373912
	H9	H	0.159534	0.717806	0.590051
	H10	H	0.852621	0.268948	0.594277
	H11	H	0.156043	0.266812	0.371672
	H12	H	0.852142	0.386482	0.709134
	H13	H	0.160340	0.599100	0.704746
	H14	H	0.851134	0.601041	0.261914
	H15	H	0.157740	0.385631	0.258644
	H16	H	0.397500	0.718672	0.829737
	H17	H	0.609167	0.715587	0.141043
	H18	H	0.608910	0.276684	0.826982
	H19	H	0.400208	0.275169	0.140547
	H20	H	0.727416	0.839470	0.377466
	H21	H	0.726821	0.149683	0.588955
	H22	H	0.283676	0.839581	0.589528
	H23	H	0.283549	0.149565	0.378503
	H24	H	0.897482	0.341060	0.207462
	H25	H	0.112680	0.648812	0.208507
	H26	H	0.109804	0.339894	0.762724
	H27	H	0.903951	0.650805	0.764467
	H28	H	0.226093	0.891250	0.326741
	H29	H	0.228363	0.103237	0.638618
	H30	H	0.782748	0.101402	0.328891
	H31	H	0.785311	0.889990	0.639738
	H32	H	0.348696	0.214737	0.882138
	H33	H	0.662018	0.215032	0.086792
	H34	H	0.349342	0.774247	0.090512
	H35	H	0.659134	0.772313	0.877309
	H36	H	0.350096	0.891731	0.205892
	H37	H	0.661834	0.099620	0.204107
	H38	H	0.348404	0.098302	0.765177
	H39	H	0.660333	0.890658	0.762912
	H40	H	0.897131	0.218333	0.329664
	H41	H	0.110974	0.217359	0.638591
	H42	H	0.110836	0.774469	0.326806
	H43	H	0.901795	0.774365	0.639187
	H44	H	0.227758	0.340404	0.878050
	H45	H	0.229514	0.648017	0.092508
	H46	H	0.781897	0.340990	0.090780
	H47	H	0.785855	0.650614	0.879712
	H48	H	0.419418	0.105940	0.574549
	H49	H	0.596367	0.882770	0.573941
	H50	H	0.591794	0.105271	0.393486
	H51	H	0.415903	0.883573	0.396101
	H52	H	0.597522	0.409186	0.096849
	H53	H	0.587085	0.585994	0.873539
	H54	H	0.419591	0.584250	0.094767
	H55	H	0.416043	0.406874	0.872467
	H56	H	0.115388	0.582332	0.397272
	H57	H	0.894195	0.581396	0.574433
	H58	H	0.112469	0.411226	0.567055
	H59	H	0.894898	0.410909	0.394184
	H60	H	0.116740	0.407917	0.574554
	H61	H	0.892331	0.587673	0.573214
	H62	H	0.116895	0.583179	0.394871
	H63	H	0.893367	0.402846	0.397061
	H64	H	0.415213	0.586316	0.096966
	H65	H	0.597298	0.589243	0.869079
	H66	H	0.589882	0.406678	0.094364
	H67	H	0.416909	0.405315	0.872111
	H68	H	0.596298	0.104175	0.397975
	H69	H	0.592414	0.883995	0.574111
	H70	H	0.414584	0.105970	0.569344
	H71	H	0.415642	0.882922	0.393123
	H72	H	0.922229	0.607179	0.082376
	H73	H	0.088227	0.386239	0.070781
	H74	H	0.093914	0.608740	0.887170
	H75	H	0.912589	0.382472	0.892956
	H76	H	0.096273	0.897562	0.598486
	H77	H	0.089159	0.076788	0.375713
	H78	H	0.919449	0.081375	0.593586
	H79	H	0.920285	0.907957	0.371842
	H80	H	0.618951	0.088781	0.891132
	H81	H	0.392274	0.088720	0.074941
	H82	H	0.614352	0.908326	0.067599
	H83	H	0.391799	0.907174	0.890338
	H84	H	0.616682	0.908371	0.075571
	H85	H	0.394693	0.085826	0.070722
	H86	H	0.616996	0.087005	0.895957
	H87	H	0.394180	0.901647	0.900203
	H88	H	0.917927	0.084532	0.596480
	H89	H	0.090203	0.085951	0.372137
	H90	H	0.100926	0.910339	0.596724
	H91	H	0.916373	0.903901	0.370100
	H92	H	0.090227	0.603207	0.897978
	H93	H	0.093277	0.386687	0.066938
	H94	H	0.922583	0.599977	0.063979
	H95	H	0.918325	0.383304	0.893692
	H96	H	0.412756	0.108290	0.575694
	H97	H	0.594585	0.884173	0.570213
	H98	H	0.597671	0.107675	0.392247
	H99	H	0.418210	0.883776	0.393966
	H100	H	0.595488	0.401671	0.097814
	H101	H	0.596184	0.579083	0.874663
	H102	H	0.415180	0.581027	0.095358
	H103	H	0.415717	0.405256	0.871027
	H104	H	0.116898	0.584705	0.397008
	H105	H	0.895305	0.583873	0.568298
	H106	H	0.115759	0.402709	0.567252
	H107	H	0.896229	0.409115	0.402365
	H108	H	0.906452	0.608897	0.070658
	H109	H	0.094110	0.383597	0.072729
	H110	H	0.101410	0.608671	0.897488
	H111	H	0.914586	0.383936	0.898463
	H112	H	0.088111	0.906879	0.592592
	H113	H	0.097834	0.079471	0.371808
	H114	H	0.915418	0.081204	0.596066
	H115	H	0.914695	0.909298	0.371504
	H116	H	0.616626	0.084023	0.891528
	H117	H	0.394117	0.083578	0.075857
	H118	H	0.617399	0.901365	0.070846
	H119	H	0.397909	0.912731	0.898816
	C120	C	0.383309	0.004041	0.605496
	C121	C	0.626394	0.986448	0.604850
	C122	C	0.627731	0.003307	0.361926
	C123	C	0.384327	0.986486	0.362379
	C124	C	0.626637	0.374307	-0.007215
	C125	C	0.625663	0.616625	0.975817
	C126	C	0.383563	0.616855	-0.006865
	C127	C	0.384538	0.374593	0.975613
	C128	C	0.014622	0.616775	0.362446
	C129	C	0.996795	0.616236	0.604431
	C130	C	0.013794	0.373310	0.604985
	C131	C	0.996196	0.373252	0.362893
	C132	C	0.883244	0.503590	0.105823
	C133	C	0.125295	0.487155	0.104304
	C134	C	0.127174	0.503908	0.862174
	C135	C	0.884297	0.486282	0.862872
	C136	C	0.127333	0.873372	0.492079
	C137	C	0.125775	0.115333	0.475399
	C138	C	0.884151	0.115669	0.492857
	C139	C	0.885223	0.874571	0.474691
	C140	C	0.513824	0.117391	0.862135
	C141	C	0.497192	0.117202	0.105072
	C142	C	0.513212	0.874564	0.104510
	C143	C	0.496571	0.874205	0.863091
	C144	C	0.381391	0.886734	0.665419
	C145	C	0.627512	0.103886	0.663682
	C146	C	0.630261	0.886627	0.301115
	C147	C	0.382836	0.104116	0.303375
	C148	C	0.685732	0.373011	0.874690
	C149	C	0.686000	0.618943	0.092917
	C150	C	0.322779	0.620000	0.875983
	C151	C	0.324454	0.373081	0.093268
	C152	C	0.898832	0.679600	0.357078
	C153	C	0.113311	0.676866	0.607690
	C154	C	0.898472	0.310600	0.610981
	C155	C	0.110628	0.309196	0.355956
	C156	C	0.898377	0.368863	0.668151
	C157	C	0.113649	0.618060	0.664668
	C158	C	0.897839	0.619829	0.301501
	C159	C	0.111226	0.368040	0.299449
	C160	C	0.379838	0.677887	0.876218
	C161	C	0.627850	0.676213	0.093358
	C162	C	0.627854	0.315730	0.874468
	C163	C	0.382155	0.315321	0.093462
	C164	C	0.687691	0.886493	0.359277
	C165	C	0.686448	0.103222	0.606924
	C166	C	0.323752	0.886465	0.607720
	C167	C	0.323882	0.103281	0.360170
	C168	C	0.879695	0.387456	0.166807
	C169	C	0.130110	0.602528	0.167286
	C170	C	0.128511	0.386297	0.802912
	C171	C	0.884099	0.604037	0.803893
	C172	C	0.186619	0.872467	0.374048
	C173	C	0.187148	0.119853	0.592027
	C174	C	0.823204	0.118960	0.375604
	C175	C	0.825525	0.872078	0.592689
	C176	C	0.395744	0.175532	0.862375
	C177	C	0.615031	0.175594	0.105867
	C178	C	0.396105	0.814610	0.108063
	C179	C	0.612784	0.813068	0.859621
	C180	C	0.396381	0.873016	0.165359
	C181	C	0.614881	0.118186	0.164088
	C182	C	0.395441	0.117526	0.804587
	C183	C	0.613473	0.871963	0.802894
	C184	C	0.879845	0.177240	0.376071
	C185	C	0.128981	0.176969	0.591899
	C186	C	0.129251	0.814503	0.373938
	C187	C	0.883328	0.814642	0.592559
	C188	C	0.187369	0.386976	0.859734
	C189	C	0.187926	0.602381	0.109303
	C190	C	0.822097	0.387513	0.108949
	C191	C	0.825592	0.603837	0.861114
	C192	C	0.408252	0.085415	0.580356
	C193	C	0.601705	0.904929	0.579888
	C194	C	0.602582	0.084514	0.387280
	C195	C	0.409298	0.904835	0.387068
	C196	C	0.601546	0.398811	0.075015
	C197	C	0.600715	0.591698	0.893825
	C198	C	0.409389	0.591140	0.074430
	C199	C	0.409257	0.398916	0.893312
	C200	C	0.095496	0.590754	0.388862
	C201	C	0.915281	0.591515	0.579172
	C202	C	0.093988	0.399838	0.577589
	C203	C	0.915798	0.399948	0.390265
	C204	C	0.909547	0.584541	0.079851
	C205	C	0.099303	0.406520	0.077767
	C206	C	0.102153	0.585624	0.887023
	C207	C	0.908232	0.404583	0.887682
	C208	C	0.102255	0.897818	0.574515
	C209	C	0.099768	0.088496	0.394390
	C210	C	0.910332	0.089778	0.574172
	C211	C	0.910152	0.899573	0.392581
	C212	C	0.596061	0.093459	0.885876
	C213	C	0.414974	0.093036	0.080928
	C214	C	0.594905	0.898977	0.078738
	C215	C	0.415707	0.899812	0.888950
	Zn216	Zn	0.504970	-0.004609	0.733677
	Zn217	Zn	0.506186	-0.004390	0.233904
	Zn218	Zn	0.754981	0.495534	-0.016164
	Zn219	Zn	0.255576	0.495204	-0.016337
	Zn220	Zn	0.005471	0.745285	0.483246
	Zn221	Zn	0.004647	0.244265	0.483681
	Zn222	Zn	0.005760	0.494676	0.733561
	Zn223	Zn	0.005039	0.494766	0.234473
	Zn224	Zn	0.504366	0.744911	-0.015611
	Zn225	Zn	0.505381	0.246114	-0.016004
	Zn226	Zn	0.756175	-0.005464	0.483551
	Zn227	Zn	0.255443	-0.005088	0.483891
	N228	N	0.417591	0.960819	0.664390
	N229	N	0.591185	0.029993	0.662927
	N230	N	0.593631	0.960373	0.302492
	N231	N	0.419439	0.030222	0.304282
	N232	N	0.685349	0.408667	0.949333
	N233	N	0.685045	0.582611	0.018516
	N234	N	0.324616	0.582856	0.949898
	N235	N	0.325579	0.409078	0.018723
	N236	N	0.972438	0.677791	0.394369
	N237	N	0.039383	0.676072	0.571129
	N238	N	0.971273	0.313001	0.572291
	N239	N	0.037832	0.312145	0.394692
	N240	N	0.971217	0.407071	0.664721
	N241	N	0.040024	0.581165	0.662914
	N242	N	0.970750	0.581531	0.304549
	N243	N	0.039004	0.407195	0.303598
	N244	N	0.416881	0.676157	0.950011
	N245	N	0.591351	0.675177	0.019285
	N246	N	0.591801	0.316305	0.948955
	N247	N	0.418748	0.316105	0.019238
	N248	N	0.686235	0.960060	0.396444
	N249	N	0.686242	0.028973	0.571340
	N250	N	0.324537	0.960514	0.571161
	N251	N	0.324604	0.029092	0.396020
	N252	N	0.917094	0.460798	0.164986
	N253	N	0.091602	0.529783	0.164352
	N254	N	0.091945	0.460212	0.804182
	N255	N	0.919712	0.529803	0.804442
	N256	N	0.185773	0.908000	0.448767
	N257	N	0.185519	0.082182	0.518401
	N258	N	0.825564	0.081507	0.449401
	N259	N	0.826620	0.908537	0.518385
	N260	N	0.470475	0.175785	0.897223
	N261	N	0.540806	0.175240	0.070009
	N262	N	0.470043	0.815263	0.071122
	N263	N	0.539053	0.814311	0.896496
	N264	N	0.470227	0.909415	0.163472
	N265	N	0.540514	0.082462	0.163808
	N266	N	0.470063	0.082366	0.803993
	N267	N	0.540223	0.909464	0.804841
	N268	N	0.917013	0.175455	0.449965
	N269	N	0.091386	0.174144	0.518235
	N270	N	0.093042	0.814822	0.448555
	N271	N	0.919742	0.815954	0.518128
	N272	N	0.186639	0.461096	0.895765
	N273	N	0.184896	0.529694	0.070674
	N274	N	0.824183	0.461004	0.071614
	N275	N	0.825493	0.529732	0.896934
	O276	O	0.161024	0.870500	0.088570
	H277	H	0.148818	0.872981	0.073096
	H278	H	0.156125	0.873645	0.102364
	O279	O	0.313576	0.700400	0.277562
	H280	H	0.306658	0.700507	0.275686
	H281	H	0.304316	0.666961	0.289670
	O282	O	0.781467	0.024106	0.758644
	H283	H	0.766280	0.042552	0.739282
	H284	H	0.774357	0.058004	0.754185
	O285	O	0.274072	0.556656	0.540550
	H286	H	0.273064	0.578783	0.563951
	H287	H	0.283443	0.564105	0.545433
	O288	O	0.471325	0.267662	0.708499
	H289	H	0.438000	0.264668	0.698486
	H290	H	0.458934	0.240919	0.736894
	O291	O	0.277968	0.273174	0.503720
	H292	H	0.272272	0.259216	0.523711
	H293	H	0.269187	0.263076	0.535815
	O294	O	1.173480	-0.027501	1.050813
	H295	H	1.169167	-0.026588	1.039637
	H296	H	1.169607	-0.045888	1.039717
	O297	O	0.294160	0.541207	0.272848
	H298	H	0.283007	0.528156	0.269733
	H299	H	0.287004	0.516452	0.294259
	O300	O	-0.463116	-0.477167	1.294965
	H301	H	-0.473633	-0.477408	1.296045
	H302	H	-0.478521	-0.475630	1.298687
	O303	O	0.588245	0.574106	0.625740
	H304	H	0.605476	0.570829	0.630793
	H305	H	0.581198	0.574633	0.613650
	O306	O	0.425596	0.301692	0.476360
	H307	H	0.423436	0.298483	0.474463
	H308	H	0.423890	0.304741	0.478061
	O309	O	0.313104	0.681498	0.671805
	H310	H	0.336130	0.676273	0.673310
	H311	H	0.286904	0.710687	0.697962
	O312	O	0.576713	0.699563	0.434681
	H313	H	0.564551	0.699601	0.433873
	H314	H	0.572001	0.705881	0.422644
	O315	O	1.175744	1.047936	0.980235
	H316	H	1.178587	1.043773	0.977572
	H317	H	1.176203	1.072489	0.980305
	O318	O	0.518360	0.715958	0.703831
	H319	H	0.526304	0.728220	0.707042
	H320	H	0.542998	0.709465	0.715112
	O321	O	0.211583	0.783336	0.774066
	H322	H	0.163223	0.786394	0.770323
	H323	H	0.216353	0.795174	0.815078
	O324	O	0.889186	1.187963	-0.073861
	H325	H	0.892750	1.197165	-0.066707
	H326	H	0.913010	1.191555	-0.062950
	O327	O	0.023904	0.210848	1.197943
	H328	H	0.040897	0.231504	1.214484
	H329	H	0.056689	0.204371	1.199001
	O330	O	0.488523	0.348470	0.261575
	H331	H	0.515969	0.349801	0.259058
	H332	H	0.497544	0.342878	0.254368
	O333	O	0.457227	0.712726	0.505618
	H334	H	0.459892	0.711319	0.509023
	H335	H	0.449937	0.709268	0.509670
	O336	O	0.573785	0.431816	0.393763
	H337	H	0.568913	0.427129	0.400706
	H338	H	0.590305	0.432488	0.402722
	O339	O	1.082851	-0.093683	0.925030
	H340	H	1.085241	-0.090417	0.939270
	H341	H	1.072260	-0.093556	0.932046
	O342	O	-0.221178	-0.186917	-0.008751
	H343	H	-0.228956	-0.172700	0.000603
	H344	H	-0.229740	-0.190160	-0.009147
	O345	O	0.223642	1.032563	1.206269
	H346	H	0.231591	1.007460	1.180319
	H347	H	0.250875	1.028367	1.227433
	O348	O	0.205742	0.198299	0.188597
	H349	H	0.239453	0.228480	0.220213
	H350	H	0.213302	0.151132	0.192074
	O351	O	0.708270	0.459897	0.284478
	H352	H	0.718478	0.464801	0.277383
	H353	H	0.696157	0.477687	0.277244
	O354	O	-0.202710	-0.212794	1.190394
	H355	H	-0.176900	-0.213153	1.173015
	H356	H	-0.207721	-0.231511	1.201053
	O357	O	0.492225	0.421609	0.589598
	H358	H	0.491488	0.412663	0.584409
	H359	H	0.494220	0.414192	0.587423
	O360	O	0.299034	0.285982	0.687042
	H361	H	0.281150	0.310991	0.704003
	H362	H	0.278607	0.287686	0.706656
	O363	O	-0.024161	-0.162519	0.192933
	H364	H	-0.020294	-0.159374	0.203202
	H365	H	-0.013915	-0.164587	0.200704
	O366	O	0.694845	0.310983	0.666226
	H367	H	0.681785	0.327364	0.655765
	H368	H	0.676907	0.324341	0.648842
	O369	O	0.616975	0.284539	0.280589
	H370	H	0.623281	0.271492	0.268925
	H371	H	0.616046	0.296623	0.304721
	O372	O	0.753180	1.246958	0.232721
	H373	H	0.755446	1.265907	0.222505
	H374	H	0.744048	1.253729	0.252591
	O375	O	0.963394	-0.190231	-0.069646
	H376	H	0.960783	-0.191525	-0.059588
	H377	H	0.964739	-0.189940	-0.070360
	O378	O	0.737020	0.441683	0.539677
	H379	H	0.734704	0.445321	0.537719
	H380	H	0.741310	0.441282	0.527126
	O381	O	0.221673	0.989146	0.795115
	H382	H	0.250178	0.985710	0.771717
	H383	H	0.211660	0.968383	0.816720
	O384	O	0.963886	0.022769	1.162387
	H385	H	0.955015	0.044625	1.167526
	H386	H	0.945194	0.035524	1.154838
	O387	O	0.828193	1.128050	0.141366
	H388	H	0.815886	1.108393	0.141053
	H389	H	0.816865	1.137278	0.166177
	O390	O	0.482834	0.709258	0.269565
	H391	H	0.465443	0.713389	0.258231
	H392	H	0.459856	0.721952	0.265058
	O393	O	0.281068	0.453902	0.697557
	H394	H	0.262677	0.469268	0.718370
	H395	H	0.308373	0.476643	0.708242
	O396	O	0.038113	1.119881	0.951764
	H397	H	0.027978	1.113663	0.969117
	H398	H	0.039499	1.116201	0.955013
	O399	O	-0.217735	0.156164	0.981970
	H400	H	-0.203411	0.161606	1.001096
	H401	H	-0.232865	0.174146	0.992157
	O402	O	0.725624	0.277549	0.458843
	H403	H	0.718435	0.265429	0.469383
	H404	H	0.741023	0.268406	0.446866
	O405	O	1.074892	0.140736	0.986249
	H406	H	1.083953	0.130317	0.987313
	H407	H	1.066317	0.148397	1.007718
	O408	O	0.025301	0.019189	-0.018788
	H409	H	0.023058	0.016422	-0.023846
	H410	H	0.026039	0.029056	-0.006307
	O411	O	1.052179	1.051723	0.758495
	H412	H	1.050304	1.065762	0.766686
	H413	H	1.064045	1.052158	0.754888
	O414	O	0.295317	0.421151	0.398803
	H415	H	0.296070	0.415627	0.427258
	H416	H	0.298771	0.426598	0.420965
	O417	O	0.576390	0.438240	0.639486
	H418	H	0.568382	0.426001	0.643923
	H419	H	0.567135	0.443773	0.629413
	O420	O	0.684764	0.674951	0.306019
	H421	H	0.673948	0.678724	0.310326
	H422	H	0.674229	0.667904	0.323086
	O423	O	-0.047049	-0.067714	0.758091
	H424	H	-0.050927	-0.046281	0.755952
	H425	H	-0.059347	-0.044649	0.758150
	O426	O	0.281592	0.718069	0.448079
	H427	H	0.250912	0.752284	0.444370
	H428	H	0.302534	0.709733	0.448473
	O429	O	0.877630	0.971816	1.050176
	H430	H	0.872943	0.982965	1.044642
	H431	H	0.869828	0.956792	1.070268
	O432	O	0.429439	0.541524	0.711369
	H433	H	0.441728	0.545527	0.697814
	H434	H	0.450669	0.546760	0.711059
	O435	O	0.026345	1.103210	-0.029013
	H436	H	0.020949	1.095487	-0.037625
	H437	H	0.032188	1.101223	-0.028085
	O438	O	-0.016561	0.208101	-0.228074
	H439	H	-0.021458	0.226452	-0.229691
	H440	H	-0.034795	0.208342	-0.232632
	O441	O	0.024572	-0.114970	0.074072
	H442	H	0.016857	-0.113222	0.076291
	H443	H	0.023478	-0.123389	0.088754
	O444	O	0.502060	0.480840	0.490689
	H445	H	0.494187	0.479749	0.506404
	H446	H	0.512327	0.481841	0.488007
	O447	O	0.218642	1.214206	1.009335
	H448	H	0.235700	1.234011	1.022004
	H449	H	0.207995	1.215315	1.032089
	O450	O	0.223791	0.778554	0.956257
	H451	H	0.220248	0.772443	0.963643
	H452	H	0.229576	0.763321	0.962797
	O453	O	0.578082	0.489871	0.544545
	H454	H	0.567847	0.496867	0.546349
	H455	H	0.580320	0.509019	0.551132
	O456	O	0.193974	0.187395	0.795639
	H457	H	0.172378	0.185066	0.822645
	H458	H	0.179140	0.155999	0.804726
	O459	O	0.630091	0.595907	0.503888
	H460	H	0.626861	0.616803	0.514437
	H461	H	0.631374	0.597148	0.488979
	O462	O	0.821480	0.804392	0.799428
	H463	H	0.828529	0.837751	0.814420
	H464	H	0.846886	0.807886	0.820422
	O465	O	0.782879	-0.033932	0.202134
	H466	H	0.754940	-0.044227	0.231747
	H467	H	0.786320	-0.068523	0.189751
	O468	O	0.619362	0.552526	0.352249
	H469	H	0.616442	0.564368	0.359725
	H470	H	0.623204	0.563577	0.344781
	O471	O	0.469856	0.297538	0.479684
	H472	H	0.466832	0.301001	0.487988
	H473	H	0.456653	0.296071	0.490331
	O474	O	0.418957	0.502430	0.384226
	H475	H	0.416403	0.501461	0.383866
	H476	H	0.427889	0.499925	0.387564
	O477	O	0.305023	0.296575	1.286876
	H478	H	0.332278	0.310846	1.304906
	H479	H	0.310431	0.321911	1.303919
	O480	O	0.703628	0.685556	0.480060
	H481	H	0.694785	0.693237	0.498555
	H482	H	0.719361	0.696630	0.490792
	O483	O	0.733772	0.530608	0.705097
	H484	H	0.740488	0.526347	0.690001
	H485	H	0.758504	0.544278	0.728924
	O486	O	1.063883	-0.243423	1.041649
	H487	H	1.045318	-0.247673	1.037773
	H488	H	1.056648	-0.237768	1.043058
	O489	O	1.037520	0.783323	-0.226987
	H490	H	1.017659	0.799724	-0.228940
	H491	H	1.029943	0.779002	-0.237237
	O492	O	0.033205	-0.107288	0.142365
	H493	H	0.013565	-0.082261	0.145535
	H494	H	0.049802	-0.090318	0.149202
	O495	O	-0.207660	0.912730	0.932837
	H496	H	-0.218714	0.909516	0.921236
	H497	H	-0.213155	0.930549	0.923347
	O498	O	0.795086	1.204151	0.832019
	H499	H	0.762935	1.237097	0.811845
	H500	H	0.802123	1.209190	0.872499
	O501	O	0.722346	0.710713	0.694612
	H502	H	0.753833	0.741103	0.728371
	H503	H	0.713056	0.685837	0.686361
