data_Molecule from HDF5

_cell_length_a		16.320335
_cell_length_b		16.240866
_cell_length_c		16.148426
_cell_angle_alpha	90.001539
_cell_angle_beta	90.107925
_cell_angle_gamma	90.115922
_symmetry_space_group_name_H-M	'P 1'
_symmetry_Int_Tables_number		1

loop_
	_symmetry_equiv_pos_as_xyz
	x,y,z

loop_
	_atom_site_label
	_atom_site_type_symbol
	_atom_site_fract_x
	_atom_site_fract_y
	_atom_site_fract_z
	H0	H	0.401426	0.834958	0.712028
	H1	H	0.595089	0.163944	0.713726
	H2	H	0.593428	0.834838	0.286811
	H3	H	0.400837	0.164097	0.286789
	H4	H	0.710063	0.400955	0.835871
	H5	H	0.711576	0.598157	0.165887
	H6	H	0.282031	0.600045	0.836500
	H7	H	0.283504	0.400602	0.165077
	H8	H	0.833770	0.713503	0.402009
	H9	H	0.160818	0.714585	0.600595
	H10	H	0.834693	0.282837	0.599454
	H11	H	0.161487	0.285969	0.402165
	H12	H	0.833047	0.401888	0.712852
	H13	H	0.161627	0.596859	0.714475
	H14	H	0.833757	0.595315	0.287434
	H15	H	0.161395	0.402600	0.287677
	H16	H	0.399736	0.711652	0.835086
	H17	H	0.595539	0.712942	0.165954
	H18	H	0.594221	0.286857	0.835695
	H19	H	0.400290	0.286363	0.165733
	H20	H	0.712529	0.835752	0.400573
	H21	H	0.713257	0.163127	0.600594
	H22	H	0.282053	0.836162	0.599922
	H23	H	0.283346	0.163452	0.399664
	H24	H	0.901568	0.333662	0.212113
	H25	H	0.094224	0.663899	0.213607
	H26	H	0.092644	0.335029	0.788384
	H27	H	0.898887	0.663882	0.786917
	H28	H	0.209956	0.902053	0.335010
	H29	H	0.212239	0.097940	0.664262
	H30	H	0.783214	0.098179	0.336041
	H31	H	0.782864	0.898537	0.664655
	H32	H	0.333569	0.213457	0.901380
	H33	H	0.661513	0.213879	0.099358
	H34	H	0.333831	0.783336	0.100319
	H35	H	0.660153	0.784793	0.902958
	H36	H	0.333163	0.902588	0.213404
	H37	H	0.660916	0.096586	0.214133
	H38	H	0.333627	0.095832	0.786379
	H39	H	0.661128	0.901579	0.787039
	H40	H	0.900681	0.210996	0.334917
	H41	H	0.096462	0.212854	0.665171
	H42	H	0.096102	0.785728	0.335627
	H43	H	0.900557	0.786653	0.665702
	H44	H	0.212357	0.336043	0.900431
	H45	H	0.212112	0.663401	0.099815
	H46	H	0.783375	0.335386	0.099433
	H47	H	0.781655	0.662829	0.901097
	H48	H	0.415863	0.112875	0.590384
	H49	H	0.596492	0.880630	0.593825
	H50	H	0.585670	0.112936	0.413883
	H51	H	0.404355	0.881759	0.405985
	H52	H	0.590140	0.411563	0.116673
	H53	H	0.593900	0.601027	0.880029
	H54	H	0.403896	0.579653	0.114410
	H55	H	0.395818	0.404862	0.880157
	H56	H	0.110437	0.585824	0.414780
	H57	H	0.881676	0.597422	0.587623
	H58	H	0.112663	0.405068	0.590372
	H59	H	0.882588	0.403486	0.414178
	H60	H	0.113691	0.408992	0.595839
	H61	H	0.883077	0.586741	0.592091
	H62	H	0.116615	0.591490	0.397879
	H63	H	0.881075	0.410946	0.403799
	H64	H	0.416161	0.598320	0.116901
	H65	H	0.596792	0.583310	0.882733
	H66	H	0.587677	0.402083	0.119485
	H67	H	0.406117	0.414385	0.884932
	H68	H	0.600415	0.117893	0.410138
	H69	H	0.587836	0.881981	0.596691
	H70	H	0.394905	0.117036	0.583660
	H71	H	0.402234	0.882908	0.407855
	H72	H	0.905770	0.615667	0.092382
	H73	H	0.092345	0.382213	0.094689
	H74	H	0.097682	0.616204	0.915194
	H75	H	0.898560	0.379715	0.902344
	H76	H	0.091378	0.904160	0.618850
	H77	H	0.081836	0.102144	0.381662
	H78	H	0.911867	0.091513	0.616082
	H79	H	0.894269	0.914604	0.381446
	H80	H	0.617737	0.101700	0.902228
	H81	H	0.383963	0.088885	0.089631
	H82	H	0.612659	0.904800	0.088953
	H83	H	0.383015	0.912048	0.908845
	H84	H	0.612401	0.910215	0.093455
	H85	H	0.378631	0.093211	0.099480
	H86	H	0.611843	0.094822	0.916541
	H87	H	0.377885	0.905139	0.898047
	H88	H	0.902853	0.096990	0.620842
	H89	H	0.103496	0.097093	0.376875
	H90	H	0.094765	0.908544	0.618536
	H91	H	0.915348	0.911953	0.387363
	H92	H	0.091999	0.619996	0.899585
	H93	H	0.091614	0.382442	0.093621
	H94	H	0.901643	0.616565	0.092544
	H95	H	0.909936	0.383970	0.905159
	H96	H	0.401064	0.121688	0.605006
	H97	H	0.590801	0.884172	0.587451
	H98	H	0.588227	0.118953	0.399058
	H99	H	0.401943	0.881547	0.405856
	H100	H	0.596472	0.405752	0.120820
	H101	H	0.580733	0.591662	0.886459
	H102	H	0.395012	0.597301	0.123176
	H103	H	0.409779	0.400124	0.881874
	H104	H	0.115513	0.603776	0.411948
	H105	H	0.879303	0.595783	0.598798
	H106	H	0.115309	0.402494	0.596339
	H107	H	0.877780	0.398390	0.402892
	H108	H	0.903841	0.617404	0.096286
	H109	H	0.092919	0.380876	0.093500
	H110	H	0.082132	0.613585	0.911284
	H111	H	0.900721	0.382905	0.914604
	H112	H	0.089756	0.908567	0.617536
	H113	H	0.089709	0.081462	0.385974
	H114	H	0.901656	0.085798	0.618081
	H115	H	0.904149	0.894137	0.379232
	H116	H	0.612745	0.085780	0.902860
	H117	H	0.380179	0.099720	0.090027
	H118	H	0.615511	0.904533	0.096103
	H119	H	0.379516	0.898492	0.910443
	C120	C	0.376024	0.008246	0.621235
	C121	C	0.619972	0.990637	0.621841
	C122	C	0.619149	0.007806	0.378944
	C123	C	0.375388	0.991141	0.378313
	C124	C	0.618900	0.378188	0.009615
	C125	C	0.618845	0.620433	0.992353
	C126	C	0.376547	0.620634	0.009142
	C127	C	0.375815	0.378047	0.991636
	C128	C	0.006180	0.622031	0.378795
	C129	C	0.989223	0.621789	0.622162
	C130	C	0.005676	0.377505	0.621938
	C131	C	0.989064	0.376931	0.378776
	C132	C	0.875977	0.507598	0.121946
	C133	C	0.119832	0.490725	0.122143
	C134	C	0.118635	0.508141	0.879682
	C135	C	0.874667	0.490589	0.878610
	C136	C	0.119250	0.878737	0.509027
	C137	C	0.119640	0.121580	0.490806
	C138	C	0.876802	0.120211	0.509156
	C139	C	0.876415	0.878493	0.491637
	C140	C	0.505862	0.121949	0.878341
	C141	C	0.489191	0.122008	0.121984
	C142	C	0.505274	0.878127	0.121638
	C143	C	0.488353	0.877710	0.878563
	C144	C	0.380128	0.884279	0.674937
	C145	C	0.616523	0.114728	0.676378
	C146	C	0.615479	0.884257	0.323793
	C147	C	0.379619	0.114966	0.323915
	C148	C	0.672586	0.380751	0.885160
	C149	C	0.673988	0.618480	0.116587
	C150	C	0.320323	0.619508	0.885351
	C151	C	0.321235	0.380368	0.115799
	C152	C	0.882952	0.676400	0.381381
	C153	C	0.111941	0.677110	0.620890
	C154	C	0.883122	0.321362	0.619714
	C155	C	0.112419	0.323290	0.381844
	C156	C	0.882269	0.380385	0.676198
	C157	C	0.112386	0.618595	0.677469
	C158	C	0.882731	0.617746	0.324341
	C159	C	0.112566	0.381439	0.325041
	C160	C	0.378758	0.675201	0.884800
	C161	C	0.616450	0.675746	0.116404
	C162	C	0.615000	0.324371	0.885027
	C163	C	0.379180	0.323764	0.116311
	C164	C	0.674112	0.884391	0.380774
	C165	C	0.675157	0.114252	0.620113
	C166	C	0.320751	0.884885	0.619366
	C167	C	0.320961	0.114491	0.379960
	C168	C	0.880269	0.383202	0.175438
	C169	C	0.115406	0.614792	0.176424
	C170	C	0.114229	0.384125	0.825403
	C171	C	0.877640	0.614521	0.824074
	C172	C	0.173271	0.881047	0.384645
	C173	C	0.174235	0.118556	0.615217
	C174	C	0.821527	0.118022	0.385012
	C175	C	0.821414	0.879647	0.615794
	C176	C	0.382493	0.175683	0.881131
	C177	C	0.612399	0.176321	0.119530
	C178	C	0.382559	0.821993	0.119982
	C179	C	0.611679	0.822732	0.881570
	C180	C	0.381991	0.881173	0.175979
	C181	C	0.612225	0.118183	0.176888
	C182	C	0.382522	0.117432	0.823609
	C183	C	0.611947	0.880811	0.824228
	C184	C	0.879613	0.174410	0.384796
	C185	C	0.116682	0.175369	0.615610
	C186	C	0.116062	0.823664	0.384871
	C187	C	0.879446	0.823643	0.616232
	C188	C	0.173793	0.384762	0.881019
	C189	C	0.174074	0.614512	0.119734
	C190	C	0.821446	0.384029	0.119453
	C191	C	0.819466	0.614051	0.880848
	C192	C	0.397576	0.094849	0.599445
	C193	C	0.598093	0.904441	0.599518
	C194	C	0.597750	0.094372	0.401282
	C195	C	0.396612	0.904409	0.400000
	C196	C	0.597685	0.399892	0.096535
	C197	C	0.596916	0.598420	0.905371
	C198	C	0.398501	0.598213	0.095832
	C199	C	0.397454	0.399857	0.904837
	C200	C	0.092023	0.600089	0.401368
	C201	C	0.903486	0.599738	0.599510
	C202	C	0.091651	0.399174	0.600575
	C203	C	0.902737	0.398079	0.400374
	C204	C	0.897409	0.594249	0.100053
	C205	C	0.098768	0.404153	0.100430
	C206	C	0.096977	0.594313	0.902053
	C207	C	0.896555	0.404450	0.900804
	C208	C	0.098106	0.900680	0.595963
	C209	C	0.098096	0.100018	0.403829
	C210	C	0.898834	0.097986	0.595884
	C211	C	0.897920	0.900531	0.405083
	C212	C	0.592151	0.100353	0.900594
	C213	C	0.402985	0.100257	0.099607
	C214	C	0.591142	0.900091	0.099471
	C215	C	0.402415	0.898940	0.899593
	Zn216	Zn	0.497868	-0.000435	0.749613
	Zn217	Zn	0.496878	-0.000570	0.250165
	Zn218	Zn	0.746880	0.499088	0.000706
	Zn219	Zn	0.248401	0.499969	0.000521
	Zn220	Zn	-0.002390	0.750936	0.500900
	Zn221	Zn	-0.002018	0.248336	0.500192
	Zn222	Zn	-0.002821	0.499944	0.751096
	Zn223	Zn	-0.002690	0.498619	0.250441
	Zn224	Zn	0.496844	0.748693	0.000293
	Zn225	Zn	0.497651	0.250779	0.000580
	Zn226	Zn	0.748660	-0.000621	0.500520
	Zn227	Zn	0.247642	-0.000002	0.499224
	N228	N	0.413732	0.961946	0.676294
	N229	N	0.583067	0.036998	0.677814
	N230	N	0.582034	0.961897	0.322698
	N231	N	0.412772	0.037121	0.322847
	N232	N	0.674760	0.413621	0.963613
	N233	N	0.675472	0.584581	0.038483
	N234	N	0.318912	0.586158	0.963770
	N235	N	0.318963	0.413468	0.037375
	N236	N	0.960770	0.679084	0.414586
	N237	N	0.034476	0.679109	0.587102
	N238	N	0.960739	0.319487	0.586771
	N239	N	0.034612	0.320506	0.414554
	N240	N	0.959408	0.414764	0.677796
	N241	N	0.034934	0.584829	0.678423
	N242	N	0.960166	0.584515	0.322677
	N243	N	0.034716	0.413938	0.322918
	N244	N	0.412979	0.675890	0.962678
	N245	N	0.582845	0.677191	0.038184
	N246	N	0.582131	0.322745	0.963461
	N247	N	0.412474	0.322259	0.038201
	N248	N	0.676660	0.962477	0.414203
	N249	N	0.677511	0.036113	0.586999
	N250	N	0.318025	0.963256	0.586812
	N251	N	0.318363	0.036419	0.412889
	N252	N	0.913349	0.461177	0.177339
	N253	N	0.082471	0.536682	0.178029
	N254	N	0.080699	0.461819	0.824426
	N255	N	0.911352	0.536923	0.822634
	N256	N	0.175463	0.914440	0.462906
	N257	N	0.176256	0.085726	0.536682
	N258	N	0.819701	0.085019	0.463497
	N259	N	0.819277	0.913047	0.537528
	N260	N	0.460307	0.178911	0.914124
	N261	N	0.534835	0.178555	0.086107
	N262	N	0.460309	0.819965	0.086826
	N263	N	0.534063	0.820565	0.914597
	N264	N	0.459118	0.915390	0.177079
	N265	N	0.534454	0.085117	0.178456
	N266	N	0.460346	0.084975	0.821798
	N267	N	0.534467	0.914118	0.822117
	N268	N	0.913092	0.175881	0.462969
	N269	N	0.083392	0.177198	0.537265
	N270	N	0.083347	0.822073	0.463323
	N271	N	0.913187	0.822856	0.538198
	N272	N	0.176291	0.462742	0.914530
	N273	N	0.176990	0.536360	0.086892
	N274	N	0.818675	0.462311	0.087012
	N275	N	0.817790	0.536068	0.914313
	O276	O	0.939918	0.007573	1.008548
	H277	H	0.939374	0.011370	1.007645
	H278	H	0.935261	-0.000458	1.011847
	O279	O	0.510835	0.503658	0.533944
	H280	H	0.511792	0.505645	0.533002
	H281	H	0.514888	0.494841	0.535165
	O282	O	0.948714	1.009581	0.007642
	H283	H	0.940677	1.005428	0.009912
	H284	H	0.948667	1.007933	0.010378
	O285	O	0.488129	0.504824	0.538714
	H286	H	0.487251	0.507246	0.542323
	H287	H	0.487860	0.497474	0.537492
