data_Molecule from HDF5

_cell_length_a		16.072101
_cell_length_b		16.217090
_cell_length_c		16.313409
_cell_angle_alpha	90.190156
_cell_angle_beta	90.236628
_cell_angle_gamma	89.729948
_symmetry_space_group_name_H-M	'P 1'
_symmetry_Int_Tables_number		1

loop_
	_symmetry_equiv_pos_as_xyz
	x,y,z

loop_
	_atom_site_label
	_atom_site_type_symbol
	_atom_site_fract_x
	_atom_site_fract_y
	_atom_site_fract_z
	H0	H	0.400968	0.834762	0.712096
	H1	H	0.601588	0.162359	0.715210
	H2	H	0.603189	0.835931	0.279831
	H3	H	0.397322	0.163042	0.281695
	H4	H	0.713893	0.400689	0.832528
	H5	H	0.715966	0.597727	0.160140
	H6	H	0.286052	0.596952	0.832642
	H7	H	0.290714	0.403330	0.160923
	H8	H	0.835219	0.711915	0.398549
	H9	H	0.166527	0.710927	0.595622
	H10	H	0.835066	0.287377	0.593265
	H11	H	0.166458	0.285183	0.398949
	H12	H	0.835563	0.401010	0.709856
	H13	H	0.165356	0.599162	0.711832
	H14	H	0.836059	0.599344	0.281551
	H15	H	0.165970	0.398055	0.283321
	H16	H	0.400080	0.713964	0.832751
	H17	H	0.602295	0.715826	0.159622
	H18	H	0.602134	0.281054	0.834004
	H19	H	0.403001	0.284704	0.159853
	H20	H	0.712628	0.833534	0.401975
	H21	H	0.712906	0.164351	0.594446
	H22	H	0.290485	0.833644	0.591571
	H23	H	0.286431	0.163339	0.400533
	H24	H	0.900742	0.335429	0.211382
	H25	H	0.101090	0.662615	0.213759
	H26	H	0.104087	0.335579	0.780246
	H27	H	0.899678	0.663121	0.781306
	H28	H	0.214744	0.899346	0.332766
	H29	H	0.215436	0.095121	0.660502
	H30	H	0.786202	0.096212	0.332838
	H31	H	0.790079	0.903209	0.661635
	H32	H	0.335691	0.212384	0.898880
	H33	H	0.666884	0.211108	0.095528
	H34	H	0.334794	0.787337	0.093561
	H35	H	0.666299	0.784409	0.898744
	H36	H	0.335255	0.902789	0.208938
	H37	H	0.665349	0.100171	0.212997
	H38	H	0.336257	0.098904	0.782333
	H39	H	0.666059	0.897526	0.783336
	H40	H	0.900851	0.212965	0.332461
	H41	H	0.102993	0.215429	0.659151
	H42	H	0.100069	0.781895	0.333765
	H43	H	0.902547	0.784355	0.660127
	H44	H	0.214913	0.334532	0.900301
	H45	H	0.213144	0.664924	0.093275
	H46	H	0.791929	0.333784	0.090786
	H47	H	0.787701	0.664424	0.900556
	H48	H	0.411263	0.114040	0.587850
	H49	H	0.593694	0.883009	0.588600
	H50	H	0.588640	0.115800	0.403741
	H51	H	0.405606	0.880307	0.400335
	H52	H	0.600305	0.411360	0.112568
	H53	H	0.595809	0.582662	0.882176
	H54	H	0.411099	0.594443	0.112405
	H55	H	0.409356	0.418438	0.883490
	H56	H	0.120139	0.596725	0.411803
	H57	H	0.888535	0.583229	0.577713
	H58	H	0.121038	0.411938	0.599887
	H59	H	0.880331	0.407366	0.396369
	H60	H	0.121619	0.395195	0.589456
	H61	H	0.879966	0.584373	0.602555
	H62	H	0.116537	0.580782	0.406589
	H63	H	0.881267	0.400824	0.405654
	H64	H	0.407781	0.595451	0.113681
	H65	H	0.583874	0.596241	0.882068
	H66	H	0.589021	0.405140	0.111376
	H67	H	0.420065	0.397590	0.880983
	H68	H	0.594570	0.116003	0.407471
	H69	H	0.599275	0.880710	0.591954
	H70	H	0.404886	0.117528	0.591297
	H71	H	0.413094	0.881122	0.398658
	H72	H	0.904806	0.615903	0.082093
	H73	H	0.099794	0.384116	0.078751
	H74	H	0.086568	0.613913	0.908716
	H75	H	0.909548	0.381212	0.897030
	H76	H	0.088961	0.912990	0.609945
	H77	H	0.083117	0.085248	0.384743
	H78	H	0.914075	0.094052	0.611604
	H79	H	0.906641	0.901397	0.379418
	H80	H	0.623121	0.091924	0.896527
	H81	H	0.383080	0.091483	0.088331
	H82	H	0.618462	0.908542	0.090118
	H83	H	0.381853	0.910421	0.898317
	H84	H	0.619934	0.906349	0.091489
	H85	H	0.381290	0.092180	0.092472
	H86	H	0.620781	0.097336	0.911794
	H87	H	0.379222	0.900723	0.902330
	H88	H	0.906289	0.098657	0.615135
	H89	H	0.092027	0.104617	0.376844
	H90	H	0.091202	0.892996	0.615726
	H91	H	0.905085	0.904128	0.379773
	H92	H	0.100689	0.618401	0.905656
	H93	H	0.103794	0.376613	0.100201
	H94	H	0.904363	0.620174	0.098648
	H95	H	0.913104	0.383905	0.903602
	H96	H	0.411691	0.116500	0.595373
	H97	H	0.592846	0.880488	0.594699
	H98	H	0.594166	0.118354	0.400503
	H99	H	0.410833	0.883325	0.405667
	H100	H	0.599405	0.399171	0.116577
	H101	H	0.601018	0.598763	0.875840
	H102	H	0.408060	0.592299	0.112549
	H103	H	0.397653	0.400097	0.875476
	H104	H	0.122646	0.592286	0.395309
	H105	H	0.878596	0.606033	0.587228
	H106	H	0.115522	0.411658	0.579943
	H107	H	0.884340	0.411609	0.405137
	H108	H	0.918935	0.613625	0.092061
	H109	H	0.082821	0.383743	0.093834
	H110	H	0.090167	0.618288	0.894101
	H111	H	0.905936	0.381044	0.903306
	H112	H	0.108689	0.906583	0.615713
	H113	H	0.104566	0.085464	0.377313
	H114	H	0.905086	0.089776	0.613567
	H115	H	0.908177	0.904467	0.379403
	H116	H	0.616320	0.080787	0.908216
	H117	H	0.381736	0.095874	0.089987
	H118	H	0.619976	0.906322	0.089048
	H119	H	0.384353	0.908863	0.908639
	C120	C	0.380473	0.007207	0.618722
	C121	C	0.623380	0.990104	0.620460
	C122	C	0.622038	0.007668	0.375554
	C123	C	0.379756	0.990363	0.374258
	C124	C	0.624373	0.376088	0.005210
	C125	C	0.622731	0.621319	0.988169
	C126	C	0.379327	0.621964	0.004760
	C127	C	0.380790	0.377679	0.988302
	C128	C	0.010094	0.619455	0.375611
	C129	C	0.991596	0.619869	0.618013
	C130	C	0.009836	0.377998	0.617812
	C131	C	0.991714	0.377412	0.374690
	C132	C	0.880789	0.507797	0.117928
	C133	C	0.123656	0.490308	0.119257
	C134	C	0.122483	0.507934	0.874834
	C135	C	0.879475	0.490547	0.873543
	C136	C	0.123898	0.875877	0.505297
	C137	C	0.122984	0.120486	0.488049
	C138	C	0.879125	0.121668	0.505093
	C139	C	0.879276	0.876592	0.488150
	C140	C	0.510536	0.119483	0.876148
	C141	C	0.491566	0.121464	0.119087
	C142	C	0.509722	0.878947	0.117952
	C143	C	0.491591	0.877517	0.875476
	C144	C	0.382236	0.883635	0.673394
	C145	C	0.621390	0.113708	0.676360
	C146	C	0.621397	0.884493	0.319688
	C147	C	0.379491	0.114013	0.319949
	C148	C	0.677678	0.379329	0.881824
	C149	C	0.678038	0.618143	0.111379
	C150	C	0.323586	0.618348	0.881537
	C151	C	0.326966	0.381874	0.111518
	C152	C	0.884999	0.674737	0.377695
	C153	C	0.116876	0.673854	0.615680
	C154	C	0.884748	0.324473	0.614084
	C155	C	0.116565	0.322361	0.378099
	C156	C	0.885241	0.380702	0.672446
	C157	C	0.116289	0.618659	0.673700
	C158	C	0.885430	0.618499	0.319855
	C159	C	0.116474	0.378644	0.320695
	C160	C	0.380349	0.676507	0.881711
	C161	C	0.621508	0.676994	0.110936
	C162	C	0.622007	0.319759	0.882693
	C163	C	0.383079	0.322887	0.111147
	C164	C	0.676169	0.883228	0.380180
	C165	C	0.676685	0.114648	0.616277
	C166	C	0.327049	0.883053	0.613501
	C167	C	0.323790	0.114171	0.378620
	C168	C	0.882056	0.384169	0.172419
	C169	C	0.121181	0.613879	0.175104
	C170	C	0.122676	0.384434	0.818975
	C171	C	0.880065	0.614155	0.819132
	C172	C	0.177821	0.878635	0.382006
	C173	C	0.178008	0.116643	0.611456
	C174	C	0.824007	0.117369	0.381426
	C175	C	0.826527	0.881512	0.612281
	C176	C	0.385359	0.175128	0.878261
	C177	C	0.617122	0.174592	0.116190
	C178	C	0.384404	0.824756	0.114261
	C179	C	0.616849	0.822114	0.878255
	C180	C	0.384628	0.882040	0.171687
	C181	C	0.616337	0.119147	0.174401
	C182	C	0.385556	0.118547	0.820750
	C183	C	0.616783	0.878493	0.821167
	C184	C	0.880928	0.175303	0.381360
	C185	C	0.121839	0.176153	0.610728
	C186	C	0.121057	0.819942	0.382512
	C187	C	0.882315	0.822286	0.611550
	C188	C	0.177978	0.383973	0.878518
	C189	C	0.176815	0.615054	0.115215
	C190	C	0.827560	0.383434	0.112646
	C191	C	0.824574	0.614910	0.878320
	C192	C	0.402556	0.093858	0.597588
	C193	C	0.601811	0.903776	0.598445
	C194	C	0.599369	0.094301	0.397477
	C195	C	0.402927	0.903961	0.395366
	C196	C	0.602618	0.398534	0.091316
	C197	C	0.600196	0.599269	0.902235
	C198	C	0.402129	0.600449	0.090670
	C199	C	0.402848	0.399028	0.902107
	C200	C	0.097249	0.596666	0.398038
	C201	C	0.904770	0.597716	0.595744
	C202	C	0.096956	0.399849	0.596099
	C203	C	0.904338	0.399989	0.396238
	C204	C	0.902857	0.594257	0.097121
	C205	C	0.101904	0.403574	0.097366
	C206	C	0.099337	0.594605	0.896425
	C207	C	0.902641	0.404357	0.894962
	C208	C	0.102672	0.897628	0.591490
	C209	C	0.100132	0.098185	0.401869
	C210	C	0.901700	0.100575	0.591002
	C211	C	0.900328	0.897149	0.401925
	C212	C	0.597410	0.096923	0.898771
	C213	C	0.404522	0.099822	0.096717
	C214	C	0.596916	0.900456	0.096663
	C215	C	0.404381	0.900102	0.896859
	Zn216	Zn	0.501316	-0.001605	0.748577
	Zn217	Zn	0.500621	0.000267	0.246133
	Zn218	Zn	0.752302	0.499304	-0.003847
	Zn219	Zn	0.251545	0.499669	-0.003504
	Zn220	Zn	0.001039	0.747107	0.497127
	Zn221	Zn	0.000523	0.249850	0.496097
	Zn222	Zn	0.001437	0.499329	0.745586
	Zn223	Zn	0.001375	0.498435	0.247491
	Zn224	Zn	0.500861	0.750777	-0.003610
	Zn225	Zn	0.501646	0.247839	-0.002885
	Zn226	Zn	0.751189	-0.000893	0.497265
	Zn227	Zn	0.252437	-0.001614	0.496260
	N228	N	0.414808	0.961987	0.676770
	N229	N	0.589192	0.035259	0.679152
	N230	N	0.588741	0.962975	0.316720
	N231	N	0.413793	0.036014	0.317344
	N232	N	0.679161	0.413775	0.959109
	N233	N	0.678865	0.584129	0.034072
	N234	N	0.322901	0.585084	0.959080
	N235	N	0.325674	0.415330	0.034159
	N236	N	0.963448	0.675524	0.411619
	N237	N	0.038410	0.674822	0.581645
	N238	N	0.963192	0.322551	0.580919
	N239	N	0.037748	0.321357	0.410925
	N240	N	0.964254	0.413327	0.674678
	N241	N	0.037637	0.585608	0.675075
	N242	N	0.964214	0.584802	0.318481
	N243	N	0.037756	0.412260	0.318530
	N244	N	0.414396	0.678893	0.959310
	N245	N	0.587728	0.678999	0.033359
	N246	N	0.589593	0.317641	0.960571
	N247	N	0.415853	0.320332	0.033390
	N248	N	0.676740	0.961128	0.414287
	N249	N	0.678406	0.036716	0.582471
	N250	N	0.326061	0.960960	0.580254
	N251	N	0.323869	0.036368	0.411658
	N252	N	0.914381	0.462504	0.175990
	N253	N	0.088950	0.535273	0.177687
	N254	N	0.088846	0.462571	0.816565
	N255	N	0.913651	0.535964	0.816061
	N256	N	0.179777	0.912595	0.459395
	N257	N	0.178709	0.082736	0.533953
	N258	N	0.822689	0.084319	0.459211
	N259	N	0.824604	0.914541	0.534657
	N260	N	0.463969	0.175827	0.912218
	N261	N	0.538611	0.176214	0.082463
	N262	N	0.463263	0.822661	0.081473
	N263	N	0.538249	0.821350	0.911300
	N264	N	0.463314	0.915052	0.173959
	N265	N	0.537317	0.086961	0.176293
	N266	N	0.464086	0.084696	0.819328
	N267	N	0.537909	0.912101	0.818997
	N268	N	0.914268	0.178239	0.459131
	N269	N	0.088392	0.178573	0.533081
	N270	N	0.088086	0.818187	0.460187
	N271	N	0.914320	0.818979	0.533404
	N272	N	0.177625	0.461708	0.912728
	N273	N	0.178509	0.537253	0.081361
	N274	N	0.826779	0.461300	0.079203
	N275	N	0.823968	0.536984	0.911446
	O276	O	0.486938	0.440055	0.538331
	H277	H	0.488435	0.431122	0.527388
	H278	H	0.486123	0.431010	0.540370
	O279	O	0.551995	0.500297	0.464049
	H280	H	0.547312	0.501997	0.456310
	H281	H	0.545431	0.501521	0.475056
	O282	O	0.549618	0.442604	0.495306
	H283	H	0.548935	0.448278	0.485100
	H284	H	0.551370	0.451584	0.500453
	O285	O	-0.467751	1.495118	1.458030
	H286	H	-0.465867	1.505571	1.465144
	H287	H	-0.460735	1.486842	1.451795
	O288	O	0.509267	0.510793	0.557571
	H289	H	0.516009	0.515302	0.569501
	H290	H	0.515869	0.502468	0.559413
	O291	O	-0.001887	0.002614	1.001760
	H292	H	0.009924	0.008658	0.999409
	H293	H	0.000403	0.004553	1.008431
	O294	O	0.532758	0.537071	0.467761
	H295	H	0.518274	0.536780	0.463187
	H296	H	0.523299	0.538816	0.467729
	O297	O	0.485674	0.512715	0.539072
	H298	H	0.488275	0.514004	0.542423
	H299	H	0.478454	0.507626	0.540199
	O300	O	0.528024	0.435113	0.462339
	H301	H	0.530147	0.436505	0.466426
	H302	H	0.536321	0.428516	0.462269
	O303	O	0.531101	0.456557	0.505401
	H304	H	0.530985	0.464668	0.509881
	H305	H	0.533389	0.455921	0.501277
	O306	O	0.944038	0.052645	1.009645
	H307	H	0.938012	0.048706	1.001108
	H308	H	0.937186	0.051344	1.009726
	O309	O	0.514772	0.563869	0.450247
	H310	H	0.517590	0.575644	0.459552
	H311	H	0.512721	0.566529	0.444164
	O312	O	0.419834	0.423248	0.570235
	H313	H	0.418077	0.419713	0.571474
	H314	H	0.429115	0.412592	0.570232
	O315	O	0.949059	0.016761	0.919032
	H316	H	0.952052	0.009149	0.922435
	H317	H	0.943251	0.018249	0.910642
	O318	O	-0.005410	-0.006729	-0.009151
	H319	H	-0.015178	-0.007211	-0.008509
	H320	H	-0.002072	0.000321	-0.009106
	O321	O	0.519646	0.551305	0.468744
	H322	H	0.518083	0.554419	0.467612
	H323	H	0.514441	0.561839	0.473107
	O324	O	0.971581	0.027896	-0.026274
	H325	H	0.973978	0.025685	-0.014216
	H326	H	0.963759	0.031038	-0.026511
	O327	O	0.971666	0.985602	-0.039220
	H328	H	0.970078	0.986487	-0.042998
	H329	H	0.968598	0.986259	-0.038589
	O330	O	0.425095	0.465849	0.482224
	H331	H	0.419126	0.470785	0.480755
	H332	H	0.432450	0.458872	0.469688
	O333	O	0.447315	0.608692	0.433788
	H334	H	0.435980	0.606470	0.432057
	H335	H	0.443397	0.612087	0.432355
