data_Molecule from HDF5

_cell_length_a		16.104151
_cell_length_b		16.375830
_cell_length_c		16.032529
_cell_angle_alpha	90.102529
_cell_angle_beta	89.784248
_cell_angle_gamma	90.240923
_symmetry_space_group_name_H-M	'P 1'
_symmetry_Int_Tables_number		1

loop_
	_symmetry_equiv_pos_as_xyz
	x,y,z

loop_
	_atom_site_label
	_atom_site_type_symbol
	_atom_site_fract_x
	_atom_site_fract_y
	_atom_site_fract_z
	H0	H	0.402516	0.840196	0.711986
	H1	H	0.602701	0.166175	0.712228
	H2	H	0.603972	0.840123	0.282414
	H3	H	0.409182	0.166098	0.282990
	H4	H	0.715925	0.405465	0.830127
	H5	H	0.715519	0.600451	0.163497
	H6	H	0.296692	0.596390	0.829860
	H7	H	0.291149	0.405434	0.164306
	H8	H	0.840231	0.719247	0.395931
	H9	H	0.168414	0.721900	0.598316
	H10	H	0.841165	0.287565	0.599642
	H11	H	0.168090	0.288614	0.392016
	H12	H	0.838699	0.408684	0.708911
	H13	H	0.171441	0.602012	0.706301
	H14	H	0.838634	0.599896	0.286556
	H15	H	0.170526	0.409742	0.284366
	H16	H	0.402310	0.717708	0.833126
	H17	H	0.605010	0.718843	0.162217
	H18	H	0.604377	0.287077	0.832348
	H19	H	0.400512	0.286273	0.162956
	H20	H	0.719668	0.841092	0.397512
	H21	H	0.720582	0.166292	0.597155
	H22	H	0.285920	0.841740	0.597598
	H23	H	0.290304	0.167189	0.396322
	H24	H	0.905343	0.341667	0.211669
	H25	H	0.102767	0.667758	0.209602
	H26	H	0.104297	0.342426	0.779150
	H27	H	0.909344	0.668508	0.785062
	H28	H	0.215875	0.908475	0.329991
	H29	H	0.216156	0.102528	0.663701
	H30	H	0.794042	0.100031	0.330221
	H31	H	0.792084	0.907959	0.662975
	H32	H	0.339178	0.218138	0.895757
	H33	H	0.667781	0.219622	0.099289
	H34	H	0.339617	0.787349	0.099808
	H35	H	0.668002	0.787624	0.894590
	H36	H	0.338744	0.906044	0.210316
	H37	H	0.670651	0.098927	0.206720
	H38	H	0.337700	0.098255	0.786873
	H39	H	0.669014	0.907082	0.784033
	H40	H	0.902755	0.220282	0.331787
	H41	H	0.107253	0.222806	0.660689
	H42	H	0.107487	0.787643	0.332207
	H43	H	0.901911	0.788529	0.661654
	H44	H	0.219598	0.340310	0.896906
	H45	H	0.221721	0.665613	0.096877
	H46	H	0.789101	0.340724	0.095316
	H47	H	0.789386	0.666893	0.897255
	H48	H	0.406728	0.123261	0.601228
	H49	H	0.593848	0.887294	0.595538
	H50	H	0.605057	0.124471	0.393341
	H51	H	0.409856	0.886871	0.402767
	H52	H	0.587795	0.408519	0.113939
	H53	H	0.583743	0.592194	0.882684
	H54	H	0.406979	0.598696	0.119841
	H55	H	0.417626	0.413995	0.882587
	H56	H	0.122481	0.593604	0.401365
	H57	H	0.886618	0.603424	0.584982
	H58	H	0.123825	0.410168	0.588320
	H59	H	0.888904	0.422049	0.404284
	H60	H	0.122921	0.411300	0.582886
	H61	H	0.887177	0.591681	0.589280
	H62	H	0.125638	0.604020	0.400672
	H63	H	0.880925	0.403392	0.395257
	H64	H	0.413487	0.590481	0.115038
	H65	H	0.597339	0.609372	0.873275
	H66	H	0.599210	0.402856	0.120557
	H67	H	0.416015	0.400334	0.877067
	H68	H	0.589745	0.118084	0.401502
	H69	H	0.595416	0.889845	0.583320
	H70	H	0.420351	0.117492	0.590695
	H71	H	0.411913	0.888650	0.406524
	H72	H	0.906198	0.619245	0.082936
	H73	H	0.088135	0.391623	0.085964
	H74	H	0.098498	0.619410	0.904505
	H75	H	0.909520	0.388498	0.908162
	H76	H	0.098121	0.904453	0.619479
	H77	H	0.100012	0.100061	0.376526
	H78	H	0.913409	0.103362	0.618048
	H79	H	0.916169	0.905946	0.376325
	H80	H	0.622660	0.093262	0.900873
	H81	H	0.389260	0.083710	0.087727
	H82	H	0.630567	0.901467	0.105993
	H83	H	0.387326	0.909426	0.912166
	H84	H	0.621390	0.896787	0.071292
	H85	H	0.381216	0.098837	0.101729
	H86	H	0.624558	0.102567	0.904547
	H87	H	0.384540	0.912228	0.899912
	H88	H	0.908929	0.094816	0.616126
	H89	H	0.097442	0.095215	0.378101
	H90	H	0.099165	0.920521	0.614591
	H91	H	0.908884	0.908975	0.376030
	H92	H	0.104438	0.620937	0.906191
	H93	H	0.105157	0.386888	0.082619
	H94	H	0.904006	0.625533	0.097558
	H95	H	0.906123	0.386305	0.899764
	H96	H	0.404426	0.119628	0.583102
	H97	H	0.604964	0.885219	0.590200
	H98	H	0.605225	0.118987	0.410650
	H99	H	0.407186	0.886539	0.406327
	H100	H	0.599357	0.416442	0.115499
	H101	H	0.607093	0.588795	0.877049
	H102	H	0.418368	0.600186	0.117056
	H103	H	0.404806	0.409856	0.876327
	H104	H	0.122183	0.599731	0.411526
	H105	H	0.882851	0.601903	0.596721
	H106	H	0.122289	0.415764	0.587105
	H107	H	0.886811	0.404363	0.417087
	H108	H	0.917959	0.619159	0.092976
	H109	H	0.098806	0.384463	0.098479
	H110	H	0.101678	0.621910	0.899331
	H111	H	0.915302	0.388773	0.900657
	H112	H	0.084473	0.911700	0.612497
	H113	H	0.094299	0.099078	0.378226
	H114	H	0.919287	0.095172	0.612588
	H115	H	0.914977	0.911851	0.377776
	H116	H	0.620119	0.094943	0.910633
	H117	H	0.385341	0.104629	0.080707
	H118	H	0.617268	0.928856	0.087962
	H119	H	0.381824	0.901002	0.905279
	C120	C	0.380980	0.012232	0.620069
	C121	C	0.626825	0.994763	0.618854
	C122	C	0.627801	0.012424	0.373606
	C123	C	0.382423	0.994938	0.375675
	C124	C	0.624547	0.381316	0.006454
	C125	C	0.624874	0.624962	0.987799
	C126	C	0.384330	0.623516	0.006882
	C127	C	0.382863	0.379917	0.988873
	C128	C	0.013744	0.626460	0.375967
	C129	C	0.995596	0.626828	0.618219
	C130	C	0.013785	0.383658	0.616931
	C131	C	0.995063	0.382518	0.375391
	C132	C	0.880756	0.513358	0.119480
	C133	C	0.126524	0.495122	0.118563
	C134	C	0.128807	0.512786	0.874156
	C135	C	0.882850	0.495898	0.874416
	C136	C	0.124453	0.883686	0.505719
	C137	C	0.126588	0.126825	0.487432
	C138	C	0.884557	0.125377	0.505683
	C139	C	0.883651	0.881732	0.486925
	C140	C	0.512712	0.124342	0.876745
	C141	C	0.494661	0.124435	0.118877
	C142	C	0.513573	0.881219	0.118443
	C143	C	0.494044	0.880290	0.876002
	C144	C	0.382418	0.889267	0.674666
	C145	C	0.623489	0.117509	0.674402
	C146	C	0.624175	0.889089	0.319822
	C147	C	0.387273	0.117680	0.320516
	C148	C	0.678896	0.384721	0.880597
	C149	C	0.678483	0.621207	0.113758
	C150	C	0.331865	0.618417	0.880506
	C151	C	0.327796	0.383779	0.114205
	C152	C	0.889293	0.680829	0.377461
	C153	C	0.119598	0.682994	0.617023
	C154	C	0.890083	0.326837	0.618082
	C155	C	0.119289	0.327308	0.374401
	C156	C	0.888970	0.387175	0.672263
	C157	C	0.121150	0.623200	0.670786
	C158	C	0.888299	0.621752	0.322908
	C159	C	0.120354	0.387452	0.320564
	C160	C	0.384570	0.678763	0.882064
	C161	C	0.623911	0.680461	0.112750
	C162	C	0.623512	0.325657	0.881628
	C163	C	0.382699	0.324913	0.113811
	C164	C	0.682414	0.889751	0.376667
	C165	C	0.682150	0.117666	0.617124
	C166	C	0.324172	0.890160	0.617669
	C167	C	0.328134	0.118009	0.376833
	C168	C	0.884109	0.390219	0.173916
	C169	C	0.123698	0.618481	0.172830
	C170	C	0.125215	0.390572	0.817726
	C171	C	0.887446	0.619487	0.821265
	C172	C	0.179235	0.887152	0.380234
	C173	C	0.180385	0.123939	0.613255
	C174	C	0.830818	0.121495	0.379957
	C175	C	0.828917	0.886079	0.612949
	C176	C	0.388316	0.179464	0.877398
	C177	C	0.618854	0.180863	0.117918
	C178	C	0.389055	0.825565	0.118574
	C179	C	0.618755	0.825750	0.875873
	C180	C	0.388391	0.884704	0.173536
	C181	C	0.620403	0.120653	0.171241
	C182	C	0.387459	0.119840	0.823006
	C183	C	0.619345	0.884960	0.820706
	C184	C	0.885132	0.180897	0.380789
	C185	C	0.126122	0.183691	0.611767
	C186	C	0.125415	0.827065	0.381400
	C187	C	0.883594	0.826879	0.612220
	C188	C	0.182437	0.389511	0.876358
	C189	C	0.182742	0.617425	0.116816
	C190	C	0.826406	0.389975	0.116027
	C191	C	0.827580	0.618491	0.876830
	C192	C	0.403844	0.098061	0.598159
	C193	C	0.604774	0.909469	0.596187
	C194	C	0.606344	0.098276	0.395457
	C195	C	0.403573	0.909315	0.398433
	C196	C	0.602052	0.403010	0.094017
	C197	C	0.602471	0.603177	0.900362
	C198	C	0.406405	0.602591	0.094603
	C199	C	0.406091	0.401653	0.901175
	C200	C	0.100991	0.605387	0.397975
	C201	C	0.908245	0.605268	0.596645
	C202	C	0.100641	0.405921	0.593122
	C203	C	0.908095	0.403541	0.398665
	C204	C	0.902990	0.599164	0.097669
	C205	C	0.104003	0.409766	0.095807
	C206	C	0.107710	0.598493	0.896780
	C207	C	0.904115	0.410061	0.896288
	C208	C	0.100942	0.905753	0.592888
	C209	C	0.103991	0.104638	0.400121
	C210	C	0.906979	0.103996	0.592942
	C211	C	0.906394	0.902825	0.399430
	C212	C	0.599741	0.103160	0.898958
	C213	C	0.407748	0.102342	0.096678
	C214	C	0.600557	0.902766	0.095111
	C215	C	0.407162	0.901312	0.899079
	Zn216	Zn	0.503491	0.002705	0.748560
	Zn217	Zn	0.504839	0.002847	0.245877
	Zn218	Zn	0.752185	0.503803	-0.003415
	Zn219	Zn	0.257234	0.502748	-0.002297
	Zn220	Zn	0.004516	0.754201	0.496768
	Zn221	Zn	0.004720	0.254306	0.495822
	Zn222	Zn	0.005291	0.505496	0.745517
	Zn223	Zn	0.004379	0.504828	0.248047
	Zn224	Zn	0.503442	0.752503	-0.002242
	Zn225	Zn	0.503376	0.252323	-0.001660
	Zn226	Zn	0.757093	0.004370	0.496005
	Zn227	Zn	0.252762	0.004392	0.497184
	N228	N	0.417097	0.966266	0.676232
	N229	N	0.589810	0.040233	0.675709
	N230	N	0.591025	0.966500	0.317745
	N231	N	0.420291	0.040144	0.319458
	N232	N	0.679786	0.418555	0.959291
	N233	N	0.679281	0.587341	0.035039
	N234	N	0.331463	0.584593	0.959263
	N235	N	0.327874	0.417436	0.035492
	N236	N	0.968319	0.683814	0.409697
	N237	N	0.040422	0.685435	0.585083
	N238	N	0.968708	0.324645	0.584264
	N239	N	0.040310	0.324163	0.407748
	N240	N	0.967079	0.421720	0.671863
	N241	N	0.042882	0.589258	0.671934
	N242	N	0.966736	0.588472	0.321804
	N243	N	0.042138	0.421127	0.321031
	N244	N	0.416279	0.682114	0.961635
	N245	N	0.591181	0.682756	0.033568
	N246	N	0.590463	0.323405	0.960913
	N247	N	0.415964	0.322403	0.034595
	N248	N	0.684691	0.967254	0.409729
	N249	N	0.684345	0.040454	0.583042
	N250	N	0.322839	0.967798	0.584895
	N251	N	0.325184	0.040867	0.410450
	N252	N	0.917243	0.467806	0.176297
	N253	N	0.089165	0.541426	0.174061
	N254	N	0.093000	0.468270	0.816020
	N255	N	0.921197	0.542243	0.819812
	N256	N	0.178729	0.921716	0.458633
	N257	N	0.180721	0.089279	0.534934
	N258	N	0.830231	0.087766	0.458532
	N259	N	0.828643	0.919674	0.534228
	N260	N	0.467141	0.182446	0.910062
	N261	N	0.539661	0.183275	0.086149
	N262	N	0.467959	0.823372	0.085065
	N263	N	0.539981	0.822611	0.909261
	N264	N	0.466683	0.918538	0.173802
	N265	N	0.542173	0.086210	0.172074
	N266	N	0.465744	0.086080	0.822410
	N267	N	0.540828	0.918027	0.820343
	N268	N	0.917878	0.183434	0.460023
	N269	N	0.093250	0.185541	0.532582
	N270	N	0.091910	0.824748	0.460455
	N271	N	0.916681	0.823834	0.532848
	N272	N	0.184952	0.466607	0.910624
	N273	N	0.184830	0.539792	0.083856
	N274	N	0.824162	0.467453	0.083022
	N275	N	0.824412	0.540725	0.909168
	O276	O	-0.005503	0.048448	-0.094171
	H277	H	-0.004623	0.043124	-0.091293
	H278	H	-0.007776	0.050237	-0.089039
	O279	O	0.512506	0.465322	0.434031
	H280	H	0.514927	0.468576	0.446208
	H281	H	0.504494	0.463337	0.429273
	O282	O	0.470208	0.531672	0.562619
	H283	H	0.466467	0.521768	0.561398
	H284	H	0.469566	0.526118	0.566628
	O285	O	1.017556	-0.018735	0.978027
	H286	H	1.022498	-0.019842	0.987083
	H287	H	1.010704	-0.016387	0.973789
	O288	O	1.022078	0.038496	-0.028214
	H289	H	1.017415	0.033216	-0.024776
	H290	H	1.009624	0.038751	-0.039563
	O291	O	0.462993	0.534962	0.478957
	H292	H	0.478009	0.546075	0.475523
	H293	H	0.463134	0.534963	0.480910
	O294	O	0.999370	0.006231	0.983056
	H295	H	1.002689	0.010183	0.983159
	H296	H	0.992966	0.002789	0.985851
	O297	O	-0.011233	0.007527	-0.050842
	H298	H	-0.019334	0.010020	-0.043319
	H299	H	-0.008585	0.019763	-0.050873
	O300	O	0.508289	0.454685	0.557389
	H301	H	0.505110	0.452667	0.553212
	H302	H	0.508236	0.450155	0.562633
	O303	O	0.594641	0.491859	0.559322
	H304	H	0.592182	0.485853	0.552824
	H305	H	0.590799	0.488995	0.569592
	O306	O	0.943194	-0.039512	0.007589
	H307	H	0.946845	-0.041861	-0.009650
	H308	H	0.943008	-0.041295	0.014767
	O309	O	0.040178	0.040284	1.033786
	H310	H	0.031950	0.032288	1.040873
	H311	H	0.051155	0.047481	1.037126
	O312	O	1.078771	0.995011	1.032275
	H313	H	1.088996	1.000925	1.035113
	H314	H	1.081635	1.000649	1.031018
	O315	O	0.472598	0.529644	0.528511
	H316	H	0.477779	0.534173	0.531098
	H317	H	0.466621	0.540550	0.522039
	O318	O	0.476075	0.477257	0.558681
	H319	H	0.460073	0.477217	0.556171
	H320	H	0.476257	0.474393	0.550408
	O321	O	0.056552	1.030177	0.980743
	H322	H	0.051678	1.036545	0.969167
	H323	H	0.062452	1.027122	0.980633
	O324	O	0.492837	0.578029	0.459297
	H325	H	0.491465	0.584239	0.460803
	H326	H	0.510729	0.575847	0.453740
	O327	O	0.572324	0.515141	0.520680
	H328	H	0.578391	0.510930	0.527723
	H329	H	0.578478	0.517402	0.520200
	O330	O	0.480092	0.549720	0.463425
	H331	H	0.483851	0.549454	0.464509
	H332	H	0.495235	0.544005	0.469028
	O333	O	0.497736	0.456352	0.509645
	H334	H	0.489985	0.442467	0.516378
	H335	H	0.497906	0.461735	0.510113
	O336	O	0.577316	0.522771	0.458200
	H337	H	0.570762	0.513477	0.440664
	H338	H	0.588365	0.523771	0.445071
	O339	O	1.000145	1.034948	0.028360
	H340	H	1.004744	1.033341	0.027074
	H341	H	1.004446	1.036556	0.017295
	O342	O	0.449825	0.431790	0.504064
	H343	H	0.440399	0.430942	0.507590
	H344	H	0.448752	0.436174	0.510019
	O345	O	0.583982	0.500568	0.491399
	H346	H	0.579248	0.509771	0.495746
	H347	H	0.579871	0.504345	0.487514
	O348	O	-0.005151	0.062066	-0.036728
	H349	H	-0.002201	0.056630	-0.036048
	H350	H	-0.004076	0.068605	-0.045871
	O351	O	-0.042425	1.022232	0.934840
	H352	H	-0.040685	1.027125	0.936281
	H353	H	-0.042911	1.028393	0.935580
	O354	O	0.443520	0.526619	0.544932
	H355	H	0.450401	0.536931	0.552196
	H356	H	0.435721	0.533781	0.550290
	O357	O	-0.003635	0.962920	1.013505
	H358	H	0.003893	0.953564	1.016250
	H359	H	-0.003466	0.960922	1.009030
