data_Molecule from HDF5

_cell_length_a		16.076317
_cell_length_b		16.033134
_cell_length_c		16.411692
_cell_angle_alpha	90.205471
_cell_angle_beta	89.853745
_cell_angle_gamma	90.842645
_symmetry_space_group_name_H-M	'P 1'
_symmetry_Int_Tables_number		1

loop_
	_symmetry_equiv_pos_as_xyz
	x,y,z

loop_
	_atom_site_label
	_atom_site_type_symbol
	_atom_site_fract_x
	_atom_site_fract_y
	_atom_site_fract_z
	H0	H	0.401570	0.837353	0.714158
	H1	H	0.611360	0.167335	0.714121
	H2	H	0.605731	0.838239	0.280623
	H3	H	0.403542	0.166208	0.281371
	H4	H	0.720312	0.406026	0.832851
	H5	H	0.725795	0.605930	0.158633
	H6	H	0.297273	0.600259	0.831982
	H7	H	0.288793	0.402335	0.157219
	H8	H	0.839634	0.707071	0.400144
	H9	H	0.171960	0.719428	0.591959
	H10	H	0.840761	0.289359	0.589556
	H11	H	0.174144	0.293733	0.399095
	H12	H	0.843434	0.396325	0.711913
	H13	H	0.172463	0.608044	0.710632
	H14	H	0.843909	0.602125	0.279246
	H15	H	0.171792	0.401664	0.277979
	H16	H	0.413498	0.715477	0.833346
	H17	H	0.607547	0.719352	0.160201
	H18	H	0.605479	0.286926	0.834649
	H19	H	0.406730	0.288979	0.159653
	H20	H	0.712496	0.834200	0.400899
	H21	H	0.722899	0.167795	0.594679
	H22	H	0.288952	0.836631	0.595579
	H23	H	0.300867	0.170474	0.404503
	H24	H	0.905251	0.337422	0.208886
	H25	H	0.112648	0.667189	0.212610
	H26	H	0.107556	0.336749	0.778658
	H27	H	0.907772	0.666932	0.778692
	H28	H	0.222519	0.904074	0.333228
	H29	H	0.220978	0.104280	0.658748
	H30	H	0.792914	0.098260	0.332908
	H31	H	0.789668	0.901511	0.658976
	H32	H	0.339563	0.209849	0.903352
	H33	H	0.671752	0.218378	0.094878
	H34	H	0.341712	0.786793	0.094266
	H35	H	0.674719	0.797115	0.903329
	H36	H	0.342023	0.898072	0.213076
	H37	H	0.670473	0.107943	0.214759
	H38	H	0.343139	0.104317	0.781197
	H39	H	0.669864	0.900826	0.779506
	H40	H	0.910951	0.213220	0.331927
	H41	H	0.107119	0.220148	0.657107
	H42	H	0.103327	0.788782	0.331637
	H43	H	0.905107	0.785272	0.657626
	H44	H	0.216604	0.335063	0.898147
	H45	H	0.219924	0.670554	0.088392
	H46	H	0.793264	0.337036	0.091785
	H47	H	0.800680	0.670797	0.900333
	H48	H	0.411950	0.123564	0.596853
	H49	H	0.595011	0.884288	0.587309
	H50	H	0.603100	0.123281	0.405848
	H51	H	0.412219	0.881437	0.400439
	H52	H	0.589274	0.408256	0.110744
	H53	H	0.599485	0.598410	0.882265
	H54	H	0.416555	0.592079	0.109397
	H55	H	0.413418	0.412000	0.880667
	H56	H	0.124651	0.600196	0.412884
	H57	H	0.886512	0.586436	0.601661
	H58	H	0.126771	0.409420	0.585482
	H59	H	0.886225	0.405006	0.393902
	H60	H	0.124672	0.416300	0.588132
	H61	H	0.886115	0.601287	0.586912
	H62	H	0.124293	0.584513	0.400572
	H63	H	0.888665	0.402518	0.406931
	H64	H	0.415871	0.598399	0.113115
	H65	H	0.605740	0.602890	0.878462
	H66	H	0.608267	0.405048	0.116905
	H67	H	0.416538	0.402069	0.879116
	H68	H	0.597375	0.121830	0.402237
	H69	H	0.597753	0.880919	0.593573
	H70	H	0.422538	0.119941	0.593865
	H71	H	0.418090	0.885112	0.404960
	H72	H	0.924509	0.619097	0.085684
	H73	H	0.095789	0.381832	0.095191
	H74	H	0.103663	0.622099	0.896649
	H75	H	0.914931	0.387143	0.911602
	H76	H	0.106434	0.914216	0.613002
	H77	H	0.109294	0.099115	0.377124
	H78	H	0.909039	0.098697	0.613876
	H79	H	0.911685	0.907060	0.379634
	H80	H	0.627148	0.107152	0.911283
	H81	H	0.383812	0.099564	0.096719
	H82	H	0.624599	0.916257	0.090776
	H83	H	0.386866	0.905811	0.906165
	H84	H	0.626400	0.915678	0.095492
	H85	H	0.389590	0.092933	0.084700
	H86	H	0.620271	0.084101	0.912832
	H87	H	0.389626	0.911052	0.906948
	H88	H	0.912439	0.086479	0.609482
	H89	H	0.103810	0.091368	0.380130
	H90	H	0.090138	0.917833	0.606459
	H91	H	0.909923	0.901784	0.377969
	H92	H	0.098691	0.620526	0.901116
	H93	H	0.091883	0.387403	0.083674
	H94	H	0.911698	0.624434	0.087746
	H95	H	0.905892	0.380447	0.898299
	H96	H	0.414117	0.120275	0.586855
	H97	H	0.590414	0.884391	0.593551
	H98	H	0.597389	0.119758	0.409290
	H99	H	0.411763	0.883747	0.408250
	H100	H	0.603495	0.422171	0.109867
	H101	H	0.607385	0.595194	0.880600
	H102	H	0.409371	0.593734	0.112979
	H103	H	0.407387	0.403591	0.877406
	H104	H	0.130910	0.602235	0.394350
	H105	H	0.893568	0.582871	0.582306
	H106	H	0.127741	0.411591	0.592693
	H107	H	0.891287	0.415973	0.401805
	H108	H	0.920291	0.624011	0.098454
	H109	H	0.103981	0.382850	0.086539
	H110	H	0.104958	0.621726	0.903488
	H111	H	0.922629	0.384796	0.897270
	H112	H	0.093581	0.901047	0.612183
	H113	H	0.099585	0.100791	0.379009
	H114	H	0.921620	0.097614	0.610008
	H115	H	0.905619	0.905416	0.378680
	H116	H	0.628467	0.092199	0.891657
	H117	H	0.387702	0.085323	0.097767
	H118	H	0.626935	0.911526	0.091642
	H119	H	0.387645	0.909992	0.901845
	C120	C	0.383954	0.011739	0.620999
	C121	C	0.626668	0.993013	0.619437
	C122	C	0.626599	0.011496	0.376562
	C123	C	0.385844	0.993455	0.377201
	C124	C	0.629062	0.381881	0.005159
	C125	C	0.632184	0.627557	0.988159
	C126	C	0.386721	0.623925	0.004258
	C127	C	0.383398	0.378674	0.987044
	C128	C	0.016517	0.622450	0.374893
	C129	C	0.998180	0.622634	0.617850
	C130	C	0.016768	0.381107	0.616785
	C131	C	0.998594	0.380914	0.373178
	C132	C	0.887471	0.512583	0.117819
	C133	C	0.128699	0.493829	0.116409
	C134	C	0.129470	0.511203	0.872283
	C135	C	0.887204	0.493991	0.874240
	C136	C	0.126675	0.881227	0.503353
	C137	C	0.131311	0.126020	0.486396
	C138	C	0.885828	0.122426	0.503683
	C139	C	0.880684	0.876868	0.486619
	C140	C	0.515552	0.122689	0.877515
	C141	C	0.496720	0.124154	0.120890
	C142	C	0.516295	0.882075	0.120293
	C143	C	0.497844	0.881935	0.876883
	C144	C	0.382823	0.886880	0.676005
	C145	C	0.629002	0.117957	0.675008
	C146	C	0.624516	0.887154	0.319791
	C147	C	0.386172	0.117548	0.320969
	C148	C	0.683469	0.384683	0.882029
	C149	C	0.687582	0.625923	0.110310
	C150	C	0.333984	0.620903	0.881067
	C151	C	0.327186	0.382021	0.109066
	C152	C	0.890253	0.672783	0.378763
	C153	C	0.122731	0.680976	0.613574
	C154	C	0.891425	0.325228	0.612385
	C155	C	0.124043	0.329038	0.377289
	C156	C	0.892673	0.378859	0.672986
	C157	C	0.122835	0.625340	0.672538
	C158	C	0.892557	0.620585	0.318460
	C159	C	0.122770	0.382361	0.316695
	C160	C	0.391928	0.678271	0.881834
	C161	C	0.628944	0.682486	0.110981
	C162	C	0.626026	0.325609	0.882913
	C163	C	0.385924	0.325643	0.110220
	C164	C	0.677788	0.885127	0.379667
	C165	C	0.684653	0.118032	0.615825
	C166	C	0.326973	0.886522	0.616999
	C167	C	0.334811	0.119651	0.382112
	C168	C	0.886584	0.387130	0.171491
	C169	C	0.130428	0.618291	0.173057
	C170	C	0.127073	0.386176	0.817094
	C171	C	0.888803	0.618186	0.817757
	C172	C	0.183193	0.883916	0.381239
	C173	C	0.184607	0.124410	0.609609
	C174	C	0.830619	0.119079	0.381460
	C175	C	0.826463	0.880256	0.609633
	C176	C	0.390038	0.174834	0.881687
	C177	C	0.621907	0.180905	0.116832
	C178	C	0.391607	0.824066	0.116251
	C179	C	0.624008	0.830857	0.880663
	C180	C	0.391366	0.880125	0.174587
	C181	C	0.621072	0.126150	0.176611
	C182	C	0.391752	0.122329	0.820860
	C183	C	0.621523	0.883042	0.819561
	C184	C	0.889596	0.176093	0.380766
	C185	C	0.127746	0.182026	0.608888
	C186	C	0.123908	0.826570	0.380464
	C187	C	0.883978	0.822436	0.608996
	C188	C	0.180911	0.385232	0.876633
	C189	C	0.183923	0.619739	0.111472
	C190	C	0.830864	0.386985	0.113314
	C191	C	0.835306	0.620063	0.878326
	C192	C	0.408640	0.098863	0.599129
	C193	C	0.601712	0.905807	0.597784
	C194	C	0.605614	0.098844	0.399076
	C195	C	0.407455	0.906130	0.398438
	C196	C	0.607019	0.404896	0.090443
	C197	C	0.610550	0.605381	0.902535
	C198	C	0.407700	0.601535	0.089798
	C199	C	0.406029	0.399556	0.901227
	C200	C	0.103897	0.601859	0.396426
	C201	C	0.911205	0.597648	0.596584
	C202	C	0.103989	0.405275	0.595104
	C203	C	0.911128	0.401741	0.394481
	C204	C	0.911690	0.599867	0.096894
	C205	C	0.104395	0.406485	0.094695
	C206	C	0.108590	0.598821	0.893922
	C207	C	0.908291	0.406783	0.895884
	C208	C	0.103522	0.904095	0.588437
	C209	C	0.110375	0.103726	0.401071
	C210	C	0.907852	0.100709	0.588951
	C211	C	0.902485	0.898343	0.400774
	C212	C	0.602696	0.100828	0.898888
	C213	C	0.409692	0.099859	0.099380
	C214	C	0.603475	0.907004	0.098996
	C215	C	0.410757	0.902739	0.898710
	Zn216	Zn	0.506294	0.002621	0.748781
	Zn217	Zn	0.505880	0.002987	0.249132
	Zn218	Zn	0.760153	0.504407	-0.003902
	Zn219	Zn	0.256337	0.502511	-0.005980
	Zn220	Zn	0.005353	0.749626	0.494711
	Zn221	Zn	0.007913	0.253079	0.494783
	Zn222	Zn	0.008037	0.501870	0.745696
	Zn223	Zn	0.007780	0.502709	0.246163
	Zn224	Zn	0.508669	0.755066	-0.002776
	Zn225	Zn	0.506398	0.250621	-0.002679
	Zn226	Zn	0.753943	0.000881	0.496307
	Zn227	Zn	0.258502	0.003352	0.496661
	N228	N	0.417647	0.965967	0.678679
	N229	N	0.593441	0.039356	0.676983
	N230	N	0.593414	0.966792	0.317724
	N231	N	0.417397	0.038116	0.317813
	N232	N	0.685296	0.419184	0.958976
	N233	N	0.689859	0.592530	0.033164
	N234	N	0.330912	0.587549	0.958108
	N235	N	0.325326	0.414226	0.031436
	N236	N	0.968315	0.673949	0.413440
	N237	N	0.044135	0.679675	0.580605
	N238	N	0.969706	0.326328	0.578287
	N239	N	0.045833	0.327702	0.411493
	N240	N	0.971821	0.412889	0.675910
	N241	N	0.044411	0.589918	0.675304
	N242	N	0.971924	0.589978	0.315845
	N243	N	0.043656	0.414067	0.314099
	N244	N	0.424013	0.680374	0.959442
	N245	N	0.594942	0.683470	0.034065
	N246	N	0.592890	0.323829	0.960365
	N247	N	0.420243	0.323436	0.033340
	N248	N	0.679224	0.963422	0.414495
	N249	N	0.683353	0.039201	0.581939
	N250	N	0.327567	0.965156	0.583770
	N251	N	0.334408	0.041366	0.416563
	N252	N	0.921129	0.466185	0.174515
	N253	N	0.096739	0.538918	0.176082
	N254	N	0.095697	0.465481	0.814447
	N255	N	0.920376	0.538823	0.815108
	N256	N	0.184820	0.917431	0.458606
	N257	N	0.187063	0.090338	0.532610
	N258	N	0.828278	0.086298	0.458880
	N259	N	0.824131	0.913249	0.532396
	N260	N	0.468118	0.175062	0.916224
	N261	N	0.543641	0.180028	0.082931
	N262	N	0.470265	0.825381	0.082867
	N263	N	0.546176	0.830147	0.915666
	N264	N	0.469930	0.915360	0.177221
	N265	N	0.542177	0.091863	0.179297
	N266	N	0.470738	0.090460	0.818199
	N267	N	0.542014	0.913997	0.816974
	N268	N	0.923227	0.178247	0.457731
	N269	N	0.095284	0.183224	0.531433
	N270	N	0.089573	0.824725	0.457407
	N271	N	0.917071	0.820238	0.531503
	N272	N	0.182686	0.464054	0.910365
	N273	N	0.182994	0.541308	0.077266
	N274	N	0.831327	0.465932	0.080591
	N275	N	0.834190	0.541919	0.912787
	O276	O	0.063069	-0.070095	-0.087868
	H277	H	0.070178	-0.080147	-0.091654
	H278	H	0.070500	-0.072178	-0.101345
	O279	O	0.525809	0.426536	0.500827
	H280	H	0.529866	0.419956	0.503889
	H281	H	0.529778	0.440504	0.504100
	O282	O	0.503145	0.539489	0.496832
	H283	H	0.501919	0.541347	0.494865
	H284	H	0.488708	0.542949	0.495118
	O285	O	0.976946	0.081831	0.992589
	H286	H	0.982889	0.079765	0.985474
	H287	H	0.985605	0.084826	0.996932
	O288	O	1.000902	-0.000501	-0.075927
	H289	H	1.001803	-0.002003	-0.076607
	H290	H	1.002062	0.005735	-0.076970
	O291	O	0.565211	0.514273	0.486061
	H292	H	0.571836	0.516897	0.477886
	H293	H	0.574673	0.514432	0.484550
	O294	O	0.997254	0.053994	0.948383
	H295	H	1.008748	0.050754	0.949863
	H296	H	1.000819	0.048041	0.943118
	O297	O	0.005075	0.004503	0.015261
	H298	H	0.003274	0.005615	0.007473
	H299	H	0.005813	-0.008254	0.016708
	O300	O	0.471062	0.512024	0.465750
	H301	H	0.464981	0.507378	0.463471
	H302	H	0.477458	0.512020	0.464694
	O303	O	0.473644	0.516763	0.429781
	H304	H	0.467229	0.507017	0.434668
	H305	H	0.460778	0.515559	0.423507
	O306	O	1.012545	0.028665	-0.057481
	H307	H	1.006166	0.026659	-0.054130
	H308	H	1.015909	0.027973	-0.054756
	O309	O	0.044836	-0.057599	0.973841
	H310	H	0.044542	-0.059232	0.972451
	H311	H	0.030696	-0.048707	0.972286
	O312	O	0.951475	1.030301	0.953194
	H313	H	0.949001	1.035586	0.951851
	H314	H	0.958139	1.034220	0.950950
	O315	O	0.575758	0.484263	0.451064
	H316	H	0.577500	0.482503	0.452918
	H317	H	0.574016	0.494030	0.449676
	O318	O	0.395987	0.468314	0.630701
	H319	H	0.405978	0.459096	0.629710
	H320	H	0.382855	0.460266	0.641315
	O321	O	-0.015502	1.010767	0.955340
	H322	H	-0.015849	1.019506	0.959189
	H323	H	-0.022803	1.003122	0.958347
	O324	O	0.498532	0.495221	0.431588
	H325	H	0.504687	0.492922	0.432568
	H326	H	0.502350	0.493970	0.429348
	O327	O	0.496043	0.542353	0.399314
	H328	H	0.499200	0.536234	0.393898
	H329	H	0.500990	0.550101	0.405318
	O330	O	0.542076	0.566309	0.617944
	H331	H	0.544001	0.556584	0.612562
	H332	H	0.545833	0.569367	0.616214
	O333	O	0.558429	0.425604	0.525571
	H334	H	0.555629	0.433382	0.520857
	H335	H	0.574836	0.435221	0.524186
	O336	O	0.527800	0.541997	0.550083
	H337	H	0.529113	0.537828	0.553930
	H338	H	0.513410	0.540435	0.559806
	O339	O	1.062526	1.002578	-0.053431
	H340	H	1.064110	1.006999	-0.057588
	H341	H	1.058371	0.999658	-0.056924
	O342	O	0.456942	0.453452	0.539044
	H343	H	0.459343	0.445568	0.542516
	H344	H	0.456878	0.460496	0.543691
	O345	O	0.479035	0.417303	0.586479
	H346	H	0.470880	0.413800	0.580992
	H347	H	0.475102	0.406658	0.582825
	O348	O	0.014490	-0.039719	-0.008765
	H349	H	0.020768	-0.043582	-0.015860
	H350	H	0.010852	-0.035531	-0.006278
	O351	O	-0.418114	1.507494	1.519085
	H352	H	-0.426449	1.503746	1.530052
	H353	H	-0.419211	1.524438	1.517324
	O354	O	0.471040	0.561491	0.384915
	H355	H	0.467006	0.560726	0.372649
	H356	H	0.480751	0.563737	0.375241
	O357	O	0.050973	0.932841	0.923605
	H358	H	0.044219	0.929516	0.920598
	H359	H	0.035515	0.939299	0.923165
