data_Molecule from HDF5

_cell_length_a		16.038098
_cell_length_b		15.955015
_cell_length_c		16.513702
_cell_angle_alpha	90.419737
_cell_angle_beta	90.375576
_cell_angle_gamma	89.250372
_symmetry_space_group_name_H-M	'P 1'
_symmetry_Int_Tables_number		1

loop_
	_symmetry_equiv_pos_as_xyz
	x,y,z

loop_
	_atom_site_label
	_atom_site_type_symbol
	_atom_site_fract_x
	_atom_site_fract_y
	_atom_site_fract_z
	H0	H	0.395904	0.837618	0.710278
	H1	H	0.600499	0.165928	0.716146
	H2	H	0.602162	0.836506	0.279472
	H3	H	0.390599	0.166784	0.279243
	H4	H	0.713524	0.397983	0.834615
	H5	H	0.712642	0.600123	0.158422
	H6	H	0.277027	0.601522	0.834482
	H7	H	0.283324	0.405709	0.158358
	H8	H	0.829904	0.715029	0.402996
	H9	H	0.164327	0.710930	0.593291
	H10	H	0.828326	0.299756	0.586952
	H11	H	0.162040	0.287946	0.399724
	H12	H	0.833180	0.400744	0.712120
	H13	H	0.160286	0.606574	0.717423
	H14	H	0.833810	0.611753	0.277279
	H15	H	0.161309	0.397576	0.281154
	H16	H	0.393865	0.718147	0.834031
	H17	H	0.593697	0.716788	0.158766
	H18	H	0.597006	0.282341	0.834922
	H19	H	0.402919	0.290603	0.160076
	H20	H	0.711192	0.835447	0.400192
	H21	H	0.701896	0.171716	0.592566
	H22	H	0.291521	0.834131	0.587694
	H23	H	0.283113	0.169314	0.400022
	H24	H	0.895604	0.338261	0.212171
	H25	H	0.099825	0.667109	0.215515
	H26	H	0.102795	0.337369	0.778226
	H27	H	0.890076	0.667026	0.779982
	H28	H	0.211221	0.901365	0.333698
	H29	H	0.214668	0.104217	0.658011
	H30	H	0.777244	0.103145	0.334919
	H31	H	0.785217	0.909388	0.659708
	H32	H	0.330593	0.212725	0.903469
	H33	H	0.665862	0.206951	0.091865
	H34	H	0.328868	0.798957	0.085727
	H35	H	0.664186	0.787507	0.901516
	H36	H	0.333443	0.899606	0.211346
	H37	H	0.660910	0.103668	0.215254
	H38	H	0.333650	0.108100	0.778014
	H39	H	0.661923	0.893545	0.777601
	H40	H	0.895183	0.217565	0.333782
	H41	H	0.092985	0.219068	0.659228
	H42	H	0.096879	0.784258	0.335157
	H43	H	0.901415	0.791174	0.659025
	H44	H	0.208011	0.334124	0.901941
	H45	H	0.205095	0.670362	0.093156
	H46	H	0.792661	0.333236	0.088322
	H47	H	0.780343	0.667806	0.899380
	H48	H	0.410160	0.120637	0.587831
	H49	H	0.583854	0.883466	0.589710
	H50	H	0.577392	0.117984	0.406133
	H51	H	0.409595	0.881367	0.394488
	H52	H	0.602425	0.401547	0.115617
	H53	H	0.586575	0.595206	0.881279
	H54	H	0.403076	0.593187	0.108230
	H55	H	0.406690	0.413638	0.883936
	H56	H	0.116433	0.584763	0.396339
	H57	H	0.876001	0.601955	0.590096
	H58	H	0.118748	0.411909	0.599785
	H59	H	0.873838	0.401905	0.402633
	H60	H	0.116734	0.402983	0.583038
	H61	H	0.880736	0.593955	0.585856
	H62	H	0.118899	0.600047	0.400822
	H63	H	0.882440	0.423260	0.408237
	H64	H	0.407218	0.605310	0.111317
	H65	H	0.591453	0.592407	0.880831
	H66	H	0.596515	0.412952	0.110695
	H67	H	0.406547	0.400973	0.879983
	H68	H	0.591758	0.122897	0.407442
	H69	H	0.593554	0.883445	0.582083
	H70	H	0.402580	0.122734	0.586666
	H71	H	0.409847	0.883743	0.404272
	H72	H	0.892407	0.625358	0.088080
	H73	H	0.089967	0.383374	0.088333
	H74	H	0.079223	0.619904	0.906365
	H75	H	0.905914	0.381938	0.903161
	H76	H	0.084413	0.917144	0.606988
	H77	H	0.093678	0.096312	0.380157
	H78	H	0.900923	0.102581	0.612491
	H79	H	0.909583	0.906272	0.383110
	H80	H	0.618782	0.087535	0.895469
	H81	H	0.378610	0.100752	0.082733
	H82	H	0.619802	0.907141	0.095791
	H83	H	0.373771	0.901897	0.894790
	H84	H	0.616228	0.906640	0.085920
	H85	H	0.380073	0.086155	0.089705
	H86	H	0.617817	0.095023	0.905852
	H87	H	0.382529	0.915332	0.910627
	H88	H	0.898890	0.104757	0.613198
	H89	H	0.087648	0.089709	0.383770
	H90	H	0.091716	0.895722	0.615619
	H91	H	0.896053	0.905851	0.378058
	H92	H	0.090590	0.622376	0.907357
	H93	H	0.093547	0.381872	0.092387
	H94	H	0.911364	0.623307	0.099875
	H95	H	0.905879	0.380710	0.895644
	H96	H	0.404769	0.123480	0.593375
	H97	H	0.595332	0.879827	0.593164
	H98	H	0.584081	0.124800	0.394002
	H99	H	0.402256	0.880815	0.399646
	H100	H	0.589260	0.400780	0.112072
	H101	H	0.586991	0.589813	0.882814
	H102	H	0.394760	0.601339	0.114107
	H103	H	0.395592	0.407501	0.879821
	H104	H	0.113278	0.588955	0.410853
	H105	H	0.877856	0.593840	0.595561
	H106	H	0.111705	0.422242	0.585766
	H107	H	0.874422	0.419352	0.387686
	H108	H	0.912146	0.617620	0.079269
	H109	H	0.088672	0.382175	0.091995
	H110	H	0.084545	0.623869	0.897551
	H111	H	0.911993	0.383134	0.899386
	H112	H	0.107155	0.913522	0.613735
	H113	H	0.084062	0.098540	0.381784
	H114	H	0.897715	0.101689	0.613282
	H115	H	0.901129	0.917564	0.382473
	H116	H	0.614361	0.082607	0.906106
	H117	H	0.374134	0.098930	0.098483
	H118	H	0.615226	0.915964	0.090345
	H119	H	0.378974	0.923007	0.890975
	C120	C	0.377418	0.011907	0.616130
	C121	C	0.618451	0.993018	0.617489
	C122	C	0.616876	0.011492	0.374482
	C123	C	0.375997	0.992153	0.372686
	C124	C	0.622672	0.376124	0.005227
	C125	C	0.618243	0.623020	0.988307
	C126	C	0.371884	0.626776	0.004183
	C127	C	0.375697	0.380017	0.988592
	C128	C	0.006374	0.623527	0.374956
	C129	C	0.987791	0.624739	0.619121
	C130	C	0.005912	0.383974	0.616309
	C131	C	0.986795	0.382709	0.372988
	C132	C	0.877887	0.511734	0.116384
	C133	C	0.118442	0.493134	0.119057
	C134	C	0.116318	0.511481	0.875408
	C135	C	0.875826	0.491983	0.872910
	C136	C	0.121383	0.878977	0.504980
	C137	C	0.118121	0.125043	0.488825
	C138	C	0.870772	0.129298	0.505178
	C139	C	0.875359	0.882638	0.488412
	C140	C	0.506992	0.120939	0.874632
	C141	C	0.488045	0.122559	0.118604
	C142	C	0.506747	0.882569	0.116593
	C143	C	0.488238	0.881053	0.872027
	C144	C	0.377899	0.886651	0.671363
	C145	C	0.617655	0.117374	0.675593
	C146	C	0.619259	0.885959	0.318789
	C147	C	0.373516	0.117350	0.317731
	C148	C	0.676263	0.377834	0.883211
	C149	C	0.674263	0.620909	0.110036
	C150	C	0.315303	0.622579	0.882816
	C151	C	0.321459	0.384682	0.110267
	C152	C	0.880544	0.679105	0.380124
	C153	C	0.113735	0.676462	0.615302
	C154	C	0.879113	0.333461	0.609932
	C155	C	0.112053	0.325670	0.378316
	C156	C	0.881544	0.384069	0.671871
	C157	C	0.111809	0.624662	0.677213
	C158	C	0.882488	0.627419	0.317576
	C159	C	0.111596	0.379736	0.318830
	C160	C	0.373750	0.680571	0.882468
	C161	C	0.615277	0.679212	0.110179
	C162	C	0.617969	0.320182	0.883373
	C163	C	0.380949	0.327329	0.111044
	C164	C	0.673600	0.885465	0.378954
	C165	C	0.668669	0.120209	0.614413
	C166	C	0.325892	0.885042	0.610434
	C167	C	0.319540	0.118586	0.377516
	C168	C	0.878583	0.386797	0.172195
	C169	C	0.117779	0.618014	0.175750
	C170	C	0.119033	0.386473	0.818556
	C171	C	0.872652	0.617618	0.818525
	C172	C	0.175190	0.880426	0.382867
	C173	C	0.175164	0.123527	0.610052
	C174	C	0.815442	0.124113	0.383225
	C175	C	0.822031	0.887107	0.610971
	C176	C	0.381115	0.176949	0.880093
	C177	C	0.614899	0.173199	0.114304
	C178	C	0.379756	0.832316	0.109162
	C179	C	0.614005	0.824340	0.878267
	C180	C	0.382114	0.882661	0.171550
	C181	C	0.612341	0.121692	0.175764
	C182	C	0.382722	0.124820	0.817873
	C183	C	0.612781	0.877101	0.816754
	C184	C	0.873863	0.181616	0.382668
	C185	C	0.114487	0.180882	0.610767
	C186	C	0.117674	0.822328	0.383340
	C187	C	0.880154	0.828745	0.610740
	C188	C	0.171598	0.384815	0.879836
	C189	C	0.170364	0.619657	0.115131
	C190	C	0.827074	0.384410	0.110850
	C191	C	0.818144	0.617810	0.877746
	C192	C	0.399422	0.099479	0.595379
	C193	C	0.597165	0.905088	0.594844
	C194	C	0.591774	0.099254	0.396037
	C195	C	0.399992	0.904613	0.393429
	C196	C	0.602354	0.398481	0.090692
	C197	C	0.595137	0.599508	0.903586
	C198	C	0.394878	0.605927	0.089309
	C199	C	0.396719	0.401206	0.903327
	C200	C	0.093680	0.598673	0.396348
	C201	C	0.900696	0.603112	0.597063
	C202	C	0.093164	0.405992	0.595722
	C203	C	0.899457	0.407557	0.393354
	C204	C	0.899146	0.599228	0.095328
	C205	C	0.097034	0.405125	0.097429
	C206	C	0.091939	0.599311	0.897259
	C207	C	0.900721	0.404624	0.893268
	C208	C	0.100529	0.901895	0.590044
	C209	C	0.095188	0.101599	0.403824
	C210	C	0.892633	0.108947	0.590771
	C211	C	0.896298	0.903518	0.403427
	C212	C	0.594447	0.095755	0.896146
	C213	C	0.400335	0.101502	0.096836
	C214	C	0.594292	0.903754	0.096722
	C215	C	0.401075	0.906107	0.892539
	Zn216	Zn	0.497704	0.001690	0.743673
	Zn217	Zn	0.496975	0.001867	0.245340
	Zn218	Zn	0.750792	0.500435	-0.003625
	Zn219	Zn	0.243381	0.502298	-0.003323
	Zn220	Zn	-0.002523	0.751230	0.496837
	Zn221	Zn	-0.005098	0.257195	0.495852
	Zn222	Zn	-0.003161	0.502533	0.745754
	Zn223	Zn	-0.003221	0.503117	0.245482
	Zn224	Zn	0.496051	0.755714	-0.004247
	Zn225	Zn	0.498703	0.248347	-0.002733
	Zn226	Zn	0.743647	0.004368	0.497060
	Zn227	Zn	0.250459	0.001833	0.495360
	N228	N	0.409290	0.966543	0.675069
	N229	N	0.587208	0.036993	0.677747
	N230	N	0.584634	0.965477	0.316085
	N231	N	0.407784	0.037830	0.314426
	N232	N	0.679276	0.412041	0.960045
	N233	N	0.676313	0.586923	0.033258
	N234	N	0.314084	0.589713	0.959609
	N235	N	0.317861	0.416512	0.032970
	N236	N	0.958614	0.676861	0.415100
	N237	N	0.035718	0.676823	0.579892
	N238	N	0.957332	0.333278	0.575999
	N239	N	0.033452	0.327233	0.411141
	N240	N	0.961331	0.414866	0.676011
	N241	N	0.032456	0.593009	0.679693
	N242	N	0.961906	0.593262	0.314527
	N243	N	0.032716	0.414720	0.315420
	N244	N	0.408286	0.683360	0.958940
	N245	N	0.581232	0.680769	0.033403
	N246	N	0.585382	0.319052	0.960223
	N247	N	0.414052	0.324394	0.034389
	N248	N	0.672259	0.964627	0.412733
	N249	N	0.669210	0.041799	0.579019
	N250	N	0.325251	0.963847	0.576946
	N251	N	0.320963	0.039908	0.411190
	N252	N	0.909518	0.466960	0.175807
	N253	N	0.086202	0.538346	0.178198
	N254	N	0.085288	0.466325	0.815807
	N255	N	0.907844	0.538551	0.815237
	N256	N	0.177486	0.915180	0.459390
	N257	N	0.177473	0.089566	0.533064
	N258	N	0.813191	0.092507	0.460532
	N259	N	0.818733	0.919841	0.534179
	N260	N	0.459639	0.174738	0.914421
	N261	N	0.536731	0.173846	0.079443
	N262	N	0.458102	0.831965	0.075531
	N263	N	0.535671	0.826604	0.911978
	N264	N	0.461996	0.913162	0.176318
	N265	N	0.532439	0.091007	0.178675
	N266	N	0.462058	0.090580	0.814464
	N267	N	0.533548	0.911502	0.812651
	N268	N	0.907628	0.184944	0.459451
	N269	N	0.080193	0.182120	0.534091
	N270	N	0.085282	0.821024	0.460282
	N271	N	0.912546	0.825797	0.533664
	N272	N	0.169977	0.463551	0.914565
	N273	N	0.170957	0.540834	0.080517
	N274	N	0.826517	0.462845	0.076705
	N275	N	0.819695	0.538829	0.910797
	O276	O	0.038478	0.016437	0.015333
	H277	H	0.039651	0.017147	0.020708
	H278	H	0.025633	0.007891	0.010694
	O279	O	0.455840	0.451425	0.531328
	H280	H	0.457469	0.463852	0.528023
	H281	H	0.445673	0.451386	0.533748
	O282	O	0.500854	0.491435	0.417344
	H283	H	0.508584	0.487859	0.404568
	H284	H	0.515844	0.503930	0.427325
	O285	O	-0.021516	1.064428	1.045329
	H286	H	-0.021335	1.058632	1.042323
	H287	H	-0.018378	1.069911	1.042935
	O288	O	0.525778	0.538986	0.500392
	H289	H	0.525391	0.542415	0.507699
	H290	H	0.513003	0.530297	0.491500
	O291	O	0.983079	1.037786	1.002361
	H292	H	0.989748	1.038587	1.006270
	H293	H	0.988823	1.029096	0.990992
	O294	O	0.955464	0.997905	0.998640
	H295	H	0.958887	0.992100	0.992401
	H296	H	0.956800	1.005894	0.991370
	O297	O	0.948704	-0.009409	1.076586
	H298	H	0.944506	-0.010403	1.090520
	H299	H	0.953402	-0.029723	1.072609
	O300	O	0.559354	0.550888	0.556270
	H301	H	0.564112	0.549202	0.559365
	H302	H	0.555599	0.551626	0.561982
	O303	O	1.077880	-0.107247	-0.082427
	H304	H	1.076594	-0.108386	-0.090019
	H305	H	1.065038	-0.105231	-0.084449
	O306	O	0.008757	0.927330	0.993325
	H307	H	0.007144	0.924503	0.998346
	H308	H	0.016891	0.929630	0.993125
	O309	O	0.481694	0.389150	0.444550
	H310	H	0.485284	0.382495	0.446212
	H311	H	0.478471	0.394664	0.443746
	O312	O	1.051663	-0.044200	1.030034
	H313	H	1.047396	-0.054713	1.033540
	H314	H	1.053239	-0.055037	1.015229
	O315	O	0.429185	0.534653	0.531466
	H316	H	0.419479	0.531741	0.532498
	H317	H	0.440627	0.532756	0.528795
	O318	O	0.548856	0.471964	0.390357
	H319	H	0.539293	0.468255	0.388863
	H320	H	0.560273	0.463381	0.388931
	O321	O	1.014742	0.955645	0.968611
	H322	H	1.017947	0.968659	0.965655
	H323	H	1.016486	0.950208	0.977404
	O324	O	0.539236	0.483243	0.514166
	H325	H	0.528355	0.484650	0.512360
	H326	H	0.537246	0.490651	0.521912
	O327	O	0.574736	0.537167	0.572320
	H328	H	0.582030	0.536833	0.570696
	H329	H	0.574554	0.538948	0.569470
	O330	O	1.032618	0.032014	0.978277
	H331	H	1.028462	0.036905	0.979138
	H332	H	1.035816	0.036029	0.978420
	O333	O	0.942378	0.975831	-0.015389
	H334	H	0.944086	0.970478	-0.017133
	H335	H	0.944728	0.975785	-0.006592
	O336	O	0.495234	0.557551	0.506192
	H337	H	0.497820	0.556875	0.506170
	H338	H	0.495411	0.559389	0.506465
	O339	O	0.425684	0.497255	0.496071
	H340	H	0.424357	0.500577	0.506932
	H341	H	0.429222	0.486436	0.502056
	O342	O	0.024084	1.063757	-0.019300
	H343	H	0.025018	1.063208	-0.021261
	H344	H	0.027055	1.071395	-0.018170
	O345	O	0.010120	0.056093	0.000515
	H346	H	0.009528	0.058169	0.002396
	H347	H	-0.001267	0.064829	0.001560
	O348	O	0.482583	0.586042	0.385742
	H349	H	0.484075	0.580940	0.381537
	H350	H	0.478542	0.590018	0.392944
	O351	O	0.485621	0.591565	0.525481
	H352	H	0.479478	0.578145	0.529178
	H353	H	0.492472	0.604151	0.519774
	O354	O	0.464242	0.434135	0.469911
	H355	H	0.469304	0.430698	0.461568
	H356	H	0.458011	0.437591	0.472041
	O357	O	0.554676	0.533224	0.561295
	H358	H	0.555366	0.531079	0.562138
	H359	H	0.550058	0.535104	0.551642
	O360	O	-0.015911	-0.061110	0.029208
	H361	H	-0.027151	-0.052705	0.032311
	H362	H	-0.012291	-0.053410	0.036361
	O363	O	0.491184	0.424696	0.542295
	H364	H	0.480887	0.428447	0.548638
	H365	H	0.486381	0.430877	0.543903
	O366	O	-0.063802	-0.035293	0.990328
	H367	H	-0.055631	-0.028386	0.983983
	H368	H	-0.060341	-0.031004	0.997845
	O369	O	0.433893	0.508110	0.520164
	H370	H	0.431532	0.510647	0.521696
	H371	H	0.429587	0.509625	0.508553
