data_Molecule from HDF5

_cell_length_a		16.221685
_cell_length_b		16.331889
_cell_length_c		16.026696
_cell_angle_alpha	89.720916
_cell_angle_beta	90.057590
_cell_angle_gamma	89.803600
_symmetry_space_group_name_H-M	'P 1'
_symmetry_Int_Tables_number		1

loop_
	_symmetry_equiv_pos_as_xyz
	x,y,z

loop_
	_atom_site_label
	_atom_site_type_symbol
	_atom_site_fract_x
	_atom_site_fract_y
	_atom_site_fract_z
	H0	H	0.402232	0.837497	0.713608
	H1	H	0.593183	0.166468	0.711263
	H2	H	0.595072	0.837488	0.287789
	H3	H	0.401988	0.165334	0.286488
	H4	H	0.711641	0.406776	0.834261
	H5	H	0.710719	0.600194	0.166724
	H6	H	0.284249	0.602773	0.834612
	H7	H	0.287690	0.404076	0.166757
	H8	H	0.835675	0.718229	0.399748
	H9	H	0.161723	0.717628	0.602748
	H10	H	0.833795	0.285861	0.603814
	H11	H	0.161236	0.286315	0.401704
	H12	H	0.832847	0.404773	0.715585
	H13	H	0.164466	0.595699	0.712398
	H14	H	0.833834	0.598783	0.289240
	H15	H	0.163656	0.405315	0.291681
	H16	H	0.397703	0.718455	0.835112
	H17	H	0.598177	0.715653	0.166067
	H18	H	0.599511	0.288395	0.834978
	H19	H	0.398774	0.287977	0.165863
	H20	H	0.714376	0.837810	0.400283
	H21	H	0.714065	0.163900	0.599832
	H22	H	0.283520	0.838293	0.601010
	H23	H	0.281876	0.164522	0.397797
	H24	H	0.904274	0.337375	0.213432
	H25	H	0.095036	0.665874	0.214720
	H26	H	0.096509	0.337347	0.789754
	H27	H	0.901283	0.665890	0.786983
	H28	H	0.209446	0.904462	0.333689
	H29	H	0.210426	0.097541	0.666535
	H30	H	0.786817	0.098309	0.334096
	H31	H	0.786141	0.902590	0.666153
	H32	H	0.334812	0.220807	0.897272
	H33	H	0.662073	0.216789	0.101514
	H34	H	0.335383	0.785605	0.102981
	H35	H	0.660891	0.785939	0.898739
	H36	H	0.333420	0.905822	0.212505
	H37	H	0.663540	0.096250	0.212101
	H38	H	0.333334	0.100755	0.786358
	H39	H	0.663255	0.906802	0.789889
	H40	H	0.897850	0.216793	0.335832
	H41	H	0.096629	0.213041	0.666929
	H42	H	0.099323	0.785670	0.336018
	H43	H	0.899815	0.787502	0.666435
	H44	H	0.215276	0.339459	0.902323
	H45	H	0.214461	0.665193	0.101034
	H46	H	0.782949	0.339535	0.103063
	H47	H	0.782887	0.665673	0.900466
	H48	H	0.401325	0.120669	0.599129
	H49	H	0.596003	0.881011	0.603166
	H50	H	0.599612	0.118103	0.413289
	H51	H	0.405409	0.885371	0.411172
	H52	H	0.590208	0.407692	0.119431
	H53	H	0.583804	0.586780	0.885786
	H54	H	0.407885	0.594124	0.119419
	H55	H	0.410020	0.402910	0.879650
	H56	H	0.113518	0.592763	0.417526
	H57	H	0.877952	0.599149	0.602394
	H58	H	0.118302	0.400402	0.597030
	H59	H	0.879479	0.409191	0.404929
	H60	H	0.113923	0.405363	0.588647
	H61	H	0.881598	0.601907	0.584798
	H62	H	0.116755	0.589405	0.404438
	H63	H	0.879333	0.403452	0.409376
	H64	H	0.407046	0.596738	0.119925
	H65	H	0.584744	0.606412	0.880081
	H66	H	0.591797	0.407999	0.119650
	H67	H	0.399163	0.414615	0.880095
	H68	H	0.594525	0.121249	0.397595
	H69	H	0.582713	0.887589	0.593311
	H70	H	0.409331	0.115673	0.589497
	H71	H	0.401133	0.883755	0.408700
	H72	H	0.911191	0.618836	0.100108
	H73	H	0.092949	0.386751	0.095036
	H74	H	0.092600	0.619770	0.904281
	H75	H	0.905510	0.384308	0.903055
	H76	H	0.101908	0.910349	0.622357
	H77	H	0.091096	0.090414	0.382790
	H78	H	0.896627	0.092576	0.622092
	H79	H	0.907716	0.913847	0.383261
	H80	H	0.617281	0.098342	0.905349
	H81	H	0.382371	0.091419	0.092675
	H82	H	0.614650	0.912036	0.091804
	H83	H	0.379674	0.909554	0.905915
	H84	H	0.617288	0.906650	0.097514
	H85	H	0.378415	0.099468	0.097932
	H86	H	0.614360	0.098522	0.910564
	H87	H	0.379861	0.906040	0.910301
	H88	H	0.910937	0.086790	0.616502
	H89	H	0.085023	0.097939	0.381793
	H90	H	0.083845	0.917767	0.614544
	H91	H	0.909256	0.904461	0.380880
	H92	H	0.089937	0.617782	0.907900
	H93	H	0.096762	0.384839	0.094063
	H94	H	0.903413	0.616775	0.085271
	H95	H	0.909484	0.388499	0.914422
	H96	H	0.397061	0.118562	0.586476
	H97	H	0.599225	0.885985	0.586973
	H98	H	0.584495	0.114928	0.408898
	H99	H	0.405593	0.884717	0.405489
	H100	H	0.590673	0.409067	0.118984
	H101	H	0.601418	0.594296	0.879106
	H102	H	0.405376	0.594981	0.119380
	H103	H	0.413631	0.417323	0.885373
	H104	H	0.118841	0.601405	0.408521
	H105	H	0.884078	0.585997	0.592500
	H106	H	0.114699	0.410052	0.597985
	H107	H	0.880960	0.409330	0.411742
	H108	H	0.895495	0.622191	0.098806
	H109	H	0.095013	0.384546	0.098430
	H110	H	0.094775	0.618936	0.909348
	H111	H	0.898064	0.385232	0.912804
	H112	H	0.085914	0.897750	0.621270
	H113	H	0.093740	0.098879	0.379336
	H114	H	0.909589	0.102092	0.622050
	H115	H	0.900987	0.908388	0.379635
	H116	H	0.614658	0.093449	0.907128
	H117	H	0.380614	0.100086	0.087644
	H118	H	0.615769	0.902634	0.088771
	H119	H	0.381536	0.911763	0.911185
	C120	C	0.375171	0.010301	0.622103
	C121	C	0.620293	0.993174	0.622462
	C122	C	0.620693	0.009668	0.378686
	C123	C	0.375924	0.992697	0.378519
	C124	C	0.620195	0.380542	0.009698
	C125	C	0.619101	0.623752	0.991447
	C126	C	0.377148	0.624341	0.009540
	C127	C	0.378698	0.382197	0.991739
	C128	C	0.007704	0.623341	0.380483
	C129	C	0.990114	0.623263	0.622588
	C130	C	0.006495	0.378138	0.623720
	C131	C	0.988966	0.379763	0.380535
	C132	C	0.876159	0.510817	0.123785
	C133	C	0.122086	0.493379	0.124058
	C134	C	0.121000	0.510799	0.879371
	C135	C	0.876072	0.493940	0.880163
	C136	C	0.119393	0.880255	0.509392
	C137	C	0.118515	0.122517	0.491368
	C138	C	0.876521	0.122846	0.510428
	C139	C	0.877322	0.879801	0.491146
	C140	C	0.507002	0.125450	0.878269
	C141	C	0.489460	0.123885	0.121658
	C142	C	0.507255	0.879169	0.122265
	C143	C	0.489275	0.881088	0.880120
	C144	C	0.380118	0.886901	0.677049
	C145	C	0.615489	0.116904	0.675285
	C146	C	0.616745	0.886381	0.324510
	C147	C	0.379846	0.116281	0.323448
	C148	C	0.674627	0.385045	0.884152
	C149	C	0.673076	0.620017	0.117190
	C150	C	0.321694	0.622911	0.884535
	C151	C	0.324439	0.383946	0.116897
	C152	C	0.884307	0.679658	0.380673
	C153	C	0.113252	0.678597	0.621837
	C154	C	0.882843	0.323736	0.622757
	C155	C	0.112658	0.324555	0.382377
	C156	C	0.882321	0.383122	0.678189
	C157	C	0.114558	0.617984	0.676400
	C158	C	0.883492	0.620256	0.325776
	C159	C	0.113732	0.383568	0.327376
	C160	C	0.378309	0.680311	0.884664
	C161	C	0.617111	0.677676	0.116675
	C162	C	0.618839	0.326316	0.884451
	C163	C	0.380086	0.326286	0.116490
	C164	C	0.675608	0.886546	0.380801
	C165	C	0.675271	0.115651	0.619409
	C166	C	0.321023	0.887163	0.620897
	C167	C	0.320602	0.115772	0.379261
	C168	C	0.881752	0.386882	0.177114
	C169	C	0.117169	0.616851	0.178001
	C170	C	0.117566	0.386741	0.826507
	C171	C	0.879668	0.616974	0.824328
	C172	C	0.173267	0.883472	0.383993
	C173	C	0.173026	0.118568	0.616940
	C174	C	0.822988	0.119623	0.384256
	C175	C	0.823384	0.882402	0.616617
	C176	C	0.383745	0.182301	0.878120
	C177	C	0.613386	0.177904	0.120243
	C178	C	0.384185	0.823832	0.121878
	C179	C	0.612503	0.825411	0.880971
	C180	C	0.383142	0.883688	0.176332
	C181	C	0.614210	0.118106	0.175246
	C182	C	0.382896	0.122469	0.823137
	C183	C	0.613478	0.884997	0.826195
	C184	C	0.878098	0.178444	0.385110
	C185	C	0.116330	0.175909	0.617226
	C186	C	0.118399	0.824604	0.384968
	C187	C	0.879718	0.824997	0.616588
	C188	C	0.176637	0.387902	0.882370
	C189	C	0.176553	0.616443	0.121560
	C190	C	0.821610	0.388015	0.121907
	C191	C	0.820969	0.616885	0.880757
	C192	C	0.396215	0.096328	0.598743
	C193	C	0.599105	0.907013	0.600884
	C194	C	0.599232	0.095784	0.400182
	C195	C	0.397741	0.906804	0.401508
	C196	C	0.597702	0.401853	0.096900
	C197	C	0.596669	0.602240	0.904257
	C198	C	0.400001	0.601874	0.096969
	C199	C	0.401051	0.404883	0.904236
	C200	C	0.093831	0.601242	0.403548
	C201	C	0.903563	0.601982	0.599820
	C202	C	0.093288	0.399127	0.601240
	C203	C	0.902285	0.401114	0.402119
	C204	C	0.897057	0.597022	0.101371
	C205	C	0.101226	0.407543	0.102193
	C206	C	0.098857	0.596570	0.900767
	C207	C	0.898046	0.408152	0.903215
	C208	C	0.097079	0.902150	0.596936
	C209	C	0.096555	0.101871	0.403968
	C210	C	0.898964	0.100393	0.597514
	C211	C	0.899485	0.902148	0.403793
	C212	C	0.593086	0.103183	0.901014
	C213	C	0.402930	0.103159	0.099347
	C214	C	0.593701	0.900732	0.099383
	C215	C	0.402858	0.902804	0.902478
	Zn216	Zn	0.497606	0.002204	0.750968
	Zn217	Zn	0.498284	0.001485	0.249540
	Zn218	Zn	0.746643	0.502975	0.001357
	Zn219	Zn	0.250708	0.502849	0.000844
	Zn220	Zn	-0.001270	0.752666	0.500826
	Zn221	Zn	-0.002509	0.250419	0.501192
	Zn222	Zn	-0.001680	0.501321	0.751455
	Zn223	Zn	-0.001185	0.501663	0.252684
	Zn224	Zn	0.498317	0.751439	0.000733
	Zn225	Zn	0.498216	0.253203	0.000651
	Zn226	Zn	0.749842	0.000857	0.500513
	Zn227	Zn	0.246439	0.001712	0.499772
	N228	N	0.412775	0.964582	0.678156
	N229	N	0.581749	0.039727	0.677059
	N230	N	0.583074	0.963877	0.323062
	N231	N	0.413737	0.038844	0.322871
	N232	N	0.675782	0.417963	0.963134
	N233	N	0.674208	0.586826	0.038471
	N234	N	0.321128	0.588707	0.963189
	N235	N	0.323713	0.418344	0.038347
	N236	N	0.962631	0.681676	0.414101
	N237	N	0.034856	0.681863	0.589037
	N238	N	0.961187	0.320607	0.589652
	N239	N	0.034117	0.321844	0.414661
	N240	N	0.960281	0.416203	0.679206
	N241	N	0.036957	0.584253	0.676964
	N242	N	0.960990	0.585808	0.325433
	N243	N	0.035755	0.417247	0.326163
	N244	N	0.412156	0.681166	0.963480
	N245	N	0.584261	0.679993	0.037572
	N246	N	0.585699	0.323431	0.963378
	N247	N	0.413171	0.325149	0.037544
	N248	N	0.678336	0.964214	0.413611
	N249	N	0.678318	0.037651	0.587392
	N250	N	0.317944	0.964883	0.587110
	N251	N	0.318097	0.038066	0.412758
	N252	N	0.914771	0.464326	0.178415
	N253	N	0.083948	0.539417	0.179699
	N254	N	0.083610	0.464030	0.824305
	N255	N	0.913419	0.539500	0.823937
	N256	N	0.173976	0.917492	0.462451
	N257	N	0.174493	0.085979	0.537949
	N258	N	0.821965	0.085602	0.463056
	N259	N	0.822042	0.915988	0.537769
	N260	N	0.461903	0.184260	0.911701
	N261	N	0.534983	0.181674	0.087766
	N262	N	0.462543	0.820926	0.089045
	N263	N	0.534214	0.822966	0.913798
	N264	N	0.460684	0.917542	0.176417
	N265	N	0.536192	0.085254	0.176310
	N266	N	0.460332	0.087896	0.822944
	N267	N	0.535791	0.919237	0.825679
	N268	N	0.910460	0.180595	0.464388
	N269	N	0.082984	0.178561	0.538272
	N270	N	0.085492	0.822546	0.464021
	N271	N	0.912842	0.823580	0.537559
	N272	N	0.178970	0.465807	0.914490
	N273	N	0.179431	0.538911	0.088666
	N274	N	0.817845	0.466124	0.089369
	N275	N	0.818898	0.539475	0.914863
	O276	O	0.501686	0.448545	0.520396
	H277	H	0.488676	0.446274	0.514196
	H278	H	0.502871	0.444821	0.514441
	O279	O	0.486329	0.459315	0.495683
	H280	H	0.490366	0.453455	0.491112
	H281	H	0.484722	0.466816	0.494543
	O282	O	0.522496	0.479528	0.440595
	H283	H	0.523731	0.479423	0.430350
	H284	H	0.526451	0.475725	0.450768
	O285	O	-0.042495	1.009154	0.941645
	H286	H	-0.050575	1.007465	0.935048
	H287	H	-0.042865	1.022727	0.938517
	O288	O	0.517539	0.522383	0.538659
	H289	H	0.518113	0.513549	0.544653
	H290	H	0.527803	0.514362	0.548180
	O291	O	0.023868	0.016559	0.986467
	H292	H	0.027929	0.017359	0.986564
	H293	H	0.016469	0.020181	0.975305
	O294	O	0.445279	0.539647	0.440503
	H295	H	0.446719	0.551366	0.447097
	H296	H	0.461984	0.547750	0.438565
	O297	O	0.519159	0.551051	0.490453
	H298	H	0.514276	0.541333	0.490367
	H299	H	0.515943	0.551087	0.485189
	O300	O	0.475541	0.466720	0.526607
	H301	H	0.470669	0.468464	0.531333
	H302	H	0.472469	0.463652	0.525391
	O303	O	0.492284	0.548983	0.448265
	H304	H	0.496351	0.551098	0.450275
	H305	H	0.488238	0.551525	0.440257
	O306	O	0.978055	0.043998	0.973358
	H307	H	0.977323	0.043350	0.977432
	H308	H	0.988214	0.041855	0.976045
	O309	O	0.432738	0.452463	0.504330
	H310	H	0.421397	0.455113	0.503373
	H311	H	0.428174	0.461738	0.501015
	O312	O	0.541569	0.486219	0.469585
	H313	H	0.552075	0.480418	0.464325
	H314	H	0.551471	0.489448	0.469063
	O315	O	0.958820	0.026184	0.984541
	H316	H	0.958360	0.029409	0.983476
	H317	H	0.957605	0.021191	0.975332
	O318	O	-0.011002	0.051336	-0.059737
	H319	H	-0.014828	0.051552	-0.066437
	H320	H	-0.018459	0.047175	-0.050213
	O321	O	0.489585	0.497697	0.515008
	H322	H	0.486688	0.493085	0.522564
	H323	H	0.489240	0.496301	0.516525
	O324	O	0.972220	0.032310	-0.057116
	H325	H	0.977203	0.023511	-0.060193
	H326	H	0.981101	0.037693	-0.054507
	O327	O	1.023019	1.036111	-0.042161
	H328	H	1.016345	1.042499	-0.041250
	H329	H	1.023923	1.037875	-0.041295
	O330	O	0.478506	0.457304	0.494698
	H331	H	0.472749	0.450099	0.490547
	H332	H	0.472268	0.462757	0.491840
	O333	O	0.505034	0.461933	0.506209
	H334	H	0.500248	0.457134	0.493151
	H335	H	0.504825	0.463905	0.518967
