data_Molecule from HDF5

_cell_length_a		16.285248
_cell_length_b		16.174044
_cell_length_c		16.274360
_cell_angle_alpha	90.132000
_cell_angle_beta	89.982127
_cell_angle_gamma	89.946036
_symmetry_space_group_name_H-M	'P 1'
_symmetry_Int_Tables_number		1

loop_
	_symmetry_equiv_pos_as_xyz
	x,y,z

loop_
	_atom_site_label
	_atom_site_type_symbol
	_atom_site_fract_x
	_atom_site_fract_y
	_atom_site_fract_z
	H0	H	0.397336	0.835602	0.707477
	H1	H	0.595453	0.164520	0.709310
	H2	H	0.594669	0.835578	0.278659
	H3	H	0.397306	0.165461	0.281561
	H4	H	0.710801	0.400358	0.830128
	H5	H	0.709685	0.599437	0.157879
	H6	H	0.279704	0.599525	0.830792
	H7	H	0.281140	0.401802	0.157773
	H8	H	0.831348	0.713475	0.396929
	H9	H	0.159433	0.714292	0.592062
	H10	H	0.831610	0.286898	0.592127
	H11	H	0.160027	0.286444	0.396745
	H12	H	0.832381	0.401361	0.709139
	H13	H	0.159031	0.599677	0.709368
	H14	H	0.831953	0.598353	0.280556
	H15	H	0.159269	0.400608	0.279168
	H16	H	0.399033	0.711977	0.829224
	H17	H	0.591868	0.713182	0.157845
	H18	H	0.593413	0.285580	0.830364
	H19	H	0.398816	0.288755	0.158691
	H20	H	0.710287	0.835936	0.394608
	H21	H	0.709332	0.164708	0.592900
	H22	H	0.281879	0.835547	0.592007
	H23	H	0.281203	0.164358	0.395875
	H24	H	0.897559	0.335297	0.207881
	H25	H	0.092390	0.664686	0.207836
	H26	H	0.092567	0.335833	0.780115
	H27	H	0.895188	0.664984	0.779649
	H28	H	0.210331	0.901110	0.330110
	H29	H	0.210571	0.100177	0.657558
	H30	H	0.780249	0.100071	0.330847
	H31	H	0.780706	0.901695	0.657485
	H32	H	0.330960	0.213117	0.897613
	H33	H	0.659350	0.214889	0.091714
	H34	H	0.331338	0.787775	0.089775
	H35	H	0.660137	0.786557	0.896920
	H36	H	0.331537	0.903425	0.206645
	H37	H	0.658845	0.100147	0.209023
	H38	H	0.331756	0.098851	0.779423
	H39	H	0.659880	0.902407	0.779760
	H40	H	0.898677	0.213194	0.330093
	H41	H	0.092967	0.214010	0.658325
	H42	H	0.092603	0.787245	0.329319
	H43	H	0.898196	0.787302	0.657855
	H44	H	0.208664	0.335812	0.895077
	H45	H	0.208297	0.665118	0.092752
	H46	H	0.782310	0.335381	0.091237
	H47	H	0.781290	0.665082	0.896506
	H48	H	0.404846	0.118290	0.591678
	H49	H	0.585068	0.883612	0.587018
	H50	H	0.587501	0.117894	0.400502
	H51	H	0.407882	0.882312	0.391384
	H52	H	0.593454	0.406423	0.112415
	H53	H	0.587940	0.604728	0.873729
	H54	H	0.402218	0.591042	0.110340
	H55	H	0.406049	0.399187	0.876773
	H56	H	0.115124	0.591457	0.387651
	H57	H	0.882043	0.590494	0.579705
	H58	H	0.114510	0.407625	0.593355
	H59	H	0.875727	0.403295	0.393871
	H60	H	0.112237	0.402980	0.585308
	H61	H	0.879277	0.587857	0.594774
	H62	H	0.114616	0.604483	0.404563
	H63	H	0.880236	0.402677	0.409151
	H64	H	0.403550	0.596649	0.111107
	H65	H	0.599684	0.587434	0.875848
	H66	H	0.588106	0.413212	0.108471
	H67	H	0.391515	0.406939	0.874005
	H68	H	0.586874	0.117142	0.402066
	H69	H	0.589107	0.883108	0.583256
	H70	H	0.403914	0.116371	0.582400
	H71	H	0.406699	0.886627	0.408167
	H72	H	0.904111	0.617215	0.086228
	H73	H	0.085168	0.383261	0.086560
	H74	H	0.083096	0.621991	0.884708
	H75	H	0.899589	0.383832	0.906455
	H76	H	0.097037	0.912606	0.611098
	H77	H	0.095342	0.094268	0.374867
	H78	H	0.893990	0.091781	0.612451
	H79	H	0.899780	0.907561	0.376725
	H80	H	0.613030	0.100987	0.905490
	H81	H	0.378630	0.090094	0.092028
	H82	H	0.611326	0.913273	0.090635
	H83	H	0.383072	0.916384	0.905352
	H84	H	0.615131	0.901542	0.089826
	H85	H	0.376138	0.099024	0.091087
	H86	H	0.608762	0.085005	0.904990
	H87	H	0.375999	0.908028	0.888304
	H88	H	0.906316	0.086432	0.607571
	H89	H	0.087885	0.086394	0.379461
	H90	H	0.081800	0.911890	0.607085
	H91	H	0.903119	0.908079	0.378185
	H92	H	0.075567	0.610704	0.913393
	H93	H	0.091268	0.382254	0.083573
	H94	H	0.900263	0.617795	0.086585
	H95	H	0.900606	0.380585	0.896047
	H96	H	0.396528	0.120077	0.587153
	H97	H	0.590335	0.881485	0.588662
	H98	H	0.588612	0.117793	0.401292
	H99	H	0.393296	0.879393	0.400208
	H100	H	0.584542	0.405387	0.109965
	H101	H	0.579408	0.586504	0.881867
	H102	H	0.398096	0.595127	0.111850
	H103	H	0.404892	0.415379	0.880001
	H104	H	0.108697	0.584724	0.406971
	H105	H	0.876435	0.601796	0.587718
	H106	H	0.110103	0.411865	0.585013
	H107	H	0.882327	0.416001	0.401014
	H108	H	0.902994	0.618015	0.089561
	H109	H	0.090062	0.380818	0.090415
	H110	H	0.104967	0.621068	0.907141
	H111	H	0.908822	0.384613	0.901669
	H112	H	0.089006	0.898899	0.613759
	H113	H	0.084321	0.097545	0.377155
	H114	H	0.905487	0.100115	0.612214
	H115	H	0.902327	0.904851	0.376142
	H116	H	0.614575	0.092864	0.891780
	H117	H	0.379390	0.094335	0.083491
	H118	H	0.610514	0.907307	0.080139
	H119	H	0.378367	0.896737	0.904727
	C120	C	0.374044	0.008993	0.614989
	C121	C	0.616403	0.991785	0.614827
	C122	C	0.616587	0.008783	0.372362
	C123	C	0.374362	0.991528	0.372299
	C124	C	0.617419	0.378935	0.002090
	C125	C	0.617488	0.621705	0.985341
	C126	C	0.373452	0.622090	0.002623
	C127	C	0.372999	0.378742	0.985536
	C128	C	0.004240	0.621820	0.372207
	C129	C	0.987294	0.621914	0.615563
	C130	C	0.004162	0.378725	0.615917
	C131	C	0.987439	0.378507	0.372616
	C132	C	0.874094	0.508858	0.116046
	C133	C	0.116871	0.491253	0.115710
	C134	C	0.116383	0.509202	0.872951
	C135	C	0.873944	0.491686	0.872615
	C136	C	0.117407	0.878798	0.502278
	C137	C	0.117336	0.121729	0.485632
	C138	C	0.873655	0.121788	0.502567
	C139	C	0.873668	0.878550	0.485465
	C140	C	0.503697	0.121650	0.872442
	C141	C	0.486576	0.122836	0.116595
	C142	C	0.503913	0.879151	0.114814
	C143	C	0.487492	0.878412	0.871500
	C144	C	0.376624	0.885002	0.669978
	C145	C	0.614909	0.115567	0.670972
	C146	C	0.614929	0.884908	0.316600
	C147	C	0.377039	0.116067	0.318857
	C148	C	0.672946	0.380276	0.879171
	C149	C	0.671919	0.619516	0.108879
	C150	C	0.318229	0.619314	0.879371
	C151	C	0.318654	0.381426	0.108970
	C152	C	0.880547	0.676384	0.375826
	C153	C	0.110587	0.676581	0.612733
	C154	C	0.880740	0.324323	0.612749
	C155	C	0.111033	0.324109	0.375708
	C156	C	0.880994	0.381146	0.670989
	C157	C	0.110223	0.619987	0.671224
	C158	C	0.880746	0.619222	0.317845
	C159	C	0.110521	0.380639	0.317193
	C160	C	0.377398	0.675288	0.878450
	C161	C	0.613905	0.676332	0.108963
	C162	C	0.614573	0.323156	0.879231
	C163	C	0.377072	0.325046	0.109187
	C164	C	0.672070	0.884941	0.374253
	C165	C	0.671506	0.115670	0.613235
	C166	C	0.319552	0.884705	0.612261
	C167	C	0.319270	0.115526	0.375499
	C168	C	0.876907	0.384485	0.170189
	C169	C	0.113155	0.615694	0.170074
	C170	C	0.113227	0.385063	0.817747
	C171	C	0.875629	0.615747	0.817592
	C172	C	0.172399	0.880731	0.378834
	C173	C	0.172279	0.119761	0.608901
	C174	C	0.818531	0.120099	0.379630
	C175	C	0.818547	0.881134	0.608578
	C176	C	0.380079	0.175888	0.876174
	C177	C	0.610361	0.177142	0.112634
	C178	C	0.380203	0.825076	0.111275
	C179	C	0.610936	0.823900	0.875454
	C180	C	0.380357	0.882368	0.169212
	C181	C	0.610116	0.120331	0.171072
	C182	C	0.380513	0.119164	0.817486
	C183	C	0.610835	0.881069	0.816953
	C184	C	0.877265	0.176387	0.379335
	C185	C	0.113574	0.175994	0.609602
	C186	C	0.114173	0.824269	0.378426
	C187	C	0.877003	0.824355	0.608808
	C188	C	0.170539	0.384850	0.875205
	C189	C	0.170620	0.615829	0.112976
	C190	C	0.819512	0.384685	0.112575
	C191	C	0.818915	0.615905	0.875548
	C192	C	0.395488	0.095697	0.593509
	C193	C	0.594564	0.905196	0.592738
	C194	C	0.594370	0.095321	0.394853
	C195	C	0.396100	0.905019	0.393597
	C196	C	0.595285	0.401797	0.088269
	C197	C	0.595646	0.599421	0.899433
	C198	C	0.395041	0.600831	0.088725
	C199	C	0.394461	0.400677	0.899137
	C200	C	0.090436	0.600042	0.393458
	C201	C	0.901349	0.599781	0.593768
	C202	C	0.090323	0.400821	0.594149
	C203	C	0.901473	0.400801	0.394881
	C204	C	0.896039	0.595376	0.094089
	C205	C	0.095206	0.404498	0.093483
	C206	C	0.094472	0.595624	0.895263
	C207	C	0.896331	0.405357	0.894665
	C208	C	0.095625	0.901042	0.588287
	C209	C	0.095481	0.099395	0.399539
	C210	C	0.895537	0.099487	0.588651
	C211	C	0.895198	0.900495	0.399144
	C212	C	0.589919	0.099421	0.894188
	C213	C	0.400220	0.100998	0.095160
	C214	C	0.590129	0.900843	0.093144
	C215	C	0.401368	0.900648	0.893201
	Zn216	Zn	0.495792	0.000559	0.742836
	Zn217	Zn	0.495213	0.000271	0.244294
	Zn218	Zn	0.746149	0.500659	-0.006091
	Zn219	Zn	0.244691	0.500175	-0.005678
	Zn220	Zn	-0.003950	0.750517	0.493712
	Zn221	Zn	-0.004150	0.249988	0.494514
	Zn222	Zn	-0.004826	0.500774	0.744614
	Zn223	Zn	-0.004112	0.499773	0.243658
	Zn224	Zn	0.495742	0.749934	-0.006137
	Zn225	Zn	0.495013	0.250572	-0.005839
	Zn226	Zn	0.744998	0.000124	0.493859
	Zn227	Zn	0.245872	-0.000140	0.493623
	N228	N	0.409933	0.963134	0.671674
	N229	N	0.581271	0.037594	0.671914
	N230	N	0.581186	0.962972	0.315249
	N231	N	0.410536	0.038045	0.316823
	N232	N	0.674688	0.414192	0.956782
	N233	N	0.674153	0.586102	0.031038
	N234	N	0.315890	0.586619	0.957388
	N235	N	0.316143	0.414227	0.031069
	N236	N	0.958191	0.677873	0.409143
	N237	N	0.033301	0.677828	0.578711
	N238	N	0.958334	0.322679	0.579316
	N239	N	0.033687	0.322417	0.409368
	N240	N	0.958762	0.414263	0.673122
	N241	N	0.032633	0.586444	0.673012
	N242	N	0.958551	0.586064	0.315321
	N243	N	0.032562	0.413875	0.315371
	N244	N	0.411051	0.677260	0.955976
	N245	N	0.580833	0.677897	0.031343
	N246	N	0.580538	0.322492	0.956667
	N247	N	0.410077	0.323237	0.031266
	N248	N	0.673148	0.962858	0.408277
	N249	N	0.672514	0.037947	0.578841
	N250	N	0.317736	0.962766	0.578923
	N251	N	0.317546	0.037254	0.408348
	N252	N	0.910165	0.462705	0.172351
	N253	N	0.080534	0.537236	0.171772
	N254	N	0.080028	0.463279	0.816507
	N255	N	0.909308	0.537632	0.815803
	N256	N	0.174605	0.913926	0.456782
	N257	N	0.174609	0.086556	0.531013
	N258	N	0.816107	0.087005	0.457239
	N259	N	0.816673	0.914301	0.530811
	N260	N	0.457742	0.177490	0.909568
	N261	N	0.532672	0.178736	0.079318
	N262	N	0.457941	0.823030	0.078253
	N263	N	0.533125	0.822123	0.908405
	N264	N	0.458256	0.915325	0.171508
	N265	N	0.532314	0.087377	0.173664
	N266	N	0.458389	0.086137	0.815305
	N267	N	0.533034	0.914123	0.814316
	N268	N	0.910941	0.177502	0.456897
	N269	N	0.080267	0.177399	0.531950
	N270	N	0.080631	0.823010	0.455980
	N271	N	0.910389	0.822545	0.531161
	N272	N	0.172424	0.462842	0.908916
	N273	N	0.173021	0.537566	0.079722
	N274	N	0.817953	0.462823	0.079417
	N275	N	0.817929	0.537999	0.909160
	O276	O	0.526524	-0.519258	1.538745
	H277	H	0.525733	-0.518429	1.540389
	H278	H	0.525320	-0.512728	1.536022
	O279	O	0.572912	0.454667	0.521481
	H280	H	0.571933	0.447373	0.525035
	H281	H	0.576139	0.448956	0.530477
	O282	O	1.532891	1.489583	0.504760
	H283	H	1.528318	1.490779	0.498026
	H284	H	1.537009	1.492532	0.502172
	O285	O	0.564324	0.478836	0.494857
	H286	H	0.571684	0.471572	0.496548
	H287	H	0.564308	0.482480	0.494018
