data_Molecule from HDF5

_cell_length_a		16.372898
_cell_length_b		16.343843
_cell_length_c		16.305822
_cell_angle_alpha	90.032328
_cell_angle_beta	89.857237
_cell_angle_gamma	89.905997
_symmetry_space_group_name_H-M	'P 1'
_symmetry_Int_Tables_number		1

loop_
	_symmetry_equiv_pos_as_xyz
	x,y,z

loop_
	_atom_site_label
	_atom_site_type_symbol
	_atom_site_fract_x
	_atom_site_fract_y
	_atom_site_fract_z
	H0	H	0.386000	0.840733	0.709960
	H1	H	0.588665	0.162626	0.709539
	H2	H	0.596013	0.842020	0.270687
	H3	H	0.384944	0.160992	0.270537
	H4	H	0.708214	0.398430	0.827699
	H5	H	0.711689	0.605697	0.149754
	H6	H	0.273727	0.603985	0.828371
	H7	H	0.269285	0.395543	0.149853
	H8	H	0.829599	0.720407	0.387212
	H9	H	0.149874	0.721866	0.593460
	H10	H	0.829062	0.284145	0.593963
	H11	H	0.149251	0.279849	0.384842
	H12	H	0.831019	0.398290	0.710510
	H13	H	0.151539	0.604534	0.707690
	H14	H	0.830059	0.604449	0.270592
	H15	H	0.150711	0.397381	0.270541
	H16	H	0.389570	0.719105	0.829238
	H17	H	0.595959	0.721463	0.150413
	H18	H	0.592293	0.281902	0.828656
	H19	H	0.387118	0.281864	0.151539
	H20	H	0.710367	0.842065	0.386848
	H21	H	0.706610	0.162639	0.595876
	H22	H	0.270021	0.841515	0.594832
	H23	H	0.269138	0.161401	0.385949
	H24	H	0.883311	0.342509	0.212344
	H25	H	0.097275	0.660268	0.210889
	H26	H	0.095237	0.340753	0.768547
	H27	H	0.886818	0.660579	0.769855
	H28	H	0.212697	0.895570	0.331851
	H29	H	0.209006	0.108494	0.650857
	H30	H	0.768536	0.105682	0.331018
	H31	H	0.772054	0.900606	0.652851
	H32	H	0.332226	0.223563	0.885251
	H33	H	0.649949	0.220523	0.095472
	H34	H	0.331760	0.777798	0.098304
	H35	H	0.650713	0.782420	0.887131
	H36	H	0.330037	0.896000	0.212129
	H37	H	0.649499	0.106481	0.212741
	H38	H	0.329897	0.105783	0.772406
	H39	H	0.648793	0.896170	0.769509
	H40	H	0.882613	0.222566	0.330290
	H41	H	0.089982	0.220205	0.651247
	H42	H	0.095526	0.780631	0.330367
	H43	H	0.884047	0.780642	0.650709
	H44	H	0.213811	0.341926	0.881091
	H45	H	0.213340	0.659712	0.095323
	H46	H	0.770431	0.341048	0.094987
	H47	H	0.768703	0.659502	0.882785
	H48	H	0.407977	0.113181	0.580543
	H49	H	0.580506	0.887696	0.580091
	H50	H	0.577793	0.114662	0.406669
	H51	H	0.402884	0.891092	0.410000
	H52	H	0.589476	0.405142	0.109134
	H53	H	0.575539	0.594188	0.876577
	H54	H	0.412989	0.585796	0.100368
	H55	H	0.400310	0.411737	0.875649
	H56	H	0.104016	0.585887	0.396752
	H57	H	0.874287	0.592240	0.584406
	H58	H	0.104565	0.407635	0.575799
	H59	H	0.874698	0.406267	0.400249
	H60	H	0.102736	0.414158	0.576832
	H61	H	0.876337	0.593731	0.576094
	H62	H	0.105912	0.594963	0.398929
	H63	H	0.878961	0.414622	0.405442
	H64	H	0.399082	0.600543	0.108507
	H65	H	0.586349	0.594409	0.871919
	H66	H	0.582512	0.420491	0.101916
	H67	H	0.404027	0.412874	0.876857
	H68	H	0.581206	0.116688	0.401345
	H69	H	0.581236	0.886299	0.581281
	H70	H	0.390942	0.117205	0.574098
	H71	H	0.393985	0.884643	0.402292
	H72	H	0.904430	0.613757	0.081592
	H73	H	0.076322	0.386839	0.081998
	H74	H	0.084087	0.615747	0.897852
	H75	H	0.911382	0.388862	0.896988
	H76	H	0.081949	0.914285	0.605332
	H77	H	0.076984	0.086488	0.378299
	H78	H	0.904079	0.087222	0.602357
	H79	H	0.894106	0.914994	0.375666
	H80	H	0.600818	0.084186	0.907311
	H81	H	0.377985	0.086131	0.077163
	H82	H	0.605777	0.916256	0.092361
	H83	H	0.376094	0.905292	0.909186
	H84	H	0.607888	0.899220	0.078779
	H85	H	0.376089	0.088670	0.084954
	H86	H	0.606075	0.086462	0.892381
	H87	H	0.377917	0.918137	0.901707
	H88	H	0.900989	0.101423	0.607603
	H89	H	0.075941	0.092465	0.376040
	H90	H	0.074081	0.915596	0.602522
	H91	H	0.903529	0.914174	0.379048
	H92	H	0.080245	0.615411	0.898503
	H93	H	0.079090	0.389148	0.073360
	H94	H	0.902109	0.612376	0.073241
	H95	H	0.898055	0.388846	0.909900
	H96	H	0.395211	0.120446	0.591868
	H97	H	0.579349	0.886680	0.581526
	H98	H	0.575330	0.115141	0.399973
	H99	H	0.406441	0.887571	0.397824
	H100	H	0.572537	0.405644	0.103788
	H101	H	0.582122	0.584222	0.877217
	H102	H	0.392451	0.580525	0.104738
	H103	H	0.403227	0.409032	0.875196
	H104	H	0.102247	0.590053	0.405731
	H105	H	0.878154	0.586355	0.579880
	H106	H	0.105742	0.410805	0.581733
	H107	H	0.875072	0.415848	0.395305
	H108	H	0.896652	0.616820	0.078848
	H109	H	0.085611	0.385101	0.078905
	H110	H	0.082179	0.615455	0.901527
	H111	H	0.894224	0.381829	0.892843
	H112	H	0.076293	0.908036	0.605468
	H113	H	0.082132	0.089402	0.375406
	H114	H	0.889729	0.090535	0.607776
	H115	H	0.899031	0.907080	0.374545
	H116	H	0.606255	0.098333	0.902595
	H117	H	0.376105	0.094078	0.078568
	H118	H	0.598124	0.918112	0.071555
	H119	H	0.372113	0.906283	0.894758
	C120	C	0.367261	0.010722	0.613268
	C121	C	0.610377	0.993387	0.612687
	C122	C	0.610682	0.010026	0.370274
	C123	C	0.368664	0.992789	0.370665
	C124	C	0.612427	0.378949	-0.001266
	C125	C	0.612765	0.622593	0.981473
	C126	C	0.370245	0.621152	-0.001368
	C127	C	0.369621	0.379183	0.981561
	C128	C	-0.001254	0.622478	0.368513
	C129	C	0.982025	0.622500	0.611335
	C130	C	-0.001383	0.380218	0.610461
	C131	C	0.981456	0.379651	0.367989
	C132	C	0.868966	0.509209	0.110695
	C133	C	0.112230	0.492437	0.110262
	C134	C	0.113546	0.509573	0.867433
	C135	C	0.869243	0.491959	0.867978
	C136	C	0.110937	0.880024	0.499204
	C137	C	0.109625	0.122216	0.482291
	C138	C	0.866688	0.124292	0.499714
	C139	C	0.867745	0.880480	0.482591
	C140	C	0.498831	0.122052	0.869593
	C141	C	0.481895	0.122150	0.112595
	C142	C	0.498510	0.878953	0.113036
	C143	C	0.481328	0.879346	0.869919
	C144	C	0.366984	0.889236	0.671060
	C145	C	0.609230	0.114475	0.670861
	C146	C	0.613530	0.889943	0.310605
	C147	C	0.366856	0.113280	0.310466
	C148	C	0.669494	0.379058	0.876422
	C149	C	0.672137	0.624160	0.101858
	C150	C	0.312492	0.622724	0.876920
	C151	C	0.309352	0.377142	0.101960
	C152	C	0.877909	0.681283	0.367597
	C153	C	0.102199	0.682042	0.612222
	C154	C	0.877668	0.322836	0.612308
	C155	C	0.101470	0.319378	0.366082
	C156	C	0.878542	0.379614	0.670593
	C157	C	0.102928	0.623560	0.669181
	C158	C	0.878113	0.623554	0.309664
	C159	C	0.102222	0.377909	0.309250
	C160	C	0.370023	0.680167	0.877440
	C161	C	0.614397	0.681747	0.102128
	C162	C	0.612129	0.320954	0.876870
	C163	C	0.367926	0.320335	0.102700
	C164	C	0.670798	0.889980	0.368356
	C165	C	0.667793	0.114319	0.614255
	C166	C	0.309130	0.889507	0.613720
	C167	C	0.308728	0.113219	0.367662
	C168	C	0.866350	0.389753	0.171564
	C169	C	0.115519	0.612203	0.170942
	C170	C	0.114392	0.388928	0.807920
	C171	C	0.867658	0.612397	0.808783
	C172	C	0.172342	0.877319	0.379503
	C173	C	0.169267	0.125892	0.602593
	C174	C	0.807687	0.125031	0.379016
	C175	C	0.810143	0.880340	0.604205
	C176	C	0.379275	0.183046	0.867663
	C177	C	0.601897	0.181508	0.114553
	C178	C	0.379211	0.818176	0.116155
	C179	C	0.602252	0.821311	0.868362
	C180	C	0.378363	0.877102	0.172856
	C181	C	0.601587	0.124220	0.172658
	C182	C	0.378273	0.124536	0.811349
	C183	C	0.601158	0.877803	0.809617
	C184	C	0.864776	0.183109	0.378672
	C185	C	0.109870	0.181638	0.602981
	C186	C	0.113535	0.820432	0.378463
	C187	C	0.866340	0.821045	0.603011
	C188	C	0.173527	0.389608	0.863977
	C189	C	0.173000	0.612011	0.113059
	C190	C	0.809829	0.389088	0.113136
	C191	C	0.808719	0.611787	0.865099
	C192	C	0.391042	0.094826	0.589383
	C193	C	0.587085	0.909029	0.588197
	C194	C	0.585466	0.093672	0.395457
	C195	C	0.393740	0.909504	0.395945
	C196	C	0.588629	0.403274	0.083037
	C197	C	0.588325	0.598072	0.897243
	C198	C	0.394386	0.596114	0.082646
	C199	C	0.395005	0.403949	0.897695
	C200	C	0.082259	0.597664	0.393328
	C201	C	0.898016	0.597848	0.587254
	C202	C	0.082617	0.403981	0.585483
	C203	C	0.898125	0.404929	0.392973
	C204	C	0.893934	0.592655	0.085234
	C205	C	0.087344	0.408914	0.085317
	C206	C	0.089261	0.593614	0.892243
	C207	C	0.894164	0.408152	0.892909
	C208	C	0.084972	0.905361	0.582800
	C209	C	0.085346	0.096678	0.398342
	C210	C	0.891073	0.100220	0.583954
	C211	C	0.891904	0.905010	0.398376
	C212	C	0.582571	0.096815	0.893919
	C213	C	0.398371	0.096848	0.087454
	C214	C	0.582128	0.903900	0.088074
	C215	C	0.397216	0.903247	0.894703
	Zn216	Zn	0.489319	0.001079	0.741562
	Zn217	Zn	0.489558	0.001174	0.241430
	Zn218	Zn	0.740656	0.500079	-0.010485
	Zn219	Zn	0.241383	0.500825	-0.010946
	Zn220	Zn	-0.010401	0.751434	0.490341
	Zn221	Zn	-0.010660	0.251138	0.489779
	Zn222	Zn	-0.008417	0.501207	0.740011
	Zn223	Zn	-0.009124	0.501366	0.239072
	Zn224	Zn	0.490516	0.750308	-0.009401
	Zn225	Zn	0.490998	0.250468	-0.009210
	Zn226	Zn	0.739422	0.002325	0.491940
	Zn227	Zn	0.239096	0.002222	0.491474
	N228	N	0.402273	0.965585	0.671240
	N229	N	0.574123	0.038213	0.669909
	N230	N	0.576918	0.965684	0.311573
	N231	N	0.403322	0.037525	0.311966
	N232	N	0.669839	0.414112	0.953167
	N233	N	0.671193	0.588012	0.025695
	N234	N	0.312411	0.586820	0.953243
	N235	N	0.310225	0.412870	0.025565
	N236	N	0.953819	0.680917	0.403046
	N237	N	0.025898	0.681493	0.577197
	N238	N	0.953159	0.323379	0.575434
	N239	N	0.025395	0.320170	0.401741
	N240	N	0.954761	0.414888	0.669422
	N241	N	0.027035	0.587736	0.668999
	N242	N	0.954332	0.588044	0.309814
	N243	N	0.026493	0.414324	0.309952
	N244	N	0.405116	0.679540	0.954016
	N245	N	0.578300	0.680889	0.026205
	N246	N	0.577374	0.320673	0.953799
	N247	N	0.404446	0.321396	0.026668
	N248	N	0.669184	0.965762	0.404838
	N249	N	0.668651	0.037963	0.578842
	N250	N	0.308935	0.965993	0.578731
	N251	N	0.309799	0.037595	0.404556
	N252	N	0.902837	0.465523	0.169984
	N253	N	0.078166	0.537107	0.169001
	N254	N	0.077883	0.464635	0.809926
	N255	N	0.904893	0.536993	0.810535
	N256	N	0.170389	0.913930	0.455470
	N257	N	0.169174	0.089668	0.526502
	N258	N	0.808683	0.089324	0.455178
	N259	N	0.810933	0.916740	0.528230
	N260	N	0.455374	0.181615	0.903273
	N261	N	0.526389	0.180382	0.077927
	N262	N	0.454980	0.818983	0.079873
	N263	N	0.526585	0.821965	0.905164
	N264	N	0.453826	0.913995	0.171211
	N265	N	0.525828	0.088077	0.171452
	N266	N	0.453395	0.087310	0.812493
	N267	N	0.525098	0.913281	0.810562
	N268	N	0.900642	0.182889	0.454766
	N269	N	0.073370	0.179347	0.527150
	N270	N	0.075975	0.822061	0.453877
	N271	N	0.901359	0.820848	0.526363
	N272	N	0.172949	0.465472	0.900339
	N273	N	0.171444	0.536345	0.076128
	N274	N	0.811381	0.464363	0.075927
	N275	N	0.809690	0.535929	0.901351
	O276	O	0.596358	0.447069	0.504221
	H277	H	0.595535	0.446873	0.500417
	H278	H	0.602276	0.441827	0.494866
	O279	O	0.984547	0.991812	0.056005
	H280	H	0.971157	0.987359	0.067338
	H281	H	0.968492	0.996338	0.063897
	O282	O	-0.035767	-0.219088	1.210291
	H283	H	-0.070781	-0.219971	1.206951
	H284	H	-0.052946	-0.245037	1.235750
	O285	O	1.172199	-0.186455	-0.190914
	H286	H	1.174754	-0.177578	-0.165087
	H287	H	1.188601	-0.171522	-0.186939
	O288	O	-0.445879	0.384278	0.400265
	H289	H	-0.451603	0.389870	0.404481
	H290	H	-0.437539	0.382583	0.384983
	O291	O	0.394698	0.682079	0.455493
	H292	H	0.390511	0.672755	0.444855
	H293	H	0.382596	0.685676	0.452996
	O294	O	0.408410	0.528105	0.401711
	H295	H	0.405902	0.526421	0.398010
	H296	H	0.408427	0.520670	0.396014
	O297	O	1.054299	1.043771	0.838367
	H298	H	1.054170	1.041372	0.834168
	H299	H	1.064861	1.038780	0.851682
	O300	O	-0.143372	-0.191046	-0.067158
	H301	H	-0.149543	-0.188812	-0.092210
	H302	H	-0.143043	-0.199841	-0.076507
	O303	O	0.347627	0.407667	0.508127
	H304	H	0.360664	0.395008	0.504953
	H305	H	0.342699	0.401102	0.503217
	O306	O	0.794784	0.023089	-0.038553
	H307	H	0.806400	0.027758	-0.053647
	H308	H	0.800482	0.025956	-0.047781
	O309	O	0.598516	0.546468	0.487667
	H310	H	0.594027	0.553064	0.475704
	H311	H	0.596733	0.551116	0.476537
	O312	O	0.806316	0.874210	0.148667
	H313	H	0.805791	0.876271	0.130434
	H314	H	0.796145	0.897006	0.136760
	O315	O	0.532207	0.602752	0.555729
	H316	H	0.528885	0.590472	0.554856
	H317	H	0.540347	0.603372	0.574289
	O318	O	0.343921	0.676752	0.392199
	H319	H	0.340243	0.654370	0.407428
	H320	H	0.336608	0.673408	0.382718
	O321	O	0.952158	0.136571	0.793931
	H322	H	0.965160	0.121653	0.799811
	H323	H	0.956390	0.147187	0.789016
	O324	O	-0.042552	0.000645	1.163061
	H325	H	-0.058171	-0.011074	1.174945
	H326	H	-0.055088	0.004117	1.144900
	O327	O	0.482335	0.362733	0.333165
	H328	H	0.503003	0.361643	0.341564
	H329	H	0.498046	0.361421	0.325003
	O330	O	0.511642	0.343498	0.480312
	H331	H	0.522785	0.340922	0.460916
	H332	H	0.512710	0.343504	0.474753
	O333	O	1.107296	1.199237	1.187238
	H334	H	1.132919	1.161204	1.185833
	H335	H	1.080435	1.221843	1.210255
	O336	O	0.521826	0.641280	0.405903
	H337	H	0.512629	0.648485	0.407821
	H338	H	0.510005	0.634855	0.401459
	O339	O	0.881415	-0.192171	0.946471
	H340	H	0.890354	-0.192607	0.937533
	H341	H	0.890713	-0.196229	0.936428
	O342	O	-0.545293	0.504414	1.540183
	H343	H	-0.538121	0.499069	1.537138
	H344	H	-0.541984	0.495615	1.549604
	O345	O	0.361143	0.513845	0.431737
	H346	H	0.352835	0.507128	0.433341
	H347	H	0.363454	0.494144	0.421768
	O348	O	0.460190	0.508038	0.542713
	H349	H	0.475378	0.504343	0.544264
	H350	H	0.459831	0.511022	0.531190
	O351	O	-0.136512	-0.022528	0.056562
	H352	H	-0.115019	-0.032448	0.040516
	H353	H	-0.137611	-0.007550	0.048698
	O354	O	1.175387	1.082277	0.174632
	H355	H	1.173255	1.048272	0.178593
	H356	H	1.182998	1.070714	0.155026
	O357	O	-0.014105	1.157331	0.117243
	H358	H	-0.023642	1.175653	0.137136
	H359	H	-0.033741	1.151953	0.116010
	O360	O	0.440675	0.458642	0.433640
	H361	H	0.428335	0.453546	0.446248
	H362	H	0.443261	0.477614	0.434665
	O363	O	0.522888	0.312772	0.498023
	H364	H	0.533654	0.316363	0.507992
	H365	H	0.541504	0.330411	0.500153
	O366	O	0.830724	1.028238	1.169892
	H367	H	0.811318	1.031480	1.174583
	H368	H	0.841484	1.030855	1.142621
	O369	O	0.601600	0.531409	0.572756
	H370	H	0.585152	0.547145	0.573174
	H371	H	0.610989	0.536782	0.574493
	O372	O	0.941674	1.067784	-0.056788
	H373	H	0.956866	1.059316	-0.057077
	H374	H	0.938406	1.078649	-0.049500
	O375	O	0.338425	0.446892	0.513260
	H376	H	0.348008	0.448156	0.522503
	H377	H	0.333249	0.439661	0.518593
	O378	O	0.603343	0.411653	0.484530
	H379	H	0.595750	0.424555	0.478650
	H380	H	0.616475	0.409219	0.484674
	O381	O	0.509580	0.586465	0.651013
	H382	H	0.508499	0.593128	0.648129
	H383	H	0.520423	0.583254	0.642443
	O384	O	0.058586	1.193978	0.917537
	H385	H	0.076040	1.181481	0.922349
	H386	H	0.069247	1.202697	0.930198
	O387	O	1.172774	0.977286	0.085872
	H388	H	1.160810	0.956624	0.095308
	H389	H	1.164884	0.991751	0.093692
	O390	O	0.965659	0.801374	0.792762
	H391	H	0.992996	0.809197	0.797590
	H392	H	0.982666	0.786647	0.783448
	O393	O	1.196320	-0.818790	2.006986
	H394	H	1.195130	-0.812341	2.021631
	H395	H	1.204379	-0.807095	2.033063
	O396	O	0.148356	0.801919	0.984646
	H397	H	0.138523	0.798534	1.007318
	H398	H	0.156884	0.790210	0.985857
	O399	O	0.635043	0.484579	0.297892
	H400	H	0.642898	0.488331	0.295776
	H401	H	0.629056	0.498458	0.297269
	O402	O	1.003553	0.063276	1.023467
	H403	H	1.004577	0.055609	1.021766
	H404	H	1.010267	0.057306	1.020660
	O405	O	0.200684	-0.026052	-0.219426
	H406	H	0.221264	-0.024984	-0.236253
	H407	H	0.204424	-0.011211	-0.210630
	O408	O	0.681776	0.700315	1.391384
	H409	H	0.672381	0.711097	1.392647
	H410	H	0.676839	0.713878	1.377911
	O411	O	0.801601	1.104288	-0.197052
	H412	H	0.820951	1.107620	-0.209322
	H413	H	0.808987	1.093162	-0.198144
	O414	O	0.083906	-0.210703	1.024559
	H415	H	0.076425	-0.218642	1.034231
	H416	H	0.069233	-0.199059	1.021801
	O417	O	0.910948	0.066276	0.910089
	H418	H	0.916076	0.069769	0.928606
	H419	H	0.919157	0.063393	0.912095
	O420	O	0.183649	1.049117	-0.045159
	H421	H	0.182350	1.034218	-0.028823
	H422	H	0.181697	1.067942	-0.027750
	O423	O	1.465715	0.514596	-0.388867
	H424	H	1.475435	0.522182	-0.386345
	H425	H	1.461362	0.500140	-0.385329
	O426	O	-0.220515	0.211767	0.933810
	H427	H	-0.200995	0.200995	0.891606
	H428	H	-0.246127	0.243233	0.937957
	O429	O	0.647842	0.619696	0.583469
	H430	H	0.655293	0.632459	0.598072
	H431	H	0.642718	0.630172	0.586022
