data_Molecule from HDF5

_cell_length_a		16.230209
_cell_length_b		16.272820
_cell_length_c		16.211214
_cell_angle_alpha	89.975561
_cell_angle_beta	90.036165
_cell_angle_gamma	89.998633
_symmetry_space_group_name_H-M	'P 1'
_symmetry_Int_Tables_number		1

loop_
	_symmetry_equiv_pos_as_xyz
	x,y,z

loop_
	_atom_site_label
	_atom_site_type_symbol
	_atom_site_fract_x
	_atom_site_fract_y
	_atom_site_fract_z
	H0	H	0.403876	0.835379	0.712253
	H1	H	0.597326	0.164318	0.712102
	H2	H	0.596390	0.836327	0.287162
	H3	H	0.403320	0.164184	0.287103
	H4	H	0.711745	0.403328	0.835465
	H5	H	0.712535	0.596481	0.164753
	H6	H	0.287120	0.596985	0.835993
	H7	H	0.287280	0.403235	0.165388
	H8	H	0.835361	0.712857	0.403092
	H9	H	0.164193	0.714174	0.598332
	H10	H	0.835273	0.286605	0.596997
	H11	H	0.164136	0.285931	0.402312
	H12	H	0.834770	0.403629	0.712270
	H13	H	0.164907	0.596812	0.711958
	H14	H	0.835616	0.596694	0.287275
	H15	H	0.165042	0.403331	0.287927
	H16	H	0.401515	0.713586	0.835458
	H17	H	0.597682	0.713708	0.164490
	H18	H	0.597271	0.287060	0.835293
	H19	H	0.400788	0.284599	0.164399
	H20	H	0.713417	0.836421	0.402006
	H21	H	0.713523	0.164300	0.597653
	H22	H	0.286917	0.835976	0.597338
	H23	H	0.287904	0.164581	0.403015
	H24	H	0.902491	0.335668	0.214372
	H25	H	0.097298	0.663987	0.212774
	H26	H	0.097479	0.335211	0.786507
	H27	H	0.903039	0.663870	0.786637
	H28	H	0.213639	0.902720	0.335145
	H29	H	0.212537	0.096151	0.665049
	H30	H	0.787632	0.097087	0.335224
	H31	H	0.786846	0.902854	0.664669
	H32	H	0.335608	0.213845	0.901658
	H33	H	0.664631	0.212457	0.096890
	H34	H	0.335305	0.786924	0.097919
	H35	H	0.664709	0.787843	0.903552
	H36	H	0.335690	0.903981	0.212538
	H37	H	0.665119	0.097272	0.212472
	H38	H	0.335380	0.096405	0.786477
	H39	H	0.664681	0.903399	0.787690
	H40	H	0.901995	0.213005	0.335177
	H41	H	0.097882	0.213374	0.664679
	H42	H	0.097107	0.786943	0.335115
	H43	H	0.902230	0.786757	0.664792
	H44	H	0.214127	0.335861	0.902049
	H45	H	0.213453	0.663675	0.097032
	H46	H	0.787302	0.334620	0.097365
	H47	H	0.786334	0.664058	0.902741
	H48	H	0.394597	0.119601	0.592370
	H49	H	0.589933	0.885732	0.589139
	H50	H	0.600737	0.119401	0.407636
	H51	H	0.412360	0.887229	0.416271
	H52	H	0.589263	0.393252	0.120749
	H53	H	0.593862	0.602224	0.879942
	H54	H	0.405241	0.591252	0.117851
	H55	H	0.408814	0.399242	0.881826
	H56	H	0.116862	0.586515	0.399489
	H57	H	0.883533	0.591291	0.591468
	H58	H	0.118804	0.408388	0.600885
	H59	H	0.881873	0.403744	0.407617
	H60	H	0.118404	0.398752	0.591761
	H61	H	0.881626	0.593799	0.596716
	H62	H	0.121698	0.603242	0.404167
	H63	H	0.883383	0.407063	0.407572
	H64	H	0.409115	0.595034	0.117502
	H65	H	0.599186	0.589593	0.881716
	H66	H	0.605768	0.409578	0.120827
	H67	H	0.400060	0.409314	0.881224
	H68	H	0.592827	0.119463	0.400056
	H69	H	0.600608	0.881003	0.591309
	H70	H	0.409811	0.119395	0.605256
	H71	H	0.393520	0.879466	0.407157
	H72	H	0.906441	0.618808	0.101584
	H73	H	0.088497	0.379417	0.109298
	H74	H	0.080866	0.608703	0.918515
	H75	H	0.907063	0.382416	0.904364
	H76	H	0.094869	0.913589	0.615328
	H77	H	0.089438	0.097643	0.382507
	H78	H	0.904216	0.091254	0.618258
	H79	H	0.906745	0.908891	0.382453
	H80	H	0.616838	0.094407	0.908337
	H81	H	0.380721	0.102947	0.091341
	H82	H	0.617923	0.904598	0.094796
	H83	H	0.379362	0.892393	0.909794
	H84	H	0.617836	0.905050	0.091771
	H85	H	0.386008	0.088229	0.085997
	H86	H	0.617899	0.092589	0.905096
	H87	H	0.387494	0.915413	0.915350
	H88	H	0.910334	0.093009	0.616572
	H89	H	0.098653	0.096951	0.379809
	H90	H	0.086098	0.903683	0.616549
	H91	H	0.909367	0.905293	0.383309
	H92	H	0.112717	0.620651	0.911604
	H93	H	0.085217	0.388186	0.083722
	H94	H	0.912873	0.613134	0.090240
	H95	H	0.906801	0.384129	0.907931
	H96	H	0.411707	0.113211	0.585970
	H97	H	0.592469	0.881933	0.599904
	H98	H	0.590639	0.115340	0.410912
	H99	H	0.412059	0.881630	0.394706
	H100	H	0.584718	0.414787	0.112850
	H101	H	0.585979	0.591826	0.884796
	H102	H	0.404530	0.596355	0.118992
	H103	H	0.412137	0.411182	0.885731
	H104	H	0.114468	0.592204	0.416141
	H105	H	0.882011	0.596597	0.591687
	H106	H	0.114362	0.410944	0.588755
	H107	H	0.881784	0.406185	0.404276
	H108	H	0.899082	0.617275	0.089423
	H109	H	0.109783	0.378621	0.091923
	H110	H	0.088645	0.620384	0.886755
	H111	H	0.904372	0.381713	0.905915
	H112	H	0.098970	0.901798	0.620154
	H113	H	0.093615	0.089616	0.383946
	H114	H	0.905791	0.097099	0.618943
	H115	H	0.905268	0.904620	0.381285
	H116	H	0.618800	0.096241	0.905458
	H117	H	0.380886	0.090021	0.101928
	H118	H	0.617133	0.907593	0.094177
	H119	H	0.379320	0.909694	0.891490
	C120	C	0.378225	0.008371	0.621999
	C121	C	0.622271	0.991531	0.621357
	C122	C	0.622029	0.009342	0.378108
	C123	C	0.378135	0.991480	0.378044
	C124	C	0.620918	0.378539	0.008873
	C125	C	0.621299	0.621879	0.991408
	C126	C	0.378254	0.621957	0.009033
	C127	C	0.378644	0.378480	0.991912
	C128	C	0.008717	0.621568	0.378663
	C129	C	0.991553	0.621433	0.621262
	C130	C	0.008385	0.378314	0.621513
	C131	C	0.991387	0.378082	0.378550
	C132	C	0.878132	0.507898	0.121893
	C133	C	0.121787	0.490902	0.121757
	C134	C	0.121770	0.508036	0.878200
	C135	C	0.877842	0.491208	0.878164
	C136	C	0.121529	0.878488	0.508428
	C137	C	0.121575	0.122108	0.491391
	C138	C	0.878806	0.121444	0.508579
	C139	C	0.878580	0.878277	0.491496
	C140	C	0.508628	0.121971	0.878375
	C141	C	0.491534	0.121623	0.121040
	C142	C	0.508619	0.878585	0.121531
	C143	C	0.491247	0.878463	0.878271
	C144	C	0.382530	0.884555	0.675408
	C145	C	0.618529	0.115283	0.675101
	C146	C	0.617845	0.885219	0.324448
	C147	C	0.381883	0.115261	0.324051
	C148	C	0.674895	0.382009	0.884687
	C149	C	0.675391	0.618050	0.115576
	C150	C	0.324350	0.618085	0.884814
	C151	C	0.324468	0.382107	0.116182
	C152	C	0.884679	0.675496	0.381957
	C153	C	0.115358	0.675832	0.618283
	C154	C	0.884387	0.324039	0.618323
	C155	C	0.115343	0.323981	0.381980
	C156	C	0.883875	0.382358	0.675020
	C157	C	0.115648	0.617736	0.675021
	C158	C	0.884593	0.617703	0.324689
	C159	C	0.115734	0.382177	0.325189
	C160	C	0.380944	0.676148	0.884947
	C161	C	0.618352	0.676221	0.115277
	C162	C	0.617927	0.324384	0.884690
	C163	C	0.381050	0.323569	0.115760
	C164	C	0.675904	0.885329	0.381329
	C165	C	0.676214	0.115256	0.618187
	C166	C	0.324556	0.884778	0.618244
	C167	C	0.324754	0.115326	0.381842
	C168	C	0.881764	0.384198	0.176319
	C169	C	0.118019	0.615091	0.175551
	C170	C	0.118127	0.384136	0.824348
	C171	C	0.881715	0.615021	0.824230
	C172	C	0.175764	0.882001	0.384126
	C173	C	0.175034	0.117602	0.616030
	C174	C	0.824820	0.117707	0.384438
	C175	C	0.824404	0.881804	0.615523
	C176	C	0.384591	0.176119	0.880961
	C177	C	0.615504	0.175658	0.118011
	C178	C	0.384744	0.824540	0.118507
	C179	C	0.615389	0.824717	0.881883
	C180	C	0.384530	0.882720	0.175252
	C181	C	0.615699	0.118025	0.175032
	C182	C	0.384651	0.117993	0.823779
	C183	C	0.615481	0.882114	0.824537
	C184	C	0.881730	0.175508	0.384426
	C185	C	0.118159	0.175717	0.615718
	C186	C	0.118176	0.824462	0.384200
	C187	C	0.881332	0.823816	0.615506
	C188	C	0.176038	0.384400	0.881566
	C189	C	0.175669	0.614815	0.118082
	C190	C	0.824167	0.383912	0.118479
	C191	C	0.823551	0.614828	0.881572
	C192	C	0.399242	0.095215	0.600779
	C193	C	0.600582	0.905020	0.599789
	C194	C	0.600801	0.095629	0.399595
	C195	C	0.399586	0.904991	0.399538
	C196	C	0.599712	0.399543	0.095794
	C197	C	0.599507	0.600660	0.904658
	C198	C	0.399873	0.600509	0.095694
	C199	C	0.400429	0.400325	0.905206
	C200	C	0.095319	0.600300	0.400183
	C201	C	0.904722	0.600043	0.599704
	C202	C	0.094958	0.399722	0.600101
	C203	C	0.904661	0.399427	0.399914
	C204	C	0.899779	0.594242	0.100249
	C205	C	0.100907	0.404580	0.101101
	C206	C	0.100443	0.594220	0.899409
	C207	C	0.899661	0.404869	0.899829
	C208	C	0.099791	0.900029	0.594915
	C209	C	0.100312	0.101219	0.404606
	C210	C	0.900461	0.100179	0.595619
	C211	C	0.900624	0.899965	0.404831
	C212	C	0.595329	0.100724	0.899871
	C213	C	0.404791	0.100257	0.099515
	C214	C	0.595276	0.899600	0.100102
	C215	C	0.404613	0.899679	0.899104
	Zn216	Zn	0.500660	0.000087	0.749549
	Zn217	Zn	0.500258	0.000652	0.249674
	Zn218	Zn	0.749328	0.499536	0.000558
	Zn219	Zn	0.250382	0.499592	0.000108
	Zn220	Zn	0.000024	0.749896	0.500087
	Zn221	Zn	-0.000165	0.249984	0.500054
	Zn222	Zn	0.000111	0.499787	0.749610
	Zn223	Zn	0.000032	0.500069	0.250461
	Zn224	Zn	0.499577	0.750116	-0.000077
	Zn225	Zn	0.500021	0.250411	0.000367
	Zn226	Zn	0.750453	0.000232	0.499729
	Zn227	Zn	0.249614	0.000179	0.500084
	N228	N	0.415260	0.962584	0.677636
	N229	N	0.585601	0.037356	0.677214
	N230	N	0.585016	0.963292	0.322252
	N231	N	0.414454	0.037330	0.321642
	N232	N	0.676676	0.414975	0.962806
	N233	N	0.677396	0.585142	0.037441
	N234	N	0.322380	0.585135	0.962993
	N235	N	0.322806	0.415407	0.038152
	N236	N	0.962976	0.678163	0.414468
	N237	N	0.037076	0.678308	0.585788
	N238	N	0.962573	0.321668	0.585588
	N239	N	0.036965	0.321324	0.414249
	N240	N	0.962087	0.415109	0.677401
	N241	N	0.037551	0.584653	0.677052
	N242	N	0.962617	0.584584	0.322702
	N243	N	0.037553	0.415219	0.322918
	N244	N	0.413937	0.678362	0.963136
	N245	N	0.585031	0.678240	0.037234
	N246	N	0.585135	0.322171	0.963001
	N247	N	0.413819	0.321203	0.037443
	N248	N	0.678647	0.963294	0.414073
	N249	N	0.678696	0.037220	0.585490
	N250	N	0.321749	0.962910	0.585923
	N251	N	0.322301	0.037329	0.414789
	N252	N	0.914728	0.462125	0.178552
	N253	N	0.085151	0.537207	0.178043
	N254	N	0.085000	0.461895	0.822227
	N255	N	0.914510	0.537152	0.821804
	N256	N	0.177992	0.914980	0.462251
	N257	N	0.177460	0.085065	0.537784
	N258	N	0.823060	0.084812	0.462626
	N259	N	0.822351	0.914896	0.537174
	N260	N	0.462535	0.178415	0.914416
	N261	N	0.537335	0.177871	0.085031
	N262	N	0.462960	0.821825	0.085900
	N263	N	0.537178	0.822237	0.914567
	N264	N	0.462553	0.915761	0.177227
	N265	N	0.537554	0.085100	0.177038
	N266	N	0.462894	0.085000	0.821902
	N267	N	0.537252	0.914987	0.822175
	N268	N	0.914681	0.177892	0.462628
	N269	N	0.085678	0.178586	0.537360
	N270	N	0.085180	0.822176	0.462407
	N271	N	0.914301	0.821639	0.537416
	N272	N	0.178465	0.462409	0.914357
	N273	N	0.178270	0.536774	0.085586
	N274	N	0.821954	0.461851	0.085448
	N275	N	0.821318	0.536889	0.914575
