data_Molecule from HDF5

_cell_length_a		16.142993
_cell_length_b		16.058219
_cell_length_c		16.399365
_cell_angle_alpha	90.171989
_cell_angle_beta	89.715743
_cell_angle_gamma	89.876136
_symmetry_space_group_name_H-M	'P 1'
_symmetry_Int_Tables_number		1

loop_
	_symmetry_equiv_pos_as_xyz
	x,y,z

loop_
	_atom_site_label
	_atom_site_type_symbol
	_atom_site_fract_x
	_atom_site_fract_y
	_atom_site_fract_z
	H0	H	0.396105	0.835896	0.713590
	H1	H	0.598917	0.165100	0.710949
	H2	H	0.605423	0.836863	0.278799
	H3	H	0.399899	0.164471	0.283199
	H4	H	0.718442	0.397994	0.834488
	H5	H	0.715976	0.600166	0.159414
	H6	H	0.284797	0.599700	0.833745
	H7	H	0.283642	0.401360	0.159120
	H8	H	0.834121	0.710375	0.401781
	H9	H	0.165728	0.711800	0.592607
	H10	H	0.834140	0.289426	0.592264
	H11	H	0.165791	0.287308	0.398917
	H12	H	0.837496	0.397041	0.714201
	H13	H	0.164820	0.600844	0.711471
	H14	H	0.837095	0.602923	0.280429
	H15	H	0.163449	0.395683	0.279034
	H16	H	0.402299	0.714253	0.833899
	H17	H	0.597670	0.715041	0.159605
	H18	H	0.599805	0.283470	0.833422
	H19	H	0.403515	0.287031	0.160114
	H20	H	0.711401	0.833673	0.399749
	H21	H	0.712063	0.165244	0.595309
	H22	H	0.287326	0.833805	0.595268
	H23	H	0.288963	0.166470	0.401392
	H24	H	0.900041	0.334768	0.211765
	H25	H	0.101566	0.663621	0.213380
	H26	H	0.102100	0.334863	0.781698
	H27	H	0.898868	0.663892	0.782631
	H28	H	0.218164	0.899198	0.333945
	H29	H	0.213290	0.099872	0.659231
	H30	H	0.784418	0.098477	0.333583
	H31	H	0.784185	0.901067	0.658741
	H32	H	0.334581	0.210105	0.904512
	H33	H	0.667024	0.210752	0.091752
	H34	H	0.334440	0.790230	0.093044
	H35	H	0.665680	0.787351	0.898823
	H36	H	0.337734	0.898910	0.214951
	H37	H	0.664978	0.101903	0.212487
	H38	H	0.336319	0.103253	0.782572
	H39	H	0.662815	0.896962	0.777785
	H40	H	0.902738	0.213525	0.332332
	H41	H	0.094919	0.213987	0.658675
	H42	H	0.098419	0.784770	0.332487
	H43	H	0.901183	0.785980	0.659497
	H44	H	0.212277	0.333856	0.899480
	H45	H	0.210310	0.666546	0.093618
	H46	H	0.789161	0.332962	0.093245
	H47	H	0.790024	0.665813	0.901124
	H48	H	0.407647	0.120086	0.594773
	H49	H	0.586385	0.882283	0.589767
	H50	H	0.591647	0.121343	0.395831
	H51	H	0.406434	0.881437	0.409624
	H52	H	0.589538	0.393281	0.114875
	H53	H	0.596930	0.587222	0.882021
	H54	H	0.405672	0.581705	0.109038
	H55	H	0.405975	0.400452	0.878474
	H56	H	0.118780	0.589744	0.400145
	H57	H	0.879100	0.593030	0.600520
	H58	H	0.109792	0.423592	0.576587
	H59	H	0.880732	0.414301	0.393881
	H60	H	0.123205	0.412179	0.611056
	H61	H	0.882695	0.597578	0.583908
	H62	H	0.118306	0.592466	0.403969
	H63	H	0.878440	0.397189	0.402755
	H64	H	0.415471	0.601386	0.112043
	H65	H	0.590531	0.594046	0.882149
	H66	H	0.608360	0.411360	0.115932
	H67	H	0.402352	0.409173	0.880278
	H68	H	0.583994	0.115540	0.408057
	H69	H	0.592788	0.880737	0.585198
	H70	H	0.409489	0.117830	0.589084
	H71	H	0.408547	0.879044	0.399604
	H72	H	0.916200	0.617852	0.101428
	H73	H	0.093595	0.382055	0.083811
	H74	H	0.097255	0.620384	0.905105
	H75	H	0.915604	0.383959	0.908164
	H76	H	0.094305	0.905124	0.611492
	H77	H	0.092253	0.094308	0.379262
	H78	H	0.909918	0.086899	0.608815
	H79	H	0.903380	0.901530	0.378209
	H80	H	0.621033	0.093941	0.897033
	H81	H	0.379961	0.100816	0.095949
	H82	H	0.619952	0.906991	0.092733
	H83	H	0.381898	0.902608	0.910415
	H84	H	0.618180	0.906818	0.085816
	H85	H	0.385050	0.092419	0.083886
	H86	H	0.618283	0.092626	0.907708
	H87	H	0.384989	0.916744	0.904687
	H88	H	0.909343	0.102201	0.612053
	H89	H	0.098911	0.093946	0.378194
	H90	H	0.093612	0.906264	0.611991
	H91	H	0.903841	0.909222	0.380505
	H92	H	0.090183	0.620594	0.897793
	H93	H	0.096244	0.378997	0.092598
	H94	H	0.913843	0.613792	0.080589
	H95	H	0.903918	0.378717	0.906344
	H96	H	0.403318	0.119626	0.589757
	H97	H	0.592923	0.879444	0.592387
	H98	H	0.599212	0.120168	0.409471
	H99	H	0.416330	0.883945	0.405627
	H100	H	0.584539	0.417374	0.105725
	H101	H	0.599442	0.595784	0.878719
	H102	H	0.393635	0.598703	0.117076
	H103	H	0.411175	0.406765	0.882999
	H104	H	0.116764	0.587428	0.404115
	H105	H	0.886331	0.581218	0.589703
	H106	H	0.123201	0.386552	0.582213
	H107	H	0.885816	0.412310	0.411399
	H108	H	0.897444	0.621678	0.091335
	H109	H	0.086893	0.381404	0.091757
	H110	H	0.087979	0.616679	0.906081
	H111	H	0.911690	0.379757	0.896216
	H112	H	0.091672	0.906321	0.611777
	H113	H	0.096236	0.088727	0.380947
	H114	H	0.896600	0.092474	0.613683
	H115	H	0.910158	0.904572	0.381049
	H116	H	0.617103	0.084325	0.900948
	H117	H	0.382376	0.084996	0.097386
	H118	H	0.617579	0.912162	0.089102
	H119	H	0.378132	0.905930	0.895103
	C120	C	0.378103	0.009325	0.619403
	C121	C	0.619801	0.990768	0.617461
	C122	C	0.621528	0.009517	0.375465
	C123	C	0.380583	0.991250	0.376638
	C124	C	0.623542	0.377632	0.004701
	C125	C	0.623541	0.621689	0.988344
	C126	C	0.377423	0.622409	0.005011
	C127	C	0.378011	0.377566	0.988243
	C128	C	0.009211	0.619698	0.375044
	C129	C	0.991898	0.620554	0.619063
	C130	C	0.009236	0.378360	0.617986
	C131	C	0.990796	0.378314	0.374283
	C132	C	0.879797	0.508366	0.118737
	C133	C	0.120869	0.490462	0.117991
	C134	C	0.121635	0.509354	0.874743
	C135	C	0.880540	0.490354	0.876082
	C136	C	0.122494	0.876910	0.504495
	C137	C	0.122809	0.121889	0.487317
	C138	C	0.876945	0.122413	0.504138
	C139	C	0.877648	0.877311	0.487738
	C140	C	0.509382	0.120119	0.875291
	C141	C	0.492256	0.121446	0.119435
	C142	C	0.509587	0.879795	0.118094
	C143	C	0.490773	0.878368	0.874092
	C144	C	0.378131	0.884940	0.675056
	C145	C	0.618267	0.115761	0.672797
	C146	C	0.622571	0.885456	0.318558
	C147	C	0.381433	0.115548	0.321649
	C148	C	0.680079	0.378138	0.882745
	C149	C	0.677984	0.620155	0.110853
	C150	C	0.322625	0.619996	0.882592
	C151	C	0.322356	0.380891	0.110641
	C152	C	0.883983	0.674364	0.379553
	C153	C	0.116056	0.675168	0.614325
	C154	C	0.884327	0.325040	0.614185
	C155	C	0.115854	0.323708	0.377655
	C156	C	0.885770	0.379027	0.674466
	C157	C	0.115482	0.619938	0.673652
	C158	C	0.885462	0.620655	0.319509
	C159	C	0.114902	0.378001	0.318190
	C160	C	0.381151	0.676895	0.882589
	C161	C	0.619161	0.677411	0.110852
	C162	C	0.620624	0.321641	0.882207
	C163	C	0.382111	0.324489	0.111373
	C164	C	0.675867	0.884068	0.377955
	C165	C	0.674419	0.115872	0.615024
	C166	C	0.323703	0.884051	0.616122
	C167	C	0.326069	0.116538	0.380433
	C168	C	0.880519	0.383703	0.173450
	C169	C	0.120187	0.614746	0.174289
	C170	C	0.121385	0.384452	0.819495
	C171	C	0.880340	0.614680	0.820854
	C172	C	0.179242	0.878873	0.382193
	C173	C	0.175876	0.119901	0.610392
	C174	C	0.822128	0.119360	0.382065
	C175	C	0.822049	0.880369	0.610268
	C176	C	0.384436	0.174555	0.881278
	C177	C	0.616966	0.175330	0.114469
	C178	C	0.384443	0.826085	0.114824
	C179	C	0.615582	0.823715	0.877319
	C180	C	0.386026	0.880352	0.175050
	C181	C	0.615892	0.121066	0.174547
	C182	C	0.385335	0.121041	0.821035
	C183	C	0.614092	0.877977	0.816954
	C184	C	0.881105	0.176339	0.381221
	C185	C	0.117085	0.176561	0.610060
	C186	C	0.119787	0.821972	0.381509
	C187	C	0.880414	0.823069	0.610703
	C188	C	0.176042	0.383910	0.878015
	C189	C	0.174187	0.616227	0.114671
	C190	C	0.825702	0.382980	0.114489
	C191	C	0.826253	0.615751	0.879916
	C192	C	0.400153	0.096713	0.597905
	C193	C	0.597349	0.903468	0.595699
	C194	C	0.598592	0.096512	0.397925
	C195	C	0.403571	0.904124	0.398495
	C196	C	0.600831	0.400687	0.090079
	C197	C	0.601989	0.598909	0.902943
	C198	C	0.398737	0.600645	0.090636
	C199	C	0.399939	0.399169	0.902809
	C200	C	0.095506	0.596756	0.396355
	C201	C	0.905020	0.597311	0.597718
	C202	C	0.096327	0.400739	0.596181
	C203	C	0.904227	0.401247	0.396099
	C204	C	0.902515	0.595345	0.097329
	C205	C	0.098785	0.403372	0.095900
	C206	C	0.098592	0.596539	0.896707
	C207	C	0.903669	0.403312	0.897291
	C208	C	0.099925	0.899241	0.589666
	C209	C	0.101975	0.098944	0.401621
	C210	C	0.898800	0.100386	0.589652
	C211	C	0.899677	0.898671	0.402037
	C212	C	0.596405	0.097130	0.895803
	C213	C	0.404946	0.099208	0.098719
	C214	C	0.596324	0.902121	0.095764
	C215	C	0.404207	0.901613	0.896791
	Zn216	Zn	0.499298	0.000145	0.746306
	Zn217	Zn	0.501393	0.000065	0.247876
	Zn218	Zn	0.753228	0.499610	-0.003409
	Zn219	Zn	0.248088	0.500654	-0.003495
	Zn220	Zn	-0.000490	0.747419	0.496379
	Zn221	Zn	-0.000026	0.250983	0.495269
	Zn222	Zn	0.000485	0.499246	0.747578
	Zn223	Zn	0.000450	0.499136	0.246425
	Zn224	Zn	0.500050	0.751357	-0.003527
	Zn225	Zn	0.501087	0.247891	-0.003243
	Zn226	Zn	0.747963	-0.000533	0.496383
	Zn227	Zn	0.252054	0.000103	0.497137
	N228	N	0.411362	0.963826	0.677200
	N229	N	0.584804	0.036933	0.674312
	N230	N	0.589520	0.964490	0.316787
	N231	N	0.414587	0.036554	0.319185
	N232	N	0.681985	0.412159	0.959956
	N233	N	0.680674	0.586225	0.033727
	N234	N	0.320035	0.586841	0.959821
	N235	N	0.319818	0.413343	0.033102
	N236	N	0.961769	0.674273	0.413319
	N237	N	0.038032	0.675701	0.580952
	N238	N	0.962164	0.324689	0.579645
	N239	N	0.037923	0.323928	0.411906
	N240	N	0.964651	0.411425	0.677084
	N241	N	0.037019	0.586695	0.676471
	N242	N	0.964224	0.587498	0.316366
	N243	N	0.036258	0.411496	0.316019
	N244	N	0.414680	0.678282	0.959539
	N245	N	0.585811	0.678452	0.033762
	N246	N	0.586118	0.321052	0.959126
	N247	N	0.415980	0.322147	0.034338
	N248	N	0.675390	0.962130	0.412797
	N249	N	0.675772	0.037220	0.581662
	N250	N	0.323517	0.962310	0.582172
	N251	N	0.325649	0.038201	0.414137
	N252	N	0.913533	0.462563	0.176339
	N253	N	0.087801	0.535607	0.176532
	N254	N	0.088003	0.463377	0.817361
	N255	N	0.913673	0.535710	0.818334
	N256	N	0.181144	0.912214	0.459676
	N257	N	0.179410	0.086541	0.533075
	N258	N	0.819591	0.086479	0.459471
	N259	N	0.820113	0.913256	0.532935
	N260	N	0.462668	0.174154	0.914245
	N261	N	0.539069	0.175661	0.080872
	N262	N	0.462402	0.825216	0.080240
	N263	N	0.537849	0.823853	0.912098
	N264	N	0.464947	0.912697	0.177356
	N265	N	0.537032	0.088409	0.177751
	N266	N	0.464148	0.087999	0.817091
	N267	N	0.535511	0.911117	0.814719
	N268	N	0.914403	0.178382	0.458263
	N269	N	0.084919	0.177965	0.532500
	N270	N	0.085192	0.820529	0.458355
	N271	N	0.914221	0.820994	0.533450
	N272	N	0.176398	0.462575	0.911674
	N273	N	0.174892	0.537861	0.080488
	N274	N	0.824975	0.461555	0.081421
	N275	N	0.826386	0.537578	0.913695
	O276	O	0.458174	0.544301	0.520138
	H277	H	0.465405	0.542717	0.521700
	H278	H	0.453271	0.546108	0.524346
	O279	O	0.499512	0.567422	0.524309
	H280	H	0.503238	0.561833	0.528940
	H281	H	0.507351	0.562179	0.518848
	O282	O	0.450692	0.581951	0.594050
	H283	H	0.452960	0.585851	0.593385
	H284	H	0.462495	0.588981	0.601926
	O285	O	-0.525279	1.520803	1.500313
	H286	H	-0.527560	1.526195	1.507225
	H287	H	-0.518819	1.517760	1.507658
	O288	O	0.563697	0.505985	0.488436
	H289	H	0.564178	0.500926	0.488547
	H290	H	0.564495	0.502082	0.468234
	O291	O	0.030794	-0.065619	0.926403
	H292	H	0.027003	-0.065884	0.927355
	H293	H	0.025225	-0.065624	0.925964
	O294	O	0.496893	0.497847	0.472243
	H295	H	0.494066	0.495950	0.483511
	H296	H	0.481902	0.503845	0.477228
	O297	O	0.566281	0.489309	0.415117
	H298	H	0.565729	0.477505	0.406135
	H299	H	0.553965	0.499190	0.419478
	O300	O	0.496714	0.511915	0.494621
	H301	H	0.502804	0.520957	0.495923
	H302	H	0.497105	0.508846	0.495167
	O303	O	0.537851	0.455840	0.470603
	H304	H	0.539395	0.458383	0.476681
	H305	H	0.545384	0.460292	0.472002
	O306	O	1.000471	-0.016319	0.981325
	H307	H	0.998123	-0.017027	0.981166
	H308	H	1.007239	-0.018223	0.974685
	O309	O	0.483516	0.532442	0.530040
	H310	H	0.489176	0.522778	0.516818
	H311	H	0.479042	0.541033	0.537518
	O312	O	0.416402	0.559652	0.434745
	H313	H	0.416371	0.547210	0.434317
	H314	H	0.412869	0.565415	0.423494
	O315	O	1.016516	-0.008567	0.971960
	H316	H	1.015155	-0.021683	0.970339
	H317	H	1.022462	-0.013746	0.964372
	O318	O	-0.008394	-0.057079	-0.020489
	H319	H	-0.003377	-0.052665	-0.013198
	H320	H	-0.008367	-0.046827	-0.021842
	O321	O	0.484509	0.517810	0.580399
	H322	H	0.473498	0.518690	0.587224
	H323	H	0.486432	0.524186	0.578219
	O324	O	0.995983	-0.069704	-0.015534
	H325	H	0.995769	-0.067668	-0.013844
	H326	H	1.004464	-0.068451	-0.013937
	O327	O	1.060387	0.918321	-0.031968
	H328	H	1.048001	0.914292	-0.032588
	H329	H	1.062029	0.914422	-0.032901
	O330	O	0.505211	0.440160	0.455086
	H331	H	0.505089	0.442529	0.446254
	H332	H	0.499691	0.428518	0.451199
	O333	O	0.484100	0.488722	0.466851
	H334	H	0.486560	0.484555	0.462236
	H335	H	0.471546	0.491865	0.459960
