data_Molecule from HDF5

_cell_length_a		16.220456
_cell_length_b		16.536583
_cell_length_c		16.000670
_cell_angle_alpha	90.061436
_cell_angle_beta	89.985900
_cell_angle_gamma	89.845209
_symmetry_space_group_name_H-M	'P 1'
_symmetry_Int_Tables_number		1

loop_
	_symmetry_equiv_pos_as_xyz
	x,y,z

loop_
	_atom_site_label
	_atom_site_type_symbol
	_atom_site_fract_x
	_atom_site_fract_y
	_atom_site_fract_z
	H0	H	0.414817	0.833441	0.711914
	H1	H	0.612252	0.155552	0.715701
	H2	H	0.613285	0.833691	0.281026
	H3	H	0.413058	0.156625	0.280323
	H4	H	0.727536	0.394745	0.830225
	H5	H	0.726047	0.592511	0.161369
	H6	H	0.300155	0.592102	0.829325
	H7	H	0.298669	0.394792	0.160569
	H8	H	0.850470	0.716226	0.392475
	H9	H	0.173720	0.716432	0.603745
	H10	H	0.852202	0.276741	0.601890
	H11	H	0.172891	0.276641	0.388343
	H12	H	0.847793	0.400377	0.709175
	H13	H	0.176766	0.593025	0.708666
	H14	H	0.848025	0.593703	0.281635
	H15	H	0.177438	0.399316	0.283748
	H16	H	0.407763	0.713074	0.832220
	H17	H	0.617895	0.712443	0.159536
	H18	H	0.616684	0.275936	0.832021
	H19	H	0.406844	0.275769	0.158402
	H20	H	0.734233	0.836390	0.395078
	H21	H	0.730773	0.157017	0.599759
	H22	H	0.291542	0.837119	0.602685
	H23	H	0.294948	0.156167	0.394805
	H24	H	0.915835	0.333353	0.211757
	H25	H	0.111548	0.655886	0.211059
	H26	H	0.112130	0.334506	0.777796
	H27	H	0.912697	0.656746	0.779838
	H28	H	0.227149	0.898681	0.331032
	H29	H	0.225489	0.095238	0.662987
	H30	H	0.799057	0.095194	0.331052
	H31	H	0.801688	0.900119	0.663734
	H32	H	0.352945	0.214948	0.888080
	H33	H	0.673218	0.213626	0.102721
	H34	H	0.350847	0.773182	0.104456
	H35	H	0.673045	0.772978	0.890305
	H36	H	0.347368	0.897645	0.211141
	H37	H	0.677723	0.089316	0.208271
	H38	H	0.349212	0.091972	0.783679
	H39	H	0.676634	0.895274	0.783843
	H40	H	0.910402	0.212504	0.331031
	H41	H	0.117271	0.216493	0.659035
	H42	H	0.118806	0.777354	0.333364
	H43	H	0.907954	0.778520	0.660178
	H44	H	0.231574	0.334382	0.891443
	H45	H	0.232900	0.653835	0.098284
	H46	H	0.793880	0.334905	0.100021
	H47	H	0.791079	0.654156	0.890523
	H48	H	0.414260	0.109576	0.586079
	H49	H	0.613041	0.879182	0.593276
	H50	H	0.600982	0.108079	0.406368
	H51	H	0.419852	0.884402	0.416282
	H52	H	0.601831	0.398559	0.114388
	H53	H	0.591982	0.587037	0.880573
	H54	H	0.421119	0.584215	0.114013
	H55	H	0.414129	0.399446	0.872765
	H56	H	0.125431	0.588566	0.412860
	H57	H	0.896142	0.600121	0.577712
	H58	H	0.127047	0.399530	0.574917
	H59	H	0.896315	0.408002	0.402526
	H60	H	0.125187	0.413825	0.584265
	H61	H	0.899869	0.580108	0.581668
	H62	H	0.129120	0.584226	0.400500
	H63	H	0.892508	0.398213	0.402727
	H64	H	0.426292	0.582217	0.111185
	H65	H	0.606054	0.592676	0.874064
	H66	H	0.605008	0.403148	0.114385
	H67	H	0.426347	0.411452	0.880856
	H68	H	0.611407	0.109611	0.408274
	H69	H	0.602656	0.882703	0.590402
	H70	H	0.419439	0.112102	0.596780
	H71	H	0.413559	0.878508	0.401265
	H72	H	0.919491	0.608435	0.085916
	H73	H	0.111808	0.382016	0.076278
	H74	H	0.111328	0.610776	0.904622
	H75	H	0.922279	0.384225	0.909038
	H76	H	0.103305	0.905878	0.615003
	H77	H	0.104222	0.095148	0.375306
	H78	H	0.925314	0.090284	0.614373
	H79	H	0.929276	0.907301	0.381052
	H80	H	0.632063	0.089901	0.903455
	H81	H	0.397845	0.078913	0.086617
	H82	H	0.629867	0.896774	0.087862
	H83	H	0.393632	0.898750	0.903060
	H84	H	0.625706	0.900064	0.081506
	H85	H	0.392201	0.092451	0.093781
	H86	H	0.628377	0.089972	0.915697
	H87	H	0.396347	0.898139	0.912618
	H88	H	0.923016	0.090581	0.615164
	H89	H	0.108534	0.083476	0.378678
	H90	H	0.101200	0.905709	0.613840
	H91	H	0.924429	0.900294	0.377746
	H92	H	0.104581	0.608893	0.900591
	H93	H	0.114600	0.375676	0.097658
	H94	H	0.918421	0.608931	0.086719
	H95	H	0.915025	0.379512	0.903256
	H96	H	0.426298	0.107406	0.587706
	H97	H	0.611043	0.883409	0.582466
	H98	H	0.607200	0.111007	0.398579
	H99	H	0.429563	0.883842	0.401923
	H100	H	0.599762	0.402765	0.112804
	H101	H	0.605174	0.577729	0.879585
	H102	H	0.425552	0.587688	0.113055
	H103	H	0.431322	0.393767	0.877387
	H104	H	0.131856	0.596860	0.404200
	H105	H	0.891733	0.592340	0.596796
	H106	H	0.132091	0.399795	0.591786
	H107	H	0.897427	0.402718	0.411381
	H108	H	0.919367	0.609059	0.088408
	H109	H	0.095017	0.382542	0.090653
	H110	H	0.105074	0.607283	0.908267
	H111	H	0.925011	0.380940	0.899202
	H112	H	0.101701	0.903742	0.614789
	H113	H	0.096684	0.086467	0.381210
	H114	H	0.923692	0.088774	0.614080
	H115	H	0.920387	0.908759	0.378520
	H116	H	0.627444	0.078952	0.908537
	H117	H	0.397015	0.092103	0.078340
	H118	H	0.627511	0.905038	0.088198
	H119	H	0.396774	0.906323	0.907519
	C120	C	0.390474	0.003783	0.620329
	C121	C	0.637095	0.987712	0.619820
	C122	C	0.636585	0.003687	0.374289
	C123	C	0.391078	0.987956	0.375490
	C124	C	0.633501	0.372147	0.004814
	C125	C	0.632634	0.615382	0.986846
	C126	C	0.392728	0.614924	0.004194
	C127	C	0.392700	0.372288	0.986034
	C128	C	0.021089	0.618867	0.374964
	C129	C	1.003672	0.619254	0.616985
	C130	C	0.021076	0.375017	0.615857
	C131	C	1.003536	0.374214	0.374832
	C132	C	0.890377	0.502743	0.117890
	C133	C	0.136574	0.486031	0.118207
	C134	C	0.135802	0.503394	0.872961
	C135	C	0.890429	0.487345	0.873587
	C136	C	0.133635	0.875286	0.505828
	C137	C	0.133524	0.118451	0.487307
	C138	C	0.892811	0.118620	0.505376
	C139	C	0.894036	0.876731	0.488352
	C140	C	0.521911	0.115429	0.877029
	C141	C	0.503450	0.116629	0.117677
	C142	C	0.520461	0.871384	0.118117
	C143	C	0.503302	0.871642	0.876290
	C144	C	0.393318	0.882534	0.675249
	C145	C	0.633632	0.107965	0.677205
	C146	C	0.634190	0.882333	0.318725
	C147	C	0.392569	0.108481	0.318376
	C148	C	0.690319	0.373908	0.880253
	C149	C	0.689285	0.613204	0.111480
	C150	C	0.337111	0.612839	0.879336
	C151	C	0.336101	0.374395	0.110710
	C152	C	0.898817	0.676585	0.373930
	C153	C	0.125638	0.676265	0.620178
	C154	C	0.899648	0.317042	0.618788
	C155	C	0.125297	0.316570	0.371830
	C156	C	0.897623	0.378493	0.672342
	C157	C	0.127063	0.615115	0.672867
	C158	C	0.897498	0.615563	0.318947
	C159	C	0.127493	0.377622	0.319600
	C160	C	0.390519	0.673231	0.881090
	C161	C	0.635259	0.672963	0.110462
	C162	C	0.634946	0.314950	0.881214
	C163	C	0.390057	0.315137	0.109603
	C164	C	0.694447	0.883612	0.375352
	C165	C	0.692373	0.108756	0.619254
	C166	C	0.332047	0.884269	0.620468
	C167	C	0.333919	0.108477	0.375638
	C168	C	0.894197	0.381625	0.174017
	C169	C	0.133293	0.607246	0.173891
	C170	C	0.132861	0.382652	0.815767
	C171	C	0.891992	0.608284	0.817446
	C172	C	0.190310	0.877058	0.381038
	C173	C	0.188957	0.116371	0.612423
	C174	C	0.836417	0.116096	0.380694
	C175	C	0.838199	0.879150	0.613369
	C176	C	0.400306	0.173896	0.872954
	C177	C	0.625320	0.173845	0.119874
	C178	C	0.398760	0.813354	0.121281
	C179	C	0.625054	0.813408	0.873572
	C180	C	0.397146	0.875273	0.174570
	C181	C	0.627578	0.111855	0.172459
	C182	C	0.398535	0.112828	0.820599
	C183	C	0.626643	0.874102	0.820233
	C184	C	0.891865	0.174293	0.380608
	C185	C	0.135006	0.176813	0.610360
	C186	C	0.136117	0.817126	0.382144
	C187	C	0.891457	0.818824	0.611835
	C188	C	0.192507	0.382414	0.872379
	C189	C	0.193721	0.606286	0.117813
	C190	C	0.833246	0.382630	0.118581
	C191	C	0.831671	0.607005	0.873068
	C192	C	0.413362	0.087948	0.597044
	C193	C	0.615187	0.903513	0.595664
	C194	C	0.613408	0.087766	0.397629
	C195	C	0.414226	0.904033	0.399543
	C196	C	0.609379	0.394900	0.091169
	C197	C	0.608273	0.592465	0.900489
	C198	C	0.417159	0.591381	0.090362
	C199	C	0.416928	0.395021	0.899505
	C200	C	0.106575	0.596314	0.398838
	C201	C	0.918107	0.597340	0.592566
	C202	C	0.106223	0.397705	0.590993
	C203	C	0.917693	0.396348	0.398690
	C204	C	0.912663	0.586901	0.093976
	C205	C	0.113859	0.401944	0.094942
	C206	C	0.113613	0.587143	0.897320
	C207	C	0.913893	0.403239	0.897042
	C208	C	0.109253	0.898333	0.592062
	C209	C	0.109953	0.095249	0.400813
	C210	C	0.916929	0.096505	0.591982
	C211	C	0.917859	0.898848	0.401675
	C212	C	0.607086	0.092819	0.901953
	C213	C	0.418005	0.094462	0.093504
	C214	C	0.605690	0.893939	0.093308
	C215	C	0.417735	0.894519	0.900459
	Zn216	Zn	0.512934	-0.005522	0.749767
	Zn217	Zn	0.512158	-0.005205	0.245253
	Zn218	Zn	0.760157	0.494434	-0.004512
	Zn219	Zn	0.266204	0.493566	-0.004986
	Zn220	Zn	0.012983	0.747979	0.497168
	Zn221	Zn	0.012829	0.246183	0.494605
	Zn222	Zn	0.012303	0.496879	0.743878
	Zn223	Zn	0.012952	0.494801	0.247374
	Zn224	Zn	0.511885	0.742816	-0.003458
	Zn225	Zn	0.512200	0.244703	-0.003924
	Zn226	Zn	0.766677	-0.002979	0.497464
	Zn227	Zn	0.260831	-0.003449	0.497399
	N228	N	0.429103	0.957831	0.674995
	N229	N	0.600077	0.031742	0.677856
	N230	N	0.598887	0.958067	0.317760
	N231	N	0.427446	0.032601	0.318204
	N232	N	0.689633	0.408833	0.958127
	N233	N	0.687774	0.578004	0.033574
	N234	N	0.338372	0.577223	0.956885
	N235	N	0.337677	0.409372	0.032911
	N236	N	0.976688	0.678991	0.407701
	N237	N	0.047723	0.679197	0.586388
	N238	N	0.977387	0.314840	0.584378
	N239	N	0.047096	0.314309	0.405260
	N240	N	0.974057	0.413995	0.670404
	N241	N	0.050050	0.580368	0.671157
	N242	N	0.974589	0.580601	0.319076
	N243	N	0.050748	0.412858	0.321484
	N244	N	0.424523	0.674458	0.959858
	N245	N	0.601092	0.674840	0.031957
	N246	N	0.600505	0.313622	0.959796
	N247	N	0.424485	0.313771	0.031082
	N248	N	0.695948	0.960123	0.409045
	N249	N	0.694681	0.032687	0.584533
	N250	N	0.329969	0.960815	0.587124
	N251	N	0.332881	0.032541	0.410650
	N252	N	0.928807	0.457371	0.173908
	N253	N	0.098417	0.531651	0.174283
	N254	N	0.098428	0.458689	0.815828
	N255	N	0.927799	0.532858	0.817707
	N256	N	0.189052	0.912426	0.458800
	N257	N	0.188207	0.080758	0.534823
	N258	N	0.836647	0.082208	0.459123
	N259	N	0.839558	0.914504	0.535513
	N260	N	0.478056	0.175620	0.907379
	N261	N	0.547098	0.177123	0.086645
	N262	N	0.476704	0.810788	0.087095
	N263	N	0.547254	0.811726	0.907814
	N264	N	0.473761	0.910542	0.172874
	N265	N	0.550760	0.077058	0.171291
	N266	N	0.474916	0.076907	0.823176
	N267	N	0.549883	0.909600	0.821801
	N268	N	0.926433	0.175802	0.459136
	N269	N	0.101518	0.178180	0.531427
	N270	N	0.101825	0.815722	0.460924
	N271	N	0.925478	0.817179	0.533103
	N272	N	0.194725	0.458592	0.907274
	N273	N	0.196016	0.529755	0.084029
	N274	N	0.830853	0.459056	0.084545
	N275	N	0.830542	0.530642	0.907226
	O276	O	-0.021057	-0.120387	0.071848
	H277	H	-0.031085	-0.114371	0.064869
	H278	H	-0.030134	-0.118465	0.082993
	O279	O	0.621455	0.577958	0.523169
	H280	H	0.630888	0.582696	0.526000
	H281	H	0.611502	0.570276	0.527649
	O282	O	0.937696	-0.178494	-0.001779
	H283	H	0.934434	-0.182330	0.004747
	H284	H	0.933170	-0.168953	0.005117
	O285	O	0.047329	0.986776	0.006228
	H286	H	0.041736	0.991616	0.009147
	H287	H	0.037927	0.968878	0.009914
	O288	O	0.496758	0.517224	0.546731
	H289	H	0.502234	0.515753	0.555319
	H290	H	0.484947	0.530571	0.560009
	O291	O	0.315231	0.441720	0.556558
	H292	H	0.314203	0.421359	0.540396
	H293	H	0.304556	0.438798	0.573610
	O294	O	0.477200	1.420098	0.439217
	H295	H	0.477322	1.414141	0.428307
	H296	H	0.470970	1.426207	0.438510
	O297	O	0.534699	-0.666288	-0.628624
	H298	H	0.556457	-0.655583	-0.628022
	H299	H	0.542249	-0.676328	-0.638170
	O300	O	-0.002779	1.124270	0.924282
	H301	H	0.007961	1.123872	0.909430
	H302	H	-0.015129	1.122444	0.921086
	O303	O	-0.064173	0.902453	1.152745
	H304	H	-0.074480	0.892189	1.159875
	H305	H	-0.068041	0.920887	1.150398
	O306	O	-0.510075	1.555287	0.596527
	H307	H	-0.502652	1.566836	0.602951
	H308	H	-0.509617	1.567704	0.592451
	O309	O	0.962766	0.001816	0.005067
	H310	H	0.976759	0.011438	0.000614
	H311	H	0.952893	0.001205	0.009598
	O312	O	0.019331	-0.057783	0.954983
	H313	H	0.021687	-0.063214	0.958058
	H314	H	0.016269	-0.071399	0.965972
	O315	O	0.131336	1.003739	1.048373
	H316	H	0.125057	1.008986	1.049903
	H317	H	0.155068	0.986026	1.048382
	O318	O	0.609199	0.374703	0.593834
	H319	H	0.615202	0.364585	0.593355
	H320	H	0.603656	0.391663	0.594677
	O321	O	0.520248	0.548917	0.417050
	H322	H	0.527829	0.550561	0.402599
	H323	H	0.524217	0.552353	0.432669
	O324	O	0.465432	0.385013	0.540152
	H325	H	0.455727	0.376211	0.536568
	H326	H	0.490040	0.389900	0.551951
	O327	O	-0.024058	1.084134	1.019905
	H328	H	-0.030351	1.090264	1.027725
	H329	H	-0.017733	1.084275	1.003730
	O330	O	0.414379	0.357987	0.493389
	H331	H	0.415396	0.352723	0.489666
	H332	H	0.428361	0.352487	0.488816
	O333	O	0.005418	1.077064	1.047513
	H334	H	0.010810	1.083816	1.060066
	H335	H	0.006044	1.077359	1.045092
	O336	O	1.120663	0.986198	1.022117
	H337	H	1.108647	0.993989	1.017440
	H338	H	1.114174	0.981956	1.021682
	O339	O	0.546822	0.583066	0.440139
	H340	H	0.554194	0.590437	0.437234
	H341	H	0.550645	0.578576	0.441354
	O342	O	1.069988	-0.164680	-0.086268
	H343	H	1.076891	-0.173430	-0.092912
	H344	H	1.062715	-0.168606	-0.084733
	O345	O	0.500152	0.533244	0.591660
	H346	H	0.501070	0.540033	0.585102
	H347	H	0.499357	0.534627	0.590517
	O348	O	0.886088	1.107851	0.904135
	H349	H	0.905221	1.119591	0.902575
	H350	H	0.886298	1.090476	0.900430
	O351	O	0.953371	0.982482	-0.089861
	H352	H	0.958999	0.992080	-0.093569
	H353	H	0.945403	0.980229	-0.072733
	O354	O	0.529046	0.553862	0.617749
	H355	H	0.520299	0.557817	0.620248
	H356	H	0.533137	0.548418	0.609738
	O357	O	0.528434	0.350674	0.433823
	H358	H	0.530346	0.346360	0.433345
	H359	H	0.521653	0.350001	0.424128
	O360	O	-0.005947	0.158962	0.077460
	H361	H	-0.007620	0.164312	0.069594
	H362	H	0.014974	0.157635	0.074733
	O363	O	0.500783	0.498631	0.525414
	H364	H	0.494764	0.507413	0.517300
	H365	H	0.479544	0.495394	0.513985
	O366	O	-0.130316	-0.116232	1.024435
	H367	H	-0.129070	-0.117359	1.040887
	H368	H	-0.145134	-0.130898	1.029925
	O369	O	0.626562	0.526753	0.426342
	H370	H	0.631597	0.517265	0.426809
	H371	H	0.640768	0.522141	0.412557
	O372	O	0.386693	0.558925	0.474315
	H373	H	0.376564	0.554869	0.484460
	H374	H	0.369778	0.562404	0.468239
	O375	O	0.679032	0.412926	0.403403
	H376	H	0.675849	0.412484	0.412532
	H377	H	0.681802	0.400691	0.410922
	O378	O	0.551035	0.609944	0.434962
	H379	H	0.548023	0.607673	0.431781
	H380	H	0.537380	0.614552	0.429157
	O381	O	0.438962	0.595086	0.343664
	H382	H	0.435064	0.608863	0.322496
	H383	H	0.419256	0.583921	0.357072
	O384	O	0.142338	0.968752	-0.041071
	H385	H	0.146001	0.969899	-0.038677
	H386	H	0.132702	0.972535	-0.039478
	O387	O	0.933827	0.086391	0.976655
	H388	H	0.938685	0.104019	0.975253
	H389	H	0.930009	0.073539	0.964477
	O390	O	0.052489	0.969110	0.076667
	H391	H	0.055032	0.966262	0.079798
	H392	H	0.059275	0.976663	0.076453
	O393	O	1.158475	0.960653	-0.059204
	H394	H	1.145057	0.955674	-0.053486
	H395	H	1.166591	0.956241	-0.069268
	O396	O	0.600260	-0.437065	0.442590
	H397	H	0.604290	-0.423571	0.438981
	H398	H	0.593562	-0.438343	0.453170
	O399	O	-0.076830	1.167550	0.892452
	H400	H	-0.080987	1.170410	0.883759
	H401	H	-0.069994	1.165529	0.876912
	O402	O	1.008352	0.977691	0.980410
	H403	H	1.013407	0.978069	0.984884
	H404	H	1.005955	0.974705	0.974209
	O405	O	0.356981	0.569480	0.533894
	H406	H	0.345039	0.566499	0.528271
	H407	H	0.374479	0.555152	0.525901
