data_Molecule from HDF5

_cell_length_a		16.135610
_cell_length_b		16.336646
_cell_length_c		16.158684
_cell_angle_alpha	90.314274
_cell_angle_beta	89.947029
_cell_angle_gamma	90.014352
_symmetry_space_group_name_H-M	'P 1'
_symmetry_Int_Tables_number		1

loop_
	_symmetry_equiv_pos_as_xyz
	x,y,z

loop_
	_atom_site_label
	_atom_site_type_symbol
	_atom_site_fract_x
	_atom_site_fract_y
	_atom_site_fract_z
	H0	H	0.403627	0.835380	0.711237
	H1	H	0.600151	0.162138	0.712418
	H2	H	0.600626	0.836206	0.281591
	H3	H	0.403829	0.162871	0.284703
	H4	H	0.715320	0.401806	0.832706
	H5	H	0.714011	0.596395	0.163073
	H6	H	0.289476	0.595376	0.832754
	H7	H	0.289689	0.403074	0.163878
	H8	H	0.837493	0.712647	0.399993
	H9	H	0.166650	0.715326	0.600406
	H10	H	0.837195	0.284110	0.599067
	H11	H	0.165974	0.282471	0.398417
	H12	H	0.836067	0.404035	0.710367
	H13	H	0.168573	0.595500	0.710683
	H14	H	0.836691	0.595349	0.286718
	H15	H	0.168106	0.402417	0.286536
	H16	H	0.402804	0.712689	0.833668
	H17	H	0.604364	0.715639	0.160999
	H18	H	0.603701	0.282588	0.834441
	H19	H	0.402058	0.285051	0.162503
	H20	H	0.716438	0.835595	0.397658
	H21	H	0.715384	0.161142	0.596425
	H22	H	0.287864	0.835272	0.595061
	H23	H	0.287120	0.162091	0.400686
	H24	H	0.902621	0.335631	0.212055
	H25	H	0.100426	0.662459	0.214220
	H26	H	0.101725	0.336169	0.782667
	H27	H	0.904471	0.663371	0.785254
	H28	H	0.213854	0.900597	0.333337
	H29	H	0.213373	0.096364	0.664289
	H30	H	0.790051	0.094613	0.333059
	H31	H	0.788639	0.903510	0.663522
	H32	H	0.337880	0.213779	0.898351
	H33	H	0.666930	0.214292	0.098906
	H34	H	0.338137	0.783918	0.096902
	H35	H	0.666671	0.783434	0.896169
	H36	H	0.336102	0.903117	0.209007
	H37	H	0.667861	0.095740	0.209894
	H38	H	0.335977	0.094514	0.786791
	H39	H	0.667091	0.900563	0.783818
	H40	H	0.900061	0.213885	0.334834
	H41	H	0.101877	0.214514	0.662642
	H42	H	0.101597	0.782308	0.335046
	H43	H	0.901424	0.785695	0.663116
	H44	H	0.216312	0.335762	0.899728
	H45	H	0.216363	0.663137	0.097558
	H46	H	0.786622	0.336268	0.096544
	H47	H	0.788850	0.663383	0.901777
	H48	H	0.413195	0.113469	0.592433
	H49	H	0.594776	0.883872	0.584737
	H50	H	0.583594	0.114260	0.397070
	H51	H	0.403409	0.878358	0.395075
	H52	H	0.592283	0.400706	0.117423
	H53	H	0.599465	0.596895	0.876547
	H54	H	0.404688	0.595778	0.118855
	H55	H	0.413388	0.405253	0.881800
	H56	H	0.122024	0.597961	0.408171
	H57	H	0.885010	0.587053	0.597107
	H58	H	0.122707	0.406218	0.602032
	H59	H	0.879874	0.400039	0.397584
	H60	H	0.121639	0.395263	0.583687
	H61	H	0.880781	0.599781	0.594318
	H62	H	0.116743	0.587942	0.412356
	H63	H	0.885047	0.399099	0.415392
	H64	H	0.410800	0.586309	0.113931
	H65	H	0.597981	0.586881	0.879725
	H66	H	0.600025	0.407867	0.116903
	H67	H	0.409149	0.402006	0.879090
	H68	H	0.597016	0.112475	0.417855
	H69	H	0.600352	0.879272	0.593098
	H70	H	0.404094	0.115772	0.588656
	H71	H	0.418209	0.885605	0.403240
	H72	H	0.915414	0.616579	0.101391
	H73	H	0.092908	0.384555	0.088978
	H74	H	0.089968	0.609811	0.917896
	H75	H	0.902334	0.384423	0.916667
	H76	H	0.109426	0.911115	0.619995
	H77	H	0.093776	0.096503	0.378873
	H78	H	0.916652	0.096425	0.615372
	H79	H	0.918287	0.896630	0.381337
	H80	H	0.618105	0.081067	0.900882
	H81	H	0.387808	0.088885	0.083570
	H82	H	0.621494	0.905211	0.093069
	H83	H	0.383748	0.907772	0.900587
	H84	H	0.619462	0.904056	0.086084
	H85	H	0.382782	0.088400	0.099731
	H86	H	0.624802	0.100615	0.898690
	H87	H	0.381657	0.898078	0.905586
	H88	H	0.902099	0.097493	0.619986
	H89	H	0.098279	0.088715	0.380276
	H90	H	0.083831	0.916387	0.610825
	H91	H	0.900938	0.900944	0.377597
	H92	H	0.109294	0.619328	0.906721
	H93	H	0.099976	0.381354	0.090304
	H94	H	0.911755	0.611849	0.084758
	H95	H	0.902144	0.378657	0.893553
	H96	H	0.405876	0.117718	0.598785
	H97	H	0.589444	0.881425	0.594272
	H98	H	0.607891	0.121610	0.397106
	H99	H	0.402779	0.883481	0.412886
	H100	H	0.590641	0.410143	0.113479
	H101	H	0.589826	0.594029	0.879667
	H102	H	0.416630	0.597544	0.115278
	H103	H	0.407937	0.408135	0.880889
	H104	H	0.121186	0.588300	0.402009
	H105	H	0.886801	0.591741	0.584073
	H106	H	0.114956	0.415511	0.584178
	H107	H	0.887351	0.414685	0.406998
	H108	H	0.899566	0.618510	0.094515
	H109	H	0.094500	0.381815	0.096032
	H110	H	0.088519	0.617096	0.894057
	H111	H	0.922603	0.386822	0.903307
	H112	H	0.090260	0.890779	0.620357
	H113	H	0.089377	0.088801	0.382219
	H114	H	0.907196	0.084282	0.614276
	H115	H	0.912173	0.913982	0.383605
	H116	H	0.617207	0.094655	0.917258
	H117	H	0.381342	0.102823	0.090700
	H118	H	0.619099	0.910413	0.089317
	H119	H	0.386098	0.906829	0.911202
	C120	C	0.379558	0.007491	0.620514
	C121	C	0.623292	0.989724	0.619603
	C122	C	0.624300	0.007896	0.375403
	C123	C	0.379627	0.990686	0.375756
	C124	C	0.623443	0.377778	0.006952
	C125	C	0.623958	0.620632	0.988240
	C126	C	0.381587	0.620689	0.006867
	C127	C	0.381083	0.377586	0.989647
	C128	C	0.010927	0.619752	0.378420
	C129	C	0.993605	0.621176	0.620721
	C130	C	0.010743	0.377541	0.619718
	C131	C	0.993145	0.376531	0.377316
	C132	C	0.880207	0.507640	0.120989
	C133	C	0.124273	0.490667	0.120767
	C134	C	0.124502	0.507688	0.876835
	C135	C	0.880759	0.491424	0.876890
	C136	C	0.122848	0.877017	0.507742
	C137	C	0.122509	0.119423	0.489867
	C138	C	0.880303	0.120405	0.507310
	C139	C	0.880616	0.876794	0.489753
	C140	C	0.510841	0.120017	0.877347
	C141	C	0.493559	0.120825	0.119538
	C142	C	0.511053	0.877745	0.118412
	C143	C	0.493425	0.876462	0.876417
	C144	C	0.382243	0.884046	0.673937
	C145	C	0.620380	0.112862	0.674910
	C146	C	0.621090	0.884658	0.319917
	C147	C	0.383004	0.113916	0.322037
	C148	C	0.678279	0.380716	0.882385
	C149	C	0.677652	0.617693	0.113385
	C150	C	0.326766	0.616487	0.882354
	C151	C	0.326520	0.381671	0.114154
	C152	C	0.886628	0.674585	0.380385
	C153	C	0.117615	0.676901	0.619609
	C154	C	0.886217	0.322581	0.618528
	C155	C	0.117266	0.321347	0.378924
	C156	C	0.885818	0.381941	0.674103
	C157	C	0.118607	0.617578	0.674483
	C158	C	0.886272	0.616382	0.323966
	C159	C	0.118029	0.380569	0.323008
	C160	C	0.383088	0.674892	0.882681
	C161	C	0.623013	0.676959	0.112328
	C162	C	0.622788	0.321385	0.883259
	C163	C	0.382619	0.323345	0.113599
	C164	C	0.678945	0.884498	0.377103
	C165	C	0.677549	0.112695	0.616922
	C166	C	0.324934	0.884159	0.616183
	C167	C	0.324870	0.113615	0.379700
	C168	C	0.882017	0.384745	0.175152
	C169	C	0.121635	0.613657	0.176536
	C170	C	0.121989	0.384836	0.820938
	C171	C	0.883610	0.614519	0.822710
	C172	C	0.177039	0.879736	0.383167
	C173	C	0.176507	0.116814	0.614582
	C174	C	0.826409	0.116275	0.382714
	C175	C	0.825523	0.881643	0.614027
	C176	C	0.386687	0.175122	0.879172
	C177	C	0.617722	0.175838	0.117787
	C178	C	0.387007	0.822212	0.116855
	C179	C	0.617336	0.821564	0.877244
	C180	C	0.386057	0.881165	0.172775
	C181	C	0.618297	0.116958	0.173177
	C182	C	0.385816	0.115862	0.823727
	C183	C	0.617591	0.879848	0.821316
	C184	C	0.881592	0.175265	0.383532
	C185	C	0.121363	0.175797	0.613844
	C186	C	0.121391	0.820796	0.383952
	C187	C	0.881580	0.823066	0.613878
	C188	C	0.178923	0.384503	0.878895
	C189	C	0.179052	0.613926	0.118577
	C190	C	0.824418	0.384961	0.117433
	C191	C	0.826095	0.614645	0.880727
	C192	C	0.401163	0.093435	0.599481
	C193	C	0.601398	0.903736	0.597305
	C194	C	0.602725	0.093874	0.397452
	C195	C	0.401668	0.904762	0.397229
	C196	C	0.601024	0.399849	0.093552
	C197	C	0.602288	0.598886	0.901310
	C198	C	0.404197	0.599512	0.093586
	C199	C	0.403468	0.398886	0.902843
	C200	C	0.097854	0.597921	0.400891
	C201	C	0.906731	0.599319	0.598383
	C202	C	0.097337	0.399127	0.596833
	C203	C	0.906429	0.398291	0.399988
	C204	C	0.902360	0.593620	0.099801
	C205	C	0.102418	0.404835	0.098415
	C206	C	0.102310	0.593294	0.899365
	C207	C	0.902551	0.405531	0.898146
	C208	C	0.100697	0.899440	0.594602
	C209	C	0.100425	0.097681	0.403203
	C210	C	0.902184	0.099089	0.594002
	C211	C	0.903635	0.897805	0.403052
	C212	C	0.597800	0.098423	0.899123
	C213	C	0.406629	0.099812	0.097739
	C214	C	0.597731	0.899911	0.095971
	C215	C	0.406230	0.897831	0.899116
	Zn216	Zn	0.501487	-0.001827	0.748960
	Zn217	Zn	0.502128	-0.000689	0.247124
	Zn218	Zn	0.751660	0.499730	-0.001611
	Zn219	Zn	0.253152	0.499252	-0.001612
	Zn220	Zn	0.001805	0.748466	0.499480
	Zn221	Zn	0.001513	0.248121	0.498712
	Zn222	Zn	0.002734	0.499376	0.747874
	Zn223	Zn	0.001996	0.498581	0.250078
	Zn224	Zn	0.503095	0.748272	-0.002413
	Zn225	Zn	0.502270	0.249022	-0.001613
	Zn226	Zn	0.752558	-0.001513	0.497601
	Zn227	Zn	0.250843	-0.000995	0.498533
	N228	N	0.415481	0.961407	0.676669
	N229	N	0.587426	0.035242	0.676563
	N230	N	0.588032	0.962220	0.318639
	N231	N	0.416255	0.036309	0.319429
	N232	N	0.678997	0.415020	0.960390
	N233	N	0.678324	0.583400	0.035447
	N234	N	0.325696	0.583587	0.960643
	N235	N	0.325579	0.414870	0.036078
	N236	N	0.965125	0.676565	0.413753
	N237	N	0.038758	0.679177	0.586966
	N238	N	0.964853	0.319642	0.585351
	N239	N	0.038655	0.318533	0.411594
	N240	N	0.964180	0.415182	0.675083
	N241	N	0.040675	0.583541	0.675416
	N242	N	0.964571	0.582920	0.322719
	N243	N	0.039706	0.414060	0.321884
	N244	N	0.416339	0.677497	0.961091
	N245	N	0.590337	0.678877	0.033639
	N246	N	0.589444	0.319419	0.961653
	N247	N	0.415745	0.320761	0.035128
	N248	N	0.681151	0.962017	0.410925
	N249	N	0.679532	0.035222	0.583154
	N250	N	0.323369	0.961832	0.583418
	N251	N	0.322600	0.035948	0.411999
	N252	N	0.915860	0.462082	0.177527
	N253	N	0.088345	0.536111	0.178092
	N254	N	0.088959	0.462487	0.819486
	N255	N	0.916808	0.537062	0.820217
	N256	N	0.178195	0.913883	0.461114
	N257	N	0.177512	0.082777	0.536449
	N258	N	0.825223	0.083023	0.460746
	N259	N	0.824665	0.914324	0.535641
	N260	N	0.465408	0.177627	0.911967
	N261	N	0.538993	0.178582	0.085309
	N262	N	0.465784	0.819784	0.083997
	N263	N	0.538927	0.819375	0.910801
	N264	N	0.464081	0.915236	0.173713
	N265	N	0.540161	0.083310	0.174453
	N266	N	0.464013	0.082367	0.822394
	N267	N	0.539243	0.913186	0.820550
	N268	N	0.914528	0.177805	0.462005
	N269	N	0.088367	0.177661	0.535339
	N270	N	0.088418	0.819164	0.462598
	N271	N	0.915131	0.820173	0.535736
	N272	N	0.180605	0.461771	0.913018
	N273	N	0.180906	0.536421	0.084561
	N274	N	0.823067	0.462524	0.084665
	N275	N	0.824223	0.537038	0.913621
	O276	O	1.033185	0.997107	-0.028996
	H277	H	1.041099	0.997142	-0.032579
	H278	H	1.037747	1.002117	-0.017424
	O279	O	-0.010683	-0.031175	0.009394
	H280	H	-0.016612	-0.031316	0.010408
	H281	H	-0.011444	-0.031503	0.012849
	O282	O	-0.000074	0.023252	0.998807
	H283	H	-0.003213	0.028348	1.004793
	H284	H	-0.004325	0.015611	1.002299
	O285	O	0.505946	0.482899	0.464119
	H286	H	0.516039	0.489466	0.464105
	H287	H	0.513224	0.479611	0.455689
	O288	O	0.500422	0.500329	0.478533
	H289	H	0.501205	0.501724	0.475438
	H290	H	0.494168	0.498987	0.477067
	O291	O	0.482862	0.498802	0.487884
	H292	H	0.472362	0.496307	0.485076
	H293	H	0.477131	0.491145	0.486021
	O294	O	-0.236598	-0.304448	0.263004
	H295	H	-0.233981	-0.311430	0.258102
	H296	H	-0.232738	-0.299543	0.261223
	O297	O	0.501314	0.485257	0.450558
	H298	H	0.503510	0.486687	0.462626
	H299	H	0.490184	0.484841	0.453710
	O300	O	-0.039597	0.980913	1.005811
	H301	H	-0.036157	0.977290	1.001510
	H302	H	-0.045970	0.984349	0.998892
	O303	O	0.510768	0.502711	0.488416
	H304	H	0.513149	0.501471	0.490847
	H305	H	0.512795	0.499861	0.483944
	O306	O	-0.001196	0.004046	1.014375
	H307	H	0.004201	0.008063	1.014480
	H308	H	-0.003761	-0.007770	1.013376
	O309	O	0.988002	1.085377	1.052488
	H310	H	0.987921	1.088417	1.052041
	H311	H	0.993351	1.091221	1.047283
	O312	O	0.541500	0.512944	0.451794
	H313	H	0.545079	0.523408	0.450089
	H314	H	0.541669	0.519654	0.442556
	O315	O	0.526754	0.536826	0.462434
	H316	H	0.518631	0.536149	0.461313
	H317	H	0.530177	0.543871	0.464439
	O318	O	0.058755	1.042180	0.011786
	H319	H	0.060693	1.041200	0.006554
	H320	H	0.052094	1.042256	0.004377
	O321	O	0.987336	0.994829	0.087091
	H322	H	0.978158	0.991212	0.087790
	H323	H	0.991742	0.995240	0.084841
