data_Molecule from HDF5

_cell_length_a		16.268666
_cell_length_b		16.062214
_cell_length_c		16.299844
_cell_angle_alpha	89.315100
_cell_angle_beta	90.292099
_cell_angle_gamma	90.148375
_symmetry_space_group_name_H-M	'P 1'
_symmetry_Int_Tables_number		1

loop_
	_symmetry_equiv_pos_as_xyz
	x,y,z

loop_
	_atom_site_label
	_atom_site_type_symbol
	_atom_site_fract_x
	_atom_site_fract_y
	_atom_site_fract_z
	H0	H	0.394048	0.845328	0.705172
	H1	H	0.597067	0.174484	0.700221
	H2	H	0.595001	0.845441	0.275486
	H3	H	0.392603	0.173113	0.266740
	H4	H	0.711218	0.407820	0.825412
	H5	H	0.710434	0.609126	0.149554
	H6	H	0.273821	0.616025	0.824417
	H7	H	0.276969	0.407595	0.148865
	H8	H	0.830290	0.724595	0.386025
	H9	H	0.158236	0.722438	0.583191
	H10	H	0.829788	0.293686	0.585580
	H11	H	0.157467	0.297943	0.389774
	H12	H	0.831319	0.404582	0.705648
	H13	H	0.156562	0.611630	0.703841
	H14	H	0.830826	0.612050	0.269512
	H15	H	0.156122	0.410727	0.273107
	H16	H	0.394245	0.727272	0.823007
	H17	H	0.590759	0.720013	0.151872
	H18	H	0.590006	0.298405	0.823052
	H19	H	0.392472	0.291446	0.148646
	H20	H	0.706602	0.844677	0.391231
	H21	H	0.709709	0.174403	0.585585
	H22	H	0.280030	0.844141	0.588050
	H23	H	0.279077	0.174801	0.382875
	H24	H	0.894099	0.344638	0.203500
	H25	H	0.092398	0.675892	0.199783
	H26	H	0.094814	0.346217	0.775237
	H27	H	0.892706	0.674152	0.768522
	H28	H	0.210176	0.908850	0.323992
	H29	H	0.213387	0.109608	0.649075
	H30	H	0.776307	0.112602	0.324164
	H31	H	0.779015	0.905890	0.650696
	H32	H	0.328885	0.221986	0.886571
	H33	H	0.656506	0.224795	0.084330
	H34	H	0.329443	0.796567	0.084078
	H35	H	0.656660	0.797842	0.891698
	H36	H	0.332358	0.905435	0.204726
	H37	H	0.656121	0.112296	0.203047
	H38	H	0.334102	0.115343	0.764825
	H39	H	0.657547	0.911216	0.775517
	H40	H	0.895804	0.226449	0.323620
	H41	H	0.093155	0.221682	0.651353
	H42	H	0.088178	0.800568	0.321673
	H43	H	0.897294	0.792620	0.649835
	H44	H	0.206170	0.346205	0.889717
	H45	H	0.208458	0.675770	0.085905
	H46	H	0.779249	0.343871	0.087457
	H47	H	0.779493	0.676032	0.885763
	H48	H	0.398380	0.129696	0.580202
	H49	H	0.584043	0.893557	0.574417
	H50	H	0.588918	0.128422	0.399400
	H51	H	0.400341	0.890988	0.396287
	H52	H	0.572387	0.416101	0.099454
	H53	H	0.583426	0.599062	0.872810
	H54	H	0.390740	0.596128	0.104227
	H55	H	0.394035	0.417121	0.867056
	H56	H	0.111600	0.610230	0.398709
	H57	H	0.881385	0.593468	0.572663
	H58	H	0.109797	0.412624	0.576924
	H59	H	0.877585	0.417468	0.398143
	H60	H	0.107747	0.424913	0.581400
	H61	H	0.874794	0.597132	0.586310
	H62	H	0.107751	0.596559	0.393233
	H63	H	0.876653	0.423064	0.393707
	H64	H	0.406559	0.596234	0.099386
	H65	H	0.582279	0.609508	0.869616
	H66	H	0.591458	0.406704	0.107678
	H67	H	0.395813	0.424661	0.870842
	H68	H	0.587503	0.130711	0.388832
	H69	H	0.594178	0.888762	0.583844
	H70	H	0.412665	0.125721	0.578817
	H71	H	0.404161	0.891801	0.395875
	H72	H	0.906956	0.627847	0.083887
	H73	H	0.088533	0.390088	0.085967
	H74	H	0.081864	0.625317	0.903283
	H75	H	0.893929	0.393938	0.909885
	H76	H	0.080714	0.916059	0.601238
	H77	H	0.095238	0.099244	0.369489
	H78	H	0.896559	0.093817	0.603159
	H79	H	0.896510	0.917018	0.369071
	H80	H	0.611112	0.105239	0.893873
	H81	H	0.374080	0.111271	0.075545
	H82	H	0.612686	0.913073	0.083286
	H83	H	0.373658	0.911169	0.892641
	H84	H	0.610481	0.917166	0.081803
	H85	H	0.382131	0.091251	0.070118
	H86	H	0.610385	0.103708	0.894253
	H87	H	0.379718	0.922327	0.901174
	H88	H	0.908186	0.099810	0.601874
	H89	H	0.079674	0.098760	0.373872
	H90	H	0.092537	0.909678	0.605812
	H91	H	0.897162	0.921915	0.370958
	H92	H	0.090884	0.632765	0.891535
	H93	H	0.079866	0.392962	0.084427
	H94	H	0.901501	0.626211	0.069236
	H95	H	0.893789	0.386686	0.885760
	H96	H	0.403207	0.125343	0.567411
	H97	H	0.580671	0.890691	0.588841
	H98	H	0.579479	0.126480	0.394604
	H99	H	0.402664	0.892553	0.399094
	H100	H	0.592618	0.428570	0.100581
	H101	H	0.592157	0.605337	0.868171
	H102	H	0.400009	0.609971	0.105942
	H103	H	0.401989	0.417993	0.870894
	H104	H	0.114468	0.606932	0.384120
	H105	H	0.876113	0.608697	0.575602
	H106	H	0.112858	0.415299	0.589300
	H107	H	0.874998	0.416341	0.391798
	H108	H	0.893161	0.631366	0.081150
	H109	H	0.085917	0.393515	0.077203
	H110	H	0.075612	0.628787	0.889391
	H111	H	0.915287	0.396410	0.896826
	H112	H	0.092090	0.923354	0.602783
	H113	H	0.085967	0.112934	0.368174
	H114	H	0.898194	0.106891	0.605470
	H115	H	0.899911	0.918415	0.370902
	H116	H	0.611465	0.104312	0.893205
	H117	H	0.375300	0.094410	0.090102
	H118	H	0.612025	0.916695	0.086013
	H119	H	0.376127	0.925965	0.886533
	C120	C	0.374478	0.017973	0.607211
	C121	C	0.616065	1.000393	0.609660
	C122	C	0.614395	0.019031	0.366868
	C123	C	0.372641	1.000241	0.364867
	C124	C	0.613801	0.388519	-0.004825
	C125	C	0.615041	0.632342	0.978422
	C126	C	0.369882	0.632406	-0.004691
	C127	C	0.369557	0.388776	0.977234
	C128	C	0.002823	0.633285	0.363246
	C129	C	0.985211	0.629992	0.607719
	C130	C	0.002266	0.386827	0.611155
	C131	C	0.984863	0.390033	0.366829
	C132	C	0.871752	0.518871	0.108642
	C133	C	0.114085	0.501578	0.109478
	C134	C	0.112797	0.519857	0.866853
	C135	C	0.871405	0.501004	0.865678
	C136	C	0.115631	0.888416	0.494906
	C137	C	0.116483	0.131806	0.478550
	C138	C	0.871934	0.131147	0.495482
	C139	C	0.870626	0.887790	0.478182
	C140	C	0.503233	0.133329	0.863517
	C141	C	0.484484	0.130171	0.107496
	C142	C	0.503308	0.886657	0.111040
	C143	C	0.484737	0.890537	0.866279
	C144	C	0.375304	0.894249	0.665660
	C145	C	0.615912	0.124847	0.663348
	C146	C	0.613736	0.894761	0.312862
	C147	C	0.373198	0.124245	0.306303
	C148	C	0.671342	0.389531	0.873237
	C149	C	0.671497	0.628967	0.101078
	C150	C	0.312945	0.634127	0.872993
	C151	C	0.314537	0.388163	0.100109
	C152	C	0.879658	0.687825	0.365441
	C153	C	0.108839	0.685318	0.604607
	C154	C	0.879243	0.330466	0.607770
	C155	C	0.108325	0.335207	0.369400
	C156	C	0.879888	0.386112	0.667054
	C157	C	0.107983	0.630152	0.664642
	C158	C	0.879789	0.631940	0.307394
	C159	C	0.107409	0.391214	0.311055
	C160	C	0.373014	0.689535	0.872255
	C161	C	0.611663	0.684082	0.102266
	C162	C	0.611049	0.334843	0.872048
	C163	C	0.372342	0.330487	0.099950
	C164	C	0.669503	0.894516	0.370366
	C165	C	0.672451	0.124651	0.606622
	C166	C	0.318298	0.893616	0.607481
	C167	C	0.316711	0.125003	0.363940
	C168	C	0.874047	0.394077	0.165082
	C169	C	0.112578	0.626555	0.162758
	C170	C	0.112727	0.395438	0.813040
	C171	C	0.872871	0.625251	0.807739
	C172	C	0.170910	0.890309	0.372211
	C173	C	0.173952	0.129490	0.600778
	C174	C	0.815281	0.131656	0.372905
	C175	C	0.816730	0.887298	0.601521
	C176	C	0.379074	0.186699	0.865663
	C177	C	0.607621	0.186947	0.105134
	C178	C	0.379173	0.832773	0.106205
	C179	C	0.607846	0.835304	0.870306
	C180	C	0.380737	0.886972	0.166388
	C181	C	0.607582	0.130666	0.163833
	C182	C	0.381700	0.133472	0.804951
	C183	C	0.608211	0.891653	0.812619
	C184	C	0.874722	0.187985	0.372414
	C185	C	0.114231	0.185360	0.601867
	C186	C	0.110497	0.836044	0.371336
	C187	C	0.875111	0.830346	0.600906
	C188	C	0.168461	0.395566	0.869686
	C189	C	0.170188	0.626239	0.106307
	C190	C	0.816763	0.393695	0.107488
	C191	C	0.816343	0.625882	0.865862
	C192	C	0.397689	0.104323	0.582532
	C193	C	0.592908	0.913356	0.588711
	C194	C	0.591758	0.106047	0.387930
	C195	C	0.395638	0.914179	0.389736
	C196	C	0.591792	0.410616	0.080508
	C197	C	0.592507	0.611068	0.892442
	C198	C	0.392466	0.608090	0.081009
	C199	C	0.391107	0.412977	0.891754
	C200	C	0.088833	0.611136	0.385429
	C201	C	0.899643	0.606559	0.584954
	C202	C	0.087842	0.410664	0.589129
	C203	C	0.898680	0.412359	0.388237
	C204	C	0.894040	0.606034	0.085232
	C205	C	0.091491	0.414858	0.088665
	C206	C	0.089534	0.606334	0.888309
	C207	C	0.894211	0.414501	0.890280
	C208	C	0.094750	0.910042	0.581130
	C209	C	0.093606	0.110096	0.392689
	C210	C	0.894568	0.107245	0.581264
	C211	C	0.891609	0.912058	0.392437
	C212	C	0.588754	0.110991	0.886975
	C213	C	0.399360	0.106021	0.085130
	C214	C	0.589467	0.909065	0.089965
	C215	C	0.398633	0.913251	0.887189
	Zn216	Zn	0.495214	0.010588	0.736576
	Zn217	Zn	0.494702	0.009111	0.238093
	Zn218	Zn	0.743230	0.510057	-0.012964
	Zn219	Zn	0.240781	0.510859	-0.013722
	Zn220	Zn	-0.006195	0.759774	0.486036
	Zn221	Zn	-0.005841	0.260494	0.487172
	Zn222	Zn	-0.006388	0.509334	0.738773
	Zn223	Zn	-0.007000	0.510736	0.237319
	Zn224	Zn	0.493134	0.760919	-0.012674
	Zn225	Zn	0.491953	0.259458	-0.014303
	Zn226	Zn	0.741817	0.009374	0.487696
	Zn227	Zn	0.245377	0.009313	0.485987
	N228	N	0.409203	0.972859	0.665855
	N229	N	0.581568	0.046393	0.665511
	N230	N	0.580277	0.973471	0.310326
	N231	N	0.406991	0.045656	0.306343
	N232	N	0.673469	0.422043	0.950926
	N233	N	0.673636	0.597487	0.023062
	N234	N	0.310932	0.599279	0.950551
	N235	N	0.312663	0.423831	0.022888
	N236	N	0.957175	0.688866	0.399524
	N237	N	0.031538	0.685577	0.569917
	N238	N	0.956342	0.330780	0.573557
	N239	N	0.031097	0.334194	0.403184
	N240	N	0.957586	0.420071	0.669486
	N241	N	0.030068	0.596651	0.666928
	N242	N	0.957447	0.598816	0.305847
	N243	N	0.029601	0.424704	0.309352
	N244	N	0.407687	0.688794	0.949475
	N245	N	0.577172	0.686419	0.024875
	N246	N	0.576174	0.334016	0.948784
	N247	N	0.405737	0.330757	0.022691
	N248	N	0.669900	0.972788	0.403254
	N249	N	0.672607	0.046223	0.573884
	N250	N	0.317726	0.971573	0.571773
	N251	N	0.316232	0.046962	0.399666
	N252	N	0.907115	0.473107	0.166177
	N253	N	0.078508	0.548164	0.165263
	N254	N	0.078824	0.473794	0.811052
	N255	N	0.906224	0.546710	0.807357
	N256	N	0.174133	0.922361	0.450175
	N257	N	0.175820	0.097226	0.522884
	N258	N	0.813476	0.097027	0.450675
	N259	N	0.813738	0.922170	0.524060
	N260	N	0.455709	0.186858	0.901302
	N261	N	0.530201	0.186952	0.070878
	N262	N	0.456398	0.832176	0.072637
	N263	N	0.530111	0.834308	0.903100
	N264	N	0.458873	0.919808	0.169482
	N265	N	0.530224	0.095949	0.165744
	N266	N	0.459749	0.100932	0.803492
	N267	N	0.530582	0.925354	0.810024
	N268	N	0.908992	0.188025	0.449770
	N269	N	0.079449	0.187098	0.524745
	N270	N	0.076644	0.834882	0.448586
	N271	N	0.907909	0.830488	0.523257
	N272	N	0.168576	0.473839	0.902645
	N273	N	0.171431	0.547617	0.073938
	N274	N	0.815271	0.472223	0.073082
	N275	N	0.815258	0.547527	0.901311
	O276	O	1.025017	0.043384	1.044121
	H277	H	1.024813	0.039677	1.051121
	H278	H	1.009989	0.046596	1.027550
	O279	O	0.530086	0.607770	0.404607
	H280	H	0.533540	0.624465	0.405319
	H281	H	0.534185	0.602273	0.403405
	O282	O	0.553945	0.401639	0.525171
	H283	H	0.560921	0.411201	0.518208
	H284	H	0.550100	0.409375	0.524442
	O285	O	0.327338	0.415567	0.557729
	H286	H	0.322045	0.416254	0.564730
	H287	H	0.326913	0.407498	0.551534
	O288	O	0.399375	0.492700	0.338782
	H289	H	0.393622	0.486458	0.324239
	H290	H	0.416289	0.489840	0.334211
	O291	O	0.384769	-0.643358	1.498036
	H292	H	0.395586	-0.641764	1.501243
	H293	H	0.384212	-0.652953	1.510892
	O294	O	1.073817	1.045968	0.036987
	H295	H	1.082199	1.046133	0.035929
	H296	H	1.071102	1.061273	0.025846
	O297	O	0.917860	0.975483	0.043315
	H298	H	0.926983	0.975730	0.040956
	H299	H	0.918792	0.977156	0.048606
	O300	O	0.598697	0.504887	0.487368
	H301	H	0.587613	0.500500	0.483600
	H302	H	0.595057	0.503429	0.486964
	O303	O	0.514785	0.604667	0.496496
	H304	H	0.506619	0.594852	0.496142
	H305	H	0.518564	0.606820	0.491537
	O306	O	0.330065	0.582240	0.328502
	H307	H	0.323088	0.592579	0.328000
	H308	H	0.322369	0.582818	0.324889
	O309	O	0.546704	0.543728	0.416061
	H310	H	0.546212	0.543623	0.403477
	H311	H	0.551638	0.536960	0.418571
	O312	O	1.011773	0.897686	1.056730
	H313	H	1.003871	0.905931	1.051574
	H314	H	1.016551	0.893061	1.056654
	O315	O	1.100133	1.070772	-0.056834
	H316	H	1.103309	1.069287	-0.056594
	H317	H	1.084134	1.074007	-0.047874
	O318	O	0.004600	0.053935	0.987633
	H319	H	-0.002824	0.056597	0.980604
	H320	H	-0.001148	0.055423	0.984863
	O321	O	0.431638	0.522316	0.635543
	H322	H	0.434252	0.521759	0.644059
	H323	H	0.429240	0.525468	0.627008
	O324	O	-0.033046	1.100432	0.960299
	H325	H	-0.052581	1.110673	0.963353
	H326	H	-0.040173	1.105937	0.955477
	O327	O	0.036221	0.852610	0.926761
	H328	H	0.047208	0.855499	0.930836
	H329	H	0.041787	0.850031	0.934511
	O330	O	-0.075752	0.145466	-0.008008
	H331	H	-0.082860	0.143057	-0.023669
	H332	H	-0.079950	0.145063	-0.010711
	O333	O	0.595684	0.429889	0.385777
	H334	H	0.598187	0.434308	0.393920
	H335	H	0.604585	0.442263	0.380052
	O336	O	-0.127169	0.052858	-0.164542
	H337	H	-0.127295	0.051161	-0.173043
	H338	H	-0.126116	0.039861	-0.166364
	O339	O	-0.122970	0.004141	-0.025924
	H340	H	-0.119384	-0.001362	-0.026508
	H341	H	-0.121099	0.000289	-0.019802
	O342	O	0.383617	0.448893	0.581071
	H343	H	0.388407	0.460340	0.580386
	H344	H	0.392198	0.451926	0.568406
	O345	O	0.089525	0.962477	1.010331
	H346	H	0.098145	0.960194	1.014074
	H347	H	0.096717	0.968145	1.006120
	O348	O	0.146108	0.117968	0.920445
	H349	H	0.149309	0.118734	0.926471
	H350	H	0.141077	0.128536	0.916738
	O351	O	0.418330	0.659887	0.541723
	H352	H	0.420837	0.660575	0.539396
	H353	H	0.408688	0.655277	0.536852
	O354	O	-0.085742	0.988830	0.028642
	H355	H	-0.080655	0.982851	0.033016
	H356	H	-0.085887	0.992302	0.014259
	O357	O	0.579307	0.591388	0.433337
	H358	H	0.584349	0.592890	0.444967
	H359	H	0.586363	0.589388	0.432946
	O360	O	1.577319	-0.625155	1.411313
	H361	H	1.573040	-0.614729	1.399663
	H362	H	1.582629	-0.627838	1.411711
	O363	O	0.428500	0.566097	0.588441
	H364	H	0.425477	0.550050	0.591888
	H365	H	0.437571	0.568404	0.593669
	O366	O	0.491466	0.571240	0.481740
	H367	H	0.485405	0.564942	0.486801
	H368	H	0.492462	0.577080	0.479714
	O369	O	0.926408	0.044782	0.016178
	H370	H	0.927972	0.039817	0.021746
	H371	H	0.926450	0.044787	0.012600
	O372	O	0.473518	0.475168	0.541991
	H373	H	0.474622	0.468725	0.528145
	H374	H	0.466866	0.473541	0.541547
	O375	O	0.880244	-0.114429	1.006802
	H376	H	0.884054	-0.114787	0.998597
	H377	H	0.877059	-0.114274	1.008566
	O378	O	-0.000700	1.028792	-0.108924
	H379	H	-0.000206	1.026882	-0.104686
	H380	H	0.005534	1.022099	-0.114041
	O381	O	0.537859	0.376683	0.554367
	H382	H	0.522804	0.376565	0.541778
	H383	H	0.542396	0.382527	0.554092
	O384	O	1.065344	0.954884	-0.079677
	H385	H	1.068002	0.953694	-0.079482
	H386	H	1.069615	0.961130	-0.070461
	O387	O	1.621603	0.560374	1.483089
	H388	H	1.631045	0.569150	1.490111
	H389	H	1.616221	0.559730	1.482687
	O390	O	1.025756	0.992057	0.106445
	H391	H	1.023901	1.005786	0.103894
	H392	H	1.034004	0.991462	0.113922
	O393	O	0.572371	0.565819	0.623303
	H394	H	0.562888	0.563497	0.621665
	H395	H	0.567936	0.568738	0.626739
