data_Molecule from HDF5

_cell_length_a		16.535229
_cell_length_b		16.538726
_cell_length_c		16.490058
_cell_angle_alpha	89.928915
_cell_angle_beta	89.984396
_cell_angle_gamma	89.966683
_symmetry_space_group_name_H-M	'P 1'
_symmetry_Int_Tables_number		1

loop_
	_symmetry_equiv_pos_as_xyz
	x,y,z

loop_
	_atom_site_label
	_atom_site_type_symbol
	_atom_site_fract_x
	_atom_site_fract_y
	_atom_site_fract_z
	H0	H	0.390651	0.852879	0.714054
	H1	H	0.603491	0.166339	0.717056
	H2	H	0.599086	0.853043	0.272492
	H3	H	0.389250	0.166980	0.269943
	H4	H	0.717225	0.404895	0.835099
	H5	H	0.714396	0.614587	0.150388
	H6	H	0.272561	0.616773	0.834595
	H7	H	0.276027	0.406750	0.149895
	H8	H	0.839442	0.733573	0.386170
	H9	H	0.149525	0.735269	0.602839
	H10	H	0.838100	0.285499	0.603595
	H11	H	0.151424	0.288628	0.388837
	H12	H	0.836807	0.405222	0.716053
	H13	H	0.152008	0.615445	0.715120
	H14	H	0.839165	0.616171	0.270600
	H15	H	0.150780	0.402800	0.270467
	H16	H	0.385790	0.735794	0.836455
	H17	H	0.594752	0.727358	0.152047
	H18	H	0.600099	0.289507	0.834647
	H19	H	0.389881	0.288962	0.148537
	H20	H	0.717864	0.854963	0.386053
	H21	H	0.717386	0.167684	0.598831
	H22	H	0.272506	0.854011	0.599638
	H23	H	0.270333	0.166271	0.384758
	H24	H	0.887190	0.354921	0.216656
	H25	H	0.098636	0.666140	0.214661
	H26	H	0.099749	0.353632	0.771488
	H27	H	0.891014	0.668506	0.773156
	H28	H	0.214498	0.907135	0.336443
	H29	H	0.217867	0.118146	0.649623
	H30	H	0.772240	0.118229	0.335988
	H31	H	0.771212	0.904896	0.649063
	H32	H	0.338586	0.232672	0.885664
	H33	H	0.652322	0.231829	0.096918
	H34	H	0.337894	0.789206	0.098922
	H35	H	0.651306	0.788026	0.888081
	H36	H	0.338034	0.906599	0.214727
	H37	H	0.653191	0.113979	0.212048
	H38	H	0.339455	0.116926	0.769128
	H39	H	0.651607	0.903370	0.770741
	H40	H	0.888199	0.234729	0.337265
	H41	H	0.101401	0.233837	0.650049
	H42	H	0.099227	0.789176	0.337423
	H43	H	0.887170	0.788514	0.650540
	H44	H	0.217239	0.354479	0.887153
	H45	H	0.214004	0.667567	0.096218
	H46	H	0.769980	0.355034	0.101607
	H47	H	0.772262	0.667819	0.887169
	H48	H	0.404586	0.123243	0.581654
	H49	H	0.588048	0.896596	0.583964
	H50	H	0.587619	0.124720	0.401748
	H51	H	0.408574	0.901373	0.408143
	H52	H	0.583471	0.423646	0.103835
	H53	H	0.584774	0.601820	0.879202
	H54	H	0.399138	0.600147	0.106570
	H55	H	0.410782	0.425323	0.882309
	H56	H	0.105810	0.600367	0.411132
	H57	H	0.883314	0.596417	0.583753
	H58	H	0.108130	0.421114	0.589299
	H59	H	0.879725	0.420086	0.400352
	H60	H	0.105378	0.415520	0.576360
	H61	H	0.882275	0.601262	0.584087
	H62	H	0.105570	0.592940	0.404156
	H63	H	0.883859	0.418643	0.411825
	H64	H	0.406014	0.595312	0.102875
	H65	H	0.583298	0.597809	0.880013
	H66	H	0.581022	0.420346	0.103739
	H67	H	0.407012	0.415909	0.876890
	H68	H	0.581623	0.123768	0.400597
	H69	H	0.576935	0.900610	0.583037
	H70	H	0.409442	0.121394	0.582497
	H71	H	0.400483	0.897157	0.406488
	H72	H	0.911874	0.618756	0.076147
	H73	H	0.084889	0.395827	0.085394
	H74	H	0.078806	0.621486	0.903310
	H75	H	0.904490	0.398346	0.903306
	H76	H	0.082687	0.920190	0.606614
	H77	H	0.078793	0.100488	0.383136
	H78	H	0.904956	0.102929	0.607485
	H79	H	0.906239	0.920104	0.379925
	H80	H	0.607615	0.102695	0.906025
	H81	H	0.384837	0.098312	0.077935
	H82	H	0.607966	0.918989	0.083032
	H83	H	0.384655	0.927344	0.902695
	H84	H	0.607421	0.919482	0.081855
	H85	H	0.382220	0.097307	0.084500
	H86	H	0.604780	0.096174	0.906760
	H87	H	0.381676	0.920542	0.901217
	H88	H	0.902334	0.093697	0.604349
	H89	H	0.084466	0.101125	0.380035
	H90	H	0.084446	0.924454	0.606694
	H91	H	0.905053	0.922879	0.380672
	H92	H	0.085492	0.622213	0.907989
	H93	H	0.081826	0.399017	0.080706
	H94	H	0.898650	0.623669	0.077453
	H95	H	0.907949	0.399757	0.904869
	H96	H	0.407317	0.121643	0.577441
	H97	H	0.584867	0.901697	0.573719
	H98	H	0.584005	0.122280	0.406046
	H99	H	0.406495	0.898036	0.400224
	H100	H	0.584913	0.420471	0.106378
	H101	H	0.581103	0.600989	0.880227
	H102	H	0.406904	0.604137	0.105254
	H103	H	0.400321	0.424982	0.878044
	H104	H	0.109624	0.602464	0.401789
	H105	H	0.883426	0.599452	0.579374
	H106	H	0.101924	0.429170	0.579212
	H107	H	0.886079	0.429054	0.406076
	H108	H	0.907381	0.624266	0.088396
	H109	H	0.087839	0.397073	0.079463
	H110	H	0.085915	0.624609	0.900833
	H111	H	0.904703	0.398792	0.907016
	H112	H	0.080164	0.923674	0.605692
	H113	H	0.082441	0.095612	0.382796
	H114	H	0.912028	0.097048	0.602862
	H115	H	0.907935	0.922388	0.382193
	H116	H	0.608254	0.098160	0.901685
	H117	H	0.381116	0.103737	0.081174
	H118	H	0.607923	0.920213	0.082873
	H119	H	0.384585	0.922277	0.908296
	C120	C	0.374348	0.018667	0.613864
	C121	C	0.616487	1.002878	0.613297
	C122	C	0.616441	0.019591	0.370809
	C123	C	0.372766	1.002239	0.371502
	C124	C	0.616176	0.389227	0.000894
	C125	C	0.614368	0.631237	0.984556
	C126	C	0.371771	0.633030	0.001004
	C127	C	0.373918	0.389937	0.983135
	C128	C	0.003471	0.631227	0.372604
	C129	C	0.986173	0.632032	0.615491
	C130	C	0.002276	0.388737	0.615283
	C131	C	0.986038	0.388975	0.372701
	C132	C	0.873114	0.519041	0.114079
	C133	C	0.116495	0.501369	0.113985
	C134	C	0.115676	0.518925	0.871504
	C135	C	0.873381	0.502618	0.872160
	C136	C	0.115404	0.890003	0.502774
	C137	C	0.115893	0.132575	0.485238
	C138	C	0.873547	0.131797	0.501443
	C139	C	0.873216	0.889429	0.484579
	C140	C	0.503851	0.131948	0.870980
	C141	C	0.486836	0.131999	0.113415
	C142	C	0.503643	0.888679	0.114919
	C143	C	0.486744	0.889390	0.871622
	C144	C	0.371832	0.900499	0.674373
	C145	C	0.620147	0.120027	0.675344
	C146	C	0.618057	0.900964	0.311498
	C147	C	0.370538	0.119985	0.310316
	C148	C	0.676679	0.386915	0.882219
	C149	C	0.673965	0.632598	0.103341
	C150	C	0.311809	0.635629	0.882566
	C151	C	0.315004	0.387934	0.102199
	C152	C	0.886262	0.692622	0.368782
	C153	C	0.103400	0.693835	0.619649
	C154	C	0.884786	0.327036	0.619707
	C155	C	0.104124	0.328423	0.370220
	C156	C	0.884040	0.386500	0.676067
	C157	C	0.104265	0.634277	0.675720
	C158	C	0.886067	0.634224	0.311295
	C159	C	0.103771	0.385145	0.311190
	C160	C	0.368357	0.694737	0.883234
	C161	C	0.614507	0.688792	0.104226
	C162	C	0.618535	0.329487	0.882044
	C163	C	0.371767	0.329345	0.101532
	C164	C	0.676905	0.901672	0.368392
	C165	C	0.677358	0.120492	0.616921
	C166	C	0.313251	0.901036	0.617177
	C167	C	0.311386	0.119602	0.367381
	C168	C	0.869331	0.401948	0.176066
	C169	C	0.117455	0.619554	0.173983
	C170	C	0.118323	0.401058	0.811210
	C171	C	0.871750	0.621180	0.812389
	C172	C	0.174925	0.888249	0.383929
	C173	C	0.177423	0.136083	0.602639
	C174	C	0.812929	0.135651	0.383075
	C175	C	0.811708	0.886801	0.602386
	C176	C	0.385812	0.192428	0.867956
	C177	C	0.605218	0.191763	0.115379
	C178	C	0.384976	0.829433	0.117190
	C179	C	0.604181	0.828097	0.869211
	C180	C	0.385178	0.887586	0.174899
	C181	C	0.605495	0.133137	0.172763
	C182	C	0.386433	0.135094	0.809544
	C183	C	0.604580	0.885748	0.811146
	C184	C	0.870178	0.193822	0.383844
	C185	C	0.119239	0.193583	0.602844
	C186	C	0.117843	0.829691	0.384402
	C187	C	0.869693	0.829111	0.603072
	C188	C	0.176613	0.401193	0.868792
	C189	C	0.174679	0.620197	0.115245
	C190	C	0.811074	0.401996	0.118452
	C191	C	0.812701	0.620772	0.869140
	C192	C	0.399856	0.100749	0.588024
	C193	C	0.590607	0.921016	0.587402
	C194	C	0.591505	0.102091	0.395613
	C195	C	0.398056	0.920180	0.397419
	C196	C	0.590650	0.414441	0.082953
	C197	C	0.590105	0.607191	0.901332
	C198	C	0.397044	0.607351	0.083618
	C199	C	0.398875	0.415036	0.900561
	C200	C	0.085666	0.605807	0.398439
	C201	C	0.904372	0.606611	0.589681
	C202	C	0.083869	0.414472	0.589218
	C203	C	0.904590	0.415068	0.398604
	C204	C	0.898842	0.600883	0.088093
	C205	C	0.091974	0.418882	0.088979
	C206	C	0.090580	0.601220	0.896931
	C207	C	0.898376	0.420557	0.897729
	C208	C	0.089814	0.915323	0.584936
	C209	C	0.089458	0.106529	0.403221
	C210	C	0.899029	0.105458	0.583622
	C211	C	0.899269	0.914568	0.402284
	C212	C	0.585414	0.106242	0.897331
	C213	C	0.404434	0.106982	0.088289
	C214	C	0.586193	0.912733	0.089871
	C215	C	0.404902	0.915709	0.896791
	Zn216	Zn	0.495952	0.010540	0.742481
	Zn217	Zn	0.494859	0.010931	0.242526
	Zn218	Zn	0.743914	0.510835	-0.007287
	Zn219	Zn	0.244806	0.510270	-0.007715
	Zn220	Zn	-0.005402	0.760550	0.494279
	Zn221	Zn	-0.006072	0.260293	0.494111
	Zn222	Zn	-0.005816	0.510717	0.743415
	Zn223	Zn	-0.005060	0.509888	0.243173
	Zn224	Zn	0.494095	0.760314	-0.007287
	Zn225	Zn	0.495070	0.261159	-0.008160
	Zn226	Zn	0.745151	0.011696	0.492300
	Zn227	Zn	0.244339	0.011136	0.493787
	N228	N	0.408957	0.974802	0.672610
	N229	N	0.582926	0.045781	0.673065
	N230	N	0.581452	0.975426	0.312819
	N231	N	0.408088	0.046099	0.312805
	N232	N	0.675600	0.423097	0.957163
	N233	N	0.674068	0.597699	0.027783
	N234	N	0.313677	0.598112	0.956947
	N235	N	0.316195	0.424846	0.027560
	N236	N	0.960394	0.690800	0.406255
	N237	N	0.028935	0.692536	0.582738
	N238	N	0.959256	0.328263	0.582588
	N239	N	0.030014	0.330730	0.407728
	N240	N	0.957955	0.423991	0.673611
	N241	N	0.030328	0.596593	0.673168
	N242	N	0.960133	0.596776	0.313456
	N243	N	0.029431	0.422091	0.312388
	N244	N	0.404546	0.693385	0.958179
	N245	N	0.578208	0.688112	0.029230
	N246	N	0.581862	0.330521	0.956820
	N247	N	0.407776	0.330393	0.026450
	N248	N	0.676229	0.976701	0.404356
	N249	N	0.675023	0.046695	0.578865
	N250	N	0.314424	0.975671	0.580580
	N251	N	0.312786	0.045273	0.404744
	N252	N	0.907311	0.475690	0.173488
	N253	N	0.082232	0.544542	0.173551
	N254	N	0.081278	0.475331	0.812787
	N255	N	0.908297	0.546571	0.813867
	N256	N	0.173437	0.924899	0.458585
	N257	N	0.175256	0.098803	0.528321
	N258	N	0.815179	0.097687	0.457198
	N259	N	0.813692	0.923456	0.527597
	N260	N	0.460084	0.191052	0.905143
	N261	N	0.530174	0.191430	0.079582
	N262	N	0.459638	0.829997	0.080664
	N263	N	0.529854	0.830272	0.906144
	N264	N	0.460006	0.923406	0.173807
	N265	N	0.530754	0.096767	0.171741
	N266	N	0.460716	0.098153	0.811433
	N267	N	0.530548	0.923272	0.812597
	N268	N	0.907052	0.191419	0.458362
	N269	N	0.081745	0.191478	0.528653
	N270	N	0.081645	0.830383	0.459386
	N271	N	0.906969	0.830323	0.528600
	N272	N	0.175175	0.475675	0.905347
	N273	N	0.174351	0.545504	0.078920
	N274	N	0.812987	0.476069	0.080795
	N275	N	0.813286	0.545933	0.905380
	O276	O	0.777213	1.228087	-0.038296
	H277	H	0.749304	1.260493	-0.039757
	H278	H	0.810937	1.229571	-0.018176
	O279	O	-0.221427	-0.027357	1.208518
	H280	H	-0.224960	-0.027690	1.209134
	H281	H	-0.240986	-0.039980	1.224319
	O282	O	0.712234	0.730859	0.515636
	H283	H	0.716428	0.719402	0.537723
	H284	H	0.737386	0.750662	0.524951
	O285	O	0.333000	0.341617	0.311510
	H286	H	0.357072	0.343017	0.317771
	H287	H	0.340795	0.345763	0.319179
	O288	O	1.030858	-0.172607	0.799114
	H289	H	1.016010	-0.174562	0.801747
	H290	H	1.016749	-0.163376	0.790912
	O291	O	0.692657	0.568680	0.297544
	H292	H	0.693832	0.573513	0.320209
	H293	H	0.695198	0.560866	0.292417
	O294	O	-0.158327	0.193633	0.127187
	H295	H	-0.141226	0.188398	0.119361
	H296	H	-0.148592	0.186049	0.125077
	O297	O	0.978014	-0.199950	0.205333
	H298	H	0.961219	-0.212943	0.200687
	H299	H	0.953897	-0.207073	0.211760
	O300	O	0.136252	-0.189479	0.141841
	H301	H	0.114846	-0.174025	0.143053
	H302	H	0.123756	-0.178745	0.128063
	O303	O	-0.023282	0.219744	-0.208179
	H304	H	-0.026440	0.224740	-0.228618
	H305	H	-0.012243	0.207429	-0.212719
	O306	O	0.989237	0.053294	0.042060
	H307	H	0.991744	0.067085	0.045070
	H308	H	0.969545	0.052813	0.038552
	O309	O	0.689547	0.315380	0.301397
	H310	H	0.699269	0.330584	0.308918
	H311	H	0.670826	0.321734	0.309915
	O312	O	0.120880	0.209569	0.099403
	H313	H	0.142162	0.221487	0.108825
	H314	H	0.126496	0.215567	0.093759
	O315	O	0.277982	0.726050	0.466779
	H316	H	0.262401	0.742858	0.444157
	H317	H	0.272464	0.729676	0.448806
	O318	O	1.152506	1.189528	-0.165175
	H319	H	1.151034	1.170078	-0.172955
	H320	H	1.171702	1.206789	-0.184218
	O321	O	0.209460	0.796319	0.962732
	H322	H	0.215816	0.805821	0.978515
	H323	H	0.234584	0.788054	0.963902
	O324	O	1.202254	0.042767	1.197843
	H325	H	1.214983	0.054645	1.221506
	H326	H	1.185176	0.069273	1.198867
	O327	O	0.392602	0.536865	0.395924
	H328	H	0.374254	0.540496	0.378334
	H329	H	0.394325	0.557746	0.397888
	O330	O	0.434199	0.607291	0.412772
	H331	H	0.442941	0.604194	0.419894
	H332	H	0.417177	0.611046	0.407562
	O333	O	0.489390	0.474200	0.281945
	H334	H	0.484512	0.470778	0.279612
	H335	H	0.490916	0.483637	0.281447
	O336	O	0.557782	0.509361	0.386639
	H337	H	0.558589	0.514232	0.389822
	H338	H	0.553776	0.507941	0.365169
	O339	O	0.289332	0.479431	0.699127
	H340	H	0.286065	0.499958	0.670717
	H341	H	0.272413	0.491906	0.715501
	O342	O	-0.168043	0.900498	-0.107953
	H343	H	-0.159021	0.912945	-0.108928
	H344	H	-0.179775	0.899623	-0.117485
	O345	O	0.472389	0.296390	0.705084
	H346	H	0.446068	0.295995	0.699796
	H347	H	0.470799	0.273374	0.710577
	O348	O	0.453516	0.687322	0.285374
	H349	H	0.467377	0.703661	0.307386
	H350	H	0.468070	0.704397	0.269309
	O351	O	-0.081273	-0.200770	0.990244
	H352	H	-0.085851	-0.201485	0.991996
	H353	H	-0.071630	-0.197290	0.979847
	O354	O	1.003867	-0.085738	1.014797
	H355	H	1.003301	-0.077809	1.008754
	H356	H	0.999093	-0.081019	1.016911
	O357	O	0.346279	0.642576	0.645635
	H358	H	0.354020	0.627885	0.643152
	H359	H	0.328456	0.637386	0.626032
	O360	O	0.672228	0.390958	0.640871
	H361	H	0.656249	0.378323	0.638467
	H362	H	0.672033	0.378245	0.626137
	O363	O	0.275848	0.546432	0.532728
	H364	H	0.282114	0.550338	0.503580
	H365	H	0.269418	0.545230	0.519549
	O366	O	1.214630	-0.016591	0.773815
	H367	H	1.237819	-0.038184	0.749742
	H368	H	1.209825	-0.050067	0.775310
	O369	O	-0.064305	-0.052533	0.778073
	H370	H	-0.067952	-0.043184	0.783723
	H371	H	-0.060017	-0.040235	0.788921
	O372	O	0.035850	0.930300	1.168163
	H373	H	0.037935	0.931268	1.163814
	H374	H	0.018019	0.929969	1.171552
	O375	O	0.794027	0.025724	-0.220484
	H376	H	0.791417	0.030201	-0.219965
	H377	H	0.788568	0.037186	-0.227929
	O378	O	0.795183	0.201617	0.794824
	H379	H	0.825775	0.186467	0.788812
	H380	H	0.793982	0.210133	0.838644
	O381	O	-0.141942	0.902770	-0.094110
	H382	H	-0.142122	0.903269	-0.088101
	H383	H	-0.139511	0.914138	-0.098317
	O384	O	0.202790	0.214484	0.192717
	H385	H	0.214587	0.223212	0.203701
	H386	H	0.191460	0.222181	0.160014
	O387	O	-0.068006	0.960186	1.066490
	H388	H	-0.063292	0.971349	1.066011
	H389	H	-0.071020	0.956112	1.057246
	O390	O	0.022764	1.072400	0.864836
	H391	H	0.042041	1.066484	0.872611
	H392	H	0.028798	1.057210	0.875165
	O393	O	0.876205	0.024834	0.043456
	H394	H	0.881200	0.033136	0.046748
	H395	H	0.864883	0.020648	0.062252
	O396	O	0.431695	0.279028	0.440243
	H397	H	0.425405	0.270418	0.424309
	H398	H	0.448911	0.281404	0.458988
	O399	O	0.647910	0.619259	0.450315
	H400	H	0.653812	0.627472	0.446913
	H401	H	0.636180	0.616402	0.469335
	O402	O	1.291347	0.308619	0.698090
	H403	H	1.288315	0.341918	0.692919
	H404	H	1.299950	0.317091	0.672088
	O405	O	0.293079	0.439662	0.477402
	H406	H	0.293708	0.458756	0.470871
	H407	H	0.287027	0.432835	0.461439
	O408	O	1.003819	1.168018	1.155353
	H409	H	0.983616	1.163543	1.169813
	H410	H	1.009402	1.172912	1.160556
	O411	O	0.470265	0.544909	0.712420
	H412	H	0.482590	0.539613	0.716043
	H413	H	0.465046	0.536334	0.714418
	O414	O	0.212634	0.043394	-0.044910
	H415	H	0.217732	0.040207	-0.047069
	H416	H	0.213936	0.043249	-0.069816
	O417	O	0.537725	0.340133	0.537844
	H418	H	0.547585	0.354925	0.530264
	H419	H	0.530985	0.334833	0.547171
	O420	O	0.927485	0.168049	1.121471
	H421	H	0.931896	0.170941	1.145877
	H422	H	0.938653	0.146534	1.109708
	O423	O	1.021291	1.175258	-0.023291
	H424	H	1.017628	1.165404	-0.022395
	H425	H	1.016944	1.176641	-0.031034
	O426	O	0.282174	0.295862	0.520723
	H427	H	0.269362	0.296463	0.517242
	H428	H	0.281956	0.283611	0.512385
	O429	O	0.536020	0.728140	0.393848
	H430	H	0.546104	0.736194	0.422731
	H431	H	0.536897	0.729006	0.408955
	O432	O	1.108876	0.181792	0.905389
	H433	H	1.120694	0.165622	0.892547
	H434	H	1.105135	0.200151	0.898373
	O435	O	0.638569	0.510252	0.713018
	H436	H	0.658173	0.489048	0.728806
	H437	H	0.624634	0.495478	0.689032
	O438	O	0.685872	0.708217	0.685068
	H439	H	0.691666	0.662713	0.693645
	H440	H	0.664054	0.714300	0.679231
	O441	O	0.707350	0.299723	0.467294
	H442	H	0.708429	0.308385	0.477977
	H443	H	0.723939	0.289428	0.456107
	O444	O	0.507812	0.450057	0.580885
	H445	H	0.498339	0.457972	0.587018
	H446	H	0.510758	0.447448	0.571625
	O447	O	0.786614	-0.106261	1.046421
	H448	H	0.779285	-0.122956	1.055234
	H449	H	0.785793	-0.103513	1.028073
	O450	O	1.588695	0.627383	0.629003
	H451	H	1.570502	0.619369	0.650898
	H452	H	1.587277	0.618395	0.647229
	O453	O	0.571506	0.606782	0.298223
	H454	H	0.553927	0.604483	0.301913
	H455	H	0.554339	0.601724	0.318175
	O456	O	0.190589	0.948150	1.016749
	H457	H	0.189233	0.962918	1.041515
	H458	H	0.180750	0.961768	1.019397
	O459	O	0.518107	0.722943	0.696278
	H460	H	0.515213	0.705865	0.700341
	H461	H	0.514635	0.734632	0.718332
	O462	O	0.526743	0.289654	0.273384
	H463	H	0.531412	0.285995	0.252883
	H464	H	0.536037	0.277094	0.275588
	O465	O	0.188527	0.813785	0.796429
	H466	H	0.178021	0.806556	0.831838
	H467	H	0.157605	0.803439	0.794366
	O468	O	0.251550	0.746123	0.253589
	H469	H	0.225960	0.776740	0.225207
	H470	H	0.275793	0.749437	0.244882
	O471	O	0.799844	0.806990	0.197235
	H472	H	0.785928	0.813124	0.180203
	H473	H	0.787631	0.795910	0.202377
	O474	O	1.344458	0.605894	0.384713
	H475	H	1.321914	0.615758	0.373387
	H476	H	1.350346	0.616386	0.385587
	O477	O	0.716926	0.486338	0.497745
	H478	H	0.710905	0.491912	0.515970
	H479	H	0.708345	0.506305	0.498732
