data_Molecule from HDF5

_cell_length_a		16.262627
_cell_length_b		16.447727
_cell_length_c		16.363014
_cell_angle_alpha	89.961389
_cell_angle_beta	89.975047
_cell_angle_gamma	89.938150
_symmetry_space_group_name_H-M	'P 1'
_symmetry_Int_Tables_number		1

loop_
	_symmetry_equiv_pos_as_xyz
	x,y,z

loop_
	_atom_site_label
	_atom_site_type_symbol
	_atom_site_fract_x
	_atom_site_fract_y
	_atom_site_fract_z
	H0	H	0.394250	0.834016	0.728402
	H1	H	0.604594	0.151685	0.731106
	H2	H	0.605389	0.834951	0.284601
	H3	H	0.391266	0.152558	0.287887
	H4	H	0.717555	0.387993	0.849097
	H5	H	0.718407	0.597476	0.167778
	H6	H	0.280595	0.593907	0.849726
	H7	H	0.278389	0.388842	0.170635
	H8	H	0.836587	0.715759	0.401538
	H9	H	0.156419	0.711264	0.612521
	H10	H	0.837390	0.269059	0.618332
	H11	H	0.155458	0.270412	0.401205
	H12	H	0.837098	0.387655	0.732103
	H13	H	0.157537	0.595084	0.727048
	H14	H	0.837297	0.601468	0.285556
	H15	H	0.156448	0.387965	0.288668
	H16	H	0.391602	0.713202	0.851215
	H17	H	0.606935	0.716223	0.167245
	H18	H	0.604793	0.270365	0.851138
	H19	H	0.390335	0.269602	0.168731
	H20	H	0.717701	0.832759	0.404831
	H21	H	0.719491	0.150740	0.614722
	H22	H	0.280173	0.832390	0.608059
	H23	H	0.274096	0.151547	0.402351
	H24	H	0.886268	0.337059	0.234861
	H25	H	0.104153	0.650858	0.233496
	H26	H	0.100966	0.335076	0.789788
	H27	H	0.890689	0.651943	0.787847
	H28	H	0.216323	0.887177	0.348431
	H29	H	0.213457	0.093758	0.668015
	H30	H	0.777281	0.094682	0.349650
	H31	H	0.775244	0.885109	0.668740
	H32	H	0.337681	0.211191	0.907114
	H33	H	0.658033	0.213345	0.115214
	H34	H	0.338259	0.771481	0.115480
	H35	H	0.656632	0.769333	0.901809
	H36	H	0.336505	0.889936	0.227578
	H37	H	0.658124	0.098390	0.230440
	H38	H	0.337489	0.095547	0.790810
	H39	H	0.658186	0.886220	0.787908
	H40	H	0.885964	0.216815	0.351899
	H41	H	0.101169	0.212436	0.666764
	H42	H	0.103930	0.768578	0.350658
	H43	H	0.889896	0.769683	0.668573
	H44	H	0.214130	0.333534	0.911001
	H45	H	0.219952	0.650917	0.116947
	H46	H	0.775267	0.334747	0.113442
	H47	H	0.773841	0.651791	0.902575
	H48	H	0.414133	0.103977	0.597713
	H49	H	0.581764	0.882189	0.595736
	H50	H	0.581923	0.103645	0.420441
	H51	H	0.415218	0.886825	0.429227
	H52	H	0.582840	0.399260	0.123419
	H53	H	0.579287	0.579997	0.897213
	H54	H	0.406670	0.576525	0.122919
	H55	H	0.412181	0.398884	0.897180
	H56	H	0.109212	0.580470	0.422052
	H57	H	0.880142	0.582390	0.600908
	H58	H	0.108626	0.404705	0.593999
	H59	H	0.882224	0.403548	0.424267
	H60	H	0.111299	0.403775	0.602798
	H61	H	0.880678	0.583768	0.596424
	H62	H	0.109089	0.580851	0.421105
	H63	H	0.884466	0.406854	0.424284
	H64	H	0.416936	0.583922	0.122588
	H65	H	0.584305	0.586829	0.893856
	H66	H	0.589737	0.404182	0.124175
	H67	H	0.403098	0.398328	0.893259
	H68	H	0.587186	0.104318	0.424491
	H69	H	0.591862	0.878048	0.596879
	H70	H	0.398814	0.107134	0.592912
	H71	H	0.393997	0.876129	0.420516
	H72	H	0.912639	0.604580	0.097373
	H73	H	0.089172	0.379242	0.096688
	H74	H	0.089600	0.609215	0.916484
	H75	H	0.910977	0.379639	0.915898
	H76	H	0.085214	0.895461	0.623779
	H77	H	0.083663	0.077602	0.394506
	H78	H	0.912303	0.080964	0.622135
	H79	H	0.906283	0.904527	0.395544
	H80	H	0.613862	0.084639	0.922588
	H81	H	0.384162	0.080658	0.101068
	H82	H	0.608158	0.911103	0.090890
	H83	H	0.380373	0.901535	0.914792
	H84	H	0.613567	0.906872	0.105238
	H85	H	0.381508	0.085815	0.099012
	H86	H	0.612043	0.079052	0.921280
	H87	H	0.383372	0.900476	0.924693
	H88	H	0.907774	0.083203	0.623987
	H89	H	0.080613	0.084412	0.393526
	H90	H	0.091627	0.903314	0.624019
	H91	H	0.912020	0.906293	0.398887
	H92	H	0.086845	0.608636	0.917600
	H93	H	0.085111	0.379192	0.103579
	H94	H	0.908843	0.605446	0.093817
	H95	H	0.910434	0.382269	0.923863
	H96	H	0.403245	0.110985	0.608272
	H97	H	0.584802	0.878016	0.605696
	H98	H	0.587512	0.106089	0.417977
	H99	H	0.414379	0.877613	0.405874
	H100	H	0.582816	0.407156	0.120442
	H101	H	0.588239	0.578557	0.895445
	H102	H	0.406053	0.588148	0.128302
	H103	H	0.406742	0.406727	0.897301
	H104	H	0.110265	0.580961	0.421857
	H105	H	0.882473	0.579601	0.597871
	H106	H	0.111915	0.396695	0.597416
	H107	H	0.882105	0.406113	0.421402
	H108	H	0.907663	0.606520	0.099092
	H109	H	0.081680	0.382676	0.097506
	H110	H	0.089199	0.608272	0.919162
	H111	H	0.903878	0.379083	0.920108
	H112	H	0.082303	0.905037	0.620219
	H113	H	0.087499	0.083542	0.391450
	H114	H	0.908282	0.077854	0.622528
	H115	H	0.911104	0.899956	0.396610
	H116	H	0.615050	0.082877	0.916847
	H117	H	0.384298	0.081067	0.095157
	H118	H	0.613678	0.896462	0.093255
	H119	H	0.386037	0.908731	0.919470
	C120	C	0.375437	0.001420	0.629751
	C121	C	0.619234	0.983986	0.631588
	C122	C	0.618412	0.000244	0.387935
	C123	C	0.375119	0.984985	0.386340
	C124	C	0.618107	0.371307	0.017516
	C125	C	0.618079	0.614524	1.000167
	C126	C	0.376812	0.614405	0.019105
	C127	C	0.375751	0.370106	1.001496
	C128	C	0.004478	0.614358	0.388035
	C129	C	0.987496	0.613065	0.629739
	C130	C	0.005265	0.370254	0.631127
	C131	C	0.988036	0.371987	0.389020
	C132	C	0.875365	0.501711	0.130301
	C133	C	0.118482	0.484767	0.132114
	C134	C	0.119141	0.502773	0.887895
	C135	C	0.875302	0.484816	0.887189
	C136	C	0.118435	0.869794	0.517237
	C137	C	0.116199	0.113239	0.498704
	C138	C	0.875727	0.113413	0.517982
	C139	C	0.876117	0.870252	0.501570
	C140	C	0.507059	0.113301	0.889030
	C141	C	0.489350	0.114854	0.131177
	C142	C	0.506127	0.872424	0.129578
	C143	C	0.489076	0.871088	0.887849
	C144	C	0.375422	0.881355	0.687988
	C145	C	0.622199	0.103783	0.691011
	C146	C	0.622116	0.881927	0.326078
	C147	C	0.373151	0.104556	0.327370
	C148	C	0.678233	0.369326	0.897442
	C149	C	0.678794	0.616279	0.120072
	C150	C	0.318250	0.614193	0.898539
	C151	C	0.316713	0.369357	0.122202
	C152	C	0.884522	0.675628	0.384161
	C153	C	0.108630	0.671756	0.631041
	C154	C	0.885195	0.309652	0.635305
	C155	C	0.107754	0.311199	0.384616
	C156	C	0.885030	0.368700	0.692031
	C157	C	0.109142	0.614186	0.688141
	C158	C	0.884823	0.618359	0.326449
	C159	C	0.108325	0.369739	0.328408
	C160	C	0.373849	0.673559	0.899130
	C161	C	0.622970	0.675321	0.119580
	C162	C	0.621768	0.310739	0.898305
	C163	C	0.373034	0.310237	0.121235
	C164	C	0.678526	0.880784	0.385785
	C165	C	0.679467	0.103387	0.633003
	C166	C	0.318483	0.880576	0.628515
	C167	C	0.314334	0.104058	0.384338
	C168	C	0.869878	0.383803	0.193349
	C169	C	0.121702	0.603473	0.192851
	C170	C	0.119586	0.382372	0.830101
	C171	C	0.872464	0.604507	0.827369
	C172	C	0.177042	0.868742	0.396651
	C173	C	0.174968	0.113464	0.619596
	C174	C	0.815753	0.114385	0.397809
	C175	C	0.815304	0.867504	0.620903
	C176	C	0.385847	0.172155	0.887736
	C177	C	0.610031	0.173891	0.133401
	C178	C	0.385963	0.811853	0.133109
	C179	C	0.609209	0.810115	0.884693
	C180	C	0.385045	0.871101	0.188755
	C181	C	0.609793	0.116901	0.190943
	C182	C	0.385758	0.114619	0.830222
	C183	C	0.609831	0.868604	0.827778
	C184	C	0.870279	0.174881	0.398977
	C185	C	0.119100	0.172628	0.618894
	C186	C	0.121322	0.809310	0.397851
	C187	C	0.872406	0.809816	0.620996
	C188	C	0.175901	0.381506	0.889802
	C189	C	0.179586	0.603516	0.134751
	C190	C	0.814424	0.382693	0.132905
	C191	C	0.814103	0.604128	0.884713
	C192	C	0.398673	0.085461	0.606501
	C193	C	0.593590	0.901032	0.606780
	C194	C	0.592773	0.083098	0.413471
	C195	C	0.400564	0.901768	0.411434
	C196	C	0.592609	0.396255	0.100889
	C197	C	0.591536	0.589203	0.917292
	C198	C	0.402398	0.589983	0.102920
	C199	C	0.400216	0.394289	0.917705
	C200	C	0.087895	0.588229	0.414085
	C201	C	0.903138	0.588782	0.605423
	C202	C	0.088869	0.394784	0.605497
	C203	C	0.904652	0.398067	0.415571
	C204	C	0.902082	0.583923	0.104291
	C205	C	0.092747	0.402041	0.106610
	C206	C	0.095419	0.586737	0.910964
	C207	C	0.900928	0.402104	0.912307
	C208	C	0.093620	0.894337	0.600855
	C209	C	0.091177	0.088970	0.415032
	C210	C	0.901950	0.087941	0.601241
	C211	C	0.902256	0.896260	0.418587
	C212	C	0.591521	0.089185	0.913103
	C213	C	0.405245	0.089681	0.105756
	C214	C	0.589879	0.897484	0.103954
	C215	C	0.405325	0.896192	0.912692
	Zn216	Zn	0.498054	-0.007087	0.759835
	Zn217	Zn	0.497833	-0.006641	0.258028
	Zn218	Zn	0.746166	0.492925	0.008583
	Zn219	Zn	0.247773	0.492979	0.010502
	Zn220	Zn	-0.003470	0.741762	0.509664
	Zn221	Zn	-0.004387	0.242265	0.508309
	Zn222	Zn	-0.003234	0.493926	0.758656
	Zn223	Zn	-0.004091	0.492984	0.260452
	Zn224	Zn	0.497575	0.743317	0.009563
	Zn225	Zn	0.497924	0.242129	0.010076
	Zn226	Zn	0.747998	-0.008322	0.509965
	Zn227	Zn	0.245539	-0.007276	0.507642
	N228	N	0.409806	0.957733	0.689254
	N229	N	0.585394	0.028608	0.690251
	N230	N	0.585757	0.957255	0.327284
	N231	N	0.410066	0.029432	0.328417
	N232	N	0.675902	0.406509	0.972670
	N233	N	0.676133	0.579238	0.044949
	N234	N	0.319811	0.578242	0.974324
	N235	N	0.318170	0.406067	0.046638
	N236	N	0.960171	0.673323	0.421732
	N237	N	0.031916	0.671391	0.595819
	N238	N	0.960967	0.310498	0.597919
	N239	N	0.031713	0.312336	0.421292
	N240	N	0.960715	0.405505	0.689817
	N241	N	0.032787	0.578666	0.687484
	N242	N	0.960400	0.581040	0.328774
	N243	N	0.032591	0.407004	0.331061
	N244	N	0.409329	0.673839	0.975338
	N245	N	0.586072	0.674546	0.043939
	N246	N	0.584968	0.312018	0.973920
	N247	N	0.408965	0.310577	0.045264
	N248	N	0.676390	0.955325	0.423763
	N249	N	0.677766	0.027923	0.596844
	N250	N	0.318391	0.956177	0.593017
	N251	N	0.315472	0.028481	0.420452
	N252	N	0.907027	0.458846	0.192067
	N253	N	0.084442	0.528586	0.191348
	N254	N	0.085227	0.458779	0.828557
	N255	N	0.909594	0.529355	0.828638
	N256	N	0.175520	0.905615	0.471965
	N257	N	0.173610	0.077412	0.543790
	N258	N	0.818832	0.076962	0.472939
	N259	N	0.817502	0.904340	0.545537
	N260	N	0.462288	0.171546	0.923349
	N261	N	0.533945	0.172650	0.096942
	N262	N	0.462374	0.812346	0.097184
	N263	N	0.533179	0.811577	0.921289
	N264	N	0.460824	0.908039	0.186616
	N265	N	0.533547	0.081010	0.189589
	N266	N	0.462171	0.078974	0.830547
	N267	N	0.534185	0.905882	0.829477
	N268	N	0.906558	0.174453	0.474755
	N269	N	0.083727	0.172883	0.542698
	N270	N	0.085379	0.809921	0.473822
	N271	N	0.909650	0.811502	0.545678
	N272	N	0.175827	0.457248	0.924931
	N273	N	0.177483	0.528706	0.097526
	N274	N	0.817644	0.457022	0.094618
	N275	N	0.815495	0.528825	0.921043
	O276	O	0.568611	0.577482	0.606998
	H277	H	0.579040	0.568441	0.614656
	H278	H	0.569759	0.592205	0.585214
	O279	O	0.643857	0.449127	0.656814
	H280	H	0.627961	0.444397	0.661587
	H281	H	0.657273	0.452476	0.643963
	O282	O	1.002368	1.099650	-0.126833
	H283	H	0.997549	1.095972	-0.134563
	H284	H	1.013340	1.095716	-0.142280
	O285	O	0.890239	0.852177	-0.090569
	H286	H	0.879945	0.855543	-0.120428
	H287	H	0.874747	0.869050	-0.082045
	O288	O	0.377513	0.630675	0.547115
	H289	H	0.386826	0.635113	0.532759
	H290	H	0.389962	0.633863	0.531059
	O291	O	0.479434	0.327611	0.484584
	H292	H	0.489894	0.315724	0.510571
	H293	H	0.451873	0.337819	0.484778
	O294	O	0.856934	0.886979	0.956692
	H295	H	0.839746	0.899445	0.974313
	H296	H	0.866349	0.880090	0.970420
	O297	O	0.469222	0.284567	0.722605
	H298	H	0.470846	0.262276	0.730623
	H299	H	0.457081	0.282653	0.725259
	O300	O	0.377053	0.672358	0.335224
	H301	H	0.389305	0.679761	0.332728
	H302	H	0.357446	0.640513	0.326842
	O303	O	0.410955	0.372350	0.488790
	H304	H	0.407786	0.373284	0.486847
	H305	H	0.413738	0.386023	0.488150
	O306	O	0.332476	0.574949	0.613683
	H307	H	0.323586	0.566973	0.592897
	H308	H	0.338290	0.585621	0.603922
	O309	O	1.012370	0.118192	-0.022418
	H310	H	1.014099	0.105011	-0.038761
	H311	H	1.027299	0.112208	-0.022334
	O312	O	0.425921	0.672763	0.311869
	H313	H	0.439303	0.646060	0.294477
	H314	H	0.413852	0.682790	0.310999
	O315	O	-0.198433	0.202219	0.985905
	H316	H	-0.192694	0.223481	0.998330
	H317	H	-0.198433	0.199961	0.995108
	O318	O	0.179493	0.156780	-0.053551
	H319	H	0.189151	0.156724	-0.047701
	H320	H	0.192081	0.150389	-0.038544
	O321	O	0.518729	0.513285	0.307761
	H322	H	0.533847	0.501582	0.318872
	H323	H	0.523267	0.504287	0.299697
	O324	O	0.792511	-0.026959	1.205695
	H325	H	0.766012	-0.023155	1.214845
	H326	H	0.801549	-0.039034	1.200626
	O327	O	0.569819	0.544803	0.502016
	H328	H	0.579523	0.538035	0.518825
	H329	H	0.553524	0.545405	0.509786
	O330	O	-0.032349	1.043949	1.056051
	H331	H	-0.026574	1.043815	1.060033
	H332	H	-0.036438	1.032196	1.059587
	O333	O	-0.713750	0.318000	-0.480583
	H334	H	-0.717273	0.321623	-0.463559
	H335	H	-0.734969	0.310419	-0.463839
	O336	O	1.100772	1.101235	-0.157440
	H337	H	1.092049	1.090204	-0.149582
	H338	H	1.098258	1.093313	-0.145433
	O339	O	0.174985	0.957955	1.042743
	H340	H	0.164843	0.954163	1.036252
	H341	H	0.180699	0.959264	1.042466
	O342	O	0.361229	0.612028	0.547249
	H343	H	0.366585	0.591044	0.543021
	H344	H	0.370900	0.606544	0.549563
	O345	O	0.018812	0.129746	1.093602
	H346	H	0.003099	0.123913	1.086997
	H347	H	0.016390	0.125668	1.081649
	O348	O	0.512881	0.301258	0.312022
	H349	H	0.504302	0.290324	0.332105
	H350	H	0.520432	0.280373	0.303874
	O351	O	1.135104	1.134922	0.162648
	H352	H	1.135464	1.124980	0.162015
	H353	H	1.123762	1.117194	0.165420
	O354	O	0.981089	1.028674	0.967782
	H355	H	0.973010	1.013982	0.971081
	H356	H	1.005480	1.026058	0.965008
	O357	O	0.206643	-0.221527	-0.016089
	H358	H	0.213837	-0.228093	-0.015383
	H359	H	0.215151	-0.230601	-0.022841
	O360	O	0.669006	0.500692	0.427469
	H361	H	0.670529	0.535108	0.453644
	H362	H	0.670070	0.495071	0.416618
	O363	O	0.984930	-0.178447	0.204350
	H364	H	0.998014	-0.172833	0.184821
	H365	H	0.991099	-0.198822	0.214840
	O366	O	-0.170988	0.166530	0.829578
	H367	H	-0.159749	0.177985	0.858036
	H368	H	-0.157361	0.172193	0.830803
	O369	O	1.206675	-0.034043	0.803539
	H370	H	1.225838	-0.045529	0.786632
	H371	H	1.210712	-0.076488	0.802089
	O372	O	0.700607	0.371032	0.519415
	H373	H	0.711837	0.350201	0.514590
	H374	H	0.703452	0.377137	0.491788
	O375	O	0.171337	0.053656	1.199971
	H376	H	0.166923	0.032482	1.214435
	H377	H	0.165843	0.044953	1.200853
	O378	O	0.694771	0.404035	0.338106
	H379	H	0.696099	0.434116	0.349812
	H380	H	0.684393	0.398313	0.341118
	O381	O	-0.202679	1.006472	-0.199892
	H382	H	-0.200015	1.025670	-0.182568
	H383	H	-0.228493	1.027034	-0.224101
	O384	O	0.664328	0.320273	0.411372
	H385	H	0.649655	0.308606	0.406914
	H386	H	0.662091	0.337104	0.400540
	O387	O	0.488447	0.673568	0.521465
	H388	H	0.478372	0.676487	0.518707
	H389	H	0.493664	0.676077	0.525559
	O390	O	0.803228	0.787730	0.018002
	H391	H	0.803226	0.814328	0.035256
	H392	H	0.777255	0.761184	0.023555
	O393	O	0.976520	0.034333	0.938411
	H394	H	0.957243	0.045003	0.931038
	H395	H	0.984464	0.029554	0.944069
	O396	O	0.669661	0.697346	0.510192
	H397	H	0.681722	0.727089	0.513362
	H398	H	0.650793	0.693235	0.518920
	O399	O	0.084692	0.860670	0.104321
	H400	H	0.071007	0.862458	0.077815
	H401	H	0.076506	0.863233	0.100928
	O402	O	1.296514	1.290799	-0.290208
	H403	H	1.287167	1.283618	-0.274977
	H404	H	1.306137	1.320914	-0.288336
	O405	O	0.679474	0.607935	0.697220
	H406	H	0.652523	0.606834	0.712525
	H407	H	0.683191	0.582460	0.691423
	O408	O	0.520629	0.346472	0.555088
	H409	H	0.534202	0.344816	0.553916
	H410	H	0.518977	0.361057	0.557359
	O411	O	1.009069	1.201994	1.154745
	H412	H	1.023107	1.212687	1.168517
	H413	H	1.043400	1.203082	1.156332
	O414	O	0.521211	0.700732	0.616872
	H415	H	0.528052	0.702508	0.625062
	H416	H	0.526246	0.702631	0.603745
	O417	O	-0.083757	1.053895	1.042006
	H418	H	-0.072394	1.074796	1.034819
	H419	H	-0.071230	1.058860	1.031135
	O420	O	0.091075	0.893785	1.166205
	H421	H	0.080838	0.902473	1.165253
	H422	H	0.096743	0.882472	1.152155
	O423	O	0.191535	0.800331	-0.184996
	H424	H	0.157301	0.790480	-0.174372
	H425	H	0.190369	0.778351	-0.190759
	O426	O	0.286169	0.501430	0.345219
	H427	H	0.315159	0.490100	0.336970
	H428	H	0.264492	0.491528	0.327080
	O429	O	0.294923	0.457359	0.714658
	H430	H	0.283998	0.467474	0.712469
	H431	H	0.295287	0.464789	0.710293
	O432	O	0.429282	0.413437	0.370216
	H433	H	0.432581	0.387023	0.386134
	H434	H	0.438440	0.410153	0.368653
	O435	O	0.006630	-0.190743	-0.192300
	H436	H	-0.011179	-0.193083	-0.173690
	H437	H	-0.015881	-0.186744	-0.208236
	O438	O	-0.178640	0.813772	1.184200
	H439	H	-0.181797	0.825665	1.178831
	H440	H	-0.135529	0.807918	1.192295
	O441	O	0.574109	0.525106	0.706643
	H442	H	0.572743	0.516049	0.720876
	H443	H	0.576428	0.513349	0.693367
