data_Molecule from HDF5

_cell_length_a		16.357610
_cell_length_b		16.197320
_cell_length_c		16.127492
_cell_angle_alpha	89.863140
_cell_angle_beta	90.024242
_cell_angle_gamma	89.831684
_symmetry_space_group_name_H-M	'P 1'
_symmetry_Int_Tables_number		1

loop_
	_symmetry_equiv_pos_as_xyz
	x,y,z

loop_
	_atom_site_label
	_atom_site_type_symbol
	_atom_site_fract_x
	_atom_site_fract_y
	_atom_site_fract_z
	H0	H	0.411253	0.842650	0.708073
	H1	H	0.603534	0.172988	0.706279
	H2	H	0.604695	0.842536	0.283458
	H3	H	0.410308	0.173016	0.282775
	H4	H	0.722103	0.409902	0.829521
	H5	H	0.724069	0.608842	0.158927
	H6	H	0.291888	0.609536	0.830318
	H7	H	0.292654	0.407380	0.158414
	H8	H	0.844731	0.723049	0.395854
	H9	H	0.170849	0.722730	0.594999
	H10	H	0.844964	0.292845	0.593660
	H11	H	0.170790	0.291118	0.396048
	H12	H	0.844158	0.410671	0.708411
	H13	H	0.171658	0.604499	0.709677
	H14	H	0.844966	0.605265	0.280597
	H15	H	0.171387	0.408503	0.280776
	H16	H	0.408853	0.722443	0.829267
	H17	H	0.604600	0.719716	0.160770
	H18	H	0.604393	0.296971	0.828901
	H19	H	0.410592	0.294761	0.159825
	H20	H	0.724476	0.844422	0.393468
	H21	H	0.722905	0.171443	0.595043
	H22	H	0.291498	0.844469	0.596675
	H23	H	0.291504	0.171490	0.394428
	H24	H	0.913248	0.341891	0.207531
	H25	H	0.104548	0.672871	0.207942
	H26	H	0.104191	0.342516	0.783597
	H27	H	0.910552	0.672812	0.781239
	H28	H	0.223732	0.905864	0.330622
	H29	H	0.220461	0.106127	0.659678
	H30	H	0.792125	0.108203	0.329798
	H31	H	0.792043	0.906046	0.658613
	H32	H	0.344793	0.223171	0.897221
	H33	H	0.671322	0.222128	0.094130
	H34	H	0.344509	0.793818	0.094759
	H35	H	0.670297	0.792971	0.896527
	H36	H	0.344563	0.911957	0.209653
	H37	H	0.671681	0.104791	0.209705
	H38	H	0.343833	0.106186	0.781809
	H39	H	0.671126	0.910641	0.781866
	H40	H	0.908470	0.222468	0.329523
	H41	H	0.102422	0.217714	0.660666
	H42	H	0.104962	0.795280	0.329282
	H43	H	0.910469	0.793628	0.659700
	H44	H	0.223552	0.344314	0.894418
	H45	H	0.222152	0.672285	0.094207
	H46	H	0.792573	0.343345	0.096436
	H47	H	0.793172	0.672085	0.895119
	H48	H	0.414340	0.124975	0.587103
	H49	H	0.603320	0.892013	0.580828
	H50	H	0.603680	0.125977	0.402315
	H51	H	0.418495	0.893277	0.408459
	H52	H	0.600640	0.425138	0.108946
	H53	H	0.602442	0.601877	0.876195
	H54	H	0.415707	0.600150	0.112048
	H55	H	0.411414	0.413655	0.874788
	H56	H	0.122882	0.601632	0.404776
	H57	H	0.888800	0.605020	0.594835
	H58	H	0.126557	0.408329	0.592165
	H59	H	0.890101	0.408383	0.401820
	H60	H	0.122910	0.410498	0.584163
	H61	H	0.892490	0.605802	0.581068
	H62	H	0.123758	0.598664	0.401037
	H63	H	0.893744	0.416630	0.407276
	H64	H	0.414413	0.601297	0.113209
	H65	H	0.601573	0.599284	0.877126
	H66	H	0.594093	0.408922	0.112792
	H67	H	0.413990	0.420950	0.877803
	H68	H	0.598601	0.125642	0.400116
	H69	H	0.605599	0.887942	0.591584
	H70	H	0.410839	0.125361	0.585748
	H71	H	0.408084	0.889403	0.405074
	H72	H	0.910774	0.623745	0.082160
	H73	H	0.102362	0.388248	0.096333
	H74	H	0.105716	0.625664	0.907115
	H75	H	0.915026	0.389589	0.899358
	H76	H	0.102899	0.917139	0.612767
	H77	H	0.095929	0.098862	0.377858
	H78	H	0.915001	0.085335	0.607424
	H79	H	0.912870	0.922943	0.377923
	H80	H	0.621752	0.098990	0.906874
	H81	H	0.392790	0.096370	0.092536
	H82	H	0.621218	0.909474	0.075399
	H83	H	0.392383	0.917099	0.903823
	H84	H	0.621299	0.926620	0.092099
	H85	H	0.388871	0.109078	0.090978
	H86	H	0.625661	0.098031	0.894054
	H87	H	0.391423	0.916041	0.898636
	H88	H	0.924998	0.109862	0.612637
	H89	H	0.102239	0.103705	0.374700
	H90	H	0.097861	0.916149	0.611711
	H91	H	0.921334	0.912729	0.377042
	H92	H	0.102199	0.627620	0.896154
	H93	H	0.095125	0.392961	0.084230
	H94	H	0.911875	0.627088	0.091843
	H95	H	0.915149	0.391025	0.905579
	H96	H	0.411491	0.126329	0.589241
	H97	H	0.595352	0.891018	0.588960
	H98	H	0.600063	0.124884	0.405872
	H99	H	0.417040	0.889434	0.397605
	H100	H	0.611135	0.412164	0.116275
	H101	H	0.599225	0.601225	0.877069
	H102	H	0.413223	0.599276	0.112029
	H103	H	0.419040	0.414753	0.876762
	H104	H	0.125714	0.603910	0.400779
	H105	H	0.894307	0.593948	0.587596
	H106	H	0.124159	0.417848	0.591150
	H107	H	0.891466	0.417872	0.396877
	H108	H	0.919751	0.623389	0.086373
	H109	H	0.109053	0.389983	0.082909
	H110	H	0.094970	0.623245	0.904157
	H111	H	0.910472	0.389232	0.902262
	H112	H	0.101467	0.912233	0.613745
	H113	H	0.103529	0.095805	0.377054
	H114	H	0.899105	0.104588	0.618479
	H115	H	0.908571	0.911087	0.373981
	H116	H	0.625903	0.109906	0.899901
	H117	H	0.394162	0.101960	0.080852
	H118	H	0.629286	0.904328	0.097656
	H119	H	0.389642	0.912125	0.902760
	C120	C	0.385141	0.016624	0.616372
	C121	C	0.629050	0.999300	0.615648
	C122	C	0.629501	0.016590	0.373367
	C123	C	0.385970	0.999250	0.374494
	C124	C	0.629666	0.387178	0.003421
	C125	C	0.629274	0.629581	0.986139
	C126	C	0.385860	0.629367	0.003139
	C127	C	0.386866	0.387433	0.985647
	C128	C	0.016428	0.629826	0.373158
	C129	C	0.999648	0.629737	0.616940
	C130	C	0.016279	0.384964	0.617384
	C131	C	0.999696	0.385372	0.373288
	C132	C	0.886341	0.515864	0.116347
	C133	C	0.130208	0.499380	0.116620
	C134	C	0.128837	0.516549	0.873863
	C135	C	0.885871	0.499113	0.873456
	C136	C	0.129263	0.886404	0.503597
	C137	C	0.128144	0.127744	0.485944
	C138	C	0.885117	0.129179	0.503396
	C139	C	0.886460	0.886484	0.485545
	C140	C	0.516042	0.130472	0.872514
	C141	C	0.499821	0.130454	0.117031
	C142	C	0.516262	0.885720	0.117448
	C143	C	0.499035	0.886537	0.873310
	C144	C	0.389416	0.892186	0.671170
	C145	C	0.624931	0.123458	0.669605
	C146	C	0.626184	0.892218	0.319536
	C147	C	0.389044	0.123560	0.319756
	C148	C	0.684424	0.389389	0.878998
	C149	C	0.684807	0.627654	0.110115
	C150	C	0.330268	0.628551	0.879331
	C151	C	0.331279	0.388254	0.109653
	C152	C	0.893458	0.684955	0.375476
	C153	C	0.122457	0.684269	0.614927
	C154	C	0.893599	0.330414	0.614562
	C155	C	0.122397	0.329678	0.375938
	C156	C	0.893132	0.388797	0.671528
	C157	C	0.122882	0.625363	0.671845
	C158	C	0.893391	0.626478	0.318232
	C159	C	0.122561	0.387707	0.318471
	C160	C	0.388617	0.684634	0.878811
	C161	C	0.625769	0.683066	0.111076
	C162	C	0.626091	0.333298	0.878556
	C163	C	0.389899	0.332386	0.110328
	C164	C	0.685437	0.893136	0.374486
	C165	C	0.684082	0.122719	0.613950
	C166	C	0.329813	0.893087	0.615858
	C167	C	0.329991	0.122823	0.375343
	C168	C	0.891167	0.391368	0.170467
	C169	C	0.125972	0.623615	0.170884
	C170	C	0.125592	0.392000	0.820124
	C171	C	0.889721	0.623536	0.818748
	C172	C	0.184787	0.887332	0.379573
	C173	C	0.182273	0.125334	0.610478
	C174	C	0.830395	0.127802	0.378946
	C175	C	0.831111	0.887377	0.609824
	C176	C	0.393279	0.185056	0.876128
	C177	C	0.622876	0.184093	0.114275
	C178	C	0.393244	0.831627	0.114979
	C179	C	0.621732	0.830952	0.876163
	C180	C	0.393147	0.890153	0.172169
	C181	C	0.622831	0.126100	0.172122
	C182	C	0.392995	0.127098	0.818635
	C183	C	0.622103	0.889172	0.818889
	C184	C	0.888346	0.184447	0.378890
	C185	C	0.123806	0.181082	0.611034
	C186	C	0.125995	0.832187	0.378793
	C187	C	0.889631	0.831438	0.610334
	C188	C	0.184883	0.392956	0.875031
	C189	C	0.184714	0.623051	0.114684
	C190	C	0.831241	0.392291	0.115182
	C191	C	0.831459	0.623287	0.875354
	C192	C	0.406069	0.103229	0.593973
	C193	C	0.607573	0.912501	0.593698
	C194	C	0.607402	0.103243	0.396076
	C195	C	0.408087	0.912866	0.397024
	C196	C	0.608191	0.408916	0.090165
	C197	C	0.607436	0.607582	0.899098
	C198	C	0.407948	0.606682	0.090008
	C199	C	0.408449	0.409866	0.898843
	C200	C	0.101880	0.607801	0.395358
	C201	C	0.914029	0.608019	0.594508
	C202	C	0.102255	0.406063	0.595631
	C203	C	0.913889	0.407893	0.395268
	C204	C	0.907770	0.602440	0.093729
	C205	C	0.108659	0.412738	0.094399
	C206	C	0.107285	0.603124	0.895920
	C207	C	0.907296	0.412406	0.895764
	C208	C	0.107155	0.908550	0.590419
	C209	C	0.106856	0.105978	0.398727
	C210	C	0.906474	0.106425	0.590397
	C211	C	0.907985	0.908915	0.398825
	C212	C	0.602274	0.108693	0.894060
	C213	C	0.414134	0.108835	0.094874
	C214	C	0.601798	0.907222	0.095203
	C215	C	0.413281	0.908599	0.895301
	Zn216	Zn	0.507323	0.008031	0.743845
	Zn217	Zn	0.507995	0.007941	0.246141
	Zn218	Zn	0.757369	0.508387	-0.005206
	Zn219	Zn	0.257818	0.508126	-0.005467
	Zn220	Zn	0.008200	0.759162	0.494817
	Zn221	Zn	0.007741	0.255911	0.494716
	Zn222	Zn	0.007676	0.507202	0.745854
	Zn223	Zn	0.008236	0.507482	0.244357
	Zn224	Zn	0.507198	0.756936	-0.004907
	Zn225	Zn	0.508426	0.259207	-0.005178
	Zn226	Zn	0.757625	0.007713	0.494353
	Zn227	Zn	0.256816	0.007548	0.494759
	N228	N	0.423283	0.969870	0.671419
	N229	N	0.591155	0.045723	0.670437
	N230	N	0.592236	0.970057	0.318685
	N231	N	0.423294	0.045855	0.319005
	N232	N	0.686740	0.422395	0.957424
	N233	N	0.687209	0.595306	0.031248
	N234	N	0.328561	0.594840	0.957745
	N235	N	0.329112	0.421744	0.031278
	N236	N	0.970809	0.687017	0.408924
	N237	N	0.045016	0.687248	0.581567
	N238	N	0.971165	0.327870	0.581513
	N239	N	0.044903	0.328016	0.409103
	N240	N	0.970343	0.422013	0.673269
	N241	N	0.045446	0.592278	0.673264
	N242	N	0.970721	0.592942	0.316672
	N243	N	0.045151	0.421486	0.316605
	N244	N	0.422631	0.685202	0.956915
	N245	N	0.591723	0.684175	0.033060
	N246	N	0.592545	0.332047	0.956827
	N247	N	0.423951	0.331901	0.032376
	N248	N	0.687530	0.971610	0.407192
	N249	N	0.686735	0.044290	0.581156
	N250	N	0.327319	0.971236	0.582378
	N251	N	0.328139	0.044575	0.408782
	N252	N	0.924522	0.469297	0.171369
	N253	N	0.092797	0.545643	0.172090
	N254	N	0.091446	0.469649	0.819261
	N255	N	0.923026	0.545307	0.817734
	N256	N	0.186965	0.920274	0.458053
	N257	N	0.185140	0.093036	0.531610
	N258	N	0.828402	0.094196	0.457124
	N259	N	0.828935	0.921057	0.531363
	N260	N	0.470976	0.187275	0.908669
	N261	N	0.545498	0.187031	0.080928
	N262	N	0.470667	0.828769	0.081571
	N263	N	0.544221	0.829105	0.909229
	N264	N	0.470682	0.922748	0.173989
	N265	N	0.545235	0.093413	0.173769
	N266	N	0.470436	0.093770	0.816465
	N267	N	0.544893	0.922972	0.817018
	N268	N	0.921775	0.185405	0.457327
	N269	N	0.090799	0.182488	0.532602
	N270	N	0.092131	0.831440	0.457041
	N271	N	0.923349	0.830741	0.532305
	N272	N	0.186875	0.471298	0.908158
	N273	N	0.187326	0.544827	0.081723
	N274	N	0.828272	0.470718	0.082088
	N275	N	0.829029	0.545061	0.908714
	O276	O	-0.481759	-0.493394	1.423398
	H277	H	-0.479148	-0.490901	1.425561
	H278	H	-0.487741	-0.497444	1.424677
	O279	O	0.520333	0.513677	0.447791
	H280	H	0.521521	0.512680	0.455516
	H281	H	0.528173	0.516256	0.448464
	O282	O	0.496089	0.522143	0.461059
	H283	H	0.491165	0.524983	0.460775
	H284	H	0.488193	0.521631	0.451753
	O285	O	0.513182	0.496657	0.443979
	H286	H	0.510706	0.495948	0.437145
	H287	H	0.520636	0.494087	0.442028
	O288	O	0.456815	0.501475	0.411975
	H289	H	0.456455	0.509389	0.413329
	H290	H	0.459102	0.492386	0.401009
	O291	O	-0.471022	0.537701	1.420561
	H292	H	-0.466578	0.541981	1.428428
	H293	H	-0.472997	0.533403	1.415756
	O294	O	0.498883	0.528919	0.435703
	H295	H	0.498808	0.532249	0.437650
	H296	H	0.501144	0.531461	0.437854
	O297	O	0.966644	0.020541	0.023226
	H298	H	0.967495	0.019986	0.026531
	H299	H	0.966578	0.021246	0.023729
