data_Molecule from HDF5

_cell_length_a		16.552791
_cell_length_b		16.530173
_cell_length_c		16.463465
_cell_angle_alpha	90.064549
_cell_angle_beta	90.001435
_cell_angle_gamma	89.897780
_symmetry_space_group_name_H-M	'P 1'
_symmetry_Int_Tables_number		1

loop_
	_symmetry_equiv_pos_as_xyz
	x,y,z

loop_
	_atom_site_label
	_atom_site_type_symbol
	_atom_site_fract_x
	_atom_site_fract_y
	_atom_site_fract_z
	H0	H	0.379709	0.854395	0.714005
	H1	H	0.584639	0.169693	0.720786
	H2	H	0.581884	0.854002	0.279440
	H3	H	0.374482	0.171415	0.277809
	H4	H	0.701467	0.405786	0.841461
	H5	H	0.699541	0.618356	0.155764
	H6	H	0.259942	0.613623	0.839372
	H7	H	0.259631	0.409936	0.157984
	H8	H	0.822432	0.737515	0.390599
	H9	H	0.136028	0.732793	0.602692
	H10	H	0.821999	0.290704	0.605361
	H11	H	0.136130	0.292752	0.395066
	H12	H	0.821198	0.407594	0.721247
	H13	H	0.136064	0.615821	0.718450
	H14	H	0.821504	0.619603	0.275893
	H15	H	0.137391	0.410396	0.280274
	H16	H	0.376918	0.730416	0.839388
	H17	H	0.582612	0.733574	0.156696
	H18	H	0.586166	0.288351	0.842193
	H19	H	0.375779	0.292989	0.157228
	H20	H	0.699119	0.854972	0.394874
	H21	H	0.701200	0.169987	0.604659
	H22	H	0.261865	0.855089	0.599103
	H23	H	0.254917	0.169606	0.390551
	H24	H	0.873394	0.356413	0.220809
	H25	H	0.079100	0.670683	0.216079
	H26	H	0.084677	0.355316	0.775351
	H27	H	0.875303	0.670618	0.779355
	H28	H	0.200408	0.907871	0.341534
	H29	H	0.199954	0.116807	0.657329
	H30	H	0.758133	0.117888	0.341360
	H31	H	0.757456	0.909222	0.656236
	H32	H	0.322918	0.237557	0.889784
	H33	H	0.632196	0.237572	0.106897
	H34	H	0.319285	0.796214	0.098746
	H35	H	0.634247	0.788048	0.890834
	H36	H	0.319811	0.912547	0.216077
	H37	H	0.635286	0.117331	0.219495
	H38	H	0.322781	0.120266	0.774083
	H39	H	0.635991	0.906544	0.776064
	H40	H	0.875410	0.234011	0.341192
	H41	H	0.083683	0.234113	0.657651
	H42	H	0.083477	0.791918	0.341518
	H43	H	0.874684	0.792445	0.656582
	H44	H	0.201542	0.354879	0.890273
	H45	H	0.197259	0.669977	0.100682
	H46	H	0.755119	0.357809	0.105728
	H47	H	0.756958	0.669754	0.894357
	H48	H	0.389039	0.128277	0.591746
	H49	H	0.562654	0.903434	0.587551
	H50	H	0.565729	0.126012	0.404776
	H51	H	0.384152	0.899292	0.407793
	H52	H	0.566278	0.432325	0.107097
	H53	H	0.568397	0.588745	0.889208
	H54	H	0.382439	0.599747	0.112808
	H55	H	0.392775	0.424244	0.886996
	H56	H	0.092500	0.609068	0.408540
	H57	H	0.865895	0.600893	0.591545
	H58	H	0.090169	0.415694	0.579211
	H59	H	0.868709	0.428697	0.411030
	H60	H	0.085350	0.434710	0.585248
	H61	H	0.865325	0.606607	0.587761
	H62	H	0.087349	0.600132	0.414076
	H63	H	0.864873	0.423212	0.404911
	H64	H	0.392329	0.603088	0.110028
	H65	H	0.555833	0.605602	0.888283
	H66	H	0.559356	0.421463	0.108608
	H67	H	0.389363	0.421878	0.884419
	H68	H	0.567032	0.123712	0.412497
	H69	H	0.569806	0.902977	0.580647
	H70	H	0.394594	0.124267	0.584137
	H71	H	0.392773	0.900876	0.404819
	H72	H	0.886712	0.624068	0.080879
	H73	H	0.068777	0.397386	0.093474
	H74	H	0.062832	0.622050	0.909392
	H75	H	0.890045	0.402403	0.916749
	H76	H	0.072376	0.921842	0.613544
	H77	H	0.067803	0.101375	0.387198
	H78	H	0.892316	0.102433	0.610631
	H79	H	0.887666	0.924072	0.384745
	H80	H	0.587470	0.098770	0.914625
	H81	H	0.366461	0.099405	0.090144
	H82	H	0.591020	0.919766	0.087441
	H83	H	0.369287	0.924074	0.912378
	H84	H	0.590521	0.923370	0.087375
	H85	H	0.365454	0.104852	0.087387
	H86	H	0.589096	0.096802	0.909186
	H87	H	0.365539	0.926053	0.900711
	H88	H	0.889166	0.102797	0.611987
	H89	H	0.066353	0.103450	0.386774
	H90	H	0.069034	0.927443	0.611319
	H91	H	0.891011	0.927437	0.386475
	H92	H	0.073182	0.624127	0.914534
	H93	H	0.066687	0.399360	0.087139
	H94	H	0.885845	0.627949	0.093017
	H95	H	0.886164	0.398451	0.907539
	H96	H	0.384481	0.126267	0.582822
	H97	H	0.570935	0.898677	0.589712
	H98	H	0.573142	0.127191	0.408525
	H99	H	0.389840	0.903038	0.412917
	H100	H	0.571673	0.422321	0.113275
	H101	H	0.575694	0.606808	0.880886
	H102	H	0.385447	0.610503	0.114799
	H103	H	0.388250	0.425825	0.886678
	H104	H	0.091033	0.598742	0.402976
	H105	H	0.867542	0.600677	0.584774
	H106	H	0.094646	0.421729	0.598332
	H107	H	0.866306	0.420280	0.413225
	H108	H	0.896976	0.623644	0.088446
	H109	H	0.073398	0.397583	0.088575
	H110	H	0.071594	0.627058	0.903503
	H111	H	0.895714	0.401981	0.907704
	H112	H	0.065863	0.921176	0.611826
	H113	H	0.068874	0.103370	0.385876
	H114	H	0.889420	0.099851	0.610944
	H115	H	0.892541	0.922969	0.386544
	H116	H	0.589782	0.102885	0.910770
	H117	H	0.367754	0.100125	0.084240
	H118	H	0.592709	0.921664	0.090344
	H119	H	0.363781	0.915412	0.906226
	C120	C	0.358727	0.021867	0.618098
	C121	C	0.600774	1.004728	0.619388
	C122	C	0.600396	0.021379	0.376781
	C123	C	0.357112	1.005200	0.376879
	C124	C	0.599810	0.390988	0.006905
	C125	C	0.598534	0.633171	0.990392
	C126	C	0.356439	0.634320	0.007169
	C127	C	0.358129	0.391973	0.990702
	C128	C	-0.013231	0.635077	0.376290
	C129	C	0.970172	0.633952	0.619637
	C130	C	-0.013373	0.391661	0.620485
	C131	C	0.970637	0.392294	0.378021
	C132	C	0.857069	0.521603	0.120273
	C133	C	0.099698	0.503270	0.119942
	C134	C	0.100685	0.520277	0.876940
	C135	C	0.857835	0.504533	0.878221
	C136	C	0.100428	0.891822	0.507582
	C137	C	0.100192	0.134558	0.491107
	C138	C	0.857886	0.134383	0.507308
	C139	C	0.857984	0.892355	0.490109
	C140	C	0.486134	0.133359	0.877669
	C141	C	0.469551	0.134265	0.120235
	C142	C	0.486617	0.891725	0.119042
	C143	C	0.470218	0.890131	0.875335
	C144	C	0.359435	0.902107	0.675665
	C145	C	0.603125	0.122901	0.680271
	C146	C	0.601064	0.901968	0.318623
	C147	C	0.355837	0.123929	0.317419
	C148	C	0.661270	0.387485	0.888934
	C149	C	0.659100	0.636258	0.108776
	C150	C	0.298998	0.633357	0.887112
	C151	C	0.299187	0.390973	0.110231
	C152	C	0.869325	0.696436	0.373246
	C153	C	0.088654	0.693021	0.621019
	C154	C	0.868660	0.331302	0.623427
	C155	C	0.089064	0.332550	0.376372
	C156	C	0.868273	0.389534	0.680887
	C157	C	0.088883	0.634726	0.678673
	C158	C	0.868784	0.637791	0.315969
	C159	C	0.089455	0.391039	0.319072
	C160	C	0.356860	0.691388	0.887078
	C161	C	0.601000	0.693709	0.109024
	C162	C	0.603919	0.329142	0.889110
	C163	C	0.356935	0.332955	0.110123
	C164	C	0.659492	0.902264	0.375854
	C165	C	0.661033	0.122846	0.622615
	C166	C	0.300997	0.902365	0.618500
	C167	C	0.296180	0.122995	0.373435
	C168	C	0.854374	0.403582	0.180959
	C169	C	0.099327	0.623011	0.177341
	C170	C	0.102886	0.402368	0.815667
	C171	C	0.856180	0.623187	0.818937
	C172	C	0.160198	0.889511	0.388914
	C173	C	0.159743	0.135639	0.610037
	C174	C	0.798241	0.136417	0.388405
	C175	C	0.797936	0.890389	0.609185
	C176	C	0.369420	0.195926	0.873120
	C177	C	0.586259	0.196063	0.124183
	C178	C	0.366920	0.835120	0.118278
	C179	C	0.587685	0.829065	0.872967
	C180	C	0.367173	0.892921	0.176593
	C181	C	0.587627	0.136636	0.180333
	C182	C	0.369353	0.137813	0.815102
	C183	C	0.588429	0.888056	0.815855
	C184	C	0.856517	0.193982	0.388520
	C185	C	0.101897	0.193907	0.610245
	C186	C	0.102122	0.831879	0.388807
	C187	C	0.855774	0.832292	0.609207
	C188	C	0.161039	0.402112	0.873042
	C189	C	0.157789	0.622515	0.119927
	C190	C	0.795920	0.404196	0.123762
	C191	C	0.797565	0.622811	0.876167
	C192	C	0.382566	0.104579	0.593424
	C193	C	0.575307	0.922987	0.593287
	C194	C	0.575776	0.104041	0.401502
	C195	C	0.381768	0.922583	0.401728
	C196	C	0.573225	0.417558	0.088332
	C197	C	0.573622	0.607798	0.907728
	C198	C	0.379951	0.611163	0.090887
	C199	C	0.382970	0.416927	0.907734
	C200	C	0.068896	0.609770	0.401451
	C201	C	0.887686	0.609568	0.595090
	C202	C	0.068641	0.416726	0.594877
	C203	C	0.888017	0.417076	0.402704
	C204	C	0.882562	0.603864	0.094678
	C205	C	0.076425	0.419863	0.096510
	C206	C	0.076087	0.602959	0.901947
	C207	C	0.883227	0.422198	0.903452
	C208	C	0.076110	0.916460	0.590710
	C209	C	0.074938	0.109833	0.407928
	C210	C	0.882847	0.108863	0.589871
	C211	C	0.883007	0.917630	0.407506
	C212	C	0.567686	0.106958	0.904169
	C213	C	0.387762	0.108702	0.094459
	C214	C	0.569730	0.914862	0.095272
	C215	C	0.387519	0.914847	0.899568
	Zn216	Zn	0.479375	0.013235	0.747499
	Zn217	Zn	0.478592	0.012926	0.248498
	Zn218	Zn	0.728082	0.512757	-0.001310
	Zn219	Zn	0.228746	0.511383	-0.001834
	Zn220	Zn	-0.021139	0.763635	0.498414
	Zn221	Zn	-0.021365	0.263149	0.499525
	Zn222	Zn	-0.021392	0.512287	0.749032
	Zn223	Zn	-0.021722	0.512466	0.248527
	Zn224	Zn	0.478543	0.762153	-0.001833
	Zn225	Zn	0.478167	0.262756	-0.001461
	Zn226	Zn	0.729358	0.013352	0.498343
	Zn227	Zn	0.228780	0.013510	0.498364
	N228	N	0.394413	0.977453	0.675678
	N229	N	0.566341	0.048405	0.678439
	N230	N	0.565388	0.977030	0.318755
	N231	N	0.393072	0.049645	0.319439
	N232	N	0.658994	0.425233	0.963250
	N233	N	0.657596	0.599167	0.034144
	N234	N	0.298333	0.598861	0.962883
	N235	N	0.299709	0.426531	0.034876
	N236	N	0.943660	0.694908	0.410004
	N237	N	0.013755	0.692967	0.585360
	N238	N	0.943152	0.332456	0.586530
	N239	N	0.014096	0.332883	0.412189
	N240	N	0.942493	0.426341	0.679024
	N241	N	0.014193	0.598745	0.678080
	N242	N	0.942816	0.600215	0.317710
	N243	N	0.014624	0.427155	0.319766
	N244	N	0.391534	0.692345	0.962913
	N245	N	0.564064	0.691779	0.034319
	N246	N	0.566490	0.331090	0.963504
	N247	N	0.392413	0.333195	0.034598
	N248	N	0.659425	0.977640	0.411218
	N249	N	0.659789	0.048443	0.585653
	N250	N	0.300004	0.978000	0.584026
	N251	N	0.296670	0.048065	0.409511
	N252	N	0.891406	0.477772	0.179009
	N253	N	0.064087	0.547773	0.177487
	N254	N	0.065996	0.476894	0.817957
	N255	N	0.892724	0.548491	0.820025
	N256	N	0.159240	0.925913	0.463879
	N257	N	0.158734	0.099743	0.534773
	N258	N	0.798993	0.100111	0.463292
	N259	N	0.799116	0.926727	0.534276
	N260	N	0.442963	0.192976	0.911468
	N261	N	0.511963	0.194597	0.087426
	N262	N	0.442252	0.834227	0.083206
	N263	N	0.513230	0.830489	0.909438
	N264	N	0.442806	0.927016	0.177464
	N265	N	0.514127	0.098764	0.177837
	N266	N	0.442791	0.099184	0.818164
	N267	N	0.514413	0.925516	0.817288
	N268	N	0.892706	0.192731	0.463432
	N269	N	0.065728	0.193356	0.535088
	N270	N	0.065695	0.833095	0.463792
	N271	N	0.892192	0.833289	0.534165
	N272	N	0.159756	0.476400	0.910441
	N273	N	0.158297	0.546914	0.085045
	N274	N	0.797375	0.478654	0.086878
	N275	N	0.798255	0.547810	0.911988
	O276	O	0.932865	0.841365	-0.027948
	H277	H	0.938075	0.836717	-0.056158
	H278	H	0.948397	0.836290	-0.014678
	O279	O	0.165545	-0.179085	1.186037
	H280	H	0.145833	-0.158503	1.170107
	H281	H	0.144542	-0.162813	1.169265
	O282	O	0.462629	0.472823	0.284671
	H283	H	0.479087	0.492623	0.285809
	H284	H	0.466109	0.499298	0.282693
	O285	O	0.289273	0.318754	0.689593
	H286	H	0.325518	0.328836	0.693104
	H287	H	0.290110	0.339356	0.704524
	O288	O	0.760083	-0.022572	1.215631
	H289	H	0.750278	-0.015096	1.227264
	H290	H	0.745279	-0.030592	1.218157
	O291	O	0.262818	0.301904	0.516765
	H292	H	0.276034	0.312661	0.564368
	H293	H	0.232488	0.271200	0.523682
	O294	O	0.039325	0.044408	-0.213738
	H295	H	0.057602	0.047405	-0.202806
	H296	H	0.050843	0.051505	-0.207855
	O297	O	1.178111	0.203732	0.190620
	H298	H	1.163933	0.214970	0.207707
	H299	H	1.190106	0.162318	0.204881
	O300	O	-0.253012	-0.014258	-0.017938
	H301	H	-0.255995	-0.009747	-0.055297
	H302	H	-0.245800	0.010516	-0.005058
	O303	O	0.029505	-0.035427	0.222680
	H304	H	0.001467	-0.024411	0.225188
	H305	H	0.002222	-0.050137	0.210250
	O306	O	0.799759	-0.172758	-0.184819
	H307	H	0.822260	-0.159948	-0.173402
	H308	H	0.804693	-0.158630	-0.171496
	O309	O	0.261802	0.558599	0.284979
	H310	H	0.266653	0.531707	0.287058
	H311	H	0.243992	0.542783	0.280893
	O312	O	0.012975	0.227640	0.214850
	H313	H	0.016388	0.235672	0.211853
	H314	H	0.011043	0.246738	0.228860
	O315	O	0.553975	0.457291	0.684686
	H316	H	0.568682	0.462697	0.676347
	H317	H	0.562883	0.447159	0.677303
	O318	O	1.197963	0.792796	-0.035680
	H319	H	1.203034	0.791110	-0.074492
	H320	H	1.223678	0.776579	-0.045617
	O321	O	-0.203608	1.019679	0.792065
	H322	H	-0.174807	1.005585	0.779699
	H323	H	-0.200761	1.019387	0.769790
	O324	O	0.871189	0.055477	1.065341
	H325	H	0.870697	0.046030	1.064374
	H326	H	0.859516	0.048363	1.054576
	O327	O	0.541178	0.543798	0.329382
	H328	H	0.534741	0.566931	0.314766
	H329	H	0.548375	0.548908	0.331648
	O330	O	0.272761	0.724536	0.290858
	H331	H	0.236673	0.752064	0.256616
	H332	H	0.264436	0.669470	0.284225
	O333	O	0.504330	0.311157	0.311943
	H334	H	0.489632	0.318241	0.314215
	H335	H	0.492356	0.312755	0.304023
	O336	O	0.782552	0.176191	0.798355
	H337	H	0.819832	0.176353	0.796686
	H338	H	0.782916	0.135352	0.796386
	O339	O	0.456766	0.344348	0.698154
	H340	H	0.469670	0.334970	0.703976
	H341	H	0.477016	0.340869	0.690286
	O342	O	-0.081807	0.987138	-0.180261
	H343	H	-0.053057	0.994203	-0.182375
	H344	H	-0.066276	0.967420	-0.171085
	O345	O	0.272089	0.485121	0.701793
	H346	H	0.264733	0.495226	0.710642
	H347	H	0.262306	0.493957	0.686001
	O348	O	0.788089	0.815168	0.193255
	H349	H	0.782199	0.812523	0.147006
	H350	H	0.790531	0.832955	0.202335
	O351	O	-0.093599	0.071632	1.021427
	H352	H	-0.100477	0.068783	1.020183
	H353	H	-0.082076	0.064839	1.012466
	O354	O	0.940658	0.219603	0.807428
	H355	H	0.956968	0.218049	0.814927
	H356	H	0.943295	0.227418	0.805464
	O357	O	0.698957	0.545393	0.715714
	H358	H	0.693799	0.561434	0.710868
	H359	H	0.722695	0.552345	0.742941
	O360	O	0.682131	0.313817	0.339526
	H361	H	0.657140	0.319596	0.337481
	H362	H	0.682650	0.330872	0.340170
	O363	O	0.662982	0.478772	0.461669
	H364	H	0.677771	0.497173	0.478833
	H365	H	0.664384	0.497661	0.456243
	O366	O	1.006160	-0.203584	1.014212
	H367	H	1.034239	-0.212206	0.993978
	H368	H	1.006485	-0.198274	1.020752
	O369	O	0.187965	-0.195351	0.789294
	H370	H	0.222565	-0.224469	0.754927
	H371	H	0.196274	-0.140302	0.780737
	O372	O	-0.028643	1.167859	1.049779
	H373	H	-0.039238	1.169183	1.068525
	H374	H	-0.048535	1.158961	1.049148
	O375	O	1.105497	-0.023264	-0.051351
	H376	H	1.103803	-0.012570	-0.031877
	H377	H	1.095278	-0.036913	-0.042422
	O378	O	0.864828	0.053522	1.059073
	H379	H	0.872286	0.050664	1.076952
	H380	H	0.865111	0.084496	1.067713
	O381	O	-0.002356	1.153920	-0.114133
	H382	H	-0.001022	1.156484	-0.115827
	H383	H	-0.015571	1.155215	-0.109151
	O384	O	0.288957	0.483073	-0.541652
	H385	H	0.286234	0.454787	-0.534514
	H386	H	0.300316	0.490500	-0.546359
	O387	O	-0.234544	0.815697	1.017220
	H388	H	-0.229949	0.806153	0.997198
	H389	H	-0.245387	0.822984	1.002694
	O390	O	0.173208	0.933553	1.043996
	H391	H	0.181761	0.922741	1.033176
	H392	H	0.175904	0.953659	1.036853
	O393	O	0.757429	0.231110	-0.060672
	H394	H	0.734698	0.238530	-0.077957
	H395	H	0.755643	0.235401	-0.096701
	O396	O	0.290401	0.702751	0.685205
	H397	H	0.321070	0.685480	0.676129
	H398	H	0.299795	0.682955	0.657479
	O399	O	0.433319	0.547972	0.447584
	H400	H	0.444449	0.554265	0.434169
	H401	H	0.444542	0.524014	0.462008
	O402	O	1.685810	0.306513	0.518974
	H403	H	1.685454	0.316036	0.505030
	H404	H	1.701565	0.309474	0.511643
	O405	O	0.498022	0.722906	0.691746
	H406	H	0.501552	0.739745	0.703053
	H407	H	0.507429	0.711900	0.686810
	O408	O	1.186889	1.117658	0.889389
	H409	H	1.186470	1.130923	0.897544
	H410	H	1.195855	1.130084	0.913775
	O411	O	0.325249	0.498511	0.508970
	H412	H	0.334991	0.502591	0.507961
	H413	H	0.320624	0.485272	0.505659
	O414	O	-0.038749	-0.194823	0.213471
	H415	H	-0.052390	-0.186069	0.195817
	H416	H	-0.054058	-0.220492	0.234110
	O417	O	0.620066	0.653987	0.335257
	H418	H	0.620043	0.649037	0.352164
	H419	H	0.611897	0.665518	0.328110
	O420	O	1.193543	-0.027369	0.783488
	H421	H	1.188252	-0.005406	0.810593
	H422	H	1.218012	-0.011664	0.767821
	O423	O	1.442859	0.737612	0.281814
	H424	H	1.425943	0.745669	0.272610
	H425	H	1.410641	0.752263	0.266408
	O426	O	0.430161	0.606966	0.695543
	H427	H	0.427626	0.601028	0.710062
	H428	H	0.450249	0.600227	0.681825
	O429	O	0.333811	0.320606	0.360515
	H430	H	0.347466	0.322441	0.367524
	H431	H	0.339574	0.326044	0.389267
	O432	O	1.568793	0.307332	0.612185
	H433	H	1.594489	0.320262	0.591732
	H434	H	1.583808	0.290482	0.625370
	O435	O	0.605414	0.415298	0.392305
	H436	H	0.617133	0.405215	0.374594
	H437	H	0.621158	0.409818	0.389430
	O438	O	0.436069	0.359565	0.502088
	H439	H	0.441206	0.350771	0.507785
	H440	H	0.425549	0.357890	0.518045
	O441	O	0.363975	0.624328	0.509238
	H442	H	0.364182	0.640108	0.487585
	H443	H	0.354191	0.617458	0.494401
	O444	O	0.620029	0.558361	0.498440
	H445	H	0.619050	0.562865	0.489287
	H446	H	0.602242	0.562768	0.501999
	O447	O	1.043658	0.229962	0.944188
	H448	H	1.055437	0.228189	0.959085
	H449	H	1.041398	0.234723	0.961293
	O450	O	1.699816	0.728613	0.528920
	H451	H	1.706206	0.729932	0.515922
	H452	H	1.712054	0.741576	0.545241
	O453	O	0.199818	0.233725	0.027924
	H454	H	0.202755	0.236841	0.057584
	H455	H	0.217519	0.253902	0.045971
	O456	O	0.181554	1.032635	1.205597
	H457	H	0.181958	1.024648	1.234859
	H458	H	0.161358	1.010259	1.193777
	O459	O	0.276070	0.726070	0.467872
	H460	H	0.269879	0.740239	0.453608
	H461	H	0.271947	0.740233	0.438225
	O462	O	0.681800	0.712012	0.699782
	H463	H	0.660949	0.718967	0.673112
	H464	H	0.705602	0.717842	0.722739
	O465	O	0.765607	0.224069	0.208572
	H466	H	0.763571	0.223696	0.182478
	H467	H	0.752958	0.234431	0.218012
	O468	O	0.535392	0.727530	0.471678
	H469	H	0.545611	0.733381	0.464015
	H470	H	0.522968	0.729156	0.469948
	O471	O	1.015932	0.793040	-0.216218
	H472	H	1.038955	0.776468	-0.236533
	H473	H	1.045446	0.786374	-0.223679
	O474	O	1.922469	1.072340	1.206592
	H475	H	1.906143	1.078027	1.199177
	H476	H	1.917459	1.093176	1.199472
	O477	O	0.650259	0.505061	0.549978
	H478	H	0.656436	0.519673	0.554367
	H479	H	0.641214	0.524494	0.549842
