data_Molecule from HDF5

_cell_length_a		16.721268
_cell_length_b		16.647039
_cell_length_c		16.510808
_cell_angle_alpha	89.797692
_cell_angle_beta	90.133545
_cell_angle_gamma	89.896747
_symmetry_space_group_name_H-M	'P 1'
_symmetry_Int_Tables_number		1

loop_
	_symmetry_equiv_pos_as_xyz
	x,y,z

loop_
	_atom_site_label
	_atom_site_type_symbol
	_atom_site_fract_x
	_atom_site_fract_y
	_atom_site_fract_z
	H0	H	0.380946	0.829955	0.721281
	H1	H	0.596380	0.137770	0.725274
	H2	H	0.587879	0.830730	0.279351
	H3	H	0.380590	0.141220	0.278000
	H4	H	0.705587	0.380026	0.842443
	H5	H	0.707080	0.589898	0.153965
	H6	H	0.263270	0.591684	0.843188
	H7	H	0.264322	0.378452	0.154538
	H8	H	0.831536	0.707242	0.389622
	H9	H	0.139190	0.706899	0.604597
	H10	H	0.835644	0.253939	0.611635
	H11	H	0.139262	0.260427	0.389426
	H12	H	0.834290	0.371830	0.725036
	H13	H	0.137818	0.592300	0.722965
	H14	H	0.830774	0.588310	0.276429
	H15	H	0.140505	0.380696	0.276509
	H16	H	0.379608	0.706487	0.842762
	H17	H	0.587494	0.701654	0.156594
	H18	H	0.587796	0.266742	0.841278
	H19	H	0.379025	0.262031	0.153874
	H20	H	0.706785	0.831080	0.392561
	H21	H	0.716093	0.134622	0.613817
	H22	H	0.263348	0.829515	0.606372
	H23	H	0.263548	0.140568	0.393719
	H24	H	0.881310	0.329425	0.218608
	H25	H	0.089497	0.640007	0.218432
	H26	H	0.093863	0.331146	0.773043
	H27	H	0.879961	0.638134	0.774017
	H28	H	0.204676	0.880744	0.340384
	H29	H	0.206461	0.089418	0.653887
	H30	H	0.761723	0.092776	0.343333
	H31	H	0.762452	0.875081	0.652513
	H32	H	0.332203	0.209898	0.889513
	H33	H	0.638995	0.209099	0.106450
	H34	H	0.329899	0.764887	0.103960
	H35	H	0.639551	0.762292	0.892996
	H36	H	0.328865	0.884142	0.217263
	H37	H	0.638581	0.093061	0.222786
	H38	H	0.330648	0.089887	0.776945
	H39	H	0.638289	0.877118	0.774257
	H40	H	0.877519	0.207833	0.342797
	H41	H	0.092985	0.207863	0.651582
	H42	H	0.087674	0.766943	0.338822
	H43	H	0.880325	0.761250	0.652704
	H44	H	0.209809	0.330084	0.889593
	H45	H	0.209776	0.637549	0.106691
	H46	H	0.762243	0.330868	0.105830
	H47	H	0.762209	0.638340	0.889089
	H48	H	0.394637	0.093351	0.578498
	H49	H	0.572566	0.876542	0.582754
	H50	H	0.577678	0.096592	0.414808
	H51	H	0.399333	0.874289	0.408114
	H52	H	0.573627	0.392838	0.112705
	H53	H	0.577309	0.575034	0.884260
	H54	H	0.406379	0.569359	0.107146
	H55	H	0.397930	0.399345	0.887007
	H56	H	0.098296	0.576128	0.406201
	H57	H	0.875693	0.575261	0.580213
	H58	H	0.092506	0.401988	0.584238
	H59	H	0.875829	0.394756	0.413567
	H60	H	0.096254	0.394515	0.585516
	H61	H	0.876808	0.568335	0.584122
	H62	H	0.097631	0.576491	0.407513
	H63	H	0.876149	0.399141	0.407294
	H64	H	0.394937	0.586001	0.116127
	H65	H	0.571919	0.570383	0.887137
	H66	H	0.578432	0.400120	0.110586
	H67	H	0.397278	0.396443	0.886836
	H68	H	0.574711	0.098857	0.408065
	H69	H	0.572010	0.875973	0.585406
	H70	H	0.388749	0.099797	0.589359
	H71	H	0.391433	0.873814	0.413648
	H72	H	0.896955	0.595115	0.083522
	H73	H	0.075904	0.373873	0.085702
	H74	H	0.077016	0.597119	0.906575
	H75	H	0.892222	0.371659	0.911610
	H76	H	0.070530	0.895758	0.607565
	H77	H	0.074041	0.067652	0.386701
	H78	H	0.906552	0.061707	0.603351
	H79	H	0.895991	0.898506	0.385550
	H80	H	0.596558	0.077375	0.912539
	H81	H	0.377242	0.071471	0.082460
	H82	H	0.597092	0.892428	0.090267
	H83	H	0.371937	0.892500	0.906477
	H84	H	0.596609	0.892825	0.088211
	H85	H	0.374755	0.072919	0.089440
	H86	H	0.593653	0.071828	0.915748
	H87	H	0.376528	0.893623	0.916011
	H88	H	0.905473	0.076025	0.609523
	H89	H	0.069735	0.074936	0.386249
	H90	H	0.076058	0.889434	0.612477
	H91	H	0.896754	0.895769	0.385356
	H92	H	0.065052	0.592007	0.911050
	H93	H	0.073725	0.373246	0.087015
	H94	H	0.893799	0.596435	0.083921
	H95	H	0.897999	0.372551	0.908746
	H96	H	0.401580	0.094649	0.590500
	H97	H	0.570510	0.877123	0.583867
	H98	H	0.570493	0.095464	0.413249
	H99	H	0.391342	0.871655	0.404316
	H100	H	0.569872	0.399655	0.108033
	H101	H	0.570247	0.577189	0.885386
	H102	H	0.385133	0.566496	0.112707
	H103	H	0.395376	0.398643	0.886779
	H104	H	0.098082	0.575148	0.406582
	H105	H	0.873468	0.574161	0.587637
	H106	H	0.092179	0.396111	0.578254
	H107	H	0.873570	0.392059	0.407069
	H108	H	0.896110	0.596094	0.086659
	H109	H	0.074051	0.374000	0.084505
	H110	H	0.076202	0.592153	0.919298
	H111	H	0.897219	0.375114	0.915066
	H112	H	0.079689	0.897722	0.609841
	H113	H	0.077607	0.074138	0.382781
	H114	H	0.893521	0.066044	0.609922
	H115	H	0.894090	0.896180	0.385668
	H116	H	0.596108	0.071256	0.909667
	H117	H	0.374030	0.078078	0.083943
	H118	H	0.596894	0.894468	0.089402
	H119	H	0.376170	0.901583	0.908811
	C120	C	0.363127	-0.006834	0.619715
	C121	C	0.606810	0.977010	0.619600
	C122	C	0.606540	-0.005280	0.378222
	C123	C	0.363027	0.976663	0.377263
	C124	C	0.605621	0.365290	0.006951
	C125	C	0.605542	0.605724	0.989554
	C126	C	0.363412	0.606133	0.008078
	C127	C	0.364520	0.364592	0.989928
	C128	C	-0.005212	0.607197	0.374802
	C129	C	0.976732	0.605485	0.618361
	C130	C	-0.006400	0.362313	0.618624
	C131	C	0.977201	0.362986	0.376368
	C132	C	0.863816	0.493447	0.118122
	C133	C	0.106852	0.475759	0.119097
	C134	C	0.106516	0.492177	0.877874
	C135	C	0.863477	0.475152	0.876932
	C136	C	0.106600	0.863273	0.505732
	C137	C	0.106452	0.104748	0.488565
	C138	C	0.866239	0.103933	0.505970
	C139	C	0.863785	0.863173	0.488540
	C140	C	0.493875	0.106515	0.877624
	C141	C	0.476956	0.107241	0.119402
	C142	C	0.493379	0.863600	0.120522
	C143	C	0.476733	0.863145	0.877277
	C144	C	0.362098	0.876423	0.680945
	C145	C	0.613288	0.091338	0.684175
	C146	C	0.607431	0.877763	0.318476
	C147	C	0.361862	0.094499	0.318174
	C148	C	0.665251	0.362520	0.889157
	C149	C	0.666165	0.607803	0.107262
	C150	C	0.303371	0.609238	0.890114
	C151	C	0.304284	0.360835	0.107482
	C152	C	0.877930	0.666698	0.372299
	C153	C	0.092576	0.666653	0.622661
	C154	C	0.880854	0.296768	0.626681
	C155	C	0.093031	0.301562	0.372294
	C156	C	0.880059	0.355673	0.683303
	C157	C	0.092099	0.609214	0.681215
	C158	C	0.877428	0.607752	0.315767
	C159	C	0.093839	0.361189	0.316047
	C160	C	0.361129	0.666434	0.890016
	C161	C	0.606897	0.663574	0.108484
	C162	C	0.606660	0.306306	0.888595
	C163	C	0.361411	0.302856	0.107126
	C164	C	0.666456	0.877946	0.374950
	C165	C	0.672633	0.090141	0.628321
	C166	C	0.303794	0.876208	0.623567
	C167	C	0.303680	0.094021	0.375563
	C168	C	0.862351	0.376451	0.179052
	C169	C	0.108779	0.592906	0.179180
	C170	C	0.111083	0.376795	0.814860
	C171	C	0.861305	0.591533	0.814566
	C172	C	0.165039	0.862299	0.387322
	C173	C	0.166563	0.107605	0.606604
	C174	C	0.803000	0.109649	0.389882
	C175	C	0.803418	0.858426	0.605821
	C176	C	0.378434	0.168725	0.872263
	C177	C	0.592690	0.168503	0.123875
	C178	C	0.376253	0.805034	0.121871
	C179	C	0.592917	0.802223	0.874313
	C180	C	0.375895	0.864252	0.178229
	C181	C	0.592463	0.110787	0.181935
	C182	C	0.377725	0.108901	0.816395
	C183	C	0.592617	0.859795	0.815931
	C184	C	0.860871	0.166662	0.389337
	C185	C	0.110171	0.166309	0.605636
	C186	C	0.106749	0.805742	0.386782
	C187	C	0.862102	0.801941	0.605962
	C188	C	0.168933	0.376504	0.872525
	C189	C	0.168341	0.591780	0.123516
	C190	C	0.803141	0.377169	0.122799
	C191	C	0.803057	0.591790	0.871902
	C192	C	0.387952	0.074728	0.593655
	C193	C	0.579476	0.897301	0.591802
	C194	C	0.581494	0.075893	0.404558
	C195	C	0.387014	0.894756	0.401632
	C196	C	0.580852	0.390205	0.089031
	C197	C	0.580287	0.581159	0.907177
	C198	C	0.388425	0.581092	0.090449
	C199	C	0.389629	0.390886	0.907976
	C200	C	0.076700	0.582874	0.399669
	C201	C	0.896153	0.579781	0.591570
	C202	C	0.072950	0.390030	0.590599
	C203	C	0.896408	0.388064	0.402058
	C204	C	0.888565	0.574851	0.091974
	C205	C	0.081650	0.394678	0.093122
	C206	C	0.080237	0.572663	0.904728
	C207	C	0.888731	0.394103	0.903966
	C208	C	0.082487	0.887454	0.588366
	C209	C	0.080923	0.079405	0.406509
	C210	C	0.893896	0.076065	0.586695
	C211	C	0.888474	0.889367	0.406677
	C212	C	0.574539	0.080737	0.904878
	C213	C	0.396411	0.081477	0.093030
	C214	C	0.575454	0.886611	0.096279
	C215	C	0.395977	0.888569	0.903071
	Zn216	Zn	0.485950	-0.014638	0.748310
	Zn217	Zn	0.484618	-0.013737	0.249028
	Zn218	Zn	0.734149	0.485090	-0.002051
	Zn219	Zn	0.235633	0.484367	-0.001810
	Zn220	Zn	-0.014468	0.734966	0.496831
	Zn221	Zn	-0.014406	0.232976	0.497458
	Zn222	Zn	-0.014546	0.483383	0.748100
	Zn223	Zn	-0.014631	0.484664	0.247167
	Zn224	Zn	0.484599	0.734118	-0.000436
	Zn225	Zn	0.485459	0.236032	-0.001877
	Zn226	Zn	0.736044	-0.014566	0.499132
	Zn227	Zn	0.234725	-0.016168	0.498128
	N228	N	0.398397	0.950407	0.678681
	N229	N	0.572683	0.019981	0.678776
	N230	N	0.570951	0.951686	0.320058
	N231	N	0.398067	0.020510	0.318986
	N232	N	0.664805	0.398458	0.963839
	N233	N	0.665741	0.572879	0.032002
	N234	N	0.304421	0.572470	0.964698
	N235	N	0.306058	0.398524	0.033442
	N236	N	0.952072	0.666315	0.408235
	N237	N	0.019678	0.664812	0.584271
	N238	N	0.952639	0.300736	0.586936
	N239	N	0.019441	0.302293	0.408793
	N240	N	0.951262	0.395995	0.678327
	N241	N	0.018984	0.571908	0.678702
	N242	N	0.951165	0.571406	0.317170
	N243	N	0.020732	0.398705	0.318261
	N244	N	0.397603	0.664837	0.964558
	N245	N	0.570049	0.662792	0.033980
	N246	N	0.570346	0.307589	0.962939
	N247	N	0.397993	0.304932	0.032949
	N248	N	0.666182	0.951933	0.411193
	N249	N	0.668728	0.018127	0.588682
	N250	N	0.304070	0.950045	0.586445
	N251	N	0.304122	0.019726	0.411236
	N252	N	0.899539	0.449861	0.176468
	N253	N	0.071434	0.519629	0.176765
	N254	N	0.072860	0.449725	0.817974
	N255	N	0.898108	0.517801	0.817443
	N256	N	0.165474	0.897035	0.462567
	N257	N	0.164442	0.070048	0.532723
	N258	N	0.806275	0.071192	0.463451
	N259	N	0.804353	0.895906	0.531777
	N260	N	0.451808	0.167363	0.909618
	N261	N	0.519733	0.166652	0.085896
	N262	N	0.450494	0.804319	0.086718
	N263	N	0.519842	0.803960	0.911827
	N264	N	0.449838	0.899840	0.177735
	N265	N	0.519355	0.073335	0.179186
	N266	N	0.450722	0.071109	0.819362
	N267	N	0.519241	0.896847	0.817528
	N268	N	0.899528	0.163205	0.462722
	N269	N	0.073595	0.164625	0.531088
	N270	N	0.071165	0.805974	0.461497
	N271	N	0.898885	0.804595	0.531896
	N272	N	0.166360	0.449453	0.910839
	N273	N	0.167401	0.517971	0.086857
	N274	N	0.804052	0.450824	0.085468
	N275	N	0.804071	0.518336	0.909830
	O276	O	-0.236683	0.951504	0.215384
	H277	H	-0.241856	0.950369	0.227738
	H278	H	-0.243455	0.959525	0.215428
	O279	O	0.021386	1.200981	0.212015
	H280	H	0.028829	1.194986	0.213754
	H281	H	0.016793	1.212362	0.230350
	O282	O	1.112414	0.050732	1.023773
	H283	H	1.118584	0.055399	1.016809
	H284	H	1.114779	0.055433	1.009642
	O285	O	0.771261	0.200010	0.796491
	H286	H	0.740457	0.231852	0.762854
	H287	H	0.784501	0.204075	0.823394
	O288	O	0.734186	0.727029	0.248335
	H289	H	0.738337	0.749782	0.260907
	H290	H	0.740708	0.732572	0.204302
	O291	O	0.635472	0.309711	0.379358
	H292	H	0.659346	0.302385	0.347620
	H293	H	0.627285	0.339997	0.377254
	O294	O	0.945281	0.000141	0.901957
	H295	H	0.945355	0.010071	0.895742
	H296	H	0.948837	0.013660	0.908829
	O297	O	0.498608	0.487260	0.591774
	H298	H	0.510025	0.493920	0.589163
	H299	H	0.484536	0.490440	0.587009
	O300	O	-0.441585	-0.527563	1.648637
	H301	H	-0.454134	-0.509345	1.632521
	H302	H	-0.421058	-0.519612	1.645125
	O303	O	0.247084	0.425944	0.437232
	H304	H	0.241293	0.417929	0.450850
	H305	H	0.242810	0.450558	0.443127
	O306	O	0.755589	0.222023	0.226510
	H307	H	0.763817	0.234548	0.209822
	H308	H	0.786579	0.206517	0.201744
	O309	O	0.537216	0.508095	0.366877
	H310	H	0.537721	0.532699	0.368237
	H311	H	0.526563	0.515293	0.373470
	O312	O	0.374967	0.631943	0.295833
	H313	H	0.359954	0.640981	0.296575
	H314	H	0.354958	0.644628	0.273342
	O315	O	0.961278	1.039083	1.116918
	H316	H	0.967585	1.033301	1.109716
	H317	H	0.966030	1.026488	1.121795
	O318	O	0.468429	0.710997	0.565395
	H319	H	0.468539	0.694908	0.560080
	H320	H	0.441394	0.712949	0.561222
	O321	O	0.262167	0.459630	0.712286
	H322	H	0.243293	0.457589	0.742340
	H323	H	0.279704	0.440051	0.704635
	O324	O	1.450953	1.264497	-0.286838
	H325	H	1.470889	1.277060	-0.293345
	H326	H	1.453900	1.250860	-0.255141
	O327	O	-0.171973	-0.225891	0.841734
	H328	H	-0.158068	-0.206157	0.836856
	H329	H	-0.194772	-0.245446	0.829628
	O330	O	0.422215	0.257222	0.448747
	H331	H	0.438095	0.253634	0.452755
	H332	H	0.438957	0.256664	0.435531
	O333	O	0.453755	0.525761	0.647096
	H334	H	0.444435	0.516292	0.657747
	H335	H	0.449264	0.529110	0.633216
	O336	O	0.696805	0.466938	0.288604
	H337	H	0.691972	0.479877	0.284098
	H338	H	0.696152	0.481112	0.300830
	O339	O	1.147060	-0.033070	1.047960
	H340	H	1.143972	-0.036547	1.045365
	H341	H	1.154304	-0.021105	1.060831
	O342	O	-0.187351	-0.039103	-0.140270
	H343	H	-0.206556	-0.019203	-0.133365
	H344	H	-0.180635	-0.023875	-0.149525
	O345	O	0.001374	0.910796	1.182728
	H346	H	0.004855	0.917499	1.183740
	H347	H	0.013027	0.902015	1.173800
	O348	O	0.197678	0.200788	0.084841
	H349	H	0.230913	0.225418	0.094262
	H350	H	0.193674	0.192809	0.066640
	O351	O	0.263027	0.267002	0.528556
	H352	H	0.257829	0.261385	0.520699
	H353	H	0.267259	0.249333	0.524902
	O354	O	0.207041	-0.238495	0.972022
	H355	H	0.200710	-0.245701	0.962857
	H356	H	0.225836	-0.255783	0.957450
	O357	O	0.574165	0.678317	0.714895
	H358	H	0.559258	0.678668	0.701358
	H359	H	0.591390	0.697921	0.737495
	O360	O	0.957280	0.869506	0.099220
	H361	H	0.963519	0.882166	0.088572
	H362	H	0.969147	0.880640	0.100696
	O363	O	0.208697	0.017303	0.221253
	H364	H	0.230210	0.033194	0.235838
	H365	H	0.208336	0.052697	0.228370
	O366	O	0.728979	0.428955	0.554823
	H367	H	0.729927	0.424496	0.553410
	H368	H	0.733123	0.419873	0.555298
	O369	O	0.662807	0.474332	0.425713
	H370	H	0.664648	0.502090	0.420869
	H371	H	0.657863	0.474997	0.440981
	O372	O	1.133122	1.131308	-0.192820
	H373	H	1.143274	1.139822	-0.221760
	H374	H	1.112726	1.122417	-0.187616
	O375	O	0.749769	-0.078232	-0.044518
	H376	H	0.755610	-0.074562	-0.047599
	H377	H	0.743917	-0.083835	-0.050006
	O378	O	0.394814	0.398150	0.354165
	H379	H	0.378119	0.388339	0.355626
	H380	H	0.395257	0.389402	0.354261
	O381	O	-0.014887	1.195319	0.789942
	H382	H	-0.023419	1.223872	0.776881
	H383	H	-0.018472	1.154693	0.790675
	O384	O	1.158274	-0.188560	1.187337
	H385	H	1.148979	-0.170247	1.174720
	H386	H	1.148264	-0.177273	1.164281
	O387	O	1.010044	0.985722	-0.233354
	H388	H	1.011616	0.978239	-0.234242
	H389	H	1.008159	0.968547	-0.223181
	O390	O	0.636947	0.695218	0.357249
	H391	H	0.624841	0.681254	0.369777
	H392	H	0.656145	0.714537	0.330341
	O393	O	0.276916	0.455112	0.292029
	H394	H	0.274347	0.445595	0.293171
	H395	H	0.290720	0.446534	0.291381
	O396	O	0.057622	0.996505	0.928626
	H397	H	0.044315	1.010591	0.916901
	H398	H	0.073077	0.980694	0.938529
	O399	O	0.443064	0.408452	0.623293
	H400	H	0.456905	0.412525	0.620822
	H401	H	0.441246	0.411915	0.604174
	O402	O	0.708428	0.700766	0.526847
	H403	H	0.712465	0.712734	0.522434
	H404	H	0.700973	0.717922	0.518905
	O405	O	0.948604	-0.179163	0.955446
	H406	H	0.946576	-0.183842	0.944266
	H407	H	0.958960	-0.178001	0.946376
	O408	O	0.187841	-0.219481	-0.205051
	H409	H	0.165235	-0.213741	-0.210957
	H410	H	0.187514	-0.187445	-0.195319
	O411	O	0.867890	1.102579	1.201929
	H412	H	0.882760	1.100921	1.198648
	H413	H	0.877204	1.103095	1.188065
	O414	O	0.259327	0.713670	0.470955
	H415	H	0.236987	0.732595	0.457294
	H416	H	0.254176	0.711586	0.441370
	O417	O	0.713968	0.507308	0.721341
	H418	H	0.741823	0.511565	0.738296
	H419	H	0.717425	0.531823	0.714988
	O420	O	0.249298	0.539387	0.554403
	H421	H	0.252108	0.547300	0.567885
	H422	H	0.252089	0.550878	0.569580
	O423	O	0.058437	0.181834	0.981009
	H424	H	0.047198	0.177357	0.952389
	H425	H	0.075273	0.187456	0.983367
	O426	O	0.483294	0.491289	0.279857
	H427	H	0.480588	0.485404	0.277539
	H428	H	0.497678	0.492575	0.286161
	O429	O	1.226238	1.217705	1.234312
	H430	H	1.225066	1.233736	1.246039
	H431	H	1.222770	1.236586	1.230897
	O432	O	0.538481	0.245937	0.564097
	H433	H	0.549101	0.238533	0.564335
	H434	H	0.547347	0.246343	0.565561
	O435	O	-0.112612	0.871229	-0.210443
	H436	H	-0.119645	0.882599	-0.204419
	H437	H	-0.110732	0.880793	-0.203080
	O438	O	-0.036090	-0.057865	-0.033326
	H439	H	-0.027257	-0.053302	-0.025540
	H440	H	-0.035315	-0.057538	-0.031576
	O441	O	0.043772	-0.243652	0.059913
	H442	H	0.035910	-0.250786	0.073712
	H443	H	0.044116	-0.237965	0.055843
	O444	O	0.409493	0.664680	0.624620
	H445	H	0.395282	0.677126	0.608685
	H446	H	0.399403	0.672631	0.640533
	O447	O	0.205328	0.948935	0.776995
	H448	H	0.230633	0.959871	0.768069
	H449	H	0.200002	0.960875	0.776647
	O450	O	-0.067915	0.763164	1.211890
	H451	H	-0.064442	0.739300	1.243947
	H452	H	-0.084822	0.785480	1.207848
	O453	O	0.707811	0.263247	0.488080
	H454	H	0.701415	0.267874	0.460073
	H455	H	0.728364	0.244428	0.464925
	O456	O	0.591896	0.625838	0.367192
	H457	H	0.581698	0.630167	0.383442
	H458	H	0.595816	0.626947	0.354674
	O459	O	0.317128	0.645726	0.685694
	H460	H	0.317942	0.626350	0.689910
	H461	H	0.318973	0.653754	0.695988
	O462	O	0.754004	1.043272	1.064060
	H463	H	0.757554	1.031840	1.060796
	H464	H	0.747463	1.052348	1.057182
	O465	O	0.787753	0.203377	-0.020962
	H466	H	0.780102	0.211173	-0.020839
	H467	H	0.795427	0.205444	-0.028936
	O468	O	0.282185	0.691023	0.293521
	H469	H	0.262582	0.714475	0.265048
	H470	H	0.279621	0.649146	0.300286
	O471	O	0.529396	0.289446	0.304884
	H472	H	0.555492	0.299173	0.311177
	H473	H	0.542911	0.277981	0.286735
	O474	O	0.432339	0.462053	0.400241
	H475	H	0.433971	0.470908	0.408542
	H476	H	0.436650	0.458132	0.394964
	O477	O	0.676669	0.294135	1.688477
	H478	H	0.668196	0.306552	1.656727
	H479	H	0.658071	0.314956	1.676359
	O480	O	0.670988	0.653440	0.671779
	H481	H	0.650524	0.644733	0.680527
	H482	H	0.671701	0.654653	0.630810
	O483	O	0.490352	0.645509	0.416263
	H484	H	0.484874	0.653904	0.394248
	H485	H	0.488142	0.640233	0.415459
	O486	O	1.202476	0.130449	0.943204
	H487	H	1.209488	0.137586	0.926791
	H488	H	1.198939	0.125252	0.940064
	O489	O	1.015838	0.763390	-0.217290
	H490	H	1.010673	0.775274	-0.214959
	H491	H	1.020438	0.739118	-0.235180
	O492	O	-0.106414	0.012803	-0.022855
	H493	H	-0.122156	0.023616	-0.028143
	H494	H	-0.101132	0.006628	-0.016546
	O495	O	-0.058210	1.218135	1.030440
	H496	H	-0.049416	1.219984	1.035161
	H497	H	-0.047960	1.221752	1.025106
	O498	O	1.275469	1.276048	0.700289
	H499	H	1.292308	1.271831	0.667472
	H500	H	1.301151	1.298805	0.699282
	O501	O	0.763386	0.760927	1.031667
	H502	H	0.772873	0.756411	1.010527
	H503	H	0.742318	0.745227	1.031259
