data_Molecule from HDF5

_cell_length_a		16.073718
_cell_length_b		15.861823
_cell_length_c		16.683014
_cell_angle_alpha	89.992503
_cell_angle_beta	90.093750
_cell_angle_gamma	90.727772
_symmetry_space_group_name_H-M	'P 1'
_symmetry_Int_Tables_number		1

loop_
	_symmetry_equiv_pos_as_xyz
	x,y,z

loop_
	_atom_site_label
	_atom_site_type_symbol
	_atom_site_fract_x
	_atom_site_fract_y
	_atom_site_fract_z
	H0	H	0.382052	0.840555	0.719233
	H1	H	0.601610	0.168227	0.717761
	H2	H	0.599882	0.841554	0.278130
	H3	H	0.387378	0.167460	0.278687
	H4	H	0.709058	0.404635	0.837360
	H5	H	0.715101	0.607512	0.157231
	H6	H	0.274297	0.604066	0.838228
	H7	H	0.270627	0.397091	0.156326
	H8	H	0.825546	0.710743	0.403901
	H9	H	0.159581	0.716117	0.591688
	H10	H	0.827742	0.290711	0.589830
	H11	H	0.160577	0.297635	0.404018
	H12	H	0.831162	0.393428	0.716472
	H13	H	0.155197	0.614177	0.717544
	H14	H	0.830737	0.610102	0.276529
	H15	H	0.152591	0.394313	0.274966
	H16	H	0.395756	0.719887	0.837716
	H17	H	0.594860	0.722362	0.159223
	H18	H	0.587432	0.288178	0.836874
	H19	H	0.392235	0.283653	0.158547
	H20	H	0.699012	0.834963	0.403632
	H21	H	0.707929	0.170660	0.594870
	H22	H	0.280919	0.837024	0.593631
	H23	H	0.290352	0.174155	0.406279
	H24	H	0.882542	0.339445	0.215657
	H25	H	0.102778	0.666181	0.217766
	H26	H	0.097026	0.339426	0.778346
	H27	H	0.889378	0.668259	0.778669
	H28	H	0.212042	0.904164	0.337642
	H29	H	0.215282	0.107888	0.657309
	H30	H	0.773706	0.104689	0.338046
	H31	H	0.771209	0.898714	0.655922
	H32	H	0.324896	0.205922	0.907210
	H33	H	0.658972	0.216763	0.092820
	H34	H	0.327319	0.790750	0.092579
	H35	H	0.661250	0.798225	0.906059
	H36	H	0.331845	0.892681	0.218977
	H37	H	0.653990	0.116866	0.220425
	H38	H	0.332475	0.111249	0.777781
	H39	H	0.653748	0.895756	0.776263
	H40	H	0.897170	0.217488	0.335573
	H41	H	0.092644	0.220339	0.659100
	H42	H	0.089878	0.789218	0.336399
	H43	H	0.892897	0.785582	0.657926
	H44	H	0.199040	0.333850	0.902510
	H45	H	0.207999	0.669568	0.094368
	H46	H	0.781722	0.335823	0.091358
	H47	H	0.786820	0.673005	0.903531
	H48	H	0.407709	0.122055	0.586633
	H49	H	0.582790	0.886033	0.584174
	H50	H	0.579742	0.122222	0.406591
	H51	H	0.401509	0.884914	0.408988
	H52	H	0.577630	0.412137	0.108928
	H53	H	0.588368	0.595845	0.885634
	H54	H	0.404011	0.601590	0.111410
	H55	H	0.398477	0.405135	0.885315
	H56	H	0.110591	0.596291	0.406927
	H57	H	0.870249	0.597484	0.598154
	H58	H	0.108662	0.418656	0.582758
	H59	H	0.874289	0.413964	0.403377
	H60	H	0.111738	0.426332	0.599745
	H61	H	0.876312	0.592956	0.581898
	H62	H	0.109697	0.589335	0.404380
	H63	H	0.874024	0.412534	0.403169
	H64	H	0.392342	0.592289	0.113170
	H65	H	0.586817	0.601373	0.884787
	H66	H	0.591029	0.402935	0.114308
	H67	H	0.394404	0.403090	0.882613
	H68	H	0.584250	0.123675	0.409365
	H69	H	0.581466	0.880467	0.598565
	H70	H	0.400885	0.127199	0.594936
	H71	H	0.401767	0.882844	0.402654
	H72	H	0.916824	0.620622	0.090606
	H73	H	0.077132	0.384012	0.088832
	H74	H	0.084063	0.621902	0.909793
	H75	H	0.902070	0.381239	0.895097
	H76	H	0.086923	0.908376	0.611332
	H77	H	0.080268	0.103335	0.386409
	H78	H	0.906573	0.086141	0.605434
	H79	H	0.897716	0.911486	0.384664
	H80	H	0.612048	0.096159	0.907934
	H81	H	0.371730	0.092009	0.099380
	H82	H	0.606543	0.917499	0.076836
	H83	H	0.377582	0.916974	0.908719
	H84	H	0.609159	0.933925	0.103017
	H85	H	0.374473	0.092718	0.087949
	H86	H	0.610757	0.090510	0.905716
	H87	H	0.374308	0.915265	0.902070
	H88	H	0.904967	0.106475	0.611936
	H89	H	0.100309	0.106352	0.379817
	H90	H	0.091897	0.914288	0.611356
	H91	H	0.897225	0.907439	0.383596
	H92	H	0.085414	0.624555	0.902977
	H93	H	0.079643	0.383200	0.089926
	H94	H	0.900471	0.623390	0.082686
	H95	H	0.907547	0.385895	0.905679
	H96	H	0.412579	0.123565	0.597456
	H97	H	0.569054	0.887600	0.592099
	H98	H	0.584451	0.125170	0.403517
	H99	H	0.406875	0.884530	0.405464
	H100	H	0.593076	0.419566	0.109834
	H101	H	0.592206	0.600693	0.884095
	H102	H	0.404607	0.587387	0.107108
	H103	H	0.394059	0.407892	0.884376
	H104	H	0.111694	0.594584	0.399919
	H105	H	0.877201	0.579950	0.595678
	H106	H	0.116922	0.407227	0.596005
	H107	H	0.875068	0.412972	0.404799
	H108	H	0.902774	0.628210	0.100476
	H109	H	0.076457	0.383861	0.091173
	H110	H	0.078941	0.621527	0.904336
	H111	H	0.894403	0.381625	0.906317
	H112	H	0.084700	0.914133	0.608434
	H113	H	0.093665	0.087632	0.387000
	H114	H	0.888294	0.092841	0.613191
	H115	H	0.894781	0.909919	0.383637
	H116	H	0.614100	0.095298	0.901249
	H117	H	0.377350	0.082080	0.094256
	H118	H	0.619043	0.903797	0.101618
	H119	H	0.373844	0.909809	0.907070
	C120	C	0.373729	0.014225	0.621153
	C121	C	0.611838	0.994514	0.620162
	C122	C	0.612453	0.013722	0.377664
	C123	C	0.374644	0.995118	0.377932
	C124	C	0.615053	0.381464	0.005538
	C125	C	0.618828	0.629089	0.990295
	C126	C	0.371306	0.624089	0.005295
	C127	C	0.367034	0.376467	0.989704
	C128	C	0.001460	0.623228	0.375696
	C129	C	0.983706	0.623752	0.619950
	C130	C	0.003341	0.384035	0.619639
	C131	C	0.983150	0.382765	0.375410
	C132	C	0.873807	0.513573	0.118835
	C133	C	0.112159	0.493080	0.118919
	C134	C	0.112084	0.512206	0.876930
	C135	C	0.873057	0.494129	0.875118
	C136	C	0.116348	0.882695	0.505201
	C137	C	0.119753	0.128921	0.489848
	C138	C	0.870992	0.125213	0.504874
	C139	C	0.867571	0.879101	0.489200
	C140	C	0.502628	0.122537	0.877836
	C141	C	0.483250	0.123082	0.121542
	C142	C	0.502635	0.884162	0.121511
	C143	C	0.483917	0.883803	0.877240
	C144	C	0.367637	0.889573	0.678582
	C145	C	0.617545	0.119036	0.677827
	C146	C	0.615697	0.889939	0.318855
	C147	C	0.372323	0.119095	0.320127
	C148	C	0.670297	0.383850	0.885135
	C149	C	0.675799	0.627260	0.109925
	C150	C	0.314149	0.623262	0.885606
	C151	C	0.310180	0.377936	0.109269
	C152	C	0.876151	0.676306	0.380842
	C153	C	0.109102	0.680110	0.614545
	C154	C	0.877843	0.327012	0.613619
	C155	C	0.109169	0.330841	0.380674
	C156	C	0.879648	0.378324	0.676178
	C157	C	0.106546	0.629609	0.677408
	C158	C	0.878652	0.625593	0.317829
	C159	C	0.105313	0.379373	0.316726
	C160	C	0.374266	0.681208	0.885228
	C161	C	0.615892	0.684487	0.110912
	C162	C	0.610040	0.325653	0.884942
	C163	C	0.370551	0.321223	0.110220
	C164	C	0.665407	0.886633	0.381169
	C165	C	0.670280	0.120382	0.616700
	C166	C	0.316977	0.887779	0.616243
	C167	C	0.323150	0.122353	0.383046
	C168	C	0.868095	0.388642	0.175660
	C169	C	0.118148	0.617258	0.177247
	C170	C	0.113639	0.387969	0.818968
	C171	C	0.872090	0.619084	0.818529
	C172	C	0.172733	0.884405	0.385370
	C173	C	0.175654	0.127308	0.610102
	C174	C	0.813492	0.124394	0.385337
	C175	C	0.810774	0.879519	0.608819
	C176	C	0.376148	0.173282	0.883617
	C177	C	0.608549	0.180436	0.116236
	C178	C	0.377621	0.827038	0.115867
	C179	C	0.610081	0.831871	0.882539
	C180	C	0.379907	0.878238	0.178486
	C181	C	0.606112	0.130632	0.179455
	C182	C	0.380013	0.125961	0.819377
	C183	C	0.606283	0.880891	0.818393
	C184	C	0.874913	0.180711	0.384157
	C185	C	0.115245	0.183998	0.610575
	C186	C	0.111893	0.827126	0.384501
	C187	C	0.871418	0.823140	0.609641
	C188	C	0.164522	0.385220	0.880751
	C189	C	0.170634	0.618817	0.115922
	C190	C	0.817647	0.386818	0.113799
	C191	C	0.821132	0.621629	0.880570
	C192	C	0.399594	0.101781	0.599489
	C193	C	0.585668	0.907259	0.597914
	C194	C	0.589505	0.101022	0.399877
	C195	C	0.396881	0.906837	0.399498
	C196	C	0.593580	0.404402	0.089228
	C197	C	0.595817	0.606083	0.906606
	C198	C	0.393797	0.600744	0.088844
	C199	C	0.389246	0.398659	0.905774
	C200	C	0.088188	0.600259	0.397354
	C201	C	0.897063	0.597666	0.598040
	C202	C	0.089746	0.409810	0.598881
	C203	C	0.896886	0.406385	0.397357
	C204	C	0.899302	0.601517	0.097433
	C205	C	0.085440	0.406159	0.096619
	C206	C	0.089544	0.599857	0.899015
	C207	C	0.894800	0.405868	0.896218
	C208	C	0.094416	0.905541	0.588650
	C209	C	0.097887	0.105993	0.406127
	C210	C	0.893261	0.102023	0.588501
	C211	C	0.889997	0.902931	0.405567
	C212	C	0.589630	0.100411	0.898968
	C213	C	0.396886	0.096608	0.100216
	C214	C	0.589095	0.910638	0.100096
	C215	C	0.397572	0.906957	0.899511
	Zn216	Zn	0.492565	0.004110	0.749325
	Zn217	Zn	0.493169	0.004123	0.250535
	Zn218	Zn	0.748631	0.504764	-0.002361
	Zn219	Zn	0.238632	0.501394	-0.002276
	Zn220	Zn	-0.007122	0.750273	0.497197
	Zn221	Zn	-0.005577	0.257535	0.497080
	Zn222	Zn	-0.006581	0.503986	0.748546
	Zn223	Zn	-0.007915	0.502983	0.247312
	Zn224	Zn	0.494014	0.757700	-0.001221
	Zn225	Zn	0.491968	0.247799	-0.001655
	Zn226	Zn	0.737607	0.002930	0.497924
	Zn227	Zn	0.249692	0.005414	0.498157
	N228	N	0.401949	0.969401	0.681870
	N229	N	0.581846	0.039734	0.680078
	N230	N	0.583646	0.969927	0.316299
	N231	N	0.403709	0.038820	0.316894
	N232	N	0.673534	0.417942	0.960936
	N233	N	0.677797	0.593426	0.033890
	N234	N	0.312396	0.588408	0.961163
	N235	N	0.307978	0.411540	0.033384
	N236	N	0.953556	0.675059	0.416113
	N237	N	0.031303	0.677051	0.579582
	N238	N	0.955460	0.330177	0.579272
	N239	N	0.032295	0.332871	0.416767
	N240	N	0.958609	0.412963	0.680305
	N241	N	0.027528	0.595293	0.680796
	N242	N	0.957840	0.593606	0.314307
	N243	N	0.026048	0.411226	0.313471
	N244	N	0.409317	0.681789	0.960560
	N245	N	0.581180	0.685698	0.035593
	N246	N	0.576196	0.324081	0.960703
	N247	N	0.405259	0.320214	0.034963
	N248	N	0.663491	0.964638	0.417289
	N249	N	0.666793	0.041901	0.581534
	N250	N	0.320595	0.966255	0.581199
	N251	N	0.324522	0.043882	0.418339
	N252	N	0.902395	0.468520	0.178726
	N253	N	0.082280	0.538070	0.179204
	N254	N	0.081862	0.468140	0.816495
	N255	N	0.903552	0.538881	0.815081
	N256	N	0.175765	0.918191	0.461360
	N257	N	0.178708	0.093957	0.533987
	N258	N	0.810880	0.090586	0.461371
	N259	N	0.807932	0.913315	0.532895
	N260	N	0.453477	0.171598	0.919323
	N261	N	0.531222	0.176007	0.080914
	N262	N	0.454991	0.830588	0.081378
	N263	N	0.533040	0.833491	0.918503
	N264	N	0.458794	0.913064	0.182156
	N265	N	0.527266	0.095595	0.182929
	N266	N	0.459546	0.095108	0.815663
	N267	N	0.526816	0.912288	0.814858
	N268	N	0.909965	0.181422	0.459421
	N269	N	0.080818	0.184885	0.535024
	N270	N	0.077346	0.826098	0.459923
	N271	N	0.905937	0.822675	0.534224
	N272	N	0.163907	0.463472	0.916349
	N273	N	0.167096	0.540672	0.080454
	N274	N	0.820806	0.465599	0.079303
	N275	N	0.821572	0.542797	0.915369
	O276	O	0.932742	0.070871	0.954976
	H277	H	0.932118	0.080361	0.953733
	H278	H	0.944105	0.068591	0.966771
	O279	O	0.438892	0.487392	0.424505
	H280	H	0.448122	0.478353	0.427727
	H281	H	0.444396	0.476105	0.437034
	O282	O	0.505378	0.623294	0.552522
	H283	H	0.500640	0.604740	0.564097
	H284	H	0.508304	0.634593	0.566667
	O285	O	0.373640	0.519047	0.514610
	H286	H	0.371840	0.529092	0.510651
	H287	H	0.366100	0.510706	0.517152
	O288	O	0.418835	0.535771	0.397624
	H289	H	0.414085	0.516832	0.401689
	H290	H	0.415308	0.533703	0.386811
	O291	O	-0.031582	-0.108749	1.110705
	H292	H	-0.054597	-0.105070	1.108991
	H293	H	-0.035886	-0.119987	1.121617
	O294	O	0.934927	1.031344	0.065801
	H295	H	0.943841	1.025584	0.058210
	H296	H	0.920800	1.020038	0.076200
	O297	O	1.093356	1.100588	0.101202
	H298	H	1.098893	1.091084	0.104024
	H299	H	1.093808	1.106056	0.096561
	O300	O	0.597206	0.549978	0.635050
	H301	H	0.602278	0.554857	0.639992
	H302	H	0.596823	0.543350	0.627800
	O303	O	0.574621	0.405104	0.469593
	H304	H	0.587939	0.403921	0.466984
	H305	H	0.572745	0.415330	0.458260
	O306	O	0.453339	0.476478	0.466730
	H307	H	0.446231	0.487554	0.473072
	H308	H	0.452092	0.478521	0.469236
	O309	O	0.352719	0.596984	0.377279
	H310	H	0.349908	0.585544	0.377806
	H311	H	0.356074	0.597696	0.387992
	O312	O	0.856333	1.014000	0.933462
	H313	H	0.875250	1.013727	0.928854
	H314	H	0.853771	1.023806	0.929851
	O315	O	1.104223	0.951304	-0.019682
	H316	H	1.107137	0.950919	-0.007556
	H317	H	1.114192	0.950621	-0.029102
	O318	O	0.544049	0.350184	0.481015
	H319	H	0.547300	0.357762	0.477041
	H320	H	0.552667	0.353978	0.496977
	O321	O	0.659895	0.547733	0.501277
	H322	H	0.670402	0.556099	0.490198
	H323	H	0.660617	0.543056	0.492520
	O324	O	-0.044766	0.955868	0.885232
	H325	H	-0.045535	0.964080	0.883867
	H326	H	-0.028729	0.951594	0.877703
	O327	O	0.048713	1.002894	0.966974
	H328	H	0.049939	0.984929	0.972860
	H329	H	0.042805	1.012886	0.973114
	O330	O	0.039637	-0.125920	-0.068324
	H331	H	0.032393	-0.126212	-0.070212
	H332	H	0.028221	-0.136836	-0.065287
	O333	O	0.505933	0.336869	0.473557
	H334	H	0.517870	0.327010	0.462824
	H335	H	0.513051	0.336704	0.484514
	O336	O	-0.027209	0.141046	-0.014383
	H337	H	-0.018991	0.156919	-0.009915
	H338	H	-0.015661	0.142629	-0.015227
	O339	O	-0.005947	-0.072568	-0.008688
	H340	H	-0.005357	-0.064638	-0.001456
	H341	H	-0.000883	-0.077652	-0.019016
	O342	O	0.543522	0.651061	0.562952
	H343	H	0.551395	0.658619	0.551298
	H344	H	0.551782	0.656342	0.554567
	O345	O	-0.118065	0.971383	0.881100
	H346	H	-0.119264	0.985296	0.880297
	H347	H	-0.114661	0.975924	0.877358
	O348	O	0.579597	0.547823	0.523837
	H349	H	0.579010	0.549942	0.531373
	H350	H	0.578554	0.550125	0.505384
	O351	O	0.371340	0.429515	0.648018
	H352	H	0.383265	0.426607	0.642196
	H353	H	0.372179	0.427347	0.647734
	O354	O	0.092539	1.066960	0.069946
	H355	H	0.085783	1.070669	0.083096
	H356	H	0.097537	1.071018	0.068830
	O357	O	0.414132	0.512341	0.557045
	H358	H	0.407132	0.507826	0.564957
	H359	H	0.417505	0.501083	0.567584
	O360	O	1.547035	-0.507910	1.537565
	H361	H	1.557910	-0.508063	1.544576
	H362	H	1.556069	-0.502911	1.534450
	O363	O	0.520033	0.582407	0.445395
	H364	H	0.504501	0.586769	0.447345
	H365	H	0.519126	0.589817	0.442531
	O366	O	0.489379	0.570490	0.386539
	H367	H	0.488331	0.560884	0.394354
	H368	H	0.475177	0.583732	0.374941
	O369	O	0.965946	0.052990	0.125079
	H370	H	0.958381	0.057773	0.120218
	H371	H	0.968946	0.057988	0.119703
	O372	O	0.549979	0.510848	0.487327
	H373	H	0.558275	0.518958	0.485054
	H374	H	0.544793	0.510763	0.493067
	O375	O	0.872576	0.096582	0.887459
	H376	H	0.872044	0.105871	0.895313
	H377	H	0.865036	0.099485	0.878640
	O378	O	0.108527	0.975401	-0.149235
	H379	H	0.097958	0.956680	-0.141016
	H380	H	0.126195	0.967342	-0.161874
	O381	O	0.443193	0.445847	0.544716
	H382	H	0.439476	0.449983	0.546441
	H383	H	0.453501	0.450613	0.546310
	O384	O	1.093054	0.945191	0.077103
	H385	H	1.100971	0.954833	0.080319
	H386	H	1.088212	0.934796	0.083053
	O387	O	1.058177	0.093317	0.986737
	H388	H	1.043547	0.089319	0.987013
	H389	H	1.060676	0.078839	0.985028
	O390	O	0.854116	0.924586	0.070485
	H391	H	0.844285	0.926515	0.072812
	H392	H	0.860444	0.922163	0.059975
	O393	O	0.489098	0.594707	0.483027
	H394	H	0.463788	0.603127	0.483776
	H395	H	0.472472	0.590348	0.477719
