data_Molecule from HDF5

_cell_length_a		16.349970
_cell_length_b		15.818656
_cell_length_c		16.332210
_cell_angle_alpha	91.364763
_cell_angle_beta	90.591360
_cell_angle_gamma	90.305875
_symmetry_space_group_name_H-M	'P 1'
_symmetry_Int_Tables_number		1

loop_
	_symmetry_equiv_pos_as_xyz
	x,y,z

loop_
	_atom_site_label
	_atom_site_type_symbol
	_atom_site_fract_x
	_atom_site_fract_y
	_atom_site_fract_z
	H0	H	0.395866	0.833064	0.700132
	H1	H	0.598696	0.167082	0.715068
	H2	H	0.594466	0.835161	0.279376
	H3	H	0.397009	0.169568	0.285732
	H4	H	0.710105	0.390956	0.833330
	H5	H	0.714485	0.609245	0.156040
	H6	H	0.272273	0.598848	0.833790
	H7	H	0.276400	0.400816	0.157749
	H8	H	0.828969	0.706967	0.406650
	H9	H	0.160026	0.716090	0.594689
	H10	H	0.828694	0.292647	0.583889
	H11	H	0.158396	0.287923	0.398471
	H12	H	0.831508	0.401644	0.709085
	H13	H	0.155122	0.611524	0.720885
	H14	H	0.832993	0.603812	0.278266
	H15	H	0.156178	0.397435	0.275150
	H16	H	0.398048	0.704471	0.828175
	H17	H	0.590826	0.717746	0.158208
	H18	H	0.584346	0.284076	0.830826
	H19	H	0.402740	0.294538	0.161976
	H20	H	0.705818	0.835214	0.393042
	H21	H	0.710102	0.168751	0.599913
	H22	H	0.281236	0.835632	0.590601
	H23	H	0.281500	0.168866	0.397558
	H24	H	0.895394	0.333880	0.201866
	H25	H	0.096160	0.667975	0.213607
	H26	H	0.092109	0.336278	0.778090
	H27	H	0.894226	0.670141	0.788437
	H28	H	0.210918	0.894490	0.334093
	H29	H	0.218351	0.113298	0.657529
	H30	H	0.774853	0.100847	0.334163
	H31	H	0.778642	0.903917	0.657435
	H32	H	0.328984	0.204573	0.903967
	H33	H	0.659028	0.216384	0.094447
	H34	H	0.329908	0.791641	0.082583
	H35	H	0.659714	0.785496	0.896942
	H36	H	0.334445	0.896897	0.211230
	H37	H	0.657866	0.108977	0.217629
	H38	H	0.335090	0.101816	0.776134
	H39	H	0.658091	0.896059	0.776628
	H40	H	0.900350	0.205078	0.329454
	H41	H	0.091357	0.220565	0.660579
	H42	H	0.087373	0.785836	0.331376
	H43	H	0.903597	0.797899	0.662350
	H44	H	0.201622	0.333825	0.892576
	H45	H	0.209937	0.667713	0.102264
	H46	H	0.782701	0.333918	0.088941
	H47	H	0.778589	0.667393	0.897792
	H48	H	0.413284	0.125451	0.604414
	H49	H	0.580782	0.885566	0.572692
	H50	H	0.580246	0.121815	0.406318
	H51	H	0.408569	0.881107	0.391431
	H52	H	0.591571	0.410799	0.112421
	H53	H	0.585406	0.589956	0.877602
	H54	H	0.407648	0.608921	0.112733
	H55	H	0.392146	0.404922	0.879241
	H56	H	0.113450	0.590414	0.395021
	H57	H	0.875918	0.597368	0.599677
	H58	H	0.108684	0.423936	0.592496
	H59	H	0.875751	0.405793	0.392932
	H60	H	0.114394	0.408668	0.597179
	H61	H	0.876136	0.602358	0.592019
	H62	H	0.113708	0.600414	0.406756
	H63	H	0.877882	0.405351	0.397715
	H64	H	0.386855	0.592332	0.114764
	H65	H	0.591917	0.590991	0.875633
	H66	H	0.593227	0.412979	0.112123
	H67	H	0.398083	0.403504	0.878845
	H68	H	0.591461	0.123044	0.414725
	H69	H	0.603216	0.875666	0.582455
	H70	H	0.418484	0.115218	0.577823
	H71	H	0.408574	0.886481	0.410348
	H72	H	0.906139	0.625314	0.099022
	H73	H	0.092771	0.380829	0.074383
	H74	H	0.083648	0.623361	0.908266
	H75	H	0.906894	0.380042	0.892412
	H76	H	0.088904	0.921264	0.609623
	H77	H	0.083615	0.096722	0.379185
	H78	H	0.908920	0.097516	0.610685
	H79	H	0.892129	0.910191	0.378406
	H80	H	0.610130	0.085280	0.906645
	H81	H	0.375457	0.096312	0.102248
	H82	H	0.608875	0.920322	0.089730
	H83	H	0.383263	0.924964	0.891215
	H84	H	0.615955	0.908430	0.095487
	H85	H	0.378366	0.100345	0.085480
	H86	H	0.614732	0.091681	0.896587
	H87	H	0.371109	0.893014	0.881113
	H88	H	0.898198	0.104018	0.615986
	H89	H	0.099063	0.091821	0.376775
	H90	H	0.088867	0.907466	0.613590
	H91	H	0.904037	0.905107	0.380516
	H92	H	0.085539	0.621888	0.912788
	H93	H	0.090313	0.375625	0.094673
	H94	H	0.910077	0.619345	0.082812
	H95	H	0.904511	0.383250	0.905599
	H96	H	0.392243	0.125897	0.585462
	H97	H	0.581946	0.877702	0.598113
	H98	H	0.592591	0.126454	0.402017
	H99	H	0.392558	0.877422	0.401878
	H100	H	0.590595	0.413326	0.111860
	H101	H	0.590101	0.584222	0.878165
	H102	H	0.410152	0.584034	0.105580
	H103	H	0.393362	0.399401	0.877384
	H104	H	0.108844	0.585539	0.408170
	H105	H	0.879430	0.593436	0.591563
	H106	H	0.108665	0.411301	0.581594
	H107	H	0.877547	0.410557	0.394909
	H108	H	0.894586	0.624974	0.086208
	H109	H	0.073681	0.383831	0.084234
	H110	H	0.088270	0.624370	0.908709
	H111	H	0.893837	0.377634	0.898284
	H112	H	0.099533	0.915152	0.615684
	H113	H	0.087640	0.081594	0.382693
	H114	H	0.897239	0.091365	0.611872
	H115	H	0.894612	0.896914	0.375977
	H116	H	0.613235	0.096858	0.907559
	H117	H	0.381623	0.084187	0.091598
	H118	H	0.611065	0.907143	0.081947
	H119	H	0.382158	0.898591	0.913228
	C120	C	0.377332	0.011260	0.615030
	C121	C	0.617387	0.991144	0.616393
	C122	C	0.616231	0.012375	0.376305
	C123	C	0.374565	0.992685	0.374113
	C124	C	0.616832	0.379300	0.004114
	C125	C	0.618122	0.622009	0.984964
	C126	C	0.371734	0.621619	0.003225
	C127	C	0.369093	0.376980	0.986862
	C128	C	0.003729	0.621537	0.375375
	C129	C	0.985376	0.627694	0.622799
	C130	C	0.002315	0.384393	0.615674
	C131	C	0.985593	0.378278	0.369058
	C132	C	0.874715	0.511818	0.115058
	C133	C	0.115534	0.491263	0.116402
	C134	C	0.113306	0.511624	0.877027
	C135	C	0.872815	0.491743	0.873313
	C136	C	0.118524	0.881150	0.505001
	C137	C	0.119005	0.124540	0.487234
	C138	C	0.872506	0.123620	0.504548
	C139	C	0.871503	0.879113	0.486987
	C140	C	0.504416	0.119521	0.875286
	C141	C	0.486395	0.124666	0.121480
	C142	C	0.504107	0.881202	0.115468
	C143	C	0.486855	0.876179	0.868320
	C144	C	0.376828	0.883882	0.665531
	C145	C	0.617067	0.117417	0.675705
	C146	C	0.614409	0.885614	0.318042
	C147	C	0.376706	0.118963	0.321703
	C148	C	0.670869	0.374768	0.881454
	C149	C	0.675019	0.626161	0.107785
	C150	C	0.313037	0.618182	0.881325
	C151	C	0.315268	0.380977	0.109654
	C152	C	0.879003	0.672824	0.382361
	C153	C	0.109759	0.681166	0.618020
	C154	C	0.878034	0.329395	0.607697
	C155	C	0.109003	0.324221	0.375427
	C156	C	0.879455	0.383570	0.669839
	C157	C	0.107442	0.628690	0.680443
	C158	C	0.881143	0.621234	0.318671
	C159	C	0.107827	0.378551	0.313970
	C160	C	0.375563	0.670754	0.878411
	C161	C	0.613672	0.680316	0.108682
	C162	C	0.608478	0.321671	0.880075
	C163	C	0.377718	0.327665	0.111755
	C164	C	0.669406	0.885373	0.374690
	C165	C	0.672285	0.118285	0.618347
	C166	C	0.319795	0.885079	0.610801
	C167	C	0.318960	0.118577	0.377033
	C168	C	0.875877	0.384507	0.166436
	C169	C	0.115581	0.617648	0.175033
	C170	C	0.111122	0.385837	0.817714
	C171	C	0.874215	0.619070	0.822934
	C172	C	0.172542	0.877321	0.382478
	C173	C	0.177427	0.129485	0.609616
	C174	C	0.815052	0.120089	0.382228
	C175	C	0.817252	0.883647	0.609338
	C176	C	0.379466	0.170518	0.880678
	C177	C	0.609980	0.179818	0.116746
	C178	C	0.379942	0.827128	0.107423
	C179	C	0.610231	0.821518	0.874235
	C180	C	0.382296	0.879660	0.171362
	C181	C	0.609180	0.126266	0.178005
	C182	C	0.382623	0.119342	0.817103
	C183	C	0.609443	0.877006	0.814525
	C184	C	0.877266	0.172301	0.379650
	C185	C	0.114706	0.183163	0.610826
	C186	C	0.111187	0.823026	0.381172
	C187	C	0.879532	0.831297	0.612086
	C188	C	0.165987	0.384713	0.874631
	C189	C	0.172227	0.617250	0.119497
	C190	C	0.819987	0.384423	0.109902
	C191	C	0.816737	0.617574	0.877429
	C192	C	0.400991	0.099334	0.595135
	C193	C	0.594957	0.902650	0.591696
	C194	C	0.594535	0.100944	0.400577
	C195	C	0.396658	0.904349	0.395106
	C196	C	0.597437	0.404921	0.089961
	C197	C	0.595828	0.595849	0.899167
	C198	C	0.394865	0.601207	0.088895
	C199	C	0.388527	0.396510	0.900890
	C200	C	0.089772	0.598902	0.396863
	C201	C	0.899380	0.604632	0.600918
	C202	C	0.088243	0.407568	0.596175
	C203	C	0.899136	0.400616	0.389128
	C204	C	0.897045	0.600261	0.095328
	C205	C	0.092206	0.403034	0.091576
	C206	C	0.091948	0.600471	0.902528
	C207	C	0.895146	0.403186	0.892944
	C208	C	0.098427	0.907095	0.590803
	C209	C	0.096759	0.097815	0.401788
	C210	C	0.894984	0.103759	0.590841
	C211	C	0.891064	0.898262	0.400696
	C212	C	0.590506	0.097856	0.897245
	C213	C	0.400520	0.100832	0.099601
	C214	C	0.589691	0.905029	0.095058
	C215	C	0.400962	0.898790	0.889039
	Zn216	Zn	0.496323	-0.000266	0.742058
	Zn217	Zn	0.496556	0.002308	0.248743
	Zn218	Zn	0.747296	0.500384	-0.005710
	Zn219	Zn	0.240463	0.500609	-0.004172
	Zn220	Zn	-0.004958	0.751783	0.497050
	Zn221	Zn	-0.005957	0.252358	0.494256
	Zn222	Zn	-0.005825	0.504176	0.749315
	Zn223	Zn	-0.004954	0.501547	0.242043
	Zn224	Zn	0.494998	0.749985	-0.007609
	Zn225	Zn	0.494140	0.249819	-0.003564
	Zn226	Zn	0.742966	0.001986	0.495406
	Zn227	Zn	0.248907	0.002350	0.495840
	N228	N	0.412038	0.963158	0.668386
	N229	N	0.583582	0.037273	0.674656
	N230	N	0.581741	0.965458	0.319090
	N231	N	0.410393	0.039428	0.319638
	N232	N	0.676048	0.409811	0.959409
	N233	N	0.677843	0.590554	0.029837
	N234	N	0.310490	0.588494	0.959855
	N235	N	0.309484	0.410462	0.031068
	N236	N	0.956165	0.673084	0.417088
	N237	N	0.032891	0.680991	0.582974
	N238	N	0.955243	0.329763	0.574649
	N239	N	0.031927	0.323902	0.408712
	N240	N	0.957577	0.417004	0.675043
	N241	N	0.028963	0.596286	0.683800
	N242	N	0.959768	0.590177	0.314177
	N243	N	0.029818	0.411071	0.309593
	N244	N	0.411703	0.673010	0.955169
	N245	N	0.578812	0.677881	0.031472
	N246	N	0.575550	0.324128	0.957381
	N247	N	0.410599	0.324738	0.034537
	N248	N	0.670806	0.965328	0.410305
	N249	N	0.672890	0.038868	0.582197
	N250	N	0.319777	0.965355	0.579988
	N251	N	0.317601	0.038844	0.408946
	N252	N	0.909438	0.464593	0.170041
	N253	N	0.080707	0.538278	0.173127
	N254	N	0.079110	0.466042	0.819283
	N255	N	0.908440	0.539746	0.820135
	N256	N	0.177127	0.912806	0.460301
	N257	N	0.180331	0.093776	0.531663
	N258	N	0.811773	0.090727	0.461023
	N259	N	0.812242	0.912825	0.530581
	N260	N	0.456126	0.170684	0.916493
	N261	N	0.532596	0.179307	0.082374
	N262	N	0.456668	0.827764	0.073199
	N263	N	0.532997	0.820961	0.907155
	N264	N	0.460515	0.912747	0.176201
	N265	N	0.531445	0.092574	0.180883
	N266	N	0.461250	0.088215	0.813730
	N267	N	0.531661	0.910183	0.810730
	N268	N	0.912464	0.174556	0.456741
	N269	N	0.079097	0.180174	0.534053
	N270	N	0.078239	0.825128	0.458498
	N271	N	0.912634	0.828020	0.535057
	N272	N	0.167358	0.464202	0.911150
	N273	N	0.172333	0.537491	0.083789
	N274	N	0.818909	0.464542	0.078729
	N275	N	0.815560	0.537315	0.907984
	O276	O	0.122448	0.112019	0.113455
	H277	H	0.132967	0.108248	0.115202
	H278	H	0.134775	0.123307	0.109612
	O279	O	0.484054	0.542290	0.605618
	H280	H	0.495295	0.539658	0.606887
	H281	H	0.494052	0.552361	0.603358
	O282	O	0.522857	0.511123	0.556298
	H283	H	0.522247	0.506730	0.567755
	H284	H	0.523227	0.510490	0.550957
	O285	O	-0.030938	1.117801	1.039528
	H286	H	-0.022493	1.127660	1.051333
	H287	H	-0.026194	1.129387	1.052882
	O288	O	0.503961	0.445660	0.587999
	H289	H	0.499779	0.450679	0.575664
	H290	H	0.500483	0.446992	0.586176
	O291	O	0.962516	0.980422	0.960252
	H292	H	0.962026	0.977558	0.952159
	H293	H	0.957545	0.985193	0.963003
	O294	O	1.012489	0.936858	0.875228
	H295	H	1.005190	0.935690	0.858703
	H296	H	1.010498	0.948543	0.882599
	O297	O	1.008214	-0.020083	1.017973
	H298	H	1.012970	-0.008930	1.015041
	H299	H	1.018282	-0.015818	1.017876
	O300	O	0.472580	0.447809	0.475176
	H301	H	0.473437	0.448540	0.471963
	H302	H	0.475339	0.450793	0.478106
	O303	O	0.878940	-0.005049	0.113251
	H304	H	0.884573	-0.020945	0.119544
	H305	H	0.879778	-0.011520	0.117182
	O306	O	0.043133	0.992370	1.012724
	H307	H	0.038572	0.988612	1.009466
	H308	H	0.035869	1.000503	1.009133
	O309	O	0.537065	0.549723	0.473167
	H310	H	0.536189	0.554325	0.475236
	H311	H	0.536416	0.545533	0.473622
	O312	O	1.007834	0.004298	0.939888
	H313	H	1.005375	0.004890	0.933774
	H314	H	1.007518	0.006261	0.945104
	O315	O	0.362257	0.557888	0.374839
	H316	H	0.349783	0.565801	0.379491
	H317	H	0.373530	0.552486	0.371462
	O318	O	0.595093	0.446030	0.442154
	H319	H	0.589060	0.443963	0.431287
	H320	H	0.600195	0.440884	0.429557
	O321	O	1.163757	1.012140	1.071915
	H322	H	1.156323	1.013687	1.082938
	H323	H	1.165967	1.001325	1.065377
	O324	O	0.517340	0.506498	0.483602
	H325	H	0.512465	0.501640	0.499998
	H326	H	0.508845	0.508063	0.472960
	O327	O	0.430032	0.536458	0.476541
	H328	H	0.427335	0.549756	0.487168
	H329	H	0.435666	0.530493	0.475175
	O330	O	0.945903	-0.000893	1.001214
	H331	H	0.939097	-0.005872	1.001271
	H332	H	0.950779	0.001687	1.001972
	O333	O	1.040999	0.944477	-0.106606
	H334	H	1.031801	0.948371	-0.117620
	H335	H	1.036702	0.949598	-0.107072
	O336	O	0.479977	0.601419	0.455301
	H337	H	0.481432	0.610251	0.447239
	H338	H	0.484241	0.610596	0.460761
	O339	O	0.540276	0.627488	0.550421
	H340	H	0.542382	0.634576	0.552822
	H341	H	0.552223	0.627540	0.556546
	O342	O	0.069835	1.127464	-0.013833
	H343	H	0.078485	1.118290	-0.016483
	H344	H	0.064722	1.131453	-0.010270
	O345	O	0.101389	-0.042252	0.049702
	H346	H	0.115728	-0.038273	0.050445
	H347	H	0.098006	-0.039487	0.047172
	O348	O	0.473467	0.444110	0.508853
	H349	H	0.480686	0.434917	0.493856
	H350	H	0.465785	0.428195	0.514571
	O351	O	0.482602	0.419291	0.371381
	H352	H	0.473949	0.413398	0.371928
	H353	H	0.482115	0.429276	0.376215
	O354	O	0.528683	0.479740	0.556370
	H355	H	0.514710	0.477487	0.548362
	H356	H	0.538789	0.474123	0.551699
	O357	O	0.493995	0.508820	0.549203
	H358	H	0.495680	0.512983	0.563532
	H359	H	0.492459	0.506782	0.548591
	O360	O	0.023900	-0.131172	-0.036443
	H361	H	0.027164	-0.135806	-0.040498
	H362	H	0.026727	-0.128023	-0.045380
	O363	O	0.469994	0.465515	0.455670
	H364	H	0.474441	0.463898	0.460032
	H365	H	0.475493	0.473851	0.457084
	O366	O	0.006703	0.022518	1.059200
	H367	H	-0.005413	0.015643	1.062236
	H368	H	0.016405	0.010783	1.072287
	O369	O	0.499204	0.476086	0.550935
	H370	H	0.494545	0.471200	0.548554
	H371	H	0.492165	0.480724	0.557604
