data_Molecule from HDF5

_cell_length_a		16.657949
_cell_length_b		16.505674
_cell_length_c		16.531847
_cell_angle_alpha	89.954528
_cell_angle_beta	89.979174
_cell_angle_gamma	89.980777
_symmetry_space_group_name_H-M	'P 1'
_symmetry_Int_Tables_number		1

loop_
	_symmetry_equiv_pos_as_xyz
	x,y,z

loop_
	_atom_site_label
	_atom_site_type_symbol
	_atom_site_fract_x
	_atom_site_fract_y
	_atom_site_fract_z
	H0	H	0.383380	0.841695	0.700174
	H1	H	0.591034	0.156829	0.697944
	H2	H	0.591642	0.841520	0.259642
	H3	H	0.385003	0.156127	0.259778
	H4	H	0.709441	0.392950	0.822136
	H5	H	0.711400	0.605316	0.134497
	H6	H	0.266372	0.606532	0.822289
	H7	H	0.264978	0.392939	0.133537
	H8	H	0.832629	0.723120	0.370954
	H9	H	0.142360	0.722970	0.584551
	H10	H	0.831790	0.278111	0.582326
	H11	H	0.144446	0.278259	0.373570
	H12	H	0.832876	0.393847	0.700618
	H13	H	0.142929	0.606078	0.700963
	H14	H	0.832419	0.605724	0.254761
	H15	H	0.142625	0.392366	0.254521
	H16	H	0.384749	0.720327	0.821614
	H17	H	0.592303	0.718676	0.136300
	H18	H	0.591949	0.278111	0.821716
	H19	H	0.382867	0.278521	0.135611
	H20	H	0.708279	0.841474	0.374968
	H21	H	0.709168	0.155743	0.583943
	H22	H	0.262735	0.844230	0.589912
	H23	H	0.267660	0.155627	0.374715
	H24	H	0.885330	0.340844	0.196152
	H25	H	0.092363	0.654681	0.199637
	H26	H	0.090924	0.340731	0.759190
	H27	H	0.884693	0.655971	0.757573
	H28	H	0.212922	0.889479	0.323906
	H29	H	0.208859	0.103764	0.635378
	H30	H	0.766311	0.104964	0.322512
	H31	H	0.765437	0.892473	0.634538
	H32	H	0.331847	0.220712	0.873996
	H33	H	0.643893	0.219163	0.081419
	H34	H	0.332685	0.777356	0.083598
	H35	H	0.645212	0.779752	0.876475
	H36	H	0.333090	0.894128	0.201203
	H37	H	0.643628	0.104284	0.200447
	H38	H	0.332766	0.105178	0.756115
	H39	H	0.644437	0.895246	0.759074
	H40	H	0.886606	0.216463	0.319790
	H41	H	0.090912	0.218306	0.636181
	H42	H	0.094637	0.776039	0.322302
	H43	H	0.883064	0.776921	0.634752
	H44	H	0.209382	0.342493	0.872540
	H45	H	0.209756	0.654703	0.084218
	H46	H	0.767831	0.341916	0.081561
	H47	H	0.764381	0.654113	0.870011
	H48	H	0.395213	0.112612	0.569569
	H49	H	0.573902	0.887479	0.568187
	H50	H	0.583684	0.112238	0.394625
	H51	H	0.401770	0.886515	0.391220
	H52	H	0.575290	0.405235	0.091771
	H53	H	0.580429	0.586524	0.865846
	H54	H	0.398861	0.594798	0.092901
	H55	H	0.400837	0.410664	0.867266
	H56	H	0.096871	0.585419	0.390686
	H57	H	0.877923	0.584729	0.566650
	H58	H	0.097119	0.414732	0.565459
	H59	H	0.877098	0.408841	0.391821
	H60	H	0.101724	0.408964	0.573922
	H61	H	0.876426	0.587717	0.568178
	H62	H	0.097215	0.585843	0.389664
	H63	H	0.876519	0.412291	0.384826
	H64	H	0.391795	0.582945	0.092003
	H65	H	0.574412	0.585575	0.868302
	H66	H	0.582828	0.410742	0.092497
	H67	H	0.398851	0.409994	0.865287
	H68	H	0.579014	0.114461	0.382880
	H69	H	0.579772	0.886836	0.565284
	H70	H	0.403618	0.110383	0.568759
	H71	H	0.399218	0.887330	0.394209
	H72	H	0.899609	0.612134	0.068314
	H73	H	0.081446	0.386988	0.060148
	H74	H	0.076078	0.614880	0.880147
	H75	H	0.895265	0.384903	0.888226
	H76	H	0.068755	0.912049	0.586210
	H77	H	0.081139	0.084044	0.366287
	H78	H	0.891266	0.091143	0.594088
	H79	H	0.898205	0.902147	0.362431
	H80	H	0.600140	0.089923	0.888180
	H81	H	0.371684	0.097097	0.075635
	H82	H	0.596218	0.916003	0.066524
	H83	H	0.374781	0.909319	0.883417
	H84	H	0.601721	0.909654	0.074930
	H85	H	0.378966	0.090672	0.057792
	H86	H	0.598825	0.088812	0.890705
	H87	H	0.375763	0.904382	0.892905
	H88	H	0.897964	0.081381	0.588802
	H89	H	0.074056	0.087418	0.367232
	H90	H	0.076324	0.906043	0.592254
	H91	H	0.889721	0.917208	0.365154
	H92	H	0.071468	0.607918	0.893886
	H93	H	0.078277	0.384448	0.071477
	H94	H	0.901062	0.610359	0.064202
	H95	H	0.902409	0.386344	0.888032
	H96	H	0.398009	0.108559	0.561970
	H97	H	0.578867	0.884721	0.571604
	H98	H	0.572239	0.109446	0.392086
	H99	H	0.398240	0.885786	0.390780
	H100	H	0.575455	0.413891	0.088601
	H101	H	0.575761	0.591253	0.866081
	H102	H	0.404946	0.583590	0.087088
	H103	H	0.398331	0.412731	0.866095
	H104	H	0.097199	0.586590	0.390918
	H105	H	0.876935	0.588019	0.564751
	H106	H	0.099870	0.403843	0.563935
	H107	H	0.874199	0.404952	0.385471
	H108	H	0.896145	0.612136	0.064300
	H109	H	0.070365	0.389768	0.063914
	H110	H	0.086529	0.613380	0.892707
	H111	H	0.898536	0.387498	0.894003
	H112	H	0.078700	0.916888	0.588459
	H113	H	0.079665	0.091939	0.364591
	H114	H	0.903765	0.093077	0.591267
	H115	H	0.906278	0.915615	0.370651
	H116	H	0.598399	0.087160	0.887999
	H117	H	0.377872	0.077613	0.073913
	H118	H	0.600506	0.905048	0.063777
	H119	H	0.379176	0.915107	0.891881
	C120	C	0.366186	0.007548	0.600643
	C121	C	0.609061	0.990619	0.599792
	C122	C	0.609628	0.007608	0.358160
	C123	C	0.367418	0.990211	0.358822
	C124	C	0.609564	0.377589	-0.012511
	C125	C	0.609327	0.619891	0.970457
	C126	C	0.366423	0.620809	-0.012777
	C127	C	0.366719	0.378400	0.969688
	C128	C	-0.004958	0.619654	0.357027
	C129	C	0.979508	0.620083	0.599315
	C130	C	-0.003675	0.377546	0.599325
	C131	C	0.979111	0.376702	0.355526
	C132	C	0.866971	0.507673	0.098384
	C133	C	0.108836	0.490419	0.098467
	C134	C	0.109642	0.507646	0.856865
	C135	C	0.866617	0.490015	0.856879
	C136	C	0.108509	0.877924	0.486428
	C137	C	0.109312	0.119643	0.470234
	C138	C	0.866637	0.120086	0.487126
	C139	C	0.866321	0.878233	0.469647
	C140	C	0.496162	0.121058	0.856814
	C141	C	0.479666	0.120110	0.100413
	C142	C	0.496618	0.877677	0.100534
	C143	C	0.479999	0.877965	0.857873
	C144	C	0.364434	0.889179	0.660997
	C145	C	0.609955	0.109525	0.658375
	C146	C	0.610704	0.888933	0.298943
	C147	C	0.365865	0.108765	0.299212
	C148	C	0.669004	0.375011	0.869130
	C149	C	0.670143	0.622620	0.087989
	C150	C	0.306641	0.624165	0.869286
	C151	C	0.305738	0.375028	0.087141
	C152	C	0.878831	0.681687	0.353401
	C153	C	0.096175	0.681828	0.602408
	C154	C	0.878739	0.317879	0.601169
	C155	C	0.097131	0.317685	0.354426
	C156	C	0.879263	0.375417	0.659846
	C157	C	0.096315	0.623887	0.660395
	C158	C	0.878807	0.623358	0.295509
	C159	C	0.096323	0.374483	0.295262
	C160	C	0.365305	0.680946	0.869130
	C161	C	0.611342	0.679243	0.088912
	C162	C	0.610581	0.317955	0.868856
	C163	C	0.364533	0.318385	0.088025
	C164	C	0.668470	0.888797	0.356578
	C165	C	0.668876	0.108746	0.602117
	C166	C	0.304755	0.890298	0.605549
	C167	C	0.307307	0.108349	0.356178
	C168	C	0.866038	0.388768	0.157340
	C169	C	0.111170	0.608013	0.159344
	C170	C	0.110405	0.388609	0.798169
	C171	C	0.865135	0.608512	0.796944
	C172	C	0.171219	0.872754	0.370101
	C173	C	0.168440	0.121558	0.588444
	C174	C	0.806941	0.122510	0.369261
	C175	C	0.806202	0.874666	0.587836
	C176	C	0.379014	0.180749	0.855174
	C177	C	0.597231	0.179435	0.100869
	C178	C	0.379146	0.818066	0.101945
	C179	C	0.598005	0.819329	0.857343
	C180	C	0.379395	0.875518	0.160622
	C181	C	0.597159	0.122023	0.159615
	C182	C	0.379248	0.123045	0.796862
	C183	C	0.597677	0.876928	0.798948
	C184	C	0.866783	0.177992	0.367881
	C185	C	0.110147	0.178998	0.588666
	C186	C	0.112335	0.816257	0.369340
	C187	C	0.864570	0.817375	0.587712
	C188	C	0.169220	0.389420	0.854611
	C189	C	0.169220	0.607978	0.102016
	C190	C	0.807683	0.389055	0.100434
	C191	C	0.805776	0.607707	0.852946
	C192	C	0.391606	0.089205	0.574326
	C193	C	0.584607	0.907896	0.575160
	C194	C	0.585442	0.090456	0.382816
	C195	C	0.392624	0.908047	0.384720
	C196	C	0.585097	0.402901	0.069804
	C197	C	0.584262	0.595071	0.888280
	C198	C	0.391406	0.594684	0.069325
	C199	C	0.392062	0.404024	0.887669
	C200	C	0.076012	0.593462	0.382997
	C201	C	0.898187	0.594146	0.573986
	C202	C	0.078272	0.402275	0.574677
	C203	C	0.897327	0.401666	0.380214
	C204	C	0.891624	0.590041	0.072847
	C205	C	0.083635	0.408433	0.072609
	C206	C	0.084895	0.590449	0.881679
	C207	C	0.891696	0.407693	0.882732
	C208	C	0.082260	0.904298	0.567834
	C209	C	0.085326	0.094823	0.387498
	C210	C	0.890897	0.095495	0.569962
	C211	C	0.891082	0.904242	0.387572
	C212	C	0.578046	0.095920	0.881745
	C213	C	0.397607	0.095390	0.076158
	C214	C	0.578221	0.903021	0.075537
	C215	C	0.397812	0.902601	0.882411
	Zn216	Zn	0.488051	-0.001017	0.728048
	Zn217	Zn	0.488152	-0.001191	0.229942
	Zn218	Zn	0.737717	0.499052	-0.022327
	Zn219	Zn	0.238091	0.499660	-0.022170
	Zn220	Zn	-0.012278	0.749309	0.477947
	Zn221	Zn	-0.012014	0.248370	0.478002
	Zn222	Zn	-0.011857	0.498716	0.728901
	Zn223	Zn	-0.012408	0.498635	0.227076
	Zn224	Zn	0.488419	0.748448	-0.020619
	Zn225	Zn	0.487981	0.249970	-0.021045
	Zn226	Zn	0.737392	-0.001079	0.479047
	Zn227	Zn	0.238129	-0.001853	0.478658
	N228	N	0.401997	0.963194	0.658191
	N229	N	0.573728	0.034854	0.657393
	N230	N	0.574741	0.963988	0.299720
	N231	N	0.402326	0.034259	0.300757
	N232	N	0.668623	0.411378	0.943923
	N233	N	0.669053	0.586476	0.013302
	N234	N	0.307220	0.587493	0.943795
	N235	N	0.306960	0.411682	0.012497
	N236	N	0.952189	0.679550	0.390910
	N237	N	0.022379	0.679868	0.565303
	N238	N	0.952592	0.319034	0.564314
	N239	N	0.023143	0.318738	0.391105
	N240	N	0.953281	0.411861	0.658831
	N241	N	0.022926	0.586070	0.658477
	N242	N	0.951906	0.585446	0.297634
	N243	N	0.021996	0.410452	0.295913
	N244	N	0.401693	0.679040	0.943655
	N245	N	0.574121	0.677649	0.014855
	N246	N	0.574419	0.319447	0.943408
	N247	N	0.401585	0.320107	0.013918
	N248	N	0.668015	0.963718	0.392276
	N249	N	0.668612	0.033632	0.566790
	N250	N	0.305418	0.964932	0.568946
	N251	N	0.307853	0.033353	0.392122
	N252	N	0.901851	0.463582	0.156304
	N253	N	0.074603	0.533696	0.157602
	N254	N	0.074183	0.463386	0.799295
	N255	N	0.902243	0.534354	0.799482
	N256	N	0.169131	0.910334	0.444024
	N257	N	0.168140	0.085413	0.513726
	N258	N	0.806824	0.087024	0.444464
	N259	N	0.807319	0.911939	0.513523
	N260	N	0.452866	0.179540	0.891830
	N261	N	0.523147	0.178489	0.064827
	N262	N	0.453030	0.819222	0.065605
	N263	N	0.523658	0.819522	0.893017
	N264	N	0.453429	0.911924	0.159841
	N265	N	0.522881	0.086153	0.159657
	N266	N	0.453277	0.086527	0.797933
	N267	N	0.523035	0.912244	0.798778
	N268	N	0.903386	0.176557	0.442247
	N269	N	0.074173	0.177905	0.514001
	N270	N	0.074047	0.819436	0.442717
	N271	N	0.901123	0.819350	0.513171
	N272	N	0.168985	0.464659	0.890013
	N273	N	0.167879	0.533845	0.064747
	N274	N	0.807765	0.464167	0.064582
	N275	N	0.806397	0.532923	0.889381
	O276	O	-0.079136	0.797551	0.190477
	H277	H	-0.090426	0.790662	0.183353
	H278	H	-0.092983	0.773504	0.192588
	O279	O	0.451079	0.711302	0.270669
	H280	H	0.453008	0.717012	0.260373
	H281	H	0.445382	0.709598	0.268939
	O282	O	0.803984	-0.188699	0.794567
	H283	H	0.819424	-0.180794	0.806659
	H284	H	0.809165	-0.173667	0.813248
	O285	O	0.672954	0.706763	0.470448
	H286	H	0.674118	0.704597	0.478684
	H287	H	0.672842	0.711971	0.475549
	O288	O	0.525957	0.283247	0.263229
	H289	H	0.533130	0.267247	0.246906
	H290	H	0.512631	0.283651	0.266912
	O291	O	0.270212	0.472865	0.697384
	H292	H	0.270513	0.471162	0.711155
	H293	H	0.254446	0.466598	0.707626
	O294	O	1.175449	-0.188213	1.164831
	H295	H	1.190831	-0.198856	1.181107
	H296	H	1.167864	-0.172842	1.147343
	O297	O	0.708869	0.529315	0.560564
	H298	H	0.714416	0.530722	0.565295
	H299	H	0.705344	0.530343	0.577620
	O300	O	-0.283147	0.276267	0.744296
	H301	H	-0.295467	0.273557	0.758749
	H302	H	-0.315961	0.296109	0.724986
	O303	O	0.174067	0.175737	0.797988
	H304	H	0.153469	0.164382	0.816094
	H305	H	0.178861	0.171747	0.801371
	O306	O	0.963610	-0.031183	0.837150
	H307	H	0.967485	-0.018214	0.844171
	H308	H	0.960152	-0.019961	0.831713
	O309	O	0.449509	0.289501	0.693792
	H310	H	0.445270	0.281209	0.695786
	H311	H	0.459399	0.283940	0.698223
	O312	O	0.490436	0.556032	0.542732
	H313	H	0.488760	0.560971	0.544148
	H314	H	0.490526	0.552298	0.550117
	O315	O	0.454297	1.461409	0.473104
	H316	H	0.443412	1.461536	0.479293
	H317	H	0.455650	1.466120	0.482448
	O318	O	0.692596	0.425164	0.300362
	H319	H	0.684273	0.415783	0.310157
	H320	H	0.714498	0.424618	0.281430
	O321	O	0.485979	0.453234	0.652313
	H322	H	0.482493	0.453849	0.635021
	H323	H	0.460081	0.468273	0.658391
	O324	O	0.998854	1.001823	-0.058634
	H325	H	0.998125	1.006564	-0.046559
	H326	H	0.992012	1.004007	-0.064826
	O327	O	-0.078411	0.067484	1.195904
	H328	H	-0.073616	0.061186	1.204903
	H329	H	-0.090734	0.055642	1.199263
	O330	O	0.278640	0.407903	0.301048
	H331	H	0.281123	0.413565	0.310002
	H332	H	0.284408	0.398391	0.306959
	O333	O	0.218130	0.003911	0.964049
	H334	H	0.214358	0.011401	0.976560
	H335	H	0.223194	0.014081	0.966114
	O336	O	0.628048	0.389663	0.563966
	H337	H	0.636417	0.380958	0.560017
	H338	H	0.620476	0.406088	0.554967
	O339	O	0.969350	0.191109	0.766004
	H340	H	0.948064	0.198568	0.752736
	H341	H	0.943722	0.202548	0.768445
	O342	O	-0.202170	-0.201158	0.125661
	H343	H	-0.226856	-0.219616	0.141550
	H344	H	-0.204725	-0.206846	0.085024
	O345	O	-0.227962	0.974050	1.189824
	H346	H	-0.211237	0.941660	1.180465
	H347	H	-0.252897	0.959637	1.214174
	O348	O	0.486096	0.454414	0.322624
	H349	H	0.477109	0.449696	0.324457
	H350	H	0.475914	0.449000	0.328929
	O351	O	0.993639	0.934977	0.194191
	H352	H	0.990174	0.923946	0.199783
	H353	H	0.995062	0.934220	0.203221
	O354	O	0.024056	0.208283	1.190644
	H355	H	0.033582	0.211496	1.194774
	H356	H	0.027981	0.214876	1.203251
	O357	O	1.159799	1.162870	0.145682
	H358	H	1.166045	1.125427	0.139793
	H359	H	1.156462	1.176017	0.148053
	O360	O	0.267899	0.277071	0.514725
	H361	H	0.254858	0.263565	0.528068
	H362	H	0.253560	0.279488	0.518944
	O363	O	-0.228500	-0.137300	-0.037273
	H364	H	-0.225212	-0.139451	-0.037428
	H365	H	-0.234003	-0.125320	-0.058847
	O366	O	0.565379	0.504581	0.341208
	H367	H	0.575940	0.508010	0.329815
	H368	H	0.557112	0.503368	0.350692
	O369	O	1.024124	0.055089	-0.213374
	H370	H	1.018386	0.067525	-0.212320
	H371	H	1.034139	0.073304	-0.207881
	O372	O	0.929412	0.802114	-0.039284
	H373	H	0.945627	0.802639	-0.037514
	H374	H	0.940698	0.809605	-0.032347
	O375	O	1.048980	0.224471	-0.065574
	H376	H	1.062458	0.226761	-0.063435
	H377	H	1.038950	0.226391	-0.068957
	O378	O	-0.089330	0.819188	0.989022
	H379	H	-0.083653	0.818821	0.981829
	H380	H	-0.078343	0.812287	0.986727
	O381	O	0.280765	0.709037	1.266319
	H382	H	0.285113	0.697666	1.297686
	H383	H	0.285666	0.701463	1.255814
	O384	O	0.927725	0.220188	1.037768
	H385	H	0.936418	0.226107	1.040164
	H386	H	0.932871	0.214417	1.052259
	O387	O	1.136410	0.937939	0.066634
	H388	H	1.143150	0.938309	0.069072
	H389	H	1.137220	0.942196	0.060086
	O390	O	0.597543	0.397585	0.528449
	H391	H	0.611645	0.393312	0.527520
	H392	H	0.596691	0.393531	0.514760
	O393	O	0.378340	0.415672	0.498518
	H394	H	0.384151	0.411725	0.517108
	H395	H	0.368019	0.419745	0.501935
	O396	O	0.699316	1.339292	1.496044
	H397	H	0.708892	1.335630	1.483918
	H398	H	0.691397	1.356694	1.497096
	O399	O	0.204758	0.029428	1.197250
	H400	H	0.220017	0.028969	1.222374
	H401	H	0.187325	0.025453	1.193672
	O402	O	0.698817	0.288420	0.322789
	H403	H	0.701263	0.288012	0.307685
	H404	H	0.707437	0.282702	0.326271
	O405	O	1.023600	-0.204825	0.767302
	H406	H	1.012837	-0.212714	0.746803
	H407	H	1.014382	-0.190022	0.778562
	O408	O	0.099427	-0.162251	-0.010812
	H409	H	0.102167	-0.156778	-0.004847
	H410	H	0.107660	-0.169112	-0.008142
	O411	O	0.505958	0.380602	0.498859
	H412	H	0.503049	0.389279	0.480184
	H413	H	0.507187	0.382575	0.493783
	O414	O	0.767393	0.215391	1.197967
	H415	H	0.770119	0.199979	1.190854
	H416	H	0.771369	0.217817	1.184854
	O417	O	0.693166	0.709370	0.688124
	H418	H	0.696311	0.677274	0.675350
	H419	H	0.720230	0.728697	0.704809
	O420	O	0.311878	0.686544	0.645414
	H421	H	0.308125	0.697901	0.642152
	H422	H	0.307056	0.695467	0.659098
	O423	O	0.250180	0.347755	1.349357
	H424	H	0.242986	0.344739	1.331318
	H425	H	0.235003	0.358492	1.357016
	O426	O	0.521698	0.717461	0.698112
	H427	H	0.561646	0.709850	0.686460
	H428	H	0.522728	0.747630	0.729047
	O429	O	0.683024	0.700950	1.286754
	H430	H	0.666803	0.690792	1.315113
	H431	H	0.656603	0.694109	1.287722
	O432	O	0.506455	0.466188	0.410658
	H433	H	0.496311	0.454085	0.401523
	H434	H	0.512217	0.462582	0.424194
	O435	O	-0.004752	0.938605	-0.094722
	H436	H	-0.006068	0.949080	-0.081659
	H437	H	-0.005427	0.936199	-0.091454
	O438	O	0.103778	-0.188865	-0.073778
	H439	H	0.105657	-0.189094	-0.074657
	H440	H	0.124964	-0.189689	-0.064908
	O441	O	0.577147	0.539260	0.677997
	H442	H	0.567769	0.545422	0.693837
	H443	H	0.571416	0.531218	0.685042
	O444	O	0.540266	0.668661	0.384064
	H445	H	0.532821	0.673897	0.392118
	H446	H	0.536269	0.664048	0.392153
	O447	O	-0.226809	1.029930	0.761237
	H448	H	-0.214509	1.035046	0.757723
	H449	H	-0.243925	1.040496	0.738676
	O450	O	0.268387	0.716185	1.453208
	H451	H	0.262344	0.742128	1.450786
	H452	H	0.269516	0.713602	1.450827
	O453	O	0.546248	0.496734	0.352200
	H454	H	0.546950	0.496485	0.347674
	H455	H	0.546949	0.511642	0.350060
	O456	O	-0.225116	0.181691	0.949971
	H457	H	-0.216833	0.187570	0.956525
	H458	H	-0.236372	0.183710	0.952956
	O459	O	0.849294	1.082824	-0.042752
	H460	H	0.848835	1.087561	-0.048406
	H461	H	0.850304	1.089240	-0.032354
	O462	O	0.280165	0.543406	0.436102
	H463	H	0.266242	0.544228	0.438719
	H464	H	0.288332	0.541588	0.437121
	O465	O	0.411913	-0.458632	-0.741683
	H466	H	0.415226	-0.465641	-0.734385
	H467	H	0.403507	-0.460426	-0.762774
	O468	O	0.589218	0.391134	0.665225
	H469	H	0.586185	0.405341	0.654478
	H470	H	0.564983	0.408357	0.650452
	O471	O	0.276224	0.293848	0.684508
	H472	H	0.258790	0.276664	0.685518
	H473	H	0.306587	0.305111	0.684734
	O474	O	0.194838	0.792177	0.772121
	H475	H	0.173698	0.817014	0.773621
	H476	H	0.176997	0.798477	0.793873
	O477	O	0.808588	0.101329	0.929243
	H478	H	0.789480	0.101456	0.926445
	H479	H	0.810318	0.087341	0.949170
	O480	O	0.444140	0.690880	0.554880
	H481	H	0.457799	0.693633	0.560079
	H482	H	0.437251	0.689322	0.572114
	O483	O	1.053628	1.032431	1.072928
	H484	H	1.048178	1.031726	1.068300
	H485	H	1.044575	1.034007	1.074397
	O486	O	1.204160	-0.028859	0.762768
	H487	H	1.220045	-0.037521	0.738817
	H488	H	1.197295	-0.014065	0.766614
	O489	O	1.206944	1.213194	0.011001
	H490	H	1.224831	1.223324	0.009677
	H491	H	1.203269	1.219019	0.016130
