data_Molecule from HDF5

_cell_length_a		16.092809
_cell_length_b		16.067269
_cell_length_c		16.358553
_cell_angle_alpha	90.065978
_cell_angle_beta	89.957852
_cell_angle_gamma	89.693281
_symmetry_space_group_name_H-M	'P 1'
_symmetry_Int_Tables_number		1

loop_
	_symmetry_equiv_pos_as_xyz
	x,y,z

loop_
	_atom_site_label
	_atom_site_type_symbol
	_atom_site_fract_x
	_atom_site_fract_y
	_atom_site_fract_z
	H0	H	0.396920	0.836648	0.714163
	H1	H	0.598337	0.166339	0.713797
	H2	H	0.602876	0.838361	0.279717
	H3	H	0.392652	0.165012	0.281457
	H4	H	0.712068	0.401121	0.833526
	H5	H	0.711595	0.600865	0.159263
	H6	H	0.281943	0.601639	0.833526
	H7	H	0.279862	0.402604	0.158971
	H8	H	0.831530	0.714067	0.398668
	H9	H	0.162711	0.711798	0.592483
	H10	H	0.830142	0.290609	0.592171
	H11	H	0.163007	0.287620	0.398965
	H12	H	0.833031	0.399029	0.712790
	H13	H	0.161333	0.601539	0.711839
	H14	H	0.833491	0.605846	0.279131
	H15	H	0.160450	0.397424	0.278888
	H16	H	0.396770	0.717612	0.834278
	H17	H	0.595482	0.715778	0.160371
	H18	H	0.596403	0.284133	0.833939
	H19	H	0.397464	0.289100	0.160726
	H20	H	0.710432	0.835520	0.400639
	H21	H	0.707754	0.167639	0.595026
	H22	H	0.285182	0.834662	0.596640
	H23	H	0.282139	0.166300	0.399585
	H24	H	0.895828	0.336812	0.211298
	H25	H	0.099033	0.665238	0.213158
	H26	H	0.099074	0.336432	0.780361
	H27	H	0.895509	0.666237	0.780602
	H28	H	0.216768	0.897227	0.335230
	H29	H	0.210331	0.099815	0.660328
	H30	H	0.781322	0.099314	0.334465
	H31	H	0.783352	0.903223	0.661093
	H32	H	0.329812	0.213016	0.902482
	H33	H	0.661875	0.214176	0.095738
	H34	H	0.330511	0.790865	0.094718
	H35	H	0.662496	0.788672	0.901300
	H36	H	0.332941	0.900413	0.214535
	H37	H	0.661074	0.103872	0.214721
	H38	H	0.333452	0.104860	0.780376
	H39	H	0.661555	0.898772	0.781669
	H40	H	0.896620	0.214773	0.333746
	H41	H	0.095066	0.216203	0.659567
	H42	H	0.096326	0.785850	0.333128
	H43	H	0.898860	0.786203	0.660021
	H44	H	0.210383	0.335580	0.897322
	H45	H	0.207571	0.667396	0.093863
	H46	H	0.786526	0.334955	0.091522
	H47	H	0.783326	0.667714	0.898052
	H48	H	0.406979	0.124214	0.607126
	H49	H	0.590551	0.880568	0.596426
	H50	H	0.584591	0.120171	0.403747
	H51	H	0.410682	0.881442	0.398606
	H52	H	0.594812	0.411281	0.113523
	H53	H	0.586462	0.593267	0.881455
	H54	H	0.402115	0.601104	0.115603
	H55	H	0.384451	0.403931	0.874118
	H56	H	0.120616	0.599242	0.393701
	H57	H	0.881249	0.587447	0.583104
	H58	H	0.116313	0.407327	0.591773
	H59	H	0.883073	0.420581	0.408279
	H60	H	0.114968	0.406827	0.589084
	H61	H	0.877221	0.589384	0.596528
	H62	H	0.114048	0.595008	0.414416
	H63	H	0.874697	0.409780	0.388847
	H64	H	0.396653	0.591746	0.113539
	H65	H	0.589022	0.598511	0.879901
	H66	H	0.586901	0.411636	0.111022
	H67	H	0.408776	0.424621	0.887005
	H68	H	0.588349	0.119745	0.407419
	H69	H	0.584515	0.883993	0.590667
	H70	H	0.417043	0.113512	0.581540
	H71	H	0.412669	0.884527	0.410061
	H72	H	0.915730	0.614740	0.080868
	H73	H	0.079614	0.385626	0.086995
	H74	H	0.099365	0.622217	0.905900
	H75	H	0.900064	0.378976	0.897057
	H76	H	0.097888	0.917285	0.612559
	H77	H	0.082433	0.097785	0.381512
	H78	H	0.906069	0.097969	0.613908
	H79	H	0.898590	0.911198	0.381119
	H80	H	0.616292	0.091104	0.902241
	H81	H	0.382236	0.085701	0.086888
	H82	H	0.617959	0.910229	0.098133
	H83	H	0.377997	0.912844	0.899636
	H84	H	0.616091	0.902993	0.086842
	H85	H	0.376262	0.092344	0.100488
	H86	H	0.615876	0.094981	0.904257
	H87	H	0.376415	0.905264	0.902669
	H88	H	0.898520	0.099082	0.615095
	H89	H	0.098473	0.096920	0.376624
	H90	H	0.076807	0.906888	0.609326
	H91	H	0.908853	0.907995	0.381656
	H92	H	0.084688	0.623634	0.890333
	H93	H	0.094087	0.382950	0.081961
	H94	H	0.892717	0.622399	0.082885
	H95	H	0.911385	0.383998	0.899976
	H96	H	0.389026	0.122065	0.583883
	H97	H	0.593149	0.882347	0.587780
	H98	H	0.590179	0.121865	0.403055
	H99	H	0.401821	0.881310	0.406988
	H100	H	0.590314	0.403759	0.115035
	H101	H	0.592250	0.594206	0.878848
	H102	H	0.407339	0.593017	0.111364
	H103	H	0.416212	0.392235	0.879458
	H104	H	0.113103	0.578918	0.399228
	H105	H	0.876882	0.600915	0.587764
	H106	H	0.115078	0.409463	0.588844
	H107	H	0.875606	0.397414	0.408186
	H108	H	0.907418	0.623444	0.101855
	H109	H	0.091667	0.379579	0.097084
	H110	H	0.078393	0.615238	0.909793
	H111	H	0.902014	0.383314	0.909026
	H112	H	0.095983	0.895143	0.618216
	H113	H	0.090643	0.083718	0.382148
	H114	H	0.902574	0.092022	0.612951
	H115	H	0.900401	0.900861	0.377717
	H116	H	0.614780	0.091044	0.906084
	H117	H	0.376341	0.101938	0.088170
	H118	H	0.611020	0.915430	0.086484
	H119	H	0.378778	0.912554	0.907689
	C120	C	0.376026	0.010240	0.619653
	C121	C	0.618193	0.992141	0.619658
	C122	C	0.618068	0.011041	0.376041
	C123	C	0.376944	0.991711	0.376513
	C124	C	0.619234	0.378825	0.005527
	C125	C	0.618433	0.623985	0.987887
	C126	C	0.373582	0.624387	0.005635
	C127	C	0.373942	0.379127	0.988130
	C128	C	0.006413	0.621687	0.374442
	C129	C	0.987745	0.621171	0.617463
	C130	C	0.005776	0.379463	0.617684
	C131	C	0.987496	0.379225	0.373694
	C132	C	0.876689	0.510300	0.116636
	C133	C	0.117705	0.491821	0.117676
	C134	C	0.117122	0.510268	0.874449
	C135	C	0.875045	0.492016	0.873518
	C136	C	0.120037	0.877437	0.505510
	C137	C	0.118455	0.121963	0.488134
	C138	C	0.873806	0.123826	0.506015
	C139	C	0.874703	0.878447	0.488458
	C140	C	0.505983	0.122318	0.876231
	C141	C	0.487677	0.122808	0.119914
	C142	C	0.506010	0.880474	0.119309
	C143	C	0.487421	0.880573	0.875650
	C144	C	0.377507	0.885693	0.675542
	C145	C	0.617427	0.116909	0.675514
	C146	C	0.620185	0.886998	0.319344
	C147	C	0.374987	0.116006	0.320287
	C148	C	0.674321	0.380707	0.882316
	C149	C	0.674089	0.621528	0.110441
	C150	C	0.318812	0.622273	0.882763
	C151	C	0.318433	0.382573	0.110584
	C152	C	0.881277	0.677089	0.377743
	C153	C	0.113021	0.675171	0.614114
	C154	C	0.880390	0.326526	0.613944
	C155	C	0.112611	0.323793	0.376983
	C156	C	0.881735	0.380729	0.673884
	C157	C	0.112100	0.620648	0.673506
	C158	C	0.882303	0.623070	0.318223
	C159	C	0.111422	0.378987	0.317663
	C160	C	0.376277	0.679819	0.883248
	C161	C	0.616181	0.678532	0.111113
	C162	C	0.616631	0.322695	0.882700
	C163	C	0.376736	0.325626	0.111399
	C164	C	0.673652	0.885754	0.379388
	C165	C	0.672006	0.117551	0.616476
	C166	C	0.321534	0.885072	0.617228
	C167	C	0.320018	0.116635	0.379134
	C168	C	0.877402	0.385945	0.172499
	C169	C	0.117601	0.616119	0.174153
	C170	C	0.117827	0.385844	0.818784
	C171	C	0.876064	0.616759	0.818631
	C172	C	0.177346	0.878380	0.383338
	C173	C	0.173252	0.120196	0.611176
	C174	C	0.819033	0.120091	0.383240
	C175	C	0.820482	0.881888	0.611931
	C176	C	0.380365	0.176551	0.880611
	C177	C	0.612165	0.177677	0.116815
	C178	C	0.380601	0.827056	0.115953
	C179	C	0.612510	0.825231	0.879444
	C180	C	0.381981	0.881353	0.175785
	C181	C	0.611792	0.122440	0.175791
	C182	C	0.382095	0.122623	0.820000
	C183	C	0.612225	0.880065	0.820215
	C184	C	0.876562	0.177387	0.382726
	C185	C	0.115759	0.178121	0.610804
	C186	C	0.118056	0.822307	0.382604
	C187	C	0.878045	0.823636	0.611334
	C188	C	0.173143	0.385343	0.876902
	C189	C	0.171594	0.617223	0.114517
	C190	C	0.822782	0.385031	0.112963
	C191	C	0.820120	0.617512	0.876878
	C192	C	0.398023	0.097317	0.597574
	C193	C	0.595863	0.904814	0.597909
	C194	C	0.594316	0.097976	0.398078
	C195	C	0.401146	0.904952	0.398673
	C196	C	0.597175	0.402063	0.090867
	C197	C	0.595758	0.601926	0.902294
	C198	C	0.395549	0.601781	0.091428
	C199	C	0.396505	0.400549	0.902360
	C200	C	0.093369	0.598165	0.396167
	C201	C	0.901087	0.599248	0.595532
	C202	C	0.092911	0.401352	0.596110
	C203	C	0.900351	0.402314	0.395371
	C204	C	0.898727	0.597685	0.094862
	C205	C	0.095176	0.404979	0.095352
	C206	C	0.094222	0.597682	0.895752
	C207	C	0.897892	0.404597	0.895339
	C208	C	0.097030	0.899847	0.591182
	C209	C	0.097048	0.099361	0.402415
	C210	C	0.895948	0.102620	0.591939
	C211	C	0.896382	0.900194	0.402484
	C212	C	0.593168	0.099223	0.897985
	C213	C	0.400606	0.100005	0.098252
	C214	C	0.592494	0.902821	0.097120
	C215	C	0.400249	0.903570	0.896990
	Zn216	Zn	0.497666	0.001719	0.747445
	Zn217	Zn	0.497180	0.001423	0.248464
	Zn218	Zn	0.747912	0.501817	-0.004085
	Zn219	Zn	0.244739	0.501659	-0.004170
	Zn220	Zn	-0.003019	0.748877	0.496068
	Zn221	Zn	-0.003635	0.251904	0.496009
	Zn222	Zn	-0.002822	0.500789	0.746021
	Zn223	Zn	-0.003508	0.501324	0.245814
	Zn224	Zn	0.496327	0.752870	-0.002137
	Zn225	Zn	0.496593	0.250017	-0.002208
	Zn226	Zn	0.745190	0.001616	0.498262
	Zn227	Zn	0.248639	0.000174	0.497306
	N228	N	0.410816	0.964500	0.677238
	N229	N	0.585064	0.037766	0.677848
	N230	N	0.586431	0.965952	0.316943
	N231	N	0.409540	0.037190	0.318254
	N232	N	0.676319	0.414690	0.959646
	N233	N	0.675889	0.588453	0.032820
	N234	N	0.316862	0.588452	0.960001
	N235	N	0.316412	0.415015	0.032799
	N236	N	0.959475	0.676602	0.412079
	N237	N	0.034819	0.675845	0.579852
	N238	N	0.958562	0.325607	0.579653
	N239	N	0.034383	0.323803	0.411109
	N240	N	0.960823	0.412796	0.676471
	N241	N	0.033453	0.587795	0.675790
	N242	N	0.960975	0.589288	0.316225
	N243	N	0.032593	0.412826	0.315594
	N244	N	0.409552	0.681349	0.960814
	N245	N	0.582307	0.680280	0.033997
	N246	N	0.583232	0.321201	0.960263
	N247	N	0.410744	0.323326	0.034288
	N248	N	0.672502	0.963971	0.413995
	N249	N	0.672629	0.039063	0.582490
	N250	N	0.320580	0.963465	0.582961
	N251	N	0.320973	0.038478	0.413528
	N252	N	0.910036	0.464925	0.174983
	N253	N	0.085036	0.537181	0.176449
	N254	N	0.083770	0.464654	0.816932
	N255	N	0.909423	0.537675	0.816462
	N256	N	0.178898	0.911791	0.460869
	N257	N	0.174976	0.085889	0.533941
	N258	N	0.817091	0.087737	0.461079
	N259	N	0.818171	0.915169	0.534511
	N260	N	0.458494	0.176465	0.914881
	N261	N	0.533873	0.178087	0.082777
	N262	N	0.458652	0.826325	0.081242
	N263	N	0.534073	0.825220	0.913027
	N264	N	0.460987	0.913672	0.178222
	N265	N	0.533252	0.088970	0.177855
	N266	N	0.461364	0.089930	0.816992
	N267	N	0.533434	0.914023	0.817776
	N268	N	0.909936	0.179840	0.460105
	N269	N	0.082520	0.179440	0.533305
	N270	N	0.083311	0.821337	0.459669
	N271	N	0.910828	0.821246	0.533423
	N272	N	0.173022	0.463887	0.910725
	N273	N	0.171950	0.538970	0.079904
	N274	N	0.822177	0.463396	0.078862
	N275	N	0.819193	0.538840	0.910217
	O276	O	-0.031337	-0.054288	-0.034007
	H277	H	-0.037542	-0.053648	-0.027341
	H278	H	-0.034692	-0.050388	-0.036641
	O279	O	0.567897	0.479799	0.456281
	H280	H	0.567019	0.489157	0.446958
	H281	H	0.573955	0.482135	0.443570
	O282	O	0.603394	0.498212	0.549508
	H283	H	0.602669	0.499939	0.552880
	H284	H	0.596905	0.495607	0.548151
	O285	O	-0.006853	1.000250	1.034766
	H286	H	-0.012495	1.007075	1.035889
	H287	H	-0.011816	0.990384	1.032788
	O288	O	0.440758	0.574553	0.386284
	H289	H	0.441238	0.573405	0.398578
	H290	H	0.431669	0.578222	0.388521
	O291	O	1.042133	1.052414	1.046387
	H292	H	1.046380	1.043687	1.051642
	H293	H	1.042550	1.051364	1.050948
	O294	O	0.992015	1.093610	0.913313
	H295	H	1.006920	1.088671	0.915942
	H296	H	1.003563	1.090964	0.914288
	O297	O	1.058745	0.026080	0.967709
	H298	H	1.059086	0.017045	0.968829
	H299	H	1.070990	0.030599	0.967038
	O300	O	0.429039	0.476194	0.591229
	H301	H	0.422844	0.483103	0.586705
	H302	H	0.419919	0.479542	0.582852
	O303	O	1.037127	-0.079510	-0.061714
	H304	H	1.034552	-0.074964	-0.069227
	H305	H	1.038746	-0.088968	-0.063034
	O306	O	-0.022851	0.940226	1.050906
	H307	H	-0.026308	0.943350	1.048371
	H308	H	-0.007439	0.939882	1.053534
	O309	O	0.356198	0.498715	0.537995
	H310	H	0.349777	0.504395	0.532984
	H311	H	0.343954	0.505132	0.547023
	O312	O	1.009855	0.054252	1.042262
	H313	H	1.017600	0.060273	1.039852
	H314	H	1.019614	0.046262	1.038677
	O315	O	0.457969	0.554655	0.505941
	H316	H	0.450391	0.553202	0.514769
	H317	H	0.471415	0.565307	0.512417
	O318	O	0.526880	0.487773	0.395946
	H319	H	0.525654	0.476305	0.405366
	H320	H	0.527977	0.494511	0.393963
	O321	O	1.007476	1.092314	1.040899
	H322	H	1.001797	1.086194	1.046253
	H323	H	0.998664	1.089886	1.035359
	O324	O	0.566602	0.356502	0.427402
	H325	H	0.572589	0.367017	0.438960
	H326	H	0.568785	0.355410	0.421994
	O327	O	0.499733	0.568342	0.443706
	H328	H	0.514128	0.557847	0.441754
	H329	H	0.505210	0.570559	0.435767
	O330	O	0.999406	0.061380	1.060145
	H331	H	1.003538	0.049182	1.056560
	H332	H	0.989625	0.066998	1.053923
	O333	O	1.022524	0.919207	-0.037070
	H334	H	1.013298	0.926554	-0.038351
	H335	H	1.019063	0.928931	-0.031669
	O336	O	0.499821	0.580023	0.559133
	H337	H	0.503303	0.592285	0.559204
	H338	H	0.496166	0.569877	0.564732
	O339	O	0.441494	0.549035	0.626204
	H340	H	0.445594	0.547558	0.635272
	H341	H	0.442650	0.541141	0.611957
	O342	O	-0.100633	1.051962	-0.090983
	H343	H	-0.101617	1.046078	-0.106375
	H344	H	-0.108219	1.057062	-0.083333
	O345	O	0.026876	-0.005969	0.039206
	H346	H	0.033597	0.000049	0.031094
	H347	H	0.027268	-0.004946	0.042537
	O348	O	0.417544	0.489944	0.476588
	H349	H	0.406954	0.496430	0.482265
	H350	H	0.424644	0.483804	0.468725
	O351	O	0.535414	0.477852	0.549597
	H352	H	0.527586	0.468839	0.543798
	H353	H	0.540794	0.476229	0.548745
	O354	O	0.508824	0.613354	0.433897
	H355	H	0.494137	0.604873	0.441805
	H356	H	0.509347	0.608052	0.413928
	O357	O	0.543240	0.508876	0.640951
	H358	H	0.545483	0.512307	0.639492
	H359	H	0.558682	0.499175	0.638732
	O360	O	0.024667	-0.056734	-0.058565
	H361	H	0.025250	-0.064961	-0.060560
	H362	H	0.018821	-0.056926	-0.053824
	O363	O	0.511461	0.399571	0.416333
	H364	H	0.516445	0.392314	0.417655
	H365	H	0.517430	0.402397	0.414255
	O366	O	-0.105570	0.033410	1.007353
	H367	H	-0.105518	0.042008	1.007417
	H368	H	-0.107885	0.035538	1.004109
	O369	O	0.597364	0.422455	0.433398
	H370	H	0.605472	0.416692	0.436880
	H371	H	0.587640	0.416438	0.434651
