data_Molecule from HDF5

_cell_length_a		16.451129
_cell_length_b		16.130563
_cell_length_c		16.257881
_cell_angle_alpha	90.181918
_cell_angle_beta	90.026955
_cell_angle_gamma	89.843646
_symmetry_space_group_name_H-M	'P 1'
_symmetry_Int_Tables_number		1

loop_
	_symmetry_equiv_pos_as_xyz
	x,y,z

loop_
	_atom_site_label
	_atom_site_type_symbol
	_atom_site_fract_x
	_atom_site_fract_y
	_atom_site_fract_z
	H0	H	0.394509	0.829948	0.714025
	H1	H	0.597617	0.155623	0.717200
	H2	H	0.592812	0.829480	0.284896
	H3	H	0.396268	0.159592	0.286318
	H4	H	0.717242	0.385596	0.842318
	H5	H	0.712405	0.598619	0.162807
	H6	H	0.274573	0.596458	0.841587
	H7	H	0.279123	0.389684	0.164249
	H8	H	0.836188	0.711497	0.402052
	H9	H	0.157467	0.710306	0.604941
	H10	H	0.836809	0.273275	0.608061
	H11	H	0.157894	0.275577	0.403648
	H12	H	0.836234	0.388829	0.723189
	H13	H	0.155578	0.595592	0.723038
	H14	H	0.836519	0.596696	0.283322
	H15	H	0.156133	0.387079	0.281836
	H16	H	0.393406	0.707233	0.837406
	H17	H	0.592702	0.709500	0.163646
	H18	H	0.596774	0.276880	0.838875
	H19	H	0.398048	0.278525	0.164086
	H20	H	0.715577	0.832018	0.391655
	H21	H	0.714851	0.154921	0.603929
	H22	H	0.279230	0.830720	0.599802
	H23	H	0.276721	0.157590	0.396186
	H24	H	0.896867	0.328515	0.218216
	H25	H	0.095087	0.656575	0.218123
	H26	H	0.097635	0.330014	0.784725
	H27	H	0.893243	0.656987	0.788038
	H28	H	0.211523	0.890354	0.337564
	H29	H	0.217312	0.098747	0.660513
	H30	H	0.778058	0.099244	0.338922
	H31	H	0.771993	0.885450	0.658818
	H32	H	0.334577	0.211170	0.899348
	H33	H	0.657118	0.210098	0.100580
	H34	H	0.332897	0.778080	0.100014
	H35	H	0.655880	0.774135	0.899146
	H36	H	0.333643	0.894546	0.217115
	H37	H	0.655223	0.097378	0.219537
	H38	H	0.335094	0.096648	0.780462
	H39	H	0.655138	0.886880	0.778981
	H40	H	0.896763	0.211756	0.340609
	H41	H	0.096876	0.207200	0.665162
	H42	H	0.096865	0.775112	0.338920
	H43	H	0.899120	0.782012	0.665989
	H44	H	0.214219	0.330283	0.900131
	H45	H	0.214688	0.654229	0.110143
	H46	H	0.775229	0.331264	0.108564
	H47	H	0.775708	0.655256	0.900167
	H48	H	0.406679	0.110711	0.591677
	H49	H	0.581599	0.878129	0.585024
	H50	H	0.586235	0.107701	0.415962
	H51	H	0.395494	0.872933	0.400227
	H52	H	0.585803	0.405588	0.116889
	H53	H	0.587185	0.584704	0.884826
	H54	H	0.397848	0.583333	0.118611
	H55	H	0.402698	0.401547	0.884781
	H56	H	0.113309	0.580116	0.398721
	H57	H	0.880688	0.586680	0.598219
	H58	H	0.110824	0.403327	0.597877
	H59	H	0.884337	0.401789	0.417583
	H60	H	0.111138	0.400537	0.593498
	H61	H	0.880854	0.589306	0.594923
	H62	H	0.112539	0.594905	0.416417
	H63	H	0.883754	0.408546	0.409485
	H64	H	0.407894	0.582190	0.115523
	H65	H	0.589199	0.577289	0.884845
	H66	H	0.584607	0.402065	0.117207
	H67	H	0.400336	0.404530	0.885033
	H68	H	0.593887	0.113499	0.409417
	H69	H	0.588275	0.876798	0.583595
	H70	H	0.407564	0.108458	0.585816
	H71	H	0.412822	0.879149	0.403338
	H72	H	0.902605	0.609169	0.093220
	H73	H	0.093667	0.373675	0.092131
	H74	H	0.084517	0.610637	0.909128
	H75	H	0.905408	0.377848	0.915704
	H76	H	0.088652	0.896992	0.618819
	H77	H	0.088729	0.086035	0.383497
	H78	H	0.904783	0.079003	0.615673
	H79	H	0.903505	0.907831	0.386092
	H80	H	0.613184	0.084295	0.896978
	H81	H	0.382409	0.083058	0.089165
	H82	H	0.608680	0.894036	0.083328
	H83	H	0.379937	0.901747	0.904782
	H84	H	0.605272	0.912303	0.089542
	H85	H	0.379937	0.083909	0.097149
	H86	H	0.610275	0.092286	0.914935
	H87	H	0.380708	0.900622	0.907942
	H88	H	0.904169	0.082662	0.616611
	H89	H	0.087597	0.081212	0.386197
	H90	H	0.096501	0.907273	0.618288
	H91	H	0.910972	0.902212	0.386550
	H92	H	0.081321	0.606273	0.918194
	H93	H	0.084875	0.375273	0.096983
	H94	H	0.903271	0.609886	0.093594
	H95	H	0.904731	0.376612	0.913519
	H96	H	0.401632	0.110097	0.587274
	H97	H	0.585760	0.876060	0.589875
	H98	H	0.583358	0.111265	0.405120
	H99	H	0.400172	0.878988	0.417853
	H100	H	0.588369	0.402551	0.118554
	H101	H	0.583181	0.579340	0.887019
	H102	H	0.403790	0.591654	0.119768
	H103	H	0.404229	0.404289	0.886544
	H104	H	0.105187	0.572609	0.418518
	H105	H	0.882163	0.585010	0.594570
	H106	H	0.108377	0.405130	0.593640
	H107	H	0.880943	0.398714	0.408413
	H108	H	0.903568	0.609862	0.092881
	H109	H	0.086458	0.377958	0.087396
	H110	H	0.090988	0.609721	0.917822
	H111	H	0.906329	0.377401	0.914445
	H112	H	0.084832	0.908580	0.613469
	H113	H	0.083691	0.084708	0.385942
	H114	H	0.902337	0.079910	0.616579
	H115	H	0.903428	0.899065	0.382925
	H116	H	0.605119	0.072695	0.911501
	H117	H	0.380068	0.089776	0.091341
	H118	H	0.612499	0.899889	0.101223
	H119	H	0.381582	0.903847	0.906081
	C120	C	0.374711	0.002057	0.619009
	C121	C	0.616574	0.984044	0.618951
	C122	C	0.617252	0.002780	0.378369
	C123	C	0.373239	0.985853	0.377768
	C124	C	0.617333	0.371488	0.010710
	C125	C	0.615814	0.612849	0.992684
	C126	C	0.372487	0.615079	0.010509
	C127	C	0.374133	0.372512	0.993052
	C128	C	0.004718	0.614074	0.381007
	C129	C	0.987443	0.616379	0.626111
	C130	C	0.004763	0.371501	0.625777
	C131	C	0.988644	0.370993	0.381053
	C132	C	0.873639	0.501542	0.123941
	C133	C	0.117452	0.483375	0.123693
	C134	C	0.116368	0.501355	0.882984
	C135	C	0.874013	0.484618	0.882954
	C136	C	0.118785	0.872429	0.509629
	C137	C	0.117407	0.114694	0.492233
	C138	C	0.873861	0.113919	0.509960
	C139	C	0.875216	0.872291	0.492231
	C140	C	0.503636	0.114498	0.877395
	C141	C	0.487003	0.115695	0.122482
	C142	C	0.502619	0.872523	0.121363
	C143	C	0.486586	0.870224	0.876370
	C144	C	0.374877	0.879084	0.676118
	C145	C	0.616926	0.106644	0.678284
	C146	C	0.614331	0.879042	0.322002
	C147	C	0.375442	0.109840	0.322883
	C148	C	0.676830	0.368355	0.889984
	C149	C	0.672703	0.615751	0.114596
	C150	C	0.313939	0.615325	0.889247
	C151	C	0.317793	0.371423	0.115369
	C152	C	0.884011	0.672306	0.382138
	C153	C	0.108856	0.672090	0.624817
	C154	C	0.884552	0.312614	0.626618
	C155	C	0.109561	0.313736	0.382908
	C156	C	0.884026	0.370444	0.683977
	C157	C	0.107846	0.615320	0.684051
	C158	C	0.884286	0.615281	0.322819
	C159	C	0.108679	0.369270	0.322189
	C160	C	0.373330	0.670218	0.887176
	C161	C	0.613127	0.671025	0.114956
	C162	C	0.616872	0.314221	0.888222
	C163	C	0.376936	0.315879	0.115427
	C164	C	0.675211	0.880292	0.375174
	C165	C	0.675095	0.106289	0.621527
	C166	C	0.317500	0.879543	0.619146
	C167	C	0.316072	0.108697	0.377647
	C168	C	0.875804	0.378030	0.180805
	C169	C	0.115729	0.606908	0.180856
	C170	C	0.116676	0.378722	0.824146
	C171	C	0.873379	0.607548	0.825550
	C172	C	0.174041	0.871376	0.386738
	C173	C	0.176720	0.116074	0.613245
	C174	C	0.817042	0.117049	0.387796
	C175	C	0.813960	0.869067	0.612170
	C176	C	0.382846	0.172278	0.878917
	C177	C	0.608365	0.172301	0.120987
	C178	C	0.381344	0.816250	0.119877
	C179	C	0.607628	0.812441	0.878204
	C180	C	0.381646	0.874248	0.178282
	C181	C	0.607655	0.116247	0.180328
	C182	C	0.383048	0.115412	0.819643
	C183	C	0.607289	0.869172	0.818892
	C184	C	0.875751	0.173382	0.388840
	C185	C	0.117005	0.170203	0.615540
	C186	C	0.117098	0.813807	0.387497
	C187	C	0.877118	0.817413	0.615683
	C188	C	0.174746	0.378947	0.881371
	C189	C	0.175170	0.605836	0.126781
	C190	C	0.815407	0.379255	0.126190
	C191	C	0.814946	0.606675	0.881592
	C192	C	0.398348	0.087503	0.595206
	C193	C	0.592447	0.898996	0.593631
	C194	C	0.594522	0.088625	0.402871
	C195	C	0.396256	0.899410	0.400440
	C196	C	0.593369	0.396237	0.095539
	C197	C	0.593125	0.587721	0.907777
	C198	C	0.396127	0.592320	0.095662
	C199	C	0.396116	0.396389	0.907822
	C200	C	0.088620	0.589637	0.404424
	C201	C	0.903115	0.593515	0.602697
	C202	C	0.088273	0.395848	0.602007
	C203	C	0.904695	0.395865	0.404895
	C204	C	0.896385	0.587317	0.100082
	C205	C	0.094956	0.397670	0.099260
	C206	C	0.092434	0.586806	0.907828
	C207	C	0.898472	0.399442	0.907437
	C208	C	0.096503	0.897105	0.594726
	C209	C	0.093477	0.090966	0.407379
	C210	C	0.896976	0.088041	0.594333
	C211	C	0.899065	0.896071	0.407393
	C212	C	0.587692	0.090265	0.900888
	C213	C	0.402743	0.092289	0.099378
	C214	C	0.586910	0.895491	0.098187
	C215	C	0.402516	0.894838	0.899507
	Zn216	Zn	0.494993	-0.007141	0.747148
	Zn217	Zn	0.495297	-0.005732	0.251697
	Zn218	Zn	0.745168	0.492613	0.002810
	Zn219	Zn	0.245291	0.493429	0.003572
	Zn220	Zn	-0.002597	0.744752	0.502326
	Zn221	Zn	-0.003425	0.242270	0.503989
	Zn222	Zn	-0.005189	0.493119	0.754535
	Zn223	Zn	-0.003552	0.492410	0.250828
	Zn224	Zn	0.494615	0.741743	-0.000511
	Zn225	Zn	0.495579	0.243955	0.000214
	Zn226	Zn	0.745558	-0.007598	0.498594
	Zn227	Zn	0.246093	-0.005476	0.498941
	N228	N	0.409744	0.956335	0.676187
	N229	N	0.581310	0.029470	0.677047
	N230	N	0.579203	0.956427	0.323653
	N231	N	0.410423	0.032247	0.322841
	N232	N	0.677364	0.403324	0.967046
	N233	N	0.674304	0.580110	0.037760
	N234	N	0.312927	0.582181	0.967148
	N235	N	0.315776	0.405823	0.038185
	N236	N	0.959862	0.671698	0.417594
	N237	N	0.032941	0.672976	0.589555
	N238	N	0.960318	0.313080	0.591137
	N239	N	0.033911	0.314844	0.418746
	N240	N	0.959585	0.406580	0.683507
	N241	N	0.031164	0.581682	0.685179
	N242	N	0.960259	0.579838	0.322081
	N243	N	0.032401	0.404274	0.321035
	N244	N	0.408981	0.670259	0.963559
	N245	N	0.578607	0.669574	0.037877
	N246	N	0.580557	0.315913	0.964349
	N247	N	0.411211	0.316305	0.038385
	N248	N	0.677307	0.958302	0.409338
	N249	N	0.675031	0.029011	0.585526
	N250	N	0.317276	0.957062	0.584384
	N251	N	0.314592	0.030457	0.410840
	N252	N	0.911141	0.455210	0.179631
	N253	N	0.080453	0.529723	0.179111
	N254	N	0.081037	0.455969	0.825067
	N255	N	0.909591	0.530632	0.826346
	N256	N	0.175357	0.907044	0.463740
	N257	N	0.177152	0.082278	0.535517
	N258	N	0.815541	0.081027	0.464334
	N259	N	0.812710	0.902184	0.534347
	N260	N	0.458933	0.172123	0.913918
	N261	N	0.532238	0.172356	0.085879
	N262	N	0.457481	0.815209	0.084997
	N263	N	0.531684	0.813034	0.913261
	N264	N	0.458086	0.908548	0.179324
	N265	N	0.531355	0.081994	0.181550
	N266	N	0.459228	0.080094	0.818629
	N267	N	0.530937	0.904306	0.817562
	N268	N	0.910393	0.171692	0.465752
	N269	N	0.080933	0.169644	0.539384
	N270	N	0.083816	0.814030	0.465001
	N271	N	0.914463	0.819164	0.540021
	N272	N	0.174680	0.456288	0.917123
	N273	N	0.176580	0.528058	0.092080
	N274	N	0.813918	0.457004	0.091697
	N275	N	0.815084	0.529068	0.916249
	O276	O	0.589593	0.332913	0.591497
	H277	H	0.586362	0.335109	0.574690
	H278	H	0.589724	0.320438	0.592824
	O279	O	0.516416	0.420155	0.451245
	H280	H	0.507809	0.415481	0.449762
	H281	H	0.528016	0.421903	0.461770
	O282	O	0.911669	-0.144813	0.920763
	H283	H	0.916418	-0.142094	0.918753
	H284	H	0.915747	-0.151803	0.909446
	O285	O	0.351548	0.517330	0.507655
	H286	H	0.350474	0.517154	0.514434
	H287	H	0.351046	0.521164	0.505584
	O288	O	0.797140	1.165109	0.980058
	H289	H	0.784186	1.164382	0.983654
	H290	H	0.798335	1.156834	0.994721
	O291	O	0.074335	1.104014	-0.028177
	H292	H	0.061647	1.115573	-0.032385
	H293	H	0.061614	1.105730	-0.010842
	O294	O	0.390601	0.497888	0.426280
	H295	H	0.387126	0.489587	0.427919
	H296	H	0.389347	0.504723	0.431306
	O297	O	0.447099	0.351011	0.454718
	H298	H	0.456044	0.350727	0.462590
	H299	H	0.447942	0.348491	0.450657
	O300	O	0.539888	0.592517	0.440936
	H301	H	0.539377	0.580578	0.430738
	H302	H	0.531762	0.588722	0.441216
	O303	O	0.682841	0.381790	0.532861
	H304	H	0.683681	0.394580	0.533152
	H305	H	0.675254	0.358323	0.530312
	O306	O	0.488583	0.653953	0.462863
	H307	H	0.483935	0.646004	0.472254
	H308	H	0.488052	0.653615	0.468089
	O309	O	0.440577	0.550522	0.686636
	H310	H	0.462943	0.544352	0.693590
	H311	H	0.454595	0.564890	0.685533
	O312	O	0.017893	-0.156664	0.113154
	H313	H	0.036129	-0.146155	0.107332
	H314	H	0.022644	-0.159996	0.105885
	O315	O	0.575094	0.463029	0.514978
	H316	H	0.577516	0.459622	0.506696
	H317	H	0.594704	0.457460	0.505924
	O318	O	-0.191593	1.010490	0.874974
	H319	H	-0.200293	1.002354	0.867198
	H320	H	-0.183376	0.987924	0.884329
	O321	O	0.335455	0.637728	0.429221
	H322	H	0.331851	0.645954	0.434795
	H323	H	0.330929	0.638861	0.447279
	O324	O	-0.060795	1.012393	0.071666
	H325	H	-0.051624	1.021520	0.059566
	H326	H	-0.080767	1.004838	0.072561
	O327	O	0.581062	0.539971	0.490601
	H328	H	0.582772	0.539283	0.477956
	H329	H	0.583841	0.547426	0.479847
	O330	O	0.362846	-0.569156	1.472768
	H331	H	0.360208	-0.558267	1.471537
	H332	H	0.361267	-0.563400	1.477249
	O333	O	-0.007943	-0.088028	1.024548
	H334	H	-0.018120	-0.090311	1.028625
	H335	H	-0.002694	-0.082437	1.039362
	O336	O	0.525316	0.507780	0.305598
	H337	H	0.516110	0.521281	0.310648
	H338	H	0.519012	0.501376	0.297870
	O339	O	1.032977	0.086755	0.160574
	H340	H	1.036867	0.090873	0.159935
	H341	H	1.042419	0.088513	0.154977
	O342	O	0.164650	-0.064147	0.054178
	H343	H	0.160181	-0.054451	0.054727
	H344	H	0.182643	-0.061701	0.053018
	O345	O	1.068243	-0.052604	0.976991
	H346	H	1.070140	-0.059049	0.972284
	H347	H	1.068945	-0.049152	0.975230
	O348	O	0.935099	1.023363	0.102239
	H349	H	0.931639	1.007453	0.103504
	H350	H	0.945054	1.014181	0.098343
	O351	O	0.546068	0.377657	0.643779
	H352	H	0.544201	0.382278	0.644822
	H353	H	0.554012	0.380086	0.642397
	O354	O	1.119694	0.093848	1.039528
	H355	H	1.116808	0.101399	1.041993
	H356	H	1.102628	0.099271	1.033755
	O357	O	0.578428	0.647746	0.607471
	H358	H	0.585477	0.638044	0.615990
	H359	H	0.575214	0.638685	0.606352
	O360	O	0.340726	0.470811	0.664482
	H361	H	0.335169	0.455958	0.667792
	H362	H	0.346238	0.469303	0.668200
	O363	O	0.077918	0.943988	0.859652
	H364	H	0.076696	0.943974	0.844494
	H365	H	0.085852	0.949472	0.872522
	O366	O	0.496367	0.584883	0.506331
	H367	H	0.503695	0.601346	0.512108
	H368	H	0.503938	0.581385	0.509761
	O369	O	0.035456	0.977831	-0.112865
	H370	H	0.036846	0.985032	-0.106219
	H371	H	0.032342	0.984884	-0.108311
	O372	O	0.650745	0.676405	0.510736
	H373	H	0.664480	0.691520	0.511742
	H374	H	0.631043	0.659135	0.513732
	O375	O	0.596573	0.354213	0.315192
	H376	H	0.582450	0.353558	0.318816
	H377	H	0.588124	0.342560	0.305052
	O378	O	1.004904	0.897989	0.037941
	H379	H	1.016456	0.867114	0.026703
	H380	H	0.995125	0.898910	0.036823
	O381	O	1.118085	-0.101006	-0.088001
	H382	H	1.136056	-0.099551	-0.082359
	H383	H	1.128954	-0.092773	-0.096060
	O384	O	0.939578	0.937017	0.043542
	H385	H	0.938876	0.938748	0.045303
	H386	H	0.937004	0.934611	0.049205
	O387	O	0.088832	0.176793	0.006340
	H388	H	0.093457	0.175079	0.020194
	H389	H	0.074301	0.182809	0.007602
	O390	O	-0.063080	0.929975	-0.159622
	H391	H	-0.070307	0.931411	-0.172670
	H392	H	-0.052196	0.926688	-0.146703
	O393	O	1.046824	0.992582	1.070617
	H394	H	1.064820	0.988403	1.072942
	H395	H	1.038870	1.003856	1.061639
	O396	O	0.388247	0.447827	0.506371
	H397	H	0.382407	0.451581	0.496285
	H398	H	0.401171	0.451689	0.508113
	O399	O	-0.164196	1.103284	0.832728
	H400	H	-0.177410	1.080562	0.827596
	H401	H	-0.179598	1.104523	0.853642
	O402	O	0.409178	0.392052	0.541875
	H403	H	0.406678	0.395730	0.531477
	H404	H	0.410192	0.393686	0.537824
	O405	O	0.911770	0.888438	0.142097
	H406	H	0.912610	0.884513	0.138438
	H407	H	0.917820	0.888378	0.126286
	O408	O	0.899030	0.949942	0.178707
	H409	H	0.898040	0.943518	0.185236
	H410	H	0.895165	0.937451	0.180152
	O411	O	0.978731	0.082416	0.821984
	H412	H	0.972525	0.081010	0.815150
	H413	H	0.985359	0.082966	0.819167
	O414	O	0.571572	0.547320	0.438944
	H415	H	0.572115	0.547140	0.443085
	H416	H	0.577257	0.536577	0.441096
	O417	O	0.687004	0.439495	0.508673
	H418	H	0.693955	0.435271	0.521218
	H419	H	0.685706	0.430376	0.496994
