data_Molecule from HDF5

_cell_length_a		16.014236
_cell_length_b		16.230441
_cell_length_c		16.492772
_cell_angle_alpha	89.819490
_cell_angle_beta	90.165640
_cell_angle_gamma	89.472314
_symmetry_space_group_name_H-M	'P 1'
_symmetry_Int_Tables_number		1

loop_
	_symmetry_equiv_pos_as_xyz
	x,y,z

loop_
	_atom_site_label
	_atom_site_type_symbol
	_atom_site_fract_x
	_atom_site_fract_y
	_atom_site_fract_z
	H0	H	0.396739	0.841752	0.715134
	H1	H	0.604590	0.163697	0.710660
	H2	H	0.607842	0.841898	0.272520
	H3	H	0.395151	0.165336	0.277672
	H4	H	0.718698	0.403096	0.834854
	H5	H	0.716939	0.602502	0.156618
	H6	H	0.282327	0.603016	0.834863
	H7	H	0.291468	0.408715	0.158670
	H8	H	0.836244	0.713892	0.398142
	H9	H	0.166530	0.710342	0.597271
	H10	H	0.834866	0.286124	0.597262
	H11	H	0.166646	0.283653	0.402367
	H12	H	0.837074	0.397094	0.715179
	H13	H	0.164661	0.600264	0.714660
	H14	H	0.837503	0.601848	0.281159
	H15	H	0.164208	0.390785	0.280595
	H16	H	0.397833	0.721797	0.834115
	H17	H	0.603857	0.721772	0.154855
	H18	H	0.603703	0.284691	0.834208
	H19	H	0.396923	0.283184	0.153663
	H20	H	0.712172	0.835537	0.399120
	H21	H	0.714127	0.164679	0.590080
	H22	H	0.296545	0.833781	0.588148
	H23	H	0.282801	0.163515	0.396553
	H24	H	0.895785	0.337051	0.217118
	H25	H	0.105132	0.659574	0.220061
	H26	H	0.110679	0.339138	0.780668
	H27	H	0.891494	0.659531	0.774041
	H28	H	0.218132	0.896578	0.334990
	H29	H	0.217335	0.092891	0.657894
	H30	H	0.787184	0.098743	0.333635
	H31	H	0.783429	0.899280	0.656085
	H32	H	0.334109	0.220420	0.892296
	H33	H	0.666016	0.213782	0.089005
	H34	H	0.335841	0.792912	0.092196
	H35	H	0.666632	0.787023	0.893895
	H36	H	0.338386	0.902123	0.211158
	H37	H	0.663165	0.109422	0.211836
	H38	H	0.336873	0.110429	0.772222
	H39	H	0.665477	0.899076	0.776888
	H40	H	0.895088	0.221699	0.337991
	H41	H	0.104313	0.214596	0.658014
	H42	H	0.104754	0.778468	0.337351
	H43	H	0.897934	0.780258	0.657037
	H44	H	0.214885	0.337210	0.904928
	H45	H	0.208549	0.666946	0.094035
	H46	H	0.785302	0.336922	0.096673
	H47	H	0.786344	0.664736	0.898637
	H48	H	0.408851	0.118374	0.585565
	H49	H	0.602943	0.882721	0.582886
	H50	H	0.587883	0.117592	0.401003
	H51	H	0.414058	0.885348	0.399748
	H52	H	0.591079	0.403853	0.110566
	H53	H	0.588410	0.598829	0.880694
	H54	H	0.403272	0.604683	0.113606
	H55	H	0.410647	0.408662	0.879297
	H56	H	0.118512	0.584569	0.407166
	H57	H	0.886139	0.582273	0.584817
	H58	H	0.123226	0.403973	0.600162
	H59	H	0.884090	0.417628	0.400468
	H60	H	0.120272	0.398384	0.585108
	H61	H	0.881026	0.588384	0.594723
	H62	H	0.120438	0.585975	0.406131
	H63	H	0.879104	0.403173	0.403397
	H64	H	0.406365	0.595051	0.110514
	H65	H	0.596615	0.596085	0.879279
	H66	H	0.595005	0.411285	0.109972
	H67	H	0.403252	0.412704	0.879798
	H68	H	0.594757	0.118380	0.403518
	H69	H	0.587750	0.881667	0.599477
	H70	H	0.411237	0.116878	0.584528
	H71	H	0.413555	0.883743	0.398142
	H72	H	0.910602	0.616792	0.096824
	H73	H	0.094610	0.385201	0.087607
	H74	H	0.091342	0.618917	0.902205
	H75	H	0.920088	0.388440	0.912595
	H76	H	0.094555	0.906638	0.610357
	H77	H	0.084352	0.098127	0.381788
	H78	H	0.908154	0.096598	0.613352
	H79	H	0.915628	0.895502	0.380162
	H80	H	0.618404	0.104301	0.909597
	H81	H	0.378475	0.100303	0.089094
	H82	H	0.615315	0.915119	0.075415
	H83	H	0.382612	0.911766	0.901317
	H84	H	0.618225	0.921292	0.090022
	H85	H	0.383313	0.096160	0.078600
	H86	H	0.612232	0.080442	0.905840
	H87	H	0.385329	0.917174	0.905087
	H88	H	0.903069	0.086928	0.611224
	H89	H	0.098929	0.093193	0.379845
	H90	H	0.094441	0.899833	0.612590
	H91	H	0.899124	0.905039	0.378165
	H92	H	0.087157	0.618706	0.900201
	H93	H	0.099631	0.381024	0.092762
	H94	H	0.918116	0.613701	0.090596
	H95	H	0.902656	0.382397	0.909576
	H96	H	0.409506	0.118035	0.582468
	H97	H	0.581498	0.890479	0.580141
	H98	H	0.593670	0.120700	0.396407
	H99	H	0.415436	0.884667	0.397638
	H100	H	0.587062	0.410353	0.108121
	H101	H	0.590436	0.590504	0.882016
	H102	H	0.412522	0.602903	0.109647
	H103	H	0.410402	0.416478	0.881877
	H104	H	0.119185	0.586701	0.408973
	H105	H	0.882559	0.594291	0.583979
	H106	H	0.115709	0.415012	0.589046
	H107	H	0.885870	0.410807	0.414623
	H108	H	0.909467	0.615067	0.086595
	H109	H	0.091696	0.382295	0.094812
	H110	H	0.087015	0.617063	0.904951
	H111	H	0.915402	0.381450	0.896729
	H112	H	0.100862	0.902845	0.612521
	H113	H	0.088591	0.083381	0.384712
	H114	H	0.915006	0.088059	0.608807
	H115	H	0.914171	0.913424	0.384664
	H116	H	0.621756	0.093662	0.887879
	H117	H	0.382755	0.088489	0.088010
	H118	H	0.622771	0.905602	0.085991
	H119	H	0.383697	0.917319	0.897953
	C120	C	0.381445	0.009853	0.614237
	C121	C	0.621762	0.992495	0.615959
	C122	C	0.623176	0.010939	0.371261
	C123	C	0.380792	0.992350	0.371078
	C124	C	0.622209	0.379644	0.003608
	C125	C	0.622138	0.624737	0.986760
	C126	C	0.376814	0.628622	0.004630
	C127	C	0.379165	0.382567	0.986540
	C128	C	0.010582	0.617350	0.377501
	C129	C	0.992117	0.618292	0.617814
	C130	C	0.010417	0.376867	0.620376
	C131	C	0.991834	0.378177	0.377741
	C132	C	0.880737	0.507859	0.120176
	C133	C	0.123349	0.491074	0.120685
	C134	C	0.121338	0.510101	0.875707
	C135	C	0.880430	0.491640	0.875724
	C136	C	0.125942	0.873780	0.505450
	C137	C	0.121990	0.119347	0.488530
	C138	C	0.878604	0.121473	0.505175
	C139	C	0.879234	0.875640	0.487492
	C140	C	0.508525	0.124717	0.870911
	C141	C	0.490458	0.124754	0.114125
	C142	C	0.510238	0.884293	0.113626
	C143	C	0.492586	0.883100	0.871997
	C144	C	0.380139	0.888731	0.673857
	C145	C	0.622476	0.114923	0.671617
	C146	C	0.624976	0.889458	0.313189
	C147	C	0.377128	0.115783	0.315792
	C148	C	0.680098	0.382103	0.882752
	C149	C	0.678898	0.623157	0.108253
	C150	C	0.320327	0.624922	0.883094
	C151	C	0.326510	0.386191	0.109303
	C152	C	0.885887	0.675072	0.378504
	C153	C	0.116629	0.673467	0.617132
	C154	C	0.885223	0.322731	0.617827
	C155	C	0.116782	0.320839	0.380702
	C156	C	0.886409	0.377861	0.676787
	C157	C	0.115703	0.618462	0.675538
	C158	C	0.886777	0.619784	0.319787
	C159	C	0.115516	0.374206	0.320288
	C160	C	0.377715	0.683906	0.882822
	C161	C	0.622530	0.682676	0.107109
	C162	C	0.622483	0.323660	0.882374
	C163	C	0.379100	0.323608	0.106490
	C164	C	0.677133	0.886238	0.376164
	C165	C	0.677396	0.115570	0.611778
	C166	C	0.330207	0.884525	0.610747
	C167	C	0.321408	0.114865	0.375261
	C168	C	0.878402	0.385775	0.177414
	C169	C	0.123045	0.612270	0.179267
	C170	C	0.125930	0.387598	0.820103
	C171	C	0.875994	0.612245	0.815542
	C172	C	0.181112	0.875830	0.384089
	C173	C	0.179095	0.114880	0.609816
	C174	C	0.823501	0.119978	0.382919
	C175	C	0.821818	0.878254	0.608139
	C176	C	0.384138	0.182541	0.871731
	C177	C	0.615673	0.178604	0.111042
	C178	C	0.385978	0.829356	0.112265
	C179	C	0.616619	0.824919	0.873620
	C180	C	0.387116	0.884010	0.171491
	C181	C	0.614295	0.126711	0.172047
	C182	C	0.385499	0.127599	0.812342
	C183	C	0.616315	0.881052	0.815521
	C184	C	0.877241	0.181097	0.385239
	C185	C	0.122804	0.175350	0.609710
	C186	C	0.124508	0.816961	0.385192
	C187	C	0.879255	0.819228	0.608785
	C188	C	0.178508	0.386841	0.881790
	C189	C	0.174613	0.616056	0.116361
	C190	C	0.823234	0.385628	0.117393
	C191	C	0.823217	0.614924	0.877394
	C192	C	0.403386	0.095458	0.591061
	C193	C	0.597825	0.906881	0.593862
	C194	C	0.599178	0.096826	0.393574
	C195	C	0.406753	0.907000	0.392287
	C196	C	0.598169	0.402048	0.087590
	C197	C	0.598724	0.601826	0.902516
	C198	C	0.400173	0.606962	0.089263
	C199	C	0.401419	0.405979	0.902295
	C200	C	0.097057	0.592791	0.400610
	C201	C	0.905637	0.595229	0.594619
	C202	C	0.097304	0.399038	0.598036
	C203	C	0.905637	0.403098	0.399949
	C204	C	0.905562	0.593017	0.097810
	C205	C	0.101814	0.405197	0.098197
	C206	C	0.095868	0.596080	0.896409
	C207	C	0.905498	0.406337	0.899509
	C208	C	0.103355	0.896324	0.590049
	C209	C	0.097777	0.097878	0.404052
	C210	C	0.901872	0.097519	0.589323
	C211	C	0.902709	0.898066	0.403024
	C212	C	0.595019	0.099903	0.894219
	C213	C	0.404041	0.101723	0.091837
	C214	C	0.596628	0.907460	0.090670
	C215	C	0.406015	0.908190	0.894667
	Zn216	Zn	0.500688	0.002811	0.743317
	Zn217	Zn	0.501727	0.004572	0.241933
	Zn218	Zn	0.751962	0.501384	-0.002934
	Zn219	Zn	0.249351	0.503400	-0.003018
	Zn220	Zn	0.001858	0.745929	0.497669
	Zn221	Zn	0.000080	0.250466	0.498108
	Zn222	Zn	0.001039	0.498773	0.746658
	Zn223	Zn	0.001971	0.497785	0.249036
	Zn224	Zn	0.501270	0.756127	-0.005952
	Zn225	Zn	0.499147	0.251047	-0.006378
	Zn226	Zn	0.750118	-0.000041	0.494862
	Zn227	Zn	0.253853	-0.002445	0.494947
	N228	N	0.411259	0.967665	0.676110
	N229	N	0.588861	0.037340	0.674101
	N230	N	0.592204	0.968237	0.309852
	N231	N	0.413392	0.038737	0.313068
	N232	N	0.680404	0.416062	0.959153
	N233	N	0.678947	0.587916	0.032654
	N234	N	0.319376	0.591459	0.959812
	N235	N	0.326554	0.422255	0.033806
	N236	N	0.963944	0.674171	0.413390
	N237	N	0.038625	0.673622	0.581943
	N238	N	0.963628	0.321625	0.583717
	N239	N	0.039037	0.323161	0.415682
	N240	N	0.965191	0.410598	0.678582
	N241	N	0.037119	0.584996	0.676194
	N242	N	0.965363	0.584465	0.319121
	N243	N	0.036920	0.409133	0.318196
	N244	N	0.411732	0.686800	0.959402
	N245	N	0.588070	0.683884	0.030505
	N246	N	0.587396	0.321797	0.958362
	N247	N	0.411314	0.321421	0.029314
	N248	N	0.676104	0.962917	0.411294
	N249	N	0.677083	0.038197	0.577837
	N250	N	0.330737	0.960796	0.574359
	N251	N	0.323094	0.036955	0.408511
	N252	N	0.913193	0.462937	0.179221
	N253	N	0.092014	0.533605	0.182224
	N254	N	0.091108	0.465333	0.816205
	N255	N	0.910918	0.534581	0.814548
	N256	N	0.182143	0.910539	0.459910
	N257	N	0.178779	0.080790	0.533557
	N258	N	0.824044	0.083470	0.458414
	N259	N	0.821579	0.912566	0.531756
	N260	N	0.461775	0.181195	0.907376
	N261	N	0.537996	0.177388	0.075663
	N262	N	0.463525	0.829510	0.076932
	N263	N	0.538578	0.826238	0.908211
	N264	N	0.465572	0.917738	0.172459
	N265	N	0.535410	0.093812	0.174300
	N266	N	0.463811	0.092301	0.811798
	N267	N	0.538020	0.916661	0.814424
	N268	N	0.910729	0.182284	0.462061
	N269	N	0.088134	0.178386	0.533228
	N270	N	0.090830	0.815529	0.461805
	N271	N	0.914221	0.817566	0.532760
	N272	N	0.175973	0.464245	0.915410
	N273	N	0.175090	0.539592	0.080568
	N274	N	0.824258	0.462735	0.082461
	N275	N	0.825964	0.538812	0.914385
	O276	O	0.008791	0.067513	0.024998
	H277	H	-0.012969	0.065569	0.041776
	H278	H	-0.004786	0.077327	0.004543
	O279	O	0.464513	0.441301	0.561012
	H280	H	0.460420	0.446664	0.569932
	H281	H	0.459010	0.447982	0.562440
	O282	O	0.927724	-0.168989	-0.016448
	H283	H	0.937492	-0.158198	-0.034954
	H284	H	0.934127	-0.175760	-0.030908
	O285	O	-0.037754	1.035195	-0.080018
	H286	H	-0.036287	1.030991	-0.092716
	H287	H	-0.031132	1.032593	-0.082936
	O288	O	0.435551	0.531380	0.507711
	H289	H	0.429242	0.527870	0.503650
	H290	H	0.439101	0.530710	0.497405
	O291	O	0.541194	0.636695	0.635276
	H292	H	0.542916	0.649027	0.643952
	H293	H	0.536952	0.634517	0.626855
	O294	O	1.039766	0.947955	0.850587
	H295	H	1.036462	0.960358	0.845466
	H296	H	1.052342	0.939953	0.865516
	O297	O	-0.059078	-0.002038	0.098512
	H298	H	-0.061316	-0.012563	0.096681
	H299	H	-0.057417	-0.004699	0.108126
	O300	O	0.545854	0.497436	0.449928
	H301	H	0.543512	0.505000	0.454552
	H302	H	0.545379	0.495345	0.449919
	O303	O	0.019693	0.967574	0.999486
	H304	H	0.019811	0.960073	0.989441
	H305	H	0.015750	0.966637	0.999475
	O306	O	0.237923	0.855632	0.149329
	H307	H	0.235783	0.870534	0.144051
	H308	H	0.247475	0.845089	0.158437
	O309	O	1.053481	0.069779	-0.175767
	H310	H	1.036032	0.075049	-0.179636
	H311	H	1.066020	0.074564	-0.183462
	O312	O	0.065373	-0.035773	0.956704
	H313	H	0.062231	-0.020565	0.958398
	H314	H	0.075124	-0.034420	0.967903
	O315	O	0.495365	0.499765	0.619942
	H316	H	0.493954	0.505067	0.623794
	H317	H	0.491707	0.515061	0.613801
	O318	O	0.341819	0.631978	0.349384
	H319	H	0.349118	0.617250	0.355614
	H320	H	0.353483	0.621968	0.350544
	O321	O	0.563903	0.480012	0.465854
	H322	H	0.556105	0.485901	0.450935
	H323	H	0.559785	0.479283	0.467733
	O324	O	0.599624	0.502449	0.588148
	H325	H	0.599205	0.503120	0.593052
	H326	H	0.602552	0.501176	0.578145
	O327	O	0.003598	0.975098	0.974740
	H328	H	0.023669	0.960741	0.974917
	H329	H	0.012669	0.987233	0.980600
	O330	O	0.565204	0.599688	0.411408
	H331	H	0.552490	0.597306	0.427617
	H332	H	0.568251	0.607886	0.408441
	O333	O	0.080733	1.083593	1.177578
	H334	H	0.084226	1.064214	1.174585
	H335	H	0.072066	1.081856	1.183270
	O336	O	1.033033	0.821261	1.126974
	H337	H	1.038625	0.832834	1.120351
	H338	H	1.030660	0.808475	1.127475
	O339	O	0.541555	0.355612	0.486787
	H340	H	0.533170	0.347540	0.488294
	H341	H	0.542608	0.355021	0.480922
	O342	O	0.888287	0.170583	-0.091315
	H343	H	0.886778	0.156746	-0.073716
	H344	H	0.876683	0.166593	-0.076018
	O345	O	0.468561	0.479490	0.371778
	H346	H	0.465322	0.478372	0.382759
	H347	H	0.475111	0.466573	0.374829
	O348	O	1.001051	0.883730	0.999733
	H349	H	0.987823	0.901531	0.993026
	H350	H	1.003924	0.862776	0.981243
	O351	O	0.906577	1.033127	0.115618
	H352	H	0.909041	1.015382	0.108739
	H353	H	0.903103	1.032156	0.130290
	O354	O	0.476794	0.554479	0.441540
	H355	H	0.474972	0.550884	0.462092
	H356	H	0.495528	0.553693	0.444297
	O357	O	0.569955	0.450124	0.481095
	H358	H	0.573528	0.455931	0.485215
	H359	H	0.579017	0.441537	0.492740
	O360	O	-0.116463	-0.016454	-0.162802
	H361	H	-0.106024	-0.011662	-0.166598
	H362	H	-0.109494	-0.010287	-0.158116
	O363	O	0.473866	0.467427	0.503832
	H364	H	0.459470	0.473549	0.494768
	H365	H	0.474884	0.466089	0.497150
	O366	O	-0.026075	0.008004	1.066364
	H367	H	-0.028576	0.006464	1.085044
	H368	H	-0.020657	-0.000981	1.060043
	O369	O	0.471309	0.504772	0.372222
	H370	H	0.471089	0.497727	0.375332
	H371	H	0.466187	0.504496	0.350452
	O372	O	0.548644	0.580567	0.400497
	H373	H	0.559602	0.570146	0.391989
	H374	H	0.560684	0.577457	0.414115
	O375	O	0.463889	0.592181	0.380499
	H376	H	0.463223	0.586067	0.374088
	H377	H	0.467499	0.600184	0.368293
	O378	O	0.374130	0.416149	0.634004
	H379	H	0.366906	0.417853	0.632308
	H380	H	0.357241	0.410560	0.640065
	O381	O	0.616269	0.390984	0.436000
	H382	H	0.618227	0.381149	0.432582
	H383	H	0.609401	0.389005	0.439396
	O384	O	0.102453	0.884963	-0.047756
	H385	H	0.093021	0.904381	-0.032809
	H386	H	0.086242	0.884783	-0.056005
	O387	O	0.845451	-0.189842	1.134073
	H388	H	0.873996	-0.198250	1.126092
	H389	H	0.847749	-0.207152	1.107857
	O390	O	-0.086367	1.180303	-0.177525
	H391	H	-0.101026	1.196667	-0.190156
	H392	H	-0.104123	1.189724	-0.166013
	O393	O	0.997143	1.034410	0.025206
	H394	H	0.987965	1.018998	0.041667
	H395	H	0.996279	1.036885	0.034933
	O396	O	1.113905	-0.075851	0.939833
	H397	H	1.111683	-0.078177	0.940629
	H398	H	1.138781	-0.086264	0.936220
	O399	O	0.045640	1.109356	1.050696
	H400	H	0.042760	1.096124	1.059108
	H401	H	0.048194	1.122842	1.040982
	O402	O	0.998585	1.164419	1.038417
	H403	H	0.989871	1.178574	1.038897
	H404	H	0.995443	1.158068	1.050998
	O405	O	0.494523	0.526143	0.673055
	H406	H	0.489086	0.536778	0.657203
	H407	H	0.496585	0.533148	0.677335
