data_Molecule from HDF5

_cell_length_a		16.468106
_cell_length_b		16.478532
_cell_length_c		16.443462
_cell_angle_alpha	89.995845
_cell_angle_beta	89.764617
_cell_angle_gamma	90.226654
_symmetry_space_group_name_H-M	'P 1'
_symmetry_Int_Tables_number		1

loop_
	_symmetry_equiv_pos_as_xyz
	x,y,z

loop_
	_atom_site_label
	_atom_site_type_symbol
	_atom_site_fract_x
	_atom_site_fract_y
	_atom_site_fract_z
	H0	H	0.411396	0.853336	0.729509
	H1	H	0.627628	0.167886	0.730855
	H2	H	0.620306	0.853959	0.286466
	H3	H	0.414766	0.168918	0.286560
	H4	H	0.737857	0.408177	0.847369
	H5	H	0.734642	0.611605	0.165789
	H6	H	0.296556	0.617916	0.849029
	H7	H	0.293968	0.401165	0.161649
	H8	H	0.859598	0.727083	0.406409
	H9	H	0.178094	0.731387	0.611247
	H10	H	0.862803	0.286084	0.614224
	H11	H	0.177705	0.289466	0.400643
	H12	H	0.861061	0.404661	0.728033
	H13	H	0.178186	0.614482	0.727975
	H14	H	0.859611	0.610257	0.289869
	H15	H	0.176830	0.404751	0.282823
	H16	H	0.413715	0.732998	0.848867
	H17	H	0.619828	0.730654	0.164452
	H18	H	0.628510	0.287926	0.849379
	H19	H	0.410356	0.286098	0.161972
	H20	H	0.738212	0.853787	0.402201
	H21	H	0.744417	0.167498	0.615203
	H22	H	0.295741	0.852494	0.612824
	H23	H	0.298309	0.168746	0.403049
	H24	H	0.919193	0.349714	0.223543
	H25	H	0.124594	0.669335	0.227199
	H26	H	0.126888	0.351671	0.783170
	H27	H	0.918226	0.667434	0.787855
	H28	H	0.239392	0.905428	0.347197
	H29	H	0.241372	0.116470	0.664632
	H30	H	0.802631	0.112902	0.347370
	H31	H	0.798249	0.908618	0.664561
	H32	H	0.362655	0.235912	0.897966
	H33	H	0.676852	0.229847	0.107657
	H34	H	0.360136	0.786888	0.113846
	H35	H	0.676219	0.794073	0.903002
	H36	H	0.358787	0.904271	0.228969
	H37	H	0.676897	0.113285	0.223720
	H38	H	0.359622	0.117946	0.784568
	H39	H	0.673965	0.909164	0.784251
	H40	H	0.920736	0.227878	0.347805
	H41	H	0.127405	0.234023	0.664167
	H42	H	0.125208	0.788202	0.348975
	H43	H	0.916259	0.793974	0.666607
	H44	H	0.244027	0.353207	0.898627
	H45	H	0.243430	0.667867	0.112562
	H46	H	0.800118	0.350130	0.108077
	H47	H	0.801830	0.668349	0.905720
	H48	H	0.426852	0.122824	0.591731
	H49	H	0.607624	0.900733	0.591880
	H50	H	0.614263	0.126881	0.416770
	H51	H	0.429879	0.899097	0.419174
	H52	H	0.608695	0.419648	0.120405
	H53	H	0.610267	0.600377	0.891946
	H54	H	0.433292	0.595555	0.116825
	H55	H	0.437497	0.421903	0.895144
	H56	H	0.132061	0.597349	0.415447
	H57	H	0.906906	0.599880	0.597271
	H58	H	0.133487	0.419260	0.596149
	H59	H	0.905928	0.422510	0.413106
	H60	H	0.131137	0.421370	0.591726
	H61	H	0.906231	0.599609	0.601030
	H62	H	0.134085	0.602236	0.415681
	H63	H	0.904704	0.413752	0.416886
	H64	H	0.432802	0.601186	0.118542
	H65	H	0.609483	0.606094	0.890709
	H66	H	0.608677	0.420296	0.120020
	H67	H	0.431833	0.423452	0.893101
	H68	H	0.610195	0.127526	0.410376
	H69	H	0.604900	0.899838	0.595283
	H70	H	0.429823	0.123556	0.596709
	H71	H	0.426803	0.896966	0.417239
	H72	H	0.931807	0.623277	0.100974
	H73	H	0.108163	0.397313	0.097274
	H74	H	0.103006	0.620371	0.915185
	H75	H	0.931296	0.396074	0.916989
	H76	H	0.106509	0.920169	0.619098
	H77	H	0.116628	0.095036	0.393269
	H78	H	0.937683	0.102960	0.619753
	H79	H	0.932292	0.915148	0.392016
	H80	H	0.626399	0.090066	0.917590
	H81	H	0.405261	0.096026	0.096137
	H82	H	0.632923	0.918825	0.104189
	H83	H	0.402845	0.919702	0.917951
	H84	H	0.629721	0.915416	0.091106
	H85	H	0.403614	0.102101	0.096896
	H86	H	0.634070	0.102844	0.907925
	H87	H	0.404734	0.921244	0.921959
	H88	H	0.923788	0.101584	0.623220
	H89	H	0.101341	0.096255	0.398420
	H90	H	0.108188	0.921990	0.619735
	H91	H	0.923867	0.916186	0.389292
	H92	H	0.106787	0.618473	0.924651
	H93	H	0.104046	0.399938	0.093820
	H94	H	0.923954	0.623411	0.093521
	H95	H	0.927067	0.396351	0.920855
	H96	H	0.432857	0.121354	0.591737
	H97	H	0.603290	0.901551	0.591800
	H98	H	0.607339	0.123890	0.416625
	H99	H	0.430582	0.897546	0.415452
	H100	H	0.607395	0.419756	0.120101
	H101	H	0.614517	0.604198	0.889892
	H102	H	0.428458	0.597268	0.119129
	H103	H	0.435058	0.428105	0.895521
	H104	H	0.131627	0.600148	0.419952
	H105	H	0.905280	0.602854	0.598904
	H106	H	0.131223	0.424396	0.596009
	H107	H	0.909354	0.421051	0.422336
	H108	H	0.922146	0.626995	0.103483
	H109	H	0.109339	0.398282	0.091576
	H110	H	0.112882	0.623004	0.917479
	H111	H	0.925924	0.393903	0.915690
	H112	H	0.105936	0.922463	0.619053
	H113	H	0.108032	0.108607	0.390809
	H114	H	0.930624	0.090677	0.617100
	H115	H	0.928185	0.922620	0.393057
	H116	H	0.630006	0.105264	0.924619
	H117	H	0.406088	0.099827	0.091450
	H118	H	0.627843	0.928589	0.095289
	H119	H	0.404409	0.924079	0.918317
	C120	C	0.396436	0.018955	0.627464
	C121	C	0.639120	1.003804	0.626834
	C122	C	0.640886	0.021079	0.383499
	C123	C	0.396783	1.002014	0.385098
	C124	C	0.640415	0.388721	0.015331
	C125	C	0.640670	0.633243	0.996789
	C126	C	0.398633	0.631147	0.014208
	C127	C	0.399430	0.389887	0.997426
	C128	C	0.027695	0.630716	0.386126
	C129	C	1.011018	0.632433	0.630015
	C130	C	0.027776	0.388636	0.627977
	C131	C	1.011267	0.388015	0.384854
	C132	C	0.896459	0.518516	0.129069
	C133	C	0.140527	0.502596	0.127377
	C134	C	0.141034	0.517272	0.885158
	C135	C	0.898207	0.500527	0.886469
	C136	C	0.139841	0.889017	0.514943
	C137	C	0.141316	0.132181	0.498538
	C138	C	0.899492	0.130568	0.515435
	C139	C	0.896935	0.888239	0.496962
	C140	C	0.526742	0.133360	0.883771
	C141	C	0.509748	0.131150	0.126293
	C142	C	0.525848	0.888539	0.129146
	C143	C	0.508363	0.890816	0.886363
	C144	C	0.393065	0.900614	0.689056
	C145	C	0.643946	0.121097	0.689246
	C146	C	0.640262	0.901442	0.325445
	C147	C	0.395781	0.121665	0.326195
	C148	C	0.699620	0.388399	0.895611
	C149	C	0.696556	0.632193	0.117561
	C150	C	0.337167	0.635250	0.896172
	C151	C	0.335508	0.384382	0.114844
	C152	C	0.907313	0.688065	0.386653
	C153	C	0.130487	0.691718	0.630367
	C154	C	0.909658	0.327150	0.631808
	C155	C	0.130033	0.328951	0.382262
	C156	C	0.909129	0.385775	0.688846
	C157	C	0.130736	0.633466	0.688166
	C158	C	0.907319	0.629922	0.328950
	C159	C	0.129872	0.386361	0.323648
	C160	C	0.395520	0.692376	0.895736
	C161	C	0.640022	0.691390	0.116932
	C162	C	0.644424	0.328785	0.896544
	C163	C	0.393428	0.326931	0.114919
	C164	C	0.698612	0.901435	0.383038
	C165	C	0.702680	0.120722	0.631869
	C166	C	0.335776	0.899954	0.630931
	C167	C	0.337950	0.121335	0.384058
	C168	C	0.898346	0.397737	0.185375
	C169	C	0.142892	0.621556	0.187418
	C170	C	0.144899	0.399167	0.823700
	C171	C	0.898673	0.620218	0.827619
	C172	C	0.200117	0.886965	0.395557
	C173	C	0.201553	0.134748	0.617385
	C174	C	0.842069	0.131705	0.395083
	C175	C	0.837768	0.888668	0.616885
	C176	C	0.409192	0.195075	0.880583
	C177	C	0.629461	0.189926	0.126688
	C178	C	0.407030	0.827734	0.131575
	C179	C	0.628348	0.833092	0.884538
	C180	C	0.406723	0.885818	0.189381
	C181	C	0.629195	0.132177	0.184533
	C182	C	0.407701	0.136248	0.824128
	C183	C	0.627248	0.890022	0.825494
	C184	C	0.900388	0.188981	0.395351
	C185	C	0.144853	0.193356	0.616832
	C186	C	0.143003	0.828558	0.396077
	C187	C	0.896336	0.831550	0.617835
	C188	C	0.203234	0.399810	0.881194
	C189	C	0.202107	0.620820	0.130320
	C190	C	0.839235	0.398015	0.128308
	C191	C	0.840979	0.620610	0.886168
	C192	C	0.422358	0.101108	0.601180
	C193	C	0.612862	0.921886	0.600337
	C194	C	0.617642	0.104545	0.407526
	C195	C	0.421795	0.919368	0.409943
	C196	C	0.615364	0.412986	0.098573
	C197	C	0.618111	0.610160	0.912698
	C198	C	0.424323	0.605312	0.096701
	C199	C	0.426990	0.416756	0.915910
	C200	C	0.110829	0.606939	0.410063
	C201	C	0.927802	0.607804	0.606031
	C202	C	0.110536	0.414351	0.602052
	C203	C	0.928264	0.412271	0.410226
	C204	C	0.919339	0.602881	0.106010
	C205	C	0.114727	0.420016	0.101536
	C206	C	0.114936	0.599165	0.911570
	C207	C	0.921557	0.417103	0.910625
	C208	C	0.114234	0.914328	0.597850
	C209	C	0.116062	0.107094	0.415628
	C210	C	0.923542	0.105581	0.598349
	C211	C	0.921215	0.911255	0.413370
	C212	C	0.608778	0.106980	0.909272
	C213	C	0.426673	0.106444	0.101841
	C214	C	0.608811	0.913607	0.103960
	C215	C	0.425518	0.914883	0.911851
	Zn216	Zn	0.517310	0.011561	0.756112
	Zn217	Zn	0.517117	0.011578	0.256242
	Zn218	Zn	0.768008	0.509838	0.007056
	Zn219	Zn	0.270199	0.510115	0.005951
	Zn220	Zn	0.019351	0.760052	0.506718
	Zn221	Zn	0.020132	0.259877	0.507162
	Zn222	Zn	0.020020	0.508976	0.757061
	Zn223	Zn	0.019187	0.510211	0.256529
	Zn224	Zn	0.517806	0.760727	0.006284
	Zn225	Zn	0.519303	0.260270	0.005688
	Zn226	Zn	0.769243	0.011407	0.506378
	Zn227	Zn	0.268351	0.009971	0.506607
	N228	N	0.430028	0.975526	0.687087
	N229	N	0.604730	0.047513	0.685956
	N230	N	0.605262	0.976887	0.325564
	N231	N	0.431657	0.046600	0.326941
	N232	N	0.697199	0.424980	0.970512
	N233	N	0.697464	0.597114	0.041762
	N234	N	0.339243	0.597906	0.970811
	N235	N	0.339144	0.422838	0.040892
	N236	N	0.983138	0.688897	0.421187
	N237	N	0.054892	0.691278	0.595122
	N238	N	0.984467	0.328710	0.594941
	N239	N	0.055385	0.330050	0.419840
	N240	N	0.984002	0.422976	0.686707
	N241	N	0.055367	0.597631	0.688261
	N242	N	0.983234	0.595447	0.328162
	N243	N	0.054873	0.422369	0.325128
	N244	N	0.432940	0.689971	0.970129
	N245	N	0.606121	0.692173	0.040780
	N246	N	0.608119	0.328818	0.971951
	N247	N	0.432434	0.329993	0.040916
	N248	N	0.699474	0.976990	0.418144
	N249	N	0.699496	0.046827	0.593257
	N250	N	0.337428	0.974606	0.593742
	N251	N	0.338446	0.045953	0.419799
	N252	N	0.932922	0.473787	0.186010
	N253	N	0.105556	0.546829	0.185839
	N254	N	0.106936	0.473194	0.826169
	N255	N	0.933403	0.544555	0.827765
	N256	N	0.198317	0.923751	0.470714
	N257	N	0.199481	0.097550	0.542887
	N258	N	0.841052	0.096513	0.470736
	N259	N	0.837632	0.922814	0.540743
	N260	N	0.484344	0.193605	0.916390
	N261	N	0.554093	0.189319	0.091284
	N262	N	0.482218	0.829022	0.095031
	N263	N	0.553469	0.833577	0.921782
	N264	N	0.481600	0.922898	0.188050
	N265	N	0.553674	0.096461	0.184478
	N266	N	0.481876	0.098631	0.825797
	N267	N	0.551706	0.924925	0.826374
	N268	N	0.935143	0.188453	0.471168
	N269	N	0.108080	0.191753	0.541842
	N270	N	0.106449	0.829547	0.471350
	N271	N	0.932226	0.830773	0.542256
	N272	N	0.201106	0.474432	0.918428
	N273	N	0.200792	0.545699	0.093922
	N274	N	0.837922	0.474236	0.094182
	N275	N	0.840598	0.545292	0.922028
	O276	O	0.388153	0.554677	0.541700
	H277	H	0.401094	0.542923	0.550622
	H278	H	0.376808	0.555464	0.546141
	O279	O	0.456030	0.460642	0.291452
	H280	H	0.461419	0.474134	0.289608
	H281	H	0.456235	0.455563	0.295426
	O282	O	1.319388	1.714678	0.481049
	H283	H	1.310993	1.725271	0.485599
	H284	H	1.329793	1.715089	0.499048
	O285	O	0.732811	-0.607071	-0.363551
	H286	H	0.729498	-0.626875	-0.380065
	H287	H	0.730179	-0.588708	-0.379630
	O288	O	0.202940	-0.054130	-0.211114
	H289	H	0.207538	-0.034642	-0.202760
	H290	H	0.226222	-0.068061	-0.241722
	O291	O	0.810421	0.806325	0.042621
	H292	H	0.813389	0.816529	0.021643
	H293	H	0.798718	0.801132	0.030007
	O294	O	-0.175731	1.006399	-0.178748
	H295	H	-0.154094	1.016943	-0.186251
	H296	H	-0.173162	1.031669	-0.174118
	O297	O	0.664433	0.553891	0.484084
	H298	H	0.678822	0.551219	0.491876
	H299	H	0.672170	0.574475	0.490276
	O300	O	0.330379	0.325990	0.693303
	H301	H	0.366498	0.313898	0.686024
	H302	H	0.313935	0.309821	0.661947
	O303	O	0.214162	-0.182436	0.832087
	H304	H	0.218913	-0.203235	0.838116
	H305	H	0.218884	-0.151241	0.842000
	O306	O	-0.204609	0.968727	0.987340
	H307	H	-0.204391	0.974940	0.976856
	H308	H	-0.196407	0.974722	0.987526
	O309	O	0.110168	0.218383	-0.091655
	H310	H	0.086679	0.200722	-0.073287
	H311	H	0.140139	0.212971	-0.066054
	O312	O	-0.182099	0.808239	0.212059
	H313	H	-0.215999	0.776185	0.233977
	H314	H	-0.183105	0.800720	0.164465
	O315	O	0.218557	0.076650	1.215391
	H316	H	0.211750	0.076866	1.223349
	H317	H	0.226752	0.078485	1.227385
	O318	O	0.541760	1.299315	-0.693348
	H319	H	0.540433	1.309748	-0.696114
	H320	H	0.547383	1.286077	-0.698009
	O321	O	0.575531	0.279580	0.560340
	H322	H	0.574615	0.273968	0.552342
	H323	H	0.568119	0.275446	0.595363
	O324	O	0.495654	0.717622	0.299096
	H325	H	0.509547	0.725645	0.318488
	H326	H	0.484296	0.726117	0.285749
	O327	O	-0.011334	1.222339	1.794417
	H328	H	0.011177	1.223979	1.819277
	H329	H	-0.010523	1.252206	1.767269
	O330	O	0.382067	-0.689731	-0.498336
	H331	H	0.397945	-0.688274	-0.516167
	H332	H	0.361558	-0.700064	-0.512708
	O333	O	1.076920	0.837255	1.105200
	H334	H	1.075387	0.836823	1.124962
	H335	H	1.074898	0.833515	1.112549
	O336	O	1.037796	-0.175457	0.795001
	H337	H	1.044148	-0.194228	0.782016
	H338	H	1.047352	-0.189654	0.797789
	O339	O	0.967574	0.114706	1.178848
	H340	H	0.955144	0.104233	1.174723
	H341	H	0.973263	0.106355	1.173924
	O342	O	0.704342	0.321674	0.314539
	H343	H	0.699684	0.320971	0.313048
	H344	H	0.712205	0.313433	0.294850
	O345	O	0.211295	0.185598	0.197481
	H346	H	0.192233	0.184747	0.201368
	H347	H	0.223888	0.190280	0.220493
	O348	O	1.500156	0.380786	1.499876
	H349	H	1.522796	0.393943	1.492799
	H350	H	1.503985	0.362687	1.508966
	O351	O	0.702756	0.697070	-0.685671
	H352	H	0.683852	0.669323	-0.681278
	H353	H	0.682353	0.687314	-0.663231
	O354	O	-0.164210	1.193047	0.996652
	H355	H	-0.174072	1.204902	0.991291
	H356	H	-0.171832	1.166292	1.000798
	O357	O	1.049341	1.045691	1.063194
	H358	H	1.062753	1.036644	1.066795
	H359	H	1.074664	1.057291	1.057412
	O360	O	0.401055	0.704039	0.630142
	H361	H	0.404979	0.697532	0.629938
	H362	H	0.408571	0.687509	0.639108
	O363	O	0.308625	0.488056	0.714758
	H364	H	0.292570	0.461047	0.726719
	H365	H	0.303301	0.457604	0.715568
	O366	O	1.088778	0.003422	0.941601
	H367	H	1.097528	-0.011655	0.934491
	H368	H	1.102923	0.004601	0.946166
	O369	O	0.497070	0.551708	0.605906
	H370	H	0.496596	0.544372	0.613705
	H371	H	0.499986	0.537304	0.616260
	O372	O	0.738955	0.292090	0.477562
	H373	H	0.732862	0.280492	0.465543
	H374	H	0.744993	0.267539	0.464494
	O375	O	0.035820	1.102169	1.128070
	H376	H	0.032509	1.108413	1.132780
	H377	H	0.018968	1.102578	1.131093
	O378	O	0.679270	0.605322	0.420680
	H379	H	0.666304	0.616998	0.415019
	H380	H	0.694354	0.611356	0.429875
	O381	O	1.229764	0.165412	0.030445
	H382	H	1.234749	0.154460	0.049125
	H383	H	1.241928	0.183728	0.046498
	O384	O	0.132964	0.005155	0.908390
	H385	H	0.136446	0.007942	0.905484
	H386	H	0.120813	-0.003472	0.928595
	O387	O	-0.194905	0.978352	1.222180
	H388	H	-0.228241	0.971716	1.251147
	H389	H	-0.188324	0.930824	1.213798
	O390	O	0.037352	0.033068	0.804511
	H391	H	0.049140	0.024305	0.812349
	H392	H	0.038590	0.036348	0.808653
	O393	O	0.822149	1.139035	0.141480
	H394	H	0.840003	1.119410	0.147299
	H395	H	0.825062	1.114443	0.127690
	O396	O	-0.033352	0.193243	1.060472
	H397	H	-0.012189	0.186659	1.062588
	H398	H	-0.053643	0.193632	1.048291
	O399	O	-0.001149	0.908945	0.104904
	H400	H	-0.012940	0.897766	0.110562
	H401	H	-0.001814	0.905353	0.112611
	O402	O	-0.330177	-0.458241	0.677325
	H403	H	-0.321546	-0.472206	0.682628
	H404	H	-0.335006	-0.475282	0.674613
	O405	O	-0.173346	-0.177877	-0.179880
	H406	H	-0.150709	-0.169091	-0.153222
	H407	H	-0.161756	-0.141720	-0.174770
	O408	O	0.507389	0.734723	0.636956
	H409	H	0.525335	0.744962	0.647458
	H410	H	0.528979	0.739532	0.650224
	O411	O	0.744896	0.431911	0.286095
	H412	H	0.739831	0.418576	0.296428
	H413	H	0.772997	0.418590	0.255206
	O414	O	0.304106	0.511218	0.491298
	H415	H	0.307380	0.534001	0.488274
	H416	H	0.300098	0.519103	0.486828
	O417	O	0.720081	0.659784	0.711168
	H418	H	0.741699	0.668994	0.729252
	H419	H	0.725023	0.618224	0.715558
	O420	O	0.635376	0.730629	0.486552
	H421	H	0.632476	0.732639	0.512261
	H422	H	0.645078	0.743609	0.511574
	O423	O	-0.699045	0.537090	0.290115
	H424	H	-0.709227	0.561659	0.279899
	H425	H	-0.701579	0.527143	0.276586
	O426	O	0.968732	0.880625	0.900662
	H427	H	0.995633	0.878135	0.878589
	H428	H	0.990260	0.889422	0.912145
	O429	O	0.467357	0.380799	0.521345
	H430	H	0.459043	0.357531	0.511652
	H431	H	0.462479	0.415013	0.506079
	O432	O	0.849318	0.179729	0.842310
	H433	H	0.855192	0.178991	0.861635
	H434	H	0.880329	0.197807	0.823749
	O435	O	0.150601	-0.051392	0.162095
	H436	H	0.152029	-0.031447	0.150475
	H437	H	0.138853	-0.059937	0.179281
	O438	O	1.209592	-0.196605	-0.009121
	H439	H	1.209535	-0.196717	0.001413
	H440	H	1.210361	-0.191895	-0.008013
	O441	O	0.491849	0.291254	0.724339
	H442	H	0.510183	0.316096	0.735109
	H443	H	0.480948	0.268720	0.759890
	O444	O	0.335039	0.359740	0.353615
	H445	H	0.350304	0.381722	0.361211
	H446	H	0.347790	0.379297	0.368652
	O447	O	0.510685	0.634531	0.716501
	H448	H	0.506128	0.646538	0.723206
	H449	H	0.515944	0.640458	0.719163
	O450	O	0.573081	0.547126	0.306824
	H451	H	0.572810	0.538763	0.306811
	H452	H	0.555177	0.559068	0.314189
	O453	O	0.584226	0.431225	0.714380
	H454	H	0.587681	0.447486	0.689170
	H455	H	0.561302	0.445209	0.716832
	O456	O	0.730905	-0.271517	-0.398157
	H457	H	0.727777	-0.295676	-0.363352
	H458	H	0.764213	-0.238429	-0.383640
	O459	O	0.329733	0.700043	0.321030
	H460	H	0.333243	0.697646	0.350399
	H461	H	0.347300	0.691226	0.326143
	O462	O	-0.011020	0.794728	0.223922
	H463	H	-0.020150	0.780221	0.244932
	H464	H	-0.044284	0.791784	0.224180
	O465	O	1.221017	0.012940	-0.011547
	H466	H	1.220200	-0.005318	-0.007340
	H467	H	1.221835	0.005400	-0.014042
