data_Molecule from HDF5

_cell_length_a		16.311796
_cell_length_b		16.042630
_cell_length_c		16.097757
_cell_angle_alpha	90.240829
_cell_angle_beta	88.945331
_cell_angle_gamma	89.799193
_symmetry_space_group_name_H-M	'P 1'
_symmetry_Int_Tables_number		1

loop_
	_symmetry_equiv_pos_as_xyz
	x,y,z

loop_
	_atom_site_label
	_atom_site_type_symbol
	_atom_site_fract_x
	_atom_site_fract_y
	_atom_site_fract_z
	H0	H	0.396891	0.835459	0.709407
	H1	H	0.590497	0.169312	0.705620
	H2	H	0.596534	0.836100	0.279484
	H3	H	0.403316	0.169102	0.289435
	H4	H	0.718585	0.401289	0.833129
	H5	H	0.708439	0.605903	0.162086
	H6	H	0.284605	0.603853	0.830143
	H7	H	0.277905	0.401122	0.158068
	H8	H	0.832137	0.717679	0.402729
	H9	H	0.160459	0.716978	0.592477
	H10	H	0.831834	0.290492	0.596708
	H11	H	0.158912	0.285403	0.391358
	H12	H	0.834883	0.401762	0.716846
	H13	H	0.160812	0.600882	0.707430
	H14	H	0.831894	0.601431	0.285774
	H15	H	0.158807	0.401193	0.276714
	H16	H	0.402642	0.713947	0.828551
	H17	H	0.587736	0.716022	0.162621
	H18	H	0.599615	0.290250	0.830615
	H19	H	0.397362	0.293840	0.161925
	H20	H	0.713065	0.836167	0.392292
	H21	H	0.709172	0.168213	0.593509
	H22	H	0.280284	0.835845	0.597965
	H23	H	0.282975	0.165481	0.395241
	H24	H	0.898671	0.335357	0.207690
	H25	H	0.091086	0.669026	0.207467
	H26	H	0.098925	0.336257	0.779397
	H27	H	0.903732	0.669325	0.788397
	H28	H	0.215756	0.899339	0.330836
	H29	H	0.209303	0.104280	0.660518
	H30	H	0.785065	0.102078	0.330241
	H31	H	0.776258	0.899021	0.659029
	H32	H	0.334092	0.220670	0.899736
	H33	H	0.661855	0.215936	0.090370
	H34	H	0.332415	0.791497	0.095701
	H35	H	0.660658	0.787987	0.892981
	H36	H	0.333828	0.904681	0.213320
	H37	H	0.661967	0.100148	0.205707
	H38	H	0.332475	0.103187	0.785275
	H39	H	0.659757	0.902409	0.776435
	H40	H	0.901863	0.212402	0.329349
	H41	H	0.087355	0.214854	0.661769
	H42	H	0.095968	0.788632	0.329406
	H43	H	0.898305	0.794289	0.663123
	H44	H	0.215145	0.336983	0.891409
	H45	H	0.208911	0.668717	0.093040
	H46	H	0.779812	0.338637	0.101394
	H47	H	0.784693	0.667845	0.898745
	H48	H	0.409046	0.119024	0.590382
	H49	H	0.576723	0.886268	0.587507
	H50	H	0.593935	0.123978	0.393765
	H51	H	0.413206	0.884292	0.405361
	H52	H	0.580133	0.413828	0.112131
	H53	H	0.601689	0.590333	0.876352
	H54	H	0.405070	0.584548	0.109493
	H55	H	0.402759	0.416228	0.875804
	H56	H	0.115112	0.592373	0.391811
	H57	H	0.880443	0.595686	0.592831
	H58	H	0.111230	0.410983	0.577886
	H59	H	0.878906	0.403157	0.410983
	H60	H	0.114077	0.414063	0.590881
	H61	H	0.878602	0.597325	0.597052
	H62	H	0.113997	0.601911	0.403249
	H63	H	0.880551	0.416820	0.401229
	H64	H	0.407559	0.608075	0.115231
	H65	H	0.589507	0.591067	0.880617
	H66	H	0.590499	0.399889	0.118756
	H67	H	0.414621	0.413888	0.878905
	H68	H	0.587592	0.119330	0.403602
	H69	H	0.594855	0.884955	0.573083
	H70	H	0.398355	0.119815	0.582230
	H71	H	0.400148	0.881786	0.409764
	H72	H	0.892565	0.627000	0.097371
	H73	H	0.098968	0.380333	0.086893
	H74	H	0.113583	0.621918	0.919801
	H75	H	0.909887	0.383991	0.908167
	H76	H	0.085222	0.912843	0.613530
	H77	H	0.083015	0.087154	0.381185
	H78	H	0.896352	0.110965	0.620741
	H79	H	0.905933	0.887891	0.369875
	H80	H	0.610170	0.097311	0.913446
	H81	H	0.383158	0.097873	0.084379
	H82	H	0.613212	0.905239	0.078429
	H83	H	0.378445	0.903834	0.908460
	H84	H	0.612146	0.917593	0.087195
	H85	H	0.380175	0.092491	0.101617
	H86	H	0.612205	0.082514	0.892058
	H87	H	0.380896	0.913580	0.904181
	H88	H	0.887230	0.083443	0.614466
	H89	H	0.093433	0.103011	0.374004
	H90	H	0.088413	0.904215	0.615628
	H91	H	0.886022	0.921227	0.373554
	H92	H	0.095505	0.630325	0.877036
	H93	H	0.084220	0.382416	0.092762
	H94	H	0.911823	0.621204	0.097518
	H95	H	0.903459	0.382532	0.908133
	H96	H	0.397300	0.123312	0.595546
	H97	H	0.596302	0.878172	0.595098
	H98	H	0.598361	0.122775	0.405371
	H99	H	0.403095	0.878798	0.395960
	H100	H	0.597973	0.417022	0.116901
	H101	H	0.595777	0.600747	0.875194
	H102	H	0.387263	0.598333	0.118326
	H103	H	0.406919	0.406086	0.874427
	H104	H	0.109415	0.588109	0.404611
	H105	H	0.878885	0.600012	0.593787
	H106	H	0.116028	0.401071	0.586296
	H107	H	0.874085	0.401607	0.393874
	H108	H	0.900913	0.619953	0.079507
	H109	H	0.087831	0.386102	0.077814
	H110	H	0.068762	0.611784	0.910465
	H111	H	0.906772	0.381063	0.902204
	H112	H	0.094212	0.911601	0.615224
	H113	H	0.102137	0.085187	0.376333
	H114	H	0.915351	0.091439	0.609131
	H115	H	0.923284	0.919292	0.384887
	H116	H	0.619627	0.107335	0.890417
	H117	H	0.376140	0.108257	0.096016
	H118	H	0.617733	0.904360	0.092576
	H119	H	0.377235	0.906597	0.897405
	C120	C	0.373506	0.010403	0.618144
	C121	C	0.616707	0.992978	0.614377
	C122	C	0.621332	0.011409	0.371963
	C123	C	0.377748	0.991972	0.375885
	C124	C	0.620356	0.381456	0.006266
	C125	C	0.619436	0.623860	0.987664
	C126	C	0.374253	0.624744	0.004174
	C127	C	0.377196	0.382605	0.985824
	C128	C	0.004663	0.623810	0.374032
	C129	C	0.987969	0.625321	0.619747
	C130	C	0.005288	0.380738	0.616662
	C131	C	0.986284	0.378867	0.372015
	C132	C	0.873717	0.512430	0.119897
	C133	C	0.117570	0.493263	0.115082
	C134	C	0.121614	0.511388	0.872244
	C135	C	0.878595	0.492923	0.877939
	C136	C	0.119072	0.879992	0.504951
	C137	C	0.118210	0.122233	0.486882
	C138	C	0.873962	0.123158	0.504866
	C139	C	0.875393	0.881049	0.485953
	C140	C	0.505750	0.125254	0.872941
	C141	C	0.488685	0.126333	0.119254
	C142	C	0.505726	0.881379	0.116768
	C143	C	0.487330	0.879627	0.872500
	C144	C	0.376293	0.885446	0.672823
	C145	C	0.612182	0.119240	0.668750
	C146	C	0.617687	0.885984	0.316671
	C147	C	0.381830	0.118537	0.324248
	C148	C	0.678569	0.382381	0.881911
	C149	C	0.671083	0.624086	0.112594
	C150	C	0.321695	0.623348	0.879634
	C151	C	0.318177	0.382727	0.109586
	C152	C	0.880981	0.679474	0.380397
	C153	C	0.111422	0.679481	0.613769
	C154	C	0.881619	0.326966	0.616902
	C155	C	0.109958	0.323362	0.372080
	C156	C	0.883066	0.382606	0.676446
	C157	C	0.111768	0.621810	0.670919
	C158	C	0.880929	0.622001	0.322223
	C159	C	0.109788	0.380969	0.315030
	C160	C	0.380420	0.678165	0.878893
	C161	C	0.611082	0.679119	0.112959
	C162	C	0.619491	0.326889	0.880868
	C163	C	0.377852	0.329534	0.111437
	C164	C	0.675920	0.886110	0.372766
	C165	C	0.671170	0.118605	0.613128
	C166	C	0.318539	0.885575	0.616869
	C167	C	0.321907	0.116706	0.376950
	C168	C	0.877699	0.386097	0.172396
	C169	C	0.112910	0.618967	0.170168
	C170	C	0.119711	0.386288	0.816411
	C171	C	0.882244	0.619035	0.824476
	C172	C	0.176583	0.879983	0.380153
	C173	C	0.171051	0.122536	0.611157
	C174	C	0.822039	0.121112	0.379605
	C175	C	0.816875	0.881456	0.610418
	C176	C	0.382648	0.181829	0.878528
	C177	C	0.612493	0.179715	0.112918
	C178	C	0.381917	0.827873	0.115976
	C179	C	0.611314	0.825015	0.872944
	C180	C	0.382470	0.884436	0.174548
	C181	C	0.612497	0.121887	0.170238
	C182	C	0.381849	0.123333	0.821365
	C183	C	0.610893	0.882172	0.815031
	C184	C	0.879929	0.176272	0.379094
	C185	C	0.110776	0.177953	0.611757
	C186	C	0.116776	0.825295	0.379469
	C187	C	0.877421	0.829232	0.612433
	C188	C	0.177306	0.386724	0.872339
	C189	C	0.171347	0.618930	0.113199
	C190	C	0.818369	0.387678	0.119418
	C191	C	0.823332	0.618257	0.879593
	C192	C	0.395196	0.098050	0.595975
	C193	C	0.595672	0.905812	0.591867
	C194	C	0.599803	0.099149	0.394353
	C195	C	0.399255	0.904171	0.397308
	C196	C	0.596533	0.403779	0.093363
	C197	C	0.601133	0.600940	0.900147
	C198	C	0.393857	0.603122	0.091792
	C199	C	0.401145	0.405495	0.898842
	C200	C	0.090501	0.600863	0.393860
	C201	C	0.901565	0.604043	0.600305
	C202	C	0.091560	0.402275	0.592107
	C203	C	0.900096	0.400653	0.395222
	C204	C	0.895372	0.599997	0.098035
	C205	C	0.096611	0.405572	0.092596
	C206	C	0.099230	0.598725	0.895475
	C207	C	0.900382	0.405470	0.899793
	C208	C	0.096069	0.902797	0.592317
	C209	C	0.098605	0.098838	0.399584
	C210	C	0.893720	0.101554	0.592153
	C211	C	0.898363	0.902850	0.398780
	C212	C	0.591611	0.102468	0.892723
	C213	C	0.402151	0.105407	0.099862
	C214	C	0.592177	0.902905	0.093074
	C215	C	0.401213	0.901646	0.896214
	Zn216	Zn	0.495899	0.002183	0.743991
	Zn217	Zn	0.497582	0.003016	0.247103
	Zn218	Zn	0.748948	0.502575	-0.001489
	Zn219	Zn	0.248020	0.502429	-0.006315
	Zn220	Zn	-0.004265	0.753840	0.496769
	Zn221	Zn	-0.005045	0.251176	0.494870
	Zn222	Zn	-0.001743	0.502167	0.747304
	Zn223	Zn	-0.004513	0.501673	0.244432
	Zn224	Zn	0.496541	0.751704	-0.005037
	Zn225	Zn	0.497177	0.254666	-0.004038
	Zn226	Zn	0.747529	0.001761	0.494686
	Zn227	Zn	0.248072	0.000797	0.495544
	N228	N	0.410036	0.964228	0.673572
	N229	N	0.578824	0.040348	0.669726
	N230	N	0.584427	0.964880	0.316054
	N231	N	0.416169	0.040064	0.323549
	N232	N	0.679240	0.415526	0.961006
	N233	N	0.676425	0.590525	0.033762
	N234	N	0.317655	0.590884	0.958599
	N235	N	0.317573	0.415114	0.030469
	N236	N	0.958625	0.680605	0.411976
	N237	N	0.033439	0.681903	0.582905
	N238	N	0.958740	0.325669	0.580377
	N239	N	0.032038	0.321578	0.406631
	N240	N	0.961083	0.415514	0.676378
	N241	N	0.033860	0.588681	0.674837
	N242	N	0.958877	0.588219	0.317928
	N243	N	0.032000	0.414447	0.314825
	N244	N	0.412347	0.679195	0.957495
	N245	N	0.579591	0.679080	0.034145
	N246	N	0.583790	0.326140	0.959059
	N247	N	0.414002	0.329319	0.033288
	N248	N	0.678447	0.965244	0.406198
	N249	N	0.673967	0.039381	0.579881
	N250	N	0.316578	0.964533	0.583684
	N251	N	0.319410	0.036990	0.408548
	N252	N	0.911503	0.464687	0.172938
	N253	N	0.080065	0.539868	0.171287
	N254	N	0.085628	0.464850	0.816211
	N255	N	0.916117	0.540249	0.823336
	N256	N	0.178181	0.913146	0.459258
	N257	N	0.175771	0.088671	0.532346
	N258	N	0.817981	0.088849	0.458770
	N259	N	0.815420	0.913236	0.530941
	N260	N	0.460613	0.183356	0.909687
	N261	N	0.534393	0.182656	0.081991
	N262	N	0.459452	0.826016	0.080555
	N263	N	0.533649	0.823266	0.907978
	N264	N	0.460664	0.916916	0.175244
	N265	N	0.534394	0.089571	0.174471
	N266	N	0.459388	0.088903	0.817543
	N267	N	0.532859	0.915430	0.814587
	N268	N	0.911681	0.177561	0.457717
	N269	N	0.078665	0.177878	0.533264
	N270	N	0.081870	0.824953	0.458059
	N271	N	0.913174	0.828732	0.534145
	N272	N	0.178623	0.465723	0.906277
	N273	N	0.174689	0.539617	0.079949
	N274	N	0.815844	0.467183	0.087373
	N275	N	0.820801	0.538783	0.911884
	O276	O	0.073620	0.089462	-0.002346
	H277	H	0.086448	0.083536	-0.006558
	H278	H	0.073222	0.094068	-0.002352
	O279	O	0.564845	0.507269	0.423419
	H280	H	0.566945	0.493933	0.422914
	H281	H	0.568053	0.504981	0.424954
	O282	O	0.481914	0.539952	0.534682
	H283	H	0.478447	0.540376	0.521656
	H284	H	0.480892	0.549077	0.536473
	O285	O	-0.046147	1.010554	1.053294
	H286	H	-0.029709	1.007080	1.051222
	H287	H	-0.041493	1.009800	1.056531
	O288	O	0.482031	0.398386	0.551056
	H289	H	0.479713	0.399996	0.555403
	H290	H	0.491696	0.404554	0.552584
	O291	O	1.047476	0.970586	0.983314
	H292	H	1.051293	0.958831	0.981061
	H293	H	1.046050	0.984429	0.979427
	O294	O	0.964005	1.045180	0.926141
	H295	H	0.972024	1.044318	0.907106
	H296	H	0.963875	1.041841	0.929738
	O297	O	0.965329	0.086507	1.033316
	H298	H	0.970269	0.085970	1.034748
	H299	H	0.962996	0.087982	1.034162
	O300	O	0.392913	0.569637	0.489289
	H301	H	0.396463	0.572769	0.487160
	H302	H	0.397302	0.571506	0.483435
	O303	O	0.977124	-0.129263	-0.002135
	H304	H	0.985830	-0.128982	-0.001214
	H305	H	0.967959	-0.145439	0.009826
	O306	O	0.047094	1.105060	1.084996
	H307	H	0.043659	1.106909	1.084915
	H308	H	0.043103	1.115271	1.084488
	O309	O	0.463142	0.455443	0.416072
	H310	H	0.461702	0.449292	0.415687
	H311	H	0.451473	0.459954	0.422309
	O312	O	1.068523	-0.086279	1.015985
	H313	H	1.070891	-0.084983	1.016948
	H314	H	1.058272	-0.089016	1.012008
	O315	O	0.435919	0.490275	0.511789
	H316	H	0.429611	0.486023	0.509638
	H317	H	0.432796	0.490006	0.508422
	O318	O	0.458874	0.552249	0.575502
	H319	H	0.456163	0.547542	0.565908
	H320	H	0.447990	0.545378	0.581040
	O321	O	1.019356	0.948788	0.982335
	H322	H	1.016461	0.941636	0.980654
	H323	H	1.026365	0.935177	0.979672
	O324	O	0.487672	0.517761	0.456359
	H325	H	0.499236	0.513025	0.451313
	H326	H	0.482474	0.509786	0.449074
	O327	O	0.352370	0.487678	0.454979
	H328	H	0.344061	0.485772	0.452305
	H329	H	0.351234	0.493867	0.450778
	O330	O	0.953489	0.045280	1.026782
	H331	H	0.958853	0.045658	1.014400
	H332	H	0.954956	0.041737	1.025638
	O333	O	0.939643	0.933241	-0.081997
	H334	H	0.922523	0.935124	-0.072882
	H335	H	0.935962	0.927018	-0.075943
	O336	O	0.517187	0.510178	0.520289
	H337	H	0.514109	0.508583	0.520241
	H338	H	0.517672	0.514395	0.531512
	O339	O	0.596044	0.483587	0.526511
	H340	H	0.585356	0.482680	0.534235
	H341	H	0.596777	0.481936	0.523294
	O342	O	0.003564	1.057515	0.011663
	H343	H	0.003922	1.052838	-0.001573
	H344	H	0.006045	1.052934	0.003260
	O345	O	-0.033707	-0.106622	-0.040394
	H346	H	-0.034054	-0.101342	-0.026012
	H347	H	-0.047629	-0.098215	-0.034485
	O348	O	0.560908	0.531225	0.483175
	H349	H	0.550446	0.534868	0.496502
	H350	H	0.573359	0.534630	0.475285
	O351	O	0.529874	0.497675	0.576955
	H352	H	0.523964	0.490185	0.566660
	H353	H	0.522551	0.502897	0.577282
	O354	O	0.504920	0.443391	0.499021
	H355	H	0.515925	0.438273	0.492191
	H356	H	0.517897	0.429802	0.492507
	O357	O	0.478024	0.494882	0.519036
	H358	H	0.480543	0.498719	0.520585
	H359	H	0.475246	0.516003	0.519856
	O360	O	0.083257	-0.004375	0.005977
	H361	H	0.079258	0.003349	0.013585
	H362	H	0.083532	0.009183	0.012578
	O363	O	0.554619	0.508331	0.474682
	H364	H	0.565933	0.502845	0.478464
	H365	H	0.555361	0.497987	0.488857
	O366	O	0.025726	0.014673	1.042142
	H367	H	0.023094	0.015976	1.038383
	H368	H	0.029418	-0.002690	1.043683
	O369	O	0.475639	0.501286	0.481403
	H370	H	0.473743	0.503232	0.488869
	H371	H	0.479034	0.504024	0.470597
