data_Molecule from HDF5

_cell_length_a		16.374130
_cell_length_b		16.406136
_cell_length_c		16.281585
_cell_angle_alpha	89.897082
_cell_angle_beta	90.088592
_cell_angle_gamma	89.983733
_symmetry_space_group_name_H-M	'P 1'
_symmetry_Int_Tables_number		1

loop_
	_symmetry_equiv_pos_as_xyz
	x,y,z

loop_
	_atom_site_label
	_atom_site_type_symbol
	_atom_site_fract_x
	_atom_site_fract_y
	_atom_site_fract_z
	H0	H	0.391832	0.834388	0.731171
	H1	H	0.607729	0.149206	0.733672
	H2	H	0.600285	0.832394	0.287922
	H3	H	0.390080	0.150755	0.285490
	H4	H	0.718114	0.387358	0.849719
	H5	H	0.719657	0.603990	0.166640
	H6	H	0.275813	0.599277	0.847033
	H7	H	0.276340	0.390261	0.167430
	H8	H	0.839050	0.715833	0.399379
	H9	H	0.156123	0.711582	0.613737
	H10	H	0.838260	0.266318	0.621099
	H11	H	0.153696	0.269423	0.402020
	H12	H	0.837623	0.385287	0.732598
	H13	H	0.155718	0.596746	0.727925
	H14	H	0.838418	0.600110	0.284524
	H15	H	0.155360	0.388402	0.288451
	H16	H	0.385650	0.718816	0.849924
	H17	H	0.599993	0.715182	0.168389
	H18	H	0.603572	0.270855	0.849625
	H19	H	0.386038	0.269902	0.165419
	H20	H	0.717095	0.832302	0.403038
	H21	H	0.723344	0.148402	0.617332
	H22	H	0.274630	0.834100	0.616717
	H23	H	0.269643	0.148146	0.396625
	H24	H	0.888388	0.334711	0.229912
	H25	H	0.102893	0.650870	0.230550
	H26	H	0.100322	0.332914	0.788411
	H27	H	0.889952	0.652236	0.783915
	H28	H	0.218570	0.885487	0.348846
	H29	H	0.221718	0.100758	0.665664
	H30	H	0.775105	0.098400	0.348521
	H31	H	0.778321	0.885528	0.667659
	H32	H	0.339173	0.219280	0.896266
	H33	H	0.655708	0.214488	0.112532
	H34	H	0.337532	0.771548	0.117529
	H35	H	0.651115	0.766775	0.898406
	H36	H	0.338053	0.886519	0.231597
	H37	H	0.656924	0.097046	0.227648
	H38	H	0.340633	0.103873	0.780296
	H39	H	0.655619	0.887142	0.789363
	H40	H	0.883879	0.219149	0.352025
	H41	H	0.102662	0.213305	0.668111
	H42	H	0.104113	0.769997	0.348768
	H43	H	0.893587	0.771549	0.668770
	H44	H	0.218935	0.334951	0.900485
	H45	H	0.217502	0.652215	0.113405
	H46	H	0.771160	0.336562	0.115606
	H47	H	0.770354	0.651702	0.896434
	H48	H	0.410712	0.103284	0.590621
	H49	H	0.589653	0.876679	0.601791
	H50	H	0.587452	0.105481	0.418596
	H51	H	0.410489	0.884620	0.429401
	H52	H	0.592438	0.404424	0.126067
	H53	H	0.579899	0.578597	0.896519
	H54	H	0.404418	0.580548	0.122617
	H55	H	0.411021	0.405559	0.894069
	H56	H	0.111536	0.584724	0.419825
	H57	H	0.881165	0.585278	0.596226
	H58	H	0.108854	0.401000	0.596757
	H59	H	0.883176	0.405719	0.422335
	H60	H	0.108583	0.402759	0.596103
	H61	H	0.883642	0.579999	0.592397
	H62	H	0.108367	0.579761	0.423198
	H63	H	0.882538	0.406516	0.419374
	H64	H	0.407851	0.583285	0.121926
	H65	H	0.579302	0.583758	0.894239
	H66	H	0.581220	0.415322	0.118692
	H67	H	0.406267	0.402635	0.891018
	H68	H	0.587469	0.106248	0.419088
	H69	H	0.581634	0.880283	0.598274
	H70	H	0.409221	0.105623	0.593453
	H71	H	0.399244	0.874929	0.417769
	H72	H	0.906482	0.607111	0.095560
	H73	H	0.083981	0.378466	0.102935
	H74	H	0.086695	0.606702	0.917836
	H75	H	0.912404	0.385942	0.927848
	H76	H	0.082296	0.901929	0.621908
	H77	H	0.084112	0.081355	0.394015
	H78	H	0.907926	0.073269	0.620760
	H79	H	0.910865	0.904200	0.394423
	H80	H	0.602818	0.074710	0.932939
	H81	H	0.382524	0.078310	0.100628
	H82	H	0.609564	0.900582	0.094144
	H83	H	0.379320	0.896989	0.922123
	H84	H	0.608273	0.907098	0.093903
	H85	H	0.380939	0.087219	0.097055
	H86	H	0.612044	0.075937	0.909751
	H87	H	0.387039	0.911703	0.929294
	H88	H	0.914439	0.078688	0.620044
	H89	H	0.082295	0.074472	0.396199
	H90	H	0.087135	0.897655	0.625014
	H91	H	0.908501	0.898138	0.391544
	H92	H	0.084305	0.606883	0.918119
	H93	H	0.082407	0.381912	0.092306
	H94	H	0.910827	0.606014	0.095846
	H95	H	0.899324	0.379633	0.923848
	H96	H	0.412882	0.104247	0.593863
	H97	H	0.589007	0.879442	0.592696
	H98	H	0.587409	0.106203	0.418677
	H99	H	0.416689	0.878433	0.413241
	H100	H	0.576711	0.398680	0.121982
	H101	H	0.584027	0.580874	0.894678
	H102	H	0.404322	0.584498	0.123824
	H103	H	0.405564	0.408951	0.893130
	H104	H	0.110606	0.578569	0.416911
	H105	H	0.881716	0.579487	0.599642
	H106	H	0.109189	0.402959	0.597772
	H107	H	0.881772	0.403546	0.420612
	H108	H	0.908855	0.605467	0.092568
	H109	H	0.092479	0.377894	0.094683
	H110	H	0.085826	0.606077	0.919601
	H111	H	0.910290	0.380443	0.914651
	H112	H	0.088650	0.904496	0.622748
	H113	H	0.076925	0.079730	0.396774
	H114	H	0.907799	0.081390	0.623671
	H115	H	0.904304	0.903383	0.393165
	H116	H	0.613822	0.095573	0.924681
	H117	H	0.385017	0.080612	0.091373
	H118	H	0.610505	0.905060	0.099478
	H119	H	0.381666	0.912179	0.911865
	C120	C	0.376893	0.000453	0.628202
	C121	C	0.620582	0.982803	0.631147
	C122	C	0.618909	0.000616	0.386609
	C123	C	0.374753	0.983229	0.385779
	C124	C	0.616294	0.373411	0.016785
	C125	C	0.615118	0.615127	1.000049
	C126	C	0.372926	0.616119	0.017402
	C127	C	0.374564	0.372623	0.998164
	C128	C	0.005726	0.614215	0.386122
	C129	C	0.987806	0.612857	0.628321
	C130	C	0.004263	0.369634	0.630952
	C131	C	0.987109	0.371385	0.387576
	C132	C	0.874278	0.502110	0.129040
	C133	C	0.118631	0.484195	0.129524
	C134	C	0.117766	0.501471	0.886053
	C135	C	0.873838	0.485940	0.886712
	C136	C	0.118653	0.869601	0.517234
	C137	C	0.116217	0.112581	0.499827
	C138	C	0.875268	0.112606	0.517272
	C139	C	0.876209	0.869491	0.499017
	C140	C	0.505527	0.116058	0.886423
	C141	C	0.487935	0.114625	0.129392
	C142	C	0.504735	0.871665	0.129583
	C143	C	0.486942	0.872773	0.888139
	C144	C	0.373807	0.881997	0.690635
	C145	C	0.625176	0.101459	0.693052
	C146	C	0.619271	0.880360	0.327431
	C147	C	0.371546	0.102625	0.325014
	C148	C	0.677759	0.369938	0.897202
	C149	C	0.678099	0.620140	0.119187
	C150	C	0.314102	0.618415	0.895936
	C151	C	0.314765	0.370820	0.118790
	C152	C	0.886740	0.675835	0.381830
	C153	C	0.108128	0.671732	0.631045
	C154	C	0.885633	0.307809	0.636441
	C155	C	0.106309	0.310137	0.384345
	C156	C	0.885189	0.367009	0.692489
	C157	C	0.107838	0.614456	0.688455
	C158	C	0.886295	0.617704	0.324744
	C159	C	0.107108	0.369251	0.327483
	C160	C	0.368859	0.677897	0.897479
	C161	C	0.618358	0.675496	0.120232
	C162	C	0.620555	0.311795	0.897418
	C163	C	0.369429	0.310895	0.117822
	C164	C	0.677792	0.880379	0.384735
	C165	C	0.682739	0.101354	0.634813
	C166	C	0.315154	0.881741	0.633342
	C167	C	0.311500	0.101335	0.380602
	C168	C	0.870530	0.383004	0.190166
	C169	C	0.121031	0.603376	0.190419
	C170	C	0.118805	0.381110	0.827502
	C171	C	0.871200	0.604499	0.824038
	C172	C	0.178683	0.867396	0.396906
	C173	C	0.179787	0.117313	0.618701
	C174	C	0.813979	0.116804	0.397114
	C175	C	0.817331	0.867445	0.619578
	C176	C	0.386864	0.178460	0.879813
	C177	C	0.607851	0.174793	0.131482
	C178	C	0.385188	0.811478	0.134444
	C179	C	0.604629	0.808817	0.882628
	C180	C	0.385557	0.868903	0.191483
	C181	C	0.608610	0.115893	0.188327
	C182	C	0.387643	0.120753	0.822041
	C183	C	0.606907	0.868937	0.827943
	C184	C	0.868436	0.176818	0.398893
	C185	C	0.120913	0.174034	0.619649
	C186	C	0.121447	0.809810	0.396845
	C187	C	0.874849	0.810350	0.620026
	C188	C	0.178123	0.382087	0.883603
	C189	C	0.178047	0.603941	0.131810
	C190	C	0.811974	0.383846	0.133055
	C191	C	0.811838	0.604511	0.880492
	C192	C	0.403236	0.082863	0.600594
	C193	C	0.594346	0.900363	0.605124
	C194	C	0.594697	0.084235	0.411570
	C195	C	0.401204	0.900799	0.412322
	C196	C	0.590717	0.398840	0.100504
	C197	C	0.588537	0.588733	0.917045
	C198	C	0.398310	0.590378	0.100879
	C199	C	0.400285	0.398251	0.914585
	C200	C	0.088567	0.588272	0.412278
	C201	C	0.903972	0.588494	0.603095
	C202	C	0.087120	0.395009	0.604577
	C203	C	0.904257	0.397402	0.413436
	C204	C	0.901107	0.584801	0.102201
	C205	C	0.093441	0.401056	0.104080
	C206	C	0.092725	0.584828	0.911219
	C207	C	0.899761	0.403554	0.914232
	C208	C	0.093344	0.894345	0.601251
	C209	C	0.088948	0.086062	0.417332
	C210	C	0.902313	0.085425	0.599890
	C211	C	0.900903	0.894603	0.414850
	C212	C	0.587789	0.089676	0.914353
	C213	C	0.404645	0.089384	0.103875
	C214	C	0.587734	0.896881	0.103124
	C215	C	0.404288	0.899558	0.913825
	Zn216	Zn	0.497171	-0.007132	0.759059
	Zn217	Zn	0.497109	-0.007678	0.257436
	Zn218	Zn	0.744435	0.495134	0.008091
	Zn219	Zn	0.246737	0.493558	0.007169
	Zn220	Zn	-0.002606	0.741832	0.508380
	Zn221	Zn	-0.004856	0.241530	0.509252
	Zn222	Zn	-0.003740	0.492744	0.757794
	Zn223	Zn	-0.003619	0.492910	0.257709
	Zn224	Zn	0.494259	0.743663	0.008667
	Zn225	Zn	0.495693	0.244589	0.008257
	Zn226	Zn	0.748106	-0.009223	0.508155
	Zn227	Zn	0.246238	-0.008410	0.507888
	N228	N	0.411337	0.956934	0.687536
	N229	N	0.587320	0.026847	0.691173
	N230	N	0.583682	0.956140	0.328264
	N231	N	0.410231	0.028343	0.328211
	N232	N	0.675069	0.407677	0.972493
	N233	N	0.676203	0.583608	0.043336
	N234	N	0.316290	0.580773	0.971254
	N235	N	0.317593	0.408077	0.043020
	N236	N	0.962011	0.673946	0.419224
	N237	N	0.032397	0.670945	0.594601
	N238	N	0.960664	0.309351	0.598827
	N239	N	0.030545	0.311161	0.420816
	N240	N	0.959900	0.404857	0.689133
	N241	N	0.031929	0.578571	0.687112
	N242	N	0.961250	0.580251	0.327264
	N243	N	0.031904	0.406290	0.328995
	N244	N	0.404614	0.676971	0.973923
	N245	N	0.579987	0.672572	0.045042
	N246	N	0.582964	0.314022	0.972758
	N247	N	0.405708	0.311703	0.041758
	N248	N	0.677731	0.956221	0.420604
	N249	N	0.680000	0.026657	0.597022
	N250	N	0.316820	0.956709	0.595471
	N251	N	0.313235	0.026008	0.417551
	N252	N	0.908488	0.457841	0.187852
	N253	N	0.084788	0.527909	0.189148
	N254	N	0.082092	0.456407	0.828859
	N255	N	0.909039	0.529714	0.827807
	N256	N	0.177099	0.903982	0.472781
	N257	N	0.177090	0.079878	0.543321
	N258	N	0.817909	0.077554	0.471820
	N259	N	0.817965	0.903364	0.543111
	N260	N	0.461105	0.175713	0.919132
	N261	N	0.531601	0.174393	0.095774
	N262	N	0.460109	0.813113	0.096670
	N263	N	0.529114	0.811118	0.919399
	N264	N	0.460880	0.906015	0.188388
	N265	N	0.532986	0.079605	0.187337
	N266	N	0.462585	0.082831	0.825781
	N267	N	0.532706	0.907955	0.831155
	N268	N	0.905335	0.174672	0.474588
	N269	N	0.082162	0.171395	0.544643
	N270	N	0.084917	0.811169	0.472772
	N271	N	0.910621	0.811433	0.543862
	N272	N	0.177694	0.457971	0.919166
	N273	N	0.176651	0.528867	0.094523
	N274	N	0.814080	0.459215	0.095935
	N275	N	0.813028	0.529666	0.918434
	O276	O	0.680292	0.476746	0.642381
	H277	H	0.660033	0.502504	0.638412
	H278	H	0.697386	0.490025	0.652149
	O279	O	0.550142	0.482955	0.643046
	H280	H	0.557299	0.495885	0.655090
	H281	H	0.566868	0.466288	0.652768
	O282	O	0.963688	0.844707	-0.130756
	H283	H	0.952809	0.848715	-0.120042
	H284	H	0.954429	0.840104	-0.127510
	O285	O	0.948891	0.814529	-0.106464
	H286	H	0.918197	0.799844	-0.087552
	H287	H	0.936973	0.845194	-0.121371
	O288	O	0.299272	0.628668	0.368801
	H289	H	0.294933	0.600805	0.348665
	H290	H	0.294433	0.632485	0.369034
	O291	O	0.526438	0.272912	0.626462
	H292	H	0.522798	0.290626	0.615747
	H293	H	0.553376	0.254608	0.636204
	O294	O	0.779775	0.779842	1.014396
	H295	H	0.746490	0.747732	1.021227
	H296	H	0.796465	0.790919	1.059206
	O297	O	0.360139	0.649959	0.536285
	H298	H	0.353394	0.645716	0.519071
	H299	H	0.356471	0.659870	0.508149
	O300	O	0.297432	0.524155	0.363108
	H301	H	0.311559	0.507080	0.374715
	H302	H	0.294987	0.517214	0.372702
	O303	O	0.440212	0.285409	0.443465
	H304	H	0.441910	0.276779	0.411412
	H305	H	0.446763	0.302419	0.436301
	O306	O	0.555447	0.675313	0.525877
	H307	H	0.539801	0.673869	0.529271
	H308	H	0.563446	0.678541	0.517164
	O309	O	1.207574	0.204793	0.027839
	H310	H	1.233897	0.221321	0.019627
	H311	H	1.222248	0.178121	0.002814
	O312	O	0.509125	0.688917	0.495879
	H313	H	0.513720	0.686315	0.494077
	H314	H	0.492146	0.705935	0.498197
	O315	O	-0.170742	0.092489	1.028798
	H316	H	-0.160759	0.092267	1.057979
	H317	H	-0.170174	0.102116	1.040814
	O318	O	0.021929	0.026548	-0.190040
	H319	H	0.022121	0.043179	-0.200716
	H320	H	0.033954	0.016686	-0.202889
	O321	O	0.472202	0.615569	0.315529
	H322	H	0.489365	0.619779	0.328631
	H323	H	0.466433	0.590777	0.306688
	O324	O	0.862473	-0.052733	1.198556
	H325	H	0.875103	-0.040516	1.197798
	H326	H	0.846968	-0.046344	1.214656
	O327	O	0.463324	0.577039	0.692978
	H328	H	0.467009	0.579817	0.698459
	H329	H	0.442795	0.579955	0.688337
	O330	O	0.199263	1.068064	0.937967
	H331	H	0.204691	1.047311	0.900662
	H332	H	0.165455	1.055830	0.933967
	O333	O	-0.713464	0.286318	-0.476310
	H334	H	-0.735084	0.261146	-0.477418
	H335	H	-0.693691	0.288990	-0.488112
	O336	O	0.970933	1.005074	0.016227
	H337	H	0.958264	1.006396	-0.009110
	H338	H	0.970543	1.027425	0.008705
	O339	O	0.051002	0.896986	1.165599
	H340	H	0.045923	0.892375	1.152017
	H341	H	0.047027	0.902141	1.137893
	O342	O	0.519186	0.272302	0.286047
	H343	H	0.526575	0.234271	0.246078
	H344	H	0.571455	0.288201	0.300979
	O345	O	-0.034424	0.100492	1.070917
	H346	H	-0.022855	0.100411	1.083483
	H347	H	-0.006690	0.094277	1.056214
	O348	O	0.670216	0.320019	0.333704
	H349	H	0.674848	0.315963	0.383401
	H350	H	0.684376	0.370015	0.323025
	O351	O	1.207138	0.981767	0.161283
	H352	H	1.216749	0.992066	0.173387
	H353	H	1.175171	0.969120	0.160768
	O354	O	0.919750	1.073322	1.207244
	H355	H	0.940209	1.083104	1.199053
	H356	H	0.946932	1.085675	1.209867
	O357	O	0.206549	-0.220349	-0.013764
	H358	H	0.222514	-0.201433	0.005402
	H359	H	0.238432	-0.228530	-0.006716
	O360	O	0.579653	0.376226	0.514231
	H361	H	0.553898	0.380308	0.505659
	H362	H	0.564434	0.378614	0.536430
	O363	O	1.029525	-0.178419	-0.019887
	H364	H	1.018706	-0.167071	-0.023807
	H365	H	1.023553	-0.184514	-0.046018
	O366	O	-0.159984	0.184445	1.005844
	H367	H	-0.132783	0.190930	1.010245
	H368	H	-0.164020	0.195774	1.022764
	O369	O	1.210670	-0.021726	0.799541
	H370	H	1.219422	-0.054464	0.787223
	H371	H	1.217840	-0.048419	0.787691
	O372	O	0.712665	0.278234	0.492335
	H373	H	0.705036	0.289657	0.509990
	H374	H	0.742226	0.252555	0.483747
	O375	O	0.179641	0.179922	1.192347
	H376	H	0.191919	0.133848	1.201773
	H377	H	0.189457	0.189199	1.137601
	O378	O	0.712608	0.502844	0.351792
	H379	H	0.704555	0.499021	0.352184
	H380	H	0.720649	0.516759	0.336798
	O381	O	-0.000964	1.190622	-0.060171
	H382	H	0.024701	1.201727	-0.054356
	H383	H	0.003060	1.193168	-0.098539
	O384	O	0.423965	0.466351	0.322256
	H385	H	0.427435	0.459875	0.313522
	H386	H	0.427475	0.460867	0.340328
	O387	O	0.643878	0.612015	0.473345
	H388	H	0.647622	0.623388	0.479813
	H389	H	0.639872	0.608330	0.466743
	O390	O	0.817691	0.965789	-0.139287
	H391	H	0.789278	0.965483	-0.141538
	H392	H	0.813477	0.951896	-0.113980
	O393	O	0.986627	0.184980	0.823494
	H394	H	0.986069	0.208430	0.804731
	H395	H	0.949660	0.175955	0.820708
	O396	O	0.675906	0.667081	0.645635
	H397	H	0.647665	0.673522	0.648206
	H398	H	0.666000	0.668281	0.633550
	O399	O	-0.019325	0.788400	0.206024
	H400	H	-0.004673	0.772718	0.207394
	H401	H	-0.012821	0.783086	0.201083
	O402	O	1.315681	1.315547	-0.314156
	H403	H	1.323738	1.304504	-0.348635
	H404	H	1.342065	1.322157	-0.310033
	O405	O	0.687575	0.505708	0.624642
	H406	H	0.690883	0.493228	0.621971
	H407	H	0.704549	0.497556	0.638476
	O408	O	0.510751	0.343258	0.718870
	H409	H	0.536896	0.348447	0.709079
	H410	H	0.498103	0.340830	0.727756
	O411	O	1.019240	1.209972	1.230794
	H412	H	1.041589	1.227339	1.245146
	H413	H	1.051752	1.219844	1.235068
	O414	O	0.548151	0.577519	0.523297
	H415	H	0.548638	0.580339	0.526717
	H416	H	0.533679	0.563871	0.527252
	O417	O	-0.200037	0.944754	1.032253
	H418	H	-0.202275	0.933515	1.049391
	H419	H	-0.197537	0.953586	1.058540
	O420	O	0.206416	0.963489	1.109746
	H421	H	0.200757	0.972743	1.104524
	H422	H	0.205572	0.969857	1.123443
	O423	O	0.167041	0.825041	-0.172769
	H424	H	0.134586	0.811782	-0.159588
	H425	H	0.160423	0.807822	-0.142116
	O426	O	0.450381	0.551807	0.341431
	H427	H	0.468339	0.529151	0.340533
	H428	H	0.450431	0.531695	0.351772
	O429	O	0.283436	0.477482	0.711047
	H430	H	0.258964	0.479840	0.733190
	H431	H	0.293732	0.444236	0.702676
	O432	O	0.349099	0.487269	0.467329
	H433	H	0.338186	0.484914	0.479802
	H434	H	0.361348	0.496281	0.483624
	O435	O	-0.180166	0.137804	-0.177092
	H436	H	-0.191885	0.148760	-0.142828
	H437	H	-0.195457	0.108593	-0.179891
	O438	O	-0.186480	0.806136	1.170154
	H439	H	-0.160448	0.816290	1.178465
	H440	H	-0.177203	0.833495	1.184673
	O441	O	0.405925	0.648091	0.586847
	H442	H	0.382876	0.672020	0.571472
	H443	H	0.396153	0.631887	0.618515
