data_Molecule from HDF5

_cell_length_a		16.477019
_cell_length_b		16.271488
_cell_length_c		16.131456
_cell_angle_alpha	90.107407
_cell_angle_beta	90.498533
_cell_angle_gamma	90.100313
_symmetry_space_group_name_H-M	'P 1'
_symmetry_Int_Tables_number		1

loop_
	_symmetry_equiv_pos_as_xyz
	x,y,z

loop_
	_atom_site_label
	_atom_site_type_symbol
	_atom_site_fract_x
	_atom_site_fract_y
	_atom_site_fract_z
	H0	H	0.398723	0.834132	0.722381
	H1	H	0.604897	0.157239	0.725510
	H2	H	0.598152	0.832871	0.291182
	H3	H	0.403924	0.159893	0.291284
	H4	H	0.719473	0.388161	0.845667
	H5	H	0.721079	0.602322	0.168843
	H6	H	0.278271	0.600648	0.845185
	H7	H	0.281207	0.391264	0.168981
	H8	H	0.842510	0.718627	0.401543
	H9	H	0.160960	0.717800	0.615115
	H10	H	0.842888	0.274477	0.610777
	H11	H	0.161408	0.277619	0.403998
	H12	H	0.839110	0.396381	0.720666
	H13	H	0.159235	0.600103	0.730155
	H14	H	0.840641	0.601626	0.285371
	H15	H	0.159754	0.393760	0.287588
	H16	H	0.395977	0.712114	0.843450
	H17	H	0.603488	0.714210	0.170209
	H18	H	0.600316	0.276749	0.843696
	H19	H	0.399702	0.279746	0.170273
	H20	H	0.721985	0.836011	0.398035
	H21	H	0.722377	0.156601	0.611165
	H22	H	0.278756	0.837633	0.610952
	H23	H	0.280564	0.157243	0.397124
	H24	H	0.901866	0.333418	0.221507
	H25	H	0.098791	0.660515	0.222114
	H26	H	0.095231	0.334164	0.792976
	H27	H	0.897340	0.659447	0.791096
	H28	H	0.217347	0.893125	0.342583
	H29	H	0.224948	0.102880	0.667127
	H30	H	0.782397	0.101462	0.344144
	H31	H	0.781647	0.889537	0.666302
	H32	H	0.339622	0.213399	0.899820
	H33	H	0.659186	0.215398	0.110420
	H34	H	0.339988	0.776302	0.109432
	H35	H	0.659625	0.774802	0.905321
	H36	H	0.338760	0.897477	0.220864
	H37	H	0.661447	0.096572	0.223570
	H38	H	0.340575	0.094904	0.784781
	H39	H	0.661736	0.892781	0.790312
	H40	H	0.902520	0.212855	0.343771
	H41	H	0.106533	0.213292	0.670751
	H42	H	0.102704	0.778572	0.344218
	H43	H	0.903170	0.782763	0.670018
	H44	H	0.217275	0.335798	0.901105
	H45	H	0.220947	0.657689	0.113342
	H46	H	0.780147	0.334905	0.112052
	H47	H	0.777153	0.656483	0.901989
	H48	H	0.414738	0.109391	0.592528
	H49	H	0.595435	0.879861	0.594892
	H50	H	0.594015	0.110521	0.420377
	H51	H	0.407282	0.879753	0.411991
	H52	H	0.587072	0.406965	0.121287
	H53	H	0.582657	0.591520	0.891079
	H54	H	0.414456	0.585951	0.122259
	H55	H	0.403976	0.405658	0.888757
	H56	H	0.112014	0.586229	0.420710
	H57	H	0.888239	0.591267	0.593246
	H58	H	0.116043	0.405638	0.600475
	H59	H	0.887577	0.406352	0.416718
	H60	H	0.114535	0.406814	0.599802
	H61	H	0.887016	0.586437	0.598950
	H62	H	0.113802	0.585559	0.416089
	H63	H	0.887316	0.404366	0.415248
	H64	H	0.407027	0.589293	0.124983
	H65	H	0.596084	0.581458	0.889861
	H66	H	0.590885	0.404213	0.123781
	H67	H	0.406528	0.407007	0.889597
	H68	H	0.597789	0.113948	0.415352
	H69	H	0.591680	0.880213	0.596173
	H70	H	0.411966	0.110451	0.592394
	H71	H	0.409894	0.881516	0.415880
	H72	H	0.910384	0.609131	0.088636
	H73	H	0.094921	0.381272	0.094293
	H74	H	0.090107	0.613424	0.915958
	H75	H	0.905161	0.382665	0.920856
	H76	H	0.096876	0.904551	0.625351
	H77	H	0.088230	0.092903	0.389598
	H78	H	0.912108	0.085654	0.623276
	H79	H	0.915731	0.916901	0.394144
	H80	H	0.610252	0.080843	0.921392
	H81	H	0.387625	0.082189	0.094161
	H82	H	0.612391	0.911566	0.098168
	H83	H	0.387322	0.902668	0.918530
	H84	H	0.617376	0.900777	0.103567
	H85	H	0.383101	0.087369	0.105039
	H86	H	0.615854	0.085974	0.911038
	H87	H	0.388320	0.908029	0.913488
	H88	H	0.911628	0.084510	0.622915
	H89	H	0.097433	0.088860	0.387200
	H90	H	0.097018	0.916547	0.620958
	H91	H	0.917332	0.898742	0.388249
	H92	H	0.085135	0.609904	0.922076
	H93	H	0.091361	0.379800	0.100356
	H94	H	0.900968	0.613505	0.095593
	H95	H	0.902028	0.379151	0.912501
	H96	H	0.413834	0.111272	0.594693
	H97	H	0.592406	0.881750	0.592493
	H98	H	0.590895	0.112278	0.413446
	H99	H	0.405515	0.880547	0.416642
	H100	H	0.591652	0.409200	0.121557
	H101	H	0.582001	0.574960	0.896828
	H102	H	0.407388	0.580183	0.122509
	H103	H	0.406667	0.403439	0.890127
	H104	H	0.114803	0.589513	0.417915
	H105	H	0.885266	0.593635	0.599263
	H106	H	0.115032	0.406931	0.601398
	H107	H	0.887778	0.404336	0.417488
	H108	H	0.912742	0.612045	0.101047
	H109	H	0.088293	0.383070	0.094823
	H110	H	0.093649	0.611936	0.924476
	H111	H	0.911137	0.381663	0.914554
	H112	H	0.086053	0.909667	0.620175
	H113	H	0.090580	0.082635	0.392166
	H114	H	0.912699	0.085297	0.622826
	H115	H	0.901002	0.908364	0.386291
	H116	H	0.614120	0.093155	0.921712
	H117	H	0.384580	0.094775	0.093925
	H118	H	0.613560	0.900437	0.091488
	H119	H	0.385060	0.901105	0.911346
	C120	C	0.381240	0.004259	0.625020
	C121	C	0.624400	0.987047	0.627207
	C122	C	0.623207	0.005271	0.384846
	C123	C	0.378542	0.988043	0.383471
	C124	C	0.620145	0.374693	0.015007
	C125	C	0.619789	0.615752	0.999161
	C126	C	0.378125	0.616510	0.015558
	C127	C	0.376640	0.374536	0.997629
	C128	C	0.008657	0.619028	0.385717
	C129	C	0.992063	0.621101	0.630214
	C130	C	0.009308	0.375215	0.629663
	C131	C	0.993003	0.374675	0.385316
	C132	C	0.878175	0.504631	0.127263
	C133	C	0.122193	0.488412	0.128499
	C134	C	0.118962	0.505214	0.888328
	C135	C	0.875741	0.487756	0.885150
	C136	C	0.123249	0.877336	0.514733
	C137	C	0.124416	0.119325	0.497205
	C138	C	0.881365	0.116823	0.515336
	C139	C	0.880875	0.876247	0.496853
	C140	C	0.508026	0.116813	0.884604
	C141	C	0.491335	0.118389	0.128551
	C142	C	0.508379	0.874057	0.128195
	C143	C	0.492255	0.872575	0.884199
	C144	C	0.379480	0.883041	0.683731
	C145	C	0.624446	0.108695	0.686357
	C146	C	0.620463	0.882278	0.327892
	C147	C	0.382225	0.110729	0.327697
	C148	C	0.679372	0.371114	0.893693
	C149	C	0.680602	0.619513	0.120676
	C150	C	0.318408	0.618263	0.893459
	C151	C	0.320210	0.373313	0.120274
	C152	C	0.889716	0.678843	0.383052
	C153	C	0.112533	0.678797	0.633125
	C154	C	0.889880	0.315265	0.629570
	C155	C	0.112963	0.316606	0.384954
	C156	C	0.887957	0.376031	0.684106
	C157	C	0.111981	0.620093	0.690496
	C158	C	0.888828	0.620540	0.325247
	C159	C	0.112409	0.374494	0.326650
	C160	C	0.377156	0.673757	0.892569
	C161	C	0.621747	0.675177	0.121366
	C162	C	0.620084	0.315695	0.892610
	C163	C	0.379058	0.317483	0.120824
	C164	C	0.681849	0.883893	0.381256
	C165	C	0.682937	0.108360	0.629468
	C166	C	0.319919	0.884706	0.627989
	C167	C	0.321037	0.109361	0.380721
	C168	C	0.880493	0.382311	0.184168
	C169	C	0.120139	0.611214	0.185263
	C170	C	0.116475	0.383059	0.830695
	C171	C	0.876755	0.610129	0.828626
	C172	C	0.179439	0.874926	0.391959
	C173	C	0.184689	0.120828	0.619008
	C174	C	0.822607	0.119064	0.392855
	C175	C	0.822282	0.873510	0.618443
	C176	C	0.387772	0.174161	0.881937
	C177	C	0.611740	0.176179	0.128941
	C178	C	0.388003	0.815867	0.128346
	C179	C	0.612121	0.814030	0.885194
	C180	C	0.387377	0.876108	0.183997
	C181	C	0.612732	0.117206	0.185622
	C182	C	0.388214	0.115309	0.824463
	C183	C	0.612935	0.872610	0.827722
	C184	C	0.882206	0.174536	0.392527
	C185	C	0.125782	0.175891	0.620881
	C186	C	0.122462	0.817710	0.392790
	C187	C	0.882482	0.819709	0.620208
	C188	C	0.177407	0.384085	0.884484
	C189	C	0.180726	0.609897	0.130890
	C190	C	0.819841	0.383077	0.129774
	C191	C	0.817014	0.608785	0.883964
	C192	C	0.406262	0.088519	0.600268
	C193	C	0.600240	0.902653	0.601818
	C194	C	0.600741	0.090094	0.409264
	C195	C	0.401036	0.902766	0.407704
	C196	C	0.596717	0.399646	0.100085
	C197	C	0.594250	0.590144	0.914663
	C198	C	0.402647	0.592313	0.100988
	C199	C	0.399053	0.398493	0.911794
	C200	C	0.091949	0.594133	0.411097
	C201	C	0.908526	0.597317	0.604492
	C202	C	0.093264	0.399425	0.606970
	C203	C	0.909331	0.398332	0.409602
	C204	C	0.901132	0.589388	0.102453
	C205	C	0.098514	0.403514	0.103599
	C206	C	0.096273	0.589720	0.913417
	C207	C	0.899202	0.403041	0.908957
	C208	C	0.100200	0.902853	0.599909
	C209	C	0.099301	0.095169	0.411894
	C210	C	0.905249	0.092196	0.600735
	C211	C	0.904517	0.900874	0.411594
	C212	C	0.591791	0.093545	0.910481
	C213	C	0.407170	0.095074	0.104534
	C214	C	0.592448	0.897326	0.104630
	C215	C	0.408603	0.896764	0.907737
	Zn216	Zn	0.501980	-0.005423	0.754704
	Zn217	Zn	0.500813	-0.003893	0.257069
	Zn218	Zn	0.748220	0.495510	0.007293
	Zn219	Zn	0.249601	0.496685	0.007309
	Zn220	Zn	0.002479	0.749350	0.507447
	Zn221	Zn	0.002389	0.245770	0.508737
	Zn222	Zn	-0.001244	0.497289	0.758342
	Zn223	Zn	-0.000012	0.497103	0.256060
	Zn224	Zn	0.499037	0.743885	0.006741
	Zn225	Zn	0.498781	0.247034	0.006267
	Zn226	Zn	0.752275	-0.004091	0.505389
	Zn227	Zn	0.251310	-0.002349	0.504513
	N228	N	0.417261	0.958329	0.681767
	N229	N	0.588993	0.032159	0.685372
	N230	N	0.584844	0.958481	0.329774
	N231	N	0.417251	0.034139	0.329360
	N232	N	0.679439	0.407208	0.970786
	N233	N	0.679226	0.582992	0.043924
	N234	N	0.319019	0.583304	0.971061
	N235	N	0.318635	0.408053	0.042703
	N236	N	0.965081	0.677938	0.420159
	N237	N	0.037091	0.679253	0.596245
	N238	N	0.966379	0.314623	0.596628
	N239	N	0.037606	0.316546	0.420882
	N240	N	0.963292	0.412677	0.684254
	N241	N	0.036015	0.584874	0.688877
	N242	N	0.963877	0.583767	0.326956
	N243	N	0.036793	0.409947	0.326784
	N244	N	0.413469	0.672751	0.969533
	N245	N	0.584413	0.673027	0.044811
	N246	N	0.583849	0.317908	0.968954
	N247	N	0.413676	0.318247	0.043481
	N248	N	0.683799	0.961250	0.415929
	N249	N	0.683103	0.031646	0.593635
	N250	N	0.321289	0.961021	0.591957
	N251	N	0.318685	0.032060	0.414716
	N252	N	0.915886	0.458864	0.182711
	N253	N	0.084632	0.534580	0.184000
	N254	N	0.080794	0.459298	0.832741
	N255	N	0.912490	0.533874	0.829161
	N256	N	0.179910	0.911434	0.468831
	N257	N	0.184006	0.086416	0.541078
	N258	N	0.822096	0.083889	0.470179
	N259	N	0.821149	0.907842	0.540557
	N260	N	0.463283	0.175071	0.918754
	N261	N	0.535168	0.177275	0.094509
	N262	N	0.464265	0.814362	0.094276
	N263	N	0.536022	0.813807	0.919325
	N264	N	0.463242	0.911345	0.184056
	N265	N	0.536941	0.081944	0.185463
	N266	N	0.464217	0.080593	0.825939
	N267	N	0.537307	0.908005	0.826842
	N268	N	0.918145	0.173431	0.469813
	N269	N	0.089113	0.175413	0.544147
	N270	N	0.088342	0.818984	0.470241
	N271	N	0.918220	0.821319	0.543516
	N272	N	0.179073	0.461120	0.919672
	N273	N	0.182470	0.532419	0.096888
	N274	N	0.818277	0.460239	0.095172
	N275	N	0.816159	0.531591	0.918237
	O276	O	0.301778	0.332763	0.586331
	H277	H	0.278223	0.318703	0.585969
	H278	H	0.306803	0.347729	0.605646
	O279	O	0.010234	0.021889	-0.125880
	H280	H	-0.006319	0.016324	-0.128283
	H281	H	0.012213	0.024462	-0.135186
	O282	O	0.986328	-0.111434	1.007547
	H283	H	0.974809	-0.097046	1.005080
	H284	H	1.001815	-0.125280	1.008889
	O285	O	0.642527	0.349700	0.452068
	H286	H	0.640554	0.354065	0.453051
	H287	H	0.632193	0.347851	0.452736
	O288	O	1.040468	0.979908	0.854584
	H289	H	1.029699	0.989577	0.856920
	H290	H	1.035259	0.968712	0.865987
	O291	O	-0.009989	0.911975	-0.023395
	H292	H	-0.010873	0.912082	-0.027232
	H293	H	-0.018663	0.918081	-0.026992
	O294	O	0.459157	0.447340	0.352115
	H295	H	0.450799	0.454114	0.355567
	H296	H	0.451420	0.442168	0.354605
	O297	O	0.279613	0.530850	0.380619
	H298	H	0.273655	0.548254	0.371393
	H299	H	0.269129	0.552814	0.379013
	O300	O	0.470732	0.436307	0.346984
	H301	H	0.445674	0.449802	0.348298
	H302	H	0.472516	0.440127	0.352382
	O303	O	0.557355	0.501139	0.433578
	H304	H	0.564163	0.494602	0.442673
	H305	H	0.539285	0.485848	0.418021
	O306	O	0.373948	0.464623	0.514853
	H307	H	0.380772	0.457866	0.505630
	H308	H	0.364088	0.494906	0.502555
	O309	O	0.346921	0.673181	0.350975
	H310	H	0.378319	0.671125	0.351357
	H311	H	0.352439	0.687280	0.370711
	O312	O	-0.166824	0.101309	0.005984
	H313	H	-0.168190	0.113138	-0.001028
	H314	H	-0.167469	0.098384	0.018789
	O315	O	0.736573	0.726311	0.398168
	H316	H	0.749835	0.746635	0.405247
	H317	H	0.724766	0.708479	0.379739
	O318	O	-0.460659	1.454862	0.620111
	H319	H	-0.465881	1.447343	0.621244
	H320	H	-0.478140	1.471806	0.617281
	O321	O	0.500850	0.356545	0.574485
	H322	H	0.501284	0.347387	0.569256
	H323	H	0.507310	0.351706	0.580632
	O324	O	-0.015855	0.990644	0.135210
	H325	H	-0.015282	0.998926	0.134231
	H326	H	-0.023222	0.993139	0.136379
	O327	O	0.584224	0.565467	0.541674
	H328	H	0.588071	0.548112	0.549575
	H329	H	0.585669	0.558061	0.519468
	O330	O	0.339008	-0.669752	1.670853
	H331	H	0.339219	-0.629580	1.678083
	H332	H	0.356734	-0.682428	1.658804
	O333	O	0.140954	-0.099392	0.940843
	H334	H	0.153859	-0.111971	0.932696
	H335	H	0.148672	-0.094133	0.948559
	O336	O	0.410044	0.438992	0.660507
	H337	H	0.404773	0.446761	0.650356
	H338	H	0.400146	0.446468	0.661708
	O339	O	0.511106	-0.316814	0.387770
	H340	H	0.510931	-0.300314	0.382017
	H341	H	0.529110	-0.331225	0.392673
	O342	O	-0.114516	-0.008021	-0.127416
	H343	H	-0.129877	0.003623	-0.138005
	H344	H	-0.116523	-0.007988	-0.123353
	O345	O	0.906836	0.139279	0.903567
	H346	H	0.905188	0.148789	0.886541
	H347	H	0.916756	0.133322	0.908619
	O348	O	0.943895	1.022986	0.119735
	H349	H	0.942834	1.018458	0.121492
	H350	H	0.949846	1.028091	0.130506
	O351	O	0.577058	0.353878	0.433704
	H352	H	0.568035	0.343381	0.438934
	H353	H	0.576223	0.345307	0.434113
	O354	O	1.120037	0.022306	1.065977
	H355	H	1.125887	0.023113	1.062726
	H356	H	1.134052	0.026193	1.069821
	O357	O	0.325335	0.631153	0.511630
	H358	H	0.341866	0.641918	0.529520
	H359	H	0.320740	0.631681	0.498200
	O360	O	0.543969	0.695561	0.688238
	H361	H	0.546545	0.711003	0.712568
	H362	H	0.572217	0.695778	0.679078
	O363	O	0.180102	0.935408	0.947906
	H364	H	0.186315	0.928742	0.937496
	H365	H	0.179833	0.949694	0.939502
	O366	O	0.412722	0.638229	0.393596
	H367	H	0.415565	0.626419	0.399591
	H368	H	0.413070	0.634923	0.390110
	O369	O	-0.016215	1.009810	0.125765
	H370	H	-0.022673	1.012621	0.131654
	H371	H	-0.015256	1.008517	0.114915
	O372	O	1.652597	0.418777	0.398928
	H373	H	1.654295	0.427871	0.393832
	H374	H	1.660365	0.412592	0.391710
	O375	O	0.903554	-0.007866	-0.187463
	H376	H	0.898510	-0.006154	-0.205842
	H377	H	0.897354	0.017697	-0.193606
	O378	O	0.982161	1.059084	0.037759
	H379	H	0.969784	1.060393	0.040470
	H380	H	0.986521	1.060877	0.039531
	O381	O	0.905065	0.018277	-0.062957
	H382	H	0.902844	0.018423	-0.083706
	H383	H	0.913132	0.017415	-0.048294
	O384	O	0.987042	0.900464	0.063324
	H385	H	0.984018	0.894005	0.066838
	H386	H	0.976725	0.909274	0.068711
	O387	O	-0.094423	-0.061778	0.046561
	H388	H	-0.088453	-0.059595	0.059176
	H389	H	-0.093621	-0.068930	0.043593
	O390	O	0.059545	0.936491	0.046505
	H391	H	0.066884	0.928195	0.059811
	H392	H	0.062823	0.942561	0.057778
	O393	O	1.161711	1.065360	1.059907
	H394	H	1.168939	1.061417	1.066718
	H395	H	1.163078	1.073427	1.071790
	O396	O	0.679428	0.515572	0.702615
	H397	H	0.683103	0.526384	0.717447
	H398	H	0.679437	0.505646	0.707995
	O399	O	0.005190	1.175126	1.087552
	H400	H	0.003238	1.174897	1.089191
	H401	H	-0.002218	1.176846	1.078886
	O402	O	0.470725	0.632894	0.585477
	H403	H	0.478173	0.637019	0.581276
	H404	H	0.485281	0.637443	0.593286
	O405	O	1.010453	1.003661	0.095557
	H406	H	1.009514	1.000014	0.108823
	H407	H	1.012093	1.012742	0.098620
	O408	O	0.446901	1.321587	0.459374
	H409	H	0.447112	1.324829	0.450710
	H410	H	0.435150	1.319018	0.453546
	O411	O	0.615868	-0.533728	0.565318
	H412	H	0.609997	-0.528757	0.582115
	H413	H	0.622074	-0.544308	0.564854
	O414	O	0.688440	0.660358	0.656039
	H415	H	0.697587	0.635138	0.652305
	H416	H	0.695436	0.658485	0.633060
	O417	O	0.698324	0.456972	0.448839
	H418	H	0.682133	0.456463	0.445034
	H419	H	0.707586	0.456288	0.464457
