data_Molecule from HDF5

_cell_length_a		16.331184
_cell_length_b		16.511256
_cell_length_c		16.694822
_cell_angle_alpha	90.053434
_cell_angle_beta	89.884897
_cell_angle_gamma	90.044489
_symmetry_space_group_name_H-M	'P 1'
_symmetry_Int_Tables_number		1

loop_
	_symmetry_equiv_pos_as_xyz
	x,y,z

loop_
	_atom_site_label
	_atom_site_type_symbol
	_atom_site_fract_x
	_atom_site_fract_y
	_atom_site_fract_z
	H0	H	0.388066	0.852835	0.715977
	H1	H	0.607280	0.163899	0.716065
	H2	H	0.604463	0.853490	0.267285
	H3	H	0.390312	0.164919	0.270726
	H4	H	0.719572	0.403078	0.833974
	H5	H	0.718023	0.613085	0.146780
	H6	H	0.274466	0.612719	0.835355
	H7	H	0.271958	0.401684	0.145598
	H8	H	0.835876	0.722342	0.393683
	H9	H	0.154545	0.728574	0.597245
	H10	H	0.838124	0.284870	0.597593
	H11	H	0.156949	0.289162	0.390111
	H12	H	0.839101	0.397678	0.715316
	H13	H	0.153759	0.612759	0.713617
	H14	H	0.836933	0.608512	0.275542
	H15	H	0.154858	0.401226	0.269794
	H16	H	0.388747	0.733400	0.836456
	H17	H	0.603899	0.732988	0.145440
	H18	H	0.603586	0.284393	0.834240
	H19	H	0.385800	0.282418	0.143226
	H20	H	0.714395	0.850154	0.389220
	H21	H	0.716498	0.166490	0.593600
	H22	H	0.277932	0.849883	0.593761
	H23	H	0.279529	0.167005	0.392324
	H24	H	0.892805	0.350673	0.210771
	H25	H	0.102651	0.664870	0.213805
	H26	H	0.104794	0.352598	0.768003
	H27	H	0.886664	0.662875	0.766739
	H28	H	0.217498	0.902829	0.335037
	H29	H	0.220643	0.113142	0.646676
	H30	H	0.778962	0.107831	0.334665
	H31	H	0.773955	0.903635	0.648427
	H32	H	0.335937	0.226000	0.889769
	H33	H	0.654144	0.229085	0.094113
	H34	H	0.337716	0.790670	0.093559
	H35	H	0.655353	0.785932	0.883372
	H36	H	0.339042	0.902747	0.211523
	H37	H	0.653480	0.115127	0.212314
	H38	H	0.337783	0.112546	0.771087
	H39	H	0.653333	0.899136	0.765669
	H40	H	0.893153	0.229128	0.336758
	H41	H	0.106311	0.232401	0.645536
	H42	H	0.100157	0.785906	0.335715
	H43	H	0.889315	0.784852	0.647965
	H44	H	0.215854	0.350772	0.889798
	H45	H	0.214653	0.667442	0.093303
	H46	H	0.779429	0.349008	0.090457
	H47	H	0.776938	0.666763	0.888198
	H48	H	0.402803	0.122702	0.582036
	H49	H	0.586688	0.892818	0.586706
	H50	H	0.583693	0.120466	0.402665
	H51	H	0.408086	0.894328	0.398155
	H52	H	0.585813	0.412586	0.102709
	H53	H	0.577403	0.596559	0.882754
	H54	H	0.405432	0.594511	0.101718
	H55	H	0.415649	0.418049	0.882158
	H56	H	0.112667	0.595550	0.399120
	H57	H	0.884936	0.592982	0.576611
	H58	H	0.109117	0.418129	0.577580
	H59	H	0.882346	0.421025	0.398451
	H60	H	0.107093	0.424152	0.577532
	H61	H	0.881702	0.592367	0.585060
	H62	H	0.112500	0.598538	0.401880
	H63	H	0.880912	0.413431	0.399838
	H64	H	0.412336	0.600067	0.100050
	H65	H	0.586431	0.604895	0.877169
	H66	H	0.589751	0.421320	0.100939
	H67	H	0.403539	0.411276	0.875662
	H68	H	0.587116	0.122458	0.400825
	H69	H	0.573486	0.899610	0.581265
	H70	H	0.414937	0.120688	0.586985
	H71	H	0.409879	0.894727	0.399880
	H72	H	0.905885	0.622344	0.083286
	H73	H	0.084131	0.398309	0.073799
	H74	H	0.077776	0.618414	0.902060
	H75	H	0.910658	0.396706	0.902204
	H76	H	0.086353	0.917212	0.603355
	H77	H	0.086858	0.100433	0.379522
	H78	H	0.905423	0.088652	0.602034
	H79	H	0.910820	0.916770	0.382062
	H80	H	0.612226	0.095822	0.895661
	H81	H	0.382848	0.097903	0.075830
	H82	H	0.613099	0.917315	0.079759
	H83	H	0.383169	0.916263	0.905362
	H84	H	0.609668	0.922725	0.076760
	H85	H	0.383106	0.089848	0.082821
	H86	H	0.610477	0.101412	0.907995
	H87	H	0.386794	0.925401	0.906660
	H88	H	0.915190	0.099656	0.602022
	H89	H	0.087830	0.095053	0.381240
	H90	H	0.086038	0.918508	0.602956
	H91	H	0.905878	0.909805	0.378324
	H92	H	0.084914	0.620303	0.904925
	H93	H	0.090425	0.392233	0.085221
	H94	H	0.908084	0.622443	0.086343
	H95	H	0.908355	0.395845	0.903676
	H96	H	0.411972	0.116802	0.574546
	H97	H	0.586284	0.897803	0.572167
	H98	H	0.583301	0.121985	0.398885
	H99	H	0.407722	0.894280	0.400379
	H100	H	0.580530	0.419639	0.098426
	H101	H	0.590078	0.592449	0.880529
	H102	H	0.404445	0.603263	0.103166
	H103	H	0.402616	0.425389	0.879838
	H104	H	0.110633	0.594893	0.402920
	H105	H	0.880561	0.600190	0.580614
	H106	H	0.110226	0.421851	0.582580
	H107	H	0.883308	0.418245	0.405653
	H108	H	0.909586	0.621405	0.082967
	H109	H	0.076771	0.396447	0.085872
	H110	H	0.083125	0.622063	0.897465
	H111	H	0.908449	0.395416	0.900522
	H112	H	0.085239	0.917226	0.602470
	H113	H	0.082660	0.096912	0.381118
	H114	H	0.901619	0.102047	0.606639
	H115	H	0.902030	0.918150	0.379623
	H116	H	0.605856	0.088901	0.905273
	H117	H	0.379338	0.099353	0.085472
	H118	H	0.611961	0.923776	0.082996
	H119	H	0.382725	0.922927	0.897620
	C120	C	0.376202	0.016640	0.613128
	C121	C	0.617084	1.000151	0.612897
	C122	C	0.617384	0.017694	0.369258
	C123	C	0.376433	0.999151	0.369729
	C124	C	0.617851	0.386209	-0.002366
	C125	C	0.618094	0.630830	0.982703
	C126	C	0.374606	0.631291	-0.000882
	C127	C	0.373945	0.386221	0.981840
	C128	C	0.005676	0.627195	0.371575
	C129	C	0.987111	0.628266	0.613075
	C130	C	0.004872	0.386760	0.612745
	C131	C	0.988065	0.386282	0.370685
	C132	C	0.875561	0.517166	0.113415
	C133	C	0.116890	0.499765	0.112874
	C134	C	0.116172	0.516992	0.870003
	C135	C	0.875170	0.499325	0.869479
	C136	C	0.118154	0.885170	0.500173
	C137	C	0.118910	0.129612	0.483278
	C138	C	0.875610	0.128432	0.500460
	C139	C	0.873719	0.884480	0.483514
	C140	C	0.504727	0.128066	0.870997
	C141	C	0.486607	0.129122	0.112481
	C142	C	0.506077	0.888770	0.111286
	C143	C	0.488372	0.887756	0.869617
	C144	C	0.371569	0.899227	0.674232
	C145	C	0.623275	0.117279	0.674543
	C146	C	0.620997	0.899780	0.308750
	C147	C	0.372985	0.117985	0.311093
	C148	C	0.679162	0.384252	0.880570
	C149	C	0.678296	0.632143	0.099853
	C150	C	0.314352	0.632362	0.881982
	C151	C	0.312197	0.383496	0.098462
	C152	C	0.884258	0.684015	0.373005
	C153	C	0.106870	0.688637	0.615816
	C154	C	0.885914	0.325086	0.615883
	C155	C	0.108649	0.327862	0.370281
	C156	C	0.886114	0.381773	0.674031
	C157	C	0.106543	0.630893	0.673104
	C158	C	0.884792	0.627418	0.314568
	C159	C	0.107768	0.383679	0.310751
	C160	C	0.371113	0.692245	0.882631
	C161	C	0.621708	0.691777	0.099157
	C162	C	0.621293	0.325408	0.880870
	C163	C	0.369143	0.324207	0.097629
	C164	C	0.675825	0.898164	0.369175
	C165	C	0.677658	0.118733	0.613522
	C166	C	0.316609	0.897623	0.613751
	C167	C	0.317651	0.118843	0.371225
	C168	C	0.874308	0.397694	0.170772
	C169	C	0.120088	0.618218	0.172969
	C170	C	0.121290	0.398989	0.809395
	C171	C	0.870298	0.616677	0.807906
	C172	C	0.177457	0.884068	0.382137
	C173	C	0.180146	0.131786	0.599950
	C174	C	0.817513	0.128416	0.382028
	C175	C	0.813740	0.884258	0.601308
	C176	C	0.384058	0.186860	0.870128
	C177	C	0.606313	0.189467	0.113575
	C178	C	0.385846	0.829823	0.112241
	C179	C	0.607216	0.825903	0.865541
	C180	C	0.386464	0.885383	0.171120
	C181	C	0.606137	0.132944	0.172171
	C182	C	0.385015	0.130330	0.811575
	C183	C	0.606574	0.882448	0.807102
	C184	C	0.874134	0.188240	0.382947
	C185	C	0.123379	0.191351	0.599548
	C186	C	0.119432	0.825663	0.382537
	C187	C	0.871353	0.825332	0.601078
	C188	C	0.176676	0.398284	0.869483
	C189	C	0.175936	0.619325	0.113036
	C190	C	0.817933	0.397047	0.111238
	C191	C	0.815433	0.618447	0.868365
	C192	C	0.402399	0.098686	0.588265
	C193	C	0.589862	0.918113	0.587568
	C194	C	0.591889	0.100233	0.393875
	C195	C	0.401269	0.916192	0.392864
	C196	C	0.592518	0.410775	0.079334
	C197	C	0.591946	0.605316	0.901322
	C198	C	0.400264	0.606223	0.080378
	C199	C	0.399942	0.411283	0.900235
	C200	C	0.090064	0.603312	0.394897
	C201	C	0.904023	0.602641	0.588008
	C202	C	0.087434	0.413775	0.586689
	C203	C	0.904082	0.410438	0.394603
	C204	C	0.900354	0.600188	0.090750
	C205	C	0.091366	0.417184	0.088656
	C206	C	0.089504	0.599008	0.894481
	C207	C	0.901557	0.417340	0.894820
	C208	C	0.093011	0.910273	0.581823
	C209	C	0.093100	0.104420	0.401912
	C210	C	0.900422	0.103928	0.582321
	C211	C	0.898972	0.908236	0.401382
	C212	C	0.587886	0.102839	0.895880
	C213	C	0.403325	0.102964	0.088252
	C214	C	0.589798	0.914052	0.086992
	C215	C	0.405831	0.914096	0.895654
	Zn216	Zn	0.497340	0.008539	0.741755
	Zn217	Zn	0.496560	0.008585	0.240049
	Zn218	Zn	0.747241	0.508571	-0.009394
	Zn219	Zn	0.245083	0.509070	-0.009012
	Zn220	Zn	-0.003460	0.755558	0.492295
	Zn221	Zn	-0.002871	0.258448	0.492213
	Zn222	Zn	-0.004282	0.507285	0.740931
	Zn223	Zn	-0.002961	0.507882	0.242898
	Zn224	Zn	0.496568	0.760780	-0.008839
	Zn225	Zn	0.495624	0.256483	-0.009729
	Zn226	Zn	0.745057	0.007552	0.491752
	Zn227	Zn	0.247775	0.007246	0.491120
	N228	N	0.407723	0.974196	0.673957
	N229	N	0.586779	0.042328	0.674291
	N230	N	0.585244	0.975177	0.308714
	N231	N	0.408445	0.042524	0.309855
	N232	N	0.677273	0.421335	0.954166
	N233	N	0.676271	0.594913	0.026300
	N234	N	0.316346	0.595343	0.955470
	N235	N	0.315310	0.421744	0.025490
	N236	N	0.960466	0.684074	0.407723
	N237	N	0.031591	0.687103	0.579322
	N238	N	0.960909	0.327883	0.578660
	N239	N	0.033209	0.329403	0.406732
	N240	N	0.961247	0.419286	0.672379
	N241	N	0.031040	0.594037	0.671607
	N242	N	0.961455	0.593076	0.313454
	N243	N	0.031481	0.419037	0.310532
	N244	N	0.407953	0.691579	0.956486
	N245	N	0.585116	0.691034	0.025102
	N246	N	0.584367	0.326034	0.954884
	N247	N	0.406818	0.325850	0.024097
	N248	N	0.673846	0.972554	0.406112
	N249	N	0.673812	0.044711	0.575842
	N250	N	0.319063	0.971691	0.576495
	N251	N	0.319563	0.044013	0.406980
	N252	N	0.908974	0.473441	0.172590
	N253	N	0.084507	0.542859	0.173214
	N254	N	0.084460	0.473816	0.809425
	N255	N	0.906468	0.541561	0.808221
	N256	N	0.177199	0.920055	0.456355
	N257	N	0.177563	0.094123	0.526650
	N258	N	0.818171	0.092253	0.456159
	N259	N	0.814739	0.919980	0.526975
	N260	N	0.459587	0.185575	0.906128
	N261	N	0.530927	0.187406	0.077203
	N262	N	0.461322	0.831725	0.075810
	N263	N	0.532791	0.829146	0.903814
	N264	N	0.462384	0.921333	0.170820
	N265	N	0.530594	0.096416	0.171519
	N266	N	0.461143	0.094668	0.811708
	N267	N	0.531695	0.920068	0.809333
	N268	N	0.909187	0.188745	0.457703
	N269	N	0.086078	0.190014	0.525929
	N270	N	0.083627	0.825950	0.457132
	N271	N	0.907597	0.825077	0.526789
	N272	N	0.173501	0.472406	0.906520
	N273	N	0.174328	0.544611	0.076555
	N274	N	0.818456	0.472387	0.076312
	N275	N	0.818416	0.544558	0.905944
	O276	O	0.789098	1.219341	-0.031899
	H277	H	0.773251	1.230401	-0.036178
	H278	H	0.791211	1.216510	-0.058712
	O279	O	-0.205933	-0.006269	1.202998
	H280	H	-0.200396	-0.045250	1.201469
	H281	H	-0.205799	-0.013006	1.227474
	O282	O	0.708544	0.725978	0.570859
	H283	H	0.741880	0.756717	0.584135
	H284	H	0.701742	0.712039	0.605342
	O285	O	0.284410	0.537458	0.275560
	H286	H	0.265434	0.531071	0.260138
	H287	H	0.307253	0.521462	0.268330
	O288	O	1.106374	-0.031896	1.126980
	H289	H	1.124923	-0.030611	1.137841
	H290	H	1.097980	-0.055709	1.125221
	O291	O	0.717534	0.470944	0.262804
	H292	H	0.744077	0.457386	0.241498
	H293	H	0.723660	0.431821	0.258711
	O294	O	-0.193032	0.198617	0.186836
	H295	H	-0.166859	0.175912	0.178368
	H296	H	-0.176911	0.180970	0.165975
	O297	O	0.972767	-0.191619	0.196677
	H298	H	0.954312	-0.193894	0.193023
	H299	H	0.965972	-0.199146	0.197741
	O300	O	-0.056967	-0.212629	-0.054613
	H301	H	-0.048605	-0.211717	-0.045728
	H302	H	-0.052489	-0.201662	-0.050351
	O303	O	-0.054004	0.221535	-0.225439
	H304	H	-0.051311	0.215080	-0.241081
	H305	H	-0.064382	0.236226	-0.246910
	O306	O	0.786802	0.036448	-0.218218
	H307	H	0.758857	0.042130	-0.237492
	H308	H	0.789247	0.020614	-0.195332
	O309	O	0.702197	0.303760	0.283369
	H310	H	0.682268	0.293018	0.312447
	H311	H	0.734698	0.268547	0.254698
	O312	O	-0.008492	0.115888	0.192139
	H313	H	0.003176	0.128292	0.202217
	H314	H	0.009167	0.102622	0.197033
	O315	O	0.535594	0.705285	0.435508
	H316	H	0.531104	0.701735	0.437609
	H317	H	0.539751	0.714826	0.451575
	O318	O	0.996489	1.219428	-0.006504
	H319	H	0.990464	1.217672	-0.011414
	H320	H	0.988947	1.213679	-0.026603
	O321	O	0.197146	0.827042	0.813835
	H322	H	0.169697	0.823954	0.822321
	H323	H	0.214321	0.800210	0.793384
	O324	O	1.203258	0.010650	1.128745
	H325	H	1.215761	0.022079	1.134723
	H326	H	1.201528	0.019834	1.129939
	O327	O	0.442890	0.561018	0.456465
	H328	H	0.446669	0.561451	0.449503
	H329	H	0.436608	0.572569	0.447617
	O330	O	0.464359	0.720391	0.274563
	H331	H	0.474940	0.736673	0.263960
	H332	H	0.487017	0.720646	0.288357
	O333	O	0.436396	0.450329	0.255862
	H334	H	0.451803	0.441821	0.254302
	H335	H	0.452515	0.454459	0.254651
	O336	O	0.490095	0.393506	0.448075
	H337	H	0.514362	0.404455	0.458503
	H338	H	0.489720	0.386989	0.457814
	O339	O	0.295473	0.408950	0.693551
	H340	H	0.266287	0.398111	0.714021
	H341	H	0.287997	0.423584	0.694555
	O342	O	0.200558	1.208069	0.195210
	H343	H	0.206446	1.231547	0.216027
	H344	H	0.205268	1.192192	0.168803
	O345	O	0.472120	0.288018	0.710819
	H346	H	0.451701	0.277647	0.714505
	H347	H	0.443307	0.275242	0.721606
	O348	O	0.560689	0.554941	0.268998
	H349	H	0.592006	0.543023	0.267608
	H350	H	0.557888	0.548863	0.279861
	O351	O	-0.192603	-0.176576	1.143089
	H352	H	-0.221173	-0.206300	1.170984
	H353	H	-0.202978	-0.181025	1.106767
	O354	O	0.947645	-0.022190	0.999375
	H355	H	0.952274	-0.013221	0.998979
	H356	H	0.941849	-0.009664	1.009443
	O357	O	0.399760	0.545070	0.670532
	H358	H	0.407358	0.529489	0.669434
	H359	H	0.389891	0.538957	0.662614
	O360	O	0.609366	0.348872	0.549229
	H361	H	0.598321	0.342698	0.564563
	H362	H	0.602315	0.353906	0.563070
	O363	O	0.500263	0.520874	0.531751
	H364	H	0.504829	0.519911	0.528830
	H365	H	0.489457	0.517840	0.539265
	O366	O	1.053665	0.138893	0.871505
	H367	H	1.078375	0.120748	0.871205
	H368	H	1.046020	0.149109	0.847036
	O369	O	-0.200794	-0.193249	0.971747
	H370	H	-0.177509	-0.189614	0.955785
	H371	H	-0.213815	-0.205392	0.969590
	O372	O	0.165181	1.134894	1.026388
	H373	H	0.180613	1.144497	1.044887
	H374	H	0.157372	1.113241	1.028297
	O375	O	0.896995	-0.095034	-0.220067
	H376	H	0.892051	-0.081018	-0.215728
	H377	H	0.899793	-0.094715	-0.210032
	O378	O	0.794361	0.216852	0.786852
	H379	H	0.785083	0.178353	0.774226
	H380	H	0.814919	0.229404	0.792804
	O381	O	0.022814	0.795387	-0.222248
	H382	H	0.007852	0.808314	-0.211286
	H383	H	0.026670	0.772309	-0.242833
	O384	O	0.321524	0.317139	0.312643
	H385	H	0.332222	0.326903	0.305490
	H386	H	0.340360	0.328960	0.332522
	O387	O	-0.225763	0.954429	0.924019
	H388	H	-0.224938	0.973891	0.940083
	H389	H	-0.227324	0.945711	0.935611
	O390	O	0.021414	1.071687	0.764737
	H391	H	0.041887	1.065284	0.754539
	H392	H	0.015145	1.057571	0.766613
	O393	O	1.119688	0.020042	0.202053
	H394	H	1.121358	0.025742	0.192548
	H395	H	1.134990	0.018260	0.216246
	O396	O	0.341103	0.398443	0.432955
	H397	H	0.342475	0.387308	0.423945
	H398	H	0.358362	0.404733	0.435688
	O399	O	0.461199	0.727653	0.579051
	H400	H	0.460949	0.732602	0.578421
	H401	H	0.448409	0.729084	0.577700
	O402	O	1.262365	0.276424	0.730739
	H403	H	1.239271	0.269203	0.749439
	H404	H	1.249427	0.270492	0.716826
	O405	O	0.285410	0.511091	0.550575
	H406	H	0.290287	0.508535	0.553141
	H407	H	0.279050	0.517223	0.545761
	O408	O	0.798280	1.079021	1.045576
	H409	H	0.796575	1.073311	1.066456
	H410	H	0.799531	1.094025	1.048566
	O411	O	0.547319	0.441249	0.687437
	H412	H	0.559709	0.440890	0.688137
	H413	H	0.536519	0.409958	0.692542
	O414	O	0.201039	-0.004156	-0.183998
	H415	H	0.222451	-0.018205	-0.197997
	H416	H	0.198453	-0.029563	-0.172180
	O417	O	0.299658	0.682830	0.470417
	H418	H	0.306422	0.668129	0.441733
	H419	H	0.274727	0.712745	0.459255
	O420	O	0.981069	0.121448	1.018226
	H421	H	0.976964	0.121324	1.025751
	H422	H	0.982445	0.134200	1.024070
	O423	O	1.070088	1.006057	-0.098640
	H424	H	1.072062	1.003583	-0.081482
	H425	H	1.078586	0.999288	-0.126136
	O426	O	0.294764	0.301052	0.523532
	H427	H	0.297740	0.289658	0.507005
	H428	H	0.291244	0.294960	0.539566
	O429	O	0.542657	0.636556	0.461603
	H430	H	0.556407	0.629341	0.465733
	H431	H	0.531497	0.643884	0.493554
	O432	O	1.087642	0.218554	1.147290
	H433	H	1.084075	0.222028	1.134389
	H434	H	1.096233	0.231275	1.152864
	O435	O	0.708136	0.535046	0.705005
	H436	H	0.725483	0.541686	0.714380
	H437	H	0.710669	0.515270	0.706902
	O438	O	0.646211	0.700580	0.688529
	H439	H	0.628196	0.695434	0.688085
	H440	H	0.632706	0.690323	0.700540
	O441	O	0.653857	0.348712	0.543894
	H442	H	0.652854	0.354358	0.543894
	H443	H	0.644670	0.338677	0.527314
	O444	O	0.628213	0.313028	0.484523
	H445	H	0.638832	0.308476	0.485240
	H446	H	0.637183	0.319111	0.493401
	O447	O	1.137117	0.129282	0.890021
	H448	H	1.130577	0.122187	0.888345
	H449	H	1.122171	0.123669	0.916270
	O450	O	1.334826	0.663887	0.691584
	H451	H	1.354365	0.665684	0.677539
	H452	H	1.339894	0.648631	0.682217
	O453	O	0.650898	0.634742	0.402150
	H454	H	0.649098	0.632057	0.394098
	H455	H	0.652993	0.639078	0.415278
	O456	O	0.172538	0.834370	1.134708
	H457	H	0.170140	0.823237	1.143519
	H458	H	0.169049	0.835513	1.146859
	O459	O	0.513300	0.637728	0.709461
	H460	H	0.507442	0.626292	0.717765
	H461	H	0.511767	0.641126	0.721225
	O462	O	0.522785	0.295454	0.267891
	H463	H	0.525273	0.270983	0.249110
	H464	H	0.539949	0.299294	0.278367
	O465	O	0.199566	0.798024	0.924396
	H466	H	0.199313	0.793457	0.911403
	H467	H	0.211508	0.788942	0.928774
	O468	O	0.044830	0.813232	0.032074
	H469	H	0.064731	0.820763	0.036376
	H470	H	0.046903	0.814261	0.031717
	O471	O	0.729990	0.740284	0.258883
	H472	H	0.737802	0.729774	0.270204
	H473	H	0.701482	0.720404	0.286892
	O474	O	1.296206	0.705619	0.292200
	H475	H	1.328295	0.699108	0.282836
	H476	H	1.305612	0.675736	0.294536
	O477	O	0.703684	0.485521	0.498114
	H478	H	0.712460	0.479247	0.502594
	H479	H	0.703730	0.498802	0.477356
