data_Molecule from HDF5

_cell_length_a		16.370351
_cell_length_b		16.348514
_cell_length_c		16.382783
_cell_angle_alpha	89.912629
_cell_angle_beta	90.147405
_cell_angle_gamma	90.047487
_symmetry_space_group_name_H-M	'P 1'
_symmetry_Int_Tables_number		1

loop_
	_symmetry_equiv_pos_as_xyz
	x,y,z

loop_
	_atom_site_label
	_atom_site_type_symbol
	_atom_site_fract_x
	_atom_site_fract_y
	_atom_site_fract_z
	H0	H	0.396967	0.841066	0.736652
	H1	H	0.615439	0.156231	0.734590
	H2	H	0.614594	0.839212	0.289589
	H3	H	0.398941	0.155251	0.286184
	H4	H	0.731741	0.389649	0.852454
	H5	H	0.734546	0.603463	0.168854
	H6	H	0.286405	0.605724	0.852780
	H7	H	0.283967	0.387139	0.167422
	H8	H	0.851831	0.724356	0.399709
	H9	H	0.166325	0.721654	0.618755
	H10	H	0.849529	0.277106	0.614527
	H11	H	0.168328	0.277250	0.405041
	H12	H	0.849111	0.393233	0.730359
	H13	H	0.167450	0.603811	0.731983
	H14	H	0.852898	0.609944	0.283827
	H15	H	0.167446	0.390108	0.287184
	H16	H	0.404341	0.719085	0.852999
	H17	H	0.620571	0.720496	0.169478
	H18	H	0.618989	0.271964	0.854534
	H19	H	0.403336	0.275429	0.170340
	H20	H	0.734480	0.842074	0.400906
	H21	H	0.729440	0.157692	0.617855
	H22	H	0.283296	0.841331	0.619146
	H23	H	0.288436	0.158211	0.404861
	H24	H	0.900733	0.341829	0.236546
	H25	H	0.119480	0.656997	0.234386
	H26	H	0.113959	0.339023	0.790359
	H27	H	0.903675	0.657369	0.790313
	H28	H	0.229506	0.894709	0.351983
	H29	H	0.231620	0.106687	0.669733
	H30	H	0.781437	0.110575	0.353086
	H31	H	0.787075	0.893323	0.668704
	H32	H	0.350419	0.220503	0.905140
	H33	H	0.668254	0.218009	0.118976
	H34	H	0.352194	0.772622	0.117823
	H35	H	0.668896	0.777594	0.906409
	H36	H	0.349451	0.889915	0.231423
	H37	H	0.665809	0.103896	0.235135
	H38	H	0.349395	0.103718	0.789853
	H39	H	0.665573	0.889043	0.786275
	H40	H	0.902665	0.222151	0.351023
	H41	H	0.114369	0.220715	0.669962
	H42	H	0.116535	0.775351	0.353491
	H43	H	0.902381	0.777137	0.668385
	H44	H	0.231907	0.339957	0.903388
	H45	H	0.235040	0.655774	0.118109
	H46	H	0.789742	0.338241	0.116906
	H47	H	0.787364	0.655918	0.902821
	H48	H	0.424793	0.112536	0.604929
	H49	H	0.594563	0.887864	0.591498
	H50	H	0.591565	0.111038	0.421064
	H51	H	0.415648	0.881592	0.418606
	H52	H	0.596335	0.408469	0.123747
	H53	H	0.590951	0.587791	0.899647
	H54	H	0.421561	0.587541	0.126160
	H55	H	0.414453	0.413296	0.896444
	H56	H	0.118861	0.580567	0.427358
	H57	H	0.896900	0.584086	0.597396
	H58	H	0.122610	0.407499	0.598446
	H59	H	0.898806	0.414772	0.425851
	H60	H	0.121450	0.412835	0.600968
	H61	H	0.892868	0.587330	0.604195
	H62	H	0.124233	0.586530	0.417303
	H63	H	0.896541	0.413921	0.420495
	H64	H	0.420141	0.580577	0.123702
	H65	H	0.602666	0.592289	0.895130
	H66	H	0.601018	0.405729	0.125954
	H67	H	0.428472	0.414267	0.902147
	H68	H	0.592793	0.109402	0.425766
	H69	H	0.602451	0.882946	0.599508
	H70	H	0.422396	0.109667	0.595479
	H71	H	0.423119	0.885457	0.421731
	H72	H	0.925229	0.610202	0.095048
	H73	H	0.095678	0.387000	0.095024
	H74	H	0.092066	0.610881	0.920732
	H75	H	0.920014	0.384150	0.922101
	H76	H	0.091375	0.908317	0.623266
	H77	H	0.095704	0.089341	0.398693
	H78	H	0.918299	0.085716	0.623259
	H79	H	0.927018	0.912716	0.399397
	H80	H	0.619861	0.082767	0.927443
	H81	H	0.394926	0.088248	0.095888
	H82	H	0.622862	0.909901	0.102231
	H83	H	0.395859	0.913466	0.920143
	H84	H	0.623771	0.907627	0.100599
	H85	H	0.396270	0.083031	0.096843
	H86	H	0.621525	0.081249	0.921084
	H87	H	0.393225	0.902567	0.921617
	H88	H	0.922352	0.086272	0.621233
	H89	H	0.099956	0.090793	0.395350
	H90	H	0.101110	0.909698	0.626609
	H91	H	0.918390	0.908580	0.394526
	H92	H	0.100013	0.611166	0.927259
	H93	H	0.098088	0.384620	0.099646
	H94	H	0.920538	0.611843	0.095246
	H95	H	0.917822	0.382304	0.919965
	H96	H	0.415284	0.114497	0.600838
	H97	H	0.591286	0.885674	0.603096
	H98	H	0.596428	0.112300	0.423543
	H99	H	0.415304	0.885112	0.427045
	H100	H	0.601067	0.411729	0.123768
	H101	H	0.601245	0.579020	0.899109
	H102	H	0.426980	0.583471	0.122524
	H103	H	0.423385	0.401823	0.896309
	H104	H	0.122367	0.593288	0.428065
	H105	H	0.894093	0.592060	0.597323
	H106	H	0.124712	0.409007	0.604166
	H107	H	0.897482	0.409891	0.424414
	H108	H	0.922892	0.611725	0.099546
	H109	H	0.091982	0.386609	0.100031
	H110	H	0.101635	0.614351	0.917719
	H111	H	0.921377	0.382928	0.919125
	H112	H	0.096082	0.917810	0.621675
	H113	H	0.099329	0.086133	0.397401
	H114	H	0.920822	0.089392	0.623272
	H115	H	0.917670	0.918305	0.398248
	H116	H	0.623025	0.087236	0.923795
	H117	H	0.393677	0.086192	0.100703
	H118	H	0.622034	0.909991	0.099742
	H119	H	0.397923	0.908277	0.930119
	C120	C	0.386358	0.007732	0.633492
	C121	C	0.628920	0.990107	0.632150
	C122	C	0.628146	0.006858	0.389892
	C123	C	0.386030	0.989110	0.389167
	C124	C	0.632361	0.375047	0.020000
	C125	C	0.632383	0.619122	1.002605
	C126	C	0.389204	0.617677	0.019574
	C127	C	0.388494	0.376037	1.002607
	C128	C	0.017872	0.621243	0.388856
	C129	C	0.999647	0.620158	0.632110
	C130	C	0.017533	0.377104	0.632578
	C131	C	1.001501	0.378535	0.389949
	C132	C	0.889453	0.506509	0.131098
	C133	C	0.130681	0.490010	0.132087
	C134	C	0.130147	0.507093	0.889514
	C135	C	0.887087	0.488455	0.888192
	C136	C	0.129649	0.878490	0.519599
	C137	C	0.130833	0.121363	0.502409
	C138	C	0.886823	0.121298	0.518006
	C139	C	0.887554	0.879053	0.501317
	C140	C	0.517050	0.117907	0.890914
	C141	C	0.499710	0.118519	0.132193
	C142	C	0.518118	0.875383	0.133020
	C143	C	0.499984	0.875483	0.889757
	C144	C	0.380917	0.888555	0.695363
	C145	C	0.632884	0.108666	0.694509
	C146	C	0.632372	0.887216	0.329248
	C147	C	0.382138	0.108053	0.327054
	C148	C	0.692444	0.371714	0.900780
	C149	C	0.694095	0.621662	0.121452
	C150	C	0.327301	0.622292	0.900525
	C151	C	0.325476	0.370809	0.120666
	C152	C	0.899567	0.683701	0.383076
	C153	C	0.118753	0.681448	0.635973
	C154	C	0.897232	0.316917	0.633405
	C155	C	0.120548	0.317235	0.386789
	C156	C	0.897163	0.374440	0.691379
	C157	C	0.119344	0.622552	0.692449
	C158	C	0.900022	0.626307	0.325239
	C159	C	0.120263	0.373816	0.328275
	C160	C	0.385820	0.679357	0.900628
	C161	C	0.636959	0.679997	0.121659
	C162	C	0.636040	0.312872	0.901656
	C163	C	0.384879	0.314655	0.121769
	C164	C	0.692180	0.888726	0.384829
	C165	C	0.689541	0.109614	0.635853
	C166	C	0.323889	0.888911	0.636949
	C167	C	0.327088	0.109775	0.386553
	C168	C	0.884603	0.388470	0.194579
	C169	C	0.136159	0.609248	0.193409
	C170	C	0.131943	0.387041	0.829796
	C171	C	0.885038	0.609015	0.829189
	C172	C	0.189921	0.876077	0.399863
	C173	C	0.191454	0.124192	0.621973
	C174	C	0.823774	0.126798	0.400037
	C175	C	0.826948	0.875733	0.620820
	C176	C	0.397911	0.179732	0.887598
	C177	C	0.619898	0.178420	0.136154
	C178	C	0.399205	0.813408	0.135625
	C179	C	0.620393	0.816172	0.887224
	C180	C	0.397768	0.872126	0.192223
	C181	C	0.618679	0.121825	0.194395
	C182	C	0.397220	0.121387	0.830273
	C183	C	0.618552	0.871783	0.827606
	C184	C	0.884322	0.182351	0.398794
	C185	C	0.132924	0.181105	0.622162
	C186	C	0.133646	0.816718	0.400570
	C187	C	0.884407	0.817653	0.620776
	C188	C	0.190710	0.387364	0.886377
	C189	C	0.194027	0.608674	0.135866
	C190	C	0.829218	0.386634	0.134657
	C191	C	0.827099	0.608130	0.885496
	C192	C	0.413211	0.090540	0.607980
	C193	C	0.603237	0.907176	0.605760
	C194	C	0.601310	0.089321	0.416038
	C195	C	0.410732	0.905942	0.415026
	C196	C	0.606777	0.401257	0.103006
	C197	C	0.605909	0.593696	0.919551
	C198	C	0.415235	0.591331	0.102485
	C199	C	0.414571	0.402191	0.919837
	C200	C	0.100296	0.594417	0.416547
	C201	C	0.916243	0.595011	0.606872
	C202	C	0.100967	0.402382	0.608216
	C203	C	0.919068	0.405208	0.416097
	C204	C	0.915503	0.589624	0.104318
	C205	C	0.103255	0.407645	0.105735
	C206	C	0.105134	0.590454	0.914700
	C207	C	0.912475	0.404866	0.913131
	C208	C	0.103768	0.904419	0.602130
	C209	C	0.105581	0.096031	0.418859
	C210	C	0.913004	0.094624	0.600853
	C211	C	0.913633	0.905464	0.418890
	C212	C	0.599852	0.091549	0.916652
	C213	C	0.416850	0.093135	0.105575
	C214	C	0.601060	0.901687	0.108122
	C215	C	0.417222	0.900939	0.916067
	Zn216	Zn	0.508264	-0.002482	0.761293
	Zn217	Zn	0.507209	-0.002471	0.260916
	Zn218	Zn	0.760631	0.497172	0.010312
	Zn219	Zn	0.259271	0.497289	0.010742
	Zn220	Zn	0.008365	0.749349	0.510711
	Zn221	Zn	0.009079	0.249516	0.510284
	Zn222	Zn	0.008271	0.498609	0.761051
	Zn223	Zn	0.010257	0.499440	0.260838
	Zn224	Zn	0.510592	0.747014	0.011552
	Zn225	Zn	0.509964	0.247742	0.011648
	Zn226	Zn	0.757448	-0.000122	0.510334
	Zn227	Zn	0.258725	-0.000212	0.511023
	N228	N	0.418958	0.963360	0.693355
	N229	N	0.596068	0.033134	0.692527
	N230	N	0.593452	0.961611	0.332092
	N231	N	0.417928	0.032010	0.328291
	N232	N	0.690209	0.409706	0.975583
	N233	N	0.691338	0.584565	0.046431
	N234	N	0.329296	0.584639	0.975652
	N235	N	0.327503	0.408188	0.045469
	N236	N	0.973940	0.680491	0.422064
	N237	N	0.043383	0.679894	0.599025
	N238	N	0.973226	0.318269	0.597882
	N239	N	0.045729	0.320071	0.424379
	N240	N	0.972871	0.410811	0.691173
	N241	N	0.044191	0.585091	0.690363
	N242	N	0.974801	0.588255	0.328741
	N243	N	0.045381	0.411777	0.330323
	N244	N	0.423627	0.676622	0.975542
	N245	N	0.599043	0.678312	0.046661
	N246	N	0.599383	0.314885	0.976797
	N247	N	0.423522	0.317987	0.047414
	N248	N	0.689787	0.964223	0.421635
	N249	N	0.687462	0.034750	0.597974
	N250	N	0.327025	0.963966	0.599212
	N251	N	0.329341	0.034863	0.424646
	N252	N	0.921292	0.464075	0.192437
	N253	N	0.097713	0.534587	0.191196
	N254	N	0.095040	0.462591	0.831706
	N255	N	0.921580	0.533483	0.830751
	N256	N	0.187665	0.913871	0.474773
	N257	N	0.190055	0.087819	0.546428
	N258	N	0.825645	0.089351	0.475062
	N259	N	0.828565	0.913195	0.545625
	N260	N	0.473485	0.177988	0.924369
	N261	N	0.544724	0.176847	0.098303
	N262	N	0.474966	0.814873	0.100019
	N263	N	0.545556	0.818152	0.925157
	N264	N	0.472692	0.909956	0.190710
	N265	N	0.543177	0.085279	0.192016
	N266	N	0.472395	0.083920	0.832117
	N267	N	0.542783	0.907771	0.829063
	N268	N	0.923003	0.178811	0.473344
	N269	N	0.096023	0.179338	0.546784
	N270	N	0.096948	0.817963	0.475879
	N271	N	0.921427	0.819672	0.545661
	N272	N	0.189888	0.462912	0.922759
	N273	N	0.190945	0.533470	0.098442
	N274	N	0.832307	0.461114	0.095681
	N275	N	0.828075	0.532110	0.921460
	O276	O	0.717234	0.511196	0.660998
	H277	H	0.691636	0.495019	0.669769
	H278	H	0.739385	0.511205	0.684242
	O279	O	0.657099	0.440240	0.351474
	H280	H	0.677438	0.434624	0.332386
	H281	H	0.659054	0.468774	0.380185
	O282	O	0.717245	0.515369	0.396702
	H283	H	0.709747	0.531327	0.403812
	H284	H	0.725768	0.515723	0.431379
	O285	O	0.901535	1.137268	0.040881
	H286	H	0.916648	1.124719	0.043343
	H287	H	0.914833	1.133522	0.061063
	O288	O	0.406435	0.561265	0.685747
	H289	H	0.417371	0.585188	0.683135
	H290	H	0.422951	0.562732	0.664561
	O291	O	0.721766	0.712279	0.525895
	H292	H	0.714905	0.702378	0.575931
	H293	H	0.755385	0.732804	0.530611
	O294	O	0.832214	1.169507	1.037276
	H295	H	0.796908	1.180342	1.040530
	H296	H	0.847363	1.150365	1.053554
	O297	O	0.389716	0.540406	0.516291
	H298	H	0.390621	0.533979	0.522347
	H299	H	0.383561	0.531733	0.517074
	O300	O	0.491298	0.303379	0.730976
	H301	H	0.476156	0.284437	0.753842
	H302	H	0.450308	0.302622	0.730838
	O303	O	-0.171799	-0.090633	0.987288
	H304	H	-0.165119	-0.109319	0.987587
	H305	H	-0.169586	-0.082119	0.993224
	O306	O	0.300617	0.705178	0.497885
	H307	H	0.285859	0.709399	0.487674
	H308	H	0.284366	0.696865	0.494142
	O309	O	1.032783	-0.121676	0.123089
	H310	H	1.052751	-0.114933	0.116400
	H311	H	1.028835	-0.107980	0.116681
	O312	O	0.326456	0.676874	0.336497
	H313	H	0.345652	0.655894	0.324211
	H314	H	0.346281	0.692239	0.350328
	O315	O	0.900140	0.809908	1.198479
	H316	H	0.905621	0.817708	1.218460
	H317	H	0.928153	0.823085	1.196907
	O318	O	0.082356	-0.089037	0.053219
	H319	H	0.088519	-0.097991	0.051262
	H320	H	0.076857	-0.093736	0.046165
	O321	O	0.533051	0.711687	0.726684
	H322	H	0.525444	0.745981	0.739342
	H323	H	0.519578	0.727782	0.702330
	O324	O	1.191239	-0.113257	0.822460
	H325	H	1.184331	-0.089232	0.818345
	H326	H	1.201473	-0.107438	0.832121
	O327	O	0.588428	0.283718	0.341453
	H328	H	0.598912	0.259331	0.313669
	H329	H	0.613852	0.289671	0.349153
	O330	O	0.187387	1.181903	1.011778
	H331	H	0.177144	1.187225	0.997819
	H332	H	0.200794	1.206114	1.018098
	O333	O	-0.539362	0.680965	-0.421541
	H334	H	-0.549900	0.686423	-0.436547
	H335	H	-0.537357	0.686687	-0.447020
	O336	O	1.207838	1.060398	-0.018678
	H337	H	1.201045	1.052969	-0.019404
	H338	H	1.211261	1.078928	-0.009513
	O339	O	-0.021349	1.198906	0.800505
	H340	H	-0.044101	1.210008	0.790632
	H341	H	-0.047093	1.207862	0.792091
	O342	O	0.537852	0.488865	0.703852
	H343	H	0.522992	0.503425	0.706514
	H344	H	0.530140	0.458720	0.693504
	O345	O	-0.169820	0.141961	0.826898
	H346	H	-0.182578	0.147888	0.866572
	H347	H	-0.183265	0.109122	0.818505
	O348	O	0.303430	0.514966	0.300739
	H349	H	0.302194	0.506061	0.284715
	H350	H	0.307084	0.534881	0.288871
	O351	O	1.106163	0.924132	-0.192467
	H352	H	1.111303	0.948254	-0.189425
	H353	H	1.106454	0.916468	-0.211697
	O354	O	0.977830	1.112591	0.993429
	H355	H	0.966278	1.103151	0.994591
	H356	H	0.971668	1.118129	0.981317
	O357	O	-0.179612	-0.012425	-0.158399
	H358	H	-0.181305	-0.023239	-0.131525
	H359	H	-0.198827	-0.007012	-0.178625
	O360	O	0.695826	0.417640	0.548826
	H361	H	0.706806	0.404600	0.551711
	H362	H	0.672218	0.419522	0.571386
	O363	O	0.694287	-0.319460	-0.311740
	H364	H	0.675185	-0.332226	-0.295083
	H365	H	0.681785	-0.339135	-0.294970
	O366	O	-0.011228	-0.187719	0.888705
	H367	H	0.002147	-0.175733	0.870070
	H368	H	0.002265	-0.195639	0.888193
	O369	O	1.160186	-0.209573	1.012442
	H370	H	1.174500	-0.227465	1.020202
	H371	H	1.137335	-0.204942	0.980562
	O372	O	0.301193	0.475347	0.719694
	H373	H	0.322276	0.495691	0.730337
	H374	H	0.293551	0.475573	0.741382
	O375	O	-0.393950	-0.702191	0.520935
	H376	H	-0.402614	-0.698456	0.528934
	H377	H	-0.388991	-0.699775	0.532576
	O378	O	0.316449	0.297043	0.527431
	H379	H	0.308205	0.299144	0.508326
	H380	H	0.319527	0.287820	0.519356
	O381	O	0.148680	1.066340	0.200125
	H382	H	0.153462	1.061612	0.182108
	H383	H	0.166071	1.079649	0.223713
	O384	O	0.329826	0.314743	0.691799
	H385	H	0.319320	0.346396	0.685717
	H386	H	0.321767	0.321240	0.655087
	O387	O	0.172420	-0.011715	0.136579
	H388	H	0.176811	-0.027372	0.133620
	H389	H	0.172147	-0.014228	0.118626
	O390	O	0.983503	0.934151	0.129325
	H391	H	0.987727	0.935838	0.130081
	H392	H	0.985029	0.929959	0.132142
	O393	O	1.040265	-0.127351	1.001949
	H394	H	1.039304	-0.121223	1.013981
	H395	H	1.064701	-0.135390	0.986962
	O396	O	0.560923	0.706227	0.458715
	H397	H	0.588821	0.691355	0.459854
	H398	H	0.577734	0.718393	0.440567
	O399	O	0.118473	0.897430	-0.128391
	H400	H	0.125561	0.905717	-0.139469
	H401	H	0.104163	0.911071	-0.143322
	O402	O	1.477353	1.455025	-0.644148
	H403	H	1.492575	1.472229	-0.633694
	H404	H	1.478534	1.438856	-0.646460
	O405	O	0.462850	0.346753	0.395850
	H406	H	0.453684	0.349379	0.378162
	H407	H	0.471293	0.353300	0.401177
	O408	O	0.688310	0.331119	0.410956
	H409	H	0.697354	0.333489	0.430023
	H410	H	0.692427	0.341702	0.411026
	O411	O	0.806888	0.802517	1.089950
	H412	H	0.813770	0.793476	1.073059
	H413	H	0.818622	0.782179	1.108829
	O414	O	0.517735	0.374971	0.558187
	H415	H	0.499652	0.381241	0.536796
	H416	H	0.512560	0.370466	0.580586
	O417	O	0.030227	1.091847	1.215576
	H418	H	0.031794	1.081949	1.225798
	H419	H	0.036363	1.098948	1.220565
	O420	O	0.151887	1.140252	1.082501
	H421	H	0.141003	1.137161	1.084147
	H422	H	0.165571	1.139793	1.068652
	O423	O	-0.055638	1.182762	0.137459
	H424	H	-0.044027	1.185820	0.151116
	H425	H	-0.057239	1.190482	0.136195
	O426	O	-0.198182	-0.014176	1.212594
	H427	H	-0.218826	-0.030259	1.233403
	H428	H	-0.179683	-0.023575	1.222273
	O429	O	0.399584	0.397458	0.411546
	H430	H	0.396404	0.407845	0.404875
	H431	H	0.407297	0.407385	0.392034
	O432	O	0.571138	0.563738	0.326813
	H433	H	0.578156	0.540763	0.326364
	H434	H	0.583766	0.553802	0.346512
	O435	O	-0.507278	0.550596	-0.393800
	H436	H	-0.505528	0.546094	-0.408052
	H437	H	-0.524064	0.529193	-0.406683
	O438	O	0.032459	1.072015	0.851959
	H439	H	0.029129	1.085291	0.865289
	H440	H	0.017190	1.089455	0.832388
	O441	O	0.485084	0.710695	0.296154
	H442	H	0.500362	0.714036	0.284063
	H443	H	0.498591	0.706164	0.275148
