data_Molecule from HDF5

_cell_length_a		16.333966
_cell_length_b		16.464901
_cell_length_c		16.197687
_cell_angle_alpha	90.132811
_cell_angle_beta	89.949819
_cell_angle_gamma	90.070310
_symmetry_space_group_name_H-M	'P 1'
_symmetry_Int_Tables_number		1

loop_
	_symmetry_equiv_pos_as_xyz
	x,y,z

loop_
	_atom_site_label
	_atom_site_type_symbol
	_atom_site_fract_x
	_atom_site_fract_y
	_atom_site_fract_z
	H0	H	0.383865	0.845624	0.707093
	H1	H	0.588866	0.165697	0.706584
	H2	H	0.588499	0.846863	0.267217
	H3	H	0.383591	0.166937	0.271293
	H4	H	0.704769	0.404591	0.825281
	H5	H	0.704596	0.608055	0.150211
	H6	H	0.270508	0.609925	0.825606
	H7	H	0.267112	0.400794	0.147721
	H8	H	0.828305	0.723724	0.385074
	H9	H	0.147293	0.726279	0.596714
	H10	H	0.829127	0.281609	0.598568
	H11	H	0.144874	0.278904	0.378028
	H12	H	0.827652	0.402062	0.708972
	H13	H	0.148212	0.607500	0.707632
	H14	H	0.826153	0.604144	0.272532
	H15	H	0.147516	0.398711	0.266526
	H16	H	0.384356	0.726113	0.827411
	H17	H	0.594253	0.727744	0.149011
	H18	H	0.595134	0.285572	0.826939
	H19	H	0.382345	0.285137	0.147598
	H20	H	0.707548	0.846025	0.382642
	H21	H	0.710152	0.162970	0.595694
	H22	H	0.265382	0.846964	0.593308
	H23	H	0.264469	0.164226	0.383281
	H24	H	0.881935	0.346266	0.208214
	H25	H	0.092353	0.663162	0.209835
	H26	H	0.094923	0.347323	0.764063
	H27	H	0.887155	0.665613	0.770049
	H28	H	0.207058	0.899586	0.327030
	H29	H	0.205149	0.107250	0.650340
	H30	H	0.767926	0.107665	0.329029
	H31	H	0.767346	0.897746	0.650068
	H32	H	0.331632	0.230867	0.874322
	H33	H	0.647024	0.226792	0.093780
	H34	H	0.329947	0.781744	0.099017
	H35	H	0.647624	0.785359	0.882113
	H36	H	0.325495	0.905692	0.205670
	H37	H	0.646865	0.110785	0.208724
	H38	H	0.326821	0.106073	0.770249
	H39	H	0.647232	0.900217	0.766890
	H40	H	0.873617	0.230585	0.333229
	H41	H	0.096818	0.228056	0.647299
	H42	H	0.095056	0.781589	0.328738
	H43	H	0.885390	0.785567	0.651063
	H44	H	0.215898	0.349939	0.874174
	H45	H	0.210528	0.663378	0.095057
	H46	H	0.763627	0.347923	0.093355
	H47	H	0.768481	0.665555	0.883629
	H48	H	0.387736	0.120842	0.575837
	H49	H	0.575739	0.891198	0.579875
	H50	H	0.575644	0.119424	0.396447
	H51	H	0.392428	0.889768	0.393701
	H52	H	0.581656	0.413329	0.106753
	H53	H	0.571496	0.595165	0.875145
	H54	H	0.398762	0.595988	0.104130
	H55	H	0.401454	0.427403	0.875424
	H56	H	0.100610	0.591039	0.401781
	H57	H	0.872889	0.595716	0.578749
	H58	H	0.101685	0.412688	0.572035
	H59	H	0.872521	0.414944	0.395953
	H60	H	0.099123	0.419400	0.572727
	H61	H	0.873162	0.595798	0.577292
	H62	H	0.104735	0.594205	0.394923
	H63	H	0.874898	0.412149	0.405358
	H64	H	0.400490	0.593103	0.102257
	H65	H	0.578263	0.603975	0.868898
	H66	H	0.575497	0.423079	0.101094
	H67	H	0.410825	0.413173	0.874496
	H68	H	0.576233	0.116654	0.403689
	H69	H	0.575173	0.892667	0.574966
	H70	H	0.398568	0.122040	0.586580
	H71	H	0.403416	0.894333	0.396008
	H72	H	0.892974	0.619210	0.075705
	H73	H	0.078424	0.392851	0.070787
	H74	H	0.082041	0.619399	0.899051
	H75	H	0.895175	0.392267	0.900765
	H76	H	0.081271	0.910276	0.607752
	H77	H	0.070805	0.093464	0.374709
	H78	H	0.898015	0.090208	0.604277
	H79	H	0.897806	0.911044	0.372423
	H80	H	0.597799	0.084740	0.901373
	H81	H	0.372748	0.098793	0.074250
	H82	H	0.603830	0.905070	0.071326
	H83	H	0.378548	0.921010	0.909244
	H84	H	0.594742	0.926467	0.068653
	H85	H	0.374245	0.095617	0.076861
	H86	H	0.606946	0.098448	0.887693
	H87	H	0.372324	0.919726	0.890212
	H88	H	0.903429	0.090992	0.602768
	H89	H	0.075740	0.092596	0.372788
	H90	H	0.078812	0.920060	0.602740
	H91	H	0.897883	0.913898	0.373481
	H92	H	0.076269	0.618328	0.896324
	H93	H	0.079067	0.390762	0.076826
	H94	H	0.896377	0.620403	0.083751
	H95	H	0.896569	0.391971	0.897986
	H96	H	0.401385	0.115230	0.572832
	H97	H	0.579898	0.891045	0.576587
	H98	H	0.582407	0.120252	0.400523
	H99	H	0.394633	0.894297	0.404895
	H100	H	0.569452	0.411870	0.102201
	H101	H	0.583239	0.593040	0.871793
	H102	H	0.402125	0.595874	0.102250
	H103	H	0.394575	0.413679	0.867756
	H104	H	0.103395	0.598625	0.402003
	H105	H	0.873430	0.595059	0.577870
	H106	H	0.102349	0.416763	0.577772
	H107	H	0.877666	0.421045	0.402847
	H108	H	0.901322	0.617525	0.077366
	H109	H	0.072959	0.393803	0.074828
	H110	H	0.076765	0.616684	0.902424
	H111	H	0.898909	0.392985	0.900588
	H112	H	0.071051	0.912956	0.602981
	H113	H	0.073796	0.088732	0.375532
	H114	H	0.900660	0.095190	0.605262
	H115	H	0.900110	0.912281	0.374511
	H116	H	0.602353	0.104253	0.907978
	H117	H	0.371504	0.098950	0.078679
	H118	H	0.604317	0.920150	0.089109
	H119	H	0.370045	0.904357	0.902052
	C120	C	0.365140	0.013960	0.610047
	C121	C	0.609346	0.996430	0.610242
	C122	C	0.608766	0.013643	0.367547
	C123	C	0.364983	0.997795	0.366687
	C124	C	0.608170	0.385179	-0.003470
	C125	C	0.608938	0.628426	0.979160
	C126	C	0.368035	0.626863	-0.003489
	C127	C	0.367953	0.384760	0.978214
	C128	C	-0.003105	0.625196	0.368072
	C129	C	0.979147	0.626558	0.609899
	C130	C	-0.003799	0.383659	0.609131
	C131	C	0.979099	0.381933	0.366554
	C132	C	0.864502	0.514267	0.110649
	C133	C	0.109306	0.496765	0.108238
	C134	C	0.111260	0.514122	0.864936
	C135	C	0.866320	0.497729	0.867578
	C136	C	0.109381	0.882257	0.497693
	C137	C	0.106949	0.124879	0.479810
	C138	C	0.867196	0.124919	0.498511
	C139	C	0.866704	0.881892	0.480132
	C140	C	0.496825	0.127042	0.866192
	C141	C	0.478381	0.128880	0.109163
	C142	C	0.495913	0.884954	0.109864
	C143	C	0.478976	0.883357	0.867033
	C144	C	0.364616	0.893850	0.668521
	C145	C	0.608876	0.117305	0.668172
	C146	C	0.608442	0.894272	0.306911
	C147	C	0.364417	0.118463	0.309474
	C148	C	0.667011	0.384786	0.874375
	C149	C	0.666561	0.627975	0.101503
	C150	C	0.309219	0.628635	0.874748
	C151	C	0.307022	0.382199	0.099193
	C152	C	0.875955	0.683658	0.366939
	C153	C	0.099582	0.685717	0.613334
	C154	C	0.876783	0.322510	0.614603
	C155	C	0.097548	0.319562	0.361128
	C156	C	0.875912	0.382448	0.669810
	C157	C	0.100094	0.626773	0.668859
	C158	C	0.874931	0.624467	0.310685
	C159	C	0.099010	0.379519	0.305594
	C160	C	0.365958	0.686561	0.875530
	C161	C	0.611728	0.687495	0.100784
	C162	C	0.612265	0.325532	0.875247
	C163	C	0.364230	0.324416	0.098904
	C164	C	0.667408	0.893786	0.364671
	C165	C	0.669479	0.115847	0.613083
	C166	C	0.305691	0.894397	0.611581
	C167	C	0.304932	0.117238	0.365154
	C168	C	0.863184	0.394295	0.169089
	C169	C	0.111030	0.615729	0.169591
	C170	C	0.113564	0.395277	0.803524
	C171	C	0.867305	0.617705	0.809078
	C172	C	0.168397	0.880600	0.375876
	C173	C	0.166549	0.126589	0.601457
	C174	C	0.806581	0.127129	0.377879
	C175	C	0.807073	0.879657	0.601535
	C176	C	0.378257	0.188586	0.860328
	C177	C	0.599047	0.187359	0.111720
	C178	C	0.377078	0.823223	0.114859
	C179	C	0.599406	0.824539	0.864155
	C180	C	0.374815	0.884716	0.168357
	C181	C	0.598726	0.129652	0.169242
	C182	C	0.375844	0.126672	0.807740
	C183	C	0.599303	0.881995	0.806827
	C184	C	0.859892	0.188007	0.379730
	C185	C	0.112440	0.186753	0.599732
	C186	C	0.112632	0.821769	0.376892
	C187	C	0.866119	0.824005	0.602214
	C188	C	0.173998	0.396462	0.858546
	C189	C	0.170099	0.615662	0.112497
	C190	C	0.804077	0.395197	0.112069
	C191	C	0.807927	0.617512	0.865515
	C192	C	0.389203	0.097570	0.585640
	C193	C	0.584335	0.913399	0.584662
	C194	C	0.585151	0.097109	0.393003
	C195	C	0.389627	0.914393	0.391209
	C196	C	0.582868	0.409079	0.081206
	C197	C	0.584750	0.604435	0.894230
	C198	C	0.392990	0.601965	0.080878
	C199	C	0.394459	0.410561	0.894387
	C200	C	0.080826	0.601387	0.392368
	C201	C	0.895009	0.602415	0.585057
	C202	C	0.079252	0.409068	0.582100
	C203	C	0.896465	0.408288	0.393576
	C204	C	0.889664	0.597447	0.086072
	C205	C	0.084224	0.414072	0.081801
	C206	C	0.085760	0.596630	0.891787
	C207	C	0.890084	0.414213	0.892523
	C208	C	0.084319	0.907173	0.582278
	C209	C	0.080766	0.099116	0.396122
	C210	C	0.893450	0.099318	0.582120
	C211	C	0.891366	0.905592	0.395514
	C212	C	0.580566	0.102645	0.891761
	C213	C	0.394520	0.104696	0.083895
	C214	C	0.579380	0.910157	0.083852
	C215	C	0.395251	0.907998	0.892941
	Zn216	Zn	0.487167	0.005229	0.739214
	Zn217	Zn	0.485999	0.007425	0.237830
	Zn218	Zn	0.735491	0.506271	-0.012178
	Zn219	Zn	0.239436	0.505632	-0.013094
	Zn220	Zn	-0.011399	0.754769	0.489169
	Zn221	Zn	-0.012516	0.253697	0.488903
	Zn222	Zn	-0.012121	0.505449	0.737670
	Zn223	Zn	-0.012066	0.504169	0.238537
	Zn224	Zn	0.488385	0.755929	-0.010878
	Zn225	Zn	0.488967	0.256333	-0.013531
	Zn226	Zn	0.739304	0.004030	0.489538
	Zn227	Zn	0.235552	0.005523	0.487397
	N228	N	0.400984	0.969210	0.667545
	N229	N	0.572223	0.041899	0.666776
	N230	N	0.573028	0.969818	0.308319
	N231	N	0.400853	0.043211	0.310149
	N232	N	0.664623	0.421252	0.950967
	N233	N	0.665208	0.592155	0.024883
	N234	N	0.310371	0.592163	0.951044
	N235	N	0.309125	0.419063	0.023113
	N236	N	0.952719	0.684368	0.401735
	N237	N	0.023443	0.685661	0.577295
	N238	N	0.952653	0.323144	0.577719
	N239	N	0.021810	0.321001	0.398310
	N240	N	0.951226	0.419582	0.666833
	N241	N	0.024474	0.590427	0.666563
	N242	N	0.951029	0.588956	0.311130
	N243	N	0.024245	0.417141	0.308571
	N244	N	0.401468	0.685983	0.952357
	N245	N	0.576636	0.687852	0.023721
	N246	N	0.576560	0.325582	0.952063
	N247	N	0.400670	0.325394	0.022317
	N248	N	0.668018	0.969155	0.401314
	N249	N	0.670061	0.039710	0.578205
	N250	N	0.305830	0.969917	0.575775
	N251	N	0.305134	0.041131	0.400109
	N252	N	0.900158	0.469392	0.168275
	N253	N	0.074207	0.540647	0.167293
	N254	N	0.075075	0.469314	0.807556
	N255	N	0.902894	0.542117	0.810302
	N256	N	0.166362	0.917698	0.451931
	N257	N	0.163351	0.088687	0.525884
	N258	N	0.810899	0.088556	0.452725
	N259	N	0.807228	0.915023	0.524666
	N260	N	0.454554	0.188705	0.896252
	N261	N	0.523271	0.187204	0.075191
	N262	N	0.453483	0.823275	0.079199
	N263	N	0.523518	0.825333	0.900990
	N264	N	0.449827	0.922487	0.165580
	N265	N	0.522651	0.093852	0.167707
	N266	N	0.450694	0.089030	0.811162
	N267	N	0.523458	0.918007	0.808488
	N268	N	0.897231	0.186676	0.455722
	N269	N	0.075914	0.185659	0.523354
	N270	N	0.076916	0.822558	0.453807
	N271	N	0.902266	0.825024	0.525589
	N272	N	0.172710	0.471400	0.896197
	N273	N	0.169202	0.540733	0.074981
	N274	N	0.804894	0.470784	0.076458
	N275	N	0.807219	0.541784	0.901245
	O276	O	0.341440	0.539897	0.319737
	H277	H	0.317562	0.543077	0.300052
	H278	H	0.350639	0.573119	0.330072
	O279	O	0.778082	0.850264	0.045685
	H280	H	0.763430	0.843699	0.030433
	H281	H	0.766043	0.867517	0.029141
	O282	O	0.075044	0.109248	0.860015
	H283	H	0.071542	0.126778	0.869440
	H284	H	0.078499	0.097735	0.865177
	O285	O	0.806484	-0.021417	0.012503
	H286	H	0.807575	-0.024429	0.025900
	H287	H	0.807619	0.004710	-0.003953
	O288	O	-0.043503	-0.189141	0.962103
	H289	H	-0.044282	-0.182505	0.949413
	H290	H	-0.046305	-0.180464	0.962215
	O291	O	0.508982	0.365948	0.623756
	H292	H	0.504556	0.356051	0.621806
	H293	H	0.535228	0.367337	0.612871
	O294	O	0.594865	0.331541	0.443005
	H295	H	0.594076	0.335211	0.442664
	H296	H	0.587384	0.336165	0.445595
	O297	O	1.126099	1.028913	0.851935
	H298	H	1.134426	1.041847	0.853220
	H299	H	1.132106	1.032405	0.878961
	O300	O	0.004744	-0.105495	0.031857
	H301	H	-0.006330	-0.093165	0.043883
	H302	H	-0.007230	-0.115499	0.030407
	O303	O	0.330186	0.569745	0.556017
	H304	H	0.330220	0.561478	0.558646
	H305	H	0.327111	0.547285	0.554660
	O306	O	0.961394	0.144029	-0.039785
	H307	H	0.988353	0.147590	-0.034058
	H308	H	0.939749	0.133092	-0.016025
	O309	O	0.587541	0.511461	0.553785
	H310	H	0.592016	0.487987	0.540353
	H311	H	0.596078	0.512611	0.566369
	O312	O	1.621962	0.438246	0.488648
	H313	H	1.625006	0.425503	0.469250
	H314	H	1.619541	0.437448	0.495420
	O315	O	0.376631	0.372307	0.556469
	H316	H	0.386033	0.374246	0.551410
	H317	H	0.387841	0.368472	0.555150
	O318	O	0.293776	0.506975	0.665898
	H319	H	0.282063	0.492804	0.677103
	H320	H	0.308980	0.499828	0.674744
	O321	O	0.791593	-0.043350	1.152251
	H322	H	0.778754	-0.057246	1.159410
	H323	H	0.785425	-0.060649	1.156737
	O324	O	0.079972	-0.039075	0.977133
	H325	H	0.080218	-0.051761	0.968958
	H326	H	0.083907	-0.048293	0.980622
	O327	O	0.315877	0.341781	0.462751
	H328	H	0.318600	0.339668	0.467852
	H329	H	0.312338	0.342148	0.466712
	O330	O	0.555282	0.453343	0.422774
	H331	H	0.552821	0.449638	0.403882
	H332	H	0.542266	0.471616	0.426300
	O333	O	0.831234	1.204726	1.024030
	H334	H	0.837155	1.211322	1.017361
	H335	H	0.828660	1.211044	1.028791
	O336	O	0.489789	0.555130	0.519284
	H337	H	0.483510	0.558026	0.534575
	H338	H	0.471777	0.568351	0.499899
	O339	O	1.157596	0.155513	1.153575
	H340	H	1.171736	0.111109	1.169456
	H341	H	1.124433	0.151177	1.141463
	O342	O	-0.210899	0.817655	1.187820
	H343	H	-0.200276	0.809035	1.170989
	H344	H	-0.224487	0.814561	1.174197
	O345	O	0.448516	0.513802	0.516894
	H346	H	0.443806	0.522804	0.511223
	H347	H	0.446064	0.514038	0.524809
	O348	O	0.528804	0.491598	0.546261
	H349	H	0.536957	0.489557	0.534500
	H350	H	0.536781	0.489043	0.539717
	O351	O	0.208810	0.226835	0.003836
	H352	H	0.196303	0.217840	0.033696
	H353	H	0.243001	0.255587	0.011190
	O354	O	0.808226	1.180174	-0.142505
	H355	H	0.819118	1.179388	-0.129970
	H356	H	0.830055	1.166292	-0.152201
	O357	O	-0.224997	1.027766	-0.224505
	H358	H	-0.224713	1.045092	-0.236313
	H359	H	-0.230643	1.035275	-0.242234
	O360	O	0.577128	0.653241	0.395461
	H361	H	0.579232	0.666612	0.391482
	H362	H	0.578871	0.651022	0.397632
	O363	O	0.486745	0.545161	0.613800
	H364	H	0.479133	0.558468	0.618556
	H365	H	0.486390	0.555356	0.603919
	O366	O	1.189430	0.794407	0.942571
	H367	H	1.189750	0.792830	0.912537
	H368	H	1.209826	0.772180	0.930073
	O369	O	0.416777	0.639837	0.373008
	H370	H	0.429638	0.632627	0.360698
	H371	H	0.422441	0.643769	0.354714
	O372	O	0.660678	0.402896	0.510319
	H373	H	0.666407	0.410173	0.512346
	H374	H	0.661932	0.398694	0.492428
	O375	O	0.406042	0.477151	0.335853
	H376	H	0.392106	0.466180	0.344423
	H377	H	0.403494	0.484857	0.343108
	O378	O	0.423431	0.667095	0.567280
	H379	H	0.398593	0.685397	0.574915
	H380	H	0.407990	0.635263	0.583127
	O381	O	0.319598	0.678093	0.339838
	H382	H	0.364360	0.683820	0.335143
	H383	H	0.314243	0.692511	0.373354
	O384	O	-0.151661	0.927675	0.885190
	H385	H	-0.156134	0.942542	0.860406
	H386	H	-0.143557	0.950266	0.907714
	O387	O	1.152450	1.023860	-0.084229
	H388	H	1.141139	1.021284	-0.076817
	H389	H	1.159504	1.044787	-0.072139
	O390	O	0.455241	0.684528	0.462783
	H391	H	0.445766	0.692579	0.471080
	H392	H	0.456274	0.659343	0.453645
	O393	O	1.013669	-0.792693	2.191711
	H394	H	1.027864	-0.819295	2.194442
	H395	H	1.019902	-0.769568	2.223649
	O396	O	0.172341	0.996769	1.174784
	H397	H	0.173607	0.981700	1.187444
	H398	H	0.171577	0.972970	1.158072
	O399	O	0.636334	0.623326	0.394587
	H400	H	0.635216	0.614849	0.391959
	H401	H	0.639892	0.619340	0.399998
	O402	O	1.134698	-0.178691	0.801840
	H403	H	1.105317	-0.176520	0.795406
	H404	H	1.134995	-0.154388	0.793348
	O405	O	0.041446	-0.097116	-0.202270
	H406	H	0.026830	-0.085175	-0.192536
	H407	H	0.044929	-0.082268	-0.210762
	O408	O	1.003225	0.866182	1.189203
	H409	H	0.995007	0.856021	1.170983
	H410	H	0.998484	0.847354	1.201068
	O411	O	0.879351	1.199592	0.094213
	H412	H	0.895610	1.203095	0.109151
	H413	H	0.868702	1.189908	0.096147
	O414	O	-0.032207	-0.092160	1.187241
	H415	H	-0.036113	-0.099515	1.180913
	H416	H	-0.052203	-0.089911	1.198182
	O417	O	1.033277	0.035994	0.902253
	H418	H	1.039982	0.036850	0.887035
	H419	H	1.041288	0.042068	0.904795
	O420	O	0.001676	1.024667	0.075241
	H421	H	0.005850	1.005260	0.072173
	H422	H	0.003874	1.008061	0.082006
	O423	O	1.599451	0.325203	-0.611831
	H424	H	1.593140	0.338130	-0.624488
	H425	H	1.607804	0.318881	-0.603892
	O426	O	-0.019124	0.207305	0.834376
	H427	H	0.007555	0.213290	0.870236
	H428	H	-0.015655	0.231970	0.813203
	O429	O	0.680547	0.648861	0.623685
	H430	H	0.693940	0.665715	0.631316
	H431	H	0.667690	0.646597	0.643305
