data_Molecule from HDF5

_cell_length_a		16.412389
_cell_length_b		16.483844
_cell_length_c		16.362539
_cell_angle_alpha	89.964354
_cell_angle_beta	90.057527
_cell_angle_gamma	89.990251
_symmetry_space_group_name_H-M	'P 1'
_symmetry_Int_Tables_number		1

loop_
	_symmetry_equiv_pos_as_xyz
	x,y,z

loop_
	_atom_site_label
	_atom_site_type_symbol
	_atom_site_fract_x
	_atom_site_fract_y
	_atom_site_fract_z
	H0	H	0.397362	0.847411	0.734683
	H1	H	0.612052	0.161307	0.733512
	H2	H	0.611076	0.845640	0.290072
	H3	H	0.399107	0.161151	0.287540
	H4	H	0.733221	0.396244	0.853481
	H5	H	0.729402	0.611084	0.170076
	H6	H	0.283488	0.611683	0.852740
	H7	H	0.286711	0.398135	0.169732
	H8	H	0.850305	0.727039	0.402251
	H9	H	0.161963	0.729678	0.623977
	H10	H	0.849639	0.279930	0.619978
	H11	H	0.163663	0.278429	0.402319
	H12	H	0.850815	0.394224	0.736560
	H13	H	0.164763	0.610624	0.734369
	H14	H	0.849924	0.609338	0.289110
	H15	H	0.165431	0.395247	0.289048
	H16	H	0.399431	0.727242	0.852822
	H17	H	0.612017	0.725453	0.169772
	H18	H	0.621610	0.276899	0.854797
	H19	H	0.401224	0.281629	0.168832
	H20	H	0.729572	0.847532	0.403516
	H21	H	0.730258	0.160576	0.619879
	H22	H	0.284394	0.846239	0.616251
	H23	H	0.282433	0.161076	0.403474
	H24	H	0.900244	0.345798	0.234041
	H25	H	0.113527	0.660137	0.234928
	H26	H	0.117045	0.347424	0.786788
	H27	H	0.901666	0.660231	0.786740
	H28	H	0.227564	0.897980	0.352923
	H29	H	0.231729	0.113356	0.667874
	H30	H	0.780368	0.113092	0.354221
	H31	H	0.784538	0.896952	0.669011
	H32	H	0.352901	0.233291	0.898265
	H33	H	0.663738	0.228426	0.120411
	H34	H	0.350733	0.779315	0.120020
	H35	H	0.663032	0.779553	0.901172
	H36	H	0.348593	0.897335	0.232798
	H37	H	0.662974	0.112394	0.235515
	H38	H	0.349701	0.112672	0.788172
	H39	H	0.661821	0.894057	0.784303
	H40	H	0.897685	0.228054	0.354139
	H41	H	0.114797	0.226964	0.668886
	H42	H	0.115624	0.778719	0.354321
	H43	H	0.899037	0.778956	0.668078
	H44	H	0.234856	0.348624	0.900657
	H45	H	0.229831	0.660616	0.119251
	H46	H	0.783176	0.346877	0.118598
	H47	H	0.786740	0.661316	0.903756
	H48	H	0.420173	0.115658	0.597311
	H49	H	0.592870	0.893445	0.593767
	H50	H	0.588130	0.113411	0.425835
	H51	H	0.418753	0.891418	0.421811
	H52	H	0.591786	0.420031	0.120668
	H53	H	0.592536	0.592394	0.898647
	H54	H	0.417911	0.596779	0.125929
	H55	H	0.416918	0.418983	0.896587
	H56	H	0.119343	0.591906	0.428192
	H57	H	0.895490	0.591753	0.592432
	H58	H	0.120919	0.410749	0.597212
	H59	H	0.898441	0.422714	0.425337
	H60	H	0.118018	0.416695	0.595430
	H61	H	0.896011	0.584656	0.598984
	H62	H	0.119687	0.588510	0.423153
	H63	H	0.891007	0.414009	0.416477
	H64	H	0.416860	0.590075	0.124472
	H65	H	0.597179	0.595437	0.896004
	H66	H	0.593007	0.412182	0.123590
	H67	H	0.423791	0.423317	0.901161
	H68	H	0.598149	0.116768	0.426627
	H69	H	0.597587	0.890771	0.598539
	H70	H	0.416640	0.116380	0.597397
	H71	H	0.415270	0.890509	0.422793
	H72	H	0.922259	0.615312	0.102798
	H73	H	0.096279	0.391505	0.097901
	H74	H	0.096700	0.617240	0.922539
	H75	H	0.918485	0.390341	0.922481
	H76	H	0.098251	0.912618	0.627209
	H77	H	0.097652	0.095791	0.394648
	H78	H	0.919538	0.087441	0.621952
	H79	H	0.915615	0.917964	0.397333
	H80	H	0.621034	0.097713	0.926530
	H81	H	0.394064	0.089335	0.102021
	H82	H	0.622010	0.906641	0.097298
	H83	H	0.392567	0.911827	0.925148
	H84	H	0.615546	0.920611	0.091332
	H85	H	0.392210	0.098534	0.096455
	H86	H	0.615877	0.085906	0.928063
	H87	H	0.395622	0.919341	0.926599
	H88	H	0.922045	0.094940	0.624300
	H89	H	0.095208	0.082513	0.401039
	H90	H	0.095485	0.919488	0.623484
	H91	H	0.922200	0.917034	0.399514
	H92	H	0.092946	0.615319	0.923044
	H93	H	0.097704	0.390257	0.099029
	H94	H	0.919990	0.614526	0.096648
	H95	H	0.923368	0.392366	0.923570
	H96	H	0.418954	0.116833	0.600089
	H97	H	0.590717	0.892194	0.600910
	H98	H	0.593066	0.117622	0.417340
	H99	H	0.416968	0.890492	0.419287
	H100	H	0.599797	0.417875	0.124546
	H101	H	0.598460	0.589435	0.898011
	H102	H	0.422548	0.592824	0.123017
	H103	H	0.424833	0.414485	0.898261
	H104	H	0.122091	0.593910	0.422470
	H105	H	0.892488	0.593243	0.601023
	H106	H	0.120562	0.415792	0.601592
	H107	H	0.893987	0.409334	0.429664
	H108	H	0.916497	0.617510	0.101429
	H109	H	0.095563	0.391140	0.100100
	H110	H	0.095813	0.614893	0.925854
	H111	H	0.919708	0.392063	0.927811
	H112	H	0.090253	0.912826	0.624511
	H113	H	0.084085	0.092178	0.400927
	H114	H	0.914620	0.092525	0.626121
	H115	H	0.918337	0.912176	0.396833
	H116	H	0.621583	0.089386	0.916741
	H117	H	0.396711	0.090298	0.092074
	H118	H	0.621765	0.920046	0.106764
	H119	H	0.392765	0.917354	0.919376
	C120	C	0.384520	0.012689	0.632173
	C121	C	0.627391	0.995493	0.632210
	C122	C	0.627205	0.012488	0.389660
	C123	C	0.384096	0.995073	0.388315
	C124	C	0.629855	0.382489	0.019082
	C125	C	0.628727	0.625564	1.002553
	C126	C	0.385468	0.626268	0.019811
	C127	C	0.387427	0.384114	1.002546
	C128	C	0.016212	0.624744	0.390554
	C129	C	0.998289	0.623769	0.632083
	C130	C	0.015925	0.381074	0.632658
	C131	C	0.998501	0.381532	0.389725
	C132	C	0.886110	0.512199	0.133349
	C133	C	0.129392	0.494600	0.133068
	C134	C	0.129819	0.512595	0.889616
	C135	C	0.886615	0.494908	0.889823
	C136	C	0.127966	0.881661	0.520560
	C137	C	0.127034	0.124432	0.502733
	C138	C	0.884466	0.125313	0.520012
	C139	C	0.885424	0.882235	0.502120
	C140	C	0.516300	0.126395	0.888966
	C141	C	0.498163	0.125692	0.131349
	C142	C	0.515382	0.883087	0.131782
	C143	C	0.497344	0.882264	0.888893
	C144	C	0.380455	0.894509	0.693918
	C145	C	0.630434	0.113908	0.693459
	C146	C	0.629768	0.893773	0.329223
	C147	C	0.380701	0.113649	0.327639
	C148	C	0.692424	0.378563	0.900975
	C149	C	0.689293	0.628349	0.122130
	C150	C	0.323948	0.629673	0.900590
	C151	C	0.326476	0.380293	0.121794
	C152	C	0.897669	0.686306	0.385589
	C153	C	0.115628	0.687383	0.638735
	C154	C	0.897316	0.319995	0.637376
	C155	C	0.116757	0.319493	0.385519
	C156	C	0.898188	0.376812	0.695763
	C157	C	0.117026	0.627882	0.694014
	C158	C	0.897493	0.627747	0.328933
	C159	C	0.117580	0.377815	0.328860
	C160	C	0.381789	0.687277	0.900406
	C161	C	0.631034	0.685711	0.122018
	C162	C	0.636275	0.319166	0.901555
	C163	C	0.383610	0.322062	0.121102
	C164	C	0.688681	0.894405	0.386052
	C165	C	0.689195	0.113556	0.636637
	C166	C	0.323804	0.894003	0.635016
	C167	C	0.322783	0.113695	0.385449
	C168	C	0.882614	0.393316	0.193817
	C169	C	0.132056	0.612777	0.194756
	C170	C	0.134422	0.394553	0.827485
	C171	C	0.883176	0.612967	0.827274
	C172	C	0.188143	0.879397	0.400707
	C173	C	0.190388	0.129736	0.620810
	C174	C	0.821596	0.130362	0.401602
	C175	C	0.824551	0.878983	0.621506
	C176	C	0.399498	0.190969	0.882223
	C177	C	0.616463	0.187734	0.136965
	C178	C	0.397459	0.820842	0.136484
	C179	C	0.615314	0.820113	0.883818
	C180	C	0.396481	0.879513	0.192816
	C181	C	0.615978	0.129804	0.194509
	C182	C	0.397580	0.130657	0.827545
	C183	C	0.614818	0.877326	0.825617
	C184	C	0.880031	0.187572	0.401391
	C185	C	0.132209	0.186680	0.621023
	C186	C	0.132445	0.819712	0.401893
	C187	C	0.881682	0.820356	0.620876
	C188	C	0.193079	0.395257	0.884412
	C189	C	0.189976	0.613173	0.137037
	C190	C	0.824396	0.393840	0.136074
	C191	C	0.826451	0.613873	0.886090
	C192	C	0.410960	0.094810	0.605904
	C193	C	0.601238	0.913501	0.605590
	C194	C	0.600987	0.094550	0.415920
	C195	C	0.409424	0.912401	0.414072
	C196	C	0.602554	0.409063	0.101537
	C197	C	0.603257	0.599807	0.919390
	C198	C	0.411639	0.600587	0.102566
	C199	C	0.414150	0.411016	0.920225
	C200	C	0.098688	0.598825	0.416975
	C201	C	0.916216	0.597469	0.605047
	C202	C	0.098393	0.406960	0.605747
	C203	C	0.916218	0.407923	0.416135
	C204	C	0.912104	0.594312	0.107755
	C205	C	0.103764	0.412440	0.106599
	C206	C	0.103016	0.594420	0.916094
	C207	C	0.912841	0.413126	0.916562
	C208	C	0.102096	0.907398	0.603527
	C209	C	0.100067	0.097696	0.420315
	C210	C	0.911051	0.099101	0.602541
	C211	C	0.911333	0.908267	0.419577
	C212	C	0.598109	0.098859	0.915996
	C213	C	0.415960	0.100173	0.104298
	C214	C	0.598107	0.908732	0.105998
	C215	C	0.414896	0.908829	0.915976
	Zn216	Zn	0.505826	0.004171	0.761376
	Zn217	Zn	0.506079	0.004205	0.260089
	Zn218	Zn	0.757739	0.504577	0.010779
	Zn219	Zn	0.258060	0.504464	0.011481
	Zn220	Zn	0.006908	0.752962	0.511225
	Zn221	Zn	0.006658	0.253452	0.511183
	Zn222	Zn	0.008240	0.503242	0.760476
	Zn223	Zn	0.007750	0.502858	0.262372
	Zn224	Zn	0.507137	0.754196	0.010895
	Zn225	Zn	0.507918	0.254438	0.010264
	Zn226	Zn	0.756601	0.003417	0.511299
	Zn227	Zn	0.255482	0.003891	0.510914
	N228	N	0.417343	0.969343	0.692418
	N229	N	0.592861	0.039475	0.691108
	N230	N	0.592410	0.968523	0.331062
	N231	N	0.417894	0.039063	0.329239
	N232	N	0.688583	0.417103	0.975262
	N233	N	0.688028	0.591673	0.046523
	N234	N	0.326133	0.592492	0.975750
	N235	N	0.328520	0.417949	0.046933
	N236	N	0.972499	0.684502	0.423093
	N237	N	0.040889	0.684933	0.600672
	N238	N	0.971610	0.322645	0.598812
	N239	N	0.041801	0.321871	0.422861
	N240	N	0.972953	0.414261	0.692902
	N241	N	0.043080	0.588805	0.689932
	N242	N	0.972336	0.590239	0.331754
	N243	N	0.042850	0.415207	0.331043
	N244	N	0.419056	0.685466	0.975582
	N245	N	0.594359	0.684324	0.046575
	N246	N	0.598014	0.321691	0.976231
	N247	N	0.420783	0.324262	0.045743
	N248	N	0.687380	0.969321	0.422601
	N249	N	0.687300	0.038874	0.599166
	N250	N	0.325843	0.968605	0.597697
	N251	N	0.324628	0.038756	0.422473
	N252	N	0.920400	0.467647	0.192154
	N253	N	0.095540	0.537993	0.192845
	N254	N	0.095827	0.468504	0.830557
	N255	N	0.919867	0.537943	0.829131
	N256	N	0.185689	0.916976	0.475524
	N257	N	0.187066	0.091559	0.546330
	N258	N	0.824144	0.092645	0.476438
	N259	N	0.826469	0.916452	0.546602
	N260	N	0.474465	0.188658	0.919450
	N261	N	0.542160	0.185411	0.098318
	N262	N	0.472413	0.822832	0.099051
	N263	N	0.541260	0.823231	0.922631
	N264	N	0.470859	0.917594	0.189994
	N265	N	0.541595	0.091834	0.191138
	N266	N	0.471324	0.091349	0.831417
	N267	N	0.540379	0.915358	0.828911
	N268	N	0.918366	0.184665	0.476067
	N269	N	0.093294	0.183369	0.546580
	N270	N	0.095831	0.820946	0.477540
	N271	N	0.918486	0.821956	0.545653
	N272	N	0.190353	0.469719	0.922224
	N273	N	0.188590	0.538674	0.099431
	N274	N	0.826159	0.468873	0.099454
	N275	N	0.828347	0.539619	0.924090
	O276	O	0.707739	0.523508	0.498613
	H277	H	0.704858	0.536214	0.484000
	H278	H	0.718827	0.506775	0.477056
	O279	O	1.068396	0.218298	0.952164
	H280	H	1.088718	0.213246	0.972191
	H281	H	1.074950	0.216538	0.963791
	O282	O	0.224293	0.784287	0.989223
	H283	H	0.235936	0.783336	0.979098
	H284	H	0.233887	0.767241	0.970767
	O285	O	0.308691	0.588804	0.309155
	H286	H	0.308880	0.594260	0.315206
	H287	H	0.292130	0.591581	0.303609
	O288	O	0.784858	0.955547	-0.035034
	H289	H	0.798063	0.972228	-0.019517
	H290	H	0.776678	0.942423	-0.029953
	O291	O	0.727013	0.480412	0.293502
	H292	H	0.731907	0.443295	0.284729
	H293	H	0.741063	0.461376	0.274542
	O294	O	-0.208041	-0.206683	1.033752
	H295	H	-0.214558	-0.200588	1.049819
	H296	H	-0.227221	-0.218278	1.027030
	O297	O	0.563969	0.439575	0.729306
	H298	H	0.549281	0.469907	0.727252
	H299	H	0.598528	0.457525	0.717693
	O300	O	0.582229	0.557903	0.499324
	H301	H	0.594393	0.565790	0.499109
	H302	H	0.586879	0.547878	0.482035
	O303	O	0.295218	0.715310	0.494393
	H304	H	0.259601	0.742012	0.492144
	H305	H	0.287711	0.674075	0.512963
	O306	O	0.331509	0.626541	0.324213
	H307	H	0.342603	0.620966	0.331440
	H308	H	0.342814	0.629559	0.350320
	O309	O	1.024116	0.212771	0.220370
	H310	H	1.018653	0.232289	0.238220
	H311	H	1.022136	0.215894	0.201556
	O312	O	0.220833	0.981889	0.797133
	H313	H	0.215680	0.999888	0.793196
	H314	H	0.238810	0.986094	0.786175
	O315	O	0.323176	0.563881	0.565265
	H316	H	0.328674	0.541637	0.580697
	H317	H	0.320287	0.535942	0.567712
	O318	O	1.218639	0.026987	0.222095
	H319	H	1.228187	0.008622	0.214349
	H320	H	1.233528	0.016296	0.233901
	O321	O	-0.171574	0.183086	-0.164497
	H322	H	-0.130613	0.187962	-0.160866
	H323	H	-0.165316	0.173819	-0.152490
	O324	O	0.642883	0.705643	0.459190
	H325	H	0.667378	0.726010	0.470663
	H326	H	0.646640	0.690824	0.467240
	O327	O	0.325625	0.323879	0.684493
	H328	H	0.377857	0.311792	0.695362
	H329	H	0.313276	0.339450	0.672287
	O330	O	0.207151	0.900166	0.115205
	H331	H	0.204599	0.880564	0.119285
	H332	H	0.195745	0.894573	0.106516
	O333	O	0.362358	0.451237	0.465310
	H334	H	0.366991	0.435424	0.456606
	H335	H	0.368500	0.462430	0.446021
	O336	O	0.221057	0.222341	0.029403
	H337	H	0.222164	0.210625	0.062707
	H338	H	0.248743	0.240389	0.043325
	O339	O	-0.144257	1.069500	0.053425
	H340	H	-0.147284	1.067595	0.070657
	H341	H	-0.135623	1.080189	0.049737
	O342	O	-0.097428	1.056442	1.186263
	H343	H	-0.077361	1.078772	1.195658
	H344	H	-0.095835	1.040139	1.187676
	O345	O	0.690720	0.625749	-0.304625
	H346	H	0.665620	0.636037	-0.302173
	H347	H	0.706597	0.593874	-0.294164
	O348	O	0.441623	0.293844	0.439511
	H349	H	0.444218	0.297756	0.429884
	H350	H	0.447244	0.304847	0.455946
	O351	O	-0.046794	1.192247	1.068905
	H352	H	-0.055531	1.196862	1.052546
	H353	H	-0.060611	1.188204	1.070405
	O354	O	0.185750	0.818481	-0.170962
	H355	H	0.184652	0.840912	-0.161753
	H356	H	0.161414	0.833235	-0.177747
	O357	O	-0.202852	0.214063	0.995447
	H358	H	-0.226035	0.233558	0.997976
	H359	H	-0.202367	0.198977	0.983749
	O360	O	0.486705	0.700089	0.316554
	H361	H	0.488301	0.700934	0.325911
	H362	H	0.489848	0.707621	0.311624
	O363	O	0.121598	0.088267	0.875911
	H364	H	0.111021	0.097378	0.896621
	H365	H	0.117374	0.096235	0.884895
	O366	O	0.455814	0.719287	0.560223
	H367	H	0.445907	0.713878	0.534643
	H368	H	0.444997	0.717266	0.548384
	O369	O	0.305321	0.298675	0.520792
	H370	H	0.323870	0.298403	0.536863
	H371	H	0.290131	0.281822	0.518003
	O372	O	0.988452	0.206882	0.805467
	H373	H	1.017008	0.201266	0.827416
	H374	H	0.993531	0.236005	0.790280
	O375	O	0.446966	0.551275	0.720677
	H376	H	0.455072	0.585503	0.710649
	H377	H	0.440933	0.553592	0.725695
	O378	O	0.717331	0.713293	0.586316
	H379	H	0.694401	0.699852	0.622682
	H380	H	0.750872	0.746866	0.592534
	O381	O	0.702440	0.313058	0.431043
	H382	H	0.698105	0.295089	0.459234
	H383	H	0.685861	0.299466	0.435955
	O384	O	0.509477	0.512763	0.307784
	H385	H	0.510184	0.526913	0.300224
	H386	H	0.512472	0.531993	0.306273
	O387	O	0.054475	-0.056095	0.913105
	H388	H	0.054855	-0.066325	0.908184
	H389	H	0.076190	-0.045028	0.894089
	O390	O	-0.211701	-0.017337	0.224734
	H391	H	-0.232486	-0.019595	0.248733
	H392	H	-0.194683	-0.025785	0.230127
	O393	O	1.060108	0.929720	0.981475
	H394	H	1.070801	0.932343	0.974138
	H395	H	1.046659	0.916862	0.976840
	O396	O	1.098538	0.004600	-0.088017
	H397	H	1.099235	0.014969	-0.082976
	H398	H	1.079318	-0.002194	-0.093368
	O399	O	0.791053	0.026497	0.797648
	H400	H	0.792354	0.051992	0.809805
	H401	H	0.758153	0.026759	0.781624
	O402	O	1.009684	0.785093	0.933958
	H403	H	0.991360	0.781706	0.932784
	H404	H	0.992704	0.795145	0.924017
	O405	O	0.985452	0.794005	0.221209
	H406	H	0.996779	0.786072	0.202959
	H407	H	0.983735	0.780706	0.241551
	O408	O	0.821539	-0.178867	0.195947
	H409	H	0.858919	-0.179009	0.198872
	H410	H	0.806615	-0.171526	0.183747
	O411	O	0.906924	0.848005	-0.081672
	H412	H	0.912057	0.867210	-0.085522
	H413	H	0.906139	0.850575	-0.089875
	O414	O	0.441930	0.471820	0.518228
	H415	H	0.425911	0.466275	0.524242
	H416	H	0.452333	0.480834	0.536259
	O417	O	0.574793	0.536163	0.385410
	H418	H	0.590431	0.534138	0.374990
	H419	H	0.574340	0.542561	0.384712
	O420	O	0.131316	0.010502	0.010431
	H421	H	0.124008	-0.014171	0.021089
	H422	H	0.127582	0.007601	0.011106
	O423	O	0.577645	0.293686	0.569042
	H424	H	0.553565	0.292920	0.597203
	H425	H	0.558913	0.316051	0.568328
	O426	O	0.486533	0.291865	0.721388
	H427	H	0.486547	0.263098	0.760901
	H428	H	0.513206	0.339750	0.733069
	O429	O	0.182334	1.183342	0.185694
	H430	H	0.141931	1.186951	0.184005
	H431	H	0.197483	1.139397	0.202902
	O432	O	0.720650	0.498328	0.666830
	H433	H	0.748522	0.497484	0.682930
	H434	H	0.725686	0.476514	0.641090
	O435	O	0.292805	0.491721	0.710096
	H436	H	0.284612	0.470827	0.724378
	H437	H	0.300298	0.501699	0.733794
	O438	O	0.022764	-0.021810	0.219521
	H439	H	0.027946	-0.038881	0.217060
	H440	H	0.020989	-0.017166	0.212744
	O441	O	0.993708	-0.020279	0.069836
	H442	H	0.992311	-0.009830	0.074976
	H443	H	0.991137	-0.019746	0.080108
	O444	O	-0.049078	0.858599	0.816340
	H445	H	-0.049840	0.883496	0.816713
	H446	H	-0.050541	0.868225	0.820079
	O447	O	0.522628	0.306470	0.304943
	H448	H	0.511397	0.322077	0.299542
	H449	H	0.506591	0.294345	0.301151
	O450	O	0.523196	0.712903	0.719190
	H451	H	0.523184	0.744165	0.730722
	H452	H	0.520930	0.722712	0.691050
	O453	O	0.698990	0.311220	0.383802
	H454	H	0.655343	0.304856	0.387018
	H455	H	0.708652	0.291405	0.419169
