data_Molecule from HDF5

_cell_length_a		16.579563
_cell_length_b		16.495128
_cell_length_c		16.484379
_cell_angle_alpha	90.033026
_cell_angle_beta	90.130409
_cell_angle_gamma	90.102087
_symmetry_space_group_name_H-M	'P 1'
_symmetry_Int_Tables_number		1

loop_
	_symmetry_equiv_pos_as_xyz
	x,y,z

loop_
	_atom_site_label
	_atom_site_type_symbol
	_atom_site_fract_x
	_atom_site_fract_y
	_atom_site_fract_z
	H0	H	0.384041	0.857493	0.716363
	H1	H	0.596083	0.171743	0.715524
	H2	H	0.594237	0.856743	0.273577
	H3	H	0.386078	0.171892	0.272112
	H4	H	0.713660	0.407630	0.838289
	H5	H	0.710049	0.616694	0.152937
	H6	H	0.265154	0.622918	0.840298
	H7	H	0.268018	0.406203	0.151202
	H8	H	0.835141	0.735417	0.389646
	H9	H	0.146720	0.738172	0.602482
	H10	H	0.836006	0.291272	0.600982
	H11	H	0.147922	0.290759	0.388563
	H12	H	0.834479	0.409944	0.715574
	H13	H	0.147086	0.621978	0.719433
	H14	H	0.834359	0.617103	0.274500
	H15	H	0.146319	0.404881	0.270016
	H16	H	0.383116	0.736090	0.838491
	H17	H	0.594168	0.733640	0.152848
	H18	H	0.596409	0.291445	0.838175
	H19	H	0.384922	0.291193	0.151278
	H20	H	0.713240	0.858401	0.388255
	H21	H	0.712122	0.171854	0.600266
	H22	H	0.267571	0.858456	0.600697
	H23	H	0.268485	0.172053	0.386836
	H24	H	0.887835	0.355985	0.215077
	H25	H	0.097921	0.670409	0.218625
	H26	H	0.095201	0.356611	0.774140
	H27	H	0.886568	0.671190	0.774760
	H28	H	0.212932	0.907981	0.337331
	H29	H	0.213354	0.118796	0.652200
	H30	H	0.770114	0.120440	0.338179
	H31	H	0.767854	0.906921	0.650677
	H32	H	0.333795	0.235059	0.889188
	H33	H	0.645593	0.236656	0.100672
	H34	H	0.332471	0.793410	0.097641
	H35	H	0.647658	0.794011	0.891952
	H36	H	0.332122	0.909984	0.213980
	H37	H	0.645602	0.120451	0.217281
	H38	H	0.334032	0.118311	0.772457
	H39	H	0.647191	0.909943	0.773663
	H40	H	0.890046	0.234019	0.337466
	H41	H	0.096504	0.233287	0.653760
	H42	H	0.096434	0.791497	0.337920
	H43	H	0.885112	0.792131	0.650850
	H44	H	0.214489	0.357908	0.887828
	H45	H	0.213837	0.670450	0.102236
	H46	H	0.768319	0.358010	0.100924
	H47	H	0.770209	0.670763	0.890694
	H48	H	0.399311	0.127039	0.581106
	H49	H	0.577724	0.903892	0.580025
	H50	H	0.577914	0.124537	0.409860
	H51	H	0.401881	0.903596	0.408608
	H52	H	0.588763	0.428438	0.109638
	H53	H	0.581954	0.601491	0.881293
	H54	H	0.401981	0.604914	0.107811
	H55	H	0.400437	0.426092	0.882264
	H56	H	0.101330	0.602899	0.413039
	H57	H	0.880947	0.604437	0.577648
	H58	H	0.102838	0.423084	0.578982
	H59	H	0.880608	0.428311	0.402053
	H60	H	0.101175	0.431402	0.586918
	H61	H	0.880979	0.596068	0.586956
	H62	H	0.102724	0.597226	0.405413
	H63	H	0.878788	0.419066	0.407922
	H64	H	0.400944	0.598569	0.106937
	H65	H	0.578396	0.604034	0.882484
	H66	H	0.573727	0.432507	0.102232
	H67	H	0.402174	0.428844	0.883277
	H68	H	0.584387	0.128530	0.405459
	H69	H	0.584489	0.899989	0.582169
	H70	H	0.404920	0.126814	0.585062
	H71	H	0.397655	0.900694	0.405435
	H72	H	0.901295	0.627821	0.088211
	H73	H	0.079474	0.402066	0.083643
	H74	H	0.078445	0.624526	0.911399
	H75	H	0.901031	0.400786	0.905344
	H76	H	0.075316	0.925768	0.604881
	H77	H	0.083822	0.110720	0.378238
	H78	H	0.907088	0.104389	0.607095
	H79	H	0.907137	0.925085	0.383558
	H80	H	0.604716	0.106862	0.900473
	H81	H	0.380843	0.094313	0.083101
	H82	H	0.603279	0.920195	0.083113
	H83	H	0.379048	0.918813	0.913216
	H84	H	0.600339	0.926928	0.082753
	H85	H	0.374354	0.106331	0.087635
	H86	H	0.601559	0.105836	0.911249
	H87	H	0.381515	0.934059	0.904438
	H88	H	0.898109	0.106049	0.610807
	H89	H	0.085211	0.096957	0.382527
	H90	H	0.083207	0.924630	0.608399
	H91	H	0.897576	0.922182	0.379317
	H92	H	0.081418	0.626529	0.907840
	H93	H	0.078049	0.402642	0.082560
	H94	H	0.903526	0.625806	0.084132
	H95	H	0.903193	0.401644	0.906629
	H96	H	0.404754	0.124511	0.579001
	H97	H	0.578553	0.900770	0.587632
	H98	H	0.576952	0.127740	0.401350
	H99	H	0.402785	0.902300	0.402739
	H100	H	0.576050	0.416793	0.108747
	H101	H	0.582525	0.605843	0.880983
	H102	H	0.407035	0.601561	0.105805
	H103	H	0.403315	0.425226	0.883479
	H104	H	0.105075	0.606856	0.404760
	H105	H	0.876393	0.607852	0.588861
	H106	H	0.106476	0.421881	0.589906
	H107	H	0.883466	0.427920	0.412197
	H108	H	0.899083	0.627702	0.083962
	H109	H	0.079010	0.401905	0.081773
	H110	H	0.076644	0.625521	0.906939
	H111	H	0.900986	0.401410	0.908063
	H112	H	0.081110	0.932367	0.604408
	H113	H	0.072747	0.104093	0.385129
	H114	H	0.899878	0.097559	0.606627
	H115	H	0.898968	0.932149	0.383700
	H116	H	0.600885	0.096974	0.904511
	H117	H	0.379940	0.105231	0.074325
	H118	H	0.602985	0.924770	0.088989
	H119	H	0.374634	0.920538	0.896391
	C120	C	0.370223	0.022428	0.614462
	C121	C	0.612402	1.005797	0.615764
	C122	C	0.611576	0.023030	0.373193
	C123	C	0.368809	1.006070	0.372472
	C124	C	0.612294	0.392809	0.003254
	C125	C	0.612125	0.635273	0.986388
	C126	C	0.369839	0.634787	0.003552
	C127	C	0.369226	0.393187	0.986182
	C128	C	-0.000310	0.634727	0.374463
	C129	C	0.982663	0.636001	0.617289
	C130	C	0.000192	0.392959	0.617060
	C131	C	0.983873	0.392481	0.374355
	C132	C	0.869693	0.522425	0.116959
	C133	C	0.112301	0.505490	0.116595
	C134	C	0.111960	0.522296	0.875117
	C135	C	0.869752	0.505379	0.874392
	C136	C	0.112383	0.893592	0.502508
	C137	C	0.113239	0.135839	0.486179
	C138	C	0.870319	0.135533	0.503938
	C139	C	0.869107	0.893276	0.485959
	C140	C	0.499014	0.135621	0.873027
	C141	C	0.481454	0.134906	0.114911
	C142	C	0.498166	0.892226	0.116611
	C143	C	0.481965	0.892112	0.872828
	C144	C	0.366725	0.904794	0.675597
	C145	C	0.614313	0.124216	0.675817
	C146	C	0.613302	0.904316	0.313291
	C147	C	0.367166	0.124639	0.312192
	C148	C	0.672971	0.389672	0.885266
	C149	C	0.670904	0.636269	0.105447
	C150	C	0.306884	0.639426	0.886680
	C151	C	0.308451	0.388969	0.104171
	C152	C	0.881864	0.694974	0.371649
	C153	C	0.099862	0.697606	0.620400
	C154	C	0.882783	0.331846	0.619247
	C155	C	0.101049	0.331212	0.370653
	C156	C	0.881869	0.390990	0.676025
	C157	C	0.100055	0.639717	0.678635
	C158	C	0.881606	0.636332	0.314229
	C159	C	0.100199	0.388068	0.311774
	C160	C	0.365654	0.695915	0.885785
	C161	C	0.612957	0.693910	0.105460
	C162	C	0.614646	0.332026	0.885003
	C163	C	0.366669	0.331829	0.104296
	C164	C	0.672517	0.905209	0.370136
	C165	C	0.672371	0.124220	0.618517
	C166	C	0.308699	0.904901	0.618003
	C167	C	0.308501	0.124529	0.369264
	C168	C	0.868470	0.403651	0.175811
	C169	C	0.115992	0.623329	0.178265
	C170	C	0.114601	0.404231	0.813849
	C171	C	0.867907	0.623878	0.814512
	C172	C	0.172395	0.890227	0.384391
	C173	C	0.173681	0.137813	0.604907
	C174	C	0.810736	0.138237	0.385186
	C175	C	0.808373	0.889401	0.603705
	C176	C	0.380874	0.195277	0.870712
	C177	C	0.598931	0.195923	0.118560
	C178	C	0.379739	0.833022	0.116967
	C179	C	0.600526	0.833215	0.872142
	C180	C	0.379631	0.891076	0.174960
	C181	C	0.598766	0.138052	0.176480
	C182	C	0.380785	0.137096	0.812888
	C183	C	0.600253	0.890672	0.813537
	C184	C	0.870142	0.194730	0.384934
	C185	C	0.115230	0.194486	0.605722
	C186	C	0.114573	0.832271	0.384659
	C187	C	0.866899	0.832459	0.603777
	C188	C	0.173568	0.404701	0.870652
	C189	C	0.173826	0.623246	0.120684
	C190	C	0.809235	0.404561	0.119162
	C191	C	0.809961	0.623705	0.872091
	C192	C	0.395842	0.104652	0.588759
	C193	C	0.587322	0.923008	0.590529
	C194	C	0.586707	0.105429	0.398311
	C195	C	0.393756	0.923648	0.398231
	C196	C	0.587047	0.418366	0.085669
	C197	C	0.588071	0.610825	0.903322
	C198	C	0.395924	0.609096	0.085554
	C199	C	0.394659	0.419107	0.904367
	C200	C	0.081661	0.609580	0.400288
	C201	C	0.900796	0.610015	0.591822
	C202	C	0.082183	0.418275	0.592433
	C203	C	0.902324	0.417956	0.400229
	C204	C	0.894326	0.605524	0.092411
	C205	C	0.086268	0.423528	0.090354
	C206	C	0.086253	0.604092	0.901216
	C207	C	0.894594	0.422825	0.899520
	C208	C	0.087006	0.919871	0.584400
	C209	C	0.087889	0.111068	0.403707
	C210	C	0.894632	0.110022	0.586608
	C211	C	0.894127	0.919113	0.403575
	C212	C	0.580852	0.110547	0.898181
	C213	C	0.399683	0.109339	0.088904
	C214	C	0.580566	0.916954	0.092006
	C215	C	0.399869	0.917161	0.897669
	Zn216	Zn	0.490500	0.014014	0.744113
	Zn217	Zn	0.489737	0.014058	0.244465
	Zn218	Zn	0.740905	0.513994	-0.004955
	Zn219	Zn	0.240929	0.514196	-0.003820
	Zn220	Zn	-0.009139	0.764752	0.495000
	Zn221	Zn	-0.007503	0.263751	0.495960
	Zn222	Zn	-0.008951	0.514347	0.746137
	Zn223	Zn	-0.008324	0.513617	0.245383
	Zn224	Zn	0.490333	0.763492	-0.005325
	Zn225	Zn	0.490306	0.264735	-0.005688
	Zn226	Zn	0.740741	0.014716	0.494730
	Zn227	Zn	0.241033	0.014525	0.494053
	N228	N	0.404491	0.978778	0.673380
	N229	N	0.577687	0.049372	0.674460
	N230	N	0.576124	0.978648	0.315101
	N231	N	0.403572	0.050006	0.314014
	N232	N	0.671718	0.426563	0.959990
	N233	N	0.670655	0.600631	0.030156
	N234	N	0.309361	0.601953	0.960935
	N235	N	0.309673	0.425982	0.029726
	N236	N	0.956222	0.694054	0.408263
	N237	N	0.025795	0.695425	0.583139
	N238	N	0.957342	0.332932	0.583537
	N239	N	0.027775	0.333896	0.409129
	N240	N	0.956018	0.428265	0.674992
	N241	N	0.025971	0.602228	0.676958
	N242	N	0.955935	0.599660	0.315841
	N243	N	0.026405	0.425529	0.314073
	N244	N	0.404151	0.693169	0.959439
	N245	N	0.577309	0.693671	0.030229
	N246	N	0.577606	0.334061	0.959375
	N247	N	0.403919	0.334163	0.029970
	N248	N	0.671551	0.980007	0.406670
	N249	N	0.671291	0.049479	0.581975
	N250	N	0.311132	0.979010	0.580196
	N251	N	0.309312	0.049627	0.405934
	N252	N	0.905219	0.478235	0.174675
	N253	N	0.078368	0.549164	0.175831
	N254	N	0.076958	0.478314	0.816491
	N255	N	0.904264	0.549200	0.815770
	N256	N	0.171120	0.927584	0.458682
	N257	N	0.172903	0.102374	0.529467
	N258	N	0.810607	0.102253	0.460237
	N259	N	0.809447	0.926590	0.529174
	N260	N	0.455320	0.194758	0.907001
	N261	N	0.525008	0.194210	0.081093
	N262	N	0.454766	0.833339	0.081648
	N263	N	0.525736	0.833608	0.907796
	N264	N	0.454340	0.926898	0.174869
	N265	N	0.524627	0.100819	0.174389
	N266	N	0.455208	0.100859	0.813967
	N267	N	0.525464	0.926249	0.813576
	N268	N	0.906210	0.193334	0.459911
	N269	N	0.078506	0.193571	0.530892
	N270	N	0.078062	0.834092	0.459250
	N271	N	0.904015	0.834874	0.529622
	N272	N	0.172317	0.479187	0.907824
	N273	N	0.171631	0.548894	0.083217
	N274	N	0.809857	0.479673	0.083432
	N275	N	0.810897	0.548912	0.908500
	O276	O	1.011998	1.012133	-0.207234
	H277	H	1.007399	0.989941	-0.206857
	H278	H	1.021784	1.009557	-0.210138
	O279	O	-0.202827	-0.186184	1.196480
	H280	H	-0.218135	-0.170824	1.210786
	H281	H	-0.202472	-0.183001	1.160570
	O282	O	0.705545	0.659571	0.506885
	H283	H	0.713224	0.665350	0.509349
	H284	H	0.711811	0.662873	0.505436
	O285	O	0.292085	0.318406	0.693435
	H286	H	0.285238	0.339934	0.684610
	H287	H	0.278420	0.314680	0.663796
	O288	O	1.162269	-0.120454	1.078516
	H289	H	1.155782	-0.111991	1.082948
	H290	H	1.161350	-0.110055	1.076758
	O291	O	0.703420	0.477388	0.286942
	H292	H	0.699563	0.465292	0.290468
	H293	H	0.708246	0.476130	0.272178
	O294	O	-0.000578	-0.022310	0.014318
	H295	H	-0.009157	-0.041465	0.010760
	H296	H	0.009589	0.009409	0.007216
	O297	O	0.959132	-0.196314	0.209800
	H298	H	0.948855	-0.205532	0.228403
	H299	H	0.932444	-0.197122	0.211078
	O300	O	0.062847	-0.122209	0.124897
	H301	H	0.068113	-0.140869	0.146602
	H302	H	0.068296	-0.111701	0.136103
	O303	O	0.026105	0.227426	0.026215
	H304	H	0.017938	0.213966	0.011783
	H305	H	0.027733	0.226580	0.021133
	O306	O	0.768030	0.073895	0.057213
	H307	H	0.774825	0.079677	0.057298
	H308	H	0.767665	0.070129	0.037814
	O309	O	0.646174	0.551778	0.386350
	H310	H	0.649480	0.543669	0.394702
	H311	H	0.658030	0.555661	0.367990
	O312	O	0.085475	-0.053082	0.045610
	H313	H	0.081052	-0.056026	0.055758
	H314	H	0.078331	-0.050236	0.054303
	O315	O	0.268673	0.631112	0.517551
	H316	H	0.269491	0.638089	0.525697
	H317	H	0.253001	0.636021	0.525677
	O318	O	1.189363	0.824058	-0.203681
	H319	H	1.189283	0.819599	-0.215555
	H320	H	1.193593	0.817833	-0.158025
	O321	O	0.004988	1.011774	1.131896
	H322	H	-0.002786	0.999603	1.138014
	H323	H	0.011559	1.014419	1.122311
	O324	O	0.949433	0.228044	1.126020
	H325	H	0.947274	0.227150	1.131070
	H326	H	0.947922	0.235074	1.136894
	O327	O	0.274541	0.534124	0.284309
	H328	H	0.273529	0.534485	0.283705
	H329	H	0.266877	0.530648	0.276001
	O330	O	0.519405	0.570303	0.368984
	H331	H	0.519894	0.580479	0.380526
	H332	H	0.514388	0.557497	0.369562
	O333	O	0.638051	0.716064	0.435118
	H334	H	0.632217	0.703369	0.438783
	H335	H	0.636470	0.720099	0.439916
	O336	O	0.647578	0.345249	0.616968
	H337	H	0.631892	0.363594	0.604568
	H338	H	0.636477	0.356840	0.620573
	O339	O	0.284256	0.299294	0.529590
	H340	H	0.287376	0.286488	0.514218
	H341	H	0.290060	0.279085	0.512958
	O342	O	0.070972	1.202803	-0.146148
	H343	H	0.074660	1.196849	-0.146251
	H344	H	0.057493	1.199499	-0.154546
	O345	O	0.660563	0.441029	0.547130
	H346	H	0.666604	0.442776	0.542490
	H347	H	0.673203	0.433976	0.543770
	O348	O	0.456573	0.732298	0.275098
	H349	H	0.447990	0.741894	0.257438
	H350	H	0.457702	0.738392	0.271438
	O351	O	0.164654	0.176019	1.066778
	H352	H	0.182754	0.194721	1.054847
	H353	H	0.136230	0.173870	1.052062
	O354	O	0.936168	-0.036607	0.838671
	H355	H	0.943344	-0.037431	0.835211
	H356	H	0.946127	-0.058913	0.836678
	O357	O	0.696813	0.322631	0.478709
	H358	H	0.694711	0.317310	0.472195
	H359	H	0.706759	0.305957	0.463562
	O360	O	0.515639	0.509017	0.521952
	H361	H	0.516782	0.512824	0.519181
	H362	H	0.512895	0.493977	0.515404
	O363	O	0.340873	0.475304	0.402897
	H364	H	0.357363	0.484596	0.411192
	H365	H	0.341126	0.466902	0.405600
	O366	O	1.188626	-0.002727	0.795904
	H367	H	1.203959	-0.011173	0.797934
	H368	H	1.188132	-0.021789	0.809679
	O369	O	-0.204452	-0.029179	0.947159
	H370	H	-0.214086	-0.023314	0.945908
	H371	H	-0.200510	-0.030350	0.921539
	O372	O	0.106344	0.805200	0.951081
	H373	H	0.097526	0.793424	0.976997
	H374	H	0.125075	0.817603	0.968617
	O375	O	1.013864	-0.197605	-0.222384
	H376	H	1.027851	-0.211908	-0.231381
	H377	H	1.021491	-0.208343	-0.219682
	O378	O	0.904770	0.110831	1.139423
	H379	H	0.909372	0.108065	1.137252
	H380	H	0.926942	0.092438	1.136351
	O381	O	-0.236612	0.897979	-0.234272
	H382	H	-0.240900	0.882387	-0.242941
	H383	H	-0.240740	0.903126	-0.246258
	O384	O	0.014627	0.018820	0.000747
	H385	H	0.015271	0.010770	0.012366
	H386	H	0.014101	0.030511	0.010783
	O387	O	0.158600	1.025000	0.980014
	H388	H	0.152055	1.023985	0.972591
	H389	H	0.156525	1.036716	0.990211
	O390	O	-0.210141	1.121750	0.794621
	H391	H	-0.214519	1.113637	0.780840
	H392	H	-0.185392	1.131955	0.782064
	O393	O	1.185967	0.207888	0.190452
	H394	H	1.185517	0.214150	0.148962
	H395	H	1.179334	0.224155	0.208556
	O396	O	0.302674	0.645521	0.631355
	H397	H	0.306104	0.635154	0.629338
	H398	H	0.312736	0.618823	0.622530
	O399	O	0.625936	0.571854	0.404978
	H400	H	0.622059	0.578877	0.405075
	H401	H	0.627383	0.582017	0.401087
	O402	O	1.517770	0.477122	0.642443
	H403	H	1.522152	0.485752	0.644597
	H404	H	1.502330	0.462752	0.637537
	O405	O	0.430151	0.566382	0.703325
	H406	H	0.452192	0.562430	0.691879
	H407	H	0.429484	0.548795	0.704576
	O408	O	0.851906	1.210705	0.911840
	H409	H	0.839954	1.232346	0.890354
	H410	H	0.842419	1.202949	0.903368
	O411	O	0.521301	0.732757	0.713890
	H412	H	0.500958	0.721391	0.701394
	H413	H	0.521647	0.762624	0.744416
	O414	O	-0.222415	-0.016649	0.208469
	H415	H	-0.233606	-0.018958	0.206284
	H416	H	-0.230295	-0.008359	0.220225
	O417	O	0.398301	0.409125	0.283626
	H418	H	0.407081	0.420213	0.290812
	H419	H	0.405637	0.419153	0.294584
	O420	O	0.864892	0.207668	1.104212
	H421	H	0.874467	0.206200	1.089833
	H422	H	0.874514	0.198780	1.088204
	O423	O	1.210959	1.039787	0.214922
	H424	H	1.193469	1.076087	0.203424
	H425	H	1.246057	1.049075	0.251436
	O426	O	0.280582	0.583451	0.382319
	H427	H	0.283968	0.558333	0.378533
	H428	H	0.267976	0.580601	0.367702
	O429	O	0.461640	0.512649	0.505655
	H430	H	0.462610	0.518603	0.488952
	H431	H	0.468473	0.515734	0.503436
	O432	O	0.869727	0.228980	0.785559
	H433	H	0.864290	0.238499	0.779749
	H434	H	0.865874	0.217567	0.771609
	O435	O	0.460436	0.296070	0.716840
	H436	H	0.429203	0.290812	0.718595
	H437	H	0.438966	0.274316	0.735437
	O438	O	0.519155	0.304888	0.286890
	H439	H	0.526363	0.300196	0.268106
	H440	H	0.537539	0.311301	0.281424
	O441	O	0.743563	0.261501	0.243389
	H442	H	0.747384	0.240858	0.226932
	H443	H	0.761171	0.249429	0.233266
	O444	O	0.534580	0.683952	0.492371
	H445	H	0.529388	0.696465	0.492549
	H446	H	0.532574	0.688781	0.483008
	O447	O	0.945009	-0.183962	0.969749
	H448	H	0.946983	-0.192512	0.977070
	H449	H	0.934657	-0.191254	0.949841
	O450	O	1.699440	0.542146	0.703481
	H451	H	1.693494	0.533492	0.707676
	H452	H	1.713197	0.544624	0.707718
	O453	O	0.285829	0.485334	0.708103
	H454	H	0.278391	0.488228	0.711582
	H455	H	0.289924	0.483498	0.718027
	O456	O	0.132255	1.116682	0.913691
	H457	H	0.126066	1.113157	0.916288
	H458	H	0.125823	1.112185	0.902582
	O459	O	0.386174	0.314275	0.404055
	H460	H	0.395063	0.319631	0.382561
	H461	H	0.403988	0.322193	0.416905
	O462	O	0.586597	0.627894	0.625315
	H463	H	0.574977	0.622676	0.617011
	H464	H	0.585961	0.625553	0.610489
	O465	O	0.430849	0.592563	0.473097
	H466	H	0.424468	0.603697	0.492692
	H467	H	0.427418	0.593098	0.482700
	O468	O	0.284569	0.721153	0.379491
	H469	H	0.281218	0.724458	0.379006
	H470	H	0.287088	0.729528	0.376446
	O471	O	0.845484	0.792786	-0.009337
	H472	H	0.833641	0.781522	-0.014295
	H473	H	0.844457	0.786892	-0.027996
	O474	O	1.691496	0.781734	0.723193
	H475	H	1.674612	0.756183	0.707440
	H476	H	1.681708	0.795582	0.735888
	O477	O	0.633127	0.316168	0.441117
	H478	H	0.663875	0.305654	0.418727
	H479	H	0.621954	0.332772	0.454101
