data_Molecule from HDF5

_cell_length_a		16.288706
_cell_length_b		16.119115
_cell_length_c		16.549495
_cell_angle_alpha	90.284375
_cell_angle_beta	90.047313
_cell_angle_gamma	90.198880
_symmetry_space_group_name_H-M	'P 1'
_symmetry_Int_Tables_number		1

loop_
	_symmetry_equiv_pos_as_xyz
	x,y,z

loop_
	_atom_site_label
	_atom_site_type_symbol
	_atom_site_fract_x
	_atom_site_fract_y
	_atom_site_fract_z
	H0	H	0.388021	0.835321	0.719103
	H1	H	0.598964	0.158907	0.722961
	H2	H	0.597195	0.836606	0.280440
	H3	H	0.386736	0.158948	0.280059
	H4	H	0.714144	0.395021	0.839320
	H5	H	0.716059	0.602829	0.158938
	H6	H	0.274746	0.602655	0.842422
	H7	H	0.273048	0.393039	0.157994
	H8	H	0.832286	0.713217	0.400489
	H9	H	0.156663	0.717643	0.599267
	H10	H	0.833065	0.283182	0.599261
	H11	H	0.158186	0.282406	0.399656
	H12	H	0.837009	0.392815	0.720903
	H13	H	0.155380	0.610305	0.721090
	H14	H	0.835897	0.604728	0.279308
	H15	H	0.155530	0.392443	0.277799
	H16	H	0.394393	0.715536	0.840975
	H17	H	0.596750	0.717479	0.159672
	H18	H	0.593368	0.280432	0.839594
	H19	H	0.393802	0.282221	0.160680
	H20	H	0.709944	0.835101	0.399751
	H21	H	0.710764	0.161688	0.603809
	H22	H	0.277622	0.834019	0.598739
	H23	H	0.278052	0.161933	0.399713
	H24	H	0.893996	0.337516	0.216234
	H25	H	0.101616	0.661737	0.220319
	H26	H	0.102287	0.339479	0.776917
	H27	H	0.892322	0.663068	0.780657
	H28	H	0.214848	0.892524	0.341420
	H29	H	0.215111	0.103172	0.659600
	H30	H	0.773753	0.102075	0.344130
	H31	H	0.774664	0.894239	0.660238
	H32	H	0.332014	0.214791	0.900097
	H33	H	0.657006	0.213052	0.099748
	H34	H	0.332226	0.780765	0.099101
	H35	H	0.658194	0.784090	0.901148
	H36	H	0.334049	0.889171	0.221158
	H37	H	0.652531	0.104620	0.222541
	H38	H	0.334366	0.102658	0.780415
	H39	H	0.652974	0.887836	0.777148
	H40	H	0.895869	0.213274	0.341283
	H41	H	0.098491	0.219818	0.659664
	H42	H	0.093475	0.780632	0.339917
	H43	H	0.894509	0.782409	0.660584
	H44	H	0.210260	0.335257	0.898377
	H45	H	0.212134	0.663300	0.099905
	H46	H	0.784244	0.334845	0.093672
	H47	H	0.779596	0.663973	0.897834
	H48	H	0.407049	0.112334	0.589518
	H49	H	0.582982	0.881846	0.591869
	H50	H	0.579397	0.112685	0.413165
	H51	H	0.391952	0.875939	0.405145
	H52	H	0.595848	0.406511	0.115597
	H53	H	0.590649	0.588963	0.885915
	H54	H	0.393429	0.579862	0.114023
	H55	H	0.399299	0.409995	0.886574
	H56	H	0.113590	0.591547	0.402307
	H57	H	0.878619	0.594106	0.589394
	H58	H	0.109828	0.412936	0.587709
	H59	H	0.882678	0.410669	0.413106
	H60	H	0.110584	0.414383	0.590852
	H61	H	0.882941	0.582894	0.589033
	H62	H	0.110577	0.594602	0.415911
	H63	H	0.880715	0.413723	0.401114
	H64	H	0.416976	0.584122	0.108260
	H65	H	0.586819	0.589028	0.887064
	H66	H	0.590231	0.414175	0.110822
	H67	H	0.407467	0.409159	0.888495
	H68	H	0.584879	0.114275	0.413321
	H69	H	0.581697	0.882483	0.590045
	H70	H	0.402930	0.115372	0.592379
	H71	H	0.416718	0.882631	0.400763
	H72	H	0.899937	0.619787	0.092940
	H73	H	0.083860	0.380078	0.099846
	H74	H	0.077532	0.614624	0.907392
	H75	H	0.910792	0.387582	0.913900
	H76	H	0.090982	0.912328	0.613757
	H77	H	0.091230	0.084238	0.387283
	H78	H	0.901145	0.094580	0.617729
	H79	H	0.908289	0.914637	0.392252
	H80	H	0.604963	0.079398	0.914931
	H81	H	0.377225	0.093129	0.090977
	H82	H	0.610099	0.908989	0.094466
	H83	H	0.380259	0.910551	0.907952
	H84	H	0.608350	0.909476	0.089762
	H85	H	0.379751	0.084245	0.090687
	H86	H	0.611689	0.085400	0.901182
	H87	H	0.377668	0.906289	0.906197
	H88	H	0.899902	0.087073	0.615720
	H89	H	0.080310	0.088841	0.390005
	H90	H	0.081965	0.913107	0.610805
	H91	H	0.904390	0.897514	0.384884
	H92	H	0.086805	0.614016	0.918690
	H93	H	0.075130	0.387498	0.086191
	H94	H	0.911284	0.618561	0.098139
	H95	H	0.900368	0.382621	0.908462
	H96	H	0.407924	0.113686	0.595491
	H97	H	0.583554	0.880796	0.589424
	H98	H	0.581598	0.115455	0.408595
	H99	H	0.406180	0.887697	0.423086
	H100	H	0.585402	0.404630	0.113116
	H101	H	0.588157	0.592072	0.885458
	H102	H	0.403643	0.602034	0.118471
	H103	H	0.403581	0.402648	0.885474
	H104	H	0.107485	0.581506	0.410668
	H105	H	0.878660	0.586915	0.598758
	H106	H	0.110994	0.410097	0.590194
	H107	H	0.877983	0.401990	0.405411
	H108	H	0.909400	0.615053	0.086550
	H109	H	0.091639	0.382149	0.084271
	H110	H	0.091438	0.619507	0.905988
	H111	H	0.911438	0.384606	0.901359
	H112	H	0.084532	0.904186	0.614112
	H113	H	0.088880	0.095555	0.384642
	H114	H	0.907326	0.090166	0.614411
	H115	H	0.891459	0.910765	0.385350
	H116	H	0.610930	0.094757	0.913508
	H117	H	0.376292	0.088096	0.098023
	H118	H	0.608136	0.913360	0.093346
	H119	H	0.379378	0.906711	0.911529
	C120	C	0.373714	0.006282	0.621949
	C121	C	0.614378	0.988970	0.622399
	C122	C	0.614111	0.006975	0.380115
	C123	C	0.373209	0.989259	0.379171
	C124	C	0.619184	0.376612	0.007855
	C125	C	0.618905	0.621510	0.991323
	C126	C	0.374071	0.619744	0.008977
	C127	C	0.372515	0.376287	0.991730
	C128	C	0.003952	0.620071	0.379278
	C129	C	0.986427	0.621475	0.622312
	C130	C	0.004325	0.379729	0.620305
	C131	C	0.987235	0.377371	0.377006
	C132	C	0.876386	0.509175	0.120517
	C133	C	0.116171	0.490831	0.121298
	C134	C	0.116220	0.508280	0.879134
	C135	C	0.876265	0.492410	0.877908
	C136	C	0.115978	0.877570	0.507906
	C137	C	0.118155	0.121527	0.492174
	C138	C	0.872776	0.120376	0.510511
	C139	C	0.871308	0.876509	0.492644
	C140	C	0.502342	0.117897	0.880082
	C141	C	0.484455	0.120175	0.123292
	C142	C	0.502489	0.877560	0.122316
	C143	C	0.485682	0.875963	0.878036
	C144	C	0.370786	0.883819	0.679453
	C145	C	0.616801	0.110863	0.682551
	C146	C	0.615642	0.885088	0.320748
	C147	C	0.369910	0.110869	0.319933
	C148	C	0.675024	0.376191	0.887236
	C149	C	0.676462	0.621605	0.111445
	C150	C	0.314999	0.620983	0.889502
	C151	C	0.313427	0.375205	0.110947
	C152	C	0.881481	0.676011	0.380418
	C153	C	0.108203	0.679956	0.620339
	C154	C	0.882305	0.321302	0.619488
	C155	C	0.109093	0.320059	0.378730
	C156	C	0.884360	0.375698	0.680365
	C157	C	0.107583	0.626201	0.680746
	C158	C	0.883377	0.622004	0.319984
	C159	C	0.107955	0.375066	0.318347
	C160	C	0.374393	0.677248	0.888768
	C161	C	0.617544	0.679091	0.111728
	C162	C	0.615221	0.318977	0.887481
	C163	C	0.373585	0.319837	0.112280
	C164	C	0.671574	0.884203	0.380215
	C165	C	0.672223	0.112301	0.623163
	C166	C	0.315634	0.883356	0.619724
	C167	C	0.315693	0.112416	0.379647
	C168	C	0.875407	0.386000	0.176965
	C169	C	0.119349	0.613164	0.180492
	C170	C	0.119154	0.387201	0.817942
	C171	C	0.874484	0.614673	0.820029
	C172	C	0.174470	0.875384	0.388391
	C173	C	0.175966	0.122140	0.611883
	C174	C	0.814198	0.120377	0.391117
	C175	C	0.813811	0.875546	0.612290
	C176	C	0.380717	0.176026	0.880519
	C177	C	0.607316	0.176184	0.121069
	C178	C	0.381072	0.818820	0.120099
	C179	C	0.608346	0.820006	0.879907
	C180	C	0.381785	0.873296	0.180700
	C181	C	0.605337	0.121864	0.181807
	C182	C	0.381872	0.120428	0.820725
	C183	C	0.605992	0.872592	0.818499
	C184	C	0.874755	0.175786	0.389680
	C185	C	0.117981	0.180230	0.612085
	C186	C	0.114458	0.819418	0.387699
	C187	C	0.873756	0.819980	0.612700
	C188	C	0.172863	0.384966	0.878734
	C189	C	0.174234	0.613975	0.120581
	C190	C	0.821073	0.384661	0.116057
	C191	C	0.818394	0.615015	0.878517
	C192	C	0.398848	0.091615	0.599137
	C193	C	0.589677	0.903819	0.597707
	C194	C	0.589294	0.092050	0.404623
	C195	C	0.397928	0.904222	0.402745
	C196	C	0.596902	0.401161	0.091440
	C197	C	0.595366	0.597101	0.907772
	C198	C	0.397701	0.595671	0.091963
	C199	C	0.396467	0.400164	0.908559
	C200	C	0.088645	0.596088	0.402825
	C201	C	0.902109	0.595590	0.599144
	C202	C	0.088526	0.405376	0.596430
	C203	C	0.902500	0.401687	0.399908
	C204	C	0.899980	0.595302	0.098835
	C205	C	0.091040	0.405537	0.097219
	C206	C	0.092204	0.593782	0.903500
	C207	C	0.900629	0.406959	0.901103
	C208	C	0.092622	0.902520	0.591429
	C209	C	0.093952	0.096825	0.408935
	C210	C	0.895931	0.097347	0.594133
	C211	C	0.894520	0.900554	0.409089
	C212	C	0.587094	0.093592	0.903189
	C213	C	0.399829	0.095749	0.100061
	C214	C	0.587218	0.903552	0.099193
	C215	C	0.400995	0.900695	0.901730
	Zn216	Zn	0.494176	-0.003324	0.750590
	Zn217	Zn	0.493010	-0.002098	0.251387
	Zn218	Zn	0.748845	0.499926	-0.001529
	Zn219	Zn	0.243630	0.498440	0.000175
	Zn220	Zn	-0.006044	0.748156	0.500063
	Zn221	Zn	-0.004644	0.250156	0.500297
	Zn222	Zn	-0.003346	0.501164	0.749799
	Zn223	Zn	-0.003755	0.500337	0.249977
	Zn224	Zn	0.495145	0.749745	-0.000066
	Zn225	Zn	0.494508	0.247773	0.000659
	Zn226	Zn	0.742311	-0.001489	0.501939
	Zn227	Zn	0.246446	-0.001732	0.499865
	N228	N	0.406248	0.961273	0.680838
	N229	N	0.581865	0.033136	0.682336
	N230	N	0.580602	0.962547	0.320632
	N231	N	0.404903	0.033340	0.319575
	N232	N	0.677840	0.410998	0.963205
	N233	N	0.677514	0.586926	0.035477
	N234	N	0.314546	0.585778	0.964963
	N235	N	0.312635	0.409612	0.035020
	N236	N	0.957462	0.674909	0.416753
	N237	N	0.032096	0.677148	0.584680
	N238	N	0.957982	0.323602	0.582957
	N239	N	0.032944	0.321378	0.414603
	N240	N	0.961180	0.411471	0.680958
	N241	N	0.030836	0.590471	0.682143
	N242	N	0.960630	0.588136	0.318995
	N243	N	0.031165	0.409944	0.317176
	N244	N	0.410628	0.676349	0.963766
	N245	N	0.582767	0.679431	0.036085
	N246	N	0.581507	0.318617	0.963639
	N247	N	0.409601	0.320259	0.037319
	N248	N	0.670769	0.961216	0.416283
	N249	N	0.671026	0.035482	0.586609
	N250	N	0.317351	0.960447	0.584617
	N251	N	0.317526	0.035857	0.415786
	N252	N	0.908831	0.464435	0.179969
	N253	N	0.084246	0.535418	0.181134
	N254	N	0.084831	0.465128	0.818040
	N255	N	0.909802	0.537227	0.819544
	N256	N	0.175418	0.910897	0.464190
	N257	N	0.176156	0.086380	0.536297
	N258	N	0.812653	0.086939	0.467310
	N259	N	0.812329	0.910030	0.536633
	N260	N	0.456539	0.174320	0.917063
	N261	N	0.531107	0.175486	0.085594
	N262	N	0.457197	0.821658	0.084485
	N263	N	0.532486	0.822043	0.916280
	N264	N	0.458526	0.909130	0.182142
	N265	N	0.527760	0.088062	0.183573
	N266	N	0.458405	0.084897	0.820388
	N267	N	0.528540	0.906541	0.817085
	N268	N	0.910537	0.176054	0.464944
	N269	N	0.082955	0.180142	0.536626
	N270	N	0.078722	0.820881	0.462815
	N271	N	0.908914	0.820446	0.537069
	N272	N	0.171232	0.461352	0.915907
	N273	N	0.172431	0.536924	0.084464
	N274	N	0.821538	0.462156	0.081967
	N275	N	0.819462	0.537995	0.913714
	O276	O	0.637467	0.361666	0.512387
	H277	H	0.634558	0.357624	0.497611
	H278	H	0.652699	0.351875	0.510694
	O279	O	0.657936	0.654475	0.523769
	H280	H	0.650023	0.652202	0.515576
	H281	H	0.668688	0.656265	0.508943
	O282	O	0.406207	0.308052	0.688765
	H283	H	0.424415	0.305523	0.667699
	H284	H	0.426589	0.307445	0.680981
	O285	O	0.878649	-0.154604	0.159502
	H286	H	0.878623	-0.164654	0.170707
	H287	H	0.890607	-0.161614	0.159415
	O288	O	-0.048313	0.190340	1.029050
	H289	H	-0.037073	0.193488	1.020229
	H290	H	-0.060969	0.180121	1.031381
	O291	O	0.576725	0.459355	0.585928
	H292	H	0.579358	0.461857	0.569527
	H293	H	0.581534	0.454900	0.580415
	O294	O	0.501923	0.654377	0.329640
	H295	H	0.498394	0.652431	0.329365
	H296	H	0.496951	0.661115	0.335643
	O297	O	0.997492	1.133946	0.866599
	H298	H	0.993602	1.148805	0.869093
	H299	H	1.004377	1.126096	0.865653
	O300	O	-0.100837	-0.140681	0.020446
	H301	H	-0.105423	-0.136834	0.030221
	H302	H	-0.092342	-0.132687	0.002176
	O303	O	0.470563	0.407404	0.538024
	H304	H	0.466132	0.387708	0.528798
	H305	H	0.481548	0.411727	0.532832
	O306	O	1.029472	-0.060446	-0.031720
	H307	H	1.014358	-0.049386	-0.026570
	H308	H	1.048692	-0.053356	-0.032065
	O309	O	0.590713	0.400020	0.335372
	H310	H	0.597593	0.379109	0.331145
	H311	H	0.573399	0.404026	0.332584
	O312	O	0.924384	0.977492	0.169673
	H313	H	0.926805	0.963391	0.161257
	H314	H	0.935701	0.976171	0.163361
	O315	O	0.290418	0.364109	0.535644
	H316	H	0.277981	0.346440	0.524754
	H317	H	0.289384	0.357184	0.567501
	O318	O	0.410362	0.559963	0.587819
	H319	H	0.404836	0.573860	0.586327
	H320	H	0.417762	0.549974	0.593661
	O321	O	1.121149	0.119126	0.989822
	H322	H	1.114382	0.127985	0.979396
	H323	H	1.124919	0.127063	0.988966
	O324	O	0.009607	0.085756	1.034472
	H325	H	0.017544	0.084450	1.033614
	H326	H	0.016089	0.081984	1.038066
	O327	O	0.476647	0.375960	0.352485
	H328	H	0.473950	0.385279	0.327563
	H329	H	0.466058	0.368317	0.356116
	O330	O	0.607551	0.550037	0.402700
	H331	H	0.609232	0.542998	0.389648
	H332	H	0.596952	0.548085	0.391545
	O333	O	1.061098	0.952164	0.982210
	H334	H	1.070304	0.947341	0.984653
	H335	H	1.044487	0.931391	0.990262
	O336	O	0.628012	0.560169	0.669098
	H337	H	0.608439	0.560111	0.672103
	H338	H	0.633050	0.562674	0.648255
	O339	O	0.923589	0.056903	0.908285
	H340	H	0.903363	0.063754	0.902069
	H341	H	0.928822	0.058319	0.907755
	O342	O	0.069657	1.132341	1.176728
	H343	H	0.060083	1.149660	1.179733
	H344	H	0.078738	1.133991	1.158862
	O345	O	0.534568	0.295081	0.411508
	H346	H	0.541877	0.291437	0.402884
	H347	H	0.542911	0.301212	0.405689
	O348	O	0.628985	0.345139	0.291164
	H349	H	0.638217	0.320045	0.276794
	H350	H	0.619906	0.348789	0.305912
	O351	O	0.125295	-0.116076	-0.064418
	H352	H	0.129633	-0.113569	-0.077258
	H353	H	0.130076	-0.112287	-0.066927
	O354	O	0.902223	0.919080	0.102903
	H355	H	0.900980	0.919585	0.102056
	H356	H	0.894963	0.913882	0.114352
	O357	O	0.108587	1.117845	0.084505
	H358	H	0.101054	1.107930	0.071579
	H359	H	0.109112	1.131934	0.088902
	O360	O	0.464260	0.400308	0.612249
	H361	H	0.466770	0.415004	0.616162
	H362	H	0.468413	0.407181	0.615255
	O363	O	0.590003	0.470321	0.638260
	H364	H	0.603598	0.470061	0.641700
	H365	H	0.591345	0.484752	0.631169
	O366	O	0.587442	0.414474	0.322786
	H367	H	0.560687	0.418099	0.322075
	H368	H	0.604086	0.405242	0.299624
	O369	O	0.416970	0.509877	0.519900
	H370	H	0.416747	0.507686	0.541324
	H371	H	0.418617	0.508631	0.514421
	O372	O	0.420485	0.623709	0.323587
	H373	H	0.412073	0.615368	0.319717
	H374	H	0.419709	0.619482	0.316103
	O375	O	0.591609	0.646044	0.700678
	H376	H	0.603581	0.658299	0.719794
	H377	H	0.587312	0.655110	0.685109
	O378	O	0.302976	0.377890	0.697820
	H379	H	0.312517	0.379699	0.712300
	H380	H	0.309094	0.365299	0.700512
	O381	O	0.307254	0.594451	0.512305
	H382	H	0.318946	0.588754	0.526116
	H383	H	0.301589	0.574312	0.530947
	O384	O	-0.175216	1.030290	0.976058
	H385	H	-0.181621	1.031769	0.969114
	H386	H	-0.181330	1.027027	0.984114
	O387	O	1.027005	0.865918	-0.035511
	H388	H	1.039928	0.876583	-0.033618
	H389	H	1.026305	0.875462	-0.051249
	O390	O	0.340739	0.633265	0.451797
	H391	H	0.339214	0.622040	0.465567
	H392	H	0.345770	0.629617	0.459749
	O393	O	0.975481	-0.152760	0.937018
	H394	H	0.973007	-0.160491	0.942248
	H395	H	0.974862	-0.146778	0.939315
	O396	O	0.128514	1.144742	0.998742
	H397	H	0.138728	1.150114	1.000841
	H398	H	0.134617	1.131177	0.992881
	O399	O	0.495094	0.645352	0.582053
	H400	H	0.493020	0.643276	0.580855
	H401	H	0.500936	0.641482	0.553607
	O402	O	0.906320	0.125710	1.079674
	H403	H	0.926212	0.136608	1.072997
	H404	H	0.914019	0.104556	1.067119
	O405	O	-0.138706	0.167380	-0.181305
	H406	H	-0.149970	0.149362	-0.182904
	H407	H	-0.123718	0.167005	-0.181361
	O408	O	0.821904	1.031482	0.997720
	H409	H	0.820274	1.033984	1.000150
	H410	H	0.816860	1.043793	0.975213
	O411	O	1.114536	1.056393	0.105610
	H412	H	1.135551	1.044255	0.110907
	H413	H	1.117568	1.050402	0.094841
	O414	O	0.089998	-0.072648	1.118402
	H415	H	0.096476	-0.067160	1.117113
	H416	H	0.088904	-0.050797	1.110370
	O417	O	0.550304	0.344984	0.639374
	H418	H	0.544646	0.347465	0.628806
	H419	H	0.567657	0.359229	0.636387
	O420	O	0.003879	0.905420	0.028975
	H421	H	-0.007493	0.896456	0.041903
	H422	H	-0.005269	0.895612	0.013069
	O423	O	1.560787	0.676773	-0.580746
	H424	H	1.555283	0.652129	-0.593498
	H425	H	1.551413	0.691986	-0.590389
	O426	O	-0.081276	0.035190	0.802904
	H427	H	-0.079301	0.030867	0.806452
	H428	H	-0.087429	0.031943	0.800202
	O429	O	0.389129	0.593019	0.289009
	H430	H	0.387095	0.608863	0.306295
	H431	H	0.377986	0.600703	0.270414
