data_Molecule from HDF5

_cell_length_a		16.178757
_cell_length_b		16.282089
_cell_length_c		16.203778
_cell_angle_alpha	89.847774
_cell_angle_beta	90.144540
_cell_angle_gamma	89.975221
_symmetry_space_group_name_H-M	'P 1'
_symmetry_Int_Tables_number		1

loop_
	_symmetry_equiv_pos_as_xyz
	x,y,z

loop_
	_atom_site_label
	_atom_site_type_symbol
	_atom_site_fract_x
	_atom_site_fract_y
	_atom_site_fract_z
	H0	H	0.404242	0.832843	0.717947
	H1	H	0.599972	0.161750	0.717987
	H2	H	0.599818	0.833588	0.292373
	H3	H	0.404203	0.161580	0.288814
	H4	H	0.716795	0.400537	0.840584
	H5	H	0.716645	0.594146	0.170171
	H6	H	0.289984	0.595262	0.840726
	H7	H	0.291790	0.398971	0.169317
	H8	H	0.838117	0.710549	0.405472
	H9	H	0.166835	0.711475	0.604963
	H10	H	0.838183	0.283365	0.604981
	H11	H	0.167384	0.282609	0.407854
	H12	H	0.838282	0.399892	0.718267
	H13	H	0.168654	0.594052	0.716434
	H14	H	0.838117	0.595252	0.291632
	H15	H	0.168634	0.399815	0.293362
	H16	H	0.402002	0.712373	0.841793
	H17	H	0.604275	0.711421	0.169062
	H18	H	0.603269	0.283043	0.840627
	H19	H	0.406801	0.282320	0.168850
	H20	H	0.716848	0.833914	0.406781
	H21	H	0.716769	0.161675	0.602615
	H22	H	0.287467	0.833907	0.602817
	H23	H	0.287313	0.162338	0.404863
	H24	H	0.907298	0.333696	0.218683
	H25	H	0.101184	0.662504	0.218471
	H26	H	0.100727	0.333501	0.792625
	H27	H	0.905552	0.661691	0.790793
	H28	H	0.215587	0.900073	0.340203
	H29	H	0.216694	0.095284	0.669500
	H30	H	0.790031	0.094705	0.339839
	H31	H	0.790914	0.901009	0.669900
	H32	H	0.339390	0.211654	0.904089
	H33	H	0.667968	0.210355	0.104667
	H34	H	0.338885	0.782354	0.103186
	H35	H	0.668136	0.783542	0.907662
	H36	H	0.338277	0.898133	0.218214
	H37	H	0.668080	0.093109	0.217413
	H38	H	0.337694	0.093642	0.791959
	H39	H	0.667723	0.898347	0.790836
	H40	H	0.901569	0.213661	0.341975
	H41	H	0.102014	0.209519	0.669966
	H42	H	0.100193	0.783615	0.340364
	H43	H	0.904140	0.782668	0.669594
	H44	H	0.216391	0.332448	0.907864
	H45	H	0.218107	0.661877	0.102207
	H46	H	0.792319	0.332823	0.102220
	H47	H	0.788905	0.661722	0.907240
	H48	H	0.405842	0.113810	0.596091
	H49	H	0.589021	0.881724	0.600647
	H50	H	0.601046	0.115136	0.413274
	H51	H	0.401915	0.877985	0.407253
	H52	H	0.598947	0.404253	0.122193
	H53	H	0.598642	0.593885	0.885407
	H54	H	0.410144	0.583403	0.120984
	H55	H	0.417551	0.399928	0.887597
	H56	H	0.119784	0.591995	0.416199
	H57	H	0.884732	0.591445	0.597135
	H58	H	0.119663	0.408166	0.601386
	H59	H	0.885474	0.399660	0.417382
	H60	H	0.123996	0.397306	0.603390
	H61	H	0.885312	0.589250	0.596997
	H62	H	0.121064	0.587694	0.412444
	H63	H	0.887689	0.410496	0.413865
	H64	H	0.417459	0.593212	0.121574
	H65	H	0.597536	0.587401	0.888176
	H66	H	0.594656	0.402036	0.121741
	H67	H	0.403956	0.400190	0.883674
	H68	H	0.595111	0.116547	0.405946
	H69	H	0.598845	0.882442	0.591273
	H70	H	0.408167	0.114897	0.601150
	H71	H	0.415384	0.882532	0.408151
	H72	H	0.907661	0.616547	0.100942
	H73	H	0.095523	0.383696	0.094544
	H74	H	0.101174	0.615119	0.914115
	H75	H	0.916452	0.382240	0.910327
	H76	H	0.092520	0.897390	0.623324
	H77	H	0.091469	0.092472	0.388103
	H78	H	0.915439	0.093785	0.622097
	H79	H	0.919183	0.896168	0.387983
	H80	H	0.621635	0.086614	0.909297
	H81	H	0.384820	0.087285	0.101108
	H82	H	0.618747	0.904882	0.093645
	H83	H	0.383995	0.902503	0.907240
	H84	H	0.621255	0.905508	0.103574
	H85	H	0.385098	0.095646	0.094906
	H86	H	0.622305	0.093109	0.909262
	H87	H	0.385166	0.899423	0.914402
	H88	H	0.903289	0.094018	0.626426
	H89	H	0.096068	0.091968	0.387281
	H90	H	0.101697	0.903880	0.624331
	H91	H	0.898888	0.897550	0.382952
	H92	H	0.098864	0.615953	0.905180
	H93	H	0.103382	0.378765	0.100643
	H94	H	0.912859	0.614300	0.099194
	H95	H	0.906845	0.381306	0.917925
	H96	H	0.411117	0.114047	0.596975
	H97	H	0.601020	0.877424	0.604240
	H98	H	0.591422	0.112247	0.414158
	H99	H	0.407273	0.883015	0.419143
	H100	H	0.597966	0.399705	0.123734
	H101	H	0.592429	0.591181	0.888469
	H102	H	0.405682	0.593264	0.125943
	H103	H	0.410185	0.411102	0.888915
	H104	H	0.122289	0.592896	0.410683
	H105	H	0.884532	0.589346	0.599485
	H106	H	0.120326	0.399940	0.593580
	H107	H	0.883046	0.402720	0.405697
	H108	H	0.907452	0.614982	0.095725
	H109	H	0.093005	0.381075	0.104018
	H110	H	0.092239	0.613129	0.911056
	H111	H	0.906177	0.378307	0.906032
	H112	H	0.092041	0.908502	0.619353
	H113	H	0.093418	0.088313	0.388155
	H114	H	0.908763	0.083775	0.620149
	H115	H	0.909471	0.914446	0.390058
	H116	H	0.619753	0.090052	0.915183
	H117	H	0.387912	0.087210	0.092238
	H118	H	0.623084	0.897222	0.098275
	H119	H	0.386743	0.907399	0.913058
	C120	C	0.380432	0.005803	0.626236
	C121	C	0.624326	0.989095	0.626627
	C122	C	0.624067	0.006258	0.383345
	C123	C	0.379650	0.989448	0.382154
	C124	C	0.625439	0.374468	0.013896
	C125	C	0.624920	0.618539	0.996521
	C126	C	0.382149	0.618338	0.014026
	C127	C	0.382407	0.375011	0.995540
	C128	C	0.011458	0.618959	0.384260
	C129	C	0.994155	0.618311	0.626370
	C130	C	0.012072	0.374528	0.627591
	C131	C	0.994349	0.375502	0.384148
	C132	C	0.881745	0.506568	0.126971
	C133	C	0.125560	0.489583	0.127440
	C134	C	0.125391	0.505852	0.883081
	C135	C	0.881497	0.489298	0.883302
	C136	C	0.123798	0.875695	0.513203
	C137	C	0.122903	0.118547	0.496645
	C138	C	0.880754	0.118708	0.514140
	C139	C	0.881125	0.874949	0.496089
	C140	C	0.511999	0.118170	0.882904
	C141	C	0.494650	0.117706	0.125028
	C142	C	0.511845	0.874569	0.126536
	C143	C	0.494542	0.875143	0.883256
	C144	C	0.383437	0.882129	0.680766
	C145	C	0.620897	0.112649	0.680710
	C146	C	0.620632	0.882371	0.329702
	C147	C	0.382976	0.112868	0.326735
	C148	C	0.679768	0.378916	0.889807
	C149	C	0.679434	0.614888	0.120768
	C150	C	0.327442	0.615576	0.889927
	C151	C	0.328882	0.378069	0.120081
	C152	C	0.887300	0.672861	0.386051
	C153	C	0.117941	0.673429	0.624313
	C154	C	0.887614	0.320721	0.625046
	C155	C	0.118376	0.320553	0.387185
	C156	C	0.887638	0.378637	0.681392
	C157	C	0.118683	0.615055	0.680042
	C158	C	0.887427	0.615605	0.329067
	C159	C	0.118954	0.378885	0.330390
	C160	C	0.383280	0.673892	0.890612
	C161	C	0.623611	0.673414	0.120049
	C162	C	0.623174	0.320690	0.889741
	C163	C	0.385759	0.319963	0.119633
	C164	C	0.679173	0.882895	0.386202
	C165	C	0.678768	0.112720	0.623251
	C166	C	0.325742	0.882376	0.623252
	C167	C	0.325099	0.113107	0.384492
	C168	C	0.885658	0.382791	0.181724
	C169	C	0.122686	0.613270	0.181554
	C170	C	0.121944	0.382190	0.829457
	C171	C	0.884685	0.612773	0.828470
	C172	C	0.178095	0.879370	0.389355
	C173	C	0.178439	0.115435	0.620573
	C174	C	0.826672	0.115679	0.389492
	C175	C	0.827290	0.879090	0.620400
	C176	C	0.388215	0.173555	0.884634
	C177	C	0.618893	0.172257	0.123744
	C178	C	0.387825	0.820026	0.123867
	C179	C	0.618609	0.820692	0.886511
	C180	C	0.387683	0.877584	0.180915
	C181	C	0.618935	0.114275	0.180337
	C182	C	0.387243	0.114839	0.828888
	C183	C	0.618685	0.877986	0.828713
	C184	C	0.882203	0.174800	0.390508
	C185	C	0.121213	0.172053	0.620836
	C186	C	0.121051	0.821238	0.389647
	C187	C	0.883654	0.820608	0.620405
	C188	C	0.179321	0.381940	0.887023
	C189	C	0.180918	0.612950	0.123938
	C190	C	0.828727	0.382259	0.123611
	C191	C	0.827002	0.612825	0.886533
	C192	C	0.402007	0.092009	0.604523
	C193	C	0.602727	0.902701	0.605122
	C194	C	0.602037	0.092330	0.404545
	C195	C	0.401633	0.903560	0.404741
	C196	C	0.603515	0.395675	0.100390
	C197	C	0.602738	0.597100	0.909792
	C198	C	0.404525	0.596484	0.100552
	C199	C	0.403989	0.397172	0.909155
	C200	C	0.098587	0.597448	0.406582
	C201	C	0.907267	0.596302	0.604474
	C202	C	0.098699	0.395557	0.605855
	C203	C	0.907778	0.397689	0.405945
	C204	C	0.902821	0.592905	0.104920
	C205	C	0.103770	0.403455	0.105985
	C206	C	0.103887	0.592433	0.903893
	C207	C	0.903265	0.402928	0.905103
	C208	C	0.102015	0.897031	0.600027
	C209	C	0.100348	0.097137	0.410245
	C210	C	0.902673	0.096921	0.600442
	C211	C	0.902899	0.896288	0.409422
	C212	C	0.598730	0.096254	0.904742
	C213	C	0.408146	0.096323	0.102744
	C214	C	0.598481	0.896217	0.104850
	C215	C	0.407689	0.896828	0.905031
	Zn216	Zn	0.502539	-0.003048	0.755382
	Zn217	Zn	0.502605	-0.002841	0.254013
	Zn218	Zn	0.752808	0.497432	0.005334
	Zn219	Zn	0.254112	0.497186	0.004963
	Zn220	Zn	0.002541	0.746538	0.505235
	Zn221	Zn	0.002398	0.247012	0.505783
	Zn222	Zn	0.003726	0.497230	0.753955
	Zn223	Zn	0.003460	0.498148	0.256163
	Zn224	Zn	0.503176	0.746321	0.005479
	Zn225	Zn	0.504087	0.246308	0.004119
	Zn226	Zn	0.752639	-0.002625	0.504516
	Zn227	Zn	0.251437	-0.001765	0.504830
	N228	N	0.416877	0.959843	0.682718
	N229	N	0.587690	0.034705	0.682845
	N230	N	0.587216	0.960135	0.327529
	N231	N	0.416088	0.034944	0.324936
	N232	N	0.681427	0.411624	0.967966
	N233	N	0.680512	0.581645	0.042731
	N234	N	0.326609	0.581576	0.967668
	N235	N	0.326442	0.411661	0.042108
	N236	N	0.965506	0.674817	0.419796
	N237	N	0.039364	0.675562	0.591461
	N238	N	0.966002	0.317929	0.592284
	N239	N	0.039984	0.318459	0.419913
	N240	N	0.965937	0.411303	0.683173
	N241	N	0.040728	0.581438	0.681178
	N242	N	0.965858	0.582922	0.328018
	N243	N	0.040890	0.412339	0.328318
	N244	N	0.416630	0.675606	0.968821
	N245	N	0.590401	0.675829	0.041732
	N246	N	0.590212	0.317867	0.967864
	N247	N	0.418272	0.318016	0.041275
	N248	N	0.681107	0.960687	0.418986
	N249	N	0.680944	0.034811	0.590448
	N250	N	0.323631	0.960211	0.590265
	N251	N	0.322896	0.035383	0.417999
	N252	N	0.917858	0.461003	0.184085
	N253	N	0.089281	0.535627	0.183899
	N254	N	0.089186	0.460173	0.826836
	N255	N	0.917954	0.534883	0.826316
	N256	N	0.179907	0.912499	0.467399
	N257	N	0.179630	0.082882	0.542341
	N258	N	0.825667	0.081560	0.467271
	N259	N	0.825416	0.912041	0.542095
	N260	N	0.466691	0.175576	0.917498
	N261	N	0.540634	0.174448	0.090243
	N262	N	0.466153	0.817834	0.091126
	N263	N	0.540336	0.818809	0.919628
	N264	N	0.465830	0.910828	0.182766
	N265	N	0.540819	0.080999	0.181235
	N266	N	0.465372	0.081304	0.827586
	N267	N	0.540404	0.911199	0.826613
	N268	N	0.915243	0.176886	0.468782
	N269	N	0.087415	0.174397	0.542800
	N270	N	0.087895	0.819050	0.467719
	N271	N	0.916453	0.817945	0.542202
	N272	N	0.181395	0.459862	0.919861
	N273	N	0.182888	0.535015	0.091008
	N274	N	0.826243	0.460158	0.090235
	N275	N	0.824831	0.534990	0.919629
	O276	O	0.490861	0.521103	0.524789
	H277	H	0.486095	0.514139	0.527988
	H278	H	0.486919	0.518914	0.516600
	O279	O	0.042009	0.097516	0.022391
	H280	H	0.031870	0.099044	0.028007
	H281	H	0.046205	0.106074	0.026589
	O282	O	0.469534	0.530595	0.533109
	H283	H	0.465966	0.526612	0.535832
	H284	H	0.457966	0.540627	0.526924
	O285	O	0.464127	0.546825	0.511510
	H286	H	0.464653	0.542816	0.514777
	H287	H	0.463478	0.552795	0.516069
	O288	O	1.037303	0.123157	0.022670
	H289	H	1.042384	0.119310	0.011900
	H290	H	1.047481	0.132535	0.025052
	O291	O	-0.484831	0.572377	-0.519135
	H292	H	-0.481547	0.564593	-0.523857
	H293	H	-0.484385	0.584506	-0.525496
	O294	O	0.482382	0.557988	0.532803
	H295	H	0.487229	0.567899	0.536396
	H296	H	0.487342	0.554995	0.529834
	O297	O	0.445826	1.544603	-0.517279
	H298	H	0.446609	1.545230	-0.511189
	H299	H	0.435915	1.542400	-0.517646
	O300	O	1.044056	0.097257	1.016221
	H301	H	1.054867	0.091172	1.021561
	H302	H	1.024401	0.091540	1.017900
	O303	O	0.502975	0.549361	0.537210
	H304	H	0.509912	0.546184	0.539172
	H305	H	0.510350	0.560859	0.538980
	O306	O	0.004880	1.101266	1.047017
	H307	H	0.004876	1.101014	1.046094
	H308	H	0.012576	1.117643	1.043406
	O309	O	0.407431	0.567282	0.489061
	H310	H	0.406050	0.565766	0.494667
	H311	H	0.405219	0.569604	0.486378
