data_Molecule from HDF5

_cell_length_a		16.156956
_cell_length_b		16.267514
_cell_length_c		16.201263
_cell_angle_alpha	89.972089
_cell_angle_beta	89.964546
_cell_angle_gamma	89.851537
_symmetry_space_group_name_H-M	'P 1'
_symmetry_Int_Tables_number		1

loop_
	_symmetry_equiv_pos_as_xyz
	x,y,z

loop_
	_atom_site_label
	_atom_site_type_symbol
	_atom_site_fract_x
	_atom_site_fract_y
	_atom_site_fract_z
	H0	H	0.404096	0.838123	0.715796
	H1	H	0.600102	0.165779	0.715299
	H2	H	0.602182	0.838072	0.288345
	H3	H	0.401190	0.164433	0.283891
	H4	H	0.716267	0.403760	0.835956
	H5	H	0.716756	0.598922	0.164749
	H6	H	0.289687	0.600094	0.834907
	H7	H	0.288695	0.401998	0.163773
	H8	H	0.837941	0.717636	0.401842
	H9	H	0.167561	0.717005	0.597938
	H10	H	0.838184	0.289238	0.600603
	H11	H	0.166344	0.287096	0.400940
	H12	H	0.837303	0.406869	0.712641
	H13	H	0.168333	0.601277	0.713600
	H14	H	0.837803	0.602388	0.286593
	H15	H	0.167809	0.403640	0.287013
	H16	H	0.402917	0.717801	0.836883
	H17	H	0.603093	0.714838	0.164890
	H18	H	0.603883	0.286135	0.836629
	H19	H	0.403957	0.287164	0.164200
	H20	H	0.718072	0.839633	0.403403
	H21	H	0.716802	0.165378	0.602075
	H22	H	0.287006	0.838490	0.599893
	H23	H	0.288849	0.167021	0.403141
	H24	H	0.904621	0.338096	0.215264
	H25	H	0.102454	0.666347	0.214684
	H26	H	0.103132	0.338097	0.783836
	H27	H	0.904128	0.666057	0.786409
	H28	H	0.215432	0.905238	0.336204
	H29	H	0.215538	0.102038	0.665274
	H30	H	0.787691	0.102340	0.336715
	H31	H	0.791360	0.905672	0.665963
	H32	H	0.339223	0.216768	0.900243
	H33	H	0.667048	0.215040	0.100396
	H34	H	0.338778	0.786047	0.101248
	H35	H	0.667610	0.786350	0.901391
	H36	H	0.336861	0.902342	0.215605
	H37	H	0.667265	0.097656	0.214416
	H38	H	0.338271	0.099075	0.789159
	H39	H	0.667935	0.902655	0.787554
	H40	H	0.901842	0.218470	0.337517
	H41	H	0.100410	0.216466	0.664648
	H42	H	0.102279	0.789420	0.336095
	H43	H	0.903015	0.788650	0.663907
	H44	H	0.218041	0.337254	0.900880
	H45	H	0.218230	0.665512	0.098152
	H46	H	0.790143	0.337043	0.098022
	H47	H	0.788172	0.665473	0.902239
	H48	H	0.405426	0.122748	0.603632
	H49	H	0.601746	0.881721	0.598887
	H50	H	0.590129	0.125012	0.385140
	H51	H	0.418584	0.887400	0.406513
	H52	H	0.590479	0.407166	0.116987
	H53	H	0.606850	0.591164	0.880446
	H54	H	0.413191	0.594137	0.116765
	H55	H	0.408808	0.409152	0.882239
	H56	H	0.124143	0.599808	0.398377
	H57	H	0.883775	0.603922	0.591026
	H58	H	0.121527	0.404951	0.593097
	H59	H	0.884601	0.412926	0.405582
	H60	H	0.119194	0.410956	0.588703
	H61	H	0.887166	0.592028	0.589303
	H62	H	0.120287	0.603126	0.416022
	H63	H	0.883701	0.407815	0.408295
	H64	H	0.408985	0.593982	0.117423
	H65	H	0.587731	0.586744	0.887071
	H66	H	0.598025	0.403053	0.120370
	H67	H	0.412793	0.408704	0.882444
	H68	H	0.575757	0.110552	0.421354
	H69	H	0.590360	0.885792	0.597446
	H70	H	0.416636	0.116362	0.594697
	H71	H	0.405691	0.886786	0.418678
	H72	H	0.913657	0.618856	0.099855
	H73	H	0.094903	0.382608	0.106106
	H74	H	0.088582	0.617134	0.903567
	H75	H	0.910830	0.381783	0.893907
	H76	H	0.090368	0.899659	0.619847
	H77	H	0.088731	0.096592	0.385026
	H78	H	0.911918	0.107577	0.620757
	H79	H	0.915063	0.914429	0.384883
	H80	H	0.617438	0.086941	0.913953
	H81	H	0.384544	0.096044	0.092821
	H82	H	0.621711	0.908300	0.099011
	H83	H	0.383401	0.900276	0.910750
	H84	H	0.621549	0.903828	0.094698
	H85	H	0.385751	0.093881	0.090605
	H86	H	0.623694	0.091485	0.898663
	H87	H	0.389248	0.914053	0.916101
	H88	H	0.899019	0.093893	0.620924
	H89	H	0.097785	0.101008	0.380492
	H90	H	0.104123	0.910610	0.620532
	H91	H	0.911013	0.902002	0.380803
	H92	H	0.097277	0.616568	0.914451
	H93	H	0.085151	0.390842	0.087644
	H94	H	0.912068	0.615499	0.086390
	H95	H	0.920798	0.389441	0.911884
	H96	H	0.402637	0.118891	0.588720
	H97	H	0.597737	0.886515	0.588098
	H98	H	0.614955	0.122733	0.417596
	H99	H	0.402593	0.882038	0.402318
	H100	H	0.597792	0.412162	0.116995
	H101	H	0.591562	0.605336	0.880748
	H102	H	0.410872	0.590711	0.115773
	H103	H	0.410683	0.405443	0.881636
	H104	H	0.117575	0.585569	0.408194
	H105	H	0.883767	0.595283	0.600577
	H106	H	0.121030	0.412025	0.596058
	H107	H	0.886123	0.412157	0.410846
	H108	H	0.900950	0.621212	0.094020
	H109	H	0.106578	0.383914	0.086790
	H110	H	0.102432	0.621456	0.902138
	H111	H	0.899228	0.382460	0.912802
	H112	H	0.088712	0.917156	0.614926
	H113	H	0.098028	0.090922	0.383719
	H114	H	0.917125	0.089888	0.614450
	H115	H	0.901672	0.913548	0.381876
	H116	H	0.623665	0.102888	0.911880
	H117	H	0.383984	0.092960	0.094495
	H118	H	0.619437	0.909504	0.093448
	H119	H	0.384326	0.912970	0.901111
	C120	C	0.379586	0.010826	0.624019
	C121	C	0.624218	0.993302	0.623163
	C122	C	0.623385	0.011139	0.380077
	C123	C	0.379926	0.993474	0.379862
	C124	C	0.624591	0.379307	0.009317
	C125	C	0.624258	0.622741	0.991728
	C126	C	0.381680	0.622522	0.008447
	C127	C	0.381829	0.379571	0.990823
	C128	C	0.011553	0.624944	0.378981
	C129	C	0.994077	0.625141	0.621719
	C130	C	0.011206	0.381917	0.621366
	C131	C	0.993759	0.381546	0.379404
	C132	C	0.881023	0.510123	0.122316
	C133	C	0.125196	0.493603	0.122182
	C134	C	0.125155	0.510204	0.877780
	C135	C	0.881183	0.493097	0.878152
	C136	C	0.123348	0.881379	0.509385
	C137	C	0.123012	0.124470	0.491951
	C138	C	0.880596	0.125111	0.509907
	C139	C	0.881053	0.882022	0.491391
	C140	C	0.512421	0.122559	0.879953
	C141	C	0.493726	0.122379	0.121903
	C142	C	0.511655	0.878788	0.123810
	C143	C	0.494503	0.880116	0.880177
	C144	C	0.382663	0.887325	0.678477
	C145	C	0.620710	0.116619	0.677966
	C146	C	0.621766	0.887321	0.326127
	C147	C	0.381557	0.116237	0.323064
	C148	C	0.679553	0.382387	0.885353
	C149	C	0.678946	0.619407	0.115833
	C150	C	0.327060	0.620525	0.884348
	C151	C	0.326438	0.381785	0.114645
	C152	C	0.887214	0.680152	0.381025
	C153	C	0.118298	0.679577	0.618575
	C154	C	0.887436	0.327019	0.620238
	C155	C	0.117438	0.325241	0.380865
	C156	C	0.887030	0.385307	0.676171
	C157	C	0.118702	0.622090	0.676130
	C158	C	0.887381	0.622927	0.323721
	C159	C	0.118239	0.383569	0.324680
	C160	C	0.383017	0.679384	0.885474
	C161	C	0.622605	0.677255	0.115688
	C162	C	0.623879	0.323791	0.885720
	C163	C	0.383757	0.324597	0.114870
	C164	C	0.679802	0.888133	0.383009
	C165	C	0.678694	0.116589	0.621273
	C166	C	0.324836	0.887409	0.620707
	C167	C	0.325774	0.117509	0.382478
	C168	C	0.884422	0.386843	0.177193
	C169	C	0.122485	0.617269	0.176655
	C170	C	0.123296	0.386912	0.822082
	C171	C	0.883392	0.616790	0.823694
	C172	C	0.178266	0.884675	0.385481
	C173	C	0.177402	0.121746	0.616090
	C174	C	0.825009	0.122750	0.386068
	C175	C	0.827481	0.884720	0.616167
	C176	C	0.388134	0.178141	0.881215
	C177	C	0.617711	0.177185	0.120526
	C178	C	0.387697	0.823939	0.121363
	C179	C	0.618498	0.824450	0.881699
	C180	C	0.386854	0.881921	0.178277
	C181	C	0.617850	0.118954	0.177148
	C182	C	0.387853	0.119903	0.825723
	C183	C	0.618604	0.882087	0.824857
	C184	C	0.881936	0.180293	0.386241
	C185	C	0.120563	0.179082	0.615621
	C186	C	0.121839	0.827136	0.385401
	C187	C	0.883035	0.826483	0.615171
	C188	C	0.180416	0.386407	0.880056
	C189	C	0.180257	0.616653	0.118746
	C190	C	0.827025	0.386447	0.119046
	C191	C	0.825942	0.616630	0.881455
	C192	C	0.401563	0.097130	0.602188
	C193	C	0.602883	0.906940	0.601247
	C194	C	0.600510	0.097228	0.401745
	C195	C	0.402335	0.907634	0.402437
	C196	C	0.602041	0.401075	0.095652
	C197	C	0.601937	0.600910	0.905149
	C198	C	0.404424	0.599531	0.094471
	C199	C	0.404367	0.401419	0.904279
	C200	C	0.098213	0.602884	0.401113
	C201	C	0.907343	0.603437	0.600105
	C202	C	0.098055	0.403177	0.599076
	C203	C	0.907086	0.404258	0.401701
	C204	C	0.902544	0.596392	0.099965
	C205	C	0.102358	0.407908	0.100078
	C206	C	0.102650	0.596102	0.900277
	C207	C	0.903634	0.406928	0.899744
	C208	C	0.101038	0.902786	0.596020
	C209	C	0.101186	0.102680	0.405267
	C210	C	0.902776	0.103590	0.596281
	C211	C	0.902814	0.903558	0.405020
	C212	C	0.599068	0.100395	0.901772
	C213	C	0.407221	0.100655	0.099209
	C214	C	0.598402	0.900676	0.102049
	C215	C	0.408025	0.902402	0.902826
	Zn216	Zn	0.503014	0.001555	0.751675
	Zn217	Zn	0.502036	0.001377	0.251439
	Zn218	Zn	0.751820	0.501255	-0.000008
	Zn219	Zn	0.253740	0.500962	-0.000825
	Zn220	Zn	0.001824	0.753536	0.499766
	Zn221	Zn	0.001674	0.253255	0.500630
	Zn222	Zn	0.003155	0.502395	0.749564
	Zn223	Zn	0.002961	0.502585	0.251411
	Zn224	Zn	0.503418	0.751124	0.001224
	Zn225	Zn	0.503142	0.251045	0.000146
	Zn226	Zn	0.752877	0.003226	0.501372
	Zn227	Zn	0.250989	0.002995	0.501209
	N228	N	0.415859	0.965028	0.680737
	N229	N	0.587618	0.038705	0.679335
	N230	N	0.587236	0.964685	0.324314
	N231	N	0.414328	0.038298	0.321112
	N232	N	0.680084	0.416097	0.963192
	N233	N	0.680101	0.586230	0.037816
	N234	N	0.326088	0.585904	0.961785
	N235	N	0.324994	0.415064	0.036572
	N236	N	0.965210	0.681260	0.414736
	N237	N	0.039871	0.681606	0.585544
	N238	N	0.965666	0.324754	0.586692
	N239	N	0.038880	0.324026	0.414118
	N240	N	0.965041	0.418781	0.676855
	N241	N	0.040492	0.588776	0.678127
	N242	N	0.965741	0.589291	0.322122
	N243	N	0.040201	0.417775	0.323542
	N244	N	0.416386	0.680636	0.963668
	N245	N	0.589259	0.679264	0.037535
	N246	N	0.590279	0.321771	0.963714
	N247	N	0.417236	0.322982	0.036839
	N248	N	0.680794	0.966219	0.415932
	N249	N	0.680819	0.039103	0.587599
	N250	N	0.322442	0.965386	0.587916
	N251	N	0.324643	0.040235	0.417082
	N252	N	0.916936	0.464932	0.179537
	N253	N	0.088918	0.539703	0.178933
	N254	N	0.089901	0.464826	0.820333
	N255	N	0.917293	0.539197	0.821810
	N256	N	0.179416	0.917640	0.463686
	N257	N	0.179034	0.088420	0.538169
	N258	N	0.824089	0.089027	0.463933
	N259	N	0.826034	0.918766	0.538387
	N260	N	0.466440	0.179877	0.914447
	N261	N	0.539568	0.179613	0.087006
	N262	N	0.466290	0.821557	0.088574
	N263	N	0.540299	0.823121	0.915498
	N264	N	0.465199	0.915121	0.180238
	N265	N	0.539570	0.085689	0.178190
	N266	N	0.465915	0.085900	0.824761
	N267	N	0.540636	0.916119	0.823885
	N268	N	0.915492	0.182002	0.464036
	N269	N	0.087349	0.180879	0.537299
	N270	N	0.088463	0.824804	0.463525
	N271	N	0.915695	0.824593	0.536801
	N272	N	0.181626	0.464078	0.913952
	N273	N	0.182116	0.538775	0.085658
	N274	N	0.824648	0.464124	0.085612
	N275	N	0.824475	0.538665	0.914736
	O276	O	1.005510	0.961147	-0.017629
	H277	H	1.013757	0.966365	-0.017773
	H278	H	0.997288	0.967571	-0.017785
	O279	O	0.031776	0.014604	0.004903
	H280	H	0.036841	0.003108	-0.006111
	H281	H	0.031752	0.013726	0.004848
	O282	O	0.082512	0.001904	0.967946
	H283	H	0.080736	-0.003118	0.986119
	H284	H	0.089575	0.002027	0.967044
	O285	O	0.487418	0.492297	0.361581
	H286	H	0.483332	0.488754	0.357616
	H287	H	0.475413	0.495807	0.359367
	O288	O	0.504303	0.477883	0.425320
	H289	H	0.517201	0.471665	0.419209
	H290	H	0.512213	0.480907	0.427468
	O291	O	0.449236	0.546245	0.392876
	H292	H	0.436228	0.553310	0.383588
	H293	H	0.440846	0.546200	0.398075
	O294	O	-0.473443	-0.487251	0.388871
	H295	H	-0.466285	-0.486677	0.384843
	H296	H	-0.465469	-0.495217	0.396203
	O297	O	0.542714	0.443927	0.455123
	H298	H	0.544667	0.439076	0.448876
	H299	H	0.538878	0.446585	0.440662
	O300	O	0.010158	0.968548	0.966401
	H301	H	0.003808	0.961208	0.967414
	H302	H	0.011594	0.975077	0.960015
	O303	O	0.492766	0.474356	0.477531
	H304	H	0.493293	0.473373	0.476110
	H305	H	0.493205	0.470482	0.475580
	O306	O	0.089292	-0.041582	1.010552
	H307	H	0.093194	-0.046825	1.006645
	H308	H	0.079773	-0.038437	1.023725
	O309	O	0.995164	1.005214	0.992093
	H310	H	0.998708	0.997391	0.991859
	H311	H	0.995165	0.997942	0.978190
	O312	O	0.499172	0.531424	0.474585
	H313	H	0.505420	0.530748	0.472840
	H314	H	0.494128	0.539491	0.482974
	O315	O	0.505549	0.475569	0.516560
	H316	H	0.500648	0.471508	0.516330
	H317	H	0.503967	0.481777	0.520715
	O318	O	0.050940	0.951275	0.008295
	H319	H	0.046054	0.961354	0.011413
	H320	H	0.052258	0.946892	0.012972
	O321	O	0.992933	1.013504	-0.078063
	H322	H	0.990037	1.017642	-0.083964
	H323	H	1.004948	1.018952	-0.086118
