data_Molecule from HDF5

_cell_length_a		16.417830
_cell_length_b		16.535182
_cell_length_c		16.466736
_cell_angle_alpha	90.011552
_cell_angle_beta	90.008881
_cell_angle_gamma	90.066823
_symmetry_space_group_name_H-M	'P 1'
_symmetry_Int_Tables_number		1

loop_
	_symmetry_equiv_pos_as_xyz
	x,y,z

loop_
	_atom_site_label
	_atom_site_type_symbol
	_atom_site_fract_x
	_atom_site_fract_y
	_atom_site_fract_z
	H0	H	0.394197	0.845088	0.722080
	H1	H	0.607977	0.156923	0.722656
	H2	H	0.611100	0.845230	0.273142
	H3	H	0.396233	0.157420	0.277526
	H4	H	0.724402	0.394735	0.845697
	H5	H	0.724577	0.608936	0.158342
	H6	H	0.280702	0.602446	0.843380
	H7	H	0.277865	0.392385	0.158767
	H8	H	0.843411	0.724041	0.392427
	H9	H	0.158746	0.719968	0.603571
	H10	H	0.844817	0.277746	0.607338
	H11	H	0.157372	0.274916	0.390200
	H12	H	0.844224	0.394929	0.722422
	H13	H	0.159192	0.603964	0.720081
	H14	H	0.843530	0.607911	0.277309
	H15	H	0.158170	0.392500	0.276249
	H16	H	0.395769	0.721000	0.844030
	H17	H	0.608623	0.725175	0.157531
	H18	H	0.608191	0.277894	0.845363
	H19	H	0.392401	0.275234	0.157268
	H20	H	0.725156	0.844102	0.391356
	H21	H	0.723603	0.157003	0.604259
	H22	H	0.279456	0.844441	0.604170
	H23	H	0.277859	0.157165	0.392536
	H24	H	0.894120	0.344032	0.224497
	H25	H	0.106234	0.658133	0.221479
	H26	H	0.108303	0.343886	0.776825
	H27	H	0.897053	0.657776	0.780156
	H28	H	0.222180	0.895840	0.341774
	H29	H	0.221077	0.104182	0.659271
	H30	H	0.779359	0.106415	0.341684
	H31	H	0.778928	0.895239	0.657201
	H32	H	0.342128	0.222862	0.893092
	H33	H	0.656855	0.225010	0.108238
	H34	H	0.342842	0.778708	0.106939
	H35	H	0.658152	0.778462	0.893563
	H36	H	0.343103	0.894247	0.221606
	H37	H	0.657550	0.108959	0.223398
	H38	H	0.342292	0.106008	0.778366
	H39	H	0.659282	0.897072	0.779510
	H40	H	0.894346	0.223811	0.343065
	H41	H	0.106387	0.221162	0.659151
	H42	H	0.108627	0.777493	0.342512
	H43	H	0.895336	0.779256	0.657270
	H44	H	0.222468	0.341564	0.895392
	H45	H	0.222890	0.658064	0.104900
	H46	H	0.777221	0.344275	0.108283
	H47	H	0.779554	0.657418	0.895220
	H48	H	0.409356	0.114225	0.587309
	H49	H	0.587167	0.887102	0.595010
	H50	H	0.582872	0.111092	0.406556
	H51	H	0.414546	0.888072	0.408099
	H52	H	0.583550	0.411532	0.113025
	H53	H	0.590216	0.584687	0.890396
	H54	H	0.412660	0.591983	0.115372
	H55	H	0.419509	0.410869	0.891341
	H56	H	0.110666	0.585618	0.415817
	H57	H	0.887454	0.590368	0.588599
	H58	H	0.111051	0.413963	0.581045
	H59	H	0.890442	0.411770	0.416442
	H60	H	0.115081	0.417763	0.594284
	H61	H	0.887015	0.588080	0.590815
	H62	H	0.115092	0.588740	0.406340
	H63	H	0.891210	0.416309	0.414450
	H64	H	0.410859	0.587187	0.114750
	H65	H	0.585094	0.591533	0.889750
	H66	H	0.589170	0.410831	0.115443
	H67	H	0.408321	0.404531	0.884868
	H68	H	0.587678	0.108971	0.418339
	H69	H	0.585480	0.890474	0.585222
	H70	H	0.410599	0.114889	0.591205
	H71	H	0.412958	0.890161	0.414466
	H72	H	0.913633	0.611181	0.086562
	H73	H	0.088926	0.386686	0.096080
	H74	H	0.086418	0.610418	0.911638
	H75	H	0.916299	0.390429	0.914709
	H76	H	0.082821	0.904667	0.612592
	H77	H	0.090393	0.090250	0.386932
	H78	H	0.912326	0.088088	0.611955
	H79	H	0.914563	0.908905	0.386248
	H80	H	0.614875	0.089666	0.908079
	H81	H	0.387369	0.091252	0.087122
	H82	H	0.613920	0.909482	0.084472
	H83	H	0.388084	0.911805	0.913013
	H84	H	0.611298	0.916236	0.084290
	H85	H	0.390432	0.085838	0.083445
	H86	H	0.613309	0.093787	0.914833
	H87	H	0.387953	0.912493	0.908542
	H88	H	0.913618	0.089275	0.611553
	H89	H	0.088672	0.086285	0.389444
	H90	H	0.097797	0.908591	0.615948
	H91	H	0.910560	0.912637	0.386963
	H92	H	0.094546	0.611966	0.914892
	H93	H	0.082749	0.391283	0.087387
	H94	H	0.912052	0.612271	0.089671
	H95	H	0.907742	0.386938	0.914635
	H96	H	0.413780	0.114501	0.588517
	H97	H	0.594599	0.887258	0.587399
	H98	H	0.594922	0.114530	0.409252
	H99	H	0.407905	0.887395	0.410592
	H100	H	0.587570	0.416096	0.113041
	H101	H	0.593594	0.591323	0.886313
	H102	H	0.415313	0.589146	0.112931
	H103	H	0.407368	0.418464	0.889321
	H104	H	0.114495	0.595569	0.414778
	H105	H	0.885574	0.590873	0.591768
	H106	H	0.117928	0.404280	0.589625
	H107	H	0.888090	0.412807	0.411974
	H108	H	0.915715	0.611876	0.089602
	H109	H	0.094152	0.387951	0.085266
	H110	H	0.091791	0.614168	0.906364
	H111	H	0.913292	0.386906	0.906953
	H112	H	0.088133	0.918865	0.609188
	H113	H	0.085837	0.090374	0.388657
	H114	H	0.912541	0.090341	0.612920
	H115	H	0.916231	0.913751	0.389015
	H116	H	0.610687	0.086202	0.914078
	H117	H	0.388220	0.084985	0.089914
	H118	H	0.614459	0.913904	0.090181
	H119	H	0.385386	0.908581	0.910479
	C120	C	0.379333	0.010351	0.621100
	C121	C	0.622412	0.991811	0.621507
	C122	C	0.622655	0.008407	0.377526
	C123	C	0.379385	0.992031	0.378077
	C124	C	0.620702	0.380009	0.010058
	C125	C	0.622777	0.622715	0.992578
	C126	C	0.380270	0.620975	0.010071
	C127	C	0.378567	0.377884	0.992425
	C128	C	0.009112	0.622394	0.379320
	C129	C	0.991335	0.621909	0.621851
	C130	C	0.010746	0.379490	0.621436
	C131	C	0.993431	0.379937	0.380023
	C132	C	0.879806	0.508836	0.122534
	C133	C	0.122261	0.492203	0.122350
	C134	C	0.123373	0.508317	0.878873
	C135	C	0.879727	0.492009	0.879596
	C136	C	0.122231	0.878619	0.508192
	C137	C	0.121594	0.121443	0.492415
	C138	C	0.879515	0.122224	0.508163
	C139	C	0.880448	0.879455	0.491233
	C140	C	0.508806	0.122500	0.878832
	C141	C	0.492198	0.121553	0.120765
	C142	C	0.509323	0.879703	0.120514
	C143	C	0.491626	0.879051	0.878240
	C144	C	0.376636	0.892133	0.681218
	C145	C	0.625864	0.109978	0.682024
	C146	C	0.627776	0.891741	0.314796
	C147	C	0.377203	0.110271	0.317591
	C148	C	0.683335	0.376498	0.892511
	C149	C	0.684083	0.626347	0.110938
	C150	C	0.320561	0.621588	0.890835
	C151	C	0.317673	0.374220	0.111138
	C152	C	0.890629	0.683258	0.375343
	C153	C	0.111176	0.680843	0.622674
	C154	C	0.891818	0.318510	0.624915
	C155	C	0.110654	0.317035	0.374229
	C156	C	0.891660	0.376625	0.682241
	C157	C	0.111354	0.623137	0.680540
	C158	C	0.890712	0.625508	0.317860
	C159	C	0.111129	0.375520	0.317171
	C160	C	0.377568	0.680655	0.891068
	C161	C	0.626434	0.684383	0.110479
	C162	C	0.625649	0.318545	0.892305
	C163	C	0.374782	0.316003	0.110353
	C164	C	0.684546	0.891125	0.373916
	C165	C	0.683203	0.110142	0.623177
	C166	C	0.319271	0.891702	0.622840
	C167	C	0.318405	0.110104	0.374798
	C168	C	0.876178	0.391235	0.184028
	C169	C	0.124958	0.610775	0.182100
	C170	C	0.125874	0.390401	0.817750
	C171	C	0.878119	0.610338	0.819876
	C172	C	0.182400	0.877154	0.389481
	C173	C	0.181537	0.122965	0.611485
	C174	C	0.819294	0.124782	0.389276
	C175	C	0.819391	0.877009	0.610010
	C176	C	0.389884	0.182929	0.875365
	C177	C	0.609932	0.184133	0.125454
	C178	C	0.390706	0.818611	0.124669
	C179	C	0.610753	0.818966	0.875623
	C180	C	0.390627	0.876571	0.181784
	C181	C	0.610135	0.126065	0.182690
	C182	C	0.389826	0.124632	0.818009
	C183	C	0.611309	0.878199	0.819092
	C184	C	0.876380	0.183409	0.390274
	C185	C	0.124053	0.181102	0.611668
	C186	C	0.125724	0.818154	0.389769
	C187	C	0.877159	0.819154	0.609963
	C188	C	0.182852	0.389490	0.876681
	C189	C	0.182895	0.610681	0.123883
	C190	C	0.818079	0.391049	0.126032
	C191	C	0.819670	0.610179	0.877304
	C192	C	0.404154	0.092947	0.596156
	C193	C	0.596717	0.909789	0.596349
	C194	C	0.596069	0.090186	0.403823
	C195	C	0.404525	0.909917	0.403607
	C196	C	0.594182	0.405654	0.092348
	C197	C	0.597052	0.596779	0.910207
	C198	C	0.405699	0.596385	0.092801
	C199	C	0.404284	0.403731	0.910076
	C200	C	0.091910	0.597149	0.405103
	C201	C	0.908334	0.597053	0.597459
	C202	C	0.093240	0.404888	0.595623
	C203	C	0.911355	0.406174	0.406616
	C204	C	0.906102	0.590522	0.096136
	C205	C	0.096240	0.410057	0.096913
	C206	C	0.098329	0.590576	0.903908
	C207	C	0.904930	0.409604	0.904874
	C208	C	0.096767	0.903493	0.591010
	C209	C	0.095753	0.096259	0.409908
	C210	C	0.905212	0.096495	0.590546
	C211	C	0.906182	0.904433	0.408968
	C212	C	0.591458	0.097136	0.904768
	C213	C	0.410003	0.094968	0.094362
	C214	C	0.591710	0.905704	0.093975
	C215	C	0.408771	0.903840	0.903421
	Zn216	Zn	0.500635	0.001472	0.750503
	Zn217	Zn	0.500566	0.000230	0.248936
	Zn218	Zn	0.750427	0.500642	0.001638
	Zn219	Zn	0.251275	0.499167	0.001525
	Zn220	Zn	0.000724	0.750157	0.500128
	Zn221	Zn	0.001613	0.250763	0.500555
	Zn222	Zn	0.001246	0.500258	0.750203
	Zn223	Zn	0.000908	0.500849	0.251546
	Zn224	Zn	0.500912	0.751043	0.000525
	Zn225	Zn	0.500238	0.250322	0.000637
	Zn226	Zn	0.751494	0.000278	0.499229
	Zn227	Zn	0.250523	0.000886	0.499626
	N228	N	0.413324	0.966852	0.680199
	N229	N	0.588613	0.035584	0.680924
	N230	N	0.589913	0.965634	0.317025
	N231	N	0.414182	0.035799	0.319357
	N232	N	0.680321	0.413884	0.966732
	N233	N	0.681914	0.588726	0.036588
	N234	N	0.322207	0.585263	0.965707
	N235	N	0.319789	0.411955	0.036750
	N236	N	0.965333	0.681248	0.413047
	N237	N	0.035688	0.680429	0.587075
	N238	N	0.966751	0.320093	0.587802
	N239	N	0.036759	0.319748	0.412716
	N240	N	0.966405	0.413818	0.680092
	N241	N	0.035892	0.587389	0.680369
	N242	N	0.965506	0.588459	0.320201
	N243	N	0.037257	0.414461	0.321006
	N244	N	0.413838	0.680522	0.966205
	N245	N	0.589220	0.682421	0.035710
	N246	N	0.587357	0.320761	0.966460
	N247	N	0.411583	0.317971	0.035455
	N248	N	0.681370	0.964794	0.412314
	N249	N	0.681424	0.035644	0.586357
	N250	N	0.320841	0.966238	0.586187
	N251	N	0.319540	0.035605	0.411674
	N252	N	0.913670	0.465588	0.182001
	N253	N	0.088394	0.536078	0.181417
	N254	N	0.089740	0.465373	0.818733
	N255	N	0.914650	0.535611	0.821011
	N256	N	0.180334	0.914106	0.464168
	N257	N	0.180136	0.086722	0.536340
	N258	N	0.821177	0.087343	0.463754
	N259	N	0.821044	0.913651	0.535142
	N260	N	0.464865	0.181561	0.912609
	N261	N	0.535459	0.181299	0.087506
	N262	N	0.465644	0.820307	0.087448
	N263	N	0.535304	0.819162	0.911743
	N264	N	0.465574	0.913690	0.179427
	N265	N	0.535936	0.087805	0.179797
	N266	N	0.464933	0.087950	0.820080
	N267	N	0.536031	0.914390	0.820341
	N268	N	0.912993	0.181996	0.465331
	N269	N	0.087580	0.180214	0.536406
	N270	N	0.088948	0.819021	0.464722
	N271	N	0.914339	0.820591	0.535353
	N272	N	0.181636	0.463758	0.913844
	N273	N	0.181462	0.535692	0.087778
	N274	N	0.820104	0.465281	0.088807
	N275	N	0.820576	0.535457	0.913745
	O276	O	0.548221	0.415197	0.510177
	H277	H	0.542594	0.413824	0.489073
	H278	H	0.555737	0.418610	0.505102
	O279	O	0.698272	0.427161	0.587828
	H280	H	0.703801	0.444919	0.596741
	H281	H	0.704740	0.438068	0.583470
	O282	O	0.797056	0.786822	0.018034
	H283	H	0.770193	0.754694	0.024140
	H284	H	0.811965	0.797392	0.059012
	O285	O	0.524209	0.294742	0.296416
	H286	H	0.510617	0.300395	0.276004
	H287	H	0.515119	0.299951	0.299449
	O288	O	-0.208877	-0.022440	0.209113
	H289	H	-0.237091	-0.019868	0.234378
	H290	H	-0.213296	0.002131	0.172481
	O291	O	1.140238	0.930372	0.205937
	H292	H	1.143387	0.950324	0.209188
	H293	H	1.141820	0.941996	0.213754
	O294	O	0.070564	0.802493	0.048119
	H295	H	0.078762	0.805523	0.058745
	H296	H	0.053908	0.801717	0.036365
	O297	O	0.473793	0.719825	0.596770
	H298	H	0.467652	0.733228	0.599243
	H299	H	0.489444	0.708779	0.603883
	O300	O	0.371367	0.329533	0.360033
	H301	H	0.392401	0.343895	0.360573
	H302	H	0.367929	0.335412	0.364241
	O303	O	0.323602	0.332140	0.675520
	H304	H	0.334116	0.318440	0.652461
	H305	H	0.349114	0.342690	0.687630
	O306	O	0.174345	0.848071	1.038954
	H307	H	0.168111	0.854685	1.035002
	H308	H	0.191535	0.854900	1.037289
	O309	O	0.712767	0.714326	0.564854
	H310	H	0.717393	0.714685	0.566583
	H311	H	0.729493	0.740679	0.566513
	O312	O	0.709360	0.292458	0.482900
	H313	H	0.721333	0.279512	0.483000
	H314	H	0.710499	0.297556	0.487004
	O315	O	-0.149401	0.051680	1.044052
	H316	H	-0.143634	0.050613	1.028241
	H317	H	-0.152494	0.057926	1.026029
	O318	O	-0.014578	0.845055	-0.052932
	H319	H	-0.014370	0.858131	-0.038364
	H320	H	-0.005759	0.850174	-0.070160
	O321	O	0.435489	0.490424	0.485768
	H322	H	0.443141	0.484930	0.470114
	H323	H	0.433586	0.499746	0.492428
	O324	O	0.644712	0.322520	0.697882
	H325	H	0.625449	0.324082	0.694366
	H326	H	0.639278	0.309819	0.708355
	O327	O	0.960327	0.146050	0.960970
	H328	H	0.981574	0.156021	0.970996
	H329	H	0.950302	0.162875	0.954848
	O330	O	1.123373	0.095498	0.123435
	H331	H	1.106175	0.103987	0.123662
	H332	H	1.127227	0.109009	0.104509
	O333	O	0.877920	1.077421	0.870821
	H334	H	0.874150	1.080783	0.870662
	H335	H	0.861753	1.066501	0.865321
	O336	O	0.859328	0.213227	1.025491
	H337	H	0.867653	0.220012	1.019595
	H338	H	0.877733	0.214678	1.015896
	O339	O	0.476308	0.288439	0.709587
	H340	H	0.497770	0.283928	0.696299
	H341	H	0.479062	0.276789	0.725026
	O342	O	0.305263	0.300723	0.519890
	H343	H	0.308135	0.286307	0.524546
	H344	H	0.296547	0.296235	0.513007
	O345	O	0.014073	0.202488	0.141737
	H346	H	0.019656	0.182571	0.134054
	H347	H	0.026041	0.203430	0.119995
	O348	O	1.080343	0.096137	0.922193
	H349	H	1.069917	0.084060	0.916674
	H350	H	1.069287	0.102303	0.917479
	O351	O	1.053533	0.858471	-0.036081
	H352	H	1.052529	0.866068	-0.024654
	H353	H	1.062443	0.847172	-0.039722
	O354	O	0.690179	0.316635	0.315558
	H355	H	0.673545	0.301185	0.323377
	H356	H	0.682427	0.313577	0.325495
	O357	O	1.050105	1.133130	0.934296
	H358	H	1.039404	1.118315	0.929157
	H359	H	1.044238	1.137172	0.933343
	O360	O	0.497614	0.420770	0.481109
	H361	H	0.502969	0.415282	0.474503
	H362	H	0.495736	0.434921	0.491227
	O363	O	0.470720	0.545572	0.708081
	H364	H	0.475357	0.565822	0.703846
	H365	H	0.455244	0.552981	0.708926
	O366	O	0.803961	0.163490	0.801425
	H367	H	0.808036	0.121711	0.798596
	H368	H	0.792050	0.169661	0.797674
	O369	O	0.675246	0.676949	0.621255
	H370	H	0.670774	0.671660	0.608969
	H371	H	0.689285	0.663864	0.637531
	O372	O	0.504961	0.484958	0.576445
	H373	H	0.506423	0.474518	0.577198
	H374	H	0.497767	0.495723	0.579442
	O375	O	0.213411	0.967422	0.789321
	H376	H	0.231892	0.960296	0.764349
	H377	H	0.208007	0.942910	0.796656
	O378	O	0.715970	0.477526	0.285747
	H379	H	0.740767	0.472315	0.256334
	H380	H	0.706858	0.445770	0.293199
	O381	O	0.873004	-0.106707	-0.124303
	H382	H	0.893441	-0.092471	-0.116011
	H383	H	0.874765	-0.110177	-0.104301
	O384	O	-0.167907	0.014102	0.789813
	H385	H	-0.178939	-0.000297	0.770150
	H386	H	-0.147226	-0.006693	0.805502
	O387	O	0.042701	0.859632	0.790247
	H388	H	0.053811	0.842260	0.773226
	H389	H	0.068195	0.852951	0.790405
	O390	O	0.160490	0.002122	1.214121
	H391	H	0.185726	-0.003114	1.213587
	H392	H	0.161196	0.011663	1.219635
	O393	O	0.979531	0.793406	0.208118
	H394	H	0.994241	0.805319	0.219645
	H395	H	0.986747	0.779534	0.207392
	O396	O	0.635342	0.578997	0.417279
	H397	H	0.630686	0.580146	0.417577
	H398	H	0.650071	0.581464	0.402916
	O399	O	0.539268	0.651841	0.721700
	H400	H	0.560747	0.650015	0.707349
	H401	H	0.540347	0.684758	0.752145
	O402	O	-0.001601	-0.010260	0.832068
	H403	H	0.017474	-0.017688	0.824432
	H404	H	0.000837	-0.007255	0.831509
	O405	O	0.217013	0.173891	0.010588
	H406	H	0.212802	0.172064	-0.013375
	H407	H	0.231598	0.185996	-0.006430
	O408	O	0.574961	0.675449	0.428669
	H409	H	0.580065	0.678495	0.424425
	H410	H	0.558982	0.671023	0.438035
	O411	O	0.291076	0.551186	0.567069
	H412	H	0.286103	0.523834	0.550578
	H413	H	0.289798	0.532900	0.576607
	O414	O	0.471687	0.712930	0.348031
	H415	H	0.486694	0.715759	0.342372
	H416	H	0.487416	0.708889	0.340296
	O417	O	0.294080	0.712291	0.475287
	H418	H	0.307192	0.702348	0.484527
	H419	H	0.266082	0.716190	0.485938
	O420	O	0.314642	0.687963	0.313927
	H421	H	0.351465	0.694590	0.317670
	H422	H	0.316946	0.701492	0.345072
	O423	O	-0.183356	0.814436	0.180748
	H424	H	-0.155303	0.830587	0.191412
	H425	H	-0.173832	0.838612	0.185261
	O426	O	0.992485	1.042326	1.078849
	H427	H	0.999544	1.035920	1.083387
	H428	H	0.977447	1.036974	1.070892
	O429	O	0.314572	0.691651	0.689234
	H430	H	0.339948	0.681613	0.667546
	H431	H	0.323530	0.663117	0.673562
	O432	O	0.620576	0.306156	0.617496
	H433	H	0.615488	0.317085	0.605347
	H434	H	0.610145	0.309865	0.611257
	O435	O	-0.026460	0.113290	0.201774
	H436	H	-0.028996	0.115468	0.201485
	H437	H	-0.045844	0.112048	0.203869
	O438	O	1.040685	0.195455	0.171602
	H439	H	1.055741	0.199023	0.173629
	H440	H	1.044263	0.203948	0.170192
	O441	O	0.466113	0.523485	0.283929
	H442	H	0.463885	0.533477	0.281044
	H443	H	0.475322	0.539231	0.282002
	O444	O	0.195770	0.793582	0.793905
	H445	H	0.199360	0.801195	0.826547
	H446	H	0.226861	0.761010	0.762894
	O447	O	0.279515	0.530012	0.278516
	H448	H	0.250910	0.542522	0.252828
	H449	H	0.282657	0.569804	0.281296
	O450	O	0.619650	0.584435	0.368090
	H451	H	0.614680	0.577862	0.379155
	H452	H	0.648076	0.570330	0.361856
	O453	O	0.711598	0.526327	0.708285
	H454	H	0.701212	0.518095	0.722964
	H455	H	0.722059	0.526997	0.715033
	O456	O	0.987859	-0.053920	-0.028485
	H457	H	0.999436	-0.053691	-0.020048
	H458	H	0.990095	-0.065394	-0.028625
	O459	O	0.310985	0.489331	0.712064
	H460	H	0.292250	0.485767	0.729694
	H461	H	0.324984	0.470381	0.707950
	O462	O	0.327129	0.453837	0.400634
	H463	H	0.321272	0.438679	0.395829
	H464	H	0.319013	0.461237	0.375163
	O465	O	1.052160	0.045024	-0.180871
	H466	H	1.048575	0.049125	-0.193710
	H467	H	1.045789	0.037343	-0.167956
