data_Molecule from HDF5

_cell_length_a		16.169300
_cell_length_b		16.260822
_cell_length_c		16.232260
_cell_angle_alpha	90.225224
_cell_angle_beta	90.001092
_cell_angle_gamma	89.952750
_symmetry_space_group_name_H-M	'P 1'
_symmetry_Int_Tables_number		1

loop_
	_symmetry_equiv_pos_as_xyz
	x,y,z

loop_
	_atom_site_label
	_atom_site_type_symbol
	_atom_site_fract_x
	_atom_site_fract_y
	_atom_site_fract_z
	H0	H	0.402504	0.837562	0.718841
	H1	H	0.601062	0.165668	0.720418
	H2	H	0.601240	0.837875	0.291150
	H3	H	0.402457	0.165615	0.291997
	H4	H	0.714429	0.403421	0.842174
	H5	H	0.712815	0.600211	0.170334
	H6	H	0.286747	0.598538	0.841286
	H7	H	0.288661	0.406061	0.171293
	H8	H	0.836372	0.713105	0.409254
	H9	H	0.166280	0.714062	0.604386
	H10	H	0.836731	0.287202	0.605085
	H11	H	0.166518	0.287842	0.407457
	H12	H	0.836213	0.403443	0.719848
	H13	H	0.165963	0.599527	0.720451
	H14	H	0.835914	0.597977	0.295210
	H15	H	0.165882	0.402634	0.291800
	H16	H	0.401351	0.715201	0.841021
	H17	H	0.600513	0.718114	0.168695
	H18	H	0.599875	0.286668	0.841867
	H19	H	0.402310	0.288245	0.170413
	H20	H	0.716210	0.838396	0.405050
	H21	H	0.714667	0.165999	0.603011
	H22	H	0.287554	0.837525	0.602697
	H23	H	0.286606	0.165321	0.408232
	H24	H	0.901874	0.337704	0.220461
	H25	H	0.097768	0.665400	0.220767
	H26	H	0.098777	0.337661	0.791827
	H27	H	0.900452	0.665765	0.792287
	H28	H	0.213619	0.904227	0.340484
	H29	H	0.213659	0.098885	0.670503
	H30	H	0.789151	0.096735	0.340599
	H31	H	0.787948	0.904006	0.669730
	H32	H	0.336355	0.214680	0.907436
	H33	H	0.665156	0.216392	0.105451
	H34	H	0.336309	0.789977	0.102225
	H35	H	0.665596	0.786592	0.905659
	H36	H	0.336835	0.904047	0.218446
	H37	H	0.666262	0.100446	0.219261
	H38	H	0.336599	0.099331	0.792852
	H39	H	0.666482	0.902395	0.791250
	H40	H	0.901855	0.215123	0.341438
	H41	H	0.100824	0.216400	0.669134
	H42	H	0.099827	0.787194	0.340785
	H43	H	0.902804	0.787583	0.669548
	H44	H	0.213865	0.337200	0.908259
	H45	H	0.213081	0.666027	0.104938
	H46	H	0.787087	0.336712	0.103180
	H47	H	0.786232	0.665335	0.909646
	H48	H	0.412139	0.117177	0.598251
	H49	H	0.596355	0.883354	0.600934
	H50	H	0.594217	0.118671	0.413518
	H51	H	0.405556	0.883396	0.408970
	H52	H	0.593387	0.393527	0.128297
	H53	H	0.593604	0.595106	0.887476
	H54	H	0.415579	0.598168	0.121071
	H55	H	0.409832	0.409121	0.889876
	H56	H	0.120329	0.595951	0.411661
	H57	H	0.883541	0.598510	0.595992
	H58	H	0.118499	0.408476	0.598724
	H59	H	0.881541	0.403343	0.411701
	H60	H	0.118586	0.409414	0.598348
	H61	H	0.884652	0.590029	0.598895
	H62	H	0.119870	0.594950	0.414374
	H63	H	0.885654	0.408467	0.419273
	H64	H	0.402740	0.603142	0.127028
	H65	H	0.594072	0.592268	0.888996
	H66	H	0.607134	0.415356	0.125264
	H67	H	0.407725	0.404193	0.888599
	H68	H	0.595737	0.119288	0.412226
	H69	H	0.590565	0.885471	0.598973
	H70	H	0.405587	0.118613	0.597154
	H71	H	0.411233	0.884731	0.409270
	H72	H	0.896920	0.620982	0.098596
	H73	H	0.095024	0.385227	0.094284
	H74	H	0.097342	0.620687	0.908268
	H75	H	0.898370	0.382451	0.914295
	H76	H	0.092325	0.903822	0.623326
	H77	H	0.096757	0.092894	0.387874
	H78	H	0.907562	0.089780	0.621184
	H79	H	0.910136	0.907323	0.388287
	H80	H	0.621377	0.094288	0.905098
	H81	H	0.384944	0.101173	0.086922
	H82	H	0.617022	0.907873	0.090196
	H83	H	0.386118	0.906239	0.921941
	H84	H	0.618386	0.915784	0.100805
	H85	H	0.386427	0.080882	0.100161
	H86	H	0.619368	0.101469	0.918092
	H87	H	0.384934	0.918780	0.906477
	H88	H	0.913508	0.097469	0.622475
	H89	H	0.091343	0.094883	0.388810
	H90	H	0.099418	0.907384	0.624302
	H91	H	0.908993	0.904800	0.387729
	H92	H	0.087081	0.617484	0.912051
	H93	H	0.099207	0.381386	0.103302
	H94	H	0.909287	0.620413	0.111031
	H95	H	0.913528	0.383628	0.903360
	H96	H	0.408588	0.120165	0.603357
	H97	H	0.596039	0.885137	0.595096
	H98	H	0.593950	0.119337	0.411426
	H99	H	0.407411	0.884682	0.414297
	H100	H	0.581445	0.415618	0.118004
	H101	H	0.591278	0.593077	0.889062
	H102	H	0.404296	0.589239	0.121593
	H103	H	0.404389	0.408961	0.888316
	H104	H	0.120186	0.593486	0.411496
	H105	H	0.881554	0.596111	0.604372
	H106	H	0.118863	0.408654	0.599219
	H107	H	0.883575	0.412139	0.410843
	H108	H	0.913459	0.615412	0.095180
	H109	H	0.088927	0.384792	0.102787
	H110	H	0.096849	0.617521	0.919224
	H111	H	0.914554	0.389414	0.921331
	H112	H	0.092923	0.910689	0.621074
	H113	H	0.095446	0.098068	0.386952
	H114	H	0.903806	0.097771	0.625278
	H115	H	0.907245	0.906839	0.387918
	H116	H	0.616221	0.087512	0.916492
	H117	H	0.377928	0.101413	0.110407
	H118	H	0.622744	0.903828	0.101187
	H119	H	0.378889	0.900673	0.904617
	C120	C	0.380099	0.010014	0.627208
	C121	C	0.623090	0.993255	0.627246
	C122	C	0.623368	0.010827	0.383403
	C123	C	0.379374	0.992761	0.383342
	C124	C	0.622303	0.379741	0.014907
	C125	C	0.621849	0.623130	0.996727
	C126	C	0.378680	0.624194	0.014321
	C127	C	0.379236	0.380259	0.997915
	C128	C	0.010219	0.622175	0.385095
	C129	C	0.992341	0.623071	0.627910
	C130	C	0.009865	0.380088	0.627559
	C131	C	0.992743	0.379384	0.384747
	C132	C	0.878207	0.510174	0.128845
	C133	C	0.122020	0.492648	0.128337
	C134	C	0.122422	0.510222	0.884672
	C135	C	0.879362	0.493122	0.884726
	C136	C	0.123077	0.879281	0.514070
	C137	C	0.123134	0.123240	0.496786
	C138	C	0.880202	0.122758	0.514197
	C139	C	0.879891	0.879000	0.496540
	C140	C	0.510069	0.122697	0.884606
	C141	C	0.492371	0.123079	0.127490
	C142	C	0.510142	0.880911	0.125689
	C143	C	0.492263	0.879526	0.882401
	C144	C	0.382085	0.886760	0.681577
	C145	C	0.621332	0.116441	0.682754
	C146	C	0.621212	0.887057	0.328527
	C147	C	0.382093	0.116646	0.329806
	C148	C	0.677057	0.382579	0.891128
	C149	C	0.675867	0.620968	0.120843
	C150	C	0.324067	0.619806	0.890471
	C151	C	0.325488	0.384595	0.121941
	C152	C	0.885847	0.676432	0.388238
	C153	C	0.116775	0.677031	0.625279
	C154	C	0.885876	0.325199	0.625019
	C155	C	0.116995	0.324934	0.386850
	C156	C	0.885641	0.382713	0.682085
	C157	C	0.116676	0.619957	0.682737
	C158	C	0.885421	0.618707	0.331873
	C159	C	0.116730	0.382247	0.329631
	C160	C	0.381067	0.677936	0.890283
	C161	C	0.619753	0.679535	0.119932
	C162	C	0.620162	0.324447	0.891277
	C163	C	0.381610	0.325611	0.121332
	C164	C	0.678140	0.887179	0.385781
	C165	C	0.677734	0.116734	0.624115
	C166	C	0.325172	0.886541	0.623697
	C167	C	0.324604	0.116481	0.387415
	C168	C	0.881166	0.386413	0.182553
	C169	C	0.118701	0.616341	0.183202
	C170	C	0.119611	0.386721	0.829579
	C171	C	0.880391	0.616569	0.829795
	C172	C	0.176866	0.883022	0.389811
	C173	C	0.177187	0.120029	0.620800
	C174	C	0.826041	0.118585	0.389910
	C175	C	0.824931	0.882783	0.620474
	C176	C	0.385572	0.177051	0.887282
	C177	C	0.616410	0.177977	0.124966
	C178	C	0.385626	0.827250	0.122794
	C179	C	0.616372	0.823942	0.884981
	C180	C	0.386034	0.883950	0.180515
	C181	C	0.616789	0.120497	0.181980
	C182	C	0.385748	0.119699	0.830188
	C183	C	0.616880	0.881689	0.828421
	C184	C	0.882286	0.177196	0.390520
	C185	C	0.121173	0.178504	0.620362
	C186	C	0.120065	0.825096	0.389816
	C187	C	0.882592	0.825230	0.620502
	C188	C	0.176639	0.386372	0.887722
	C189	C	0.176013	0.616572	0.125896
	C190	C	0.824241	0.386067	0.124408
	C191	C	0.823905	0.616681	0.888207
	C192	C	0.402247	0.096329	0.605864
	C193	C	0.600869	0.906975	0.604833
	C194	C	0.601199	0.096825	0.405766
	C195	C	0.401440	0.906619	0.404506
	C196	C	0.600487	0.401734	0.101386
	C197	C	0.599609	0.600316	0.910613
	C198	C	0.401077	0.603191	0.100972
	C199	C	0.401121	0.401157	0.911163
	C200	C	0.097616	0.600881	0.406125
	C201	C	0.905612	0.601442	0.606079
	C202	C	0.096372	0.402190	0.605261
	C203	C	0.905967	0.401536	0.407190
	C204	C	0.900004	0.596488	0.107756
	C205	C	0.100645	0.406118	0.106500
	C206	C	0.100311	0.596597	0.906599
	C207	C	0.902064	0.407310	0.906539
	C208	C	0.101157	0.900697	0.600509
	C209	C	0.101062	0.101604	0.410164
	C210	C	0.901896	0.101353	0.600673
	C211	C	0.902014	0.900011	0.410294
	C212	C	0.596552	0.100912	0.906663
	C213	C	0.405542	0.101069	0.105615
	C214	C	0.596929	0.902670	0.103824
	C215	C	0.405817	0.901810	0.904393
	Zn216	Zn	0.501759	0.001643	0.755842
	Zn217	Zn	0.501473	0.001312	0.255457
	Zn218	Zn	0.750556	0.501738	0.006318
	Zn219	Zn	0.250622	0.501744	0.006760
	Zn220	Zn	0.001764	0.750288	0.505612
	Zn221	Zn	0.001638	0.251511	0.505786
	Zn222	Zn	0.000425	0.501895	0.755993
	Zn223	Zn	0.000679	0.501338	0.257002
	Zn224	Zn	0.500859	0.752477	0.004932
	Zn225	Zn	0.500593	0.251074	0.006174
	Zn226	Zn	0.751440	0.001443	0.505086
	Zn227	Zn	0.251170	0.001340	0.505464
	N228	N	0.415786	0.964522	0.683774
	N229	N	0.588230	0.038556	0.684756
	N230	N	0.587588	0.964787	0.326895
	N231	N	0.415383	0.038836	0.326996
	N232	N	0.678564	0.416138	0.969099
	N233	N	0.677254	0.586530	0.043220
	N234	N	0.322615	0.587239	0.968598
	N235	N	0.323916	0.417589	0.043954
	N236	N	0.964452	0.678414	0.420704
	N237	N	0.038548	0.679215	0.591973
	N238	N	0.964202	0.323489	0.591625
	N239	N	0.038849	0.323121	0.420287
	N240	N	0.963683	0.416485	0.683522
	N241	N	0.038076	0.587416	0.684808
	N242	N	0.963862	0.585809	0.329831
	N243	N	0.038331	0.415597	0.328189
	N244	N	0.414287	0.680951	0.968335
	N245	N	0.586662	0.680873	0.041878
	N246	N	0.586847	0.322705	0.969261
	N247	N	0.414341	0.322866	0.043151
	N248	N	0.679478	0.964964	0.419385
	N249	N	0.678812	0.039075	0.590155
	N250	N	0.323414	0.964372	0.590904
	N251	N	0.323099	0.038529	0.420196
	N252	N	0.913911	0.464415	0.185696
	N253	N	0.085814	0.538301	0.184970
	N254	N	0.086327	0.464633	0.827921
	N255	N	0.914077	0.538837	0.827611
	N256	N	0.178953	0.915964	0.467875
	N257	N	0.178444	0.086309	0.542882
	N258	N	0.824767	0.085325	0.467680
	N259	N	0.823158	0.915489	0.542381
	N260	N	0.463757	0.179079	0.920443
	N261	N	0.538139	0.179669	0.092014
	N262	N	0.463879	0.825014	0.089694
	N263	N	0.537785	0.822354	0.918042
	N264	N	0.464499	0.916547	0.182472
	N265	N	0.538602	0.086826	0.183464
	N266	N	0.463914	0.086271	0.828617
	N267	N	0.538953	0.915429	0.826848
	N268	N	0.915223	0.180000	0.468758
	N269	N	0.088032	0.180425	0.542365
	N270	N	0.087485	0.822375	0.468143
	N271	N	0.915925	0.822623	0.542656
	N272	N	0.178538	0.464247	0.921204
	N273	N	0.178129	0.538778	0.092519
	N274	N	0.822168	0.464188	0.091898
	N275	N	0.823140	0.539137	0.921710
	O276	O	0.508726	0.531585	0.533124
	H277	H	0.504514	0.527044	0.535895
	H278	H	0.503508	0.525784	0.535624
	O279	O	0.027882	0.021814	-0.047244
	H280	H	0.034181	0.016017	-0.054086
	H281	H	0.033179	0.022056	-0.044566
	O282	O	0.554274	0.568254	0.500767
	H283	H	0.551643	0.563956	0.502922
	H284	H	0.557687	0.576445	0.498699
	O285	O	0.510402	0.469099	0.531677
	H286	H	0.516671	0.470718	0.530896
	H287	H	0.505427	0.456020	0.530704
	O288	O	1.015334	0.022356	-0.043524
	H289	H	1.015375	0.023034	-0.054673
	H290	H	1.023025	0.029934	-0.047897
	O291	O	-0.484892	0.483910	-0.465800
	H292	H	-0.476193	0.484928	-0.465512
	H293	H	-0.483357	0.472584	-0.469086
	O294	O	0.499320	0.521309	0.518455
	H295	H	0.494396	0.522517	0.528784
	H296	H	0.503645	0.522691	0.521776
	O297	O	0.532228	1.520253	-0.467583
	H298	H	0.542317	1.520373	-0.473116
	H299	H	0.521671	1.530140	-0.477326
	O300	O	1.034079	-0.002710	0.959714
	H301	H	1.032751	-0.003737	0.961684
	H302	H	1.030251	-0.006934	0.964713
	O303	O	0.469354	0.479320	0.563747
	H304	H	0.464311	0.485743	0.570536
	H305	H	0.463499	0.483791	0.557579
	O306	O	0.039110	1.001580	0.981373
	H307	H	0.037356	1.006854	0.982591
	H308	H	0.032152	0.999607	0.984514
	O309	O	0.493304	0.531603	0.509199
	H310	H	0.501524	0.533282	0.513157
	H311	H	0.495339	0.534941	0.511192
