data_Molecule from HDF5

_cell_length_a		16.264072
_cell_length_b		16.239241
_cell_length_c		16.154631
_cell_angle_alpha	89.829694
_cell_angle_beta	90.030851
_cell_angle_gamma	90.041174
_symmetry_space_group_name_H-M	'P 1'
_symmetry_Int_Tables_number		1

loop_
	_symmetry_equiv_pos_as_xyz
	x,y,z

loop_
	_atom_site_label
	_atom_site_type_symbol
	_atom_site_fract_x
	_atom_site_fract_y
	_atom_site_fract_z
	H0	H	0.410802	0.838613	0.717821
	H1	H	0.605051	0.167235	0.718541
	H2	H	0.605888	0.839267	0.292304
	H3	H	0.409027	0.168190	0.291244
	H4	H	0.720818	0.403891	0.840465
	H5	H	0.721071	0.600192	0.169977
	H6	H	0.293926	0.602800	0.840366
	H7	H	0.293855	0.403454	0.169589
	H8	H	0.842895	0.717309	0.404590
	H9	H	0.171021	0.715713	0.602258
	H10	H	0.843685	0.287107	0.604902
	H11	H	0.171138	0.288586	0.407862
	H12	H	0.843592	0.402986	0.721252
	H13	H	0.171818	0.598401	0.717503
	H14	H	0.843022	0.600454	0.290125
	H15	H	0.171585	0.404791	0.292222
	H16	H	0.409901	0.716440	0.839871
	H17	H	0.608023	0.717000	0.169133
	H18	H	0.606053	0.288289	0.841009
	H19	H	0.409319	0.288942	0.169851
	H20	H	0.723385	0.840571	0.405036
	H21	H	0.722990	0.166386	0.605783
	H22	H	0.292460	0.839165	0.605066
	H23	H	0.292048	0.167429	0.406184
	H24	H	0.910962	0.338298	0.217941
	H25	H	0.105814	0.667497	0.218205
	H26	H	0.104726	0.337071	0.792664
	H27	H	0.909983	0.666689	0.790697
	H28	H	0.221758	0.904391	0.339725
	H29	H	0.219581	0.100264	0.670753
	H30	H	0.792664	0.103509	0.341909
	H31	H	0.792896	0.902667	0.670077
	H32	H	0.343618	0.217647	0.905851
	H33	H	0.669569	0.218110	0.105860
	H34	H	0.342995	0.786443	0.104911
	H35	H	0.670905	0.788977	0.906337
	H36	H	0.342195	0.905409	0.219532
	H37	H	0.670996	0.100729	0.218530
	H38	H	0.343494	0.101869	0.790222
	H39	H	0.670288	0.904973	0.790494
	H40	H	0.908178	0.217124	0.341222
	H41	H	0.104934	0.215670	0.669787
	H42	H	0.103388	0.791059	0.339114
	H43	H	0.906940	0.786939	0.669180
	H44	H	0.222950	0.337929	0.906972
	H45	H	0.222838	0.666701	0.103517
	H46	H	0.791218	0.339518	0.106635
	H47	H	0.791733	0.665843	0.903740
	H48	H	0.408419	0.121857	0.597666
	H49	H	0.610031	0.882408	0.598991
	H50	H	0.599200	0.119614	0.413401
	H51	H	0.416280	0.886781	0.411821
	H52	H	0.601065	0.411078	0.123493
	H53	H	0.600200	0.603833	0.884599
	H54	H	0.418244	0.583826	0.118260
	H55	H	0.416978	0.404448	0.885768
	H56	H	0.126343	0.596780	0.403807
	H57	H	0.888125	0.604290	0.593081
	H58	H	0.126131	0.404587	0.602073
	H59	H	0.891387	0.403532	0.422534
	H60	H	0.123159	0.407697	0.593028
	H61	H	0.893529	0.586877	0.592449
	H62	H	0.124085	0.604105	0.415864
	H63	H	0.893680	0.420064	0.410110
	H64	H	0.423224	0.603586	0.123350
	H65	H	0.607140	0.592122	0.885833
	H66	H	0.599313	0.409674	0.122285
	H67	H	0.409161	0.412663	0.886104
	H68	H	0.601618	0.120849	0.414050
	H69	H	0.594546	0.885010	0.605784
	H70	H	0.414000	0.122174	0.601523
	H71	H	0.412961	0.887198	0.416936
	H72	H	0.920157	0.617703	0.098120
	H73	H	0.093018	0.385444	0.105713
	H74	H	0.092459	0.617865	0.907369
	H75	H	0.916040	0.385995	0.913303
	H76	H	0.095364	0.914040	0.619525
	H77	H	0.099699	0.089908	0.388650
	H78	H	0.919280	0.096642	0.623264
	H79	H	0.917235	0.900948	0.385746
	H80	H	0.620644	0.087299	0.914906
	H81	H	0.395479	0.088671	0.084669
	H82	H	0.622662	0.909526	0.096429
	H83	H	0.391270	0.917719	0.908966
	H84	H	0.623928	0.910695	0.099754
	H85	H	0.388810	0.086659	0.110863
	H86	H	0.627025	0.097658	0.905286
	H87	H	0.385931	0.902721	0.905694
	H88	H	0.911417	0.095631	0.624911
	H89	H	0.095064	0.100343	0.387684
	H90	H	0.098032	0.900716	0.624139
	H91	H	0.903717	0.914437	0.385737
	H92	H	0.101563	0.616134	0.921458
	H93	H	0.102391	0.388689	0.088068
	H94	H	0.910777	0.619299	0.091236
	H95	H	0.913436	0.385896	0.916184
	H96	H	0.414303	0.118772	0.594961
	H97	H	0.597932	0.889700	0.589319
	H98	H	0.600239	0.121402	0.411561
	H99	H	0.410190	0.885859	0.411861
	H100	H	0.601500	0.408425	0.123534
	H101	H	0.593576	0.592309	0.890527
	H102	H	0.403789	0.596484	0.126935
	H103	H	0.418963	0.414374	0.889270
	H104	H	0.120571	0.590208	0.415692
	H105	H	0.887932	0.594050	0.608711
	H106	H	0.123418	0.413843	0.600798
	H107	H	0.885384	0.402927	0.402653
	H108	H	0.910304	0.623018	0.102321
	H109	H	0.112037	0.380800	0.103936
	H110	H	0.108174	0.622189	0.908035
	H111	H	0.912664	0.384355	0.912123
	H112	H	0.108456	0.910533	0.624058
	H113	H	0.105439	0.098362	0.384758
	H114	H	0.915799	0.089849	0.621440
	H115	H	0.922002	0.918009	0.391639
	H116	H	0.623842	0.101812	0.919641
	H117	H	0.385626	0.110659	0.097827
	H118	H	0.623804	0.907410	0.098569
	H119	H	0.391380	0.906588	0.920891
	C120	C	0.384887	0.012003	0.626816
	C121	C	0.629326	0.994317	0.626956
	C122	C	0.629047	0.012185	0.383792
	C123	C	0.385215	0.995072	0.384348
	C124	C	0.628834	0.381444	0.013937
	C125	C	0.629013	0.624395	0.995933
	C126	C	0.386602	0.623934	0.013732
	C127	C	0.386481	0.381491	0.996185
	C128	C	0.015488	0.625050	0.382827
	C129	C	0.998629	0.623422	0.626166
	C130	C	0.015911	0.379779	0.627733
	C131	C	0.998871	0.380955	0.383886
	C132	C	0.885823	0.511526	0.126322
	C133	C	0.130199	0.493966	0.126896
	C134	C	0.129599	0.510432	0.883876
	C135	C	0.885575	0.493903	0.883670
	C136	C	0.128696	0.880841	0.513338
	C137	C	0.128338	0.123933	0.496555
	C138	C	0.886375	0.123640	0.514709
	C139	C	0.885401	0.881463	0.496626
	C140	C	0.515654	0.124653	0.883624
	C141	C	0.498180	0.124224	0.126734
	C142	C	0.514927	0.880616	0.127368
	C143	C	0.497949	0.881029	0.883466
	C144	C	0.389067	0.887823	0.681100
	C145	C	0.626290	0.118004	0.681832
	C146	C	0.626309	0.888716	0.329199
	C147	C	0.388082	0.119015	0.328993
	C148	C	0.683306	0.383690	0.889695
	C149	C	0.683882	0.621293	0.120430
	C150	C	0.331794	0.622340	0.889486
	C151	C	0.331488	0.383315	0.120281
	C152	C	0.891960	0.679803	0.384584
	C153	C	0.121922	0.678262	0.623306
	C154	C	0.892508	0.324754	0.625507
	C155	C	0.122506	0.326494	0.387172
	C156	C	0.892351	0.382455	0.683049
	C157	C	0.122617	0.620035	0.680350
	C158	C	0.891924	0.621698	0.327631
	C159	C	0.122613	0.384337	0.329751
	C160	C	0.389234	0.678899	0.889386
	C161	C	0.627487	0.679270	0.120140
	C162	C	0.625996	0.326308	0.890005
	C163	C	0.388873	0.326528	0.120481
	C164	C	0.684774	0.889200	0.385628
	C165	C	0.684897	0.117531	0.625767
	C166	C	0.330065	0.888183	0.625344
	C167	C	0.329872	0.118574	0.385856
	C168	C	0.889226	0.387630	0.180903
	C169	C	0.126848	0.618043	0.181171
	C170	C	0.126498	0.386379	0.829611
	C171	C	0.888893	0.617424	0.828146
	C172	C	0.183319	0.884237	0.388867
	C173	C	0.182534	0.120747	0.621015
	C174	C	0.830705	0.122819	0.390753
	C175	C	0.830327	0.882610	0.620614
	C176	C	0.392308	0.179459	0.885790
	C177	C	0.621077	0.179831	0.125421
	C178	C	0.391667	0.824844	0.125291
	C179	C	0.621787	0.826566	0.885933
	C180	C	0.391279	0.883928	0.182210
	C181	C	0.621485	0.121862	0.181836
	C182	C	0.392286	0.121920	0.828456
	C183	C	0.621535	0.884226	0.828478
	C184	C	0.888112	0.179252	0.390550
	C185	C	0.125441	0.178005	0.620865
	C186	C	0.125188	0.827541	0.388645
	C187	C	0.887155	0.825168	0.620187
	C188	C	0.185005	0.387052	0.886184
	C189	C	0.184946	0.617684	0.124180
	C190	C	0.830156	0.388208	0.125361
	C191	C	0.830183	0.617144	0.884342
	C192	C	0.405959	0.098473	0.604599
	C193	C	0.607301	0.908038	0.604660
	C194	C	0.606803	0.098351	0.406297
	C195	C	0.406806	0.909113	0.406959
	C196	C	0.607092	0.403255	0.100672
	C197	C	0.606887	0.602557	0.909415
	C198	C	0.408806	0.601322	0.100438
	C199	C	0.408557	0.403853	0.909341
	C200	C	0.101430	0.603464	0.405176
	C201	C	0.912308	0.601493	0.604618
	C202	C	0.102047	0.402075	0.605311
	C203	C	0.912501	0.402567	0.405258
	C204	C	0.907430	0.597706	0.103912
	C205	C	0.108937	0.407367	0.105437
	C206	C	0.107287	0.596454	0.905874
	C207	C	0.907605	0.407715	0.907014
	C208	C	0.106997	0.902088	0.600109
	C209	C	0.106479	0.102594	0.409365
	C210	C	0.908884	0.100713	0.601019
	C211	C	0.907672	0.904463	0.409987
	C212	C	0.601717	0.102269	0.906472
	C213	C	0.412124	0.101985	0.104251
	C214	C	0.600939	0.902668	0.104935
	C215	C	0.411735	0.902485	0.905432
	Zn216	Zn	0.507048	0.003497	0.754712
	Zn217	Zn	0.506995	0.003534	0.255467
	Zn218	Zn	0.756989	0.503157	0.004914
	Zn219	Zn	0.258678	0.502725	0.004953
	Zn220	Zn	0.005991	0.753229	0.504769
	Zn221	Zn	0.007086	0.251887	0.505550
	Zn222	Zn	0.007586	0.501885	0.755388
	Zn223	Zn	0.007268	0.502873	0.254816
	Zn224	Zn	0.507360	0.751862	0.004893
	Zn225	Zn	0.506835	0.253260	0.005383
	Zn226	Zn	0.757829	0.003347	0.505772
	Zn227	Zn	0.256144	0.002906	0.505622
	N228	N	0.422299	0.965817	0.682171
	N229	N	0.592465	0.040205	0.682756
	N230	N	0.592276	0.966191	0.328030
	N231	N	0.421700	0.041289	0.327771
	N232	N	0.685113	0.417441	0.967712
	N233	N	0.684970	0.587924	0.042216
	N234	N	0.330040	0.588582	0.967900
	N235	N	0.330066	0.416995	0.041990
	N236	N	0.969643	0.681924	0.418236
	N237	N	0.043814	0.680402	0.590216
	N238	N	0.970231	0.323099	0.591876
	N239	N	0.044620	0.324439	0.420333
	N240	N	0.970068	0.415952	0.684392
	N241	N	0.044995	0.586630	0.682180
	N242	N	0.969599	0.588303	0.326429
	N243	N	0.044792	0.417398	0.327537
	N244	N	0.422555	0.679841	0.967543
	N245	N	0.593977	0.681060	0.041990
	N246	N	0.592883	0.324906	0.968286
	N247	N	0.422573	0.325530	0.042394
	N248	N	0.686729	0.967159	0.418759
	N249	N	0.686714	0.039746	0.592264
	N250	N	0.327357	0.966238	0.592197
	N251	N	0.327874	0.040689	0.419737
	N252	N	0.923230	0.465090	0.181548
	N253	N	0.093437	0.540093	0.183196
	N254	N	0.092600	0.463885	0.828009
	N255	N	0.922502	0.539591	0.827635
	N256	N	0.185624	0.916658	0.467385
	N257	N	0.184124	0.087754	0.542673
	N258	N	0.829376	0.089087	0.468952
	N259	N	0.828915	0.916764	0.542625
	N260	N	0.470031	0.181077	0.919778
	N261	N	0.543386	0.181296	0.091678
	N262	N	0.469670	0.822563	0.092097
	N263	N	0.544121	0.824505	0.919476
	N264	N	0.468914	0.917630	0.183594
	N265	N	0.544088	0.087636	0.182337
	N266	N	0.469995	0.088519	0.827193
	N267	N	0.543796	0.917530	0.826906
	N268	N	0.922129	0.179880	0.468592
	N269	N	0.092407	0.179885	0.542473
	N270	N	0.092099	0.825027	0.467000
	N271	N	0.920994	0.824612	0.542163
	N272	N	0.187051	0.465225	0.919117
	N273	N	0.187162	0.539724	0.091334
	N274	N	0.827755	0.466285	0.091968
	N275	N	0.828186	0.539336	0.918276
	O276	O	0.520408	0.554006	0.461613
	H277	H	0.521881	0.562444	0.467399
	H278	H	0.528743	0.565241	0.461581
	O279	O	-0.060519	0.016220	-0.026042
	H280	H	-0.060637	0.009450	-0.026190
	H281	H	-0.065455	0.010017	-0.019103
	O282	O	0.471032	0.567325	0.450821
	H283	H	0.472866	0.565807	0.447277
	H284	H	0.477333	0.566640	0.460708
	O285	O	0.537374	0.597979	0.473956
	H286	H	0.525994	0.598245	0.469696
	H287	H	0.534363	0.606749	0.474682
	O288	O	0.975844	-0.005773	-0.016938
	H289	H	0.970366	0.003581	-0.019441
	H290	H	0.975622	0.003155	-0.007847
	O291	O	-0.523460	0.571108	-0.542550
	H292	H	-0.531333	0.574636	-0.544466
	H293	H	-0.527924	0.575019	-0.550162
	O294	O	0.497719	0.568883	0.473351
	H295	H	0.500824	0.571264	0.471227
	H296	H	0.505046	0.568523	0.475945
	O297	O	-0.052466	0.953182	0.004950
	H298	H	-0.044285	0.948921	0.004205
	H299	H	-0.048087	0.950099	-0.002700
	O300	O	0.944561	-0.029062	1.017863
	H301	H	0.949683	-0.034674	1.014986
	H302	H	0.935942	-0.025189	1.024989
	O303	O	0.531346	0.540511	0.448123
	H304	H	0.533984	0.539979	0.451846
	H305	H	0.523151	0.542434	0.442177
	O306	O	-0.050077	1.035543	0.972497
	H307	H	-0.051956	1.040834	0.961255
	H308	H	-0.058940	1.038002	0.975941
	O309	O	0.474606	0.589417	0.448427
	H310	H	0.471309	0.577253	0.445803
	H311	H	0.467772	0.587330	0.438807
