data_Molecule from HDF5

_cell_length_a		16.593117
_cell_length_b		16.552394
_cell_length_c		16.405111
_cell_angle_alpha	89.984995
_cell_angle_beta	90.003763
_cell_angle_gamma	89.949334
_symmetry_space_group_name_H-M	'P 1'
_symmetry_Int_Tables_number		1

loop_
	_symmetry_equiv_pos_as_xyz
	x,y,z

loop_
	_atom_site_label
	_atom_site_type_symbol
	_atom_site_fract_x
	_atom_site_fract_y
	_atom_site_fract_z
	H0	H	0.389108	0.856261	0.724888
	H1	H	0.594940	0.171367	0.720345
	H2	H	0.598125	0.856077	0.282232
	H3	H	0.392484	0.171399	0.284481
	H4	H	0.712083	0.409682	0.843229
	H5	H	0.715108	0.616294	0.161083
	H6	H	0.273922	0.619114	0.845480
	H7	H	0.269842	0.405664	0.159162
	H8	H	0.838605	0.734132	0.398580
	H9	H	0.150827	0.736321	0.609587
	H10	H	0.837821	0.293150	0.607758
	H11	H	0.148665	0.288577	0.395146
	H12	H	0.837131	0.411809	0.722151
	H13	H	0.153010	0.616005	0.722079
	H14	H	0.837425	0.618651	0.281384
	H15	H	0.150082	0.407380	0.280242
	H16	H	0.389222	0.734954	0.846473
	H17	H	0.599347	0.733706	0.161411
	H18	H	0.595133	0.295056	0.843069
	H19	H	0.388571	0.291341	0.160350
	H20	H	0.714886	0.856085	0.398610
	H21	H	0.714356	0.170374	0.606384
	H22	H	0.271213	0.857085	0.610633
	H23	H	0.273245	0.169889	0.397275
	H24	H	0.892750	0.355335	0.222605
	H25	H	0.100578	0.669903	0.226659
	H26	H	0.095916	0.355242	0.785476
	H27	H	0.894659	0.672162	0.786982
	H28	H	0.217475	0.905873	0.344719
	H29	H	0.215542	0.117672	0.661374
	H30	H	0.772999	0.118473	0.345238
	H31	H	0.775306	0.911037	0.661141
	H32	H	0.336325	0.233020	0.900256
	H33	H	0.649867	0.236474	0.109349
	H34	H	0.338714	0.789255	0.112251
	H35	H	0.650545	0.792152	0.899496
	H36	H	0.337230	0.909323	0.224561
	H37	H	0.651451	0.116120	0.222923
	H38	H	0.336422	0.116190	0.783744
	H39	H	0.651102	0.910675	0.784595
	H40	H	0.887387	0.236628	0.346240
	H41	H	0.097355	0.232439	0.662081
	H42	H	0.100236	0.790886	0.343906
	H43	H	0.891320	0.793566	0.660905
	H44	H	0.216045	0.357114	0.898081
	H45	H	0.218582	0.669356	0.111475
	H46	H	0.774334	0.355271	0.107095
	H47	H	0.774690	0.670420	0.900096
	H48	H	0.406005	0.121410	0.583008
	H49	H	0.588477	0.899783	0.589290
	H50	H	0.584793	0.125093	0.414768
	H51	H	0.401939	0.901281	0.421220
	H52	H	0.588473	0.427687	0.116179
	H53	H	0.587263	0.601545	0.888874
	H54	H	0.411803	0.603561	0.115971
	H55	H	0.405437	0.431976	0.892376
	H56	H	0.105816	0.603370	0.416431
	H57	H	0.884820	0.602010	0.587770
	H58	H	0.106608	0.421207	0.590958
	H59	H	0.883561	0.426828	0.415941
	H60	H	0.106928	0.423323	0.593384
	H61	H	0.881786	0.600908	0.598612
	H62	H	0.105130	0.598829	0.416599
	H63	H	0.882849	0.424925	0.414155
	H64	H	0.400796	0.603157	0.119697
	H65	H	0.580918	0.599061	0.892440
	H66	H	0.579029	0.425144	0.114655
	H67	H	0.410763	0.421844	0.891725
	H68	H	0.585347	0.126516	0.413657
	H69	H	0.587074	0.897997	0.597044
	H70	H	0.396796	0.127988	0.593744
	H71	H	0.402787	0.898677	0.409326
	H72	H	0.906140	0.625385	0.094049
	H73	H	0.090958	0.399332	0.089711
	H74	H	0.086508	0.625211	0.919057
	H75	H	0.903189	0.397798	0.909386
	H76	H	0.078912	0.917851	0.616150
	H77	H	0.084303	0.098090	0.391401
	H78	H	0.904138	0.103935	0.617264
	H79	H	0.901398	0.920903	0.385837
	H80	H	0.608179	0.109427	0.912854
	H81	H	0.381765	0.110049	0.087726
	H82	H	0.605114	0.924334	0.089479
	H83	H	0.380059	0.923808	0.910700
	H84	H	0.605177	0.924332	0.093236
	H85	H	0.384958	0.096655	0.087277
	H86	H	0.605258	0.102674	0.916361
	H87	H	0.381840	0.920032	0.918504
	H88	H	0.903723	0.101224	0.616019
	H89	H	0.080246	0.101741	0.391044
	H90	H	0.089677	0.927344	0.616070
	H91	H	0.903431	0.928861	0.389855
	H92	H	0.088776	0.628669	0.910029
	H93	H	0.076576	0.402439	0.096758
	H94	H	0.904681	0.622911	0.087586
	H95	H	0.901617	0.399650	0.913171
	H96	H	0.411467	0.124175	0.597392
	H97	H	0.581552	0.901622	0.593185
	H98	H	0.583466	0.126435	0.413357
	H99	H	0.411817	0.903507	0.415428
	H100	H	0.585694	0.418443	0.118899
	H101	H	0.581097	0.606540	0.889628
	H102	H	0.405429	0.594216	0.114637
	H103	H	0.400300	0.423268	0.887169
	H104	H	0.106253	0.600735	0.412638
	H105	H	0.880457	0.610239	0.593173
	H106	H	0.108240	0.420523	0.593973
	H107	H	0.882942	0.424133	0.416709
	H108	H	0.900305	0.626728	0.090908
	H109	H	0.079522	0.406957	0.081357
	H110	H	0.079432	0.625787	0.912317
	H111	H	0.899235	0.397724	0.910122
	H112	H	0.077234	0.931003	0.609772
	H113	H	0.084982	0.102570	0.389184
	H114	H	0.906507	0.102400	0.615816
	H115	H	0.909544	0.922188	0.390060
	H116	H	0.606721	0.102991	0.908406
	H117	H	0.379746	0.102415	0.099080
	H118	H	0.606094	0.921199	0.090942
	H119	H	0.383972	0.927986	0.916937
	C120	C	0.372217	0.021274	0.624561
	C121	C	0.616051	1.004211	0.624386
	C122	C	0.616370	0.022261	0.381244
	C123	C	0.373462	1.004865	0.382301
	C124	C	0.615089	0.392323	0.011157
	C125	C	0.615272	0.633921	0.994928
	C126	C	0.373879	0.633489	0.012313
	C127	C	0.372815	0.392653	0.994582
	C128	C	0.002502	0.633722	0.382208
	C129	C	0.986505	0.635475	0.624694
	C130	C	0.003015	0.391617	0.624448
	C131	C	0.985576	0.391681	0.381780
	C132	C	0.872871	0.521152	0.123256
	C133	C	0.115977	0.505593	0.124025
	C134	C	0.116123	0.522230	0.882090
	C135	C	0.872083	0.503705	0.880925
	C136	C	0.115640	0.891720	0.510171
	C137	C	0.115086	0.133594	0.494805
	C138	C	0.872442	0.134868	0.511857
	C139	C	0.873440	0.892257	0.493757
	C140	C	0.502706	0.135369	0.881254
	C141	C	0.485820	0.134932	0.123907
	C142	C	0.502400	0.891306	0.124694
	C143	C	0.485443	0.891881	0.882489
	C144	C	0.370563	0.903393	0.685066
	C145	C	0.615225	0.123683	0.681989
	C146	C	0.617185	0.903381	0.322077
	C147	C	0.372881	0.123608	0.323101
	C148	C	0.672719	0.391326	0.891098
	C149	C	0.675118	0.635164	0.113881
	C150	C	0.313603	0.637137	0.893287
	C151	C	0.311274	0.388647	0.112506
	C152	C	0.885116	0.694267	0.379810
	C153	C	0.104469	0.695188	0.626921
	C154	C	0.884773	0.333046	0.626395
	C155	C	0.102471	0.329857	0.377785
	C156	C	0.884593	0.391979	0.683199
	C157	C	0.105505	0.635605	0.683072
	C158	C	0.884749	0.636540	0.321742
	C159	C	0.103157	0.388747	0.320613
	C160	C	0.371062	0.694735	0.893702
	C161	C	0.617459	0.693259	0.114390
	C162	C	0.614445	0.334335	0.890932
	C163	C	0.369956	0.331805	0.113142
	C164	C	0.675323	0.903511	0.379698
	C165	C	0.674186	0.123193	0.625181
	C166	C	0.311751	0.903875	0.628191
	C167	C	0.313531	0.122822	0.379328
	C168	C	0.872935	0.402338	0.182776
	C169	C	0.119031	0.622888	0.186159
	C170	C	0.115996	0.403009	0.823921
	C171	C	0.873801	0.624125	0.824783
	C172	C	0.176538	0.888372	0.391674
	C173	C	0.175343	0.135992	0.613857
	C174	C	0.812546	0.137120	0.392830
	C175	C	0.815101	0.891748	0.613679
	C176	C	0.383650	0.193790	0.880730
	C177	C	0.603222	0.195641	0.127178
	C178	C	0.385306	0.830186	0.129323
	C179	C	0.603313	0.832143	0.880525
	C180	C	0.384690	0.889835	0.185215
	C181	C	0.604239	0.135962	0.183597
	C182	C	0.383839	0.135738	0.822791
	C183	C	0.603650	0.891086	0.823434
	C184	C	0.869533	0.195658	0.393226
	C185	C	0.116520	0.192939	0.614291
	C186	C	0.118433	0.831042	0.391385
	C187	C	0.872595	0.833582	0.613466
	C188	C	0.175705	0.403952	0.879811
	C189	C	0.177517	0.622751	0.128834
	C190	C	0.814395	0.402384	0.125348
	C191	C	0.814108	0.623112	0.880810
	C192	C	0.397413	0.103296	0.598654
	C193	C	0.592463	0.921295	0.600297
	C194	C	0.591577	0.104654	0.406553
	C195	C	0.398303	0.922463	0.408066
	C196	C	0.591214	0.416616	0.094803
	C197	C	0.590214	0.609526	0.912091
	C198	C	0.398931	0.607749	0.095018
	C199	C	0.398408	0.418374	0.911734
	C200	C	0.084512	0.608233	0.407863
	C201	C	0.903931	0.611235	0.600234
	C202	C	0.085774	0.415053	0.599742
	C203	C	0.904297	0.417618	0.408201
	C204	C	0.896988	0.603511	0.098045
	C205	C	0.090023	0.424288	0.097077
	C206	C	0.091843	0.604944	0.906845
	C207	C	0.894799	0.420154	0.903956
	C208	C	0.089579	0.917944	0.592488
	C209	C	0.090253	0.108277	0.412007
	C210	C	0.897593	0.109853	0.594737
	C211	C	0.897744	0.916994	0.410210
	C212	C	0.585003	0.111707	0.905580
	C213	C	0.403758	0.109967	0.098888
	C214	C	0.584285	0.916212	0.098655
	C215	C	0.403329	0.916655	0.908162
	Zn216	Zn	0.494011	0.013117	0.752863
	Zn217	Zn	0.494176	0.012946	0.252856
	Zn218	Zn	0.743517	0.512484	0.002332
	Zn219	Zn	0.244933	0.514066	0.002964
	Zn220	Zn	-0.005111	0.763825	0.502678
	Zn221	Zn	-0.006044	0.262451	0.503290
	Zn222	Zn	-0.004734	0.513662	0.753336
	Zn223	Zn	-0.005928	0.513310	0.252673
	Zn224	Zn	0.494051	0.762597	0.004269
	Zn225	Zn	0.493706	0.264204	0.002972
	Zn226	Zn	0.744668	0.013444	0.502693
	Zn227	Zn	0.243977	0.012791	0.502565
	N228	N	0.407490	0.977517	0.682925
	N229	N	0.579733	0.048740	0.681656
	N230	N	0.581592	0.978294	0.322517
	N231	N	0.409328	0.049107	0.324759
	N232	N	0.673379	0.426302	0.966989
	N233	N	0.674083	0.599268	0.038571
	N234	N	0.315013	0.599971	0.968145
	N235	N	0.313085	0.425772	0.037657
	N236	N	0.959494	0.692747	0.416581
	N237	N	0.029337	0.695439	0.591614
	N238	N	0.959567	0.332619	0.590615
	N239	N	0.028268	0.331333	0.414964
	N240	N	0.959343	0.427500	0.682229
	N241	N	0.031093	0.599282	0.682018
	N242	N	0.958865	0.599749	0.323148
	N243	N	0.029562	0.426378	0.323012
	N244	N	0.407767	0.692707	0.968667
	N245	N	0.581041	0.692761	0.039298
	N246	N	0.579327	0.334700	0.966819
	N247	N	0.407619	0.334412	0.038758
	N248	N	0.675014	0.978532	0.415558
	N249	N	0.675097	0.047803	0.590415
	N250	N	0.312802	0.978187	0.591189
	N251	N	0.313339	0.047695	0.414970
	N252	N	0.908507	0.477108	0.181616
	N253	N	0.081320	0.549031	0.183212
	N254	N	0.079910	0.477732	0.825051
	N255	N	0.908755	0.548728	0.824263
	N256	N	0.175072	0.925295	0.466677
	N257	N	0.174686	0.100081	0.538350
	N258	N	0.814368	0.099967	0.467678
	N259	N	0.815332	0.927288	0.537943
	N260	N	0.458517	0.194165	0.916045
	N261	N	0.528564	0.195094	0.090992
	N262	N	0.459630	0.830973	0.092426
	N263	N	0.528667	0.832405	0.916340
	N264	N	0.458506	0.927087	0.182449
	N265	N	0.530281	0.098850	0.181839
	N266	N	0.458681	0.100246	0.822881
	N267	N	0.529116	0.927377	0.824475
	N268	N	0.906323	0.194001	0.468073
	N269	N	0.079871	0.191628	0.539252
	N270	N	0.081498	0.832933	0.466288
	N271	N	0.908018	0.833803	0.537812
	N272	N	0.175943	0.479129	0.915050
	N273	N	0.175669	0.548859	0.091002
	N274	N	0.814154	0.477205	0.089173
	N275	N	0.812871	0.547234	0.914662
	O276	O	0.876194	1.098787	0.003451
	H277	H	0.871200	1.105854	-0.004197
	H278	H	0.884086	1.096605	0.007734
	O279	O	-0.005759	-0.168232	0.892320
	H280	H	-0.006273	-0.160975	0.890967
	H281	H	-0.009970	-0.167984	0.901644
	O282	O	0.356539	0.651906	0.681843
	H283	H	0.348141	0.653600	0.671299
	H284	H	0.371833	0.632642	0.682311
	O285	O	0.196866	-0.025215	0.813679
	H286	H	0.195179	-0.040865	0.822433
	H287	H	0.215670	-0.036549	0.793313
	O288	O	1.017511	0.011929	0.905260
	H289	H	1.026089	0.028904	0.892999
	H290	H	1.012823	0.007366	0.926185
	O291	O	0.367740	0.565485	0.465437
	H292	H	0.363057	0.556842	0.469760
	H293	H	0.379308	0.571012	0.479305
	O294	O	-0.198578	0.012077	-0.012601
	H295	H	-0.193296	0.015627	-0.016759
	H296	H	-0.205281	0.025302	-0.027807
	O297	O	1.099812	0.142918	0.142492
	H298	H	1.085210	0.151156	0.127684
	H299	H	1.119741	0.167994	0.157264
	O300	O	-0.004058	-0.092726	0.216033
	H301	H	0.004442	-0.121887	0.214741
	H302	H	0.021168	-0.088026	0.215082
	O303	O	-0.294825	-0.302285	-0.289600
	H304	H	-0.260524	-0.272256	-0.258424
	H305	H	-0.299938	-0.296901	-0.320905
	O306	O	1.016553	-0.008696	-0.194444
	H307	H	1.032154	-0.021498	-0.190842
	H308	H	1.018393	-0.004604	-0.199789
	O309	O	0.782120	0.979981	0.214836
	H310	H	0.770143	0.964334	0.221008
	H311	H	0.763755	0.991812	0.210558
	O312	O	0.089641	0.046467	0.101150
	H313	H	0.086069	0.052897	0.112895
	H314	H	0.102226	0.025699	0.106213
	O315	O	0.603871	0.640754	0.393664
	H316	H	0.597014	0.625363	0.391147
	H317	H	0.601350	0.632197	0.415454
	O318	O	1.007113	0.934672	-0.168031
	H319	H	1.012493	0.938821	-0.174419
	H320	H	1.011069	0.957202	-0.169185
	O321	O	-0.727635	0.330788	0.515786
	H322	H	-0.747248	0.302429	0.526731
	H323	H	-0.713856	0.321732	0.538472
	O324	O	0.970631	0.032209	1.131178
	H325	H	0.975138	0.021346	1.132942
	H326	H	0.964528	0.012260	1.141579
	O327	O	0.790749	0.810117	0.200957
	H328	H	0.797506	0.796260	0.221960
	H329	H	0.778004	0.819219	0.203564
	O330	O	0.470861	0.712773	0.364395
	H331	H	0.459669	0.712923	0.368828
	H332	H	0.483302	0.707371	0.367530
	O333	O	0.709686	0.558261	0.447113
	H334	H	0.706238	0.552077	0.434172
	H335	H	0.710186	0.544204	0.436288
	O336	O	0.823068	-0.163040	0.809257
	H337	H	0.835722	-0.135519	0.820752
	H338	H	0.837706	-0.150861	0.831983
	O339	O	0.361609	0.708755	0.310920
	H340	H	0.371864	0.713442	0.312500
	H341	H	0.360527	0.672915	0.300617
	O342	O	-0.221776	1.223783	-0.052059
	H343	H	-0.236464	1.251598	-0.065930
	H344	H	-0.215170	1.206652	-0.086888
	O345	O	0.089959	0.176297	1.040405
	H346	H	0.080329	0.191174	1.044428
	H347	H	0.096985	0.169908	1.040887
	O348	O	0.525065	0.398225	0.619284
	H349	H	0.489336	0.386830	0.625649
	H350	H	0.526343	0.414555	0.615846
	O351	O	-0.208783	0.187552	0.799421
	H352	H	-0.169296	0.192196	0.789513
	H353	H	-0.230215	0.204332	0.779839
	O354	O	1.133201	-0.199255	1.081196
	H355	H	1.130089	-0.196905	1.100267
	H356	H	1.134450	-0.214251	1.085605
	O357	O	0.487139	0.414640	0.646009
	H358	H	0.498037	0.413410	0.635633
	H359	H	0.504527	0.411495	0.651703
	O360	O	0.401795	0.657837	0.589950
	H361	H	0.407226	0.669550	0.609429
	H362	H	0.410616	0.667408	0.599220
	O363	O	0.199610	0.817525	-0.084340
	H364	H	0.179341	0.811395	-0.086624
	H365	H	0.210537	0.818214	-0.060370
	O366	O	1.166565	0.148564	0.855266
	H367	H	1.152049	0.127151	0.864275
	H368	H	1.156659	0.134479	0.878037
	O369	O	-0.202474	0.154337	1.136800
	H370	H	-0.210332	0.150793	1.115315
	H371	H	-0.186309	0.139488	1.131926
	O372	O	0.205222	1.149329	1.004698
	H373	H	0.201182	1.144289	1.014129
	H374	H	0.219393	1.154564	1.017556
	O375	O	1.034903	-0.085348	0.025324
	H376	H	1.030718	-0.088952	0.024591
	H377	H	1.027876	-0.103004	0.031355
	O378	O	1.708242	-0.531650	0.577506
	H379	H	1.707637	-0.521728	0.582118
	H380	H	1.718080	-0.511167	0.585370
	O381	O	-0.137272	0.869307	0.040403
	H382	H	-0.128044	0.879866	0.055103
	H383	H	-0.150670	0.859189	0.038545
	O384	O	0.366946	0.663935	-0.467705
	H385	H	0.345650	0.675524	-0.469603
	H386	H	0.365169	0.659301	-0.482849
	O387	O	-0.125319	0.797133	0.984913
	H388	H	-0.120022	0.806409	1.013023
	H389	H	-0.142883	0.790562	0.989153
	O390	O	-0.021210	1.219821	0.859610
	H391	H	-0.020114	1.222560	0.857963
	H392	H	-0.014038	1.203244	0.864309
	O393	O	0.157293	0.763994	-0.245669
	H394	H	0.168964	0.755470	-0.246074
	H395	H	0.160318	0.754667	-0.245163
	O396	O	0.385101	0.457279	0.389841
	H397	H	0.384866	0.465381	0.402318
	H398	H	0.389364	0.460523	0.399340
	O399	O	0.351489	0.328793	0.324723
	H400	H	0.350585	0.346819	0.342610
	H401	H	0.339444	0.334404	0.318912
	O402	O	1.306493	0.295620	0.676160
	H403	H	1.278020	0.263897	0.705548
	H404	H	1.315319	0.328222	0.686086
	O405	O	0.677890	0.333509	0.685078
	H406	H	0.660897	0.349905	0.668936
	H407	H	0.663895	0.346117	0.664086
	O408	O	1.090544	0.889940	1.048443
	H409	H	1.094489	0.891915	1.048515
	H410	H	1.081155	0.891239	1.045588
	O411	O	0.704893	0.721477	0.551778
	H412	H	0.708193	0.721047	0.546913
	H413	H	0.709306	0.726907	0.545797
	O414	O	-0.054372	0.209344	0.071968
	H415	H	-0.063999	0.208816	0.059693
	H416	H	-0.049713	0.202670	0.082958
	O417	O	0.333773	0.517377	0.372360
	H418	H	0.331869	0.514429	0.375646
	H419	H	0.351492	0.527130	0.386381
	O420	O	1.097008	-0.047818	0.942617
	H421	H	1.097000	-0.056551	0.963819
	H422	H	1.092638	-0.051885	0.926273
	O423	O	1.455493	0.454520	0.282282
	H424	H	1.441003	0.448383	0.277476
	H425	H	1.458424	0.453260	0.286531
	O426	O	0.654901	0.524035	0.289150
	H427	H	0.645786	0.485054	0.287108
	H428	H	0.658284	0.532910	0.272550
	O429	O	0.563901	0.323584	0.482324
	H430	H	0.559587	0.340837	0.480935
	H431	H	0.571425	0.318111	0.486385
	O432	O	1.669013	0.378606	0.433626
	H433	H	1.665986	0.382060	0.431323
	H434	H	1.677322	0.362072	0.434569
	O435	O	0.535686	0.515180	0.518166
	H436	H	0.546647	0.522062	0.526483
	H437	H	0.535315	0.518554	0.508432
	O438	O	0.279334	0.530934	0.623596
	H439	H	0.292059	0.544110	0.617104
	H440	H	0.266603	0.531775	0.633959
	O441	O	0.675033	0.557920	0.718335
	H442	H	0.681295	0.574591	0.723324
	H443	H	0.696325	0.572763	0.734506
	O444	O	0.705390	0.375736	0.297218
	H445	H	0.716297	0.356303	0.271803
	H446	H	0.696149	0.363107	0.315761
	O447	O	1.032972	0.223766	1.196118
	H448	H	1.018329	0.230249	1.208958
	H449	H	1.028753	0.219495	1.205030
	O450	O	1.287341	0.540618	0.292846
	H451	H	1.283432	0.520931	0.317280
	H452	H	1.263015	0.538042	0.279206
	O453	O	-0.405827	0.302658	0.291761
	H454	H	-0.401000	0.284406	0.279864
	H455	H	-0.408407	0.304828	0.292669
	O456	O	0.213968	1.048046	1.217092
	H457	H	0.219736	1.076243	1.217046
	H458	H	0.230981	1.061022	1.240517
	O459	O	0.382839	0.511909	0.616478
	H460	H	0.405608	0.524405	0.628234
	H461	H	0.388351	0.499021	0.615975
	O462	O	0.419799	0.326539	0.693821
	H463	H	0.419258	0.321267	0.687787
	H464	H	0.411059	0.342504	0.708183
	O465	O	0.466672	0.319012	0.429539
	H466	H	0.468665	0.308377	0.431310
	H467	H	0.475470	0.320105	0.441461
	O468	O	0.525848	0.732683	0.721873
	H469	H	0.538240	0.727273	0.731211
	H470	H	0.540291	0.750738	0.743268
	O471	O	1.019182	1.075342	0.086070
	H472	H	1.012370	1.087208	0.097536
	H473	H	1.020469	1.068121	0.084856
	O474	O	1.784265	1.031339	0.814592
	H475	H	1.785309	1.051896	0.810754
	H476	H	1.773480	1.037075	0.808297
	O477	O	0.503165	0.727047	0.428427
	H478	H	0.480507	0.741675	0.424963
	H479	H	0.488316	0.725108	0.441256
