data_Molecule from HDF5

_cell_length_a		16.243963
_cell_length_b		16.226067
_cell_length_c		16.235921
_cell_angle_alpha	89.952025
_cell_angle_beta	89.965576
_cell_angle_gamma	89.975612
_symmetry_space_group_name_H-M	'P 1'
_symmetry_Int_Tables_number		1

loop_
	_symmetry_equiv_pos_as_xyz
	x,y,z

loop_
	_atom_site_label
	_atom_site_type_symbol
	_atom_site_fract_x
	_atom_site_fract_y
	_atom_site_fract_z
	H0	H	0.407246	0.838443	0.709435
	H1	H	0.603166	0.166962	0.710215
	H2	H	0.604730	0.838321	0.281358
	H3	H	0.408132	0.166228	0.282281
	H4	H	0.720036	0.401639	0.832310
	H5	H	0.718833	0.599940	0.159583
	H6	H	0.291768	0.600645	0.831202
	H7	H	0.290548	0.403922	0.160081
	H8	H	0.841006	0.716595	0.396662
	H9	H	0.170070	0.715733	0.591958
	H10	H	0.841158	0.288658	0.593167
	H11	H	0.169292	0.288474	0.395561
	H12	H	0.841795	0.402319	0.710936
	H13	H	0.169485	0.601889	0.708624
	H14	H	0.840702	0.601839	0.280377
	H15	H	0.168888	0.405726	0.280732
	H16	H	0.405306	0.717414	0.833045
	H17	H	0.603200	0.715567	0.159617
	H18	H	0.601623	0.289080	0.831291
	H19	H	0.405465	0.288022	0.160447
	H20	H	0.720901	0.838135	0.396220
	H21	H	0.719379	0.167356	0.594704
	H22	H	0.292035	0.838428	0.594863
	H23	H	0.291773	0.166259	0.396643
	H24	H	0.904626	0.339286	0.210566
	H25	H	0.102088	0.666994	0.207206
	H26	H	0.104107	0.338739	0.780701
	H27	H	0.906265	0.667007	0.780884
	H28	H	0.220475	0.903901	0.331335
	H29	H	0.218807	0.100116	0.660281
	H30	H	0.791464	0.102094	0.331507
	H31	H	0.791275	0.904152	0.659623
	H32	H	0.340457	0.215317	0.897441
	H33	H	0.668745	0.215759	0.093540
	H34	H	0.340942	0.787895	0.094575
	H35	H	0.668569	0.786672	0.896501
	H36	H	0.341463	0.903201	0.210349
	H37	H	0.669325	0.100484	0.208815
	H38	H	0.340664	0.100493	0.781833
	H39	H	0.668232	0.902474	0.780288
	H40	H	0.908472	0.215450	0.330920
	H41	H	0.104830	0.217502	0.659286
	H42	H	0.103305	0.788834	0.330778
	H43	H	0.907072	0.787702	0.659507
	H44	H	0.218277	0.337501	0.897546
	H45	H	0.218806	0.665833	0.093483
	H46	H	0.790869	0.337919	0.094276
	H47	H	0.788799	0.665846	0.895398
	H48	H	0.412146	0.120144	0.589645
	H49	H	0.593269	0.886816	0.588190
	H50	H	0.605966	0.122186	0.401304
	H51	H	0.426769	0.887093	0.396079
	H52	H	0.609372	0.405419	0.117228
	H53	H	0.595078	0.612167	0.874360
	H54	H	0.412093	0.594621	0.113043
	H55	H	0.424260	0.405199	0.881429
	H56	H	0.124208	0.604202	0.401835
	H57	H	0.889801	0.594334	0.582977
	H58	H	0.123511	0.410442	0.592616
	H59	H	0.891082	0.409290	0.412179
	H60	H	0.122661	0.405016	0.585679
	H61	H	0.888048	0.591402	0.590891
	H62	H	0.118866	0.591206	0.407307
	H63	H	0.888583	0.416255	0.396410
	H64	H	0.410481	0.594925	0.113615
	H65	H	0.612600	0.585429	0.876917
	H66	H	0.595646	0.419341	0.109343
	H67	H	0.402564	0.398503	0.872980
	H68	H	0.593655	0.119505	0.396176
	H69	H	0.602459	0.886121	0.584025
	H70	H	0.412107	0.119816	0.588533
	H71	H	0.410872	0.887757	0.418019
	H72	H	0.901907	0.622019	0.083926
	H73	H	0.087893	0.389715	0.081766
	H74	H	0.094905	0.615482	0.913201
	H75	H	0.914350	0.388915	0.910304
	H76	H	0.096153	0.912065	0.610823
	H77	H	0.100514	0.088212	0.379414
	H78	H	0.913525	0.096239	0.612867
	H79	H	0.910095	0.905875	0.376388
	H80	H	0.619497	0.090508	0.905281
	H81	H	0.388875	0.099826	0.082294
	H82	H	0.623308	0.901333	0.084300
	H83	H	0.390053	0.910661	0.908060
	H84	H	0.619918	0.914435	0.085545
	H85	H	0.390418	0.085249	0.088071
	H86	H	0.623565	0.094973	0.897092
	H87	H	0.388099	0.913317	0.898899
	H88	H	0.910999	0.096307	0.613890
	H89	H	0.092813	0.098122	0.379084
	H90	H	0.097598	0.904398	0.613375
	H91	H	0.909932	0.914172	0.378823
	H92	H	0.111058	0.623713	0.900407
	H93	H	0.107112	0.383656	0.082142
	H94	H	0.912550	0.622237	0.097371
	H95	H	0.904328	0.382216	0.900268
	H96	H	0.411170	0.120206	0.588734
	H97	H	0.600253	0.883962	0.593806
	H98	H	0.595673	0.116098	0.409606
	H99	H	0.401342	0.878757	0.394081
	H100	H	0.589921	0.400511	0.113279
	H101	H	0.582370	0.584620	0.885952
	H102	H	0.411293	0.593741	0.113569
	H103	H	0.406156	0.420702	0.880479
	H104	H	0.123754	0.591954	0.392598
	H105	H	0.887274	0.599175	0.588738
	H106	H	0.120581	0.413445	0.585351
	H107	H	0.883805	0.400107	0.398929
	H108	H	0.918442	0.616172	0.081771
	H109	H	0.096270	0.382070	0.099274
	H110	H	0.091047	0.620371	0.892071
	H111	H	0.919310	0.385586	0.895825
	H112	H	0.103542	0.910296	0.613603
	H113	H	0.104666	0.099102	0.375831
	H114	H	0.911743	0.094372	0.612156
	H115	H	0.917527	0.909636	0.379861
	H116	H	0.622704	0.100400	0.905257
	H117	H	0.384188	0.097559	0.097326
	H118	H	0.624842	0.908184	0.096276
	H119	H	0.385905	0.903964	0.901531
	C120	C	0.383979	0.011209	0.617193
	C121	C	0.627133	0.994604	0.617323
	C122	C	0.627413	0.011027	0.374084
	C123	C	0.384627	0.993224	0.374340
	C124	C	0.626343	0.380001	0.004574
	C125	C	0.625923	0.622885	0.987016
	C126	C	0.382902	0.623261	0.004894
	C127	C	0.382584	0.380056	0.987299
	C128	C	0.013520	0.624196	0.372637
	C129	C	0.996923	0.623561	0.616036
	C130	C	0.013802	0.380815	0.616799
	C131	C	0.996281	0.380759	0.373297
	C132	C	0.883118	0.511230	0.116214
	C133	C	0.125975	0.493397	0.116503
	C134	C	0.127250	0.511024	0.873376
	C135	C	0.883342	0.494129	0.873260
	C136	C	0.127305	0.880852	0.503911
	C137	C	0.127683	0.123879	0.486836
	C138	C	0.884039	0.124134	0.504151
	C139	C	0.884012	0.880837	0.486758
	C140	C	0.513194	0.123547	0.874563
	C141	C	0.496251	0.123206	0.117414
	C142	C	0.513979	0.879957	0.117314
	C143	C	0.496193	0.880049	0.873964
	C144	C	0.386900	0.887438	0.671854
	C145	C	0.624192	0.117917	0.672594
	C146	C	0.625286	0.887265	0.319209
	C147	C	0.387331	0.117278	0.319539
	C148	C	0.681771	0.381962	0.881195
	C149	C	0.680998	0.620498	0.110742
	C150	C	0.328747	0.620806	0.880655
	C151	C	0.327957	0.383009	0.110951
	C152	C	0.889976	0.679041	0.375958
	C153	C	0.120790	0.678309	0.612861
	C154	C	0.890284	0.325810	0.614169
	C155	C	0.120235	0.326412	0.375480
	C156	C	0.890491	0.382835	0.672481
	C157	C	0.120564	0.621723	0.670800
	C158	C	0.889896	0.621799	0.318255
	C159	C	0.119913	0.384481	0.318318
	C160	C	0.385224	0.678916	0.881471
	C161	C	0.623558	0.677852	0.110754
	C162	C	0.623017	0.325759	0.880756
	C163	C	0.385123	0.325279	0.111129
	C164	C	0.682837	0.887216	0.376372
	C165	C	0.681719	0.118044	0.614863
	C166	C	0.329603	0.887495	0.614821
	C167	C	0.329625	0.117111	0.376586
	C168	C	0.884852	0.387914	0.172217
	C169	C	0.123003	0.617613	0.170285
	C170	C	0.124387	0.387514	0.818460
	C171	C	0.885568	0.617656	0.818424
	C172	C	0.182424	0.883713	0.380240
	C173	C	0.181547	0.120973	0.611001
	C174	C	0.829095	0.122285	0.380634
	C175	C	0.829038	0.883349	0.610521
	C176	C	0.389421	0.177394	0.877368
	C177	C	0.619849	0.178028	0.114311
	C178	C	0.390219	0.825299	0.115251
	C179	C	0.619622	0.824734	0.876291
	C180	C	0.390402	0.882823	0.172693
	C181	C	0.620123	0.120978	0.171752
	C182	C	0.389547	0.120318	0.819860
	C183	C	0.619528	0.882337	0.818516
	C184	C	0.887223	0.178683	0.380217
	C185	C	0.125012	0.179297	0.610447
	C186	C	0.124523	0.826428	0.379979
	C187	C	0.886500	0.825499	0.610569
	C188	C	0.181042	0.386849	0.876704
	C189	C	0.181237	0.616834	0.113852
	C190	C	0.828641	0.387218	0.114098
	C191	C	0.827514	0.617160	0.875582
	C192	C	0.405462	0.097868	0.595424
	C193	C	0.604983	0.907818	0.595262
	C194	C	0.605079	0.096840	0.395897
	C195	C	0.406513	0.906870	0.396288
	C196	C	0.604600	0.401920	0.091113
	C197	C	0.603381	0.600597	0.901244
	C198	C	0.404735	0.600989	0.091068
	C199	C	0.404538	0.401532	0.900585
	C200	C	0.100055	0.602157	0.394249
	C201	C	0.910835	0.601452	0.594058
	C202	C	0.099873	0.403051	0.594482
	C203	C	0.909989	0.402219	0.395681
	C204	C	0.904743	0.597737	0.094244
	C205	C	0.103471	0.407343	0.094479
	C206	C	0.105362	0.597537	0.895372
	C207	C	0.905935	0.407664	0.895596
	C208	C	0.105509	0.902450	0.590236
	C209	C	0.105771	0.101709	0.400425
	C210	C	0.905755	0.102214	0.590641
	C211	C	0.906232	0.903137	0.400603
	C212	C	0.599559	0.101728	0.896163
	C213	C	0.410151	0.100860	0.095528
	C214	C	0.600227	0.901552	0.095249
	C215	C	0.410220	0.902567	0.896305
	Zn216	Zn	0.504737	0.002611	0.745843
	Zn217	Zn	0.505738	0.002142	0.245545
	Zn218	Zn	0.754812	0.501873	-0.004312
	Zn219	Zn	0.254840	0.501867	-0.004220
	Zn220	Zn	0.005267	0.752099	0.495159
	Zn221	Zn	0.005581	0.251893	0.495109
	Zn222	Zn	0.005515	0.503208	0.744830
	Zn223	Zn	0.004069	0.502730	0.244520
	Zn224	Zn	0.504349	0.751294	-0.004146
	Zn225	Zn	0.504290	0.251918	-0.003742
	Zn226	Zn	0.755556	0.002897	0.495375
	Zn227	Zn	0.256149	0.002493	0.496035
	N228	N	0.420131	0.965381	0.673388
	N229	N	0.590921	0.039812	0.674278
	N230	N	0.591564	0.965022	0.317404
	N231	N	0.420629	0.039305	0.317767
	N232	N	0.683700	0.415098	0.959092
	N233	N	0.682648	0.587058	0.032822
	N234	N	0.327493	0.586618	0.958368
	N235	N	0.326276	0.416266	0.033091
	N236	N	0.967826	0.680477	0.409177
	N237	N	0.042987	0.679625	0.579642
	N238	N	0.967923	0.324364	0.580221
	N239	N	0.042482	0.324024	0.409115
	N240	N	0.968412	0.416164	0.674275
	N241	N	0.042584	0.588475	0.673015
	N242	N	0.967661	0.588233	0.316387
	N243	N	0.041798	0.417555	0.316883
	N244	N	0.418052	0.680794	0.959479
	N245	N	0.589865	0.679399	0.033035
	N246	N	0.589159	0.324473	0.958550
	N247	N	0.418443	0.323497	0.033033
	N248	N	0.684247	0.965096	0.409804
	N249	N	0.683792	0.040127	0.581651
	N250	N	0.327682	0.965478	0.581541
	N251	N	0.327885	0.039083	0.409991
	N252	N	0.918274	0.465888	0.173376
	N253	N	0.089225	0.539733	0.172177
	N254	N	0.091376	0.465641	0.816687
	N255	N	0.919504	0.540028	0.816933
	N256	N	0.184187	0.916850	0.458267
	N257	N	0.183404	0.087652	0.533143
	N258	N	0.827054	0.089239	0.458716
	N259	N	0.827216	0.916932	0.532600
	N260	N	0.467148	0.179441	0.910715
	N261	N	0.541944	0.179686	0.081365
	N262	N	0.467922	0.823371	0.081632
	N263	N	0.541855	0.823239	0.909959
	N264	N	0.468398	0.916030	0.174248
	N265	N	0.542231	0.087570	0.173819
	N266	N	0.467812	0.087625	0.817772
	N267	N	0.541870	0.916106	0.817057
	N268	N	0.920903	0.179770	0.458069
	N269	N	0.092078	0.181261	0.532236
	N270	N	0.090671	0.824499	0.457689
	N271	N	0.919849	0.823808	0.532607
	N272	N	0.183181	0.464775	0.909980
	N273	N	0.182948	0.538844	0.081017
	N274	N	0.827387	0.464959	0.080220
	N275	N	0.825995	0.539121	0.908956
	O276	O	-0.466270	-0.481900	1.579801
	H277	H	-0.465265	-0.486442	1.584104
	H278	H	-0.477825	-0.483556	1.585040
	O279	O	0.517770	0.500477	0.580113
	H280	H	0.523289	0.521141	0.573972
	H281	H	0.509238	0.503559	0.577586
	O282	O	0.517019	0.481298	0.557079
	H283	H	0.510661	0.465666	0.555062
	H284	H	0.521022	0.475472	0.557864
	O285	O	0.835438	1.320159	-0.262967
	H286	H	0.835184	1.326703	-0.252750
	H287	H	0.844433	1.332397	-0.263795
	O288	O	0.490337	0.571389	0.478531
	H289	H	0.488954	0.565874	0.471399
	H290	H	0.494712	0.571616	0.476060
	O291	O	-0.501320	0.535161	1.530252
	H292	H	-0.501887	0.537141	1.536241
	H293	H	-0.495522	0.528636	1.528152
	O294	O	0.516852	0.471266	0.550348
	H295	H	0.521921	0.474155	0.547953
	H296	H	0.510122	0.472631	0.557585
	O297	O	0.978662	0.081826	-0.027634
	H298	H	0.976237	0.084200	-0.026579
	H299	H	0.976153	0.087893	-0.033638
