data_Molecule from HDF5

_cell_length_a		16.341701
_cell_length_b		16.207505
_cell_length_c		16.395553
_cell_angle_alpha	89.730494
_cell_angle_beta	90.027889
_cell_angle_gamma	90.011559
_symmetry_space_group_name_H-M	'P 1'
_symmetry_Int_Tables_number		1

loop_
	_symmetry_equiv_pos_as_xyz
	x,y,z

loop_
	_atom_site_label
	_atom_site_type_symbol
	_atom_site_fract_x
	_atom_site_fract_y
	_atom_site_fract_z
	H0	H	0.385940	0.838024	0.720406
	H1	H	0.592836	0.162815	0.717344
	H2	H	0.594136	0.837915	0.281060
	H3	H	0.384921	0.161035	0.280898
	H4	H	0.710841	0.394701	0.839717
	H5	H	0.709855	0.601860	0.159806
	H6	H	0.270415	0.607145	0.841154
	H7	H	0.268078	0.392637	0.158876
	H8	H	0.827766	0.714994	0.398107
	H9	H	0.149216	0.718456	0.603616
	H10	H	0.826566	0.282818	0.599059
	H11	H	0.151222	0.280566	0.398677
	H12	H	0.829542	0.392464	0.719949
	H13	H	0.148776	0.604675	0.721060
	H14	H	0.828989	0.602184	0.279393
	H15	H	0.149878	0.393049	0.278908
	H16	H	0.386541	0.720563	0.841274
	H17	H	0.592199	0.715999	0.161503
	H18	H	0.594565	0.279902	0.839711
	H19	H	0.388201	0.280278	0.160170
	H20	H	0.705325	0.836100	0.399992
	H21	H	0.708193	0.162673	0.600430
	H22	H	0.269400	0.837812	0.606649
	H23	H	0.267963	0.160157	0.396279
	H24	H	0.884590	0.336801	0.219401
	H25	H	0.094195	0.659746	0.218604
	H26	H	0.095786	0.337169	0.781063
	H27	H	0.888702	0.659912	0.780656
	H28	H	0.212845	0.891287	0.342759
	H29	H	0.210091	0.104748	0.658619
	H30	H	0.769994	0.103022	0.338857
	H31	H	0.772341	0.897065	0.659845
	H32	H	0.330068	0.221284	0.895996
	H33	H	0.651935	0.215587	0.100103
	H34	H	0.329654	0.778171	0.106749
	H35	H	0.650819	0.784893	0.902980
	H36	H	0.330695	0.891228	0.224199
	H37	H	0.649446	0.104936	0.220826
	H38	H	0.329558	0.109331	0.777563
	H39	H	0.649721	0.899625	0.783682
	H40	H	0.887187	0.217326	0.338973
	H41	H	0.089970	0.214651	0.660373
	H42	H	0.093854	0.778229	0.340354
	H43	H	0.888401	0.780057	0.659756
	H44	H	0.212175	0.338857	0.895140
	H45	H	0.207982	0.660936	0.102152
	H46	H	0.770518	0.336895	0.101728
	H47	H	0.773592	0.660481	0.897340
	H48	H	0.397330	0.115571	0.588085
	H49	H	0.578683	0.884881	0.593570
	H50	H	0.573965	0.115544	0.404037
	H51	H	0.405034	0.884927	0.409925
	H52	H	0.585994	0.409638	0.115021
	H53	H	0.591303	0.594478	0.881453
	H54	H	0.400145	0.586924	0.114088
	H55	H	0.403204	0.410112	0.886858
	H56	H	0.105481	0.588847	0.404856
	H57	H	0.873125	0.594283	0.590101
	H58	H	0.103941	0.401891	0.586508
	H59	H	0.876870	0.413208	0.409133
	H60	H	0.101606	0.413803	0.590125
	H61	H	0.878850	0.582265	0.581378
	H62	H	0.104260	0.590644	0.411311
	H63	H	0.873151	0.408068	0.403335
	H64	H	0.398734	0.589399	0.115607
	H65	H	0.579165	0.580865	0.889604
	H66	H	0.578232	0.414261	0.110886
	H67	H	0.397930	0.412002	0.885334
	H68	H	0.576575	0.111847	0.416641
	H69	H	0.580704	0.885250	0.592450
	H70	H	0.400410	0.114234	0.589953
	H71	H	0.401922	0.886308	0.417195
	H72	H	0.903678	0.612296	0.088721
	H73	H	0.077485	0.385286	0.085462
	H74	H	0.078642	0.611812	0.917587
	H75	H	0.900166	0.380006	0.902589
	H76	H	0.075193	0.904934	0.613708
	H77	H	0.078673	0.087750	0.386138
	H78	H	0.891444	0.092838	0.616829
	H79	H	0.897173	0.903473	0.383101
	H80	H	0.601659	0.085556	0.909230
	H81	H	0.374473	0.091006	0.089751
	H82	H	0.604456	0.907287	0.093291
	H83	H	0.374359	0.912891	0.909936
	H84	H	0.602579	0.910415	0.088742
	H85	H	0.377129	0.087030	0.086204
	H86	H	0.606369	0.090028	0.902639
	H87	H	0.373391	0.909451	0.908580
	H88	H	0.895185	0.083030	0.612859
	H89	H	0.078149	0.086425	0.386028
	H90	H	0.082725	0.906393	0.615420
	H91	H	0.893511	0.910464	0.383192
	H92	H	0.086855	0.617640	0.905163
	H93	H	0.080519	0.382806	0.088708
	H94	H	0.898200	0.614492	0.086069
	H95	H	0.906635	0.385443	0.913827
	H96	H	0.400155	0.113940	0.586475
	H97	H	0.581380	0.883336	0.594416
	H98	H	0.586877	0.117520	0.409500
	H99	H	0.397362	0.882761	0.411201
	H100	H	0.577759	0.404974	0.113859
	H101	H	0.572494	0.599857	0.885134
	H102	H	0.396711	0.587400	0.115901
	H103	H	0.401560	0.416251	0.887273
	H104	H	0.103000	0.584148	0.409239
	H105	H	0.874956	0.580296	0.595975
	H106	H	0.107594	0.405461	0.598699
	H107	H	0.874259	0.405038	0.411374
	H108	H	0.898730	0.616100	0.092410
	H109	H	0.076549	0.384612	0.090076
	H110	H	0.071476	0.613047	0.903062
	H111	H	0.893510	0.380940	0.914786
	H112	H	0.077312	0.912671	0.612568
	H113	H	0.077639	0.086932	0.385433
	H114	H	0.902293	0.092036	0.613274
	H115	H	0.900797	0.909576	0.385428
	H116	H	0.604265	0.093939	0.910834
	H117	H	0.376421	0.084988	0.092455
	H118	H	0.603166	0.912492	0.094633
	H119	H	0.373952	0.910498	0.911988
	C120	C	0.368036	0.008133	0.621222
	C121	C	0.610968	0.991720	0.622074
	C122	C	0.610295	0.007807	0.379331
	C123	C	0.368320	0.990990	0.379850
	C124	C	0.612369	0.377923	0.007915
	C125	C	0.611626	0.621276	0.991661
	C126	C	0.367638	0.621410	0.009509
	C127	C	0.368913	0.378936	0.991731
	C128	C	-0.001924	0.619346	0.377530
	C129	C	0.980992	0.618303	0.620447
	C130	C	-0.002066	0.375942	0.621933
	C131	C	0.981438	0.376764	0.377717
	C132	C	0.868352	0.507434	0.120721
	C133	C	0.110585	0.490454	0.120094
	C134	C	0.111541	0.507789	0.877621
	C135	C	0.869397	0.489419	0.878519
	C136	C	0.110940	0.876017	0.508930
	C137	C	0.109166	0.118825	0.491349
	C138	C	0.866320	0.120654	0.508110
	C139	C	0.867300	0.877139	0.490403
	C140	C	0.498257	0.122918	0.876626
	C141	C	0.482019	0.119438	0.120477
	C142	C	0.498091	0.877623	0.123791
	C143	C	0.480486	0.880176	0.880276
	C144	C	0.367059	0.886493	0.680984
	C145	C	0.611652	0.114274	0.678556
	C146	C	0.611833	0.886063	0.321261
	C147	C	0.366144	0.112589	0.320351
	C148	C	0.671578	0.376238	0.887690
	C149	C	0.670529	0.621167	0.112072
	C150	C	0.309407	0.624725	0.889363
	C151	C	0.308579	0.375265	0.111268
	C152	C	0.876402	0.676888	0.377927
	C153	C	0.101349	0.678478	0.622116
	C154	C	0.875834	0.319944	0.619915
	C155	C	0.102564	0.318741	0.378662
	C156	C	0.877218	0.374437	0.680233
	C157	C	0.101203	0.621624	0.680639
	C158	C	0.877077	0.620612	0.319050
	C159	C	0.102053	0.374748	0.318899
	C160	C	0.367257	0.681543	0.889680
	C161	C	0.611541	0.677584	0.113353
	C162	C	0.613400	0.319268	0.887442
	C163	C	0.368244	0.319189	0.111953
	C164	C	0.667491	0.885187	0.379981
	C165	C	0.669045	0.114071	0.620320
	C166	C	0.309252	0.886238	0.623898
	C167	C	0.308117	0.112081	0.377810
	C168	C	0.866477	0.385492	0.179778
	C169	C	0.112467	0.611666	0.179235
	C170	C	0.113974	0.385760	0.819980
	C171	C	0.869404	0.611275	0.819933
	C172	C	0.171815	0.873853	0.389612
	C173	C	0.169134	0.121789	0.611354
	C174	C	0.808990	0.122023	0.387039
	C175	C	0.810600	0.877159	0.611790
	C176	C	0.377855	0.182413	0.876408
	C177	C	0.603240	0.177501	0.120002
	C178	C	0.377635	0.817871	0.125430
	C179	C	0.602083	0.823367	0.882438
	C180	C	0.378116	0.874151	0.184081
	C181	C	0.602117	0.122387	0.180237
	C182	C	0.377698	0.126516	0.817492
	C183	C	0.601798	0.880265	0.823180
	C184	C	0.867165	0.178976	0.387212
	C185	C	0.109742	0.176889	0.612133
	C186	C	0.112596	0.817618	0.388409
	C187	C	0.868380	0.819389	0.611637
	C188	C	0.171941	0.386772	0.876690
	C189	C	0.169124	0.612193	0.121125
	C190	C	0.809584	0.385447	0.121397
	C191	C	0.812074	0.611784	0.877842
	C192	C	0.392276	0.092561	0.595728
	C193	C	0.587054	0.906583	0.599736
	C194	C	0.586099	0.092838	0.403023
	C195	C	0.393922	0.906690	0.405386
	C196	C	0.587700	0.402331	0.091449
	C197	C	0.587848	0.598215	0.907479
	C198	C	0.391664	0.595467	0.093512
	C199	C	0.393785	0.405255	0.908151
	C200	C	0.082362	0.594970	0.401553
	C201	C	0.897477	0.592807	0.596260
	C202	C	0.082437	0.400025	0.598628
	C203	C	0.897014	0.401559	0.401340
	C204	C	0.893195	0.592143	0.096291
	C205	C	0.085595	0.406185	0.095323
	C206	C	0.086152	0.592120	0.901562
	C207	C	0.893343	0.404228	0.903373
	C208	C	0.085749	0.900849	0.592235
	C209	C	0.085177	0.094146	0.407777
	C210	C	0.889416	0.096161	0.592506
	C211	C	0.890359	0.900971	0.405862
	C212	C	0.582307	0.097292	0.900537
	C213	C	0.397832	0.094755	0.096283
	C214	C	0.581608	0.902836	0.099183
	C215	C	0.395746	0.904106	0.903436
	Zn216	Zn	0.488170	0.001055	0.749751
	Zn217	Zn	0.489584	-0.000395	0.251473
	Zn218	Zn	0.740506	0.499680	-0.000631
	Zn219	Zn	0.239089	0.499541	-0.000375
	Zn220	Zn	-0.011236	0.747699	0.499043
	Zn221	Zn	-0.010881	0.248277	0.499933
	Zn222	Zn	-0.009857	0.497197	0.749945
	Zn223	Zn	-0.010009	0.498409	0.248716
	Zn224	Zn	0.488952	0.749629	0.002047
	Zn225	Zn	0.490402	0.249412	-0.000397
	Zn226	Zn	0.738395	-0.001092	0.499217
	Zn227	Zn	0.238854	-0.001299	0.500707
	N228	N	0.402730	0.963334	0.679488
	N229	N	0.576143	0.037355	0.679755
	N230	N	0.577045	0.963336	0.320694
	N231	N	0.402605	0.036173	0.321518
	N232	N	0.671102	0.411880	0.963580
	N233	N	0.670726	0.586902	0.035583
	N234	N	0.309341	0.588073	0.965083
	N235	N	0.309079	0.411652	0.035312
	N236	N	0.952669	0.676310	0.413424
	N237	N	0.025837	0.676461	0.585203
	N238	N	0.951893	0.320604	0.584414
	N239	N	0.026489	0.319972	0.414305
	N240	N	0.954357	0.408363	0.681737
	N241	N	0.025576	0.584537	0.679450
	N242	N	0.953717	0.585595	0.318606
	N243	N	0.025495	0.409796	0.318018
	N244	N	0.402718	0.679575	0.965609
	N245	N	0.575491	0.677949	0.037522
	N246	N	0.577412	0.320114	0.963125
	N247	N	0.405022	0.321331	0.036562
	N248	N	0.666618	0.961831	0.415362
	N249	N	0.668957	0.036773	0.586076
	N250	N	0.309725	0.962702	0.587264
	N251	N	0.309064	0.035244	0.413789
	N252	N	0.902400	0.462238	0.179312
	N253	N	0.076536	0.534976	0.178657
	N254	N	0.077111	0.461943	0.820374
	N255	N	0.903729	0.533790	0.820106
	N256	N	0.170883	0.909415	0.465405
	N257	N	0.169108	0.086346	0.535354
	N258	N	0.808221	0.086581	0.463312
	N259	N	0.809702	0.912249	0.535296
	N260	N	0.453750	0.180283	0.912404
	N261	N	0.527525	0.175767	0.083514
	N262	N	0.453050	0.819862	0.088608
	N263	N	0.525507	0.823242	0.917069
	N264	N	0.453978	0.910697	0.183208
	N265	N	0.525800	0.086890	0.180670
	N266	N	0.453739	0.090208	0.817553
	N267	N	0.525007	0.914702	0.821669
	N268	N	0.901843	0.178535	0.463529
	N269	N	0.073184	0.175232	0.536609
	N270	N	0.075615	0.818673	0.463677
	N271	N	0.902717	0.819144	0.535165
	N272	N	0.170559	0.463590	0.911869
	N273	N	0.167980	0.535852	0.085034
	N274	N	0.810574	0.462180	0.085500
	N275	N	0.811720	0.534816	0.913276
	O276	O	0.537157	0.356602	0.421907
	H277	H	0.543567	0.363796	0.428263
	H278	H	0.542926	0.361025	0.429780
	O279	O	0.722386	0.751634	0.266777
	H280	H	0.726628	0.744279	0.260810
	H281	H	0.717922	0.756638	0.267383
	O282	O	0.412383	0.424523	0.668623
	H283	H	0.410495	0.396556	0.674812
	H284	H	0.409833	0.424661	0.671344
	O285	O	1.192954	0.043922	0.195637
	H286	H	1.188331	0.066940	0.197286
	H287	H	1.193114	0.028227	0.211937
	O288	O	-0.191764	0.087527	1.078667
	H289	H	-0.187662	0.081267	1.075588
	H290	H	-0.200209	0.092204	1.073390
	O291	O	0.657587	0.406707	0.429827
	H292	H	0.662924	0.403185	0.433998
	H293	H	0.667154	0.406876	0.432971
	O294	O	0.629561	0.558651	0.622219
	H295	H	0.614956	0.551758	0.622772
	H296	H	0.640320	0.555099	0.626349
	O297	O	1.196393	0.981723	0.791221
	H298	H	1.196214	0.954935	0.787468
	H299	H	1.212780	0.952648	0.778149
	O300	O	0.074215	-0.046042	-0.081332
	H301	H	0.071991	-0.029340	-0.083124
	H302	H	0.082096	-0.040174	-0.080328
	O303	O	0.300932	0.607744	0.348927
	H304	H	0.284249	0.608106	0.342666
	H305	H	0.314163	0.588038	0.356758
	O306	O	1.162749	-0.179628	-0.183656
	H307	H	1.165040	-0.192744	-0.141611
	H308	H	1.123923	-0.189066	-0.181638
	O309	O	0.578376	0.698739	0.701156
	H310	H	0.554636	0.692943	0.696943
	H311	H	0.575194	0.708419	0.692552
	O312	O	0.806410	0.807306	0.044623
	H313	H	0.818033	0.800250	0.045524
	H314	H	0.810606	0.803878	0.050446
	O315	O	0.404172	0.585863	0.462489
	H316	H	0.401325	0.589659	0.459044
	H317	H	0.401754	0.582895	0.468744
	O318	O	0.457768	0.473740	0.513560
	H319	H	0.454230	0.478262	0.498145
	H320	H	0.471609	0.472892	0.510645
	O321	O	0.973990	-0.152770	0.819452
	H322	H	0.960432	-0.141850	0.823692
	H323	H	0.967689	-0.147304	0.820078
	O324	O	0.143549	-0.201582	0.985940
	H325	H	0.161609	-0.205577	0.990278
	H326	H	0.148039	-0.193592	1.001392
	O327	O	0.385897	0.625378	0.433007
	H328	H	0.379406	0.611560	0.429682
	H329	H	0.397874	0.625906	0.427091
	O330	O	0.663517	0.676495	0.704249
	H331	H	0.652813	0.685408	0.715410
	H332	H	0.651812	0.655418	0.711082
	O333	O	0.897599	1.140123	0.986856
	H334	H	0.905480	1.140017	0.994604
	H335	H	0.892059	1.135814	0.994091
	O336	O	0.293140	0.530905	0.502945
	H337	H	0.287349	0.516802	0.509367
	H338	H	0.278719	0.526643	0.485653
	O339	O	1.048079	-0.063428	1.184111
	H340	H	1.052312	-0.061783	1.165449
	H341	H	1.044273	-0.055952	1.177794
	O342	O	-0.049386	0.800908	0.987895
	H343	H	-0.044861	0.802503	1.001154
	H344	H	-0.039414	0.810282	0.978568
	O345	O	0.527028	0.509862	0.472474
	H346	H	0.542147	0.510170	0.465622
	H347	H	0.513898	0.499926	0.466829
	O348	O	0.669398	0.330753	0.435555
	H349	H	0.676158	0.329850	0.447868
	H350	H	0.667073	0.338997	0.449769
	O351	O	0.025749	0.070633	0.069793
	H352	H	0.028385	0.079706	0.070309
	H353	H	0.005736	0.087823	0.056178
	O354	O	1.125850	0.985563	0.049223
	H355	H	1.128737	0.994124	0.041795
	H356	H	1.138694	1.002834	0.068649
	O357	O	0.017604	1.184180	-0.000980
	H358	H	0.028754	1.175274	-0.008871
	H359	H	0.022988	1.192141	0.000700
	O360	O	0.376047	0.467200	0.558736
	H361	H	0.374038	0.460562	0.570275
	H362	H	0.372293	0.477556	0.555826
	O363	O	0.657204	0.599318	0.482659
	H364	H	0.664593	0.602505	0.499685
	H365	H	0.658884	0.606181	0.494976
	O366	O	0.556470	0.615713	0.447770
	H367	H	0.558473	0.622099	0.458234
	H368	H	0.545539	0.619872	0.453421
	O369	O	0.495396	0.385936	0.386017
	H370	H	0.504169	0.390816	0.372284
	H371	H	0.502879	0.389655	0.388170
	O372	O	0.518084	0.467864	0.404110
	H373	H	0.530020	0.472116	0.384277
	H374	H	0.520491	0.472307	0.423906
	O375	O	0.491941	0.466051	0.581216
	H376	H	0.481270	0.464973	0.576585
	H377	H	0.491633	0.463396	0.577838
	O378	O	0.492903	0.657776	0.407209
	H379	H	0.498779	0.664310	0.409600
	H380	H	0.501260	0.655038	0.411816
	O381	O	0.439321	0.404367	0.699059
	H382	H	0.438906	0.387423	0.712257
	H383	H	0.437758	0.397818	0.694577
	O384	O	-0.194445	0.850041	0.849177
	H385	H	-0.196316	0.837544	0.836216
	H386	H	-0.195358	0.859267	0.879290
	O387	O	0.983406	0.999177	0.140333
	H388	H	0.980012	0.998416	0.137867
	H389	H	0.987775	1.013635	0.136748
	O390	O	0.349030	0.585025	0.488158
	H391	H	0.341218	0.594765	0.469308
	H392	H	0.348137	0.604092	0.494994
	O393	O	0.974001	0.200230	0.802394
	H394	H	0.965587	0.204154	0.791824
	H395	H	0.950524	0.208386	0.789686
	O396	O	0.031490	1.061942	0.996497
	H397	H	0.031174	1.074876	0.970350
	H398	H	0.043219	1.059782	1.006253
	O399	O	0.620067	0.399349	0.324370
	H400	H	0.629798	0.397849	0.322906
	H401	H	0.628700	0.396194	0.319571
	O402	O	1.173331	0.083957	0.983301
	H403	H	1.170108	0.092873	0.993594
	H404	H	1.186165	0.091450	0.973537
	O405	O	-0.191716	0.128226	-0.127576
	H406	H	-0.196542	0.102413	-0.142959
	H407	H	-0.198268	0.135685	-0.115035
	O408	O	0.929681	0.871148	1.170237
	H409	H	0.926006	0.865520	1.177682
	H410	H	0.933051	0.864846	1.179722
	O411	O	0.836626	0.932159	0.200794
	H412	H	0.841960	0.929757	0.211118
	H413	H	0.837500	0.907930	0.202399
	O414	O	-0.155527	0.042570	0.862299
	H415	H	-0.153678	0.030264	0.862049
	H416	H	-0.153909	0.050250	0.872503
	O417	O	0.899058	0.060284	0.804942
	H418	H	0.909148	0.065525	0.796069
	H419	H	0.911382	0.043338	0.803331
	O420	O	0.091906	1.194150	0.190026
	H421	H	0.066165	1.186841	0.172269
	H422	H	0.092406	1.210624	0.198045
	O423	O	1.359119	0.383903	-0.418032
	H424	H	1.355826	0.392333	-0.410918
	H425	H	1.359765	0.377699	-0.415640
	O426	O	0.131591	0.190055	1.076336
	H427	H	0.140299	0.189032	1.079765
	H428	H	0.106139	0.195807	1.094752
	O429	O	0.419562	0.499330	0.523277
	H430	H	0.423381	0.499337	0.524998
	H431	H	0.418920	0.518832	0.529476
