data_Molecule from HDF5

_cell_length_a		16.325088
_cell_length_b		16.567628
_cell_length_c		16.121541
_cell_angle_alpha	89.860163
_cell_angle_beta	90.072746
_cell_angle_gamma	90.015358
_symmetry_space_group_name_H-M	'P 1'
_symmetry_Int_Tables_number		1

loop_
	_symmetry_equiv_pos_as_xyz
	x,y,z

loop_
	_atom_site_label
	_atom_site_type_symbol
	_atom_site_fract_x
	_atom_site_fract_y
	_atom_site_fract_z
	H0	H	0.387442	0.845719	0.712205
	H1	H	0.592258	0.163447	0.711821
	H2	H	0.591222	0.844417	0.274595
	H3	H	0.390829	0.164765	0.274267
	H4	H	0.704280	0.405834	0.827803
	H5	H	0.710473	0.606528	0.154204
	H6	H	0.274061	0.606251	0.830108
	H7	H	0.274729	0.401570	0.155467
	H8	H	0.830973	0.728757	0.383324
	H9	H	0.147140	0.729540	0.601948
	H10	H	0.830398	0.284433	0.598283
	H11	H	0.147572	0.282733	0.384752
	H12	H	0.827963	0.405787	0.707464
	H13	H	0.152556	0.603091	0.706941
	H14	H	0.829781	0.607515	0.272229
	H15	H	0.153531	0.406660	0.280046
	H16	H	0.384034	0.725562	0.832721
	H17	H	0.598834	0.724474	0.153927
	H18	H	0.594061	0.286024	0.829966
	H19	H	0.386722	0.285087	0.153884
	H20	H	0.712554	0.847321	0.386133
	H21	H	0.709498	0.163584	0.594565
	H22	H	0.266924	0.847755	0.598066
	H23	H	0.271038	0.163830	0.387942
	H24	H	0.891558	0.345053	0.211350
	H25	H	0.098714	0.662389	0.215866
	H26	H	0.092020	0.344877	0.773616
	H27	H	0.886087	0.662869	0.770099
	H28	H	0.207307	0.903066	0.329572
	H29	H	0.208395	0.108991	0.653688
	H30	H	0.772316	0.107824	0.328960
	H31	H	0.770763	0.901721	0.653714
	H32	H	0.332528	0.229391	0.881796
	H33	H	0.648863	0.226979	0.101437
	H34	H	0.333902	0.779480	0.105088
	H35	H	0.646501	0.777441	0.880383
	H36	H	0.328944	0.905198	0.208471
	H37	H	0.651533	0.105451	0.209758
	H38	H	0.329754	0.108106	0.772485
	H39	H	0.650306	0.899488	0.771677
	H40	H	0.883808	0.225022	0.330035
	H41	H	0.094196	0.224086	0.654193
	H42	H	0.099784	0.781236	0.333387
	H43	H	0.878519	0.781290	0.650607
	H44	H	0.212400	0.346712	0.886776
	H45	H	0.217014	0.660714	0.100955
	H46	H	0.768914	0.346832	0.098907
	H47	H	0.765912	0.660889	0.882628
	H48	H	0.405129	0.112057	0.572942
	H49	H	0.583091	0.891421	0.581662
	H50	H	0.589330	0.120682	0.400397
	H51	H	0.390122	0.892706	0.411370
	H52	H	0.583078	0.418081	0.108642
	H53	H	0.579139	0.592877	0.876898
	H54	H	0.409195	0.595398	0.107670
	H55	H	0.404897	0.414341	0.876909
	H56	H	0.104368	0.600115	0.406617
	H57	H	0.873645	0.600890	0.578286
	H58	H	0.108849	0.403699	0.580874
	H59	H	0.874704	0.411885	0.405060
	H60	H	0.101762	0.415940	0.573844
	H61	H	0.878141	0.593614	0.574446
	H62	H	0.101984	0.595092	0.410943
	H63	H	0.875807	0.416961	0.404092
	H64	H	0.400674	0.594058	0.110588
	H65	H	0.574927	0.592672	0.877409
	H66	H	0.574332	0.414839	0.106805
	H67	H	0.401085	0.412138	0.874165
	H68	H	0.575575	0.118439	0.394544
	H69	H	0.577939	0.891658	0.583079
	H70	H	0.388745	0.120189	0.579581
	H71	H	0.394647	0.887356	0.392017
	H72	H	0.898379	0.619812	0.085662
	H73	H	0.080157	0.390753	0.089968
	H74	H	0.078371	0.616494	0.899463
	H75	H	0.902167	0.391108	0.897036
	H76	H	0.073172	0.915329	0.606690
	H77	H	0.078432	0.094848	0.375587
	H78	H	0.895140	0.093841	0.609520
	H79	H	0.902597	0.924723	0.379670
	H80	H	0.602989	0.099379	0.912462
	H81	H	0.378239	0.097937	0.070338
	H82	H	0.604951	0.912057	0.079137
	H83	H	0.374734	0.915793	0.898731
	H84	H	0.605204	0.914886	0.080993
	H85	H	0.376644	0.087501	0.085902
	H86	H	0.601702	0.088344	0.904298
	H87	H	0.376245	0.907623	0.910000
	H88	H	0.905630	0.093163	0.604927
	H89	H	0.076963	0.098225	0.376665
	H90	H	0.079476	0.916286	0.608531
	H91	H	0.909634	0.913642	0.377550
	H92	H	0.083902	0.616859	0.905255
	H93	H	0.078122	0.395210	0.078747
	H94	H	0.908594	0.614996	0.080830
	H95	H	0.899569	0.393260	0.905819
	H96	H	0.404109	0.118932	0.591702
	H97	H	0.580012	0.893323	0.577976
	H98	H	0.579017	0.114206	0.408778
	H99	H	0.408662	0.895893	0.403757
	H100	H	0.580972	0.408695	0.109955
	H101	H	0.577078	0.596287	0.876573
	H102	H	0.404805	0.587771	0.107096
	H103	H	0.400224	0.416972	0.876628
	H104	H	0.104025	0.593249	0.404164
	H105	H	0.874897	0.593025	0.583293
	H106	H	0.106361	0.416823	0.589665
	H107	H	0.873574	0.413830	0.400479
	H108	H	0.898134	0.615254	0.074062
	H109	H	0.089170	0.390282	0.081561
	H110	H	0.085488	0.618838	0.898734
	H111	H	0.893453	0.389677	0.899758
	H112	H	0.075369	0.920973	0.605701
	H113	H	0.080117	0.097951	0.374977
	H114	H	0.901968	0.102560	0.610270
	H115	H	0.896692	0.914512	0.373262
	H116	H	0.607351	0.099273	0.899278
	H117	H	0.371125	0.104888	0.086481
	H118	H	0.606624	0.912316	0.082469
	H119	H	0.380781	0.920441	0.910423
	C120	C	0.367369	0.012967	0.614332
	C121	C	0.612276	0.996465	0.613560
	C122	C	0.612505	0.013213	0.369490
	C123	C	0.367852	0.996861	0.370229
	C124	C	0.610609	0.383454	0.001077
	C125	C	0.611318	0.625763	0.983534
	C126	C	0.371331	0.624561	0.001588
	C127	C	0.370334	0.383234	0.983224
	C128	C	-0.001442	0.627865	0.372207
	C129	C	0.981177	0.626808	0.612479
	C130	C	-0.000889	0.382550	0.613008
	C131	C	0.981145	0.384266	0.372170
	C132	C	0.869767	0.512519	0.113489
	C133	C	0.115108	0.496048	0.115729
	C134	C	0.112860	0.512730	0.870250
	C135	C	0.867475	0.495853	0.868930
	C136	C	0.109612	0.885108	0.500897
	C137	C	0.110600	0.127911	0.482888
	C138	C	0.868638	0.127397	0.500764
	C139	C	0.869588	0.885117	0.483067
	C140	C	0.498629	0.126869	0.871588
	C141	C	0.481565	0.126787	0.112939
	C142	C	0.499972	0.882145	0.114017
	C143	C	0.481854	0.882156	0.872206
	C144	C	0.367239	0.893526	0.673061
	C145	C	0.612068	0.115975	0.672420
	C146	C	0.611678	0.892889	0.312369
	C147	C	0.370065	0.116693	0.312633
	C148	C	0.667150	0.384960	0.877438
	C149	C	0.671396	0.626059	0.105498
	C150	C	0.312020	0.625967	0.879530
	C151	C	0.312907	0.382597	0.106128
	C152	C	0.878552	0.687910	0.366942
	C153	C	0.100474	0.687670	0.617689
	C154	C	0.878126	0.324458	0.615548
	C155	C	0.101138	0.324221	0.368875
	C156	C	0.876907	0.384823	0.669896
	C157	C	0.103223	0.624788	0.669949
	C158	C	0.878013	0.627502	0.311656
	C159	C	0.103898	0.385949	0.316607
	C160	C	0.367454	0.684859	0.880450
	C161	C	0.615845	0.684911	0.105118
	C162	C	0.612081	0.325441	0.878639
	C163	C	0.368648	0.324512	0.105535
	C164	C	0.671975	0.894169	0.368131
	C165	C	0.670580	0.115957	0.614311
	C166	C	0.307399	0.894634	0.616247
	C167	C	0.310260	0.116139	0.369012
	C168	C	0.870371	0.393241	0.173030
	C169	C	0.117261	0.614622	0.176176
	C170	C	0.112231	0.392797	0.812234
	C171	C	0.866720	0.615071	0.809210
	C172	C	0.169153	0.883518	0.378937
	C173	C	0.169524	0.127948	0.604994
	C174	C	0.810601	0.127493	0.378166
	C175	C	0.809387	0.883007	0.604798
	C176	C	0.379481	0.187849	0.866113
	C177	C	0.601327	0.186425	0.117640
	C178	C	0.380733	0.821121	0.119756
	C179	C	0.600094	0.819824	0.865518
	C180	C	0.378101	0.883746	0.171351
	C181	C	0.602700	0.125782	0.171759
	C182	C	0.378236	0.127547	0.811352
	C183	C	0.601971	0.880753	0.811218
	C184	C	0.866136	0.186152	0.378931
	C185	C	0.112441	0.185422	0.605093
	C186	C	0.115024	0.823281	0.380600
	C187	C	0.863471	0.823313	0.603389
	C188	C	0.171899	0.393460	0.868951
	C189	C	0.176119	0.613879	0.118670
	C190	C	0.809843	0.393953	0.116451
	C191	C	0.806862	0.614203	0.865620
	C192	C	0.392224	0.095627	0.589025
	C193	C	0.587534	0.913709	0.588392
	C194	C	0.588363	0.096065	0.393979
	C195	C	0.391107	0.913443	0.395124
	C196	C	0.586596	0.407016	0.086173
	C197	C	0.584989	0.601211	0.898947
	C198	C	0.397346	0.599690	0.086424
	C199	C	0.394863	0.407473	0.898067
	C200	C	0.081870	0.603343	0.399375
	C201	C	0.897206	0.602848	0.586354
	C202	C	0.083483	0.405371	0.588660
	C203	C	0.896778	0.407485	0.396287
	C204	C	0.894445	0.595198	0.087567
	C205	C	0.089739	0.413685	0.090540
	C206	C	0.089381	0.595677	0.894244
	C207	C	0.891523	0.412899	0.893790
	C208	C	0.083475	0.910485	0.585156
	C209	C	0.085702	0.104020	0.397644
	C210	C	0.893558	0.103192	0.586028
	C211	C	0.895687	0.910239	0.398704
	C212	C	0.582324	0.102449	0.897623
	C213	C	0.397213	0.103438	0.087938
	C214	C	0.583817	0.906207	0.088153
	C215	C	0.398931	0.907425	0.898892
	Zn216	Zn	0.490160	0.004415	0.743986
	Zn217	Zn	0.490688	0.004312	0.240545
	Zn218	Zn	0.738518	0.504447	-0.008147
	Zn219	Zn	0.243251	0.503836	-0.007740
	Zn220	Zn	-0.010780	0.757706	0.492587
	Zn221	Zn	-0.010574	0.255119	0.491917
	Zn222	Zn	-0.009474	0.504618	0.740346
	Zn223	Zn	-0.008560	0.504778	0.244279
	Zn224	Zn	0.490682	0.753569	-0.006223
	Zn225	Zn	0.490338	0.255298	-0.007696
	Zn226	Zn	0.742426	0.005280	0.491436
	Zn227	Zn	0.237196	0.005518	0.491524
	N228	N	0.403578	0.968238	0.672284
	N229	N	0.576927	0.040542	0.672307
	N230	N	0.575570	0.967784	0.313000
	N231	N	0.405132	0.041400	0.313196
	N232	N	0.666491	0.420308	0.954542
	N233	N	0.668763	0.590134	0.028795
	N234	N	0.314187	0.589435	0.956244
	N235	N	0.313793	0.418440	0.029102
	N236	N	0.954852	0.688669	0.403388
	N237	N	0.023609	0.689021	0.582817
	N238	N	0.955079	0.322820	0.581120
	N239	N	0.024002	0.323098	0.402942
	N240	N	0.952965	0.420392	0.668429
	N241	N	0.027954	0.587626	0.666803
	N242	N	0.953683	0.591186	0.314566
	N243	N	0.028511	0.422745	0.318535
	N244	N	0.403213	0.684270	0.957571
	N245	N	0.579237	0.684719	0.028230
	N246	N	0.578072	0.324001	0.956486
	N247	N	0.403385	0.324547	0.027994
	N248	N	0.672809	0.969898	0.402836
	N249	N	0.670926	0.040486	0.578837
	N250	N	0.307367	0.970056	0.580567
	N251	N	0.308765	0.040561	0.404244
	N252	N	0.906814	0.467998	0.171228
	N253	N	0.080055	0.540292	0.174686
	N254	N	0.076130	0.467627	0.812934
	N255	N	0.903730	0.540546	0.811165
	N256	N	0.165900	0.921319	0.454722
	N257	N	0.168555	0.092822	0.527843
	N258	N	0.812106	0.091511	0.454911
	N259	N	0.813129	0.920940	0.528872
	N260	N	0.455428	0.187516	0.902846
	N261	N	0.524913	0.187067	0.081826
	N262	N	0.457561	0.820008	0.084662
	N263	N	0.524485	0.820503	0.902723
	N264	N	0.453224	0.920916	0.167943
	N265	N	0.527293	0.089140	0.168878
	N266	N	0.453208	0.089995	0.815002
	N267	N	0.527498	0.918996	0.815286
	N268	N	0.901564	0.186182	0.456444
	N269	N	0.076730	0.185482	0.527994
	N270	N	0.078837	0.824149	0.457542
	N271	N	0.900334	0.824609	0.526815
	N272	N	0.172652	0.468976	0.904223
	N273	N	0.175101	0.539175	0.082023
	N274	N	0.809346	0.469226	0.080277
	N275	N	0.807276	0.539192	0.902174
	O276	O	0.504229	0.646799	0.512862
	H277	H	0.508205	0.641930	0.494329
	H278	H	0.506414	0.649824	0.527028
	O279	O	0.928390	0.791049	-0.055398
	H280	H	0.917562	0.794409	-0.057898
	H281	H	0.932771	0.800089	-0.074474
	O282	O	-0.186404	-0.175414	1.170862
	H283	H	-0.200029	-0.130574	1.175692
	H284	H	-0.195326	-0.176873	1.124509
	O285	O	1.202662	-0.025823	-0.218590
	H286	H	1.231112	-0.039160	-0.237391
	H287	H	1.206116	-0.028212	-0.209459
	O288	O	-0.232050	0.222550	0.865512
	H289	H	-0.231324	0.226501	0.854379
	H290	H	-0.230326	0.235904	0.863537
	O291	O	0.369406	0.475663	0.437621
	H292	H	0.378670	0.484342	0.426894
	H293	H	0.368967	0.458049	0.447965
	O294	O	0.641990	0.476129	0.343327
	H295	H	0.642622	0.473684	0.354420
	H296	H	0.652368	0.466566	0.334364
	O297	O	0.919560	1.178368	0.820756
	H298	H	0.958279	1.177554	0.821424
	H299	H	0.922054	1.154671	0.816403
	O300	O	0.175076	0.205583	-0.029087
	H301	H	0.182769	0.215738	-0.018630
	H302	H	0.181185	0.209473	0.016211
	O303	O	0.370715	0.626853	0.560992
	H304	H	0.373273	0.623136	0.542144
	H305	H	0.364869	0.630350	0.557949
	O306	O	1.013790	0.052316	0.030591
	H307	H	1.024097	0.045196	0.014894
	H308	H	1.020754	0.055547	0.026004
	O309	O	0.543319	0.378422	0.324972
	H310	H	0.550304	0.386948	0.319320
	H311	H	0.537463	0.374498	0.333360
	O312	O	1.116675	0.765507	0.094323
	H313	H	1.090498	0.757048	0.085425
	H314	H	1.104078	0.761869	0.111270
	O315	O	0.328085	0.331440	0.510858
	H316	H	0.320436	0.326546	0.506350
	H317	H	0.338326	0.326893	0.504597
	O318	O	0.367235	0.619741	0.350035
	H319	H	0.362656	0.584237	0.353590
	H320	H	0.381199	0.629584	0.349913
	O321	O	1.112083	0.202881	1.144717
	H322	H	1.075330	0.215246	1.149151
	H323	H	1.123108	0.159727	1.156874
	O324	O	-0.001567	0.185515	1.170589
	H325	H	-0.009822	0.169479	1.165259
	H326	H	-0.004769	0.185001	1.178810
	O327	O	0.573257	0.541181	0.468663
	H328	H	0.578171	0.551836	0.479877
	H329	H	0.571033	0.543982	0.471463
	O330	O	0.399368	0.388915	0.611713
	H331	H	0.393394	0.375478	0.608214
	H332	H	0.401020	0.378205	0.602070
	O333	O	1.120751	1.029655	1.077428
	H334	H	1.117033	1.032591	1.073220
	H335	H	1.118074	1.021014	1.084796
	O336	O	0.392884	0.432817	0.623208
	H337	H	0.373243	0.440908	0.633925
	H338	H	0.399246	0.418729	0.607882
	O339	O	0.786902	-0.004244	1.186555
	H340	H	0.779829	0.015578	1.168397
	H341	H	0.766944	0.007121	1.190329
	O342	O	-0.492571	0.478638	1.522466
	H343	H	-0.488040	0.485484	1.519774
	H344	H	-0.490439	0.479520	1.521421
	O345	O	0.421344	0.569287	0.473774
	H346	H	0.411040	0.579753	0.475395
	H347	H	0.418063	0.564244	0.481862
	O348	O	0.551494	0.615707	0.479054
	H349	H	0.559200	0.616709	0.484780
	H350	H	0.559146	0.619898	0.467067
	O351	O	0.176781	-0.184390	-0.192531
	H352	H	0.169747	-0.170720	-0.200228
	H353	H	0.182939	-0.201833	-0.163921
	O354	O	0.912230	1.030290	0.005938
	H355	H	0.923782	1.044156	-0.004860
	H356	H	0.915840	1.026648	0.007341
	O357	O	-0.212835	0.943512	-0.091592
	H358	H	-0.197116	0.944976	-0.090273
	H359	H	-0.205618	0.938998	-0.097636
	O360	O	0.437416	0.644012	0.580831
	H361	H	0.433750	0.641976	0.567263
	H362	H	0.437944	0.644748	0.571338
	O363	O	0.621549	0.497305	0.601089
	H364	H	0.610479	0.496503	0.603511
	H365	H	0.627436	0.505608	0.587667
	O366	O	1.134230	1.022992	1.195322
	H367	H	1.144320	1.010099	1.208633
	H368	H	1.118137	1.002163	1.184309
	O369	O	0.491981	0.530881	0.448264
	H370	H	0.498623	0.518601	0.466144
	H371	H	0.489987	0.525900	0.440416
	O372	O	0.999662	1.135878	-0.121523
	H373	H	1.008144	1.150566	-0.133973
	H374	H	1.014412	1.133503	-0.108341
	O375	O	0.444267	0.372409	0.417605
	H376	H	0.452711	0.378851	0.417967
	H377	H	0.449671	0.378071	0.422782
	O378	O	0.500947	0.562444	0.426509
	H379	H	0.492663	0.555035	0.420350
	H380	H	0.502084	0.559991	0.433434
	O381	O	0.446625	0.418299	0.525566
	H382	H	0.438188	0.421433	0.525694
	H383	H	0.444416	0.409453	0.524742
	O384	O	-0.031612	1.148570	0.824968
	H385	H	-0.024697	1.150686	0.839529
	H386	H	-0.009207	1.145099	0.816561
	O387	O	1.123574	0.936054	0.055999
	H388	H	1.122816	0.902850	0.051811
	H389	H	1.124367	0.947054	0.043671
	O390	O	0.557018	0.431505	0.521697
	H391	H	0.549871	0.434187	0.512675
	H392	H	0.560738	0.420744	0.525719
	O393	O	0.776308	-0.951078	1.784791
	H394	H	0.776811	-0.941173	1.801327
	H395	H	0.751021	-0.958718	1.762680
	O396	O	-0.031128	0.783291	1.210299
	H397	H	-0.054064	0.763369	1.234657
	H398	H	-0.066642	0.783384	1.212694
	O399	O	0.412175	0.642416	0.296950
	H400	H	0.403471	0.631651	0.275526
	H401	H	0.409650	0.660864	0.297813
	O402	O	0.972425	0.145877	1.102811
	H403	H	0.962590	0.135169	1.100516
	H404	H	0.968361	0.133001	1.107006
	O405	O	0.168409	0.004061	-0.008543
	H406	H	0.170981	-0.024316	-0.011715
	H407	H	0.176669	0.020395	-0.005731
	O408	O	0.774264	0.791091	1.009931
	H409	H	0.758397	0.784410	0.994808
	H410	H	0.772235	0.783397	0.999778
	O411	O	0.946640	0.975148	-0.184882
	H412	H	0.946479	0.989728	-0.186635
	H413	H	0.951117	0.972123	-0.183357
	O414	O	0.201341	-0.210021	0.971671
	H415	H	0.170226	-0.222362	0.993082
	H416	H	0.220722	-0.240020	0.956139
	O417	O	0.916740	0.034720	1.148665
	H418	H	0.944410	0.029150	1.138246
	H419	H	0.911479	0.033112	1.145742
	O420	O	0.007998	0.796993	-0.218672
	H421	H	0.010539	0.802932	-0.232497
	H422	H	0.017817	0.795045	-0.230416
	O423	O	1.617890	0.580827	-0.390542
	H424	H	1.612520	0.575777	-0.386728
	H425	H	1.621978	0.586781	-0.407518
	O426	O	-0.052498	0.126460	0.960520
	H427	H	-0.036490	0.126198	0.934908
	H428	H	-0.044765	0.138740	0.963988
	O429	O	0.580019	0.447121	0.581087
	H430	H	0.579100	0.444250	0.580579
	H431	H	0.582255	0.452071	0.591425
