data_Molecule from HDF5

_cell_length_a		16.515541
_cell_length_b		16.143676
_cell_length_c		15.845796
_cell_angle_alpha	90.290208
_cell_angle_beta	89.217486
_cell_angle_gamma	89.904872
_symmetry_space_group_name_H-M	'P 1'
_symmetry_Int_Tables_number		1

loop_
	_symmetry_equiv_pos_as_xyz
	x,y,z

loop_
	_atom_site_label
	_atom_site_type_symbol
	_atom_site_fract_x
	_atom_site_fract_y
	_atom_site_fract_z
	H0	H	0.399244	0.835706	0.706306
	H1	H	0.585495	0.170156	0.703414
	H2	H	0.590110	0.835449	0.282783
	H3	H	0.404418	0.169922	0.290357
	H4	H	0.715675	0.398205	0.830989
	H5	H	0.706685	0.604920	0.163288
	H6	H	0.282378	0.604809	0.829620
	H7	H	0.278310	0.400121	0.161146
	H8	H	0.833824	0.719682	0.398505
	H9	H	0.156197	0.719753	0.596077
	H10	H	0.832160	0.285919	0.599921
	H11	H	0.155168	0.282179	0.392120
	H12	H	0.832564	0.407319	0.713025
	H13	H	0.160106	0.595736	0.705770
	H14	H	0.831484	0.597023	0.287949
	H15	H	0.157416	0.404897	0.281222
	H16	H	0.402298	0.712040	0.827239
	H17	H	0.590389	0.715199	0.163774
	H18	H	0.594494	0.291498	0.826969
	H19	H	0.399159	0.294734	0.164126
	H20	H	0.715304	0.838833	0.387523
	H21	H	0.713195	0.164744	0.600656
	H22	H	0.275749	0.839113	0.601175
	H23	H	0.276567	0.163901	0.390794
	H24	H	0.901258	0.335341	0.206420
	H25	H	0.085484	0.669036	0.206253
	H26	H	0.090395	0.334883	0.784941
	H27	H	0.905723	0.669600	0.792321
	H28	H	0.213095	0.896380	0.329583
	H29	H	0.208205	0.105270	0.661989
	H30	H	0.784752	0.101433	0.329107
	H31	H	0.774980	0.898286	0.660197
	H32	H	0.333914	0.220355	0.897921
	H33	H	0.656826	0.218334	0.092827
	H34	H	0.335303	0.785189	0.099717
	H35	H	0.656689	0.784624	0.890090
	H36	H	0.332881	0.907599	0.210575
	H37	H	0.659075	0.098114	0.205816
	H38	H	0.331041	0.098458	0.787160
	H39	H	0.657644	0.906764	0.778857
	H40	H	0.900251	0.211228	0.328546
	H41	H	0.087118	0.212386	0.664719
	H42	H	0.093012	0.789502	0.327913
	H43	H	0.897891	0.795064	0.665134
	H44	H	0.216458	0.339071	0.888300
	H45	H	0.212375	0.665386	0.101076
	H46	H	0.775079	0.339574	0.103321
	H47	H	0.779650	0.665243	0.894761
	H48	H	0.399032	0.118588	0.583698
	H49	H	0.594944	0.882684	0.582744
	H50	H	0.603450	0.122926	0.405625
	H51	H	0.396290	0.882431	0.406022
	H52	H	0.589383	0.420354	0.114508
	H53	H	0.585647	0.596048	0.876094
	H54	H	0.399080	0.590207	0.115547
	H55	H	0.399952	0.407043	0.871385
	H56	H	0.107236	0.589490	0.405605
	H57	H	0.881434	0.596966	0.589970
	H58	H	0.106437	0.407313	0.576898
	H59	H	0.878222	0.394936	0.413797
	H60	H	0.110893	0.412621	0.595680
	H61	H	0.878597	0.596469	0.600671
	H62	H	0.111839	0.596823	0.394512
	H63	H	0.882440	0.417874	0.408297
	H64	H	0.404833	0.592990	0.114681
	H65	H	0.597600	0.595172	0.872044
	H66	H	0.578989	0.407613	0.115012
	H67	H	0.403049	0.419146	0.876692
	H68	H	0.590498	0.122916	0.393645
	H69	H	0.584104	0.884166	0.588383
	H70	H	0.392714	0.121526	0.587623
	H71	H	0.402864	0.882158	0.399556
	H72	H	0.898616	0.617767	0.079592
	H73	H	0.083793	0.382115	0.097214
	H74	H	0.105211	0.626133	0.899272
	H75	H	0.912323	0.386928	0.907154
	H76	H	0.101973	0.922900	0.617089
	H77	H	0.089450	0.093744	0.375205
	H78	H	0.901044	0.093324	0.616912
	H79	H	0.886073	0.916212	0.371060
	H80	H	0.612906	0.103572	0.897930
	H81	H	0.376757	0.111154	0.090108
	H82	H	0.614488	0.903705	0.094296
	H83	H	0.377517	0.901364	0.901969
	H84	H	0.610816	0.902887	0.078893
	H85	H	0.383241	0.094199	0.085329
	H86	H	0.608812	0.096687	0.905401
	H87	H	0.381956	0.906555	0.910202
	H88	H	0.897361	0.092265	0.617879
	H89	H	0.091423	0.089005	0.375895
	H90	H	0.071954	0.920155	0.609420
	H91	H	0.917295	0.920955	0.381931
	H92	H	0.081344	0.619537	0.896861
	H93	H	0.083067	0.389818	0.073778
	H94	H	0.887819	0.624788	0.094373
	H95	H	0.896881	0.384530	0.916812
	H96	H	0.399852	0.121518	0.591408
	H97	H	0.585563	0.887537	0.577410
	H98	H	0.586826	0.116672	0.410402
	H99	H	0.404601	0.885393	0.409283
	H100	H	0.593105	0.406159	0.120785
	H101	H	0.591617	0.584164	0.877762
	H102	H	0.401423	0.596592	0.117711
	H103	H	0.411333	0.409424	0.876069
	H104	H	0.111354	0.601504	0.407979
	H105	H	0.878444	0.606043	0.594843
	H106	H	0.112895	0.393817	0.589916
	H107	H	0.874424	0.402937	0.390951
	H108	H	0.905921	0.620925	0.097748
	H109	H	0.103168	0.381105	0.082576
	H110	H	0.092286	0.615547	0.919978
	H111	H	0.897408	0.378942	0.898483
	H112	H	0.088055	0.894382	0.622224
	H113	H	0.085744	0.088535	0.376475
	H114	H	0.899936	0.090279	0.616831
	H115	H	0.907658	0.890609	0.370755
	H116	H	0.610551	0.092451	0.895986
	H117	H	0.377145	0.096988	0.103516
	H118	H	0.608031	0.916416	0.086258
	H119	H	0.379860	0.911713	0.900305
	C120	C	0.370412	0.011362	0.617333
	C121	C	0.615512	0.993790	0.613985
	C122	C	0.619822	0.011049	0.372862
	C123	C	0.374496	0.992956	0.375967
	C124	C	0.617336	0.381420	0.005653
	C125	C	0.617240	0.622193	0.986686
	C126	C	0.374598	0.622836	0.005139
	C127	C	0.375868	0.383051	0.985877
	C128	C	0.003220	0.624416	0.375135
	C129	C	0.987186	0.625992	0.620801
	C130	C	0.003016	0.378300	0.618854
	C131	C	0.985856	0.377592	0.373739
	C132	C	0.870942	0.511325	0.119559
	C133	C	0.116844	0.493294	0.115823
	C134	C	0.120310	0.511167	0.874128
	C135	C	0.874916	0.492796	0.878121
	C136	C	0.116415	0.881339	0.505431
	C137	C	0.115266	0.121111	0.486857
	C138	C	0.873708	0.121218	0.505928
	C139	C	0.874256	0.881375	0.485825
	C140	C	0.503315	0.125812	0.872800
	C141	C	0.486830	0.126861	0.119166
	C142	C	0.504241	0.879963	0.117558
	C143	C	0.486661	0.878592	0.872416
	C144	C	0.376230	0.886111	0.671304
	C145	C	0.609312	0.119524	0.668475
	C146	C	0.613286	0.885782	0.318512
	C147	C	0.380878	0.119147	0.324636
	C148	C	0.675601	0.380686	0.880246
	C149	C	0.669682	0.623172	0.113134
	C150	C	0.320206	0.623148	0.879370
	C151	C	0.318111	0.382665	0.111751
	C152	C	0.881811	0.680455	0.378385
	C153	C	0.108514	0.681268	0.616672
	C154	C	0.880862	0.324363	0.618871
	C155	C	0.107329	0.321291	0.373022
	C156	C	0.881022	0.384525	0.675544
	C157	C	0.110562	0.619337	0.671147
	C158	C	0.880639	0.619378	0.323217
	C159	C	0.108352	0.382156	0.317818
	C160	C	0.379667	0.676783	0.878151
	C161	C	0.611842	0.678045	0.113373
	C162	C	0.615625	0.327207	0.878482
	C163	C	0.378182	0.330224	0.113228
	C164	C	0.675599	0.887423	0.370767
	C165	C	0.672504	0.116804	0.616903
	C166	C	0.314760	0.887915	0.618641
	C167	C	0.317330	0.115971	0.374716
	C168	C	0.877951	0.385708	0.171447
	C169	C	0.109671	0.618662	0.170708
	C170	C	0.114112	0.385410	0.819903
	C171	C	0.881792	0.618875	0.826182
	C172	C	0.173790	0.879101	0.379547
	C173	C	0.169607	0.122733	0.612512
	C174	C	0.821291	0.120592	0.379434
	C175	C	0.815346	0.881118	0.611153
	C176	C	0.381839	0.181758	0.877054
	C177	C	0.608804	0.180505	0.114125
	C178	C	0.383109	0.824104	0.118291
	C179	C	0.608315	0.823208	0.871357
	C180	C	0.381888	0.885210	0.173350
	C181	C	0.609934	0.120371	0.170133
	C182	C	0.380281	0.120986	0.821826
	C183	C	0.608647	0.883702	0.815563
	C184	C	0.878663	0.175184	0.379112
	C185	C	0.109638	0.176292	0.613928
	C186	C	0.113938	0.826004	0.378559
	C187	C	0.876588	0.829671	0.613687
	C188	C	0.176782	0.387612	0.871402
	C189	C	0.172687	0.616823	0.118414
	C190	C	0.815014	0.388030	0.120388
	C191	C	0.819521	0.616905	0.877861
	C192	C	0.391132	0.098181	0.594405
	C193	C	0.594470	0.907230	0.589915
	C194	C	0.599711	0.098285	0.396339
	C195	C	0.395268	0.905875	0.398395
	C196	C	0.594130	0.404824	0.094104
	C197	C	0.597384	0.598792	0.898190
	C198	C	0.395548	0.600066	0.093218
	C199	C	0.398361	0.405268	0.897552
	C200	C	0.088148	0.602438	0.396323
	C201	C	0.901726	0.605675	0.600976
	C202	C	0.087988	0.398621	0.594766
	C203	C	0.900599	0.398900	0.397438
	C204	C	0.891421	0.598669	0.097278
	C205	C	0.096103	0.406732	0.091647
	C206	C	0.099211	0.597883	0.898166
	C207	C	0.896048	0.406025	0.900750
	C208	C	0.093903	0.905403	0.593575
	C209	C	0.094946	0.097465	0.398814
	C210	C	0.893564	0.098634	0.594264
	C211	C	0.896998	0.902984	0.397484
	C212	C	0.588547	0.103931	0.893518
	C213	C	0.401282	0.106709	0.099070
	C214	C	0.589200	0.901291	0.093672
	C215	C	0.401822	0.900164	0.896988
	Zn216	Zn	0.493886	0.003032	0.743091
	Zn217	Zn	0.495637	0.003274	0.247897
	Zn218	Zn	0.744192	0.502482	-0.002559
	Zn219	Zn	0.248067	0.501976	-0.004651
	Zn220	Zn	-0.004823	0.756030	0.497200
	Zn221	Zn	-0.006158	0.247365	0.496416
	Zn222	Zn	-0.003671	0.501963	0.749477
	Zn223	Zn	-0.005475	0.501595	0.244869
	Zn224	Zn	0.496232	0.748803	-0.004689
	Zn225	Zn	0.495422	0.256230	-0.004838
	Zn226	Zn	0.747217	0.001933	0.495007
	Zn227	Zn	0.243903	0.001721	0.495248
	N228	N	0.410189	0.963974	0.670874
	N229	N	0.574442	0.042090	0.666716
	N230	N	0.579356	0.963733	0.319694
	N231	N	0.415888	0.041719	0.325310
	N232	N	0.676672	0.413747	0.960659
	N233	N	0.673089	0.589093	0.033378
	N234	N	0.317034	0.590320	0.959428
	N235	N	0.316523	0.414715	0.031459
	N236	N	0.958971	0.683617	0.410089
	N237	N	0.030868	0.685609	0.586153
	N238	N	0.957760	0.320280	0.584353
	N239	N	0.030178	0.318085	0.406936
	N240	N	0.957831	0.417390	0.675577
	N241	N	0.034182	0.585844	0.674163
	N242	N	0.957187	0.585317	0.320973
	N243	N	0.031843	0.416277	0.318003
	N244	N	0.412920	0.676542	0.957296
	N245	N	0.579893	0.677589	0.033610
	N246	N	0.579987	0.327688	0.957457
	N247	N	0.413290	0.330206	0.034018
	N248	N	0.679843	0.966410	0.403822
	N249	N	0.676763	0.037654	0.584093
	N250	N	0.310983	0.966730	0.586036
	N251	N	0.313259	0.036421	0.405962
	N252	N	0.911947	0.463403	0.171213
	N253	N	0.075619	0.540837	0.169215
	N254	N	0.079760	0.463074	0.821462
	N255	N	0.915633	0.540732	0.826235
	N256	N	0.175354	0.913159	0.459409
	N257	N	0.173053	0.089176	0.532536
	N258	N	0.818145	0.087701	0.459263
	N259	N	0.813873	0.912419	0.530635
	N260	N	0.459384	0.184921	0.907838
	N261	N	0.531404	0.184750	0.083186
	N262	N	0.460191	0.820839	0.083958
	N263	N	0.531483	0.819835	0.905824
	N264	N	0.458277	0.919078	0.173290
	N265	N	0.533071	0.087790	0.173527
	N266	N	0.456767	0.086886	0.819070
	N267	N	0.531993	0.917620	0.815882
	N268	N	0.910624	0.175787	0.458888
	N269	N	0.076590	0.175570	0.534570
	N270	N	0.078983	0.827235	0.457834
	N271	N	0.912517	0.829483	0.534786
	N272	N	0.180820	0.466787	0.904507
	N273	N	0.177314	0.537859	0.085176
	N274	N	0.810424	0.467461	0.089029
	N275	N	0.814934	0.537537	0.909162
	O276	O	-0.112692	-0.007943	0.012236
	H277	H	-0.117206	-0.009289	0.007450
	H278	H	-0.120044	-0.020995	0.009534
	O279	O	0.503924	0.453170	0.538431
	H280	H	0.495195	0.447854	0.529009
	H281	H	0.511297	0.462358	0.535031
	O282	O	0.462209	0.606762	0.508539
	H283	H	0.474536	0.604949	0.506086
	H284	H	0.472174	0.611336	0.515966
	O285	O	0.020764	0.953570	0.955565
	H286	H	0.018938	0.945935	0.939516
	H287	H	0.032175	0.951463	0.957479
	O288	O	0.507231	0.577694	0.557651
	H289	H	0.512884	0.566014	0.555511
	H290	H	0.502300	0.584009	0.558627
	O291	O	1.092531	1.063678	1.037105
	H292	H	1.088536	1.064851	1.036111
	H293	H	1.093014	1.069166	1.041714
	O294	O	0.987173	1.113555	0.966959
	H295	H	0.998162	1.120490	0.972674
	H296	H	0.979153	1.116919	0.967098
	O297	O	0.907248	-0.029997	1.062252
	H298	H	0.899241	-0.024552	1.061259
	H299	H	0.906651	-0.026761	1.058211
	O300	O	0.451042	0.486505	0.450070
	H301	H	0.437748	0.483718	0.445886
	H302	H	0.448278	0.489845	0.452507
	O303	O	1.032024	-0.033173	-0.004286
	H304	H	1.034577	-0.012906	-0.001166
	H305	H	1.029208	-0.038170	-0.003123
	O306	O	0.023548	1.067654	1.069023
	H307	H	0.026249	1.062061	1.073468
	H308	H	0.018744	1.074401	1.066648
	O309	O	0.478480	0.474860	0.433942
	H310	H	0.473423	0.471714	0.434135
	H311	H	0.482596	0.461068	0.427281
	O312	O	0.950012	-0.016576	0.963625
	H313	H	0.953528	-0.009228	0.960438
	H314	H	0.959675	-0.017694	0.965263
	O315	O	0.396236	0.489178	0.565775
	H316	H	0.412260	0.501563	0.564158
	H317	H	0.400438	0.496858	0.570143
	O318	O	0.545023	0.517599	0.489725
	H319	H	0.549738	0.513915	0.492593
	H320	H	0.551563	0.513529	0.492685
	O321	O	0.979255	1.062696	1.002926
	H322	H	0.985616	1.057378	0.997540
	H323	H	0.976127	1.063072	1.009651
	O324	O	0.543033	0.474548	0.404627
	H325	H	0.537986	0.472839	0.402333
	H326	H	0.539017	0.468135	0.404400
	O327	O	0.536904	0.457620	0.501191
	H328	H	0.543452	0.463822	0.498357
	H329	H	0.545057	0.462100	0.510168
	O330	O	0.949511	-0.035237	0.968613
	H331	H	0.949131	-0.039427	0.982055
	H332	H	0.954276	-0.033927	0.972389
	O333	O	1.020405	0.952491	0.045559
	H334	H	1.019177	0.939885	0.045724
	H335	H	1.008121	0.954163	0.056348
	O336	O	0.554199	0.602010	0.558500
	H337	H	0.550839	0.605763	0.549926
	H338	H	0.546696	0.612508	0.558429
	O339	O	0.495017	0.483219	0.450410
	H340	H	0.482877	0.484995	0.451946
	H341	H	0.489339	0.476032	0.443200
	O342	O	0.121176	1.019001	0.031445
	H343	H	0.129408	1.020686	0.030312
	H344	H	0.115800	1.011376	0.031615
	O345	O	0.024463	-0.007262	-0.040914
	H346	H	0.037491	-0.011819	-0.043374
	H347	H	0.031076	-0.010667	-0.043459
	O348	O	0.426539	0.430206	0.490633
	H349	H	0.418590	0.430124	0.489592
	H350	H	0.418898	0.433094	0.496991
	O351	O	0.430833	0.516783	0.499313
	H352	H	0.424754	0.503405	0.487411
	H353	H	0.432691	0.520683	0.496553
	O354	O	0.521491	0.526820	0.508692
	H355	H	0.528963	0.520101	0.510840
	H356	H	0.522006	0.528479	0.515074
	O357	O	0.469057	0.410133	0.516531
	H358	H	0.463552	0.409817	0.521035
	H359	H	0.465893	0.415144	0.520426
	O360	O	0.116074	-0.017425	-0.039973
	H361	H	0.115052	-0.021602	-0.038317
	H362	H	0.124006	-0.016569	-0.050497
	O363	O	0.573793	0.465623	0.492293
	H364	H	0.579880	0.474493	0.491760
	H365	H	0.582697	0.464944	0.490805
	O366	O	0.036576	-0.100783	0.961666
	H367	H	0.030543	-0.094371	0.952278
	H368	H	0.037018	-0.099538	0.967294
	O369	O	0.635555	0.553391	0.509657
	H370	H	0.643717	0.557525	0.510403
	H371	H	0.636948	0.543512	0.516166
