data_Molecule from HDF5

_cell_length_a		15.913063
_cell_length_b		16.122672
_cell_length_c		16.602251
_cell_angle_alpha	89.774518
_cell_angle_beta	90.353936
_cell_angle_gamma	90.550381
_symmetry_space_group_name_H-M	'P 1'
_symmetry_Int_Tables_number		1

loop_
	_symmetry_equiv_pos_as_xyz
	x,y,z

loop_
	_atom_site_label
	_atom_site_type_symbol
	_atom_site_fract_x
	_atom_site_fract_y
	_atom_site_fract_z
	H0	H	0.378642	0.845171	0.714174
	H1	H	0.601336	0.166720	0.711676
	H2	H	0.594416	0.844624	0.272055
	H3	H	0.381793	0.166498	0.269467
	H4	H	0.700621	0.411411	0.829914
	H5	H	0.707765	0.606045	0.151911
	H6	H	0.271498	0.604702	0.830167
	H7	H	0.273047	0.405891	0.153869
	H8	H	0.819986	0.711422	0.395005
	H9	H	0.153388	0.715886	0.590126
	H10	H	0.820625	0.289105	0.586857
	H11	H	0.154735	0.293980	0.392554
	H12	H	0.824264	0.392426	0.710945
	H13	H	0.149153	0.611904	0.712049
	H14	H	0.824945	0.609970	0.270176
	H15	H	0.151159	0.400026	0.271572
	H16	H	0.384433	0.727129	0.832629
	H17	H	0.594646	0.727172	0.151628
	H18	H	0.592050	0.287029	0.833228
	H19	H	0.387023	0.284486	0.152287
	H20	H	0.692556	0.837586	0.399317
	H21	H	0.705507	0.168704	0.586909
	H22	H	0.277505	0.838813	0.585903
	H23	H	0.275648	0.169983	0.392035
	H24	H	0.880641	0.343595	0.210916
	H25	H	0.098225	0.666921	0.210852
	H26	H	0.093240	0.342839	0.772138
	H27	H	0.880641	0.665107	0.768247
	H28	H	0.201889	0.907359	0.329526
	H29	H	0.205658	0.102385	0.651746
	H30	H	0.772683	0.099067	0.329358
	H31	H	0.772215	0.903990	0.652567
	H32	H	0.322058	0.214435	0.896174
	H33	H	0.656887	0.217481	0.089487
	H34	H	0.322301	0.792931	0.088442
	H35	H	0.656181	0.798044	0.897039
	H36	H	0.325240	0.899457	0.209358
	H37	H	0.653856	0.112143	0.211140
	H38	H	0.325965	0.111744	0.771749
	H39	H	0.653554	0.903411	0.776170
	H40	H	0.884677	0.223297	0.330675
	H41	H	0.093232	0.224901	0.649810
	H42	H	0.086722	0.786901	0.330710
	H43	H	0.886257	0.783604	0.651566
	H44	H	0.197396	0.338344	0.898063
	H45	H	0.202090	0.670943	0.085606
	H46	H	0.776029	0.340189	0.085927
	H47	H	0.780161	0.672009	0.895033
	H48	H	0.405375	0.123362	0.591096
	H49	H	0.570247	0.886482	0.598688
	H50	H	0.575919	0.122812	0.398444
	H51	H	0.393372	0.885725	0.397954
	H52	H	0.581216	0.409098	0.106778
	H53	H	0.579762	0.607152	0.876999
	H54	H	0.408741	0.591359	0.098525
	H55	H	0.395291	0.410378	0.878705
	H56	H	0.107606	0.594776	0.399269
	H57	H	0.872581	0.578006	0.579348
	H58	H	0.108775	0.412939	0.588737
	H59	H	0.870769	0.419204	0.399139
	H60	H	0.104287	0.416077	0.577869
	H61	H	0.861813	0.592625	0.594859
	H62	H	0.107664	0.593825	0.399852
	H63	H	0.868000	0.414356	0.395551
	H64	H	0.400312	0.613458	0.109236
	H65	H	0.585666	0.601763	0.876830
	H66	H	0.584382	0.412460	0.106690
	H67	H	0.393895	0.409466	0.877369
	H68	H	0.579256	0.123069	0.400635
	H69	H	0.569386	0.891440	0.579090
	H70	H	0.405620	0.119825	0.577175
	H71	H	0.400838	0.887659	0.392788
	H72	H	0.895966	0.624733	0.084307
	H73	H	0.070692	0.388228	0.089592
	H74	H	0.079069	0.620796	0.901379
	H75	H	0.891542	0.386639	0.905540
	H76	H	0.076916	0.911422	0.603182
	H77	H	0.067743	0.110970	0.376538
	H78	H	0.898410	0.101303	0.605447
	H79	H	0.896505	0.905395	0.377866
	H80	H	0.606889	0.092116	0.903342
	H81	H	0.369175	0.087810	0.090946
	H82	H	0.611894	0.918155	0.093074
	H83	H	0.369479	0.915664	0.900795
	H84	H	0.608607	0.912171	0.080941
	H85	H	0.368676	0.102134	0.083536
	H86	H	0.610442	0.095068	0.894302
	H87	H	0.371180	0.920369	0.901631
	H88	H	0.893865	0.091810	0.603575
	H89	H	0.094500	0.103075	0.371078
	H90	H	0.081665	0.904757	0.606298
	H91	H	0.889056	0.902905	0.375042
	H92	H	0.079388	0.624354	0.894786
	H93	H	0.076818	0.388786	0.079037
	H94	H	0.904232	0.623657	0.089690
	H95	H	0.891975	0.383306	0.890393
	H96	H	0.393961	0.125401	0.582706
	H97	H	0.587301	0.883669	0.586780
	H98	H	0.580023	0.124048	0.396914
	H99	H	0.400257	0.889495	0.401684
	H100	H	0.579943	0.413700	0.104976
	H101	H	0.578723	0.599752	0.879562
	H102	H	0.384405	0.593001	0.107066
	H103	H	0.394070	0.410445	0.878901
	H104	H	0.106971	0.592975	0.399444
	H105	H	0.867622	0.599511	0.572826
	H106	H	0.104044	0.424452	0.587165
	H107	H	0.869947	0.414022	0.401253
	H108	H	0.904474	0.622103	0.079967
	H109	H	0.082384	0.384018	0.088533
	H110	H	0.072530	0.619388	0.896092
	H111	H	0.905246	0.390082	0.898083
	H112	H	0.084949	0.912739	0.605556
	H113	H	0.076770	0.084024	0.383011
	H114	H	0.904514	0.093881	0.601917
	H115	H	0.890261	0.911303	0.376647
	H116	H	0.610517	0.101595	0.901607
	H117	H	0.374191	0.088204	0.075805
	H118	H	0.605016	0.925434	0.082677
	H119	H	0.369477	0.918927	0.897148
	C120	C	0.369481	0.014403	0.612839
	C121	C	0.609821	0.995603	0.615486
	C122	C	0.607897	0.014325	0.370851
	C123	C	0.367310	0.995825	0.368280
	C124	C	0.610856	0.383987	0.000118
	C125	C	0.612632	0.631594	0.983468
	C126	C	0.366442	0.628950	-0.000506
	C127	C	0.364914	0.380491	0.984370
	C128	C	-0.002113	0.624436	0.369577
	C129	C	0.977024	0.622378	0.612174
	C130	C	-0.003427	0.383845	0.612991
	C131	C	0.978880	0.385297	0.369833
	C132	C	0.868795	0.515025	0.112663
	C133	C	0.109264	0.495846	0.113799
	C134	C	0.107523	0.513404	0.869763
	C135	C	0.866361	0.495491	0.868544
	C136	C	0.110099	0.880872	0.499260
	C137	C	0.111728	0.128571	0.482395
	C138	C	0.867048	0.125105	0.498516
	C139	C	0.863452	0.878246	0.482809
	C140	C	0.499459	0.126866	0.869976
	C141	C	0.480453	0.124868	0.113072
	C142	C	0.498787	0.886321	0.113894
	C143	C	0.479566	0.887627	0.871153
	C144	C	0.363782	0.892674	0.672420
	C145	C	0.616363	0.118148	0.672024
	C146	C	0.610445	0.892262	0.312971
	C147	C	0.364517	0.118100	0.309655
	C148	C	0.664628	0.388729	0.878559
	C149	C	0.669830	0.627828	0.103923
	C150	C	0.309278	0.626022	0.878791
	C151	C	0.310083	0.383901	0.105228
	C152	C	0.871243	0.677083	0.372609
	C153	C	0.102641	0.679626	0.611164
	C154	C	0.871309	0.325656	0.609272
	C155	C	0.104361	0.330253	0.372006
	C156	C	0.872786	0.377654	0.670621
	C157	C	0.100595	0.627424	0.671566
	C158	C	0.873763	0.626420	0.310587
	C159	C	0.102456	0.383206	0.311610
	C160	C	0.365547	0.687249	0.879904
	C161	C	0.612753	0.687473	0.104057
	C162	C	0.610688	0.326867	0.880269
	C163	C	0.367244	0.323837	0.104627
	C164	C	0.659535	0.888712	0.376134
	C165	C	0.668513	0.119157	0.609931
	C166	C	0.313205	0.889456	0.608802
	C167	C	0.312013	0.120036	0.371150
	C168	C	0.864375	0.391970	0.170408
	C169	C	0.113952	0.618829	0.170633
	C170	C	0.109752	0.390851	0.812574
	C171	C	0.864279	0.617507	0.809462
	C172	C	0.164595	0.885389	0.378035
	C173	C	0.168722	0.124951	0.603111
	C174	C	0.810269	0.121739	0.377527
	C175	C	0.808962	0.881952	0.604111
	C176	C	0.373024	0.179522	0.873910
	C177	C	0.606421	0.180988	0.110528
	C178	C	0.373029	0.829366	0.110421
	C179	C	0.605781	0.833623	0.875346
	C180	C	0.374518	0.882316	0.170681
	C181	C	0.604558	0.128673	0.171379
	C182	C	0.375087	0.128175	0.812170
	C183	C	0.604263	0.885965	0.814968
	C184	C	0.866234	0.183229	0.378240
	C185	C	0.112574	0.185691	0.602203
	C186	C	0.107179	0.825472	0.378734
	C187	C	0.865979	0.822224	0.603718
	C188	C	0.162000	0.388662	0.874839
	C189	C	0.165661	0.620867	0.108423
	C190	C	0.812056	0.390287	0.108501
	C191	C	0.814105	0.620947	0.872390
	C192	C	0.394410	0.100456	0.590332
	C193	C	0.583291	0.909549	0.594333
	C194	C	0.585177	0.100921	0.392472
	C195	C	0.391056	0.909799	0.390792
	C196	C	0.588328	0.405573	0.084227
	C197	C	0.588448	0.609422	0.899676
	C198	C	0.390649	0.605958	0.083242
	C199	C	0.387718	0.403315	0.900079
	C200	C	0.085049	0.600948	0.392668
	C201	C	0.889975	0.597339	0.588938
	C202	C	0.083124	0.410159	0.590904
	C203	C	0.892142	0.409007	0.392247
	C204	C	0.894079	0.601205	0.091012
	C205	C	0.084059	0.409539	0.092193
	C206	C	0.083955	0.599283	0.891093
	C207	C	0.889291	0.409127	0.891450
	C208	C	0.087666	0.903013	0.583182
	C209	C	0.087087	0.105936	0.398676
	C210	C	0.891574	0.102240	0.581879
	C211	C	0.885413	0.900090	0.398644
	C212	C	0.586669	0.103252	0.892897
	C213	C	0.393249	0.099964	0.090197
	C214	C	0.585870	0.911287	0.092072
	C215	C	0.392557	0.911167	0.893237
	Zn216	Zn	0.489129	0.006376	0.742934
	Zn217	Zn	0.489823	0.005599	0.241443
	Zn218	Zn	0.740966	0.506199	-0.008977
	Zn219	Zn	0.235685	0.504913	-0.008187
	Zn220	Zn	-0.013045	0.748918	0.491538
	Zn221	Zn	-0.011408	0.258339	0.490585
	Zn222	Zn	-0.013731	0.503661	0.740445
	Zn223	Zn	-0.011031	0.505494	0.242035
	Zn224	Zn	0.489189	0.760800	-0.008292
	Zn225	Zn	0.490119	0.251606	-0.007918
	Zn226	Zn	0.734561	0.002925	0.490874
	Zn227	Zn	0.241340	0.004334	0.490957
	N228	N	0.397981	0.971315	0.675154
	N229	N	0.580544	0.040255	0.675506
	N230	N	0.578771	0.971351	0.309739
	N231	N	0.398373	0.039876	0.307764
	N232	N	0.664934	0.423563	0.954049
	N233	N	0.670069	0.593723	0.028138
	N234	N	0.309910	0.590214	0.954056
	N235	N	0.308448	0.418285	0.029315
	N236	N	0.949285	0.675853	0.408709
	N237	N	0.024749	0.676831	0.574939
	N238	N	0.949127	0.329445	0.574007
	N239	N	0.026637	0.331596	0.407685
	N240	N	0.951863	0.413203	0.673239
	N241	N	0.021553	0.592406	0.672300
	N242	N	0.953687	0.594443	0.308423
	N243	N	0.023358	0.416792	0.310057
	N244	N	0.400133	0.689410	0.956093
	N245	N	0.577991	0.690123	0.028077
	N246	N	0.578064	0.323656	0.956772
	N247	N	0.400573	0.321439	0.028199
	N248	N	0.658010	0.965746	0.411656
	N249	N	0.664594	0.041873	0.575501
	N250	N	0.316641	0.966178	0.572206
	N251	N	0.313642	0.043001	0.406901
	N252	N	0.899149	0.470323	0.173009
	N253	N	0.080055	0.539984	0.174257
	N254	N	0.076856	0.469414	0.809129
	N255	N	0.895965	0.538336	0.806906
	N256	N	0.166657	0.919195	0.453858
	N257	N	0.168407	0.090344	0.527488
	N258	N	0.810647	0.086235	0.453009
	N259	N	0.807233	0.916131	0.528182
	N260	N	0.451467	0.178846	0.909322
	N261	N	0.528183	0.178802	0.075060
	N262	N	0.451381	0.831618	0.075755
	N263	N	0.527229	0.834279	0.909678
	N264	N	0.453737	0.917006	0.172868
	N265	N	0.525001	0.094521	0.173181
	N266	N	0.454956	0.096456	0.809497
	N267	N	0.524781	0.918888	0.812248
	N268	N	0.900591	0.185677	0.454532
	N269	N	0.078155	0.188155	0.526122
	N270	N	0.073837	0.822579	0.455136
	N271	N	0.899094	0.819775	0.527417
	N272	N	0.161027	0.465798	0.909757
	N273	N	0.162968	0.543389	0.073872
	N274	N	0.814603	0.467759	0.073421
	N275	N	0.815252	0.543966	0.908432
	O276	O	0.903613	0.013056	0.947939
	H277	H	0.899456	0.018088	0.943442
	H278	H	0.915281	0.012131	0.941823
	O279	O	0.426130	0.564149	0.464441
	H280	H	0.429586	0.554173	0.476587
	H281	H	0.430311	0.563916	0.455134
	O282	O	0.457742	0.389534	0.654677
	H283	H	0.429091	0.390647	0.644649
	H284	H	0.455873	0.370036	0.666368
	O285	O	0.447645	0.653691	0.453915
	H286	H	0.455170	0.645991	0.443661
	H287	H	0.460246	0.664488	0.450560
	O288	O	0.586568	0.566219	0.368659
	H289	H	0.579687	0.566017	0.379945
	H290	H	0.587424	0.565305	0.368064
	O291	O	0.378563	-0.425500	1.467088
	H292	H	0.366791	-0.414636	1.468945
	H293	H	0.390428	-0.431712	1.452780
	O294	O	0.960398	0.952059	0.056649
	H295	H	0.956966	0.945423	0.044386
	H296	H	0.966256	0.945534	0.057676
	O297	O	1.024357	1.028236	0.019824
	H298	H	1.021657	1.022592	0.015568
	H299	H	1.023330	1.039961	0.019865
	O300	O	0.515590	0.467461	0.580980
	H301	H	0.515910	0.475947	0.577963
	H302	H	0.522621	0.456171	0.590180
	O303	O	0.568081	0.569701	0.460832
	H304	H	0.565795	0.554868	0.469680
	H305	H	0.562292	0.580533	0.470097
	O306	O	0.353162	0.457163	0.495525
	H307	H	0.353445	0.458112	0.488486
	H308	H	0.357821	0.469223	0.493631
	O309	O	0.566114	0.445487	0.467235
	H310	H	0.571826	0.443517	0.481378
	H311	H	0.558523	0.449520	0.457168
	O312	O	1.063087	1.046632	0.998606
	H313	H	1.061062	1.048137	0.992184
	H314	H	1.075030	1.037482	0.997923
	O315	O	0.966249	0.912548	0.075924
	H316	H	0.960126	0.917458	0.076421
	H317	H	0.965777	0.909697	0.080176
	O318	O	0.308490	0.528079	0.672556
	H319	H	0.297778	0.525375	0.662906
	H320	H	0.310953	0.534669	0.656601
	O321	O	0.571185	0.496078	0.595131
	H322	H	0.565969	0.498757	0.579042
	H323	H	0.548715	0.489269	0.588899
	O324	O	0.011139	0.864938	1.037554
	H325	H	0.010797	0.878482	1.046974
	H326	H	0.007052	0.851828	1.040052
	O327	O	0.017649	1.072969	1.004748
	H328	H	0.021575	1.074686	0.995006
	H329	H	0.031447	1.066762	1.004974
	O330	O	-0.100573	0.036975	-0.179567
	H331	H	-0.098026	0.033897	-0.183674
	H332	H	-0.079665	0.027739	-0.184523
	O333	O	0.596919	0.382374	0.408048
	H334	H	0.600505	0.377515	0.411254
	H335	H	0.604591	0.392873	0.414644
	O336	O	0.021715	0.017666	0.076399
	H337	H	0.023436	0.030142	0.085302
	H338	H	0.027794	0.027397	0.078187
	O339	O	0.131444	0.071198	-0.066741
	H340	H	0.132993	0.064915	-0.059881
	H341	H	0.131116	0.076204	-0.065714
	O342	O	0.519007	0.674417	0.649129
	H343	H	0.515789	0.666430	0.658940
	H344	H	0.507878	0.665131	0.654547
	O345	O	0.026953	1.000007	1.035968
	H346	H	0.018913	0.988704	1.042948
	H347	H	0.026087	0.993854	1.043292
	O348	O	0.456283	0.427130	0.468917
	H349	H	0.447698	0.429878	0.482020
	H350	H	0.456789	0.432376	0.482280
	O351	O	0.560234	0.478493	0.645486
	H352	H	0.538287	0.465870	0.649208
	H353	H	0.577022	0.478306	0.642911
	O354	O	-0.056747	1.090125	-0.062327
	H355	H	-0.068080	1.080374	-0.072040
	H356	H	-0.070526	1.098023	-0.060706
	O357	O	0.643994	0.501142	0.636230
	H358	H	0.640309	0.512778	0.632586
	H359	H	0.657074	0.500009	0.645957
	O360	O	1.491393	-0.616670	1.506668
	H361	H	1.489485	-0.599274	1.499842
	H362	H	1.505861	-0.619840	1.528602
	O363	O	0.438117	0.610731	0.314769
	H364	H	0.428616	0.622700	0.319388
	H365	H	0.436873	0.605572	0.309126
	O366	O	0.467387	0.338715	0.358110
	H367	H	0.469968	0.335042	0.352222
	H368	H	0.479882	0.331275	0.350004
	O369	O	1.032610	-0.035526	-0.095335
	H370	H	1.042238	-0.047681	-0.101651
	H371	H	1.032982	-0.027191	-0.096888
	O372	O	0.451572	0.475457	0.442473
	H373	H	0.450051	0.466947	0.447233
	H374	H	0.460369	0.489457	0.438904
	O375	O	0.904662	-0.006848	0.972767
	H376	H	0.893494	-0.011172	0.970427
	H377	H	0.907201	0.000572	0.973566
	O378	O	-0.034317	1.076732	0.018811
	H379	H	-0.053040	1.073200	0.021132
	H380	H	-0.032515	1.084836	0.025336
	O381	O	0.316896	0.376961	0.532355
	H382	H	0.318343	0.381067	0.512683
	H383	H	0.317357	0.401059	0.527370
	O384	O	1.015733	1.026527	0.103488
	H385	H	1.024119	1.049986	0.100018
	H386	H	1.016130	1.036442	0.105530
	O387	O	1.517435	0.551290	1.462869
	H388	H	1.513023	0.531998	1.471831
	H389	H	1.510009	0.550121	1.447652
	O390	O	1.012593	1.021984	-0.094871
	H391	H	1.006481	1.036559	-0.098917
	H392	H	1.017098	1.016316	-0.086976
	O393	O	0.376571	0.541192	0.383925
	H394	H	0.364124	0.541442	0.373569
	H395	H	0.389210	0.541851	0.379795
