data_Molecule from HDF5

_cell_length_a		16.595329
_cell_length_b		16.581347
_cell_length_c		16.545181
_cell_angle_alpha	89.912964
_cell_angle_beta	89.912611
_cell_angle_gamma	89.841157
_symmetry_space_group_name_H-M	'P 1'
_symmetry_Int_Tables_number		1

loop_
	_symmetry_equiv_pos_as_xyz
	x,y,z

loop_
	_atom_site_label
	_atom_site_type_symbol
	_atom_site_fract_x
	_atom_site_fract_y
	_atom_site_fract_z
	H0	H	0.391229	0.839552	0.712061
	H1	H	0.600348	0.151585	0.714226
	H2	H	0.597260	0.837808	0.275469
	H3	H	0.391902	0.153642	0.271085
	H4	H	0.717712	0.389427	0.836237
	H5	H	0.715992	0.600128	0.147125
	H6	H	0.272735	0.601738	0.835584
	H7	H	0.271983	0.388881	0.147169
	H8	H	0.838147	0.715588	0.390025
	H9	H	0.151927	0.717087	0.595906
	H10	H	0.842852	0.273321	0.599282
	H11	H	0.151609	0.273467	0.385063
	H12	H	0.841002	0.389740	0.715025
	H13	H	0.151293	0.600539	0.714124
	H14	H	0.839097	0.600099	0.272706
	H15	H	0.151918	0.392159	0.269785
	H16	H	0.387285	0.719690	0.836688
	H17	H	0.599023	0.715425	0.148160
	H18	H	0.601204	0.273355	0.836960
	H19	H	0.389842	0.273968	0.147931
	H20	H	0.714774	0.838756	0.390795
	H21	H	0.718996	0.151219	0.599940
	H22	H	0.276876	0.838719	0.593281
	H23	H	0.274078	0.153323	0.386270
	H24	H	0.890874	0.340648	0.214292
	H25	H	0.098253	0.652824	0.209958
	H26	H	0.102916	0.340172	0.768388
	H27	H	0.891641	0.652899	0.771798
	H28	H	0.212775	0.896441	0.333270
	H29	H	0.216616	0.100680	0.649462
	H30	H	0.776428	0.101040	0.335238
	H31	H	0.778624	0.895781	0.651613
	H32	H	0.338658	0.218602	0.885288
	H33	H	0.652742	0.213672	0.092496
	H34	H	0.337796	0.778088	0.094452
	H35	H	0.651480	0.775024	0.886702
	H36	H	0.337739	0.895815	0.209729
	H37	H	0.653354	0.097005	0.209184
	H38	H	0.337861	0.101652	0.770629
	H39	H	0.651166	0.891261	0.770039
	H40	H	0.891733	0.217456	0.335071
	H41	H	0.101621	0.218841	0.648989
	H42	H	0.096945	0.778993	0.334231
	H43	H	0.897442	0.781265	0.652432
	H44	H	0.219522	0.340721	0.883598
	H45	H	0.215004	0.652725	0.094244
	H46	H	0.774086	0.340153	0.098104
	H47	H	0.772440	0.652019	0.886010
	H48	H	0.409157	0.107381	0.580830
	H49	H	0.577434	0.887521	0.579441
	H50	H	0.585070	0.110786	0.394856
	H51	H	0.404954	0.883019	0.397619
	H52	H	0.581403	0.406184	0.103718
	H53	H	0.589566	0.578771	0.879140
	H54	H	0.406138	0.585220	0.103569
	H55	H	0.407517	0.410036	0.881282
	H56	H	0.108362	0.591950	0.404849
	H57	H	0.884113	0.590110	0.579160
	H58	H	0.107830	0.407698	0.577933
	H59	H	0.887442	0.414522	0.405885
	H60	H	0.105665	0.412425	0.576087
	H61	H	0.883581	0.584317	0.584246
	H62	H	0.106359	0.581650	0.401841
	H63	H	0.882332	0.406879	0.397751
	H64	H	0.405088	0.586499	0.104952
	H65	H	0.576474	0.581692	0.882352
	H66	H	0.584789	0.404038	0.106016
	H67	H	0.408969	0.406156	0.880327
	H68	H	0.580625	0.106490	0.404250
	H69	H	0.590610	0.885223	0.573066
	H70	H	0.404835	0.107714	0.577685
	H71	H	0.406771	0.885312	0.403457
	H72	H	0.902607	0.611777	0.088004
	H73	H	0.086281	0.385522	0.074803
	H74	H	0.087619	0.610410	0.896186
	H75	H	0.906493	0.384423	0.902768
	H76	H	0.087067	0.908169	0.604989
	H77	H	0.085735	0.086699	0.379503
	H78	H	0.911056	0.076687	0.599603
	H79	H	0.904219	0.910093	0.380465
	H80	H	0.603769	0.074398	0.898179
	H81	H	0.383964	0.085415	0.080717
	H82	H	0.609988	0.905213	0.087092
	H83	H	0.386558	0.914397	0.906197
	H84	H	0.610187	0.900312	0.082880
	H85	H	0.381870	0.085878	0.083792
	H86	H	0.610598	0.091003	0.897438
	H87	H	0.381064	0.907363	0.896352
	H88	H	0.913631	0.093840	0.605244
	H89	H	0.084891	0.082700	0.381840
	H90	H	0.085548	0.904171	0.605781
	H91	H	0.909033	0.903910	0.379163
	H92	H	0.075176	0.605012	0.902086
	H93	H	0.087781	0.381132	0.084865
	H94	H	0.913544	0.604942	0.079433
	H95	H	0.907978	0.384108	0.904201
	H96	H	0.404240	0.109811	0.582351
	H97	H	0.588112	0.882186	0.587182
	H98	H	0.591341	0.109308	0.404004
	H99	H	0.400658	0.883782	0.402262
	H100	H	0.585710	0.407955	0.103647
	H101	H	0.584340	0.591322	0.876386
	H102	H	0.404020	0.584843	0.104167
	H103	H	0.405125	0.407443	0.878120
	H104	H	0.110411	0.588980	0.394822
	H105	H	0.881136	0.591557	0.586066
	H106	H	0.107255	0.411902	0.581127
	H107	H	0.885215	0.403017	0.408910
	H108	H	0.899425	0.607775	0.074040
	H109	H	0.077938	0.385090	0.081955
	H110	H	0.087507	0.605062	0.910444
	H111	H	0.906240	0.385277	0.904262
	H112	H	0.089833	0.905185	0.606206
	H113	H	0.081927	0.086176	0.381511
	H114	H	0.897685	0.086142	0.607865
	H115	H	0.901122	0.903151	0.377642
	H116	H	0.602403	0.084746	0.913101
	H117	H	0.382146	0.088344	0.081298
	H118	H	0.607700	0.905965	0.081121
	H119	H	0.383086	0.901878	0.907331
	C120	C	0.374811	0.004321	0.611744
	C121	C	0.617103	0.987857	0.613163
	C122	C	0.616952	0.004726	0.370778
	C123	C	0.373730	0.988346	0.369781
	C124	C	0.616587	0.373978	0.000949
	C125	C	0.615611	0.616200	0.982698
	C126	C	0.373280	0.617413	0.000157
	C127	C	0.374052	0.374773	0.982874
	C128	C	0.004244	0.618238	0.370353
	C129	C	0.987166	0.618909	0.614454
	C130	C	0.004964	0.376625	0.612193
	C131	C	0.987811	0.375508	0.370813
	C132	C	0.873413	0.504643	0.113141
	C133	C	0.115897	0.487452	0.111863
	C134	C	0.116498	0.503923	0.870130
	C135	C	0.874088	0.487617	0.870791
	C136	C	0.117382	0.875301	0.500830
	C137	C	0.117040	0.117639	0.484319
	C138	C	0.875230	0.118050	0.500760
	C139	C	0.875184	0.876117	0.484389
	C140	C	0.502642	0.117034	0.870071
	C141	C	0.486968	0.116982	0.112364
	C142	C	0.504666	0.874002	0.113633
	C143	C	0.486521	0.875152	0.870360
	C144	C	0.373258	0.886142	0.671268
	C145	C	0.618821	0.105103	0.673686
	C146	C	0.616803	0.885503	0.313997
	C147	C	0.372718	0.106383	0.310627
	C148	C	0.677184	0.371380	0.883206
	C149	C	0.675833	0.618393	0.100487
	C150	C	0.312942	0.620188	0.882622
	C151	C	0.312722	0.371076	0.100381
	C152	C	0.885725	0.676421	0.370470
	C153	C	0.105056	0.677497	0.615542
	C154	C	0.888699	0.314463	0.616738
	C155	C	0.105083	0.314431	0.367248
	C156	C	0.887996	0.372425	0.674078
	C157	C	0.104620	0.620017	0.674207
	C158	C	0.886080	0.618913	0.312339
	C159	C	0.105134	0.373108	0.309947
	C160	C	0.369960	0.678760	0.883172
	C161	C	0.618039	0.676075	0.100674
	C162	C	0.619173	0.313953	0.883276
	C163	C	0.371242	0.313981	0.100763
	C164	C	0.675294	0.886002	0.371278
	C165	C	0.678119	0.104656	0.617319
	C166	C	0.316302	0.885800	0.612673
	C167	C	0.314331	0.106452	0.368095
	C168	C	0.872191	0.387273	0.173712
	C169	C	0.117139	0.605784	0.170615
	C170	C	0.120064	0.386789	0.809106
	C171	C	0.872407	0.605699	0.811239
	C172	C	0.174153	0.876399	0.380983
	C173	C	0.176864	0.119462	0.602396
	C174	C	0.816016	0.119592	0.382384
	C175	C	0.817996	0.876595	0.604190
	C176	C	0.385433	0.177937	0.867672
	C177	C	0.605784	0.174335	0.111725
	C178	C	0.385477	0.816920	0.113765
	C179	C	0.604527	0.815205	0.868264
	C180	C	0.385251	0.875269	0.171145
	C181	C	0.605966	0.116642	0.169823
	C182	C	0.385187	0.119860	0.810159
	C183	C	0.604485	0.872948	0.810307
	C184	C	0.873056	0.177978	0.382693
	C185	C	0.119688	0.178118	0.602120
	C186	C	0.116987	0.817947	0.381482
	C187	C	0.877164	0.819952	0.604642
	C188	C	0.178315	0.387201	0.866198
	C189	C	0.175223	0.605644	0.113208
	C190	C	0.813909	0.386947	0.116272
	C191	C	0.813218	0.605113	0.868044
	C192	C	0.398989	0.086760	0.587328
	C193	C	0.592188	0.906043	0.587409
	C194	C	0.592847	0.087340	0.394323
	C195	C	0.397383	0.905511	0.394147
	C196	C	0.591225	0.399047	0.082994
	C197	C	0.590558	0.591100	0.900671
	C198	C	0.398067	0.592320	0.082583
	C199	C	0.399729	0.400512	0.901239
	C200	C	0.086965	0.594373	0.393768
	C201	C	0.904375	0.595435	0.589930
	C202	C	0.085772	0.403100	0.585820
	C203	C	0.906189	0.400938	0.396721
	C204	C	0.897995	0.586845	0.087675
	C205	C	0.091191	0.405388	0.087327
	C206	C	0.090691	0.585617	0.895573
	C207	C	0.899662	0.405854	0.896317
	C208	C	0.094120	0.898858	0.583843
	C209	C	0.091561	0.092458	0.402299
	C210	C	0.900286	0.092750	0.582891
	C211	C	0.898145	0.899199	0.401009
	C212	C	0.584337	0.090971	0.895636
	C213	C	0.404291	0.093260	0.088755
	C214	C	0.587657	0.896993	0.090336
	C215	C	0.405017	0.900440	0.895817
	Zn216	Zn	0.494638	-0.003869	0.741374
	Zn217	Zn	0.495770	-0.004001	0.241666
	Zn218	Zn	0.744750	0.494991	-0.008140
	Zn219	Zn	0.245102	0.495531	-0.008706
	Zn220	Zn	-0.004093	0.746739	0.491910
	Zn221	Zn	-0.003222	0.246654	0.491900
	Zn222	Zn	-0.004429	0.496022	0.741693
	Zn223	Zn	-0.004476	0.496773	0.241398
	Zn224	Zn	0.495086	0.745723	-0.008396
	Zn225	Zn	0.494978	0.246329	-0.008743
	Zn226	Zn	0.746111	-0.003134	0.492306
	Zn227	Zn	0.245694	-0.003067	0.491657
	N228	N	0.408695	0.960832	0.670999
	N229	N	0.581569	0.031389	0.671175
	N230	N	0.581341	0.960383	0.313427
	N231	N	0.408947	0.031939	0.311682
	N232	N	0.675855	0.407802	0.957552
	N233	N	0.674620	0.581940	0.026169
	N234	N	0.314763	0.583043	0.956701
	N235	N	0.314218	0.408132	0.026207
	N236	N	0.960446	0.676296	0.405726
	N237	N	0.030720	0.676877	0.579352
	N238	N	0.962384	0.316746	0.578906
	N239	N	0.031065	0.315755	0.404174
	N240	N	0.961064	0.410479	0.671212
	N241	N	0.029980	0.584545	0.673665
	N242	N	0.960799	0.583500	0.311994
	N243	N	0.031133	0.410318	0.311934
	N244	N	0.406652	0.677393	0.957493
	N245	N	0.581419	0.674986	0.026287
	N246	N	0.582208	0.315505	0.957447
	N247	N	0.408641	0.316026	0.026692
	N248	N	0.675659	0.961237	0.405869
	N249	N	0.677066	0.030668	0.580210
	N250	N	0.316892	0.960342	0.576718
	N251	N	0.314913	0.031851	0.404284
	N252	N	0.908333	0.461588	0.172142
	N253	N	0.081119	0.531295	0.170182
	N254	N	0.082141	0.460603	0.811414
	N255	N	0.909269	0.531496	0.812514
	N256	N	0.175004	0.910949	0.456328
	N257	N	0.175499	0.082729	0.528145
	N258	N	0.816529	0.083449	0.457165
	N259	N	0.816687	0.910628	0.528426
	N260	N	0.459683	0.176255	0.904209
	N261	N	0.530646	0.174940	0.077041
	N262	N	0.460586	0.815980	0.078903
	N263	N	0.530338	0.816253	0.904926
	N264	N	0.460441	0.909726	0.171638
	N265	N	0.530919	0.081993	0.170642
	N266	N	0.459122	0.082612	0.811505
	N267	N	0.530089	0.909159	0.811131
	N268	N	0.909090	0.177108	0.457273
	N269	N	0.083397	0.177027	0.527529
	N270	N	0.082772	0.816858	0.457118
	N271	N	0.911581	0.818923	0.529012
	N272	N	0.176147	0.460974	0.903653
	N273	N	0.174796	0.530882	0.077703
	N274	N	0.814611	0.461173	0.079394
	N275	N	0.814164	0.530590	0.904322
	O276	O	0.209900	0.784281	-0.035976
	H277	H	0.207747	0.795246	-0.067859
	H278	H	0.235569	0.760913	-0.048117
	O279	O	0.277441	0.396883	0.461798
	H280	H	0.275033	0.379362	0.448495
	H281	H	0.274102	0.400613	0.431815
	O282	O	1.048277	0.048971	0.868939
	H283	H	1.054554	0.043345	0.863291
	H284	H	1.062159	0.051933	0.877589
	O285	O	0.520335	0.397450	0.649669
	H286	H	0.525271	0.417290	0.642199
	H287	H	0.527289	0.389893	0.648948
	O288	O	0.302249	0.716586	0.472309
	H289	H	0.296322	0.727974	0.468361
	H290	H	0.296901	0.713041	0.476753
	O291	O	0.353502	0.272965	0.527881
	H292	H	0.349959	0.276976	0.536469
	H293	H	0.342671	0.268059	0.535183
	O294	O	0.779433	0.214621	0.966541
	H295	H	0.767345	0.230944	0.953242
	H296	H	0.776837	0.221355	0.938609
	O297	O	0.456787	0.718439	0.265398
	H298	H	0.429993	0.716296	0.262812
	H299	H	0.442869	0.743323	0.241789
	O300	O	-0.039261	0.209497	0.791068
	H301	H	-0.025216	0.208597	0.783781
	H302	H	-0.028127	0.201329	0.783963
	O303	O	0.717499	0.721222	0.533113
	H304	H	0.737849	0.735119	0.526110
	H305	H	0.713653	0.717724	0.558877
	O306	O	0.701009	0.283810	0.492679
	H307	H	0.693277	0.281380	0.504615
	H308	H	0.715781	0.259399	0.484976
	O309	O	0.465709	0.685069	0.561613
	H310	H	0.475799	0.679542	0.543046
	H311	H	0.468648	0.696299	0.554795
	O312	O	0.476620	0.622529	0.714171
	H313	H	0.487055	0.639689	0.715180
	H314	H	0.478084	0.636739	0.702745
	O315	O	0.839287	0.996400	0.791446
	H316	H	0.856201	0.982418	0.797536
	H317	H	0.844436	0.983606	0.787020
	O318	O	0.638030	0.511146	0.514243
	H319	H	0.640654	0.529843	0.517316
	H320	H	0.631767	0.495392	0.512152
	O321	O	0.204448	0.792134	0.787601
	H322	H	0.156946	0.786515	0.785943
	H323	H	0.231859	0.756954	0.754051
	O324	O	1.019265	0.782033	0.093087
	H325	H	1.028581	0.785392	0.103476
	H326	H	1.016208	0.786015	0.102579
	O327	O	0.015366	0.191405	1.095321
	H328	H	0.009392	0.197106	1.100336
	H329	H	0.002345	0.183039	1.088819
	O330	O	0.607717	0.671137	0.448408
	H331	H	0.616495	0.661124	0.460602
	H332	H	0.601668	0.677287	0.444360
	O333	O	0.373060	0.305625	0.688841
	H334	H	0.377537	0.300826	0.677828
	H335	H	0.390278	0.297310	0.699806
	O336	O	0.722514	0.262634	0.254684
	H337	H	0.688797	0.268294	0.263873
	H338	H	0.717922	0.286431	0.268809
	O339	O	0.879004	-0.009035	0.943435
	H340	H	0.890848	-0.012749	0.952288
	H341	H	0.870458	-0.010721	0.942764
	O342	O	0.133200	0.011017	0.109565
	H343	H	0.144156	0.007697	0.103785
	H344	H	0.126227	0.005259	0.107528
	O345	O	-0.139680	0.850920	0.813157
	H346	H	-0.124659	0.862733	0.831594
	H347	H	-0.137645	0.853234	0.826652
	O348	O	0.405068	0.353755	0.346064
	H349	H	0.401455	0.352371	0.354441
	H350	H	0.407397	0.360257	0.343192
	O351	O	0.688015	0.685768	0.296318
	H352	H	0.666979	0.659596	0.304401
	H353	H	0.680097	0.669503	0.328659
	O354	O	0.169402	0.028292	0.986524
	H355	H	0.161147	0.036623	0.992146
	H356	H	0.170143	0.038453	0.962250
	O357	O	0.509886	0.618682	0.351600
	H358	H	0.516297	0.625406	0.342629
	H359	H	0.522052	0.610954	0.350850
	O360	O	0.364420	0.281161	0.707823
	H361	H	0.359023	0.282437	0.724056
	H362	H	0.381294	0.272606	0.699179
	O363	O	-0.033170	0.122537	0.189523
	H364	H	-0.049709	0.112518	0.183569
	H365	H	-0.051346	0.132575	0.192564
	O366	O	0.729996	0.449879	0.556733
	H367	H	0.731351	0.432080	0.563992
	H368	H	0.728623	0.435453	0.568112
	O369	O	0.833232	0.156060	0.168988
	H370	H	0.836161	0.137247	0.161725
	H371	H	0.803269	0.184120	0.188165
	O372	O	0.781019	0.779742	0.029996
	H373	H	0.755413	0.758427	0.018517
	H374	H	0.789421	0.798787	0.013070
	O375	O	0.792876	-0.047991	0.208747
	H376	H	0.773217	-0.053655	0.234953
	H377	H	0.796729	-0.081924	0.205156
	O378	O	0.441593	0.433100	0.262373
	H379	H	0.450776	0.434219	0.255941
	H380	H	0.441891	0.430706	0.262160
	O381	O	0.020652	0.881658	0.821105
	H382	H	0.024806	0.876465	0.832357
	H383	H	0.018131	0.882067	0.819841
	O384	O	1.030021	0.200440	0.940070
	H385	H	1.022803	0.197985	0.956784
	H386	H	1.031216	0.202309	0.935735
	O387	O	0.985087	0.791302	0.155489
	H388	H	0.959646	0.784361	0.177404
	H389	H	0.985014	0.785942	0.161244
	O390	O	0.536132	0.276368	0.269374
	H391	H	0.516526	0.267843	0.269901
	H392	H	0.517840	0.255792	0.274998
	O393	O	0.516737	0.479723	0.589704
	H394	H	0.516398	0.482615	0.592991
	H395	H	0.498631	0.480650	0.581129
	O396	O	0.130145	1.160041	1.023836
	H397	H	0.121949	1.154359	1.037559
	H398	H	0.139809	1.153332	1.018414
	O399	O	-0.025845	0.105182	1.114232
	H400	H	-0.032424	0.118651	1.118933
	H401	H	-0.026603	0.095962	1.119908
	O402	O	0.358138	0.521584	0.507797
	H403	H	0.342624	0.516881	0.510890
	H404	H	0.358201	0.514047	0.494172
	O405	O	0.771282	-0.064312	0.943845
	H406	H	0.770927	-0.044393	0.945067
	H407	H	0.771689	-0.053805	0.962918
	O408	O	0.208001	0.207018	0.015791
	H409	H	0.200031	0.208112	0.026447
	H410	H	0.221843	0.228656	0.021727
	O411	O	0.601157	0.708491	0.709823
	H412	H	0.619582	0.694695	0.719280
	H413	H	0.600656	0.718066	0.719915
	O414	O	0.692348	0.301653	0.685383
	H415	H	0.704542	0.283058	0.700016
	H416	H	0.687370	0.298675	0.691814
	O417	O	0.328589	0.508929	0.550154
	H418	H	0.334552	0.494359	0.566036
	H419	H	0.320598	0.518338	0.541061
	O420	O	0.301535	0.686195	0.683266
	H421	H	0.314156	0.658793	0.666798
	H422	H	0.326947	0.674176	0.665355
	O423	O	0.068097	0.066035	1.106706
	H424	H	0.055837	0.059937	1.099179
	H425	H	0.063195	0.069596	1.115627
	O426	O	0.604031	0.585459	0.468747
	H427	H	0.606380	0.590827	0.472748
	H428	H	0.604387	0.571615	0.485187
	O429	O	1.111920	0.902593	1.003138
	H430	H	1.131161	0.886905	1.000606
	H431	H	1.103222	0.913131	0.993575
	O432	O	0.498483	0.468118	0.463393
	H433	H	0.484097	0.473525	0.467403
	H434	H	0.487795	0.476686	0.460594
	O435	O	0.184874	0.806224	0.181798
	H436	H	0.168589	0.825737	0.161607
	H437	H	0.164151	0.829301	0.169982
	O438	O	0.139095	-0.019373	0.191591
	H439	H	0.126854	-0.017395	0.208302
	H440	H	0.140485	-0.005039	0.178409
	O441	O	0.291041	0.235669	0.268563
	H442	H	0.289770	0.245787	0.277045
	H443	H	0.266191	0.234293	0.244426
	O444	O	0.491028	0.369274	0.461056
	H445	H	0.481865	0.382437	0.465458
	H446	H	0.492807	0.363858	0.477247
	O447	O	0.218358	0.961697	0.772826
	H448	H	0.236374	0.944500	0.759273
	H449	H	0.226819	0.932115	0.764873
	O450	O	0.021971	0.849185	0.867498
	H451	H	0.014870	0.841963	0.865761
	H452	H	0.012372	0.854827	0.878095
	O453	O	0.584431	0.538331	0.720827
	H454	H	0.594684	0.550675	0.730892
	H455	H	0.594062	0.542617	0.733471
	O456	O	0.156980	0.146535	0.850260
	H457	H	0.151868	0.149113	0.860524
	H458	H	0.160454	0.136733	0.859551
	O459	O	0.790090	0.788899	0.199251
	H460	H	0.769475	0.771501	0.192709
	H461	H	0.770262	0.768823	0.187362
	O462	O	0.710011	0.406349	0.313088
	H463	H	0.688121	0.396333	0.324512
	H464	H	0.731898	0.399729	0.302751
	O465	O	0.775554	0.050794	0.047641
	H466	H	0.775331	0.070577	0.056559
	H467	H	0.771562	0.061453	0.066531
	O468	O	0.277212	0.530088	0.270631
	H469	H	0.288186	0.543038	0.262526
	H470	H	0.261849	0.547337	0.247674
	O471	O	0.294824	0.474711	0.693695
	H472	H	0.315971	0.464817	0.694078
	H473	H	0.292904	0.477485	0.708433
	O474	O	0.286387	0.703946	0.281308
	H475	H	0.285760	0.697759	0.314257
	H476	H	0.252728	0.737294	0.250573
	O477	O	0.620589	0.509470	1.279412
	H478	H	0.624093	0.513301	1.272013
	H479	H	0.620932	0.498910	1.288574
	O480	O	0.434602	0.421028	0.466583
	H481	H	0.426026	0.420638	0.467638
	H482	H	0.429975	0.435229	0.458536
	O483	O	0.730275	0.648551	0.723069
	H484	H	0.757205	0.663484	0.739095
	H485	H	0.731352	0.638929	0.701929
	O486	O	0.795093	0.194194	0.789769
	H487	H	0.823689	0.176070	0.788903
	H488	H	0.807919	0.164370	0.794413
	O489	O	0.976277	0.817051	-0.043914
	H490	H	0.988080	0.823468	-0.026617
	H491	H	0.978306	0.816982	-0.024839
