data_Molecule from HDF5

_cell_length_a		16.151844
_cell_length_b		16.269665
_cell_length_c		16.247056
_cell_angle_alpha	90.005177
_cell_angle_beta	90.101790
_cell_angle_gamma	89.898026
_symmetry_space_group_name_H-M	'P 1'
_symmetry_Int_Tables_number		1

loop_
	_symmetry_equiv_pos_as_xyz
	x,y,z

loop_
	_atom_site_label
	_atom_site_type_symbol
	_atom_site_fract_x
	_atom_site_fract_y
	_atom_site_fract_z
	H0	H	0.406560	0.841408	0.715993
	H1	H	0.602681	0.169860	0.717418
	H2	H	0.602005	0.842333	0.288252
	H3	H	0.403756	0.169786	0.286207
	H4	H	0.717201	0.408092	0.836817
	H5	H	0.717867	0.603456	0.165462
	H6	H	0.290600	0.604049	0.836911
	H7	H	0.290838	0.409317	0.165980
	H8	H	0.839301	0.722309	0.400228
	H9	H	0.168519	0.719276	0.598769
	H10	H	0.838742	0.293993	0.599275
	H11	H	0.168479	0.292740	0.402391
	H12	H	0.839397	0.409626	0.714380
	H13	H	0.168058	0.605078	0.715184
	H14	H	0.838898	0.604927	0.286827
	H15	H	0.168821	0.408027	0.288049
	H16	H	0.402951	0.722516	0.838529
	H17	H	0.602099	0.720026	0.165766
	H18	H	0.602581	0.291697	0.837953
	H19	H	0.405403	0.292512	0.165717
	H20	H	0.718362	0.842329	0.404754
	H21	H	0.717723	0.170501	0.600940
	H22	H	0.290258	0.841345	0.599661
	H23	H	0.291246	0.171218	0.406039
	H24	H	0.904354	0.343730	0.216938
	H25	H	0.101295	0.669981	0.215500
	H26	H	0.102244	0.342553	0.786933
	H27	H	0.904019	0.670477	0.786410
	H28	H	0.216653	0.909920	0.337240
	H29	H	0.215597	0.103301	0.666431
	H30	H	0.788942	0.105020	0.337596
	H31	H	0.792117	0.910572	0.666677
	H32	H	0.339917	0.221051	0.902837
	H33	H	0.668582	0.219486	0.101434
	H34	H	0.338428	0.793209	0.099961
	H35	H	0.668406	0.791385	0.905289
	H36	H	0.338852	0.908699	0.214429
	H37	H	0.668861	0.104012	0.216405
	H38	H	0.338988	0.103983	0.789151
	H39	H	0.669692	0.908005	0.790404
	H40	H	0.905503	0.220784	0.336912
	H41	H	0.102752	0.221391	0.665024
	H42	H	0.103854	0.791833	0.337370
	H43	H	0.905052	0.791775	0.664884
	H44	H	0.217249	0.342267	0.904170
	H45	H	0.216018	0.670814	0.097604
	H46	H	0.792495	0.342093	0.097419
	H47	H	0.788185	0.670056	0.902747
	H48	H	0.404811	0.124196	0.597338
	H49	H	0.605609	0.885984	0.601206
	H50	H	0.596281	0.121703	0.412641
	H51	H	0.405045	0.886810	0.404094
	H52	H	0.590158	0.415660	0.116250
	H53	H	0.602461	0.592889	0.884332
	H54	H	0.417338	0.601091	0.117857
	H55	H	0.406538	0.413192	0.883279
	H56	H	0.117924	0.584989	0.404279
	H57	H	0.886461	0.603475	0.583074
	H58	H	0.122471	0.412919	0.594318
	H59	H	0.888934	0.415037	0.416444
	H60	H	0.121539	0.414126	0.593527
	H61	H	0.888090	0.590154	0.597142
	H62	H	0.127315	0.609776	0.398335
	H63	H	0.886195	0.421134	0.402517
	H64	H	0.405898	0.605483	0.121260
	H65	H	0.587185	0.597447	0.887395
	H66	H	0.598831	0.404424	0.121673
	H67	H	0.412798	0.416870	0.886088
	H68	H	0.599754	0.124309	0.406618
	H69	H	0.589298	0.891010	0.600975
	H70	H	0.414556	0.122641	0.600494
	H71	H	0.417240	0.890180	0.404827
	H72	H	0.901522	0.626125	0.091132
	H73	H	0.096880	0.390039	0.092438
	H74	H	0.098773	0.624779	0.906724
	H75	H	0.915269	0.390898	0.904214
	H76	H	0.098453	0.918591	0.617883
	H77	H	0.100129	0.103157	0.382188
	H78	H	0.910118	0.097373	0.618396
	H79	H	0.909744	0.917626	0.385164
	H80	H	0.617564	0.095886	0.919848
	H81	H	0.387067	0.101305	0.087210
	H82	H	0.622690	0.909196	0.095757
	H83	H	0.385306	0.913762	0.906732
	H84	H	0.620919	0.913640	0.093234
	H85	H	0.387008	0.093038	0.097132
	H86	H	0.623756	0.091493	0.899453
	H87	H	0.385518	0.911414	0.909649
	H88	H	0.915739	0.102911	0.617354
	H89	H	0.097611	0.097450	0.384905
	H90	H	0.090547	0.908835	0.617817
	H91	H	0.914698	0.912784	0.385116
	H92	H	0.095277	0.623635	0.905476
	H93	H	0.101808	0.387546	0.096527
	H94	H	0.913837	0.625706	0.103488
	H95	H	0.911846	0.391207	0.912119
	H96	H	0.412525	0.120670	0.591026
	H97	H	0.598033	0.891559	0.586690
	H98	H	0.592556	0.123464	0.406227
	H99	H	0.409437	0.891437	0.414843
	H100	H	0.605650	0.417554	0.119568
	H101	H	0.597618	0.608929	0.881350
	H102	H	0.407208	0.593498	0.117842
	H103	H	0.413701	0.408982	0.883880
	H104	H	0.118399	0.603576	0.423589
	H105	H	0.881300	0.608476	0.601343
	H106	H	0.121852	0.414393	0.595379
	H107	H	0.882386	0.406631	0.404822
	H108	H	0.917389	0.619676	0.088358
	H109	H	0.095118	0.388298	0.098629
	H110	H	0.095849	0.622937	0.908924
	H111	H	0.907192	0.387237	0.905173
	H112	H	0.102305	0.908165	0.621961
	H113	H	0.093950	0.102534	0.384180
	H114	H	0.908354	0.104851	0.620544
	H115	H	0.908673	0.911575	0.382626
	H116	H	0.625824	0.110654	0.906840
	H117	H	0.383582	0.105029	0.099064
	H118	H	0.622332	0.913555	0.097681
	H119	H	0.386609	0.915107	0.910152
	C120	C	0.381975	0.014089	0.624461
	C121	C	0.625868	0.997899	0.624447
	C122	C	0.625062	0.014789	0.380303
	C123	C	0.381946	0.997841	0.380118
	C124	C	0.625732	0.384619	0.010169
	C125	C	0.624865	0.627535	0.992991
	C126	C	0.381719	0.628352	0.010315
	C127	C	0.382726	0.385133	0.993176
	C128	C	0.012357	0.628459	0.379597
	C129	C	0.994566	0.628526	0.622429
	C130	C	0.012477	0.385881	0.622282
	C131	C	0.995056	0.385851	0.380083
	C132	C	0.882701	0.515321	0.122537
	C133	C	0.126015	0.497394	0.123380
	C134	C	0.125305	0.515268	0.878998
	C135	C	0.882142	0.497912	0.879079
	C136	C	0.125130	0.884502	0.510113
	C137	C	0.125514	0.128916	0.492754
	C138	C	0.882306	0.129404	0.510038
	C139	C	0.882344	0.885477	0.492823
	C140	C	0.513089	0.127663	0.880448
	C141	C	0.495202	0.127904	0.123494
	C142	C	0.512535	0.884514	0.123217
	C143	C	0.495194	0.884730	0.881103
	C144	C	0.385437	0.890473	0.678621
	C145	C	0.622794	0.121227	0.679457
	C146	C	0.622891	0.891216	0.325720
	C147	C	0.383653	0.121017	0.324554
	C148	C	0.679979	0.387452	0.886141
	C149	C	0.679877	0.624116	0.116650
	C150	C	0.327621	0.624989	0.886293
	C151	C	0.328210	0.388313	0.116912
	C152	C	0.888243	0.683775	0.381027
	C153	C	0.119040	0.682428	0.619787
	C154	C	0.888289	0.331297	0.619843
	C155	C	0.119229	0.330577	0.382391
	C156	C	0.888305	0.388857	0.676807
	C157	C	0.118628	0.625807	0.677820
	C158	C	0.887977	0.625791	0.324476
	C159	C	0.119641	0.388184	0.325763
	C160	C	0.383620	0.683806	0.887024
	C161	C	0.622708	0.682093	0.116767
	C162	C	0.623438	0.329398	0.886815
	C163	C	0.385209	0.330410	0.116785
	C164	C	0.680312	0.891276	0.384003
	C165	C	0.679962	0.121527	0.621426
	C166	C	0.327594	0.890595	0.620645
	C167	C	0.327939	0.121722	0.384147
	C168	C	0.885042	0.392126	0.177831
	C169	C	0.122428	0.621182	0.177705
	C170	C	0.122806	0.391415	0.824828
	C171	C	0.883528	0.621377	0.823947
	C172	C	0.179286	0.888614	0.386232
	C173	C	0.179018	0.124490	0.616880
	C174	C	0.826941	0.125751	0.386495
	C175	C	0.829075	0.889160	0.617259
	C176	C	0.388907	0.182730	0.883040
	C177	C	0.619383	0.182291	0.121720
	C178	C	0.387867	0.830572	0.120612
	C179	C	0.619378	0.829126	0.883828
	C180	C	0.388085	0.887722	0.177483
	C181	C	0.619412	0.124619	0.178688
	C182	C	0.388742	0.125402	0.825732
	C183	C	0.619956	0.887161	0.827103
	C184	C	0.884485	0.183558	0.386145
	C185	C	0.122717	0.183324	0.616300
	C186	C	0.123339	0.829802	0.386388
	C187	C	0.884834	0.830130	0.616373
	C188	C	0.180177	0.391379	0.882595
	C189	C	0.179348	0.621489	0.119340
	C190	C	0.829093	0.391382	0.118880
	C191	C	0.826317	0.621386	0.881918
	C192	C	0.403920	0.100185	0.602676
	C193	C	0.604011	0.911840	0.602611
	C194	C	0.602719	0.100957	0.401852
	C195	C	0.404062	0.911640	0.401655
	C196	C	0.604360	0.406125	0.096778
	C197	C	0.602402	0.606105	0.906635
	C198	C	0.403672	0.606483	0.096813
	C199	C	0.404474	0.406632	0.906705
	C200	C	0.098919	0.606045	0.402106
	C201	C	0.907751	0.607070	0.600336
	C202	C	0.099252	0.407367	0.600663
	C203	C	0.908327	0.407867	0.401605
	C204	C	0.904635	0.601442	0.100804
	C205	C	0.104229	0.410944	0.102091
	C206	C	0.103116	0.601479	0.900547
	C207	C	0.904784	0.412098	0.900721
	C208	C	0.103439	0.905602	0.596847
	C209	C	0.103617	0.107507	0.405986
	C210	C	0.904789	0.108103	0.596439
	C211	C	0.904469	0.907373	0.406637
	C212	C	0.600091	0.105725	0.902391
	C213	C	0.408269	0.106255	0.101118
	C214	C	0.599536	0.905791	0.101825
	C215	C	0.408373	0.906813	0.902666
	Zn216	Zn	0.504030	0.005927	0.753186
	Zn217	Zn	0.503429	0.006155	0.250788
	Zn218	Zn	0.754080	0.506178	0.000937
	Zn219	Zn	0.253825	0.506566	0.001042
	Zn220	Zn	0.003387	0.756476	0.500757
	Zn221	Zn	0.003961	0.257849	0.500890
	Zn222	Zn	0.003497	0.506890	0.750367
	Zn223	Zn	0.003872	0.506356	0.251957
	Zn224	Zn	0.503255	0.756483	0.002227
	Zn225	Zn	0.504388	0.256312	0.002111
	Zn226	Zn	0.754224	0.006968	0.502302
	Zn227	Zn	0.253331	0.006250	0.501867
	N228	N	0.418540	0.968326	0.681148
	N229	N	0.589819	0.043258	0.681469
	N230	N	0.588935	0.968832	0.323611
	N231	N	0.416622	0.043022	0.322006
	N232	N	0.681729	0.421002	0.963846
	N233	N	0.681332	0.591013	0.038836
	N234	N	0.326546	0.591093	0.963891
	N235	N	0.326480	0.421673	0.039097
	N236	N	0.966526	0.685488	0.414577
	N237	N	0.040959	0.684230	0.586106
	N238	N	0.966530	0.329361	0.586580
	N239	N	0.040945	0.328932	0.415537
	N240	N	0.966471	0.421842	0.678452
	N241	N	0.040235	0.592787	0.679382
	N242	N	0.966025	0.591955	0.323410
	N243	N	0.041409	0.421780	0.324142
	N244	N	0.416408	0.685853	0.965144
	N245	N	0.589038	0.684395	0.038893
	N246	N	0.590547	0.327366	0.964941
	N247	N	0.418325	0.328293	0.038807
	N248	N	0.681725	0.969053	0.417252
	N249	N	0.681965	0.043936	0.588022
	N250	N	0.325563	0.968459	0.587483
	N251	N	0.326761	0.044311	0.417888
	N252	N	0.917648	0.470104	0.180322
	N253	N	0.089868	0.543011	0.180293
	N254	N	0.089598	0.469424	0.822289
	N255	N	0.917519	0.543771	0.822076
	N256	N	0.180483	0.921980	0.464009
	N257	N	0.180836	0.091466	0.539054
	N258	N	0.825573	0.092857	0.464502
	N259	N	0.827203	0.922712	0.539524
	N260	N	0.467327	0.184267	0.916281
	N261	N	0.541124	0.184365	0.088159
	N262	N	0.466222	0.828431	0.087507
	N263	N	0.540988	0.827511	0.916723
	N264	N	0.466429	0.920711	0.179165
	N265	N	0.541079	0.091592	0.179768
	N266	N	0.466795	0.091593	0.824392
	N267	N	0.541619	0.920812	0.825222
	N268	N	0.918023	0.186056	0.463954
	N269	N	0.090030	0.186035	0.538035
	N270	N	0.090308	0.827259	0.464486
	N271	N	0.917119	0.827643	0.537960
	N272	N	0.181589	0.469146	0.915800
	N273	N	0.181711	0.543570	0.086524
	N274	N	0.827456	0.468995	0.085245
	N275	N	0.825260	0.543768	0.915371
	O276	O	-0.519256	-0.571477	1.513178
	H277	H	-0.519055	-0.580124	1.515293
	H278	H	-0.508457	-0.570549	1.523711
	O279	O	0.476049	0.467791	0.509429
	H280	H	0.475762	0.462446	0.511821
	H281	H	0.469063	0.475565	0.514011
	O282	O	0.491056	0.487802	0.518568
	H283	H	0.491654	0.491152	0.520165
	H284	H	0.494613	0.479280	0.519007
	O285	O	0.507460	1.497239	-0.544041
	H286	H	0.506769	1.495723	-0.545164
	H287	H	0.504035	1.498278	-0.547444
	O288	O	0.538748	0.475954	0.538014
	H289	H	0.544211	0.476209	0.540306
	H290	H	0.543817	0.479839	0.536243
	O291	O	-0.431381	0.465421	1.501100
	H292	H	-0.434341	0.473124	1.496768
	H293	H	-0.433433	0.461522	1.502555
	O294	O	0.488455	0.486319	0.492359
	H295	H	0.490335	0.480843	0.487001
	H296	H	0.485650	0.480264	0.494822
	O297	O	1.537359	-0.487463	-0.473054
	H298	H	1.535865	-0.485389	-0.480934
	H299	H	1.540010	-0.488841	-0.477655
