data_Molecule from HDF5

_cell_length_a		16.392623
_cell_length_b		16.105281
_cell_length_c		16.177108
_cell_angle_alpha	88.972198
_cell_angle_beta	90.260956
_cell_angle_gamma	89.603736
_symmetry_space_group_name_H-M	'P 1'
_symmetry_Int_Tables_number		1

loop_
	_symmetry_equiv_pos_as_xyz
	x,y,z

loop_
	_atom_site_label
	_atom_site_type_symbol
	_atom_site_fract_x
	_atom_site_fract_y
	_atom_site_fract_z
	H0	H	0.390359	0.839574	0.710802
	H1	H	0.585104	0.169368	0.704014
	H2	H	0.587950	0.840097	0.284785
	H3	H	0.385150	0.167597	0.274376
	H4	H	0.708356	0.403270	0.830999
	H5	H	0.708741	0.604575	0.155609
	H6	H	0.272219	0.611009	0.829984
	H7	H	0.273363	0.398552	0.156427
	H8	H	0.827632	0.723913	0.386960
	H9	H	0.150627	0.718989	0.592769
	H10	H	0.826360	0.288188	0.595778
	H11	H	0.151181	0.287907	0.398528
	H12	H	0.828881	0.400238	0.714270
	H13	H	0.152068	0.600896	0.708050
	H14	H	0.828612	0.608749	0.271780
	H15	H	0.151392	0.400960	0.278958
	H16	H	0.391582	0.723528	0.829840
	H17	H	0.589654	0.711916	0.159453
	H18	H	0.588678	0.291583	0.828764
	H19	H	0.392436	0.286870	0.158392
	H20	H	0.707140	0.843563	0.391291
	H21	H	0.703441	0.168057	0.593682
	H22	H	0.272436	0.839985	0.598694
	H23	H	0.269513	0.168041	0.388369
	H24	H	0.893948	0.339590	0.209211
	H25	H	0.088714	0.669427	0.204806
	H26	H	0.087460	0.336970	0.787778
	H27	H	0.889303	0.668454	0.773842
	H28	H	0.205297	0.904905	0.329685
	H29	H	0.203630	0.102513	0.656355
	H30	H	0.770544	0.109847	0.329623
	H31	H	0.772579	0.899780	0.656412
	H32	H	0.326874	0.222745	0.891032
	H33	H	0.651544	0.215235	0.091605
	H34	H	0.327374	0.787764	0.093665
	H35	H	0.653699	0.791451	0.898815
	H36	H	0.326680	0.903892	0.210503
	H37	H	0.650482	0.102673	0.209991
	H38	H	0.326300	0.107398	0.774267
	H39	H	0.651058	0.902970	0.778048
	H40	H	0.887824	0.223334	0.329470
	H41	H	0.081952	0.208881	0.659625
	H42	H	0.086581	0.793379	0.327214
	H43	H	0.891192	0.785880	0.656877
	H44	H	0.207803	0.341282	0.894036
	H45	H	0.205036	0.668840	0.091980
	H46	H	0.774927	0.340985	0.098239
	H47	H	0.770634	0.667925	0.885945
	H48	H	0.393614	0.121647	0.580138
	H49	H	0.581992	0.885212	0.587721
	H50	H	0.575638	0.121594	0.401775
	H51	H	0.404928	0.890974	0.410730
	H52	H	0.582895	0.406981	0.111166
	H53	H	0.578993	0.596052	0.876950
	H54	H	0.398887	0.598327	0.111587
	H55	H	0.394558	0.417609	0.876074
	H56	H	0.104609	0.593090	0.395500
	H57	H	0.874869	0.590769	0.584011
	H58	H	0.105226	0.401826	0.587018
	H59	H	0.875804	0.418814	0.404434
	H60	H	0.105391	0.410600	0.589656
	H61	H	0.873710	0.595122	0.584275
	H62	H	0.106985	0.603122	0.397730
	H63	H	0.873485	0.416225	0.396934
	H64	H	0.390555	0.592945	0.112065
	H65	H	0.580209	0.600717	0.875380
	H66	H	0.586187	0.410726	0.111178
	H67	H	0.399581	0.418137	0.878719
	H68	H	0.579950	0.123495	0.402077
	H69	H	0.578840	0.886631	0.586475
	H70	H	0.392002	0.122413	0.582068
	H71	H	0.385407	0.885905	0.410852
	H72	H	0.908329	0.618456	0.080679
	H73	H	0.086834	0.384733	0.091992
	H74	H	0.081787	0.624776	0.892114
	H75	H	0.910259	0.388308	0.897834
	H76	H	0.083315	0.905415	0.611592
	H77	H	0.085276	0.098920	0.373036
	H78	H	0.902158	0.094999	0.608944
	H79	H	0.887512	0.923909	0.375846
	H80	H	0.602604	0.096164	0.905088
	H81	H	0.375692	0.093666	0.078061
	H82	H	0.605058	0.909051	0.091800
	H83	H	0.374092	0.912837	0.902378
	H84	H	0.605516	0.907578	0.092701
	H85	H	0.373882	0.089991	0.087742
	H86	H	0.604043	0.090895	0.895773
	H87	H	0.375074	0.914307	0.903700
	H88	H	0.887927	0.099863	0.614448
	H89	H	0.078181	0.091506	0.377670
	H90	H	0.083505	0.916063	0.608934
	H91	H	0.902674	0.918777	0.379357
	H92	H	0.074586	0.619109	0.902720
	H93	H	0.076979	0.388873	0.087291
	H94	H	0.892134	0.621178	0.070290
	H95	H	0.898100	0.391937	0.919934
	H96	H	0.395129	0.121096	0.583716
	H97	H	0.582052	0.887746	0.584810
	H98	H	0.578042	0.124683	0.398922
	H99	H	0.397074	0.882907	0.393769
	H100	H	0.581228	0.411100	0.108990
	H101	H	0.583528	0.596891	0.876057
	H102	H	0.398717	0.588952	0.109505
	H103	H	0.398550	0.412332	0.876366
	H104	H	0.102733	0.595272	0.405255
	H105	H	0.876151	0.594009	0.580398
	H106	H	0.107586	0.403781	0.595539
	H107	H	0.873424	0.410298	0.403714
	H108	H	0.893631	0.626236	0.089547
	H109	H	0.086407	0.386749	0.080973
	H110	H	0.087880	0.622764	0.904194
	H111	H	0.885360	0.381335	0.900584
	H112	H	0.074595	0.910324	0.607292
	H113	H	0.075073	0.102026	0.375194
	H114	H	0.889098	0.085869	0.609867
	H115	H	0.892957	0.908322	0.372602
	H116	H	0.606867	0.102150	0.896232
	H117	H	0.370514	0.100572	0.085444
	H118	H	0.605943	0.907827	0.090405
	H119	H	0.374484	0.915853	0.901359
	C120	C	0.365822	0.012829	0.614370
	C121	C	0.609424	0.995280	0.614339
	C122	C	0.608023	0.014657	0.373103
	C123	C	0.365604	0.995098	0.372489
	C124	C	0.612017	0.381892	0.002020
	C125	C	0.610726	0.625013	0.984841
	C126	C	0.367409	0.626094	0.002523
	C127	C	0.368671	0.383533	0.985075
	C128	C	-0.001848	0.627857	0.368578
	C129	C	0.981515	0.623063	0.613287
	C130	C	-0.001939	0.377998	0.619029
	C131	C	0.981055	0.383813	0.373603
	C132	C	0.869120	0.513662	0.113191
	C133	C	0.112401	0.495420	0.115070
	C134	C	0.110809	0.512914	0.872447
	C135	C	0.867813	0.495638	0.872350
	C136	C	0.109782	0.882651	0.501037
	C137	C	0.108230	0.124447	0.484005
	C138	C	0.864201	0.126450	0.502712
	C139	C	0.865791	0.883403	0.483933
	C140	C	0.497342	0.127494	0.868918
	C141	C	0.480130	0.123841	0.114303
	C142	C	0.498127	0.879957	0.119239
	C143	C	0.481794	0.883954	0.873923
	C144	C	0.369279	0.888802	0.672406
	C145	C	0.606476	0.119693	0.667938
	C146	C	0.607607	0.890063	0.320325
	C147	C	0.365576	0.118585	0.313277
	C148	C	0.668943	0.383787	0.879252
	C149	C	0.668905	0.623119	0.107411
	C150	C	0.311087	0.628951	0.879001
	C151	C	0.312378	0.380796	0.107958
	C152	C	0.876317	0.685170	0.367999
	C153	C	0.102720	0.679766	0.611958
	C154	C	0.875504	0.324757	0.616257
	C155	C	0.102842	0.326290	0.377510
	C156	C	0.876918	0.380525	0.675478
	C157	C	0.103488	0.621288	0.669884
	C158	C	0.876688	0.627827	0.310577
	C159	C	0.102943	0.382823	0.317873
	C160	C	0.370236	0.684962	0.879180
	C161	C	0.609465	0.676626	0.109419
	C162	C	0.609459	0.328028	0.878364
	C163	C	0.371343	0.324806	0.108854
	C164	C	0.666732	0.891685	0.373845
	C165	C	0.665156	0.119044	0.612927
	C166	C	0.310676	0.889175	0.616655
	C167	C	0.308157	0.118838	0.370335
	C168	C	0.872750	0.389169	0.171205
	C169	C	0.109358	0.619879	0.168144
	C170	C	0.108293	0.387698	0.821787
	C171	C	0.868980	0.619081	0.812576
	C172	C	0.166780	0.884826	0.378057
	C173	C	0.164592	0.121511	0.607768
	C174	C	0.808533	0.128500	0.378926
	C175	C	0.810595	0.881252	0.607322
	C176	C	0.375392	0.184350	0.870787
	C177	C	0.602864	0.177700	0.111928
	C178	C	0.375971	0.825229	0.115263
	C179	C	0.604497	0.828595	0.877512
	C180	C	0.375599	0.882822	0.173283
	C181	C	0.602027	0.121977	0.171211
	C182	C	0.375143	0.126822	0.812632
	C183	C	0.603241	0.884411	0.817561
	C184	C	0.866786	0.184951	0.378899
	C185	C	0.103956	0.174551	0.609557
	C186	C	0.107175	0.829915	0.376756
	C187	C	0.869812	0.824775	0.607463
	C188	C	0.168553	0.389751	0.874777
	C189	C	0.167642	0.619434	0.112114
	C190	C	0.813598	0.389775	0.115876
	C191	C	0.810154	0.619180	0.868612
	C192	C	0.387416	0.099401	0.589207
	C193	C	0.587489	0.909067	0.592659
	C194	C	0.584756	0.100828	0.394664
	C195	C	0.388971	0.908948	0.397845
	C196	C	0.590074	0.403510	0.087972
	C197	C	0.587562	0.604227	0.898707
	C198	C	0.389420	0.600761	0.088604
	C199	C	0.391017	0.408896	0.899222
	C200	C	0.082847	0.604080	0.392514
	C201	C	0.896954	0.600073	0.589744
	C202	C	0.083737	0.399138	0.597176
	C203	C	0.896090	0.408072	0.395440
	C204	C	0.891443	0.599682	0.087511
	C205	C	0.089893	0.408858	0.093178
	C206	C	0.088007	0.599850	0.893325
	C207	C	0.891025	0.409557	0.898415
	C208	C	0.087243	0.904235	0.586817
	C209	C	0.085980	0.103798	0.397758
	C210	C	0.886633	0.101118	0.588693
	C211	C	0.887853	0.909353	0.397984
	C212	C	0.582473	0.103418	0.892100
	C213	C	0.395414	0.101362	0.090834
	C214	C	0.583545	0.901651	0.097885
	C215	C	0.396641	0.907503	0.895999
	Zn216	Zn	0.488140	0.003954	0.741441
	Zn217	Zn	0.488189	0.003652	0.246235
	Zn218	Zn	0.739194	0.505170	-0.006563
	Zn219	Zn	0.239098	0.504350	-0.006911
	Zn220	Zn	-0.011522	0.754654	0.491359
	Zn221	Zn	-0.012499	0.252285	0.494554
	Zn222	Zn	-0.009593	0.502394	0.744987
	Zn223	Zn	-0.009830	0.505259	0.241935
	Zn224	Zn	0.491049	0.752944	-0.004479
	Zn225	Zn	0.489621	0.254153	-0.006721
	Zn226	Zn	0.736288	0.005533	0.493103
	Zn227	Zn	0.237587	0.004032	0.493640
	N228	N	0.402875	0.966891	0.671121
	N229	N	0.572460	0.041929	0.669166
	N230	N	0.571397	0.967393	0.319938
	N231	N	0.400728	0.040801	0.314662
	N232	N	0.671083	0.416179	0.957305
	N233	N	0.669849	0.591735	0.028964
	N234	N	0.309229	0.592900	0.956809
	N235	N	0.310543	0.416577	0.030003
	N236	N	0.952636	0.685298	0.403321
	N237	N	0.025887	0.680889	0.577322
	N238	N	0.951952	0.323007	0.581901
	N239	N	0.025947	0.326945	0.411445
	N240	N	0.954324	0.412891	0.677402
	N241	N	0.027089	0.586738	0.670819
	N242	N	0.953657	0.592949	0.310521
	N243	N	0.026366	0.418108	0.315477
	N244	N	0.404444	0.683535	0.956981
	N245	N	0.573814	0.678083	0.032207
	N246	N	0.574858	0.326498	0.955619
	N247	N	0.405565	0.326415	0.031321
	N248	N	0.667351	0.970108	0.406012
	N249	N	0.667512	0.040617	0.580592
	N250	N	0.308452	0.967411	0.581342
	N251	N	0.308167	0.041002	0.406612
	N252	N	0.906552	0.467146	0.169681
	N253	N	0.075847	0.541796	0.170144
	N254	N	0.073119	0.465562	0.820084
	N255	N	0.903909	0.541117	0.814711
	N256	N	0.168719	0.916618	0.456461
	N257	N	0.167314	0.091020	0.528952
	N258	N	0.806634	0.093094	0.456899
	N259	N	0.807883	0.916887	0.529404
	N260	N	0.452505	0.185038	0.904940
	N261	N	0.526157	0.179035	0.077192
	N262	N	0.453145	0.823228	0.082484
	N263	N	0.527860	0.828130	0.911757
	N264	N	0.452706	0.915590	0.176334
	N265	N	0.524708	0.089182	0.172841
	N266	N	0.452074	0.092304	0.811314
	N267	N	0.525843	0.918055	0.815129
	N268	N	0.900508	0.184040	0.456915
	N269	N	0.069399	0.176709	0.531757
	N270	N	0.072529	0.828310	0.454019
	N271	N	0.903239	0.825960	0.529386
	N272	N	0.170053	0.468669	0.905766
	N273	N	0.169705	0.540743	0.080034
	N274	N	0.811177	0.468051	0.080477
	N275	N	0.808967	0.541291	0.904734
	O276	O	0.906548	-0.025380	1.106538
	H277	H	0.904137	-0.020301	1.097816
	H278	H	0.906235	-0.020557	1.098534
	O279	O	0.379045	0.420277	0.568616
	H280	H	0.392618	0.425426	0.568190
	H281	H	0.370349	0.419239	0.566598
	O282	O	0.494057	0.635528	0.558034
	H283	H	0.492562	0.631993	0.570915
	H284	H	0.485639	0.628612	0.556677
	O285	O	0.616363	0.409463	0.401674
	H286	H	0.625769	0.407658	0.402355
	H287	H	0.606153	0.396156	0.401281
	O288	O	0.559615	0.424858	0.570748
	H289	H	0.561197	0.450806	0.571088
	H290	H	0.576401	0.425613	0.578294
	O291	O	0.461477	-0.409303	1.534885
	H292	H	0.448817	-0.428068	1.540013
	H293	H	0.458504	-0.407849	1.517669
	O294	O	0.971678	1.040607	0.057067
	H295	H	0.961206	1.047515	0.049491
	H296	H	0.984919	1.037382	0.053326
	O297	O	0.927629	1.028246	-0.042071
	H298	H	0.936806	1.028450	-0.023346
	H299	H	0.939003	1.019355	-0.039140
	O300	O	0.420695	0.442318	0.458286
	H301	H	0.422207	0.427840	0.451024
	H302	H	0.410216	0.458578	0.465638
	O303	O	0.456050	0.517882	0.490081
	H304	H	0.454046	0.523009	0.471448
	H305	H	0.457092	0.515026	0.493359
	O306	O	0.446116	0.401343	0.434812
	H307	H	0.427730	0.413843	0.436381
	H308	H	0.445649	0.396784	0.436081
	O309	O	0.619858	0.406498	0.532273
	H310	H	0.612894	0.411097	0.537029
	H311	H	0.615685	0.406797	0.528086
	O312	O	1.061929	0.889024	0.933268
	H313	H	1.066934	0.882178	0.922491
	H314	H	1.058337	0.881039	0.942856
	O315	O	0.978718	0.934280	-0.108790
	H316	H	0.984867	0.933908	-0.114750
	H317	H	0.975962	0.937229	-0.096642
	O318	O	0.324602	0.584611	0.360653
	H319	H	0.312661	0.580525	0.348598
	H320	H	0.326349	0.599228	0.356905
	O321	O	0.409572	0.599904	0.397957
	H322	H	0.408140	0.602634	0.402971
	H323	H	0.401944	0.610358	0.396929
	O324	O	-0.108346	1.033671	0.951682
	H325	H	-0.116192	1.046218	0.938649
	H326	H	-0.095907	1.021286	0.953122
	O327	O	-0.064373	1.109170	0.990497
	H328	H	-0.056539	1.108931	0.988671
	H329	H	-0.066315	1.118053	0.999742
	O330	O	-0.054657	0.061833	-0.056958
	H331	H	-0.066668	0.072875	-0.065674
	H332	H	-0.050347	0.067688	-0.074821
	O333	O	0.397692	0.389939	0.607147
	H334	H	0.395520	0.385565	0.604866
	H335	H	0.406258	0.387309	0.596057
	O336	O	-0.023251	0.047387	-0.004736
	H337	H	-0.021881	0.053985	0.000040
	H338	H	-0.030908	0.042214	-0.008113
	O339	O	0.024138	-0.012596	-0.055567
	H340	H	0.014546	-0.026504	-0.047490
	H341	H	0.036877	-0.014198	-0.070122
	O342	O	0.602763	0.482771	0.434993
	H343	H	0.614906	0.488106	0.448450
	H344	H	0.605459	0.478820	0.434170
	O345	O	0.031600	1.001279	1.075519
	H346	H	0.031860	0.998318	1.086233
	H347	H	0.021081	1.001159	1.076249
	O348	O	0.458493	0.552139	0.379439
	H349	H	0.452242	0.556651	0.370353
	H350	H	0.446213	0.555385	0.366013
	O351	O	0.625622	0.586908	0.617130
	H352	H	0.626180	0.584691	0.607710
	H353	H	0.632388	0.583262	0.626240
	O354	O	-0.089737	0.981153	-0.112170
	H355	H	-0.085266	0.975108	-0.115532
	H356	H	-0.087472	0.982155	-0.104909
	O357	O	0.534745	0.599137	0.524035
	H358	H	0.538706	0.605495	0.505856
	H359	H	0.538801	0.598798	0.525499
	O360	O	1.378562	-0.589270	1.616448
	H361	H	1.383221	-0.596587	1.622788
	H362	H	1.371533	-0.606258	1.638319
	O363	O	0.485755	0.572246	0.380113
	H364	H	0.499041	0.577651	0.395723
	H365	H	0.493268	0.572611	0.361849
	O366	O	0.539765	0.360804	0.421927
	H367	H	0.547761	0.358578	0.417866
	H368	H	0.526392	0.350301	0.418455
	O369	O	0.997507	0.005268	0.022728
	H370	H	1.000245	0.010302	0.030254
	H371	H	0.990912	-0.000252	0.018472
	O372	O	0.472711	0.590983	0.476659
	H373	H	0.473619	0.596926	0.480850
	H374	H	0.466851	0.584748	0.486095
	O375	O	1.089819	0.069357	1.023857
	H376	H	1.087950	0.065002	1.020318
	H377	H	1.090514	0.068761	1.029801
	O378	O	-0.078289	0.939817	0.008141
	H379	H	-0.080305	0.937112	0.017284
	H380	H	-0.086601	0.933664	-0.001234
	O381	O	0.676729	0.634194	0.539240
	H382	H	0.687258	0.638941	0.550962
	H383	H	0.684818	0.642070	0.547269
	O384	O	1.086214	0.885595	-0.022108
	H385	H	1.081096	0.886207	-0.023689
	H386	H	1.080056	0.887237	-0.012944
	O387	O	1.325462	0.482755	1.544321
	H388	H	1.334266	0.482686	1.553217
	H389	H	1.327081	0.480540	1.550030
	O390	O	0.971461	1.158831	-0.098039
	H391	H	0.957136	1.168612	-0.107290
	H392	H	0.981171	1.161881	-0.100185
	O393	O	0.534568	0.541158	0.512524
	H394	H	0.531183	0.530368	0.507466
	H395	H	0.540897	0.535779	0.513510
