data_Molecule from HDF5

_cell_length_a		16.186942
_cell_length_b		16.320403
_cell_length_c		16.220154
_cell_angle_alpha	89.925533
_cell_angle_beta	90.161196
_cell_angle_gamma	89.847844
_symmetry_space_group_name_H-M	'P 1'
_symmetry_Int_Tables_number		1

loop_
	_symmetry_equiv_pos_as_xyz
	x,y,z

loop_
	_atom_site_label
	_atom_site_type_symbol
	_atom_site_fract_x
	_atom_site_fract_y
	_atom_site_fract_z
	H0	H	0.400100	0.837171	0.709411
	H1	H	0.596149	0.163956	0.709302
	H2	H	0.596182	0.836948	0.280861
	H3	H	0.399807	0.164085	0.280444
	H4	H	0.710621	0.402756	0.830587
	H5	H	0.710256	0.596729	0.159649
	H6	H	0.282942	0.598978	0.830496
	H7	H	0.285501	0.404181	0.160342
	H8	H	0.832808	0.715576	0.395651
	H9	H	0.161876	0.714503	0.593010
	H10	H	0.834167	0.285815	0.594778
	H11	H	0.161062	0.286092	0.395465
	H12	H	0.832541	0.404910	0.706258
	H13	H	0.162511	0.596817	0.706661
	H14	H	0.832870	0.600821	0.280702
	H15	H	0.162006	0.403463	0.282193
	H16	H	0.396159	0.716114	0.831266
	H17	H	0.596790	0.714868	0.158671
	H18	H	0.596275	0.285869	0.830754
	H19	H	0.399100	0.286086	0.159001
	H20	H	0.711632	0.836849	0.397820
	H21	H	0.710389	0.164598	0.592806
	H22	H	0.283701	0.838096	0.593545
	H23	H	0.283685	0.164169	0.396224
	H24	H	0.898195	0.338219	0.211189
	H25	H	0.095845	0.664970	0.210307
	H26	H	0.095676	0.337151	0.781408
	H27	H	0.897816	0.664394	0.780346
	H28	H	0.209948	0.905310	0.330107
	H29	H	0.211096	0.098407	0.659699
	H30	H	0.782322	0.100005	0.331096
	H31	H	0.786560	0.905384	0.659303
	H32	H	0.332910	0.214682	0.895435
	H33	H	0.661808	0.216078	0.094422
	H34	H	0.332796	0.786302	0.094508
	H35	H	0.661054	0.785663	0.896442
	H36	H	0.332220	0.903732	0.208244
	H37	H	0.662779	0.097814	0.208528
	H38	H	0.333024	0.097092	0.781748
	H39	H	0.663009	0.902706	0.784183
	H40	H	0.898585	0.215507	0.330850
	H41	H	0.097063	0.215375	0.658653
	H42	H	0.095768	0.787281	0.330271
	H43	H	0.899439	0.787752	0.658700
	H44	H	0.210421	0.337258	0.899329
	H45	H	0.210863	0.665388	0.092540
	H46	H	0.785794	0.336708	0.091635
	H47	H	0.782574	0.664708	0.897183
	H48	H	0.397222	0.119286	0.587088
	H49	H	0.598531	0.886050	0.578029
	H50	H	0.587408	0.116294	0.398446
	H51	H	0.408049	0.879182	0.382023
	H52	H	0.597733	0.411400	0.112661
	H53	H	0.583557	0.589099	0.881151
	H54	H	0.403696	0.582691	0.109282
	H55	H	0.399493	0.411607	0.877364
	H56	H	0.112616	0.587050	0.400679
	H57	H	0.880382	0.583188	0.597796
	H58	H	0.116245	0.398695	0.582220
	H59	H	0.878145	0.406874	0.399061
	H60	H	0.111394	0.416787	0.583769
	H61	H	0.873470	0.610227	0.592801
	H62	H	0.117414	0.599994	0.398104
	H63	H	0.880702	0.405906	0.407584
	H64	H	0.416066	0.600698	0.111051
	H65	H	0.586647	0.601592	0.875864
	H66	H	0.582998	0.410796	0.108685
	H67	H	0.409427	0.408880	0.880171
	H68	H	0.589363	0.115970	0.405032
	H69	H	0.600071	0.878401	0.599585
	H70	H	0.408182	0.118406	0.595803
	H71	H	0.419114	0.891714	0.414420
	H72	H	0.908090	0.615553	0.084009
	H73	H	0.090996	0.385036	0.090322
	H74	H	0.086626	0.615930	0.902248
	H75	H	0.909250	0.387332	0.905937
	H76	H	0.077982	0.910761	0.607252
	H77	H	0.093556	0.086263	0.379375
	H78	H	0.898515	0.095233	0.614951
	H79	H	0.906820	0.904936	0.375963
	H80	H	0.617755	0.099732	0.901743
	H81	H	0.380804	0.094642	0.086264
	H82	H	0.620041	0.898239	0.098015
	H83	H	0.377836	0.903185	0.900087
	H84	H	0.612235	0.901667	0.074942
	H85	H	0.379901	0.093968	0.087877
	H86	H	0.613304	0.093441	0.908250
	H87	H	0.381108	0.908575	0.906232
	H88	H	0.907459	0.088526	0.609785
	H89	H	0.081428	0.097302	0.379079
	H90	H	0.093097	0.894582	0.616459
	H91	H	0.900975	0.906653	0.375251
	H92	H	0.093563	0.618471	0.903327
	H93	H	0.090788	0.384658	0.090014
	H94	H	0.897895	0.618823	0.087092
	H95	H	0.895973	0.383060	0.903413
	H96	H	0.409409	0.114225	0.582102
	H97	H	0.580248	0.886574	0.591385
	H98	H	0.593566	0.118312	0.400780
	H99	H	0.384386	0.881079	0.409501
	H100	H	0.590498	0.398390	0.114401
	H101	H	0.596752	0.592244	0.876107
	H102	H	0.394696	0.600839	0.116408
	H103	H	0.402369	0.401547	0.875859
	H104	H	0.113133	0.596241	0.410426
	H105	H	0.884485	0.594231	0.571959
	H106	H	0.118244	0.407344	0.598757
	H107	H	0.881540	0.413774	0.403363
	H108	H	0.905469	0.618704	0.094191
	H109	H	0.090982	0.385179	0.089442
	H110	H	0.090606	0.619333	0.896337
	H111	H	0.905811	0.382487	0.893156
	H112	H	0.100150	0.916900	0.612307
	H113	H	0.095553	0.101374	0.373839
	H114	H	0.909091	0.100549	0.612265
	H115	H	0.904964	0.910361	0.377873
	H116	H	0.615449	0.090193	0.898909
	H117	H	0.379938	0.095583	0.087762
	H118	H	0.611746	0.919940	0.091105
	H119	H	0.379753	0.911701	0.898124
	C120	C	0.376544	0.009294	0.616843
	C121	C	0.620310	0.992071	0.617592
	C122	C	0.619077	0.009020	0.373119
	C123	C	0.375713	0.992023	0.373357
	C124	C	0.618687	0.378821	0.003381
	C125	C	0.618332	0.622225	0.986392
	C126	C	0.375674	0.622679	0.003657
	C127	C	0.375768	0.379213	0.986510
	C128	C	0.005833	0.623093	0.373498
	C129	C	0.988564	0.623583	0.616274
	C130	C	0.006673	0.379410	0.616166
	C131	C	0.988689	0.380169	0.374406
	C132	C	0.875967	0.509304	0.116686
	C133	C	0.119053	0.493188	0.117766
	C134	C	0.118786	0.509428	0.873380
	C135	C	0.874712	0.492497	0.872398
	C136	C	0.118842	0.879660	0.503342
	C137	C	0.119239	0.122865	0.486192
	C138	C	0.876383	0.122872	0.503457
	C139	C	0.876768	0.879998	0.485607
	C140	C	0.506324	0.122539	0.873632
	C141	C	0.489069	0.122868	0.116399
	C142	C	0.505926	0.879004	0.116480
	C143	C	0.488820	0.879692	0.873922
	C144	C	0.379296	0.886194	0.671814
	C145	C	0.617042	0.114909	0.672208
	C146	C	0.616841	0.885790	0.318651
	C147	C	0.379317	0.115393	0.318423
	C148	C	0.673061	0.381890	0.879526
	C149	C	0.673001	0.618207	0.110364
	C150	C	0.320431	0.619644	0.879701
	C151	C	0.322141	0.382745	0.110730
	C152	C	0.881960	0.678181	0.375208
	C153	C	0.112577	0.677552	0.613828
	C154	C	0.882998	0.324220	0.614232
	C155	C	0.112262	0.324405	0.375598
	C156	C	0.882128	0.383210	0.669741
	C157	C	0.112966	0.618794	0.670100
	C158	C	0.882155	0.621084	0.318169
	C159	C	0.112667	0.382970	0.319625
	C160	C	0.376819	0.677774	0.879999
	C161	C	0.616444	0.676875	0.109740
	C162	C	0.616330	0.323954	0.879566
	C163	C	0.378435	0.323890	0.110080
	C164	C	0.674403	0.885818	0.376540
	C165	C	0.673787	0.115447	0.613868
	C166	C	0.321443	0.886570	0.614182
	C167	C	0.321748	0.115487	0.376023
	C168	C	0.878255	0.386642	0.172416
	C169	C	0.116421	0.616169	0.172460
	C170	C	0.116037	0.386154	0.819192
	C171	C	0.877345	0.615378	0.817745
	C172	C	0.172704	0.883978	0.379351
	C173	C	0.174127	0.119756	0.610279
	C174	C	0.820942	0.120020	0.379781
	C175	C	0.823381	0.883910	0.610097
	C176	C	0.382215	0.176763	0.875370
	C177	C	0.612966	0.177532	0.114345
	C178	C	0.381613	0.824568	0.114214
	C179	C	0.612269	0.823919	0.876504
	C180	C	0.381451	0.882690	0.170775
	C181	C	0.613323	0.118806	0.171015
	C182	C	0.382404	0.118490	0.818814
	C183	C	0.613256	0.882142	0.820700
	C184	C	0.878371	0.177793	0.379921
	C185	C	0.117003	0.177367	0.609839
	C186	C	0.116312	0.825071	0.379654
	C187	C	0.879434	0.825490	0.609710
	C188	C	0.173314	0.386198	0.877491
	C189	C	0.173681	0.616376	0.114141
	C190	C	0.822351	0.385851	0.113106
	C191	C	0.819897	0.615625	0.875590
	C192	C	0.398434	0.095160	0.594820
	C193	C	0.599144	0.905787	0.595990
	C194	C	0.596777	0.094795	0.395064
	C195	C	0.397421	0.906180	0.395381
	C196	C	0.596875	0.400561	0.089560
	C197	C	0.595751	0.600545	0.899978
	C198	C	0.398247	0.601097	0.090057
	C199	C	0.397447	0.400932	0.900190
	C200	C	0.092182	0.600888	0.396496
	C201	C	0.901662	0.602287	0.594166
	C202	C	0.092957	0.401147	0.594611
	C203	C	0.902442	0.402306	0.396785
	C204	C	0.897495	0.595276	0.094877
	C205	C	0.097357	0.407246	0.096226
	C206	C	0.096712	0.595812	0.894611
	C207	C	0.896949	0.406522	0.894438
	C208	C	0.096991	0.901166	0.589925
	C209	C	0.096923	0.101179	0.399629
	C210	C	0.898488	0.101204	0.590153
	C211	C	0.897952	0.901126	0.398878
	C212	C	0.593164	0.100864	0.896295
	C213	C	0.402561	0.101224	0.093886
	C214	C	0.592375	0.900442	0.094597
	C215	C	0.401954	0.901520	0.895217
	Zn216	Zn	0.498556	0.000222	0.745923
	Zn217	Zn	0.497294	0.000407	0.244686
	Zn218	Zn	0.746874	0.500326	-0.005110
	Zn219	Zn	0.247825	0.501446	-0.004308
	Zn220	Zn	-0.002840	0.751308	0.494571
	Zn221	Zn	-0.002184	0.251407	0.494922
	Zn222	Zn	-0.002715	0.501073	0.744031
	Zn223	Zn	-0.002915	0.501606	0.246215
	Zn224	Zn	0.496442	0.751343	-0.005259
	Zn225	Zn	0.497603	0.250913	-0.005246
	Zn226	Zn	0.748344	0.001216	0.494889
	Zn227	Zn	0.247174	0.001356	0.495413
	N228	N	0.412842	0.963497	0.673518
	N229	N	0.584661	0.037040	0.674661
	N230	N	0.583381	0.963251	0.316237
	N231	N	0.412169	0.037578	0.316608
	N232	N	0.674438	0.415499	0.957202
	N233	N	0.674262	0.584878	0.032555
	N234	N	0.319645	0.586065	0.957603
	N235	N	0.320193	0.416436	0.032957
	N236	N	0.960007	0.679645	0.408997
	N237	N	0.034175	0.680397	0.580955
	N238	N	0.961249	0.321894	0.581485
	N239	N	0.034263	0.322659	0.408999
	N240	N	0.959937	0.416911	0.671237
	N241	N	0.034872	0.585971	0.671669
	N242	N	0.960176	0.587357	0.317202
	N243	N	0.034820	0.417031	0.318804
	N244	N	0.410284	0.679930	0.958086
	N245	N	0.583097	0.679428	0.031675
	N246	N	0.583475	0.321721	0.957684
	N247	N	0.411106	0.321644	0.031945
	N248	N	0.675774	0.963414	0.409868
	N249	N	0.675932	0.037981	0.580551
	N250	N	0.319725	0.964110	0.580756
	N251	N	0.319252	0.037991	0.409264
	N252	N	0.911023	0.464378	0.174687
	N253	N	0.083464	0.538547	0.174869
	N254	N	0.082905	0.463920	0.816566
	N255	N	0.910813	0.537857	0.815750
	N256	N	0.174403	0.917142	0.457296
	N257	N	0.175332	0.086316	0.532471
	N258	N	0.819534	0.086657	0.457635
	N259	N	0.821677	0.917221	0.532168
	N260	N	0.460342	0.179295	0.908755
	N261	N	0.534719	0.179993	0.081080
	N262	N	0.459752	0.822024	0.081190
	N263	N	0.533711	0.822223	0.908725
	N264	N	0.459567	0.915932	0.172257
	N265	N	0.535299	0.085477	0.172336
	N266	N	0.460725	0.085682	0.817566
	N267	N	0.535461	0.916284	0.819057
	N268	N	0.912084	0.179539	0.457887
	N269	N	0.083860	0.179552	0.531651
	N270	N	0.083407	0.822509	0.457740
	N271	N	0.911826	0.822974	0.531401
	N272	N	0.174874	0.463832	0.910486
	N273	N	0.175289	0.538955	0.080630
	N274	N	0.820514	0.463260	0.079423
	N275	N	0.818195	0.538102	0.908958
	O276	O	0.476384	-0.518136	1.458056
	H277	H	0.480220	-0.520026	1.454747
	H278	H	0.475176	-0.516678	1.449135
	O279	O	0.481965	0.440934	0.459632
	H280	H	0.479112	0.437970	0.455964
	H281	H	0.491359	0.431268	0.459151
	O282	O	1.460687	1.445307	0.494823
	H283	H	1.458597	1.448275	0.489967
	H284	H	1.462220	1.453034	0.488489
	O285	O	0.476898	0.425130	0.486413
	H286	H	0.471259	0.417501	0.502251
	H287	H	0.468190	0.423459	0.495281
