data_Molecule from HDF5

_cell_length_a		16.238747
_cell_length_b		16.261552
_cell_length_c		16.105214
_cell_angle_alpha	90.666832
_cell_angle_beta	89.898930
_cell_angle_gamma	89.846147
_symmetry_space_group_name_H-M	'P 1'
_symmetry_Int_Tables_number		1

loop_
	_symmetry_equiv_pos_as_xyz
	x,y,z

loop_
	_atom_site_label
	_atom_site_type_symbol
	_atom_site_fract_x
	_atom_site_fract_y
	_atom_site_fract_z
	H0	H	0.392188	0.837688	0.703868
	H1	H	0.585684	0.166022	0.711903
	H2	H	0.588699	0.839722	0.279020
	H3	H	0.390151	0.167186	0.282083
	H4	H	0.707166	0.397870	0.829091
	H5	H	0.704335	0.602517	0.157810
	H6	H	0.277265	0.596548	0.826894
	H7	H	0.274105	0.402780	0.157507
	H8	H	0.826011	0.718622	0.395430
	H9	H	0.153434	0.720405	0.595119
	H10	H	0.824706	0.291434	0.593571
	H11	H	0.150879	0.285044	0.389968
	H12	H	0.825070	0.409677	0.706493
	H13	H	0.154427	0.602872	0.707850
	H14	H	0.825411	0.602908	0.281235
	H15	H	0.152769	0.405071	0.279467
	H16	H	0.390962	0.713718	0.827522
	H17	H	0.591183	0.719818	0.157533
	H18	H	0.590888	0.281964	0.829288
	H19	H	0.391156	0.290700	0.159340
	H20	H	0.704584	0.840805	0.391969
	H21	H	0.701728	0.167641	0.596743
	H22	H	0.271229	0.841171	0.595181
	H23	H	0.274192	0.167287	0.396448
	H24	H	0.889867	0.340672	0.207775
	H25	H	0.088496	0.666338	0.208942
	H26	H	0.089494	0.340412	0.774571
	H27	H	0.891276	0.667541	0.783240
	H28	H	0.205305	0.902828	0.330129
	H29	H	0.202634	0.107086	0.659591
	H30	H	0.772524	0.102925	0.329117
	H31	H	0.775278	0.908248	0.659532
	H32	H	0.326061	0.215340	0.894513
	H33	H	0.651630	0.218801	0.097310
	H34	H	0.324748	0.787801	0.092959
	H35	H	0.652795	0.782717	0.890404
	H36	H	0.325102	0.904756	0.208641
	H37	H	0.653052	0.101288	0.208866
	H38	H	0.324421	0.097539	0.784000
	H39	H	0.652649	0.899973	0.777235
	H40	H	0.887901	0.216831	0.327906
	H41	H	0.088122	0.223805	0.657741
	H42	H	0.091817	0.785862	0.329584
	H43	H	0.890731	0.792881	0.659365
	H44	H	0.203362	0.338336	0.890563
	H45	H	0.205018	0.665212	0.093645
	H46	H	0.773489	0.339956	0.094421
	H47	H	0.770214	0.663828	0.892035
	H48	H	0.395039	0.121113	0.592334
	H49	H	0.585721	0.885524	0.583858
	H50	H	0.582215	0.121333	0.401035
	H51	H	0.398887	0.887658	0.403457
	H52	H	0.583351	0.406235	0.113252
	H53	H	0.579323	0.596947	0.873945
	H54	H	0.397765	0.600892	0.112043
	H55	H	0.400099	0.404413	0.874985
	H56	H	0.104498	0.593685	0.405541
	H57	H	0.869718	0.603964	0.593414
	H58	H	0.104322	0.416307	0.582062
	H59	H	0.863825	0.403270	0.381597
	H60	H	0.106774	0.410853	0.585626
	H61	H	0.873911	0.602155	0.583271
	H62	H	0.107589	0.593687	0.398192
	H63	H	0.872447	0.398036	0.416477
	H64	H	0.391365	0.593549	0.112029
	H65	H	0.586632	0.588869	0.874532
	H66	H	0.584871	0.414925	0.110784
	H67	H	0.396535	0.405069	0.874550
	H68	H	0.579802	0.120309	0.403051
	H69	H	0.582212	0.884895	0.586507
	H70	H	0.396309	0.120177	0.590794
	H71	H	0.393165	0.886265	0.403133
	H72	H	0.891387	0.622050	0.088062
	H73	H	0.089193	0.382942	0.087388
	H74	H	0.079342	0.616620	0.908774
	H75	H	0.907152	0.391282	0.906419
	H76	H	0.074339	0.915831	0.609408
	H77	H	0.073989	0.097968	0.378002
	H78	H	0.895425	0.096859	0.611145
	H79	H	0.888764	0.906866	0.373331
	H80	H	0.604986	0.094212	0.909841
	H81	H	0.376045	0.081593	0.087151
	H82	H	0.607935	0.909979	0.092876
	H83	H	0.372268	0.904561	0.903886
	H84	H	0.606108	0.901707	0.079146
	H85	H	0.366283	0.102191	0.100693
	H86	H	0.605252	0.085244	0.901860
	H87	H	0.373321	0.909716	0.899847
	H88	H	0.897954	0.099794	0.610945
	H89	H	0.088029	0.098033	0.373026
	H90	H	0.080951	0.906854	0.614019
	H91	H	0.898249	0.918699	0.378242
	H92	H	0.091316	0.621323	0.905713
	H93	H	0.077185	0.384904	0.089568
	H94	H	0.901529	0.619023	0.090221
	H95	H	0.886800	0.383832	0.904137
	H96	H	0.393438	0.120846	0.589569
	H97	H	0.581796	0.887170	0.583035
	H98	H	0.582772	0.121853	0.404791
	H99	H	0.396509	0.885913	0.398393
	H100	H	0.576638	0.410524	0.108854
	H101	H	0.576852	0.586743	0.878364
	H102	H	0.400527	0.592027	0.108459
	H103	H	0.397477	0.407480	0.875223
	H104	H	0.107995	0.600501	0.402341
	H105	H	0.873653	0.593821	0.589932
	H106	H	0.105538	0.409644	0.579134
	H107	H	0.877046	0.430602	0.402267
	H108	H	0.897032	0.618057	0.079210
	H109	H	0.082884	0.387792	0.078250
	H110	H	0.081017	0.621368	0.896299
	H111	H	0.900453	0.382639	0.886254
	H112	H	0.085511	0.916897	0.613046
	H113	H	0.081617	0.085141	0.379236
	H114	H	0.893855	0.100574	0.612035
	H115	H	0.903793	0.904235	0.376265
	H116	H	0.609477	0.096135	0.898543
	H117	H	0.373447	0.104040	0.075179
	H118	H	0.601482	0.917288	0.080289
	H119	H	0.370857	0.904088	0.896896
	C120	C	0.366434	0.012040	0.617474
	C121	C	0.610598	0.994522	0.615681
	C122	C	0.611503	0.012802	0.372335
	C123	C	0.367515	0.994912	0.373380
	C124	C	0.612076	0.379040	0.002466
	C125	C	0.610702	0.622336	0.984470
	C126	C	0.368216	0.622562	0.001567
	C127	C	0.368597	0.379097	0.984318
	C128	C	-0.001658	0.624967	0.373075
	C129	C	0.981168	0.628087	0.617524
	C130	C	-0.002662	0.384449	0.612796
	C131	C	0.979250	0.381165	0.370797
	C132	C	0.868083	0.511926	0.114390
	C133	C	0.112109	0.493269	0.115023
	C134	C	0.112222	0.511772	0.871680
	C135	C	0.868718	0.494103	0.871742
	C136	C	0.110453	0.882629	0.503053
	C137	C	0.109677	0.125265	0.485570
	C138	C	0.866486	0.126258	0.502123
	C139	C	0.867974	0.882664	0.485191
	C140	C	0.497928	0.120965	0.874453
	C141	C	0.480338	0.124261	0.116633
	C142	C	0.497394	0.880619	0.114256
	C143	C	0.480414	0.876885	0.870319
	C144	C	0.370147	0.887520	0.668819
	C145	C	0.606778	0.117509	0.673307
	C146	C	0.609266	0.889120	0.316234
	C147	C	0.370107	0.118401	0.319586
	C148	C	0.668314	0.378797	0.878156
	C149	C	0.666205	0.621996	0.108602
	C150	C	0.314323	0.618027	0.876575
	C151	C	0.312192	0.382532	0.108377
	C152	C	0.874806	0.680404	0.375388
	C153	C	0.104417	0.682660	0.615221
	C154	C	0.873655	0.329523	0.612649
	C155	C	0.102245	0.324148	0.371069
	C156	C	0.874091	0.388046	0.669026
	C157	C	0.104950	0.624181	0.671414
	C158	C	0.874505	0.623147	0.318447
	C159	C	0.103246	0.383789	0.316198
	C160	C	0.370639	0.676469	0.877001
	C161	C	0.609861	0.680256	0.108610
	C162	C	0.611055	0.320792	0.878586
	C163	C	0.370712	0.327019	0.109391
	C164	C	0.666819	0.889652	0.372726
	C165	C	0.664475	0.118230	0.615875
	C166	C	0.310105	0.889377	0.614574
	C167	C	0.312128	0.118376	0.376116
	C168	C	0.870130	0.389147	0.169589
	C169	C	0.109487	0.616903	0.171363
	C170	C	0.109920	0.388876	0.813464
	C171	C	0.870657	0.617863	0.819073
	C172	C	0.167174	0.882942	0.379365
	C173	C	0.164877	0.126111	0.609915
	C174	C	0.810915	0.122869	0.378223
	C175	C	0.812826	0.887119	0.609791
	C176	C	0.374868	0.177063	0.875410
	C177	C	0.603238	0.180181	0.116293
	C178	C	0.373950	0.825464	0.113055
	C179	C	0.603749	0.821253	0.871308
	C180	C	0.374006	0.883666	0.170775
	C181	C	0.603696	0.121752	0.171983
	C182	C	0.374191	0.118422	0.820334
	C183	C	0.603614	0.879141	0.814557
	C184	C	0.868398	0.179611	0.377496
	C185	C	0.107803	0.184044	0.609204
	C186	C	0.110597	0.824781	0.379158
	C187	C	0.870391	0.829766	0.609814
	C188	C	0.167017	0.388096	0.870471
	C189	C	0.167519	0.616309	0.113975
	C190	C	0.812170	0.388855	0.113319
	C191	C	0.810153	0.615899	0.873086
	C192	C	0.388440	0.098236	0.596839
	C193	C	0.589491	0.908217	0.591640
	C194	C	0.588430	0.098801	0.395846
	C195	C	0.389759	0.909011	0.395297
	C196	C	0.588580	0.403394	0.088704
	C197	C	0.587600	0.598102	0.897963
	C198	C	0.390272	0.601727	0.088397
	C199	C	0.391208	0.399589	0.897397
	C200	C	0.084233	0.602527	0.395288
	C201	C	0.894803	0.606468	0.595355
	C202	C	0.083294	0.406010	0.589145
	C203	C	0.893405	0.403962	0.393566
	C204	C	0.890323	0.597515	0.092386
	C205	C	0.089593	0.407493	0.091924
	C206	C	0.090146	0.597569	0.896270
	C207	C	0.891439	0.408217	0.892737
	C208	C	0.087192	0.906284	0.589701
	C209	C	0.087696	0.100759	0.399097
	C210	C	0.889244	0.105328	0.589036
	C211	C	0.890398	0.903570	0.398330
	C212	C	0.584184	0.098540	0.896768
	C213	C	0.394230	0.102414	0.094147
	C214	C	0.583035	0.903052	0.091136
	C215	C	0.394287	0.899355	0.893418
	Zn216	Zn	0.488866	0.001442	0.744966
	Zn217	Zn	0.488956	0.003093	0.244846
	Zn218	Zn	0.739664	0.501586	-0.006789
	Zn219	Zn	0.240595	0.500493	-0.007599
	Zn220	Zn	-0.010141	0.754365	0.494053
	Zn221	Zn	-0.012076	0.253888	0.492808
	Zn222	Zn	-0.009629	0.504515	0.743510
	Zn223	Zn	-0.011162	0.503766	0.243479
	Zn224	Zn	0.489606	0.750461	-0.006895
	Zn225	Zn	0.489384	0.250883	-0.005680
	Zn226	Zn	0.738924	0.004376	0.493705
	Zn227	Zn	0.238726	0.004228	0.494960
	N228	N	0.404243	0.964830	0.671088
	N229	N	0.574068	0.039572	0.673337
	N230	N	0.575361	0.966763	0.315942
	N231	N	0.403732	0.040650	0.317686
	N232	N	0.669323	0.414122	0.956148
	N233	N	0.666722	0.586711	0.030491
	N234	N	0.312570	0.585339	0.955030
	N235	N	0.310905	0.414394	0.029505
	N236	N	0.952744	0.681915	0.408589
	N237	N	0.026395	0.685193	0.582489
	N238	N	0.951286	0.327113	0.578312
	N239	N	0.024187	0.322318	0.404347
	N240	N	0.951853	0.421607	0.668950
	N241	N	0.027111	0.591070	0.673036
	N242	N	0.952350	0.589479	0.316669
	N243	N	0.025846	0.418372	0.315574
	N244	N	0.403401	0.679497	0.955630
	N245	N	0.575956	0.680496	0.030395
	N246	N	0.576882	0.320728	0.956888
	N247	N	0.404997	0.324658	0.031253
	N248	N	0.668368	0.967739	0.406683
	N249	N	0.666928	0.040580	0.580826
	N250	N	0.307505	0.967859	0.583435
	N251	N	0.310249	0.040654	0.408796
	N252	N	0.904306	0.466581	0.170552
	N253	N	0.075773	0.539420	0.172314
	N254	N	0.076703	0.466827	0.813774
	N255	N	0.906415	0.541091	0.818080
	N256	N	0.167312	0.918010	0.457493
	N257	N	0.166065	0.090167	0.532122
	N258	N	0.809703	0.090474	0.456700
	N259	N	0.811212	0.919329	0.531141
	N260	N	0.453120	0.179041	0.908253
	N261	N	0.525539	0.181906	0.082399
	N262	N	0.451510	0.823588	0.078711
	N263	N	0.525938	0.819633	0.905186
	N264	N	0.451733	0.917375	0.171617
	N265	N	0.526298	0.087726	0.172408
	N266	N	0.451684	0.084311	0.819693
	N267	N	0.526009	0.913255	0.813945
	N268	N	0.902338	0.181928	0.455789
	N269	N	0.074365	0.183814	0.530759
	N270	N	0.076054	0.824481	0.457228
	N271	N	0.903992	0.826830	0.531356
	N272	N	0.168433	0.465290	0.906077
	N273	N	0.169478	0.538524	0.079752
	N274	N	0.810801	0.466169	0.079731
	N275	N	0.808742	0.537921	0.905094
	O276	O	-0.037182	0.000252	-0.026735
	H277	H	-0.017514	-0.003207	-0.015910
	H278	H	-0.035755	-0.011847	-0.036582
	O279	O	0.549698	0.514592	0.413017
	H280	H	0.554755	0.504030	0.420829
	H281	H	0.545097	0.506007	0.403865
	O282	O	0.460652	0.554816	0.475318
	H283	H	0.455288	0.554542	0.477234
	H284	H	0.462396	0.554961	0.480364
	O285	O	0.107571	0.884129	0.945204
	H286	H	0.112536	0.878644	0.966152
	H287	H	0.108698	0.875685	0.951314
	O288	O	0.526754	0.525092	0.568200
	H289	H	0.525704	0.526591	0.577583
	H290	H	0.528130	0.529406	0.569699
	O291	O	1.013185	0.967341	0.969180
	H292	H	1.022410	0.964005	0.965451
	H293	H	1.011139	0.968415	0.975334
	O294	O	1.128509	0.985336	1.074580
	H295	H	1.131822	0.994683	1.093649
	H296	H	1.117673	0.976126	1.067223
	O297	O	0.918935	-0.045642	1.068449
	H298	H	0.913400	-0.037546	1.073585
	H299	H	0.905367	-0.047888	1.075063
	O300	O	0.470095	0.514189	0.454966
	H301	H	0.479851	0.511851	0.465707
	H302	H	0.464043	0.515984	0.450993
	O303	O	0.841218	0.067326	-0.087028
	H304	H	0.838681	0.056157	-0.086802
	H305	H	0.828007	0.070888	-0.093184
	O306	O	0.027822	1.037905	0.863694
	H307	H	0.041648	1.050581	0.866509
	H308	H	0.022539	1.046419	0.857419
	O309	O	0.973693	1.122541	1.077223
	H310	H	0.971961	1.111927	1.070751
	H311	H	0.975499	1.130348	1.086567
	O312	O	0.970356	-0.016273	0.922522
	H313	H	0.966063	-0.024908	0.909225
	H314	H	0.981004	-0.009134	0.926201
	O315	O	0.501901	0.578386	0.456944
	H316	H	0.505763	0.566584	0.463420
	H317	H	0.513403	0.575509	0.468013
	O318	O	0.501887	0.530870	0.424873
	H319	H	0.502862	0.538961	0.419977
	H320	H	0.496055	0.533223	0.421012
	O321	O	0.863572	1.055783	1.035966
	H322	H	0.860175	1.065301	1.034891
	H323	H	0.871445	1.070955	1.034913
	O324	O	1.078465	-0.039969	-0.124300
	H325	H	1.077173	-0.047138	-0.136456
	H326	H	1.078560	-0.060468	-0.134365
	O327	O	0.540148	0.519176	0.527038
	H328	H	0.537788	0.521942	0.526229
	H329	H	0.539439	0.520807	0.523528
	O330	O	0.974228	0.042130	1.008946
	H331	H	0.983841	0.043546	1.007402
	H332	H	0.979255	0.029647	1.004678
	O333	O	0.963111	0.952230	0.016835
	H334	H	0.956251	0.949892	0.020632
	H335	H	0.950547	0.962891	0.025856
	O336	O	0.510363	0.566037	0.526130
	H337	H	0.502565	0.563283	0.528750
	H338	H	0.510431	0.562558	0.530213
	O339	O	0.426282	0.497693	0.554224
	H340	H	0.425501	0.500235	0.559176
	H341	H	0.412029	0.498602	0.547871
	O342	O	-0.111634	0.927348	0.067927
	H343	H	-0.106804	0.953240	0.064490
	H344	H	-0.117536	0.933433	0.060934
	O345	O	0.068209	0.086532	0.045728
	H346	H	0.084932	0.083994	0.050629
	H347	H	0.068153	0.093262	0.053213
	O348	O	0.925989	0.023446	1.093678
	H349	H	0.923732	0.039014	1.103787
	H350	H	0.920147	0.023725	1.084510
	O351	O	-0.054555	0.924186	0.987213
	H352	H	-0.059842	0.924285	0.986250
	H353	H	-0.055966	0.913736	0.980750
	O354	O	0.524852	0.541667	0.558514
	H355	H	0.523385	0.552133	0.560694
	H356	H	0.524474	0.541991	0.573600
	O357	O	1.055016	-0.144363	0.019889
	H358	H	1.038815	-0.148073	0.012671
	H359	H	1.056610	-0.150621	0.022224
	O360	O	0.002030	0.035855	0.017943
	H361	H	0.012292	0.039137	0.017896
	H362	H	-0.007090	0.036751	0.013485
	O363	O	0.443233	0.557114	0.472328
	H364	H	0.435251	0.568452	0.463799
	H365	H	0.446137	0.570222	0.458365
	O366	O	0.059330	0.040704	0.959059
	H367	H	0.069013	0.041956	0.953250
	H368	H	0.047791	0.038317	0.955068
	O369	O	0.376325	0.600701	0.447088
	H370	H	0.391306	0.603438	0.437397
	H371	H	0.376154	0.610628	0.441298
