data_Molecule from HDF5

_cell_length_a		16.281660
_cell_length_b		16.344953
_cell_length_c		16.103868
_cell_angle_alpha	90.535988
_cell_angle_beta	90.308601
_cell_angle_gamma	89.731168
_symmetry_space_group_name_H-M	'P 1'
_symmetry_Int_Tables_number		1

loop_
	_symmetry_equiv_pos_as_xyz
	x,y,z

loop_
	_atom_site_label
	_atom_site_type_symbol
	_atom_site_fract_x
	_atom_site_fract_y
	_atom_site_fract_z
	H0	H	0.415753	0.832158	0.710301
	H1	H	0.611665	0.158247	0.714131
	H2	H	0.611376	0.833873	0.279122
	H3	H	0.409558	0.158151	0.284586
	H4	H	0.722008	0.396292	0.829339
	H5	H	0.729170	0.599164	0.158857
	H6	H	0.295272	0.597988	0.829415
	H7	H	0.292929	0.396302	0.156333
	H8	H	0.849365	0.713570	0.389600
	H9	H	0.174198	0.711263	0.595742
	H10	H	0.850253	0.276886	0.597893
	H11	H	0.171471	0.271549	0.387478
	H12	H	0.847620	0.397849	0.706816
	H13	H	0.174342	0.595627	0.711851
	H14	H	0.847554	0.593293	0.278900
	H15	H	0.172618	0.390544	0.274312
	H16	H	0.407901	0.714799	0.832329
	H17	H	0.610257	0.711314	0.162147
	H18	H	0.614695	0.274652	0.833911
	H19	H	0.408238	0.282793	0.159039
	H20	H	0.727254	0.833438	0.395440
	H21	H	0.731316	0.155598	0.603961
	H22	H	0.293678	0.833993	0.599930
	H23	H	0.290297	0.155000	0.394358
	H24	H	0.908870	0.333109	0.208044
	H25	H	0.110200	0.657148	0.213089
	H26	H	0.109684	0.333154	0.777499
	H27	H	0.911360	0.659527	0.780087
	H28	H	0.230713	0.889109	0.332006
	H29	H	0.226095	0.096230	0.660233
	H30	H	0.791919	0.095344	0.333184
	H31	H	0.801401	0.896756	0.660837
	H32	H	0.350270	0.215566	0.893033
	H33	H	0.672749	0.215079	0.103127
	H34	H	0.349031	0.779858	0.100663
	H35	H	0.673917	0.777284	0.897010
	H36	H	0.346577	0.900842	0.209608
	H37	H	0.672857	0.097206	0.215838
	H38	H	0.348795	0.095053	0.780911
	H39	H	0.676072	0.894677	0.783441
	H40	H	0.905075	0.211181	0.332217
	H41	H	0.114759	0.215384	0.657323
	H42	H	0.114773	0.775490	0.330973
	H43	H	0.913305	0.780215	0.658563
	H44	H	0.231832	0.336573	0.885539
	H45	H	0.228304	0.657151	0.099108
	H46	H	0.792418	0.334943	0.094214
	H47	H	0.790773	0.657947	0.891726
	H48	H	0.408110	0.113084	0.587165
	H49	H	0.621437	0.876050	0.584976
	H50	H	0.608042	0.110981	0.414977
	H51	H	0.417069	0.878092	0.402430
	H52	H	0.602739	0.408011	0.111961
	H53	H	0.597943	0.598494	0.876100
	H54	H	0.421077	0.596830	0.114016
	H55	H	0.429028	0.410774	0.881687
	H56	H	0.127285	0.582331	0.399458
	H57	H	0.896207	0.592090	0.579217
	H58	H	0.125476	0.408967	0.585410
	H59	H	0.893574	0.400478	0.399633
	H60	H	0.128578	0.400659	0.586773
	H61	H	0.896959	0.583076	0.586904
	H62	H	0.127744	0.590773	0.404682
	H63	H	0.895971	0.401976	0.404791
	H64	H	0.410757	0.587368	0.113960
	H65	H	0.609908	0.583957	0.876534
	H66	H	0.602654	0.407028	0.113393
	H67	H	0.424635	0.397469	0.876294
	H68	H	0.604910	0.113849	0.401976
	H69	H	0.604489	0.875798	0.603528
	H70	H	0.425045	0.111923	0.597524
	H71	H	0.424944	0.880686	0.401727
	H72	H	0.918430	0.611652	0.087909
	H73	H	0.096078	0.381997	0.084603
	H74	H	0.102757	0.615224	0.894826
	H75	H	0.913805	0.375592	0.887124
	H76	H	0.103070	0.899366	0.612282
	H77	H	0.097971	0.085880	0.378759
	H78	H	0.923625	0.088020	0.612077
	H79	H	0.914606	0.901863	0.375239
	H80	H	0.629274	0.088966	0.906451
	H81	H	0.391037	0.095333	0.092901
	H82	H	0.624165	0.911125	0.089104
	H83	H	0.393932	0.901033	0.902909
	H84	H	0.629444	0.901509	0.093988
	H85	H	0.395783	0.094106	0.083124
	H86	H	0.626664	0.088168	0.911930
	H87	H	0.397849	0.905883	0.907895
	H88	H	0.923033	0.087619	0.612527
	H89	H	0.105439	0.081636	0.377305
	H90	H	0.106299	0.905728	0.611388
	H91	H	0.919682	0.907974	0.378407
	H92	H	0.092743	0.608303	0.906140
	H93	H	0.103557	0.383596	0.073537
	H94	H	0.922374	0.608945	0.083744
	H95	H	0.926393	0.384296	0.903084
	H96	H	0.423608	0.105045	0.579116
	H97	H	0.597939	0.884465	0.580594
	H98	H	0.595437	0.107997	0.410401
	H99	H	0.421197	0.880890	0.408516
	H100	H	0.603838	0.407924	0.112399
	H101	H	0.591799	0.581918	0.883622
	H102	H	0.423443	0.585086	0.109371
	H103	H	0.414795	0.409681	0.876843
	H104	H	0.124943	0.581639	0.408500
	H105	H	0.892003	0.594351	0.590473
	H106	H	0.125289	0.402418	0.577997
	H107	H	0.896195	0.405676	0.400966
	H108	H	0.916487	0.610455	0.081701
	H109	H	0.108277	0.377504	0.084245
	H110	H	0.109276	0.612154	0.909917
	H111	H	0.906101	0.379734	0.907426
	H112	H	0.099866	0.904540	0.610325
	H113	H	0.098257	0.077741	0.381718
	H114	H	0.923467	0.087445	0.611705
	H115	H	0.922793	0.898979	0.377243
	H116	H	0.627032	0.083614	0.907641
	H117	H	0.395576	0.086419	0.090068
	H118	H	0.625491	0.901741	0.082268
	H119	H	0.396716	0.908115	0.901787
	C120	C	0.390050	0.003233	0.618013
	C121	C	0.636318	0.986071	0.620503
	C122	C	0.632851	0.004111	0.376873
	C123	C	0.389371	0.986503	0.375076
	C124	C	0.632513	0.376006	0.004224
	C125	C	0.631023	0.617849	0.987461
	C126	C	0.388238	0.619507	0.004075
	C127	C	0.391443	0.376697	0.986126
	C128	C	0.019356	0.615274	0.373009
	C129	C	1.002743	0.618317	0.616017
	C130	C	0.019434	0.374894	0.613722
	C131	C	1.002082	0.370937	0.370324
	C132	C	0.889166	0.503723	0.113868
	C133	C	0.132432	0.487426	0.114154
	C134	C	0.132412	0.505012	0.871410
	C135	C	0.886651	0.487590	0.870501
	C136	C	0.133766	0.872017	0.503496
	C137	C	0.131734	0.114633	0.486933
	C138	C	0.890475	0.116469	0.504494
	C139	C	0.891302	0.873837	0.486121
	C140	C	0.520523	0.117271	0.876811
	C141	C	0.501768	0.120519	0.120185
	C142	C	0.518932	0.876074	0.118204
	C143	C	0.503503	0.874116	0.875220
	C144	C	0.393890	0.881088	0.673270
	C145	C	0.633117	0.108934	0.677019
	C146	C	0.631430	0.882482	0.318104
	C147	C	0.389443	0.108965	0.320734
	C148	C	0.686408	0.375924	0.879654
	C149	C	0.689509	0.617873	0.110541
	C150	C	0.332319	0.618037	0.879542
	C151	C	0.332455	0.377403	0.108286
	C152	C	0.897572	0.673503	0.371395
	C153	C	0.125577	0.673535	0.615512
	C154	C	0.898004	0.317156	0.614881
	C155	C	0.123330	0.311569	0.369169
	C156	C	0.896853	0.377214	0.669469
	C157	C	0.125598	0.615997	0.673175
	C158	C	0.896404	0.613820	0.316227
	C159	C	0.123948	0.370868	0.312919
	C160	C	0.388746	0.675991	0.880756
	C161	C	0.630587	0.673830	0.111937
	C162	C	0.632957	0.315513	0.881952
	C163	C	0.389875	0.320710	0.109608
	C164	C	0.689079	0.882067	0.376210
	C165	C	0.692290	0.107731	0.621654
	C166	C	0.333162	0.881956	0.618235
	C167	C	0.330020	0.107203	0.375306
	C168	C	0.889930	0.381639	0.169481
	C169	C	0.130930	0.608569	0.174289
	C170	C	0.130610	0.382463	0.814597
	C171	C	0.889954	0.610343	0.816745
	C172	C	0.191469	0.870933	0.380695
	C173	C	0.188748	0.115719	0.610442
	C174	C	0.830639	0.115334	0.382045
	C175	C	0.837870	0.876315	0.610856
	C176	C	0.398612	0.175615	0.874601
	C177	C	0.623831	0.176938	0.121894
	C178	C	0.396927	0.819560	0.118243
	C179	C	0.625550	0.816101	0.876965
	C180	C	0.395732	0.879622	0.172886
	C181	C	0.624002	0.118127	0.177881
	C182	C	0.397981	0.115741	0.818842
	C183	C	0.626739	0.874533	0.820589
	C184	C	0.887278	0.172807	0.381489
	C185	C	0.133154	0.174808	0.609085
	C186	C	0.134044	0.814095	0.380190
	C187	C	0.893747	0.818225	0.609696
	C188	C	0.191208	0.383902	0.868655
	C189	C	0.189308	0.608830	0.116959
	C190	C	0.831602	0.382563	0.112940
	C191	C	0.829987	0.609532	0.872100
	C192	C	0.412330	0.088098	0.594841
	C193	C	0.614268	0.900835	0.596823
	C194	C	0.609622	0.089014	0.401885
	C195	C	0.413744	0.901750	0.397576
	C196	C	0.609763	0.400599	0.090338
	C197	C	0.606998	0.594660	0.901234
	C198	C	0.411470	0.596505	0.089923
	C199	C	0.415684	0.399445	0.900673
	C200	C	0.104552	0.591691	0.397090
	C201	C	0.917320	0.596370	0.592471
	C202	C	0.104477	0.397505	0.590286
	C203	C	0.917393	0.395469	0.394605
	C204	C	0.912456	0.588240	0.091143
	C205	C	0.109288	0.403005	0.088319
	C206	C	0.108530	0.589794	0.896227
	C207	C	0.908914	0.402215	0.892644
	C208	C	0.110269	0.896364	0.589177
	C209	C	0.107491	0.089229	0.401335
	C210	C	0.916037	0.094253	0.589972
	C211	C	0.912833	0.896081	0.399535
	C212	C	0.605425	0.093891	0.901663
	C213	C	0.416456	0.098537	0.095807
	C214	C	0.604361	0.898407	0.095243
	C215	C	0.418320	0.898054	0.897471
	Zn216	Zn	0.513043	-0.004562	0.747230
	Zn217	Zn	0.510387	-0.003016	0.247138
	Zn218	Zn	0.759417	0.496670	-0.006335
	Zn219	Zn	0.261611	0.496558	-0.007350
	Zn220	Zn	0.011643	0.745346	0.493282
	Zn221	Zn	0.011123	0.244145	0.494147
	Zn222	Zn	0.010885	0.495937	0.743820
	Zn223	Zn	0.010141	0.494523	0.243402
	Zn224	Zn	0.509983	0.746354	-0.002782
	Zn225	Zn	0.511783	0.248358	-0.002779
	Zn226	Zn	0.763526	-0.004819	0.497606
	Zn227	Zn	0.260694	-0.005995	0.495800
	N228	N	0.428728	0.957482	0.673196
	N229	N	0.598971	0.032184	0.676533
	N230	N	0.597341	0.959608	0.318044
	N231	N	0.425803	0.032990	0.320491
	N232	N	0.686003	0.413034	0.956672
	N233	N	0.689982	0.583911	0.032008
	N234	N	0.331570	0.583661	0.957209
	N235	N	0.333380	0.411673	0.030677
	N236	N	0.974963	0.674570	0.405669
	N237	N	0.048180	0.675179	0.580851
	N238	N	0.975282	0.315439	0.580870
	N239	N	0.046247	0.311272	0.403858
	N240	N	0.973291	0.412589	0.668887
	N241	N	0.048273	0.582453	0.673720
	N242	N	0.973186	0.578231	0.316931
	N243	N	0.047447	0.406817	0.313311
	N244	N	0.422425	0.677332	0.959190
	N245	N	0.594738	0.673709	0.034378
	N246	N	0.600135	0.315513	0.960381
	N247	N	0.426172	0.320348	0.032705
	N248	N	0.690056	0.958760	0.411969
	N249	N	0.694699	0.030363	0.587402
	N250	N	0.330576	0.959016	0.584670
	N251	N	0.329714	0.029972	0.408275
	N252	N	0.925201	0.457890	0.170230
	N253	N	0.096400	0.531956	0.172599
	N254	N	0.094870	0.458825	0.816354
	N255	N	0.924231	0.533436	0.815348
	N256	N	0.191740	0.906155	0.458617
	N257	N	0.187860	0.078774	0.533309
	N258	N	0.832378	0.081349	0.459695
	N259	N	0.835969	0.910079	0.532885
	N260	N	0.475637	0.176657	0.910079
	N261	N	0.546636	0.178957	0.086953
	N262	N	0.474638	0.817293	0.084990
	N263	N	0.547733	0.815390	0.909922
	N264	N	0.472638	0.914093	0.173089
	N265	N	0.547014	0.083877	0.177134
	N266	N	0.474823	0.080193	0.819907
	N267	N	0.549919	0.909904	0.819315
	N268	N	0.924086	0.173538	0.458526
	N269	N	0.098693	0.174373	0.531065
	N270	N	0.098891	0.814814	0.457515
	N271	N	0.926333	0.816638	0.531119
	N272	N	0.192458	0.460994	0.903331
	N273	N	0.190398	0.532429	0.080258
	N274	N	0.830961	0.459495	0.079210
	N275	N	0.827627	0.532022	0.904490
	O276	O	0.101183	-0.147134	-0.024184
	H277	H	0.099187	-0.155256	-0.030933
	H278	H	0.100338	-0.145141	-0.027238
	O279	O	0.491695	0.446271	0.576916
	H280	H	0.478937	0.440169	0.586546
	H281	H	0.496035	0.460656	0.583463
	O282	O	1.016477	-0.140410	0.074052
	H283	H	1.003207	-0.144939	0.077227
	H284	H	1.010884	-0.142936	0.081866
	O285	O	-0.022070	0.977612	0.011458
	H286	H	-0.018259	0.978485	0.014960
	H287	H	-0.026440	0.960987	0.010756
	O288	O	0.389215	0.546257	0.361771
	H289	H	0.368229	0.556536	0.347608
	H290	H	0.385239	0.571192	0.372548
	O291	O	0.489534	0.554561	0.389458
	H292	H	0.497673	0.545461	0.373671
	H293	H	0.487095	0.541317	0.387836
	O294	O	0.493345	1.403770	0.470423
	H295	H	0.498521	1.405895	0.471941
	H296	H	0.485359	1.395104	0.472529
	O297	O	0.625780	-0.672452	-0.650041
	H298	H	0.608748	-0.686797	-0.673420
	H299	H	0.642866	-0.680984	-0.633952
	O300	O	0.047562	1.018449	1.132656
	H301	H	0.045219	1.009331	1.127606
	H302	H	0.049868	1.017825	1.124558
	O303	O	0.055051	0.968175	1.027159
	H304	H	0.056152	0.966652	1.022564
	H305	H	0.069420	0.976982	1.012952
	O306	O	-0.658545	1.559622	0.444328
	H307	H	-0.643605	1.566667	0.444006
	H308	H	-0.657370	1.570086	0.452460
	O309	O	0.908300	0.096655	0.053571
	H310	H	0.903424	0.093715	0.061108
	H311	H	0.904464	0.102820	0.052499
	O312	O	-0.068780	0.012506	1.073485
	H313	H	-0.078046	0.012716	1.081638
	H314	H	-0.059773	0.006013	1.061757
	O315	O	0.142508	1.108210	0.893992
	H316	H	0.143728	1.113101	0.904867
	H317	H	0.146136	1.102113	0.904151
	O318	O	0.597790	0.657835	0.510989
	H319	H	0.615828	0.664028	0.511540
	H320	H	0.600027	0.649103	0.503323
	O321	O	0.532671	0.499825	0.566204
	H322	H	0.530293	0.506299	0.564016
	H323	H	0.532426	0.493903	0.571935
	O324	O	0.425936	0.474131	0.528334
	H325	H	0.436212	0.473816	0.523747
	H326	H	0.431389	0.477021	0.522607
	O327	O	-0.028813	1.012709	0.968432
	H328	H	-0.012738	1.012142	0.986060
	H329	H	-0.042456	1.015280	0.984984
	O330	O	0.479491	0.306059	0.533055
	H331	H	0.467236	0.312201	0.545010
	H332	H	0.472753	0.313370	0.540411
	O333	O	-0.034761	0.973084	1.118030
	H334	H	-0.034359	0.988750	1.133595
	H335	H	-0.020666	0.970117	1.105579
	O336	O	1.135393	0.928180	0.975230
	H337	H	1.146897	0.914802	0.973372
	H338	H	1.133853	0.936124	0.977599
	O339	O	0.531704	0.372133	0.401414
	H340	H	0.529159	0.353256	0.387159
	H341	H	0.515866	0.371969	0.412172
	O342	O	1.149430	-0.103052	-0.157961
	H343	H	1.140726	-0.116886	-0.166220
	H344	H	1.152569	-0.096973	-0.156816
	O345	O	0.579053	0.646737	0.625497
	H346	H	0.592482	0.644308	0.635869
	H347	H	0.595227	0.643689	0.617360
	O348	O	1.165163	1.060619	1.065528
	H349	H	1.150758	1.050808	1.061145
	H350	H	1.169997	1.051347	1.071225
	O351	O	0.928599	1.127745	-0.143398
	H352	H	0.931946	1.132105	-0.148770
	H353	H	0.931191	1.140471	-0.134317
	O354	O	0.670310	0.485343	0.442264
	H355	H	0.664524	0.477331	0.443383
	H356	H	0.679690	0.469694	0.428236
	O357	O	0.485690	0.615785	0.473588
	H358	H	0.493837	0.626152	0.467312
	H359	H	0.479525	0.611495	0.473225
	O360	O	0.109001	-0.062226	0.087712
	H361	H	0.115685	-0.073183	0.079656
	H362	H	0.103179	-0.073223	0.080252
	O363	O	0.453324	0.528841	0.342718
	H364	H	0.441262	0.529286	0.330039
	H365	H	0.454810	0.537308	0.350223
	O366	O	-0.045108	-0.037106	0.939307
	H367	H	-0.041408	-0.034750	0.939805
	H368	H	-0.046670	-0.035920	0.946352
	O369	O	0.561225	0.494207	0.490934
	H370	H	0.549150	0.487495	0.485920
	H371	H	0.561437	0.481566	0.493969
	O372	O	0.400585	0.417286	0.481162
	H373	H	0.389818	0.433111	0.472059
	H374	H	0.398333	0.430743	0.494356
	O375	O	0.410916	0.478326	0.600704
	H376	H	0.410665	0.488527	0.584464
	H377	H	0.398266	0.475894	0.609022
	O378	O	0.580066	0.588745	0.488854
	H379	H	0.574022	0.575150	0.481310
	H380	H	0.598183	0.577112	0.485594
	O381	O	0.447917	0.529334	0.579572
	H382	H	0.457077	0.545328	0.587202
	H383	H	0.440238	0.536794	0.595845
	O384	O	-0.087812	0.969320	-0.037173
	H385	H	-0.080927	0.961027	-0.031269
	H386	H	-0.087339	0.981951	-0.033035
	O387	O	0.974303	-0.033367	1.066065
	H388	H	0.974207	-0.028989	1.060994
	H389	H	0.963741	-0.034830	1.050138
	O390	O	-0.024387	1.128712	0.019272
	H391	H	-0.024940	1.149710	0.034119
	H392	H	-0.024273	1.118844	0.018220
	O393	O	0.993212	1.004387	-0.099588
	H394	H	1.000694	1.013681	-0.100755
	H395	H	0.991548	0.993609	-0.104349
	O396	O	0.687033	-0.489068	0.643234
	H397	H	0.691965	-0.496085	0.638561
	H398	H	0.691039	-0.491501	0.650327
	O399	O	0.000235	1.175342	1.010084
	H400	H	-0.008887	1.185656	1.016989
	H401	H	0.008538	1.167757	1.017556
	O402	O	0.932463	0.880623	0.919319
	H403	H	0.927468	0.887543	0.921930
	H404	H	0.927683	0.883972	0.907645
	O405	O	0.542043	0.351981	0.532713
	H406	H	0.558584	0.337820	0.530426
	H407	H	0.534535	0.345492	0.553439
