data_Molecule from HDF5

_cell_length_a		16.501103
_cell_length_b		16.295776
_cell_length_c		16.290449
_cell_angle_alpha	89.879894
_cell_angle_beta	90.154924
_cell_angle_gamma	89.934182
_symmetry_space_group_name_H-M	'P 1'
_symmetry_Int_Tables_number		1

loop_
	_symmetry_equiv_pos_as_xyz
	x,y,z

loop_
	_atom_site_label
	_atom_site_type_symbol
	_atom_site_fract_x
	_atom_site_fract_y
	_atom_site_fract_z
	H0	H	0.389374	0.829768	0.734167
	H1	H	0.594837	0.150802	0.728803
	H2	H	0.595732	0.828585	0.292999
	H3	H	0.389622	0.150297	0.292304
	H4	H	0.715499	0.382823	0.852089
	H5	H	0.716409	0.592455	0.171051
	H6	H	0.270630	0.598634	0.852341
	H7	H	0.273417	0.381752	0.169215
	H8	H	0.836081	0.710861	0.405731
	H9	H	0.152469	0.709350	0.617580
	H10	H	0.835574	0.267838	0.616375
	H11	H	0.152576	0.268102	0.410165
	H12	H	0.837247	0.382053	0.734692
	H13	H	0.151767	0.593705	0.734022
	H14	H	0.836247	0.593428	0.289196
	H15	H	0.153557	0.384954	0.293906
	H16	H	0.391554	0.708564	0.850157
	H17	H	0.597023	0.706063	0.171635
	H18	H	0.595046	0.273689	0.849278
	H19	H	0.394788	0.272524	0.171795
	H20	H	0.717210	0.831293	0.403749
	H21	H	0.713459	0.149815	0.616482
	H22	H	0.272036	0.829555	0.620726
	H23	H	0.272094	0.148346	0.408123
	H24	H	0.894216	0.326306	0.230007
	H25	H	0.097509	0.648462	0.230846
	H26	H	0.097542	0.326848	0.793043
	H27	H	0.891938	0.648696	0.792719
	H28	H	0.213946	0.883501	0.353428
	H29	H	0.215093	0.094556	0.672550
	H30	H	0.773092	0.095789	0.350413
	H31	H	0.772248	0.883622	0.671512
	H32	H	0.334657	0.209944	0.907658
	H33	H	0.654196	0.208029	0.114363
	H34	H	0.335519	0.767992	0.114819
	H35	H	0.653982	0.769013	0.907404
	H36	H	0.334663	0.886872	0.229104
	H37	H	0.653226	0.092535	0.231284
	H38	H	0.334561	0.094154	0.790786
	H39	H	0.654682	0.887590	0.793052
	H40	H	0.893473	0.206080	0.349772
	H41	H	0.096193	0.206640	0.673658
	H42	H	0.094266	0.773324	0.351443
	H43	H	0.891263	0.770540	0.673528
	H44	H	0.217390	0.329063	0.904241
	H45	H	0.214539	0.648304	0.116759
	H46	H	0.776156	0.326932	0.117590
	H47	H	0.774224	0.647464	0.906494
	H48	H	0.401235	0.104984	0.602416
	H49	H	0.582850	0.875264	0.598834
	H50	H	0.585512	0.105332	0.421757
	H51	H	0.402515	0.874525	0.424136
	H52	H	0.589518	0.393881	0.129458
	H53	H	0.589647	0.575798	0.895328
	H54	H	0.409220	0.578048	0.124296
	H55	H	0.409429	0.396683	0.895601
	H56	H	0.108017	0.577640	0.418116
	H57	H	0.879402	0.580009	0.602415
	H58	H	0.109348	0.396301	0.606491
	H59	H	0.877109	0.390695	0.418166
	H60	H	0.106306	0.395300	0.596442
	H61	H	0.881958	0.578936	0.597833
	H62	H	0.108546	0.583805	0.422990
	H63	H	0.883963	0.399338	0.429224
	H64	H	0.401701	0.579713	0.127156
	H65	H	0.583100	0.574508	0.897739
	H66	H	0.590148	0.403192	0.126693
	H67	H	0.398151	0.399707	0.892941
	H68	H	0.582017	0.105056	0.420186
	H69	H	0.585470	0.874630	0.600941
	H70	H	0.406803	0.102512	0.600382
	H71	H	0.403554	0.873915	0.420927
	H72	H	0.900971	0.601335	0.093474
	H73	H	0.085067	0.373455	0.102334
	H74	H	0.082455	0.605287	0.912620
	H75	H	0.907915	0.374309	0.923155
	H76	H	0.079013	0.894327	0.627889
	H77	H	0.084275	0.084488	0.395222
	H78	H	0.905233	0.074117	0.624867
	H79	H	0.902109	0.909198	0.400323
	H80	H	0.608447	0.087603	0.924975
	H81	H	0.382163	0.081358	0.096284
	H82	H	0.607345	0.898805	0.102011
	H83	H	0.382336	0.897765	0.925896
	H84	H	0.608042	0.897615	0.102226
	H85	H	0.381413	0.076987	0.101717
	H86	H	0.604299	0.074474	0.923251
	H87	H	0.383644	0.903544	0.921882
	H88	H	0.904420	0.081283	0.627006
	H89	H	0.089294	0.072174	0.398028
	H90	H	0.090872	0.898851	0.631120
	H91	H	0.911151	0.897550	0.399043
	H92	H	0.074673	0.597010	0.929196
	H93	H	0.085039	0.374111	0.100262
	H94	H	0.902189	0.604634	0.105406
	H95	H	0.903820	0.373547	0.925672
	H96	H	0.401220	0.102878	0.595822
	H97	H	0.582375	0.875414	0.601633
	H98	H	0.582685	0.103622	0.424235
	H99	H	0.406020	0.875702	0.422820
	H100	H	0.581965	0.398998	0.125531
	H101	H	0.584692	0.580271	0.895097
	H102	H	0.403975	0.571685	0.124768
	H103	H	0.405966	0.407779	0.898112
	H104	H	0.106027	0.576791	0.425941
	H105	H	0.881997	0.575670	0.601526
	H106	H	0.105511	0.403838	0.601439
	H107	H	0.881301	0.405658	0.415252
	H108	H	0.911425	0.599514	0.099644
	H109	H	0.086024	0.373346	0.100651
	H110	H	0.093238	0.603817	0.929247
	H111	H	0.903635	0.371321	0.921435
	H112	H	0.082744	0.906752	0.625086
	H113	H	0.076486	0.075233	0.401104
	H114	H	0.898337	0.077313	0.626582
	H115	H	0.897136	0.896776	0.394378
	H116	H	0.610192	0.081124	0.912265
	H117	H	0.379385	0.083278	0.102596
	H118	H	0.607879	0.898485	0.101423
	H119	H	0.380058	0.897944	0.918908
	C120	C	0.371606	-0.002077	0.633414
	C121	C	0.614683	0.981370	0.631987
	C122	C	0.615041	-0.001575	0.390004
	C123	C	0.372041	0.980526	0.390669
	C124	C	0.617079	0.367720	0.020294
	C125	C	0.616639	0.608530	1.002528
	C126	C	0.372950	0.609871	0.019427
	C127	C	0.374078	0.368991	1.001548
	C128	C	0.002840	0.611051	0.389811
	C129	C	0.985701	0.609954	0.633175
	C130	C	0.002678	0.366303	0.633642
	C131	C	0.985718	0.366887	0.390513
	C132	C	0.873609	0.496096	0.132449
	C133	C	0.116693	0.479389	0.132632
	C134	C	0.115699	0.496364	0.890810
	C135	C	0.873275	0.478769	0.890332
	C136	C	0.115043	0.868149	0.521934
	C137	C	0.114815	0.109295	0.504468
	C138	C	0.871866	0.109948	0.519735
	C139	C	0.871771	0.868278	0.503528
	C140	C	0.502291	0.112133	0.888988
	C141	C	0.486005	0.111521	0.132112
	C142	C	0.502812	0.866939	0.132794
	C143	C	0.486802	0.868007	0.889986
	C144	C	0.370840	0.877407	0.693708
	C145	C	0.614597	0.102419	0.690187
	C146	C	0.615283	0.877217	0.331450
	C147	C	0.370702	0.101866	0.331863
	C148	C	0.675314	0.365549	0.899453
	C149	C	0.676306	0.610972	0.123018
	C150	C	0.311888	0.614690	0.899894
	C151	C	0.314459	0.365368	0.121964
	C152	C	0.883650	0.670809	0.387396
	C153	C	0.104721	0.669961	0.635861
	C154	C	0.883179	0.307327	0.635294
	C155	C	0.105279	0.307499	0.390541
	C156	C	0.883855	0.364272	0.693912
	C157	C	0.104597	0.611707	0.693504
	C158	C	0.883660	0.612182	0.329446
	C159	C	0.105838	0.365818	0.332944
	C160	C	0.371787	0.670024	0.898790
	C161	C	0.616807	0.667119	0.123578
	C162	C	0.615510	0.311096	0.898297
	C163	C	0.374332	0.310519	0.123138
	C164	C	0.675420	0.878444	0.386940
	C165	C	0.673731	0.101784	0.634364
	C166	C	0.312329	0.877373	0.637269
	C167	C	0.312172	0.100786	0.389118
	C168	C	0.874027	0.374865	0.191458
	C169	C	0.116936	0.600224	0.191718
	C170	C	0.117016	0.375560	0.831694
	C171	C	0.872657	0.600185	0.831567
	C172	C	0.174069	0.865804	0.401323
	C173	C	0.174405	0.111765	0.624846
	C174	C	0.813033	0.112859	0.398787
	C175	C	0.812233	0.865774	0.623712
	C176	C	0.382375	0.170676	0.888681
	C177	C	0.606123	0.169180	0.133203
	C178	C	0.383209	0.807468	0.133853
	C179	C	0.606480	0.808963	0.888617
	C180	C	0.382811	0.866809	0.190752
	C181	C	0.605575	0.111830	0.191680
	C182	C	0.382295	0.112734	0.830525
	C183	C	0.606572	0.867992	0.831384
	C184	C	0.872698	0.168173	0.398234
	C185	C	0.115512	0.168153	0.625293
	C186	C	0.114607	0.810786	0.400145
	C187	C	0.871223	0.809065	0.624676
	C188	C	0.176621	0.376780	0.887168
	C189	C	0.175286	0.599885	0.134705
	C190	C	0.815272	0.375224	0.135252
	C191	C	0.813937	0.599470	0.888024
	C192	C	0.396109	0.081622	0.607169
	C193	C	0.590595	0.896953	0.607474
	C194	C	0.590588	0.082638	0.414825
	C195	C	0.396776	0.896498	0.415414
	C196	C	0.594045	0.391656	0.105142
	C197	C	0.592721	0.583901	0.918061
	C198	C	0.397806	0.584066	0.103432
	C199	C	0.397787	0.394132	0.917524
	C200	C	0.085899	0.586485	0.415029
	C201	C	0.902596	0.585289	0.607879
	C202	C	0.085507	0.391290	0.608641
	C203	C	0.902515	0.391510	0.414394
	C204	C	0.897790	0.579997	0.106991
	C205	C	0.092362	0.395321	0.108267
	C206	C	0.090589	0.580093	0.916256
	C207	C	0.897849	0.394998	0.915850
	C208	C	0.091099	0.892587	0.606200
	C209	C	0.090353	0.084640	0.420090
	C210	C	0.895767	0.084919	0.604164
	C211	C	0.896269	0.893881	0.419739
	C212	C	0.585884	0.088072	0.913227
	C213	C	0.402754	0.087237	0.107342
	C214	C	0.586010	0.891201	0.108725
	C215	C	0.403738	0.892667	0.914843
	Zn216	Zn	0.493938	-0.010421	0.760242
	Zn217	Zn	0.493333	-0.009822	0.261480
	Zn218	Zn	0.745345	0.487269	0.011625
	Zn219	Zn	0.244799	0.488874	0.011030
	Zn220	Zn	-0.006113	0.740161	0.512607
	Zn221	Zn	-0.006357	0.237657	0.512231
	Zn222	Zn	-0.005558	0.487853	0.762395
	Zn223	Zn	-0.005357	0.487644	0.260822
	Zn224	Zn	0.495109	0.737550	0.010825
	Zn225	Zn	0.495062	0.241043	0.010508
	Zn226	Zn	0.743155	-0.010109	0.511558
	Zn227	Zn	0.243347	-0.011659	0.512728
	N228	N	0.407057	0.953211	0.691350
	N229	N	0.578481	0.026530	0.688476
	N230	N	0.578624	0.953006	0.333012
	N231	N	0.407011	0.026035	0.332594
	N232	N	0.676485	0.399764	0.976449
	N233	N	0.676145	0.575404	0.046656
	N234	N	0.312626	0.578002	0.976034
	N235	N	0.314096	0.400894	0.045415
	N236	N	0.958741	0.670350	0.423969
	N237	N	0.029792	0.668735	0.598701
	N238	N	0.958095	0.308341	0.598741
	N239	N	0.029573	0.307951	0.425511
	N240	N	0.959169	0.400185	0.693078
	N241	N	0.029616	0.575140	0.691949
	N242	N	0.958871	0.575743	0.330689
	N243	N	0.030654	0.401975	0.332766
	N244	N	0.409070	0.667213	0.974343
	N245	N	0.580537	0.665767	0.047622
	N246	N	0.580192	0.312090	0.974509
	N247	N	0.410729	0.312714	0.047332
	N248	N	0.675279	0.954848	0.422481
	N249	N	0.674045	0.025279	0.598949
	N250	N	0.312595	0.953442	0.600502
	N251	N	0.312670	0.024300	0.424811
	N252	N	0.909618	0.451029	0.189883
	N253	N	0.081366	0.524191	0.190771
	N254	N	0.079879	0.451056	0.833664
	N255	N	0.908579	0.524048	0.832814
	N256	N	0.174725	0.900402	0.478201
	N257	N	0.173860	0.075659	0.548680
	N258	N	0.812321	0.077639	0.475548
	N259	N	0.812265	0.901521	0.547246
	N260	N	0.458172	0.170722	0.923867
	N261	N	0.530688	0.169332	0.097054
	N262	N	0.459000	0.807251	0.098835
	N263	N	0.531024	0.808625	0.924106
	N264	N	0.458114	0.902791	0.190554
	N265	N	0.529849	0.076789	0.191217
	N266	N	0.457876	0.077166	0.830539
	N267	N	0.530918	0.903642	0.831921
	N268	N	0.908559	0.166553	0.474496
	N269	N	0.078961	0.166347	0.549400
	N270	N	0.078763	0.812066	0.476088
	N271	N	0.907385	0.810381	0.548892
	N272	N	0.176056	0.453059	0.922924
	N273	N	0.175303	0.523645	0.098962
	N274	N	0.814932	0.451582	0.099309
	N275	N	0.814110	0.522902	0.923858
	O276	O	0.689264	0.331405	0.532051
	H277	H	0.681595	0.332271	0.498490
	H278	H	0.697606	0.317051	0.522950
	O279	O	0.283739	0.512696	0.303772
	H280	H	0.259251	0.528188	0.277876
	H281	H	0.290906	0.541068	0.315999
	O282	O	0.802328	0.794846	0.157123
	H283	H	0.805058	0.778119	0.156915
	H284	H	0.798837	0.797475	0.134562
	O285	O	1.085455	1.012869	-0.075756
	H286	H	1.077094	1.016579	-0.073104
	H287	H	1.091453	1.021426	-0.068665
	O288	O	0.613846	0.546026	0.510633
	H289	H	0.621474	0.547254	0.522216
	H290	H	0.617078	0.558621	0.520443
	O291	O	0.465371	0.445720	0.715256
	H292	H	0.455425	0.425207	0.725121
	H293	H	0.454646	0.456841	0.716887
	O294	O	0.883453	1.005495	1.028048
	H295	H	0.867277	0.999914	1.020587
	H296	H	0.889561	1.005696	1.016214
	O297	O	0.562919	0.299705	0.349787
	H298	H	0.536473	0.300307	0.341001
	H299	H	0.550794	0.310393	0.346074
	O300	O	0.442348	0.561496	0.639449
	H301	H	0.452505	0.559183	0.636200
	H302	H	0.453140	0.556547	0.655931
	O303	O	0.632352	0.431201	0.707093
	H304	H	0.642824	0.426028	0.700321
	H305	H	0.631749	0.420683	0.710370
	O306	O	0.391834	0.684096	0.311163
	H307	H	0.391564	0.686181	0.294757
	H308	H	0.397921	0.687883	0.310275
	O309	O	0.906539	0.105283	0.043759
	H310	H	0.890001	0.109224	0.053338
	H311	H	0.917450	0.096278	0.051158
	O312	O	0.338385	0.332813	0.337776
	H313	H	0.338872	0.354152	0.350000
	H314	H	0.333568	0.351300	0.360863
	O315	O	0.370618	0.339564	0.553724
	H316	H	0.362959	0.322861	0.568350
	H317	H	0.367585	0.361161	0.548161
	O318	O	0.078384	0.132861	0.191577
	H319	H	0.067285	0.129691	0.189163
	H320	H	0.084005	0.141757	0.201239
	O321	O	0.376775	0.486794	0.500912
	H322	H	0.376191	0.499292	0.506969
	H323	H	0.379266	0.503577	0.497812
	O324	O	0.810968	0.125359	0.948518
	H325	H	0.823582	0.120404	0.941645
	H326	H	0.801440	0.129313	0.936750
	O327	O	0.650110	0.332719	0.380969
	H328	H	0.621568	0.336377	0.367594
	H329	H	0.657120	0.318671	0.374526
	O330	O	-0.131791	0.855659	1.015667
	H331	H	-0.148435	0.844469	1.007105
	H332	H	-0.126881	0.859975	0.995349
	O333	O	-0.462188	0.699141	-0.291517
	H334	H	-0.437989	0.682665	-0.296924
	H335	H	-0.458758	0.720262	-0.271182
	O336	O	1.149133	0.789985	-0.113055
	H337	H	1.152262	0.795195	-0.110982
	H338	H	1.177045	0.778913	-0.112137
	O339	O	0.107104	0.875779	0.863596
	H340	H	0.112127	0.865998	0.861333
	H341	H	0.126822	0.900027	0.869461
	O342	O	0.475931	0.312519	0.634138
	H343	H	0.499826	0.314464	0.642063
	H344	H	0.483182	0.306829	0.650849
	O345	O	-0.094875	0.038468	0.835981
	H346	H	-0.095913	0.045792	0.824095
	H347	H	-0.104941	0.034360	0.840457
	O348	O	0.466168	0.475851	0.590948
	H349	H	0.452722	0.470378	0.584649
	H350	H	0.454491	0.478545	0.605715
	O351	O	1.079954	0.965128	0.194753
	H352	H	1.071093	0.978076	0.187367
	H353	H	1.094617	0.969146	0.200961
	O354	O	1.069597	0.878770	0.895660
	H355	H	1.078563	0.900982	0.891781
	H356	H	1.074912	0.875711	0.901221
	O357	O	-0.026771	-0.207439	0.205381
	H358	H	-0.029105	-0.214111	0.202796
	H359	H	-0.031798	-0.218164	0.204807
	O360	O	0.307417	0.301590	0.639317
	H361	H	0.305684	0.315411	0.649399
	H362	H	0.301630	0.315454	0.634603
	O363	O	0.832708	0.009204	-0.138609
	H364	H	0.836283	0.016410	-0.136694
	H365	H	0.836138	-0.009880	-0.135384
	O366	O	0.170372	-0.101472	1.113041
	H367	H	0.165843	-0.082900	1.111464
	H368	H	0.150842	-0.090380	1.113700
	O369	O	1.165641	0.054749	1.113270
	H370	H	1.153542	0.059184	1.127773
	H371	H	1.171581	0.072461	1.122569
	O372	O	0.705241	0.632956	0.472082
	H373	H	0.684310	0.628282	0.449847
	H374	H	0.728549	0.659967	0.479696
	O375	O	0.149817	0.170612	1.098162
	H376	H	0.142792	0.175490	1.100129
	H377	H	0.157952	0.178948	1.116641
	O378	O	0.285782	0.695367	0.466416
	H379	H	0.262194	0.728910	0.475504
	H380	H	0.315029	0.697705	0.467928
	O381	O	0.004573	1.156732	-0.069604
	H382	H	0.000018	1.160803	-0.071553
	H383	H	-0.007670	1.163808	-0.064262
	O384	O	0.546836	0.650558	0.518765
	H385	H	0.560340	0.645953	0.513709
	H386	H	0.546332	0.642570	0.538732
	O387	O	0.495233	0.560600	0.396781
	H388	H	0.494178	0.570398	0.393839
	H389	H	0.471360	0.555301	0.400986
	O390	O	1.070484	0.920599	-0.165912
	H391	H	1.091916	0.929555	-0.178676
	H392	H	1.066759	0.928189	-0.166529
	O393	O	1.187406	-0.031361	0.978385
	H394	H	1.191197	-0.016419	0.985869
	H395	H	1.200696	-0.032154	0.982537
	O396	O	0.500876	0.418943	0.473088
	H397	H	0.483225	0.410922	0.484284
	H398	H	0.493558	0.415397	0.481254
	O399	O	0.172906	1.032822	0.139805
	H400	H	0.142470	1.042387	0.151634
	H401	H	0.178787	1.049913	0.146195
	O402	O	1.629599	1.345647	-0.385978
	H403	H	1.639113	1.344161	-0.396810
	H404	H	1.628332	1.336402	-0.408982
	O405	O	0.689431	0.439143	0.325678
	H406	H	0.679417	0.434016	0.342763
	H407	H	0.694164	0.446769	0.310628
	O408	O	0.552435	0.514245	0.423463
	H409	H	0.547946	0.503034	0.427849
	H410	H	0.554146	0.518918	0.423459
	O411	O	0.877703	0.952928	0.863855
	H412	H	0.894702	0.954926	0.854163
	H413	H	0.880981	0.949026	0.865538
	O414	O	0.287734	0.473113	0.682109
	H415	H	0.300562	0.494245	0.676256
	H416	H	0.269832	0.469233	0.691264
	O417	O	-0.179539	0.945910	1.212485
	H418	H	-0.175387	0.930100	1.213455
	H419	H	-0.191442	0.933356	1.224059
	O420	O	-0.120156	0.992054	1.107680
	H421	H	-0.122743	0.983494	1.121995
	H422	H	-0.115229	0.988442	1.114420
	O423	O	-0.047187	0.996195	-0.014729
	H424	H	-0.051778	0.990279	-0.026571
	H425	H	-0.044786	0.995711	-0.029598
	O426	O	0.321671	0.534462	0.594927
	H427	H	0.329796	0.546650	0.586637
	H428	H	0.339169	0.540230	0.583750
	O429	O	0.630949	0.637764	0.338006
	H430	H	0.628396	0.612245	0.350406
	H431	H	0.638435	0.636607	0.334362
	O432	O	0.384074	0.685232	0.338761
	H433	H	0.380856	0.697093	0.349767
	H434	H	0.401315	0.694068	0.337132
	O435	O	-0.006365	0.140671	-0.143239
	H436	H	0.002615	0.163861	-0.152813
	H437	H	-0.000984	0.135642	-0.120228
	O438	O	-0.049946	1.027317	1.108560
	H439	H	-0.057594	1.023066	1.118018
	H440	H	-0.064080	1.019302	1.109378
	O441	O	0.670396	0.614005	0.669267
	H442	H	0.665801	0.612630	0.648447
	H443	H	0.686759	0.580402	0.665346
