data_Molecule from HDF5

_cell_length_a		16.311239
_cell_length_b		16.329892
_cell_length_c		16.214376
_cell_angle_alpha	89.636666
_cell_angle_beta	90.130295
_cell_angle_gamma	89.996356
_symmetry_space_group_name_H-M	'P 1'
_symmetry_Int_Tables_number		1

loop_
	_symmetry_equiv_pos_as_xyz
	x,y,z

loop_
	_atom_site_label
	_atom_site_type_symbol
	_atom_site_fract_x
	_atom_site_fract_y
	_atom_site_fract_z
	H0	H	0.389163	0.825280	0.734935
	H1	H	0.591214	0.149104	0.726344
	H2	H	0.591871	0.823738	0.296296
	H3	H	0.389451	0.148219	0.297023
	H4	H	0.707718	0.390372	0.851516
	H5	H	0.714072	0.590964	0.176063
	H6	H	0.275190	0.591134	0.851807
	H7	H	0.274312	0.382258	0.175797
	H8	H	0.832389	0.702868	0.409730
	H9	H	0.152119	0.705457	0.621879
	H10	H	0.830533	0.267824	0.617081
	H11	H	0.152702	0.263137	0.413813
	H12	H	0.830247	0.386383	0.729709
	H13	H	0.156746	0.581692	0.728477
	H14	H	0.832362	0.585685	0.296047
	H15	H	0.153569	0.378368	0.297544
	H16	H	0.392181	0.704799	0.851563
	H17	H	0.596433	0.704601	0.176650
	H18	H	0.594099	0.272821	0.852109
	H19	H	0.389859	0.267067	0.176133
	H20	H	0.709857	0.823643	0.409855
	H21	H	0.708607	0.146490	0.611740
	H22	H	0.272058	0.824416	0.619200
	H23	H	0.270950	0.146235	0.409649
	H24	H	0.889713	0.322801	0.233594
	H25	H	0.098076	0.644828	0.236417
	H26	H	0.092961	0.321462	0.802208
	H27	H	0.893225	0.646734	0.794703
	H28	H	0.210766	0.879177	0.352898
	H29	H	0.210236	0.087039	0.674442
	H30	H	0.776341	0.084604	0.349676
	H31	H	0.773340	0.880987	0.676653
	H32	H	0.332007	0.208889	0.907931
	H33	H	0.654503	0.203318	0.115801
	H34	H	0.332942	0.764374	0.121395
	H35	H	0.652866	0.770682	0.912308
	H36	H	0.329640	0.885766	0.230691
	H37	H	0.653829	0.087830	0.231932
	H38	H	0.331175	0.092442	0.793177
	H39	H	0.653603	0.887687	0.798756
	H40	H	0.885063	0.206291	0.354350
	H41	H	0.090682	0.194844	0.677471
	H42	H	0.094086	0.765397	0.352919
	H43	H	0.889166	0.764664	0.677932
	H44	H	0.212728	0.324998	0.913468
	H45	H	0.213016	0.646881	0.119616
	H46	H	0.771386	0.325600	0.119203
	H47	H	0.777604	0.648585	0.910970
	H48	H	0.402180	0.096886	0.593548
	H49	H	0.582916	0.869733	0.605023
	H50	H	0.580792	0.098658	0.423214
	H51	H	0.401235	0.871541	0.425081
	H52	H	0.582009	0.396755	0.131240
	H53	H	0.581318	0.588842	0.896785
	H54	H	0.403073	0.583004	0.133091
	H55	H	0.395851	0.402243	0.897205
	H56	H	0.108833	0.568091	0.417890
	H57	H	0.876054	0.577235	0.606812
	H58	H	0.103825	0.398169	0.601838
	H59	H	0.879911	0.394368	0.431088
	H60	H	0.114177	0.388021	0.623577
	H61	H	0.879469	0.573124	0.599875
	H62	H	0.110838	0.584743	0.428335
	H63	H	0.879238	0.398725	0.423275
	H64	H	0.397942	0.569788	0.129612
	H65	H	0.594550	0.579030	0.894870
	H66	H	0.583380	0.394470	0.131514
	H67	H	0.408759	0.401909	0.902434
	H68	H	0.585525	0.100829	0.423627
	H69	H	0.582387	0.868400	0.608322
	H70	H	0.391292	0.103234	0.603564
	H71	H	0.399818	0.870382	0.423203
	H72	H	0.904360	0.600190	0.109884
	H73	H	0.085825	0.372915	0.099057
	H74	H	0.087580	0.601437	0.925942
	H75	H	0.905848	0.372677	0.928982
	H76	H	0.086234	0.893412	0.631588
	H77	H	0.081232	0.081690	0.394933
	H78	H	0.891621	0.071451	0.632165
	H79	H	0.904066	0.898204	0.401533
	H80	H	0.603297	0.072350	0.929766
	H81	H	0.375049	0.085329	0.100526
	H82	H	0.609202	0.893678	0.109144
	H83	H	0.377546	0.897602	0.928462
	H84	H	0.606732	0.894067	0.100951
	H85	H	0.380500	0.074019	0.099539
	H86	H	0.609697	0.076856	0.911439
	H87	H	0.376567	0.900047	0.923947
	H88	H	0.903265	0.070406	0.627929
	H89	H	0.084185	0.069343	0.397766
	H90	H	0.079097	0.899065	0.628049
	H91	H	0.903624	0.887014	0.398739
	H92	H	0.085187	0.602982	0.916989
	H93	H	0.088896	0.368166	0.109174
	H94	H	0.908188	0.598293	0.102513
	H95	H	0.891800	0.367891	0.926242
	H96	H	0.406473	0.100535	0.609125
	H97	H	0.580171	0.870098	0.606736
	H98	H	0.582694	0.101474	0.419547
	H99	H	0.402691	0.871285	0.422316
	H100	H	0.585130	0.396723	0.130696
	H101	H	0.580159	0.573157	0.901114
	H102	H	0.411277	0.573104	0.126790
	H103	H	0.403262	0.390947	0.896224
	H104	H	0.103019	0.568670	0.436693
	H105	H	0.877993	0.568920	0.607905
	H106	H	0.111737	0.374040	0.602247
	H107	H	0.875972	0.390151	0.424349
	H108	H	0.900194	0.599755	0.102069
	H109	H	0.078444	0.372064	0.107330
	H110	H	0.078962	0.599049	0.922501
	H111	H	0.901430	0.368514	0.915067
	H112	H	0.077895	0.890147	0.629912
	H113	H	0.072403	0.073794	0.399985
	H114	H	0.898710	0.081373	0.632495
	H115	H	0.894687	0.893426	0.397396
	H116	H	0.609661	0.090819	0.925168
	H117	H	0.374890	0.077240	0.111182
	H118	H	0.605936	0.900164	0.105632
	H119	H	0.375844	0.894938	0.924643
	C120	C	0.369003	-0.005897	0.635129
	C121	C	0.612102	0.976742	0.634881
	C122	C	0.612982	-0.006448	0.391703
	C123	C	0.369496	0.977339	0.392126
	C124	C	0.613374	0.366909	0.023595
	C125	C	0.616050	0.609937	1.005359
	C126	C	0.372226	0.607965	0.022970
	C127	C	0.371661	0.365619	1.005492
	C128	C	0.001622	0.604748	0.394733
	C129	C	0.984413	0.604210	0.635957
	C130	C	0.001997	0.359498	0.638390
	C131	C	0.984119	0.361901	0.395083
	C132	C	0.872347	0.493251	0.136016
	C133	C	0.115588	0.477000	0.136952
	C134	C	0.114457	0.493785	0.893244
	C135	C	0.871182	0.476934	0.892295
	C136	C	0.112464	0.862522	0.523172
	C137	C	0.110173	0.104167	0.505003
	C138	C	0.868338	0.105309	0.523091
	C139	C	0.869820	0.861668	0.506278
	C140	C	0.501068	0.110854	0.890786
	C141	C	0.483672	0.108491	0.135089
	C142	C	0.500914	0.864848	0.136395
	C143	C	0.483458	0.867398	0.894544
	C144	C	0.369457	0.873276	0.695188
	C145	C	0.611336	0.099714	0.689268
	C146	C	0.612253	0.872062	0.334295
	C147	C	0.369645	0.099257	0.334746
	C148	C	0.669778	0.369378	0.900446
	C149	C	0.674501	0.609886	0.127518
	C150	C	0.314230	0.609665	0.900681
	C151	C	0.313343	0.363782	0.127375
	C152	C	0.880586	0.663517	0.391949
	C153	C	0.104897	0.663977	0.638332
	C154	C	0.879077	0.305388	0.636669
	C155	C	0.104742	0.302579	0.394573
	C156	C	0.879210	0.363985	0.692980
	C157	C	0.107218	0.602652	0.691704
	C158	C	0.880712	0.605228	0.335181
	C159	C	0.105336	0.359918	0.336821
	C160	C	0.372420	0.666262	0.900563
	C161	C	0.615562	0.666173	0.127939
	C162	C	0.613347	0.311113	0.900852
	C163	C	0.370917	0.306310	0.127338
	C164	C	0.670606	0.871844	0.391118
	C165	C	0.669496	0.098479	0.632123
	C166	C	0.311215	0.872787	0.637530
	C167	C	0.310331	0.098245	0.390857
	C168	C	0.870881	0.371577	0.194659
	C169	C	0.117016	0.596964	0.196749
	C170	C	0.113252	0.370973	0.838860
	C171	C	0.872942	0.598391	0.833593
	C172	C	0.171430	0.860937	0.401479
	C173	C	0.169453	0.104313	0.626658
	C174	C	0.812993	0.104921	0.399807
	C175	C	0.812033	0.861164	0.628383
	C176	C	0.380270	0.169632	0.889302
	C177	C	0.605894	0.164904	0.135211
	C178	C	0.380340	0.804884	0.138827
	C179	C	0.604612	0.809549	0.893500
	C180	C	0.378675	0.865280	0.193212
	C181	C	0.605562	0.107484	0.192975
	C182	C	0.379590	0.111470	0.832204
	C183	C	0.604997	0.867792	0.836868
	C184	C	0.867254	0.165486	0.402035
	C185	C	0.110091	0.158308	0.628248
	C186	C	0.113266	0.804168	0.401331
	C187	C	0.869795	0.803477	0.628839
	C188	C	0.172826	0.372673	0.894443
	C189	C	0.174045	0.598006	0.138324
	C190	C	0.811892	0.372949	0.137803
	C191	C	0.815513	0.599396	0.891799
	C192	C	0.392895	0.078413	0.609544
	C193	C	0.588689	0.891580	0.613139
	C194	C	0.589760	0.078124	0.415285
	C195	C	0.393965	0.892970	0.416418
	C196	C	0.590266	0.389397	0.108917
	C197	C	0.592394	0.586991	0.919820
	C198	C	0.396770	0.582656	0.107786
	C199	C	0.395712	0.391114	0.920735
	C200	C	0.085783	0.580764	0.420168
	C201	C	0.899675	0.580237	0.611823
	C202	C	0.087618	0.380494	0.615933
	C203	C	0.900293	0.387103	0.419254
	C204	C	0.897253	0.577427	0.111864
	C205	C	0.091260	0.392888	0.112302
	C206	C	0.090972	0.578829	0.915469
	C207	C	0.893345	0.391828	0.916695
	C208	C	0.088019	0.886946	0.607811
	C209	C	0.086116	0.081430	0.419709
	C210	C	0.891249	0.081158	0.608891
	C211	C	0.893866	0.885690	0.421294
	C212	C	0.585683	0.086874	0.915061
	C213	C	0.398984	0.085682	0.110848
	C214	C	0.585357	0.889034	0.112242
	C215	C	0.398881	0.890670	0.918773
	Zn216	Zn	0.491255	-0.012949	0.764093
	Zn217	Zn	0.491414	-0.013731	0.263625
	Zn218	Zn	0.742711	0.487002	0.014888
	Zn219	Zn	0.243769	0.487269	0.014316
	Zn220	Zn	-0.007519	0.733589	0.515687
	Zn221	Zn	-0.008645	0.232204	0.515672
	Zn222	Zn	-0.006467	0.483709	0.764193
	Zn223	Zn	-0.005995	0.483641	0.265907
	Zn224	Zn	0.492279	0.737159	0.014682
	Zn225	Zn	0.493404	0.237649	0.014243
	Zn226	Zn	0.741149	-0.016784	0.513465
	Zn227	Zn	0.239540	-0.015127	0.513296
	N228	N	0.404587	0.949828	0.693839
	N229	N	0.576484	0.022953	0.691123
	N230	N	0.577260	0.948560	0.334489
	N231	N	0.405834	0.023184	0.335552
	N232	N	0.670167	0.403334	0.977721
	N233	N	0.674856	0.575861	0.050279
	N234	N	0.314039	0.574263	0.977982
	N235	N	0.313787	0.400091	0.050626
	N236	N	0.956878	0.663341	0.428252
	N237	N	0.027733	0.664841	0.604299
	N238	N	0.956585	0.302313	0.603542
	N239	N	0.028353	0.303634	0.430021
	N240	N	0.956626	0.396723	0.694267
	N241	N	0.031190	0.565934	0.690187
	N242	N	0.956894	0.569371	0.336820
	N243	N	0.029404	0.396196	0.336841
	N244	N	0.407587	0.665398	0.977635
	N245	N	0.580062	0.666557	0.050821
	N246	N	0.579321	0.309344	0.978420
	N247	N	0.406071	0.307021	0.050401
	N248	N	0.671398	0.948473	0.425871
	N249	N	0.670530	0.020910	0.599519
	N250	N	0.310984	0.948928	0.600835
	N251	N	0.309999	0.021316	0.425761
	N252	N	0.907635	0.447487	0.193743
	N253	N	0.081710	0.520651	0.196337
	N254	N	0.077694	0.447401	0.837972
	N255	N	0.906875	0.521246	0.833674
	N256	N	0.171129	0.896436	0.478219
	N257	N	0.169566	0.071170	0.549064
	N258	N	0.813764	0.067997	0.476196
	N259	N	0.811889	0.896565	0.551294
	N260	N	0.456825	0.169312	0.925050
	N261	N	0.529079	0.165719	0.100004
	N262	N	0.457316	0.804187	0.104447
	N263	N	0.528077	0.809235	0.928772
	N264	N	0.454615	0.901611	0.191979
	N265	N	0.528660	0.073208	0.193155
	N266	N	0.455838	0.075527	0.832884
	N267	N	0.528567	0.903384	0.837587
	N268	N	0.901062	0.165745	0.479794
	N269	N	0.073865	0.158280	0.551622
	N270	N	0.077410	0.804971	0.478018
	N271	N	0.905082	0.803679	0.551851
	N272	N	0.174074	0.450192	0.927141
	N273	N	0.173667	0.522197	0.101947
	N274	N	0.812405	0.449556	0.102270
	N275	N	0.814208	0.522852	0.927557
	O276	O	0.637760	0.302595	0.445584
	H277	H	0.643537	0.314267	0.441851
	H278	H	0.644084	0.303527	0.448809
	O279	O	0.106647	0.020930	-0.162802
	H280	H	0.095090	0.006571	-0.161541
	H281	H	0.124200	0.005877	-0.169143
	O282	O	1.003532	0.099999	1.156369
	H283	H	0.999646	0.127234	1.156207
	H284	H	1.011652	0.095073	1.139407
	O285	O	0.376459	0.450655	0.601068
	H286	H	0.365483	0.454146	0.610715
	H287	H	0.376022	0.454783	0.593745
	O288	O	1.016456	1.056097	0.898221
	H289	H	1.008115	1.053181	0.890895
	H290	H	1.016865	1.058222	0.889575
	O291	O	-0.125127	1.117043	-0.128830
	H292	H	-0.130542	1.119230	-0.134791
	H293	H	-0.126444	1.108548	-0.100322
	O294	O	1.088973	0.987960	1.137039
	H295	H	1.100670	0.995989	1.136366
	H296	H	1.095449	0.975187	1.138177
	O297	O	0.169617	0.802787	-0.169620
	H298	H	0.150300	0.822257	-0.170948
	H299	H	0.143533	0.801237	-0.169872
	O300	O	0.463046	0.531432	0.321372
	H301	H	0.470174	0.531377	0.319385
	H302	H	0.464735	0.516900	0.324479
	O303	O	0.578090	0.513428	0.590230
	H304	H	0.580938	0.501296	0.589890
	H305	H	0.574709	0.523365	0.586892
	O306	O	0.578469	0.472975	0.493100
	H307	H	0.569517	0.489457	0.483349
	H308	H	0.575903	0.472556	0.478603
	O309	O	0.417357	0.431401	0.485124
	H310	H	0.411247	0.420711	0.484467
	H311	H	0.407725	0.426829	0.490027
	O312	O	0.069115	0.043822	-0.160475
	H313	H	0.080340	0.058668	-0.148915
	H314	H	0.071653	0.046589	-0.166773
	O315	O	0.973829	0.917185	0.087631
	H316	H	0.965153	0.911024	0.092354
	H317	H	0.970014	0.904383	0.090999
	O318	O	-0.678078	1.564794	0.380672
	H319	H	-0.664643	1.571477	0.374781
	H320	H	-0.675080	1.552913	0.384676
	O321	O	0.854198	0.891802	0.114259
	H322	H	0.860079	0.892045	0.112761
	H323	H	0.852322	0.890385	0.128819
	O324	O	0.051623	1.175631	0.111221
	H325	H	0.040162	1.178945	0.100390
	H326	H	0.079826	1.185957	0.106714
	O327	O	0.485028	0.643804	0.469591
	H328	H	0.480695	0.634046	0.462122
	H329	H	0.479331	0.667245	0.472451
	O330	O	0.569059	-0.512756	1.591679
	H331	H	0.569874	-0.520099	1.595540
	H332	H	0.567275	-0.506302	1.579021
	O333	O	0.167101	-0.215015	1.000190
	H334	H	0.178665	-0.227206	0.981445
	H335	H	0.170923	-0.227512	0.986072
	O336	O	0.663484	0.371924	0.571882
	H337	H	0.656763	0.385248	0.558409
	H338	H	0.667315	0.366808	0.565530
	O339	O	0.537034	-0.347136	0.569585
	H340	H	0.540686	-0.331765	0.570256
	H341	H	0.544654	-0.347978	0.569221
	O342	O	0.031217	-0.063153	0.092506
	H343	H	0.048004	-0.064290	0.092601
	H344	H	0.014187	-0.061799	0.085248
	O345	O	1.156344	0.010249	1.082497
	H346	H	1.152936	-0.003689	1.092846
	H347	H	1.155475	0.030741	1.097919
	O348	O	0.947457	1.133364	0.037161
	H349	H	0.956690	1.141227	0.048808
	H350	H	0.945927	1.125670	0.049359
	O351	O	0.416291	0.499794	0.638717
	H352	H	0.414577	0.515766	0.647740
	H353	H	0.408762	0.512551	0.643631
	O354	O	0.798774	-0.193666	1.115131
	H355	H	0.794901	-0.212887	1.122086
	H356	H	0.801014	-0.185856	1.121398
	O357	O	0.448449	0.360009	0.639674
	H358	H	0.431301	0.356859	0.652676
	H359	H	0.447986	0.369702	0.643124
	O360	O	0.416267	0.573332	0.489210
	H361	H	0.412726	0.575934	0.475356
	H362	H	0.423960	0.562684	0.485145
	O363	O	-0.154594	0.952216	0.997492
	H364	H	-0.143995	0.947626	0.997476
	H365	H	-0.160743	0.955163	1.003340
	O366	O	0.591404	0.541218	0.530676
	H367	H	0.595533	0.534194	0.527238
	H368	H	0.591631	0.527101	0.548307
	O369	O	-0.154737	0.970312	0.194577
	H370	H	-0.163824	0.977417	0.197772
	H371	H	-0.150694	0.964138	0.186956
	O372	O	1.548926	0.296251	0.366464
	H373	H	1.559906	0.293015	0.381509
	H374	H	1.558216	0.282869	0.356993
	O375	O	1.072429	-0.150274	0.108995
	H376	H	1.068422	-0.152842	0.122094
	H377	H	1.083539	-0.152126	0.094743
	O378	O	1.473120	1.658159	-0.461037
	H379	H	1.475673	1.659868	-0.460006
	H380	H	1.486626	1.658211	-0.465506
	O381	O	0.928067	0.035930	0.084413
	H382	H	0.917648	0.041950	0.092398
	H383	H	0.919834	0.042452	0.075796
	O384	O	0.989407	0.805095	-0.111487
	H385	H	0.988956	0.818422	-0.111511
	H386	H	0.971492	0.809206	-0.097336
	O387	O	0.168945	0.022182	0.140159
	H388	H	0.161546	0.024132	0.144953
	H389	H	0.176712	0.020455	0.129623
	O390	O	-0.193043	0.943704	-0.114818
	H391	H	-0.187628	0.964174	-0.119295
	H392	H	-0.210469	0.945487	-0.125334
	O393	O	0.966798	1.195148	0.857113
	H394	H	0.955955	1.208909	0.832177
	H395	H	0.958704	1.199151	0.867106
	O396	O	0.589013	0.577256	0.501941
	H397	H	0.602342	0.583772	0.505393
	H398	H	0.580798	0.576147	0.510656
	O399	O	-0.052998	0.971620	0.936253
	H400	H	-0.063035	0.981656	0.948021
	H401	H	-0.046119	0.982025	0.934711
	O402	O	0.445726	0.396596	0.656386
	H403	H	0.428346	0.387745	0.664805
	H404	H	0.453677	0.395718	0.645452
	O405	O	1.003404	1.038595	-0.064105
	H406	H	1.014992	1.031496	-0.057935
	H407	H	1.011843	1.041584	-0.068732
	O408	O	0.370459	1.541417	0.468838
	H409	H	0.355720	1.548786	0.466091
	H410	H	0.365805	1.544718	0.465261
	O411	O	0.591689	-0.523501	0.431568
	H412	H	0.578887	-0.508887	0.418199
	H413	H	0.597629	-0.503618	0.433703
	O414	O	0.421445	0.428503	0.534352
	H415	H	0.403112	0.422257	0.523266
	H416	H	0.413276	0.436428	0.544567
	O417	O	0.521465	0.420546	0.378926
	H418	H	0.508084	0.410585	0.366199
	H419	H	0.532207	0.406428	0.395248
