data_Molecule from HDF5

_cell_length_a		16.187307
_cell_length_b		16.212837
_cell_length_c		16.277166
_cell_angle_alpha	90.015819
_cell_angle_beta	90.032255
_cell_angle_gamma	90.094064
_symmetry_space_group_name_H-M	'P 1'
_symmetry_Int_Tables_number		1

loop_
	_symmetry_equiv_pos_as_xyz
	x,y,z

loop_
	_atom_site_label
	_atom_site_type_symbol
	_atom_site_fract_x
	_atom_site_fract_y
	_atom_site_fract_z
	H0	H	0.406418	0.842446	0.715448
	H1	H	0.604855	0.171008	0.717223
	H2	H	0.605066	0.842967	0.286033
	H3	H	0.406179	0.170806	0.287269
	H4	H	0.717954	0.409109	0.837483
	H5	H	0.719274	0.605873	0.164883
	H6	H	0.290956	0.604822	0.836753
	H7	H	0.290123	0.408991	0.164847
	H8	H	0.840282	0.722041	0.400684
	H9	H	0.169351	0.719197	0.597359
	H10	H	0.840399	0.291735	0.599182
	H11	H	0.169746	0.294429	0.403174
	H12	H	0.840042	0.407564	0.714739
	H13	H	0.168099	0.607143	0.715799
	H14	H	0.839585	0.604947	0.286763
	H15	H	0.168776	0.407361	0.285697
	H16	H	0.405562	0.721067	0.838100
	H17	H	0.601525	0.721079	0.165312
	H18	H	0.601918	0.292958	0.837454
	H19	H	0.405400	0.292967	0.164976
	H20	H	0.717994	0.841871	0.404562
	H21	H	0.719622	0.171506	0.600102
	H22	H	0.291921	0.842095	0.599102
	H23	H	0.293193	0.171350	0.404015
	H24	H	0.905341	0.342330	0.214292
	H25	H	0.102435	0.670570	0.216253
	H26	H	0.102071	0.342677	0.786614
	H27	H	0.904821	0.670871	0.786027
	H28	H	0.218565	0.909842	0.337206
	H29	H	0.219068	0.104228	0.665723
	H30	H	0.789981	0.105971	0.338020
	H31	H	0.791641	0.908664	0.665160
	H32	H	0.339543	0.219359	0.903898
	H33	H	0.668860	0.221474	0.098791
	H34	H	0.339845	0.793179	0.099531
	H35	H	0.668770	0.793278	0.904494
	H36	H	0.339998	0.908280	0.215660
	H37	H	0.669565	0.105772	0.214721
	H38	H	0.340332	0.105342	0.787714
	H39	H	0.669403	0.907800	0.788040
	H40	H	0.907103	0.220210	0.337046
	H41	H	0.104767	0.222831	0.664282
	H42	H	0.103717	0.791727	0.337765
	H43	H	0.905422	0.791474	0.664173
	H44	H	0.216715	0.342133	0.903618
	H45	H	0.216507	0.672100	0.097980
	H46	H	0.791265	0.341789	0.097010
	H47	H	0.790253	0.671498	0.902554
	H48	H	0.419938	0.123419	0.600255
	H49	H	0.593362	0.894011	0.587628
	H50	H	0.599970	0.124486	0.405455
	H51	H	0.418669	0.888585	0.401925
	H52	H	0.597520	0.413979	0.118486
	H53	H	0.603790	0.607339	0.881256
	H54	H	0.410866	0.602744	0.118729
	H55	H	0.412952	0.406759	0.883040
	H56	H	0.119219	0.590942	0.406922
	H57	H	0.885695	0.600403	0.594705
	H58	H	0.118711	0.422968	0.592358
	H59	H	0.886814	0.406918	0.413641
	H60	H	0.124243	0.413696	0.601966
	H61	H	0.887169	0.599667	0.593142
	H62	H	0.123955	0.603368	0.402747
	H63	H	0.889484	0.421290	0.408695
	H64	H	0.407901	0.599219	0.119138
	H65	H	0.599762	0.591249	0.886168
	H66	H	0.597503	0.415097	0.118090
	H67	H	0.403941	0.414733	0.882868
	H68	H	0.593579	0.123068	0.408471
	H69	H	0.607198	0.886650	0.595294
	H70	H	0.413579	0.122254	0.587585
	H71	H	0.413608	0.891754	0.416232
	H72	H	0.904180	0.626265	0.095337
	H73	H	0.086629	0.391247	0.098525
	H74	H	0.099235	0.627021	0.899888
	H75	H	0.912728	0.388590	0.903516
	H76	H	0.109599	0.922004	0.619069
	H77	H	0.106329	0.097675	0.383877
	H78	H	0.917452	0.104223	0.617390
	H79	H	0.912072	0.918410	0.386037
	H80	H	0.621396	0.098333	0.910255
	H81	H	0.388782	0.096969	0.090252
	H82	H	0.623612	0.913933	0.098575
	H83	H	0.385807	0.910578	0.909630
	H84	H	0.621916	0.912150	0.092126
	H85	H	0.386543	0.096131	0.101604
	H86	H	0.622570	0.100032	0.906573
	H87	H	0.388526	0.916774	0.910006
	H88	H	0.907126	0.101024	0.620243
	H89	H	0.093422	0.095975	0.386283
	H90	H	0.085735	0.918025	0.613212
	H91	H	0.915245	0.909609	0.383840
	H92	H	0.089543	0.622220	0.909065
	H93	H	0.099442	0.391706	0.083402
	H94	H	0.915732	0.624808	0.101303
	H95	H	0.912138	0.391428	0.910716
	H96	H	0.406917	0.126975	0.598710
	H97	H	0.592862	0.888504	0.604111
	H98	H	0.600242	0.123411	0.412891
	H99	H	0.403979	0.886475	0.405296
	H100	H	0.596292	0.414682	0.117956
	H101	H	0.588054	0.603566	0.885994
	H102	H	0.411657	0.598439	0.117666
	H103	H	0.414271	0.417833	0.886324
	H104	H	0.120162	0.602318	0.415739
	H105	H	0.886272	0.598185	0.595187
	H106	H	0.122045	0.409025	0.587926
	H107	H	0.884278	0.410765	0.399339
	H108	H	0.914670	0.622147	0.088155
	H109	H	0.105141	0.384715	0.100534
	H110	H	0.102885	0.624580	0.912888
	H111	H	0.906197	0.388153	0.906694
	H112	H	0.099461	0.900011	0.622120
	H113	H	0.098258	0.108201	0.382367
	H114	H	0.914130	0.094984	0.615542
	H115	H	0.906502	0.912144	0.382263
	H116	H	0.622514	0.102341	0.910123
	H117	H	0.384506	0.106425	0.096067
	H118	H	0.620450	0.918130	0.093905
	H119	H	0.386403	0.914658	0.904235
	C120	C	0.384310	0.015429	0.623327
	C121	C	0.626988	0.998474	0.624090
	C122	C	0.626308	0.014961	0.380501
	C123	C	0.384051	0.997981	0.379869
	C124	C	0.625365	0.385647	0.010153
	C125	C	0.625576	0.628585	0.992902
	C126	C	0.382075	0.628575	0.009974
	C127	C	0.382086	0.384890	0.992422
	C128	C	0.012626	0.627891	0.379587
	C129	C	0.995416	0.628128	0.622454
	C130	C	0.013125	0.385618	0.622436
	C131	C	0.996011	0.385227	0.379416
	C132	C	0.882899	0.515281	0.122498
	C133	C	0.125397	0.498320	0.122273
	C134	C	0.125378	0.515476	0.879135
	C135	C	0.882105	0.498322	0.878919
	C136	C	0.126557	0.885067	0.509572
	C137	C	0.127614	0.129301	0.492450
	C138	C	0.883831	0.128575	0.509793
	C139	C	0.883175	0.885095	0.492515
	C140	C	0.513179	0.128382	0.880170
	C141	C	0.495679	0.128788	0.123657
	C142	C	0.513076	0.886219	0.122937
	C143	C	0.495811	0.885556	0.879976
	C144	C	0.386316	0.891481	0.677728
	C145	C	0.625027	0.122048	0.679252
	C146	C	0.624636	0.891642	0.324793
	C147	C	0.386155	0.121701	0.325097
	C148	C	0.680069	0.388358	0.886263
	C149	C	0.680599	0.626162	0.116368
	C150	C	0.328027	0.625297	0.886114
	C151	C	0.327142	0.387729	0.115785
	C152	C	0.888926	0.683338	0.381202
	C153	C	0.119754	0.682359	0.618680
	C154	C	0.889183	0.330058	0.619288
	C155	C	0.120277	0.331282	0.382188
	C156	C	0.889037	0.387670	0.676795
	C157	C	0.119100	0.626765	0.677562
	C158	C	0.888749	0.625351	0.324462
	C159	C	0.119742	0.387437	0.323948
	C160	C	0.384840	0.683591	0.886879
	C161	C	0.622446	0.683456	0.116478
	C162	C	0.622560	0.330605	0.886481
	C163	C	0.384710	0.330256	0.115805
	C164	C	0.680633	0.891039	0.383674
	C165	C	0.682137	0.122257	0.621092
	C166	C	0.329664	0.891162	0.619695
	C167	C	0.329551	0.121865	0.383015
	C168	C	0.884620	0.391588	0.176825
	C169	C	0.122667	0.621975	0.177475
	C170	C	0.122730	0.391696	0.824182
	C171	C	0.884884	0.621855	0.824171
	C172	C	0.181545	0.888170	0.386238
	C173	C	0.182209	0.126071	0.616246
	C174	C	0.828249	0.126038	0.386604
	C175	C	0.828770	0.887986	0.616094
	C176	C	0.388857	0.182097	0.883214
	C177	C	0.620023	0.183483	0.119713
	C178	C	0.388954	0.831154	0.120001
	C179	C	0.619902	0.830951	0.883581
	C180	C	0.389126	0.888147	0.177843
	C181	C	0.620325	0.126173	0.177403
	C182	C	0.389215	0.125587	0.825340
	C183	C	0.620012	0.887417	0.825462
	C184	C	0.886647	0.182834	0.386039
	C185	C	0.124616	0.184044	0.615814
	C186	C	0.124185	0.829767	0.386417
	C187	C	0.885405	0.829965	0.615756
	C188	C	0.179327	0.391281	0.882380
	C189	C	0.179417	0.622648	0.118937
	C190	C	0.827890	0.391385	0.118725
	C191	C	0.827668	0.622136	0.881905
	C192	C	0.406736	0.101858	0.601857
	C193	C	0.604565	0.911963	0.602076
	C194	C	0.604242	0.101452	0.402413
	C195	C	0.405724	0.911252	0.401504
	C196	C	0.603587	0.407949	0.095976
	C197	C	0.603748	0.607065	0.906737
	C198	C	0.403656	0.606655	0.096417
	C199	C	0.403909	0.406761	0.906349
	C200	C	0.098908	0.605582	0.401889
	C201	C	0.908639	0.605855	0.600749
	C202	C	0.099396	0.408364	0.600527
	C203	C	0.909302	0.406710	0.400850
	C204	C	0.904938	0.602028	0.101101
	C205	C	0.103495	0.411749	0.100665
	C206	C	0.103640	0.602214	0.900870
	C207	C	0.903787	0.411613	0.900604
	C208	C	0.104747	0.906925	0.595775
	C209	C	0.105855	0.107226	0.406477
	C210	C	0.906273	0.106553	0.595544
	C211	C	0.904862	0.906818	0.406367
	C212	C	0.599822	0.106697	0.902415
	C213	C	0.408962	0.106557	0.102343
	C214	C	0.599609	0.908120	0.101119
	C215	C	0.409355	0.907556	0.901512
	Zn216	Zn	0.504983	0.006904	0.752211
	Zn217	Zn	0.505280	0.006785	0.251978
	Zn218	Zn	0.754373	0.507162	0.001118
	Zn219	Zn	0.253538	0.506775	0.000820
	Zn220	Zn	0.004198	0.756392	0.501023
	Zn221	Zn	0.005354	0.257397	0.500847
	Zn222	Zn	0.003842	0.507190	0.750854
	Zn223	Zn	0.004197	0.506498	0.251500
	Zn224	Zn	0.503942	0.757313	0.001698
	Zn225	Zn	0.503876	0.256408	0.001448
	Zn226	Zn	0.754906	0.006497	0.501643
	Zn227	Zn	0.256207	0.006568	0.501589
	N228	N	0.419739	0.969572	0.679885
	N229	N	0.591374	0.044073	0.681020
	N230	N	0.591535	0.969799	0.322822
	N231	N	0.419240	0.043687	0.323150
	N232	N	0.681971	0.421784	0.963833
	N233	N	0.682638	0.592964	0.038739
	N234	N	0.326236	0.591816	0.963817
	N235	N	0.325349	0.420938	0.038147
	N236	N	0.966731	0.684690	0.415088
	N237	N	0.041721	0.683273	0.585089
	N238	N	0.967385	0.328583	0.586306
	N239	N	0.042495	0.329850	0.416021
	N240	N	0.966950	0.421458	0.678785
	N241	N	0.040852	0.593921	0.680078
	N242	N	0.966635	0.591541	0.323277
	N243	N	0.041438	0.420226	0.322083
	N244	N	0.417944	0.685357	0.964782
	N245	N	0.588871	0.684899	0.038739
	N246	N	0.589164	0.328855	0.964296
	N247	N	0.418204	0.328348	0.038097
	N248	N	0.681865	0.968768	0.417444
	N249	N	0.683338	0.044393	0.587536
	N250	N	0.328232	0.969235	0.586427
	N251	N	0.328334	0.043940	0.416519
	N252	N	0.917908	0.469654	0.179384
	N253	N	0.089985	0.543666	0.179710
	N254	N	0.089986	0.470033	0.822022
	N255	N	0.918049	0.543852	0.822318
	N256	N	0.182967	0.921996	0.463711
	N257	N	0.184169	0.092511	0.538635
	N258	N	0.826305	0.093061	0.464374
	N259	N	0.827351	0.921628	0.538515
	N260	N	0.466847	0.183695	0.916723
	N261	N	0.541539	0.185527	0.087402
	N262	N	0.466845	0.829871	0.086596
	N263	N	0.541692	0.829401	0.916702
	N264	N	0.467237	0.921791	0.179702
	N265	N	0.542098	0.092781	0.179813
	N266	N	0.467571	0.092920	0.823323
	N267	N	0.541985	0.920651	0.823090
	N268	N	0.920537	0.184533	0.463695
	N269	N	0.092069	0.186493	0.537859
	N270	N	0.090879	0.827732	0.464166
	N271	N	0.918667	0.828207	0.538013
	N272	N	0.180940	0.469214	0.915849
	N273	N	0.181094	0.544676	0.085437
	N274	N	0.827060	0.469389	0.085574
	N275	N	0.826007	0.544310	0.915375
	O276	O	-0.540389	-0.514516	1.559555
	H277	H	-0.540997	-0.513100	1.558777
	H278	H	-0.547751	-0.512952	1.561448
	O279	O	0.536356	0.462163	0.508212
	H280	H	0.530809	0.459926	0.508024
	H281	H	0.530434	0.461258	0.508385
	O282	O	0.500316	0.474015	0.479096
	H283	H	0.497822	0.463821	0.474497
	H284	H	0.500020	0.475479	0.493243
	O285	O	0.548741	1.458672	-0.510560
	H286	H	0.551507	1.452336	-0.507889
	H287	H	0.553078	1.461820	-0.510086
	O288	O	0.434349	0.443508	0.541422
	H289	H	0.437806	0.458658	0.527634
	H290	H	0.437641	0.439700	0.539434
	O291	O	-0.524204	0.472574	1.495148
	H292	H	-0.531178	0.470729	1.499399
	H293	H	-0.523604	0.473104	1.505207
	O294	O	0.489399	0.504116	0.544519
	H295	H	0.495852	0.503410	0.536820
	H296	H	0.492298	0.499476	0.544241
	O297	O	1.532449	-0.527390	-0.516393
	H298	H	1.536118	-0.528047	-0.515195
	H299	H	1.533470	-0.524195	-0.514623
