data_Molecule from HDF5

_cell_length_a		16.158796
_cell_length_b		16.235411
_cell_length_c		16.208834
_cell_angle_alpha	90.166495
_cell_angle_beta	89.404338
_cell_angle_gamma	90.348386
_symmetry_space_group_name_H-M	'P 1'
_symmetry_Int_Tables_number		1

loop_
	_symmetry_equiv_pos_as_xyz
	x,y,z

loop_
	_atom_site_label
	_atom_site_type_symbol
	_atom_site_fract_x
	_atom_site_fract_y
	_atom_site_fract_z
	H0	H	0.400181	0.838448	0.708545
	H1	H	0.601078	0.166613	0.706599
	H2	H	0.603384	0.837794	0.275891
	H3	H	0.406384	0.166175	0.279884
	H4	H	0.715821	0.404458	0.828080
	H5	H	0.713176	0.600898	0.157611
	H6	H	0.289546	0.599423	0.828213
	H7	H	0.284715	0.403324	0.157279
	H8	H	0.838482	0.715864	0.394256
	H9	H	0.166763	0.718461	0.590731
	H10	H	0.837371	0.286312	0.592969
	H11	H	0.167228	0.288547	0.391358
	H12	H	0.837980	0.400911	0.709608
	H13	H	0.168223	0.600550	0.704024
	H14	H	0.836354	0.597871	0.282410
	H15	H	0.165947	0.402932	0.274387
	H16	H	0.404182	0.716359	0.828769
	H17	H	0.602338	0.719133	0.155729
	H18	H	0.600694	0.288011	0.828474
	H19	H	0.399875	0.287867	0.157669
	H20	H	0.717114	0.837407	0.391586
	H21	H	0.715717	0.166549	0.589416
	H22	H	0.283736	0.838837	0.593880
	H23	H	0.291758	0.167123	0.396285
	H24	H	0.899974	0.337251	0.207519
	H25	H	0.101044	0.665580	0.206598
	H26	H	0.101128	0.337638	0.776423
	H27	H	0.905649	0.665581	0.779232
	H28	H	0.218338	0.904422	0.328231
	H29	H	0.213812	0.101802	0.657348
	H30	H	0.791864	0.098203	0.327277
	H31	H	0.784854	0.902100	0.656314
	H32	H	0.336601	0.213779	0.897910
	H33	H	0.666558	0.218939	0.091875
	H34	H	0.337671	0.786535	0.093696
	H35	H	0.666675	0.789424	0.891122
	H36	H	0.338455	0.902593	0.209225
	H37	H	0.667721	0.100721	0.204560
	H38	H	0.336454	0.099483	0.781651
	H39	H	0.665616	0.904531	0.776104
	H40	H	0.905192	0.215164	0.328977
	H41	H	0.100005	0.217464	0.656844
	H42	H	0.104308	0.787121	0.327876
	H43	H	0.899782	0.785280	0.656258
	H44	H	0.215761	0.336885	0.891999
	H45	H	0.216082	0.665234	0.091377
	H46	H	0.784975	0.337852	0.090789
	H47	H	0.790846	0.666463	0.895877
	H48	H	0.397590	0.120828	0.577898
	H49	H	0.591633	0.887229	0.578971
	H50	H	0.601916	0.119668	0.399793
	H51	H	0.416860	0.887414	0.400817
	H52	H	0.598310	0.416875	0.110246
	H53	H	0.590673	0.590250	0.878442
	H54	H	0.414048	0.590240	0.106931
	H55	H	0.408818	0.414071	0.877271
	H56	H	0.119402	0.591322	0.397113
	H57	H	0.881796	0.599990	0.589908
	H58	H	0.120583	0.403286	0.579889
	H59	H	0.880000	0.400070	0.393690
	H60	H	0.117333	0.415459	0.580201
	H61	H	0.887565	0.592913	0.578458
	H62	H	0.121086	0.596500	0.397706
	H63	H	0.885926	0.402183	0.411012
	H64	H	0.409673	0.600703	0.111206
	H65	H	0.594431	0.603660	0.873110
	H66	H	0.583685	0.410823	0.107246
	H67	H	0.416214	0.404357	0.876142
	H68	H	0.598623	0.120296	0.393935
	H69	H	0.598305	0.882762	0.586248
	H70	H	0.407197	0.124561	0.602331
	H71	H	0.406806	0.886356	0.407595
	H72	H	0.906408	0.620773	0.090804
	H73	H	0.094195	0.384373	0.083163
	H74	H	0.092774	0.615064	0.909114
	H75	H	0.912688	0.386730	0.902704
	H76	H	0.100447	0.917745	0.610152
	H77	H	0.091534	0.093916	0.376758
	H78	H	0.914441	0.099178	0.609930
	H79	H	0.913146	0.902844	0.374586
	H80	H	0.621031	0.102323	0.902146
	H81	H	0.384283	0.089485	0.091065
	H82	H	0.619385	0.904343	0.076956
	H83	H	0.383311	0.908915	0.900036
	H84	H	0.618089	0.917484	0.082625
	H85	H	0.382616	0.099237	0.090468
	H86	H	0.616788	0.090850	0.902275
	H87	H	0.383005	0.905390	0.902095
	H88	H	0.901281	0.096221	0.612952
	H89	H	0.098321	0.101609	0.372879
	H90	H	0.082096	0.910747	0.605214
	H91	H	0.906040	0.907209	0.373350
	H92	H	0.106952	0.621790	0.898004
	H93	H	0.091142	0.383393	0.086645
	H94	H	0.909065	0.619461	0.088882
	H95	H	0.904048	0.383922	0.902991
	H96	H	0.423129	0.114112	0.583200
	H97	H	0.587233	0.885925	0.588704
	H98	H	0.594845	0.118135	0.400384
	H99	H	0.405891	0.882610	0.395931
	H100	H	0.595553	0.400765	0.113876
	H101	H	0.604210	0.592371	0.873186
	H102	H	0.402907	0.591220	0.110910
	H103	H	0.404195	0.402623	0.873234
	H104	H	0.118773	0.595209	0.401596
	H105	H	0.885626	0.585849	0.591417
	H106	H	0.122571	0.410272	0.590882
	H107	H	0.886577	0.417125	0.399660
	H108	H	0.905746	0.619045	0.087858
	H109	H	0.090385	0.385074	0.082031
	H110	H	0.089808	0.619502	0.890268
	H111	H	0.908322	0.382611	0.895506
	H112	H	0.094877	0.898674	0.613446
	H113	H	0.103114	0.091661	0.375233
	H114	H	0.909536	0.086895	0.607694
	H115	H	0.913085	0.910710	0.377452
	H116	H	0.621912	0.096484	0.892399
	H117	H	0.386244	0.094524	0.083230
	H118	H	0.623553	0.906913	0.090412
	H119	H	0.385366	0.908764	0.903985
	C120	C	0.379197	0.011212	0.616273
	C121	C	0.622386	0.993766	0.613367
	C122	C	0.625773	0.010126	0.369438
	C123	C	0.382079	0.993777	0.372682
	C124	C	0.622490	0.380618	0.001647
	C125	C	0.624208	0.624292	0.983522
	C126	C	0.380754	0.622621	0.001174
	C127	C	0.379224	0.379129	0.984149
	C128	C	0.010879	0.622495	0.371222
	C129	C	0.994072	0.622941	0.614105
	C130	C	0.010941	0.380263	0.613748
	C131	C	0.993128	0.378927	0.371118
	C132	C	0.878347	0.510606	0.116193
	C133	C	0.121832	0.493018	0.113245
	C134	C	0.124828	0.509944	0.870073
	C135	C	0.880806	0.492856	0.871907
	C136	C	0.123141	0.880615	0.500929
	C137	C	0.124715	0.124766	0.483812
	C138	C	0.881279	0.122077	0.501220
	C139	C	0.880163	0.878425	0.483478
	C140	C	0.510465	0.123695	0.871850
	C141	C	0.493644	0.123667	0.115331
	C142	C	0.511441	0.880488	0.113773
	C143	C	0.492755	0.880037	0.871408
	C144	C	0.379983	0.887654	0.671220
	C145	C	0.620718	0.117412	0.668370
	C146	C	0.623189	0.886926	0.313791
	C147	C	0.385664	0.117350	0.317801
	C148	C	0.678211	0.383673	0.877521
	C149	C	0.677162	0.621855	0.107898
	C150	C	0.326870	0.619933	0.877617
	C151	C	0.322647	0.382282	0.108050
	C152	C	0.887002	0.677567	0.374358
	C153	C	0.117857	0.679834	0.611181
	C154	C	0.886904	0.324179	0.613114
	C155	C	0.117825	0.325563	0.371731
	C156	C	0.886957	0.381637	0.670648
	C157	C	0.118441	0.621312	0.667571
	C158	C	0.885975	0.619200	0.318573
	C159	C	0.117039	0.382204	0.313267
	C160	C	0.383860	0.678031	0.877654
	C161	C	0.621805	0.680393	0.107129
	C162	C	0.621040	0.325751	0.877574
	C163	C	0.380059	0.325084	0.108390
	C164	C	0.679755	0.886747	0.371418
	C165	C	0.677935	0.117473	0.610225
	C166	C	0.322227	0.887929	0.614081
	C167	C	0.328871	0.117812	0.375804
	C168	C	0.880022	0.386479	0.170092
	C169	C	0.120958	0.616520	0.168874
	C170	C	0.122072	0.386600	0.814358
	C171	C	0.884824	0.616640	0.816871
	C172	C	0.179896	0.883722	0.377184
	C173	C	0.177006	0.122209	0.608126
	C174	C	0.828852	0.118892	0.376705
	C175	C	0.823139	0.881084	0.607216
	C176	C	0.385994	0.177141	0.876077
	C177	C	0.617590	0.180062	0.111693
	C178	C	0.387241	0.824405	0.113571
	C179	C	0.617331	0.826542	0.871640
	C180	C	0.387419	0.882429	0.170729
	C181	C	0.618323	0.121724	0.167984
	C182	C	0.385978	0.120123	0.818636
	C183	C	0.616685	0.883737	0.814425
	C184	C	0.884610	0.177301	0.377662
	C185	C	0.120609	0.179878	0.607746
	C186	C	0.123274	0.825355	0.377112
	C187	C	0.880494	0.823508	0.607288
	C188	C	0.178680	0.386131	0.872221
	C189	C	0.178298	0.616230	0.111609
	C190	C	0.822734	0.386873	0.112293
	C191	C	0.827775	0.617126	0.874929
	C192	C	0.402287	0.097249	0.594201
	C193	C	0.599392	0.907563	0.591140
	C194	C	0.604532	0.096938	0.391534
	C195	C	0.403506	0.907809	0.394944
	C196	C	0.599309	0.402791	0.087934
	C197	C	0.602790	0.602183	0.897218
	C198	C	0.402522	0.600522	0.087470
	C199	C	0.402651	0.400667	0.897795
	C200	C	0.097365	0.600666	0.392479
	C201	C	0.907464	0.599797	0.592866
	C202	C	0.097679	0.403070	0.590447
	C203	C	0.906643	0.400287	0.394587
	C204	C	0.900525	0.597164	0.095441
	C205	C	0.098524	0.406709	0.090766
	C206	C	0.103033	0.596351	0.892518
	C207	C	0.901983	0.406723	0.893796
	C208	C	0.099348	0.902611	0.587250
	C209	C	0.103918	0.102269	0.397274
	C210	C	0.902253	0.100448	0.587597
	C211	C	0.903682	0.900455	0.397468
	C212	C	0.597473	0.102665	0.892758
	C213	C	0.406725	0.100970	0.094418
	C214	C	0.597988	0.902960	0.090119
	C215	C	0.406291	0.901293	0.895161
	Zn216	Zn	0.501222	0.002134	0.743528
	Zn217	Zn	0.503227	0.001861	0.242726
	Zn218	Zn	0.751341	0.503107	-0.007029
	Zn219	Zn	0.251793	0.501031	-0.007647
	Zn220	Zn	0.002545	0.750622	0.492034
	Zn221	Zn	0.002553	0.251042	0.492509
	Zn222	Zn	0.002957	0.501536	0.742877
	Zn223	Zn	0.001012	0.501524	0.243486
	Zn224	Zn	0.502731	0.751564	-0.007330
	Zn225	Zn	0.501045	0.251383	-0.006476
	Zn226	Zn	0.752581	0.001364	0.491790
	Zn227	Zn	0.251541	0.002886	0.493317
	N228	N	0.414467	0.965325	0.672802
	N229	N	0.586901	0.039447	0.670310
	N230	N	0.590392	0.964929	0.312356
	N231	N	0.418093	0.039192	0.315643
	N232	N	0.679460	0.417036	0.955739
	N233	N	0.678631	0.587483	0.030180
	N234	N	0.325102	0.585997	0.955215
	N235	N	0.322252	0.415282	0.030020
	N236	N	0.965516	0.679554	0.406377
	N237	N	0.039606	0.680610	0.578578
	N238	N	0.964890	0.323447	0.578299
	N239	N	0.039809	0.323382	0.406740
	N240	N	0.965291	0.415617	0.671381
	N241	N	0.040416	0.586739	0.669673
	N242	N	0.963871	0.585398	0.316760
	N243	N	0.038683	0.414818	0.312824
	N244	N	0.416757	0.679891	0.955760
	N245	N	0.589495	0.682018	0.028953
	N246	N	0.587004	0.323891	0.955629
	N247	N	0.414581	0.322906	0.030261
	N248	N	0.681595	0.964502	0.405371
	N249	N	0.679134	0.039460	0.576694
	N250	N	0.321601	0.965766	0.580545
	N251	N	0.326280	0.040015	0.409249
	N252	N	0.913731	0.464544	0.172843
	N253	N	0.086405	0.538857	0.170023
	N254	N	0.089336	0.464455	0.812931
	N255	N	0.917431	0.538564	0.815073
	N256	N	0.180235	0.917174	0.455249
	N257	N	0.179672	0.088491	0.530127
	N258	N	0.826405	0.085364	0.454582
	N259	N	0.822593	0.914617	0.529251
	N260	N	0.464221	0.179174	0.908711
	N261	N	0.538855	0.181539	0.079964
	N262	N	0.465316	0.823189	0.078786
	N263	N	0.539239	0.824047	0.906506
	N264	N	0.465613	0.916402	0.170906
	N265	N	0.540228	0.087330	0.170299
	N266	N	0.464545	0.087864	0.815685
	N267	N	0.538338	0.916253	0.814233
	N268	N	0.916440	0.179488	0.456080
	N269	N	0.088951	0.181457	0.529325
	N270	N	0.088521	0.823479	0.455001
	N271	N	0.914906	0.821431	0.529382
	N272	N	0.180510	0.464070	0.906021
	N273	N	0.178988	0.538425	0.077668
	N274	N	0.821722	0.464850	0.079430
	N275	N	0.825020	0.539336	0.908170
	O276	O	0.549259	0.465010	0.468789
	H277	H	0.543242	0.460549	0.479774
	H278	H	0.546617	0.473674	0.480450
	O279	O	0.548543	0.456236	0.487184
	H280	H	0.556046	0.461864	0.490011
	H281	H	0.543750	0.454577	0.479476
	O282	O	0.456516	0.550084	0.511237
	H283	H	0.470525	0.551335	0.509199
	H284	H	0.445879	0.551708	0.512094
	O285	O	-0.512108	1.570205	1.485635
	H286	H	-0.512989	1.571335	1.495265
	H287	H	-0.509429	1.575132	1.480610
	O288	O	0.579967	0.489612	0.441111
	H289	H	0.584614	0.494696	0.445694
	H290	H	0.587520	0.492177	0.436298
	O291	O	-0.468573	-0.549897	1.435949
	H292	H	-0.462333	-0.539592	1.435804
	H293	H	-0.475063	-0.538327	1.435789
	O294	O	0.483282	0.531007	0.483738
	H295	H	0.496985	0.530834	0.473594
	H296	H	0.478351	0.537705	0.474911
	O297	O	0.516341	0.484829	0.528418
	H298	H	0.514077	0.483501	0.530660
	H299	H	0.509381	0.479279	0.524315
	O300	O	0.554514	0.579589	0.541230
	H301	H	0.564276	0.581445	0.545914
	H302	H	0.554227	0.584583	0.548920
	O303	O	0.562716	0.543594	0.488583
	H304	H	0.556351	0.544750	0.495416
	H305	H	0.566010	0.527353	0.496756
	O306	O	1.025687	0.054059	0.993671
	H307	H	1.030236	0.063623	1.000787
	H308	H	1.026818	0.043513	0.990391
	O309	O	0.566625	0.540261	0.591707
	H310	H	0.562577	0.543382	0.583223
	H311	H	0.565106	0.531939	0.592382
	O312	O	0.515317	0.502064	0.501514
	H313	H	0.513877	0.488084	0.490531
	H314	H	0.510921	0.505564	0.504864
	O315	O	1.027798	0.018850	0.976865
	H316	H	1.023896	0.006342	0.966692
	H317	H	1.037331	0.013029	0.976131
	O318	O	0.035629	-0.022677	-0.048162
	H319	H	0.030896	-0.018938	-0.044246
	H320	H	0.034183	-0.031774	-0.051150
	O321	O	0.425611	0.452839	0.476974
	H322	H	0.411674	0.447635	0.479506
	H323	H	0.427271	0.452629	0.476811
	O324	O	1.023226	-0.001361	-0.036053
	H325	H	1.027577	0.009014	-0.036292
	H326	H	1.029714	0.001557	-0.038509
	O327	O	1.025196	0.945372	-0.024070
	H328	H	1.016587	0.949838	-0.023910
	H329	H	1.020799	0.951238	-0.021448
	O330	O	0.419229	0.521570	0.501547
	H331	H	0.420182	0.524458	0.498160
	H332	H	0.425643	0.516365	0.504554
	O333	O	0.418155	0.479284	0.544781
	H334	H	0.420090	0.485665	0.545622
	H335	H	0.420883	0.476414	0.539244
