data_Molecule from HDF5

_cell_length_a		16.545784
_cell_length_b		16.561602
_cell_length_c		16.432865
_cell_angle_alpha	89.962078
_cell_angle_beta	90.067819
_cell_angle_gamma	90.040816
_symmetry_space_group_name_H-M	'P 1'
_symmetry_Int_Tables_number		1

loop_
	_symmetry_equiv_pos_as_xyz
	x,y,z

loop_
	_atom_site_label
	_atom_site_type_symbol
	_atom_site_fract_x
	_atom_site_fract_y
	_atom_site_fract_z
	H0	H	0.395761	0.846733	0.712742
	H1	H	0.602660	0.161516	0.715459
	H2	H	0.604462	0.849952	0.269564
	H3	H	0.391900	0.162305	0.272196
	H4	H	0.716240	0.402713	0.837528
	H5	H	0.719927	0.613408	0.153243
	H6	H	0.276118	0.608614	0.836531
	H7	H	0.275030	0.400854	0.152412
	H8	H	0.839280	0.728996	0.388308
	H9	H	0.152401	0.726992	0.599866
	H10	H	0.841564	0.280784	0.599947
	H11	H	0.154139	0.284893	0.388297
	H12	H	0.838086	0.403105	0.712035
	H13	H	0.153168	0.609043	0.714533
	H14	H	0.838584	0.612030	0.271539
	H15	H	0.153662	0.402326	0.273868
	H16	H	0.391821	0.725604	0.837090
	H17	H	0.603418	0.728613	0.152861
	H18	H	0.598070	0.288211	0.835912
	H19	H	0.390592	0.283545	0.152772
	H20	H	0.721713	0.850199	0.384740
	H21	H	0.719599	0.161053	0.598926
	H22	H	0.277746	0.847249	0.598104
	H23	H	0.275098	0.162533	0.388633
	H24	H	0.889579	0.348292	0.218713
	H25	H	0.101414	0.661723	0.216382
	H26	H	0.094957	0.346748	0.777715
	H27	H	0.894712	0.664747	0.777867
	H28	H	0.215613	0.904142	0.336119
	H29	H	0.216758	0.107919	0.653492
	H30	H	0.772334	0.114659	0.337364
	H31	H	0.775065	0.900563	0.651040
	H32	H	0.337750	0.221824	0.893304
	H33	H	0.654015	0.227629	0.100192
	H34	H	0.341073	0.783944	0.099552
	H35	H	0.654372	0.783785	0.891193
	H36	H	0.340785	0.903620	0.214539
	H37	H	0.654654	0.110275	0.215127
	H38	H	0.337363	0.103501	0.778265
	H39	H	0.655403	0.902857	0.776323
	H40	H	0.890525	0.228398	0.336430
	H41	H	0.102874	0.226635	0.651901
	H42	H	0.099345	0.787184	0.335687
	H43	H	0.892347	0.785257	0.652218
	H44	H	0.214818	0.348137	0.891790
	H45	H	0.218668	0.661137	0.100923
	H46	H	0.772560	0.348659	0.103463
	H47	H	0.777501	0.663707	0.894246
	H48	H	0.403939	0.119724	0.590360
	H49	H	0.589555	0.890412	0.587290
	H50	H	0.582759	0.115030	0.408038
	H51	H	0.408491	0.895460	0.409436
	H52	H	0.579878	0.409992	0.109813
	H53	H	0.579458	0.593049	0.886159
	H54	H	0.409456	0.595703	0.108833
	H55	H	0.410357	0.414742	0.882514
	H56	H	0.109837	0.601994	0.405247
	H57	H	0.881540	0.601874	0.583643
	H58	H	0.108975	0.418052	0.585355
	H59	H	0.883196	0.410743	0.406780
	H60	H	0.110761	0.414311	0.588218
	H61	H	0.884898	0.593964	0.579549
	H62	H	0.104452	0.593785	0.411880
	H63	H	0.888168	0.417829	0.414832
	H64	H	0.404070	0.594795	0.108946
	H65	H	0.586155	0.596846	0.881672
	H66	H	0.592308	0.415707	0.111025
	H67	H	0.404083	0.411463	0.879192
	H68	H	0.587346	0.115985	0.409309
	H69	H	0.581388	0.893621	0.584295
	H70	H	0.410875	0.116967	0.585603
	H71	H	0.403188	0.892441	0.405167
	H72	H	0.909189	0.613524	0.077336
	H73	H	0.081008	0.395769	0.078417
	H74	H	0.088363	0.617185	0.911220
	H75	H	0.904250	0.390828	0.901503
	H76	H	0.086262	0.916706	0.607806
	H77	H	0.081079	0.093904	0.383337
	H78	H	0.902779	0.092986	0.607420
	H79	H	0.909531	0.921854	0.383186
	H80	H	0.609215	0.101385	0.909127
	H81	H	0.388883	0.087538	0.078877
	H82	H	0.608161	0.915965	0.076541
	H83	H	0.381757	0.908046	0.901337
	H84	H	0.608386	0.921906	0.083060
	H85	H	0.381644	0.094581	0.092018
	H86	H	0.608677	0.092306	0.903489
	H87	H	0.386487	0.914044	0.910710
	H88	H	0.912159	0.085086	0.601587
	H89	H	0.088428	0.101589	0.378420
	H90	H	0.087146	0.913898	0.609321
	H91	H	0.912276	0.915676	0.381587
	H92	H	0.093358	0.622300	0.900249
	H93	H	0.089799	0.391826	0.082021
	H94	H	0.903725	0.616831	0.082437
	H95	H	0.906792	0.393217	0.904553
	H96	H	0.402725	0.117949	0.581335
	H97	H	0.588988	0.893482	0.578717
	H98	H	0.585423	0.117422	0.404518
	H99	H	0.409635	0.893696	0.402257
	H100	H	0.581771	0.422235	0.105173
	H101	H	0.587165	0.588649	0.885366
	H102	H	0.407365	0.591629	0.107622
	H103	H	0.403215	0.417900	0.881557
	H104	H	0.107375	0.591751	0.400980
	H105	H	0.881579	0.593912	0.588380
	H106	H	0.109858	0.413053	0.583253
	H107	H	0.885376	0.421958	0.404438
	H108	H	0.911552	0.616433	0.085080
	H109	H	0.081688	0.392833	0.088360
	H110	H	0.080835	0.618292	0.900302
	H111	H	0.902534	0.391866	0.905349
	H112	H	0.089151	0.916012	0.609277
	H113	H	0.092018	0.090440	0.380728
	H114	H	0.915376	0.097552	0.605231
	H115	H	0.905593	0.917008	0.379796
	H116	H	0.613604	0.101299	0.899350
	H117	H	0.383942	0.102764	0.078218
	H118	H	0.611583	0.913689	0.084389
	H119	H	0.384204	0.919448	0.900044
	C120	C	0.375842	0.013339	0.616249
	C121	C	0.618994	0.996270	0.615678
	C122	C	0.618598	0.013894	0.372759
	C123	C	0.375259	0.997340	0.372956
	C124	C	0.616673	0.384380	0.004073
	C125	C	0.617365	0.626196	0.988046
	C126	C	0.375068	0.625969	0.003664
	C127	C	0.374169	0.383113	0.985850
	C128	C	0.003963	0.628314	0.372581
	C129	C	0.986701	0.628017	0.616294
	C130	C	0.005404	0.383329	0.616368
	C131	C	0.988593	0.385133	0.374849
	C132	C	0.874824	0.512468	0.116243
	C133	C	0.116972	0.496757	0.115844
	C134	C	0.117347	0.514644	0.872986
	C135	C	0.873844	0.496840	0.873713
	C136	C	0.118044	0.884426	0.503565
	C137	C	0.119200	0.126808	0.485695
	C138	C	0.876782	0.125558	0.501370
	C139	C	0.876230	0.885160	0.485507
	C140	C	0.505392	0.126707	0.873506
	C141	C	0.488651	0.127144	0.115577
	C142	C	0.505934	0.885032	0.114588
	C143	C	0.488515	0.883042	0.873588
	C144	C	0.376347	0.894135	0.673816
	C145	C	0.621086	0.114392	0.675442
	C146	C	0.622256	0.896489	0.310618
	C147	C	0.373685	0.115437	0.312557
	C148	C	0.676249	0.383782	0.884738
	C149	C	0.679226	0.630492	0.106136
	C150	C	0.315653	0.627713	0.884301
	C151	C	0.314751	0.381648	0.105030
	C152	C	0.886320	0.689074	0.369515
	C153	C	0.105258	0.687105	0.618484
	C154	C	0.887748	0.322243	0.618239
	C155	C	0.106834	0.325249	0.371041
	C156	C	0.886091	0.382691	0.673923
	C157	C	0.105403	0.628661	0.675782
	C158	C	0.885931	0.630667	0.311825
	C159	C	0.106553	0.383710	0.313902
	C160	C	0.373232	0.685791	0.884545
	C161	C	0.621267	0.687899	0.105950
	C162	C	0.617622	0.326782	0.884067
	C163	C	0.372469	0.323644	0.105128
	C164	C	0.680373	0.896639	0.367975
	C165	C	0.679286	0.114041	0.617682
	C166	C	0.317729	0.894407	0.616751
	C167	C	0.315577	0.115447	0.370462
	C168	C	0.871620	0.395239	0.177993
	C169	C	0.119551	0.614650	0.176342
	C170	C	0.115787	0.394556	0.816057
	C171	C	0.874871	0.616869	0.816791
	C172	C	0.176437	0.884136	0.383756
	C173	C	0.177589	0.127213	0.605613
	C174	C	0.814171	0.131066	0.383892
	C175	C	0.815716	0.882266	0.604094
	C176	C	0.385255	0.182767	0.873947
	C177	C	0.606866	0.187295	0.118028
	C178	C	0.387844	0.824707	0.117998
	C179	C	0.607042	0.823726	0.872140
	C180	C	0.387595	0.883756	0.175001
	C181	C	0.607167	0.129041	0.175539
	C182	C	0.385137	0.124204	0.816688
	C183	C	0.607735	0.882946	0.815197
	C184	C	0.872985	0.187748	0.383610
	C185	C	0.120833	0.186014	0.604870
	C186	C	0.118588	0.826322	0.383599
	C187	C	0.873945	0.825131	0.604464
	C188	C	0.174992	0.395103	0.872810
	C189	C	0.178194	0.614202	0.119069
	C190	C	0.813407	0.395234	0.120506
	C191	C	0.816606	0.616384	0.874542
	C192	C	0.399175	0.096692	0.592620
	C193	C	0.593848	0.913922	0.590547
	C194	C	0.592324	0.094794	0.399510
	C195	C	0.400083	0.915334	0.398324
	C196	C	0.591833	0.409042	0.087145
	C197	C	0.591586	0.600279	0.905789
	C198	C	0.399776	0.601250	0.086912
	C199	C	0.398772	0.407795	0.902639
	C200	C	0.086071	0.603015	0.398685
	C201	C	0.904031	0.603615	0.590956
	C202	C	0.088178	0.407998	0.592454
	C203	C	0.906886	0.409984	0.400899
	C204	C	0.900689	0.594194	0.089394
	C205	C	0.091487	0.414811	0.090277
	C206	C	0.094280	0.597480	0.896957
	C207	C	0.897626	0.413683	0.897071
	C208	C	0.094262	0.908587	0.587025
	C209	C	0.094309	0.102372	0.402360
	C210	C	0.902718	0.099202	0.583408
	C211	C	0.901710	0.910988	0.402889
	C212	C	0.588663	0.104531	0.897027
	C213	C	0.406178	0.101997	0.090370
	C214	C	0.588025	0.910102	0.088772
	C215	C	0.405724	0.906900	0.897382
	Zn216	Zn	0.497140	0.004894	0.744489
	Zn217	Zn	0.497623	0.005621	0.244179
	Zn218	Zn	0.745502	0.505391	-0.003425
	Zn219	Zn	0.246080	0.504957	-0.005641
	Zn220	Zn	-0.003498	0.756586	0.494440
	Zn221	Zn	-0.002684	0.254752	0.494036
	Zn222	Zn	-0.004652	0.506015	0.744720
	Zn223	Zn	-0.004418	0.505613	0.245220
	Zn224	Zn	0.496929	0.754352	-0.004459
	Zn225	Zn	0.495990	0.255754	-0.005359
	Zn226	Zn	0.747425	0.005447	0.493081
	Zn227	Zn	0.247042	0.005360	0.495159
	N228	N	0.411521	0.969241	0.673702
	N229	N	0.584446	0.039989	0.674609
	N230	N	0.584311	0.970164	0.313579
	N231	N	0.410236	0.040993	0.313852
	N232	N	0.675914	0.418691	0.960573
	N233	N	0.676888	0.592547	0.031833
	N234	N	0.316771	0.591160	0.959286
	N235	N	0.315648	0.417896	0.029776
	N236	N	0.960911	0.687813	0.406331
	N237	N	0.030265	0.687033	0.582421
	N238	N	0.963156	0.322331	0.583457
	N239	N	0.032449	0.325842	0.408120
	N240	N	0.960272	0.419796	0.673129
	N241	N	0.030650	0.592653	0.674554
	N242	N	0.960208	0.593804	0.313552
	N243	N	0.032108	0.420142	0.315959
	N244	N	0.409290	0.685112	0.959976
	N245	N	0.583333	0.685051	0.031656
	N246	N	0.581579	0.326956	0.959293
	N247	N	0.408381	0.324399	0.029815
	N248	N	0.678247	0.970457	0.405838
	N249	N	0.677917	0.039527	0.581280
	N250	N	0.317529	0.969674	0.581408
	N251	N	0.316349	0.041123	0.407334
	N252	N	0.909038	0.469194	0.175449
	N253	N	0.082158	0.540655	0.174504
	N254	N	0.080907	0.469753	0.815791
	N255	N	0.909300	0.541440	0.815823
	N256	N	0.176526	0.919264	0.459510
	N257	N	0.176747	0.091496	0.530285
	N258	N	0.816528	0.092992	0.457905
	N259	N	0.816937	0.918867	0.528981
	N260	N	0.460935	0.184635	0.908238
	N261	N	0.531981	0.186388	0.081734
	N262	N	0.462292	0.825432	0.081392
	N263	N	0.531955	0.823546	0.907377
	N264	N	0.462037	0.920376	0.172968
	N265	N	0.532590	0.092572	0.174236
	N266	N	0.460823	0.090021	0.816107
	N267	N	0.533014	0.919074	0.815756
	N268	N	0.911827	0.184145	0.457521
	N269	N	0.085434	0.186198	0.529125
	N270	N	0.083310	0.826261	0.459234
	N271	N	0.910723	0.826812	0.529722
	N272	N	0.176321	0.470795	0.907113
	N273	N	0.176674	0.539895	0.082143
	N274	N	0.815433	0.469233	0.082919
	N275	N	0.815504	0.540601	0.908885
	O276	O	0.807002	0.816142	-0.134404
	H277	H	0.828631	0.829459	-0.128616
	H278	H	0.816707	0.829207	-0.116191
	O279	O	0.039479	0.017968	1.002411
	H280	H	0.037899	0.038557	1.000951
	H281	H	0.046199	0.030012	0.993256
	O282	O	0.704503	0.713053	0.700982
	H283	H	0.711688	0.729411	0.675148
	H284	H	0.714985	0.738698	0.714622
	O285	O	0.369387	0.290725	0.366469
	H286	H	0.373400	0.293368	0.372143
	H287	H	0.364007	0.308261	0.372240
	O288	O	1.057918	-0.214135	1.063597
	H289	H	1.031221	-0.216705	1.071236
	H290	H	1.034762	-0.208548	1.062137
	O291	O	0.690355	0.512340	0.505598
	H292	H	0.686917	0.500412	0.503640
	H293	H	0.688981	0.523055	0.517812
	O294	O	-0.138525	-0.031702	0.125030
	H295	H	-0.131027	-0.018054	0.134041
	H296	H	-0.152759	-0.022958	0.138072
	O297	O	0.863400	0.173323	0.093210
	H298	H	0.881862	0.186430	0.088197
	H299	H	0.853772	0.186644	0.100639
	O300	O	-0.080145	-0.136867	-0.061199
	H301	H	-0.084879	-0.129794	-0.074348
	H302	H	-0.070607	-0.119799	-0.074568
	O303	O	-0.118519	0.215484	-0.217618
	H304	H	-0.105367	0.201506	-0.205725
	H305	H	-0.135564	0.247620	-0.252127
	O306	O	0.969575	0.163480	-0.077837
	H307	H	0.985164	0.154389	-0.093434
	H308	H	0.960847	0.175645	-0.072825
	O309	O	0.515874	0.289111	0.281857
	H310	H	0.510733	0.283782	0.281829
	H311	H	0.514036	0.271835	0.283417
	O312	O	0.060813	0.186603	0.208849
	H313	H	0.070013	0.203424	0.222334
	H314	H	0.082935	0.190046	0.216900
	O315	O	0.577583	0.704725	0.386571
	H316	H	0.576158	0.701464	0.401813
	H317	H	0.559739	0.713977	0.360300
	O318	O	0.917450	1.143648	-0.133527
	H319	H	0.921536	1.154054	-0.138823
	H320	H	0.913069	1.144032	-0.122221
	O321	O	0.162480	1.189277	0.844757
	H322	H	0.164830	1.183187	0.863450
	H323	H	0.147795	1.163647	0.852707
	O324	O	0.829357	-0.194073	1.111132
	H325	H	0.820868	-0.190593	1.106118
	H326	H	0.822543	-0.178561	1.108466
	O327	O	0.700094	0.715914	0.527530
	H328	H	0.703154	0.710287	0.522596
	H329	H	0.700669	0.720548	0.513754
	O330	O	0.474713	0.724355	0.279351
	H331	H	0.439331	0.714302	0.286089
	H332	H	0.471801	0.744707	0.249918
	O333	O	0.608363	0.495633	0.536826
	H334	H	0.604986	0.506184	0.556977
	H335	H	0.612022	0.507220	0.530953
	O336	O	0.330609	0.681808	0.676668
	H337	H	0.344536	0.669098	0.660821
	H338	H	0.342846	0.661311	0.654941
	O339	O	0.546210	0.357873	0.634393
	H340	H	0.540387	0.359576	0.653354
	H341	H	0.546514	0.343272	0.638305
	O342	O	0.193704	1.190235	0.190075
	H343	H	0.201432	1.155727	0.205351
	H344	H	0.203367	1.188132	0.206516
	O345	O	0.687040	0.316727	0.682212
	H346	H	0.684945	0.316091	0.678454
	H347	H	0.668090	0.323859	0.657889
	O348	O	0.279967	0.466382	0.710573
	H349	H	0.256556	0.481453	0.721499
	H350	H	0.297167	0.492109	0.709907
	O351	O	0.154472	0.003999	0.932721
	H352	H	0.154689	-0.010588	0.928513
	H353	H	0.163755	-0.009487	0.927162
	O354	O	1.096221	-0.015026	1.015482
	H355	H	1.086373	-0.030874	1.016664
	H356	H	1.091250	-0.015128	1.027127
	O357	O	0.279721	0.723149	0.465592
	H358	H	0.278254	0.730345	0.456380
	H359	H	0.276153	0.728272	0.466300
	O360	O	0.718656	0.545690	0.716616
	H361	H	0.732073	0.570645	0.732907
	H362	H	0.732714	0.573177	0.729019
	O363	O	0.578272	0.534579	0.474912
	H364	H	0.583475	0.528797	0.470246
	H365	H	0.589227	0.518271	0.466562
	O366	O	0.785479	0.036208	0.784008
	H367	H	0.771729	0.036707	0.774023
	H368	H	0.791713	0.053212	0.774928
	O369	O	0.124390	-0.029324	1.170726
	H370	H	0.116348	-0.035911	1.148103
	H371	H	0.103939	-0.025548	1.179816
	O372	O	-0.024701	0.816024	1.182975
	H373	H	-0.068266	0.823432	1.174823
	H374	H	-0.034463	0.789839	1.209923
	O375	O	0.820484	0.027723	0.091996
	H376	H	0.833580	0.044796	0.095506
	H377	H	0.816374	0.040460	0.078313
	O378	O	0.636038	0.572011	0.359426
	H379	H	0.654246	0.552285	0.339576
	H380	H	0.638379	0.570192	0.364207
	O381	O	-0.091906	1.002453	-0.155955
	H382	H	-0.080504	1.007606	-0.153539
	H383	H	-0.099930	1.022012	-0.149531
	O384	O	0.297973	0.528214	0.360174
	H385	H	0.280040	0.530556	0.343690
	H386	H	0.308424	0.543860	0.354785
	O387	O	0.022637	0.796245	0.781767
	H388	H	0.036819	0.807531	0.787833
	H389	H	0.023199	0.778457	0.755140
	O390	O	0.293994	1.299186	0.699194
	H391	H	0.268082	1.296483	0.725304
	H392	H	0.284685	1.333703	0.686712
	O393	O	1.158666	-0.004077	0.095500
	H394	H	1.151445	-0.006701	0.085232
	H395	H	1.170409	-0.028853	0.090274
	O396	O	0.499074	0.280063	0.490712
	H397	H	0.474963	0.283584	0.515250
	H398	H	0.487545	0.276597	0.488846
	O399	O	0.531736	0.713764	0.707091
	H400	H	0.547387	0.721001	0.710407
	H401	H	0.542632	0.725970	0.712958
	O402	O	1.206143	0.223135	1.022839
	H403	H	1.206196	0.218618	1.064782
	H404	H	1.231306	0.239308	1.035058
	O405	O	0.321805	0.420311	0.453582
	H406	H	0.310064	0.413030	0.452815
	H407	H	0.334204	0.420268	0.475525
	O408	O	1.207442	0.792055	0.964233
	H409	H	1.179644	0.783317	0.984866
	H410	H	1.229296	0.767785	0.962807
	O411	O	0.796480	0.877311	0.190224
	H412	H	0.784606	0.896125	0.178137
	H413	H	0.777015	0.890996	0.198843
	O414	O	-0.168929	0.009611	-0.011392
	H415	H	-0.165393	0.007895	-0.006096
	H416	H	-0.169664	0.033954	-0.016347
	O417	O	0.636124	0.371353	0.468557
	H418	H	0.637026	0.368427	0.469841
	H419	H	0.625701	0.371940	0.480178
	O420	O	1.150071	-0.011374	0.816469
	H421	H	1.152526	-0.027745	0.809997
	H422	H	1.152193	-0.021167	0.811904
	O423	O	1.019203	1.088149	0.138901
	H424	H	1.008639	1.095298	0.142265
	H425	H	1.018429	1.091635	0.143726
	O426	O	0.671396	0.476544	0.289194
	H427	H	0.689734	0.467549	0.273936
	H428	H	0.665455	0.459652	0.306882
	O429	O	0.425823	0.631441	0.460606
	H430	H	0.432937	0.631032	0.454896
	H431	H	0.444549	0.633563	0.452974
	O432	O	1.012694	0.214843	0.953813
	H433	H	1.019853	0.214216	0.937213
	H434	H	1.039300	0.219543	0.946860
	O435	O	0.475360	0.558404	0.649293
	H436	H	0.488294	0.588124	0.652509
	H437	H	0.478212	0.542482	0.656052
	O438	O	0.316255	0.324166	0.538614
	H439	H	0.314634	0.333783	0.546577
	H440	H	0.297903	0.314423	0.550248
	O441	O	0.313493	0.457750	0.304450
	H442	H	0.320924	0.465864	0.304758
	H443	H	0.311154	0.462704	0.307369
	O444	O	0.696554	0.304740	0.297467
	H445	H	0.691855	0.305584	0.337978
	H446	H	0.668793	0.302278	0.298756
	O447	O	0.777759	0.220404	0.873193
	H448	H	0.772836	0.223570	0.881325
	H449	H	0.782733	0.219679	0.861387
	O450	O	1.280439	0.535066	0.556605
	H451	H	1.285014	0.533237	0.533087
	H452	H	1.281913	0.537005	0.544964
	O453	O	0.507120	0.706909	0.498112
	H454	H	0.495039	0.707278	0.492166
	H455	H	0.511433	0.698876	0.496860
	O456	O	-0.076423	0.874734	0.843608
	H457	H	-0.078773	0.875234	0.841334
	H458	H	-0.065279	0.882533	0.858850
	O459	O	0.462884	0.277355	0.715539
	H460	H	0.417418	0.289106	0.709952
	H461	H	0.454697	0.245714	0.751229
	O462	O	0.530401	0.436892	0.572685
	H463	H	0.542578	0.446230	0.592919
	H464	H	0.527294	0.443000	0.569431
	O465	O	0.192006	0.813540	0.798392
	H466	H	0.218361	0.786720	0.786134
	H467	H	0.177528	0.806412	0.823478
	O468	O	0.189006	0.819971	0.179544
	H469	H	0.167702	0.834488	0.157301
	H470	H	0.172263	0.840263	0.162902
	O471	O	0.598443	0.437480	0.442889
	H472	H	0.589694	0.446809	0.455654
	H473	H	0.604674	0.446950	0.451292
	O474	O	1.291345	0.716622	0.285804
	H475	H	1.291899	0.701689	0.308972
	H476	H	1.258785	0.748739	0.253728
	O477	O	0.427535	0.471050	0.352306
	H478	H	0.442178	0.473999	0.351507
	H479	H	0.435231	0.449264	0.353289
