data_Molecule from HDF5

_cell_length_a		16.176765
_cell_length_b		16.226979
_cell_length_c		16.303887
_cell_angle_alpha	90.028485
_cell_angle_beta	90.000127
_cell_angle_gamma	89.702419
_symmetry_space_group_name_H-M	'P 1'
_symmetry_Int_Tables_number		1

loop_
	_symmetry_equiv_pos_as_xyz
	x,y,z

loop_
	_atom_site_label
	_atom_site_type_symbol
	_atom_site_fract_x
	_atom_site_fract_y
	_atom_site_fract_z
	H0	H	0.396794	0.836506	0.710877
	H1	H	0.592985	0.164662	0.710554
	H2	H	0.595812	0.836235	0.281558
	H3	H	0.394564	0.163999	0.281232
	H4	H	0.710620	0.402669	0.831482
	H5	H	0.711016	0.598446	0.159756
	H6	H	0.281873	0.600010	0.833025
	H7	H	0.284057	0.404255	0.160026
	H8	H	0.831670	0.715932	0.396895
	H9	H	0.161042	0.712224	0.592869
	H10	H	0.830230	0.290731	0.593511
	H11	H	0.160422	0.285454	0.398083
	H12	H	0.832333	0.402946	0.711444
	H13	H	0.160518	0.598202	0.709295
	H14	H	0.832054	0.601964	0.280297
	H15	H	0.161462	0.400915	0.282438
	H16	H	0.397561	0.716219	0.833606
	H17	H	0.595257	0.715386	0.160082
	H18	H	0.596559	0.284545	0.832668
	H19	H	0.399460	0.287702	0.159474
	H20	H	0.710900	0.836367	0.398572
	H21	H	0.707049	0.165075	0.594476
	H22	H	0.283194	0.835772	0.593299
	H23	H	0.281873	0.165285	0.399851
	H24	H	0.898136	0.337002	0.211689
	H25	H	0.094929	0.665151	0.210192
	H26	H	0.098080	0.336692	0.780455
	H27	H	0.898115	0.665143	0.782618
	H28	H	0.208941	0.902868	0.332772
	H29	H	0.207992	0.098342	0.660701
	H30	H	0.781019	0.099778	0.332774
	H31	H	0.783953	0.905095	0.660697
	H32	H	0.331303	0.214247	0.899431
	H33	H	0.661328	0.211854	0.093263
	H34	H	0.331164	0.788865	0.093706
	H35	H	0.661269	0.787968	0.900145
	H36	H	0.331041	0.903759	0.208631
	H37	H	0.659703	0.098746	0.211359
	H38	H	0.330508	0.098536	0.783868
	H39	H	0.660471	0.900874	0.782235
	H40	H	0.895939	0.217120	0.332638
	H41	H	0.092612	0.215562	0.659062
	H42	H	0.093951	0.785880	0.333119
	H43	H	0.897397	0.787127	0.659777
	H44	H	0.210959	0.336013	0.899342
	H45	H	0.207705	0.666086	0.092265
	H46	H	0.785100	0.335335	0.092952
	H47	H	0.783641	0.665143	0.899626
	H48	H	0.408313	0.117546	0.595464
	H49	H	0.590953	0.881283	0.594397
	H50	H	0.590842	0.120738	0.395559
	H51	H	0.403001	0.882033	0.400227
	H52	H	0.596573	0.399338	0.116312
	H53	H	0.588164	0.599430	0.878672
	H54	H	0.396490	0.589591	0.114690
	H55	H	0.404972	0.408002	0.879187
	H56	H	0.115019	0.589914	0.394366
	H57	H	0.881473	0.586620	0.584209
	H58	H	0.112466	0.410983	0.586762
	H59	H	0.881358	0.409717	0.410576
	H60	H	0.115056	0.407084	0.592670
	H61	H	0.875550	0.592680	0.599669
	H62	H	0.115563	0.601000	0.406310
	H63	H	0.880463	0.417278	0.399529
	H64	H	0.409162	0.593064	0.110967
	H65	H	0.595030	0.593908	0.878482
	H66	H	0.594072	0.415266	0.110818
	H67	H	0.403263	0.406964	0.878657
	H68	H	0.577695	0.114322	0.402792
	H69	H	0.583452	0.884909	0.589091
	H70	H	0.401124	0.115655	0.582496
	H71	H	0.404622	0.883545	0.403574
	H72	H	0.909458	0.617598	0.096621
	H73	H	0.096573	0.382137	0.089002
	H74	H	0.083838	0.613131	0.913527
	H75	H	0.913701	0.383116	0.893268
	H76	H	0.091754	0.911000	0.612731
	H77	H	0.085154	0.097609	0.379154
	H78	H	0.897133	0.100518	0.615806
	H79	H	0.905809	0.903931	0.378941
	H80	H	0.612744	0.092048	0.904920
	H81	H	0.375159	0.101686	0.090252
	H82	H	0.616728	0.892730	0.085091
	H83	H	0.379071	0.915802	0.897914
	H84	H	0.607579	0.918124	0.081116
	H85	H	0.381361	0.092649	0.082405
	H86	H	0.613748	0.089899	0.900230
	H87	H	0.374166	0.900190	0.897504
	H88	H	0.899361	0.090234	0.611915
	H89	H	0.093125	0.094206	0.378345
	H90	H	0.084337	0.905868	0.612467
	H91	H	0.897786	0.908366	0.378671
	H92	H	0.102374	0.621186	0.902144
	H93	H	0.088111	0.383113	0.094659
	H94	H	0.906473	0.614551	0.081572
	H95	H	0.907888	0.386583	0.913444
	H96	H	0.393978	0.121472	0.594169
	H97	H	0.592025	0.883510	0.584800
	H98	H	0.591523	0.116306	0.411106
	H99	H	0.401069	0.882902	0.402858
	H100	H	0.581855	0.403905	0.110191
	H101	H	0.587283	0.591283	0.881095
	H102	H	0.400565	0.602556	0.116214
	H103	H	0.403426	0.408972	0.879908
	H104	H	0.109020	0.586271	0.409351
	H105	H	0.876634	0.603394	0.585465
	H106	H	0.114201	0.403598	0.586448
	H107	H	0.876142	0.404295	0.398658
	H108	H	0.894869	0.620313	0.090665
	H109	H	0.087612	0.386006	0.084702
	H110	H	0.081390	0.619092	0.890966
	H111	H	0.893041	0.378978	0.899590
	H112	H	0.092137	0.902259	0.615763
	H113	H	0.086574	0.089459	0.381848
	H114	H	0.906912	0.098404	0.611453
	H115	H	0.905072	0.912471	0.381344
	H116	H	0.615362	0.095018	0.901276
	H117	H	0.377987	0.089649	0.095557
	H118	H	0.617205	0.911138	0.104967
	H119	H	0.379802	0.906545	0.911741
	C120	C	0.373652	0.009313	0.618373
	C121	C	0.616535	0.992103	0.617648
	C122	C	0.616616	0.008643	0.374700
	C123	C	0.373696	0.991627	0.374349
	C124	C	0.619183	0.378024	0.004411
	C125	C	0.618434	0.622522	0.987894
	C126	C	0.374355	0.622959	0.005224
	C127	C	0.375794	0.379955	0.987365
	C128	C	0.004721	0.622225	0.374428
	C129	C	0.987365	0.621846	0.617210
	C130	C	0.004914	0.379535	0.616929
	C131	C	0.987900	0.380449	0.374664
	C132	C	0.875277	0.508880	0.117799
	C133	C	0.118176	0.492655	0.117607
	C134	C	0.118761	0.509175	0.873674
	C135	C	0.875868	0.491929	0.874443
	C136	C	0.117744	0.877961	0.505243
	C137	C	0.116227	0.122034	0.487879
	C138	C	0.872610	0.124445	0.504798
	C139	C	0.874170	0.879633	0.487882
	C140	C	0.504850	0.121243	0.874491
	C141	C	0.487269	0.122029	0.117935
	C142	C	0.504758	0.879500	0.118089
	C143	C	0.487000	0.878939	0.874690
	C144	C	0.376335	0.885378	0.673106
	C145	C	0.613546	0.115698	0.672795
	C146	C	0.615537	0.885076	0.319904
	C147	C	0.374958	0.115077	0.319405
	C148	C	0.673487	0.381401	0.880568
	C149	C	0.672740	0.618784	0.111353
	C150	C	0.319991	0.619952	0.881714
	C151	C	0.321509	0.383374	0.111131
	C152	C	0.880799	0.677817	0.376737
	C153	C	0.111617	0.675373	0.613669
	C154	C	0.880150	0.326525	0.614617
	C155	C	0.111503	0.323747	0.377377
	C156	C	0.881046	0.382825	0.672775
	C157	C	0.111540	0.618742	0.671681
	C158	C	0.881010	0.621012	0.318850
	C159	C	0.111986	0.381045	0.319987
	C160	C	0.377061	0.678171	0.882254
	C161	C	0.615448	0.677098	0.111324
	C162	C	0.616550	0.322987	0.881064
	C163	C	0.378721	0.325421	0.110848
	C164	C	0.672784	0.885200	0.377966
	C165	C	0.670178	0.115954	0.615049
	C166	C	0.320099	0.884999	0.614644
	C167	C	0.319168	0.115840	0.378586
	C168	C	0.878305	0.385510	0.172906
	C169	C	0.115080	0.616282	0.172164
	C170	C	0.117334	0.385585	0.818850
	C171	C	0.877596	0.615896	0.820144
	C172	C	0.172085	0.881385	0.381779
	C173	C	0.170663	0.119102	0.611426
	C174	C	0.818197	0.121031	0.381530
	C175	C	0.820609	0.883639	0.611429
	C176	C	0.380579	0.176899	0.877960
	C177	C	0.611657	0.175108	0.114534
	C178	C	0.380293	0.825906	0.114548
	C179	C	0.611880	0.824702	0.878758
	C180	C	0.380341	0.883067	0.171467
	C181	C	0.610779	0.118761	0.173127
	C182	C	0.380159	0.119375	0.820616
	C183	C	0.611373	0.881018	0.820164
	C184	C	0.875505	0.179035	0.381414
	C185	C	0.113365	0.177168	0.610715
	C186	C	0.114895	0.823413	0.382013
	C187	C	0.876841	0.824644	0.610918
	C188	C	0.173607	0.385189	0.877680
	C189	C	0.170949	0.616934	0.113362
	C190	C	0.822181	0.384724	0.113981
	C191	C	0.820790	0.615940	0.878204
	C192	C	0.394836	0.095856	0.597095
	C193	C	0.595100	0.905642	0.595812
	C194	C	0.593495	0.094751	0.396575
	C195	C	0.396103	0.905135	0.395967
	C196	C	0.597460	0.399775	0.090227
	C197	C	0.596561	0.601213	0.901714
	C198	C	0.395837	0.601480	0.091620
	C199	C	0.397569	0.401417	0.901426
	C200	C	0.090953	0.599225	0.396744
	C201	C	0.900327	0.600524	0.595964
	C202	C	0.091541	0.400728	0.595114
	C203	C	0.901724	0.403516	0.396509
	C204	C	0.896999	0.595285	0.095951
	C205	C	0.096951	0.405960	0.096033
	C206	C	0.095954	0.595743	0.895623
	C207	C	0.898328	0.405291	0.895734
	C208	C	0.095740	0.899821	0.591442
	C209	C	0.094666	0.100217	0.401872
	C210	C	0.894631	0.102831	0.590844
	C211	C	0.896311	0.901770	0.401710
	C212	C	0.591615	0.098840	0.895778
	C213	C	0.400483	0.101020	0.095900
	C214	C	0.591614	0.900817	0.096549
	C215	C	0.400208	0.900964	0.896078
	Zn216	Zn	0.495294	-0.000063	0.746181
	Zn217	Zn	0.495135	0.000023	0.246161
	Zn218	Zn	0.747394	0.500367	-0.004091
	Zn219	Zn	0.246476	0.500855	-0.003699
	Zn220	Zn	-0.004649	0.750256	0.496289
	Zn221	Zn	-0.005046	0.251794	0.495976
	Zn222	Zn	-0.003261	0.500583	0.745374
	Zn223	Zn	-0.002960	0.500982	0.246086
	Zn224	Zn	0.496067	0.751716	-0.003137
	Zn225	Zn	0.496681	0.249920	-0.004224
	Zn226	Zn	0.745170	0.001260	0.496616
	Zn227	Zn	0.245645	0.000268	0.496845
	N228	N	0.408934	0.963591	0.675366
	N229	N	0.580687	0.037554	0.674521
	N230	N	0.581428	0.962815	0.317714
	N231	N	0.408154	0.036874	0.316822
	N232	N	0.674957	0.415144	0.958001
	N233	N	0.674707	0.585709	0.033588
	N234	N	0.318216	0.586427	0.959290
	N235	N	0.319407	0.416464	0.033439
	N236	N	0.958571	0.678585	0.410738
	N237	N	0.033243	0.677518	0.580697
	N238	N	0.957797	0.324815	0.580250
	N239	N	0.033362	0.323030	0.410639
	N240	N	0.959557	0.414948	0.674527
	N241	N	0.033298	0.586368	0.673962
	N242	N	0.959116	0.587099	0.317373
	N243	N	0.034340	0.415703	0.318464
	N244	N	0.410167	0.679955	0.959902
	N245	N	0.582645	0.679759	0.033548
	N246	N	0.583423	0.320718	0.958849
	N247	N	0.411911	0.323355	0.033232
	N248	N	0.673349	0.963087	0.411588
	N249	N	0.672018	0.038285	0.581431
	N250	N	0.318435	0.962835	0.581212
	N251	N	0.318253	0.037994	0.412027
	N252	N	0.910543	0.463710	0.175283
	N253	N	0.083078	0.537956	0.174841
	N254	N	0.083858	0.463764	0.816434
	N255	N	0.911420	0.537967	0.817963
	N256	N	0.173946	0.914608	0.459614
	N257	N	0.172516	0.085248	0.534095
	N258	N	0.816357	0.087931	0.459106
	N259	N	0.818814	0.916845	0.533765
	N260	N	0.459120	0.178248	0.910615
	N261	N	0.533841	0.177144	0.080706
	N262	N	0.458624	0.823797	0.081723
	N263	N	0.533729	0.823519	0.912057
	N264	N	0.458715	0.915580	0.173610
	N265	N	0.532255	0.086573	0.175263
	N266	N	0.458185	0.085487	0.818439
	N267	N	0.532861	0.913913	0.817505
	N268	N	0.908389	0.181327	0.459145
	N269	N	0.080371	0.179137	0.533029
	N270	N	0.081883	0.821390	0.459619
	N271	N	0.909592	0.822292	0.532988
	N272	N	0.174614	0.463001	0.911198
	N273	N	0.173079	0.538955	0.080123
	N274	N	0.820108	0.462567	0.080479
	N275	N	0.819755	0.537874	0.911272
	O276	O	0.553179	-0.549535	1.413639
	H277	H	0.555771	-0.550309	1.409844
	H278	H	0.546711	-0.546451	1.412353
	O279	O	0.514732	0.442055	0.441801
	H280	H	0.515336	0.436316	0.441922
	H281	H	0.514989	0.444638	0.445372
	O282	O	1.512841	1.469051	0.420173
	H283	H	1.507768	1.471476	0.424944
	H284	H	1.513750	1.475239	0.418472
	O285	O	0.528204	0.475977	0.449955
	H286	H	0.530260	0.475685	0.439067
	H287	H	0.539413	0.464049	0.448915
