data_Molecule from HDF5

_cell_length_a		16.392705
_cell_length_b		16.524736
_cell_length_c		16.345935
_cell_angle_alpha	90.036079
_cell_angle_beta	90.028377
_cell_angle_gamma	89.794222
_symmetry_space_group_name_H-M	'P 1'
_symmetry_Int_Tables_number		1

loop_
	_symmetry_equiv_pos_as_xyz
	x,y,z

loop_
	_atom_site_label
	_atom_site_type_symbol
	_atom_site_fract_x
	_atom_site_fract_y
	_atom_site_fract_z
	H0	H	0.400380	0.845933	0.733339
	H1	H	0.612434	0.160515	0.734111
	H2	H	0.612028	0.844931	0.290179
	H3	H	0.399466	0.161268	0.288838
	H4	H	0.725728	0.395281	0.851191
	H5	H	0.727105	0.608090	0.168854
	H6	H	0.282949	0.607784	0.851331
	H7	H	0.282934	0.398069	0.169523
	H8	H	0.848524	0.727815	0.403595
	H9	H	0.164547	0.722843	0.617628
	H10	H	0.849168	0.278083	0.620573
	H11	H	0.162203	0.278593	0.400313
	H12	H	0.846138	0.398826	0.731130
	H13	H	0.163490	0.608223	0.732744
	H14	H	0.845409	0.607827	0.292033
	H15	H	0.162711	0.396854	0.287894
	H16	H	0.394404	0.727614	0.853753
	H17	H	0.613146	0.726266	0.168546
	H18	H	0.612826	0.277288	0.853238
	H19	H	0.396353	0.279972	0.168663
	H20	H	0.728716	0.845095	0.406830
	H21	H	0.729512	0.160513	0.619183
	H22	H	0.282832	0.846965	0.618505
	H23	H	0.279969	0.159373	0.402780
	H24	H	0.895722	0.346927	0.235666
	H25	H	0.110290	0.659455	0.233376
	H26	H	0.111072	0.346538	0.786875
	H27	H	0.896348	0.659908	0.787578
	H28	H	0.230357	0.895212	0.353472
	H29	H	0.229424	0.111500	0.669095
	H30	H	0.784280	0.109498	0.352351
	H31	H	0.785112	0.897327	0.669064
	H32	H	0.348350	0.225638	0.901711
	H33	H	0.661164	0.229928	0.122036
	H34	H	0.348023	0.780489	0.120558
	H35	H	0.661273	0.776663	0.902561
	H36	H	0.347972	0.898772	0.233567
	H37	H	0.663371	0.110658	0.234562
	H38	H	0.348770	0.108413	0.787657
	H39	H	0.664805	0.894918	0.788858
	H40	H	0.898457	0.226924	0.352651
	H41	H	0.116260	0.229496	0.667197
	H42	H	0.115966	0.778290	0.354027
	H43	H	0.898610	0.780292	0.668053
	H44	H	0.228348	0.346414	0.901644
	H45	H	0.228426	0.658156	0.118788
	H46	H	0.780288	0.346486	0.118246
	H47	H	0.778604	0.658858	0.902738
	H48	H	0.423643	0.112547	0.597133
	H49	H	0.597388	0.888896	0.604525
	H50	H	0.594830	0.113008	0.429331
	H51	H	0.417991	0.889870	0.418337
	H52	H	0.594128	0.419106	0.122686
	H53	H	0.590818	0.592011	0.897280
	H54	H	0.413174	0.589532	0.124376
	H55	H	0.414514	0.418732	0.897907
	H56	H	0.119059	0.591381	0.421241
	H57	H	0.891269	0.591838	0.600561
	H58	H	0.118926	0.416444	0.601959
	H59	H	0.891134	0.418819	0.417992
	H60	H	0.118554	0.411618	0.594942
	H61	H	0.890722	0.597182	0.598245
	H62	H	0.118398	0.592861	0.422892
	H63	H	0.890337	0.408462	0.425706
	H64	H	0.420009	0.589571	0.122239
	H65	H	0.590596	0.589229	0.898120
	H66	H	0.587041	0.416233	0.121134
	H67	H	0.422382	0.412639	0.898231
	H68	H	0.601460	0.118942	0.420534
	H69	H	0.592580	0.892955	0.598132
	H70	H	0.414570	0.115760	0.595273
	H71	H	0.423079	0.893747	0.423844
	H72	H	0.915198	0.611199	0.089601
	H73	H	0.086945	0.394766	0.094424
	H74	H	0.090820	0.615392	0.918700
	H75	H	0.916903	0.392628	0.926584
	H76	H	0.095191	0.917072	0.624146
	H77	H	0.091509	0.093478	0.397742
	H78	H	0.916608	0.093835	0.625871
	H79	H	0.915727	0.912548	0.395511
	H80	H	0.619241	0.089717	0.922282
	H81	H	0.394723	0.088389	0.095950
	H82	H	0.617763	0.917467	0.098725
	H83	H	0.392027	0.916862	0.919513
	H84	H	0.619762	0.911897	0.100107
	H85	H	0.391222	0.090956	0.104896
	H86	H	0.619931	0.092903	0.925917
	H87	H	0.392019	0.912964	0.923051
	H88	H	0.919535	0.087938	0.622897
	H89	H	0.094934	0.087651	0.397993
	H90	H	0.091793	0.912141	0.624107
	H91	H	0.919062	0.920978	0.399481
	H92	H	0.090535	0.613180	0.925399
	H93	H	0.101769	0.388355	0.095233
	H94	H	0.907709	0.618034	0.101926
	H95	H	0.909740	0.388020	0.919115
	H96	H	0.417705	0.116786	0.604294
	H97	H	0.601214	0.890699	0.596331
	H98	H	0.590075	0.114951	0.418057
	H99	H	0.415541	0.891591	0.426701
	H100	H	0.592299	0.411695	0.124526
	H101	H	0.588373	0.591310	0.898765
	H102	H	0.416834	0.595496	0.124928
	H103	H	0.413816	0.409221	0.894183
	H104	H	0.118357	0.590695	0.423492
	H105	H	0.893008	0.593424	0.595259
	H106	H	0.116079	0.419644	0.595045
	H107	H	0.895640	0.419127	0.430124
	H108	H	0.923545	0.613508	0.103237
	H109	H	0.091377	0.387299	0.107600
	H110	H	0.096263	0.616717	0.922942
	H111	H	0.920173	0.390324	0.916353
	H112	H	0.096978	0.912030	0.625830
	H113	H	0.089414	0.088633	0.400491
	H114	H	0.923219	0.094485	0.623381
	H115	H	0.925346	0.913566	0.398073
	H116	H	0.617498	0.088551	0.926993
	H117	H	0.391333	0.097518	0.097309
	H118	H	0.617950	0.912819	0.094373
	H119	H	0.394553	0.917466	0.924545
	C120	C	0.385454	0.011530	0.632161
	C121	C	0.629209	0.994656	0.632984
	C122	C	0.628397	0.011486	0.389733
	C123	C	0.384512	0.995163	0.389390
	C124	C	0.624883	0.381680	0.018352
	C125	C	0.624214	0.623655	1.002536
	C126	C	0.382717	0.624675	0.019551
	C127	C	0.383507	0.381290	1.001543
	C128	C	0.014346	0.624906	0.389334
	C129	C	0.996401	0.625607	0.631801
	C130	C	0.013538	0.383126	0.630786
	C131	C	0.996248	0.381819	0.389804
	C132	C	0.882101	0.510879	0.131983
	C133	C	0.126078	0.494032	0.132157
	C134	C	0.126173	0.511714	0.888767
	C135	C	0.881760	0.493935	0.887781
	C136	C	0.128537	0.880545	0.520057
	C137	C	0.126386	0.124357	0.502673
	C138	C	0.885701	0.125292	0.519637
	C139	C	0.886600	0.883053	0.502149
	C140	C	0.514506	0.123243	0.891002
	C141	C	0.496623	0.125617	0.132790
	C142	C	0.514126	0.882070	0.131525
	C143	C	0.496869	0.880975	0.888814
	C144	C	0.382546	0.893314	0.693087
	C145	C	0.631453	0.113207	0.694173
	C146	C	0.630457	0.892425	0.330091
	C147	C	0.381225	0.113586	0.328720
	C148	C	0.685915	0.377692	0.899004
	C149	C	0.686479	0.626497	0.121324
	C150	C	0.322435	0.626746	0.899697
	C151	C	0.322582	0.379331	0.121610
	C152	C	0.895521	0.686718	0.385915
	C153	C	0.116431	0.684063	0.635297
	C154	C	0.895722	0.320522	0.636417
	C155	C	0.114912	0.319518	0.384188
	C156	C	0.894062	0.380715	0.691451
	C157	C	0.115799	0.626664	0.692733
	C158	C	0.894101	0.626919	0.330291
	C159	C	0.114984	0.378302	0.327891
	C160	C	0.377832	0.686563	0.900864
	C161	C	0.629661	0.685324	0.121309
	C162	C	0.629510	0.318956	0.900224
	C163	C	0.378924	0.320302	0.121125
	C164	C	0.688790	0.892581	0.387958
	C165	C	0.689328	0.113435	0.636395
	C166	C	0.323870	0.893820	0.635719
	C167	C	0.321665	0.112755	0.385536
	C168	C	0.878230	0.393710	0.194431
	C169	C	0.128554	0.612050	0.193270
	C170	C	0.129138	0.393771	0.827188
	C171	C	0.878500	0.612680	0.827765
	C172	C	0.190253	0.877493	0.401334
	C173	C	0.188685	0.128697	0.621423
	C174	C	0.824245	0.127858	0.400091
	C175	C	0.825238	0.879550	0.621258
	C176	C	0.395578	0.184521	0.885478
	C177	C	0.614149	0.188367	0.138457
	C178	C	0.395439	0.821276	0.136889
	C179	C	0.614807	0.818110	0.884950
	C180	C	0.395337	0.880071	0.193364
	C181	C	0.615644	0.128936	0.194560
	C182	C	0.395933	0.126442	0.828381
	C183	C	0.616259	0.877000	0.828197
	C184	C	0.881204	0.186359	0.400199
	C185	C	0.132573	0.187769	0.620393
	C186	C	0.133520	0.818724	0.401704
	C187	C	0.881989	0.821103	0.620549
	C188	C	0.187782	0.393716	0.884543
	C189	C	0.187248	0.611436	0.135981
	C190	C	0.820682	0.393441	0.135952
	C191	C	0.819544	0.611883	0.884622
	C192	C	0.411166	0.093672	0.606166
	C193	C	0.604310	0.912416	0.607103
	C194	C	0.602939	0.093933	0.415337
	C195	C	0.410987	0.913146	0.415342
	C196	C	0.598696	0.408089	0.101116
	C197	C	0.597585	0.598238	0.919816
	C198	C	0.409131	0.599014	0.102229
	C199	C	0.409472	0.406298	0.918614
	C200	C	0.097106	0.599082	0.414925
	C201	C	0.913388	0.601292	0.605581
	C202	C	0.096149	0.408632	0.604786
	C203	C	0.913877	0.407988	0.416696
	C204	C	0.908159	0.592929	0.105876
	C205	C	0.100609	0.411530	0.106324
	C206	C	0.100178	0.593871	0.915039
	C207	C	0.907914	0.411832	0.913409
	C208	C	0.102197	0.906365	0.603207
	C209	C	0.099544	0.097557	0.420286
	C210	C	0.912228	0.099533	0.602436
	C211	C	0.912636	0.908614	0.419253
	C212	C	0.597341	0.097783	0.917716
	C213	C	0.413989	0.099669	0.106666
	C214	C	0.596945	0.906948	0.105202
	C215	C	0.414340	0.907904	0.915023
	Zn216	Zn	0.507068	0.003406	0.761299
	Zn217	Zn	0.506782	0.002935	0.260404
	Zn218	Zn	0.753536	0.502292	0.009603
	Zn219	Zn	0.255402	0.502489	0.010310
	Zn220	Zn	0.006420	0.753182	0.511087
	Zn221	Zn	0.006370	0.253859	0.511027
	Zn222	Zn	0.004252	0.503831	0.759566
	Zn223	Zn	0.004048	0.502746	0.261298
	Zn224	Zn	0.504224	0.752958	0.010885
	Zn225	Zn	0.504661	0.252947	0.010478
	Zn226	Zn	0.757765	0.003472	0.511261
	Zn227	Zn	0.255366	0.003714	0.511409
	N228	N	0.419986	0.967471	0.691109
	N229	N	0.594758	0.038642	0.692113
	N230	N	0.593898	0.967473	0.330881
	N231	N	0.419570	0.039443	0.330954
	N232	N	0.683169	0.415927	0.973614
	N233	N	0.683351	0.588824	0.046454
	N234	N	0.325173	0.589176	0.974544
	N235	N	0.325048	0.416180	0.046219
	N236	N	0.971490	0.686001	0.421485
	N237	N	0.041265	0.683420	0.598099
	N238	N	0.970877	0.321665	0.599546
	N239	N	0.039924	0.321448	0.421877
	N240	N	0.968329	0.419061	0.687934
	N241	N	0.040157	0.591132	0.690880
	N242	N	0.968820	0.589067	0.332340
	N243	N	0.040389	0.416330	0.331217
	N244	N	0.414549	0.685539	0.976424
	N245	N	0.591722	0.683589	0.046289
	N246	N	0.592393	0.321268	0.975663
	N247	N	0.416099	0.321233	0.045678
	N248	N	0.687896	0.967871	0.423881
	N249	N	0.688278	0.038728	0.599195
	N250	N	0.325655	0.968420	0.598521
	N251	N	0.323565	0.038095	0.422294
	N252	N	0.915679	0.467939	0.192071
	N253	N	0.091258	0.537673	0.191148
	N254	N	0.091486	0.468114	0.829705
	N255	N	0.916241	0.538377	0.829343
	N256	N	0.187424	0.915091	0.476258
	N257	N	0.184766	0.089621	0.547215
	N258	N	0.826593	0.090912	0.475325
	N259	N	0.827951	0.917573	0.546616
	N260	N	0.470375	0.182619	0.923717
	N261	N	0.539104	0.186559	0.101214
	N262	N	0.470253	0.822470	0.099101
	N263	N	0.539494	0.820258	0.921570
	N264	N	0.470298	0.917081	0.190344
	N265	N	0.541295	0.090606	0.191383
	N266	N	0.470735	0.088886	0.831761
	N267	N	0.541665	0.915288	0.830421
	N268	N	0.918585	0.184808	0.475509
	N269	N	0.094437	0.184988	0.545609
	N270	N	0.096049	0.820562	0.476794
	N271	N	0.919828	0.823588	0.545657
	N272	N	0.186094	0.468191	0.922037
	N273	N	0.185888	0.536788	0.099005
	N274	N	0.822945	0.467359	0.097809
	N275	N	0.821553	0.537171	0.921375
	O276	O	0.721985	0.285793	0.490102
	H277	H	0.711807	0.297695	0.451986
	H278	H	0.753987	0.255087	0.481109
	O279	O	0.948943	0.152424	1.131735
	H280	H	0.936891	0.150029	1.124820
	H281	H	0.939836	0.153514	1.118623
	O282	O	0.226601	0.800906	0.792768
	H283	H	0.189655	0.791619	0.785464
	H284	H	0.231107	0.799596	0.810032
	O285	O	0.345118	0.690621	0.326081
	H286	H	0.330087	0.683745	0.309231
	H287	H	0.336663	0.663988	0.340318
	O288	O	1.027749	1.206564	-0.114027
	H289	H	1.028108	1.214786	-0.140639
	H290	H	1.034947	1.187831	-0.109357
	O291	O	0.543390	0.702446	0.354433
	H292	H	0.520886	0.708733	0.358542
	H293	H	0.520705	0.720571	0.345131
	O294	O	-0.125869	-0.212420	1.119994
	H295	H	-0.135440	-0.194476	1.107942
	H296	H	-0.143683	-0.227929	1.130075
	O297	O	0.511596	0.386672	0.711734
	H298	H	0.504921	0.368027	0.714623
	H299	H	0.487745	0.390832	0.714201
	O300	O	0.609394	0.556925	0.327761
	H301	H	0.600667	0.589862	0.339570
	H302	H	0.609497	0.555921	0.333252
	O303	O	0.389983	0.632132	0.491514
	H304	H	0.397713	0.646058	0.507406
	H305	H	0.382272	0.641800	0.507779
	O306	O	0.471940	0.606933	0.520405
	H307	H	0.457832	0.620096	0.517969
	H308	H	0.475128	0.616754	0.528221
	O309	O	1.004319	-0.038781	0.026063
	H310	H	1.007964	-0.021068	0.046212
	H311	H	1.004042	-0.028430	0.006636
	O312	O	-0.045352	0.929091	0.791870
	H313	H	-0.027992	0.942311	0.795197
	H314	H	-0.063530	0.931642	0.784158
	O315	O	0.503278	0.296241	0.499395
	H316	H	0.503522	0.295553	0.519803
	H317	H	0.509989	0.289553	0.511734
	O318	O	1.117533	-0.162364	0.159073
	H319	H	1.102822	-0.162883	0.160821
	H320	H	1.104675	-0.148971	0.144911
	O321	O	-0.167245	0.183953	-0.173263
	H322	H	-0.180297	0.179158	-0.144546
	H323	H	-0.136104	0.196065	-0.164692
	O324	O	0.607377	0.524874	0.499621
	H325	H	0.598589	0.530337	0.469564
	H326	H	0.625624	0.515503	0.506983
	O327	O	0.306449	0.480926	0.701373
	H328	H	0.333338	0.505450	0.700691
	H329	H	0.289103	0.483692	0.715463
	O330	O	0.083701	1.073649	0.061066
	H331	H	0.080156	1.059626	0.052486
	H332	H	0.082643	1.070697	0.093042
	O333	O	0.342482	0.712577	0.519774
	H334	H	0.339206	0.712295	0.497842
	H335	H	0.338672	0.711431	0.515454
	O336	O	0.200790	0.195652	0.138062
	H337	H	0.210011	0.211242	0.113647
	H338	H	0.158348	0.198744	0.136883
	O339	O	0.027005	0.885698	-0.017525
	H340	H	0.024444	0.903942	-0.020886
	H341	H	0.028918	0.875258	-0.008622
	O342	O	-0.020496	0.916597	0.982451
	H343	H	-0.011472	0.925427	0.992904
	H344	H	-0.013388	0.913018	0.985326
	O345	O	0.759816	0.660789	-0.135789
	H346	H	0.735480	0.661947	-0.141622
	H347	H	0.786984	0.664672	-0.126282
	O348	O	0.692062	0.478055	0.305821
	H349	H	0.713491	0.484351	0.286409
	H350	H	0.681288	0.499509	0.307695
	O351	O	0.206462	1.089708	1.099498
	H352	H	0.216189	1.092324	1.112136
	H353	H	0.213600	1.094635	1.097666
	O354	O	0.181839	1.025518	0.102807
	H355	H	0.181987	1.053079	0.108282
	H356	H	0.187907	1.022317	0.114764
	O357	O	0.158598	-0.218322	1.026472
	H358	H	0.146263	-0.223665	0.992381
	H359	H	0.187820	-0.221575	1.012918
	O360	O	0.600308	0.412184	0.600080
	H361	H	0.613143	0.429972	0.594656
	H362	H	0.617082	0.412575	0.597301
	O363	O	0.081034	0.011490	0.800317
	H364	H	0.098013	0.000594	0.806751
	H365	H	0.094236	0.011891	0.794225
	O366	O	0.609909	0.634932	0.505210
	H367	H	0.596285	0.628437	0.505618
	H368	H	0.602354	0.628614	0.495140
	O369	O	0.326993	0.326631	0.689031
	H370	H	0.318508	0.335753	0.659359
	H371	H	0.314501	0.354415	0.682112
	O372	O	1.079731	0.136109	0.938594
	H373	H	1.076650	0.137519	0.923063
	H374	H	1.078804	0.142425	0.936374
	O375	O	0.438026	0.454378	0.304550
	H376	H	0.452442	0.470061	0.313303
	H377	H	0.438036	0.441641	0.300420
	O378	O	0.610390	0.702395	0.705312
	H379	H	0.623692	0.691125	0.715046
	H380	H	0.603678	0.711578	0.683140
	O381	O	0.396971	0.489993	0.610241
	H382	H	0.402924	0.483843	0.599486
	H383	H	0.423093	0.482169	0.610284
	O384	O	0.528155	0.290760	0.302551
	H385	H	0.518382	0.277589	0.291231
	H386	H	0.527147	0.284428	0.300605
	O387	O	0.212834	-0.017989	0.801006
	H388	H	0.228921	-0.023328	0.807790
	H389	H	0.219324	-0.031625	0.799668
	O390	O	-0.212808	-0.023345	0.227162
	H391	H	-0.249125	-0.031085	0.262393
	H392	H	-0.198564	-0.073138	0.213431
	O393	O	1.077327	1.191308	0.830131
	H394	H	1.064063	1.178530	0.832824
	H395	H	1.082157	1.201860	0.805232
	O396	O	0.811386	-0.100944	-0.087133
	H397	H	0.826930	-0.090766	-0.097525
	H398	H	0.821693	-0.079990	-0.085957
	O399	O	0.793089	0.035180	0.801150
	H400	H	0.796964	0.067540	0.799302
	H401	H	0.777735	0.031205	0.778073
	O402	O	1.223688	1.024355	1.009368
	H403	H	1.249481	1.027554	1.018016
	H404	H	1.219826	1.043289	1.012544
	O405	O	1.024324	0.844703	0.216850
	H406	H	1.014334	0.839386	0.232954
	H407	H	1.041986	0.845980	0.213489
	O408	O	0.816183	-0.181816	0.193794
	H409	H	0.849424	-0.195157	0.185705
	H410	H	0.809353	-0.198348	0.162738
	O411	O	1.026787	1.213423	0.221487
	H412	H	1.029493	1.222300	0.230587
	H413	H	1.016833	1.222855	0.220631
	O414	O	0.372116	0.355822	0.534704
	H415	H	0.366252	0.357272	0.525099
	H416	H	0.360743	0.351269	0.530475
	O417	O	0.303685	0.437176	0.448122
	H418	H	0.324350	0.438988	0.433461
	H419	H	0.305052	0.449024	0.479133
	O420	O	-0.054042	0.043945	0.137318
	H421	H	-0.055222	0.046083	0.155463
	H422	H	-0.067006	0.033163	0.128356
	O423	O	0.579533	0.513948	0.605090
	H424	H	0.588811	0.506246	0.627366
	H425	H	0.582965	0.490367	0.588526
	O426	O	0.527326	0.422437	0.695970
	H427	H	0.539150	0.406091	0.680278
	H428	H	0.506759	0.418155	0.689574
	O429	O	0.059426	1.025727	0.223895
	H430	H	0.032001	1.022229	0.227099
	H431	H	0.066041	1.038953	0.234177
	O432	O	0.388032	0.565097	0.308484
	H433	H	0.377252	0.554500	0.315510
	H434	H	0.383737	0.543939	0.306685
	O435	O	0.393425	0.544723	0.439949
	H436	H	0.393287	0.548230	0.430779
	H437	H	0.392635	0.537465	0.441500
	O438	O	-0.202913	0.206948	-0.007712
	H439	H	-0.206658	0.181016	0.010165
	H440	H	-0.218071	0.223131	-0.000393
	O441	O	0.793202	0.056468	0.076704
	H442	H	0.794678	0.038584	0.079693
	H443	H	0.799997	0.039196	0.096104
	O444	O	0.018630	0.804772	0.833125
	H445	H	0.028434	0.781313	0.823007
	H446	H	0.003823	0.814900	0.833487
	O447	O	0.660434	0.503790	0.574449
	H448	H	0.677444	0.493529	0.595027
	H449	H	0.651806	0.497117	0.567996
	O450	O	0.609957	0.707112	0.702970
	H451	H	0.625361	0.715489	0.723178
	H452	H	0.615269	0.713359	0.694359
	O453	O	0.689590	0.321911	0.328991
	H454	H	0.644554	0.316926	0.321739
	H455	H	0.699774	0.367094	0.321422
