data_Molecule from HDF5

_cell_length_a		16.254725
_cell_length_b		16.248912
_cell_length_c		16.200963
_cell_angle_alpha	89.835508
_cell_angle_beta	89.978397
_cell_angle_gamma	90.005163
_symmetry_space_group_name_H-M	'P 1'
_symmetry_Int_Tables_number		1

loop_
	_symmetry_equiv_pos_as_xyz
	x,y,z

loop_
	_atom_site_label
	_atom_site_type_symbol
	_atom_site_fract_x
	_atom_site_fract_y
	_atom_site_fract_z
	H0	H	0.409410	0.837298	0.713538
	H1	H	0.603843	0.165466	0.712664
	H2	H	0.604541	0.837086	0.286902
	H3	H	0.408988	0.164873	0.284444
	H4	H	0.721265	0.400874	0.834584
	H5	H	0.721267	0.598626	0.163088
	H6	H	0.293477	0.599264	0.834697
	H7	H	0.292584	0.401070	0.163844
	H8	H	0.842763	0.716407	0.399549
	H9	H	0.171190	0.714384	0.595634
	H10	H	0.843241	0.287739	0.598164
	H11	H	0.171125	0.287968	0.400739
	H12	H	0.843585	0.403987	0.713647
	H13	H	0.171069	0.598913	0.711805
	H14	H	0.842182	0.599370	0.285019
	H15	H	0.171242	0.405245	0.285634
	H16	H	0.408907	0.714560	0.834891
	H17	H	0.604996	0.712982	0.164419
	H18	H	0.604270	0.288379	0.834013
	H19	H	0.409458	0.287124	0.163715
	H20	H	0.721917	0.838005	0.400999
	H21	H	0.720777	0.165911	0.598950
	H22	H	0.292273	0.837891	0.599015
	H23	H	0.293064	0.165300	0.399634
	H24	H	0.908504	0.337318	0.213860
	H25	H	0.103277	0.666261	0.210204
	H26	H	0.104424	0.336796	0.786022
	H27	H	0.909577	0.666108	0.785398
	H28	H	0.221521	0.903454	0.335055
	H29	H	0.221057	0.100154	0.663286
	H30	H	0.792831	0.100860	0.336107
	H31	H	0.793245	0.903666	0.663477
	H32	H	0.343262	0.215884	0.900397
	H33	H	0.670426	0.215851	0.097934
	H34	H	0.343076	0.786171	0.098535
	H35	H	0.671451	0.787038	0.901944
	H36	H	0.343071	0.902927	0.213788
	H37	H	0.671700	0.098153	0.212207
	H38	H	0.342629	0.099246	0.786145
	H39	H	0.671294	0.904146	0.785997
	H40	H	0.908797	0.216135	0.335670
	H41	H	0.105463	0.214808	0.663823
	H42	H	0.104811	0.789137	0.334538
	H43	H	0.908580	0.788049	0.663833
	H44	H	0.219973	0.336837	0.901477
	H45	H	0.220941	0.664733	0.096938
	H46	H	0.793758	0.336189	0.096747
	H47	H	0.791277	0.664298	0.899708
	H48	H	0.416408	0.120645	0.601362
	H49	H	0.602490	0.883143	0.593530
	H50	H	0.601137	0.117795	0.409868
	H51	H	0.420148	0.884884	0.402813
	H52	H	0.589682	0.406675	0.113781
	H53	H	0.596757	0.589799	0.883320
	H54	H	0.415594	0.581138	0.112587
	H55	H	0.417036	0.410111	0.883978
	H56	H	0.124483	0.597653	0.404478
	H57	H	0.893767	0.590393	0.581305
	H58	H	0.123930	0.406678	0.590534
	H59	H	0.892543	0.408282	0.416654
	H60	H	0.124838	0.409946	0.593158
	H61	H	0.888565	0.588028	0.602130
	H62	H	0.122899	0.595002	0.405765
	H63	H	0.891208	0.417346	0.402303
	H64	H	0.422850	0.601555	0.115902
	H65	H	0.596374	0.598353	0.881160
	H66	H	0.606222	0.398291	0.121581
	H67	H	0.412841	0.403399	0.880548
	H68	H	0.602857	0.120287	0.402782
	H69	H	0.598432	0.885270	0.593935
	H70	H	0.417756	0.115964	0.586700
	H71	H	0.413432	0.886225	0.414282
	H72	H	0.917150	0.614317	0.083236
	H73	H	0.094745	0.382933	0.101257
	H74	H	0.103674	0.622760	0.893770
	H75	H	0.901922	0.383995	0.916581
	H76	H	0.097373	0.900618	0.618402
	H77	H	0.097671	0.100331	0.380823
	H78	H	0.916546	0.091419	0.615747
	H79	H	0.909913	0.905902	0.379775
	H80	H	0.620918	0.086175	0.909187
	H81	H	0.391541	0.087536	0.091434
	H82	H	0.623939	0.905906	0.092075
	H83	H	0.390025	0.905888	0.906574
	H84	H	0.624973	0.907095	0.093986
	H85	H	0.387673	0.096076	0.099096
	H86	H	0.627247	0.096548	0.896969
	H87	H	0.389950	0.907227	0.907039
	H88	H	0.915163	0.099514	0.619072
	H89	H	0.106255	0.094507	0.380143
	H90	H	0.106932	0.908888	0.618162
	H91	H	0.912240	0.914563	0.382315
	H92	H	0.089527	0.614209	0.907850
	H93	H	0.095636	0.387535	0.084181
	H94	H	0.902874	0.621340	0.091018
	H95	H	0.911326	0.378865	0.891280
	H96	H	0.404258	0.120696	0.591402
	H97	H	0.600918	0.885242	0.590140
	H98	H	0.595950	0.118189	0.404482
	H99	H	0.406966	0.881266	0.404109
	H100	H	0.605552	0.417422	0.114837
	H101	H	0.604314	0.594238	0.880209
	H102	H	0.402237	0.596419	0.121166
	H103	H	0.409100	0.411156	0.880733
	H104	H	0.124706	0.596101	0.403488
	H105	H	0.885951	0.606651	0.592317
	H106	H	0.125815	0.405864	0.594286
	H107	H	0.886674	0.401053	0.401914
	H108	H	0.917788	0.618670	0.099884
	H109	H	0.110116	0.380854	0.092462
	H110	H	0.110004	0.618818	0.914227
	H111	H	0.928494	0.389673	0.910826
	H112	H	0.096397	0.912773	0.613828
	H113	H	0.096775	0.090131	0.384526
	H114	H	0.908662	0.093588	0.618771
	H115	H	0.918752	0.907841	0.382122
	H116	H	0.624039	0.101972	0.912679
	H117	H	0.390431	0.099071	0.087115
	H118	H	0.624979	0.905092	0.093925
	H119	H	0.389670	0.906878	0.905491
	C120	C	0.384770	0.010375	0.621585
	C121	C	0.628743	0.993051	0.621247
	C122	C	0.628228	0.010178	0.378026
	C123	C	0.385501	0.992704	0.378269
	C124	C	0.628052	0.379503	0.007461
	C125	C	0.628037	0.621853	0.990745
	C126	C	0.385121	0.622169	0.007751
	C127	C	0.384877	0.379257	0.990582
	C128	C	0.015376	0.623909	0.376494
	C129	C	0.998026	0.623163	0.620189
	C130	C	0.016046	0.379592	0.620925
	C131	C	0.998409	0.380571	0.377936
	C132	C	0.884750	0.509369	0.120217
	C133	C	0.128397	0.492384	0.120577
	C134	C	0.128650	0.509820	0.877430
	C135	C	0.885142	0.492658	0.877127
	C136	C	0.128636	0.879911	0.507612
	C137	C	0.128725	0.123180	0.490755
	C138	C	0.885385	0.123455	0.508880
	C139	C	0.885234	0.880594	0.490351
	C140	C	0.515599	0.122924	0.877899
	C141	C	0.498415	0.122386	0.120689
	C142	C	0.516048	0.878425	0.121745
	C143	C	0.498394	0.879141	0.878209
	C144	C	0.388568	0.886321	0.675836
	C145	C	0.625256	0.116672	0.675414
	C146	C	0.625731	0.886295	0.323671
	C147	C	0.388554	0.116153	0.322655
	C148	C	0.683045	0.381261	0.883510
	C149	C	0.683409	0.619120	0.114166
	C150	C	0.331158	0.619499	0.883821
	C151	C	0.330125	0.381082	0.114635
	C152	C	0.891614	0.678689	0.379155
	C153	C	0.122005	0.677197	0.616482
	C154	C	0.892352	0.325090	0.618680
	C155	C	0.122113	0.325792	0.380225
	C156	C	0.892498	0.382908	0.675979
	C157	C	0.122085	0.619643	0.674158
	C158	C	0.891309	0.620532	0.322465
	C159	C	0.122106	0.384208	0.323338
	C160	C	0.388177	0.677235	0.884249
	C161	C	0.625639	0.675690	0.114771
	C162	C	0.624997	0.325349	0.883396
	C163	C	0.388518	0.324639	0.114635
	C164	C	0.683552	0.886725	0.380788
	C165	C	0.683384	0.116668	0.618737
	C166	C	0.330237	0.886825	0.619117
	C167	C	0.330984	0.116343	0.380060
	C168	C	0.887761	0.386107	0.175823
	C169	C	0.124551	0.616636	0.173874
	C170	C	0.125347	0.385960	0.823376
	C171	C	0.888303	0.616620	0.822612
	C172	C	0.183668	0.883162	0.384091
	C173	C	0.183294	0.120275	0.614290
	C174	C	0.830462	0.121449	0.385051
	C175	C	0.830870	0.883221	0.614525
	C176	C	0.391878	0.177654	0.880537
	C177	C	0.621931	0.177446	0.117925
	C178	C	0.392184	0.823725	0.119344
	C179	C	0.622226	0.824513	0.880914
	C180	C	0.392048	0.881583	0.176517
	C181	C	0.622512	0.118994	0.174626
	C182	C	0.391611	0.119680	0.823609
	C183	C	0.622329	0.882728	0.823565
	C184	C	0.888225	0.178570	0.384832
	C185	C	0.125885	0.177413	0.614611
	C186	C	0.125592	0.826535	0.383671
	C187	C	0.887878	0.825462	0.614418
	C188	C	0.182633	0.385835	0.880653
	C189	C	0.182690	0.616067	0.117242
	C190	C	0.830811	0.385611	0.117736
	C191	C	0.829925	0.615920	0.879649
	C192	C	0.406445	0.096886	0.599672
	C193	C	0.606912	0.906818	0.599199
	C194	C	0.606335	0.096425	0.399394
	C195	C	0.407148	0.906548	0.400623
	C196	C	0.606671	0.401004	0.094300
	C197	C	0.605931	0.600314	0.904022
	C198	C	0.407018	0.599723	0.094412
	C199	C	0.406660	0.401656	0.904018
	C200	C	0.101465	0.602691	0.398204
	C201	C	0.911695	0.601539	0.598422
	C202	C	0.102506	0.401173	0.599080
	C203	C	0.912439	0.402381	0.400376
	C204	C	0.906314	0.595820	0.097970
	C205	C	0.106504	0.406021	0.099054
	C206	C	0.107423	0.596280	0.898862
	C207	C	0.907267	0.406464	0.899534
	C208	C	0.106806	0.901016	0.594526
	C209	C	0.106727	0.101319	0.403943
	C210	C	0.907013	0.101387	0.595409
	C211	C	0.907064	0.902968	0.403725
	C212	C	0.601845	0.101245	0.899807
	C213	C	0.412122	0.100506	0.099126
	C214	C	0.602143	0.899781	0.099930
	C215	C	0.412144	0.900413	0.899812
	Zn216	Zn	0.507061	0.001764	0.749558
	Zn217	Zn	0.507101	0.000700	0.249353
	Zn218	Zn	0.756010	0.500021	-0.001466
	Zn219	Zn	0.256478	0.500472	-0.000776
	Zn220	Zn	0.006693	0.751720	0.498626
	Zn221	Zn	0.007297	0.251326	0.499589
	Zn222	Zn	0.007443	0.501753	0.748888
	Zn223	Zn	0.006553	0.501833	0.248907
	Zn224	Zn	0.506966	0.750290	-0.000032
	Zn225	Zn	0.506997	0.251367	-0.000954
	Zn226	Zn	0.756857	0.001859	0.499786
	Zn227	Zn	0.256971	0.001766	0.499519
	N228	N	0.421864	0.964330	0.677501
	N229	N	0.591789	0.038931	0.676898
	N230	N	0.591827	0.963902	0.321916
	N231	N	0.421583	0.038140	0.321147
	N232	N	0.684867	0.414319	0.961448
	N233	N	0.684736	0.586027	0.035920
	N234	N	0.329208	0.585773	0.961823
	N235	N	0.328021	0.414600	0.036508
	N236	N	0.969531	0.680882	0.412235
	N237	N	0.043888	0.679493	0.583712
	N238	N	0.970183	0.322978	0.585292
	N239	N	0.044239	0.323361	0.413540
	N240	N	0.970403	0.416086	0.677521
	N241	N	0.044180	0.586833	0.676573
	N242	N	0.969181	0.587418	0.320438
	N243	N	0.044303	0.417495	0.321808
	N244	N	0.421063	0.678736	0.962426
	N245	N	0.591898	0.677616	0.036930
	N246	N	0.591380	0.324065	0.961478
	N247	N	0.421886	0.323516	0.036627
	N248	N	0.685213	0.964613	0.413760
	N249	N	0.685447	0.038766	0.585747
	N250	N	0.327834	0.964865	0.586263
	N251	N	0.329174	0.038654	0.413850
	N252	N	0.920601	0.464068	0.177370
	N253	N	0.091364	0.538650	0.175956
	N254	N	0.092287	0.463970	0.821428
	N255	N	0.921867	0.539016	0.820972
	N256	N	0.185537	0.915760	0.462423
	N257	N	0.184910	0.087165	0.536338
	N258	N	0.828722	0.087682	0.463016
	N259	N	0.829085	0.916523	0.536424
	N260	N	0.469903	0.179827	0.913591
	N261	N	0.543871	0.179771	0.085154
	N262	N	0.470116	0.821679	0.086041
	N263	N	0.544283	0.822048	0.913862
	N264	N	0.469842	0.914923	0.178148
	N265	N	0.544689	0.085515	0.176615
	N266	N	0.469396	0.086347	0.821936
	N267	N	0.544499	0.916071	0.821735
	N268	N	0.921786	0.179614	0.462776
	N269	N	0.092423	0.179102	0.536608
	N270	N	0.091779	0.824586	0.461382
	N271	N	0.921154	0.823774	0.536216
	N272	N	0.185006	0.463806	0.913380
	N273	N	0.185260	0.537828	0.085061
	N274	N	0.828880	0.463278	0.083921
	N275	N	0.827802	0.537684	0.912618
	O276	O	-0.464111	-0.466073	1.501225
	H277	H	-0.462878	-0.463399	1.505651
	H278	H	-0.462946	-0.471828	1.498043
	O279	O	0.509525	0.505004	0.479066
	H280	H	0.514043	0.503967	0.476045
	H281	H	0.513164	0.501626	0.483888
	O282	O	0.555437	0.516663	0.492143
	H283	H	0.553612	0.514543	0.489192
	H284	H	0.561130	0.516857	0.491837
	O285	O	0.510206	1.559606	-0.480805
	H286	H	0.499253	1.553835	-0.479789
	H287	H	0.507261	1.568086	-0.481389
	O288	O	0.482581	0.503917	0.456448
	H289	H	0.484644	0.508735	0.461000
	H290	H	0.472285	0.510524	0.459037
	O291	O	-0.485658	0.529329	1.450416
	H292	H	-0.490854	0.535915	1.452582
	H293	H	-0.477533	0.528424	1.450755
	O294	O	0.511291	0.485668	0.495563
	H295	H	0.507543	0.490343	0.495616
	H296	H	0.514801	0.482175	0.482171
	O297	O	1.002981	-0.013738	0.014469
	H298	H	1.005134	-0.014194	0.010162
	H299	H	1.002758	-0.013020	0.018380
