data_Molecule from HDF5

_cell_length_a		16.377412
_cell_length_b		16.143861
_cell_length_c		16.136766
_cell_angle_alpha	90.124556
_cell_angle_beta	90.300501
_cell_angle_gamma	90.488970
_symmetry_space_group_name_H-M	'P 1'
_symmetry_Int_Tables_number		1

loop_
	_symmetry_equiv_pos_as_xyz
	x,y,z

loop_
	_atom_site_label
	_atom_site_type_symbol
	_atom_site_fract_x
	_atom_site_fract_y
	_atom_site_fract_z
	H0	H	0.393655	0.841458	0.712081
	H1	H	0.595134	0.169858	0.713014
	H2	H	0.594193	0.842859	0.279394
	H3	H	0.398416	0.170452	0.284744
	H4	H	0.708162	0.402314	0.835216
	H5	H	0.715731	0.611893	0.160392
	H6	H	0.273923	0.605311	0.836734
	H7	H	0.275036	0.399953	0.162495
	H8	H	0.830840	0.719449	0.396623
	H9	H	0.154832	0.723405	0.602946
	H10	H	0.832102	0.282624	0.600202
	H11	H	0.157182	0.291232	0.401804
	H12	H	0.829645	0.402487	0.713378
	H13	H	0.155104	0.604837	0.717878
	H14	H	0.830638	0.601273	0.281769
	H15	H	0.154739	0.403266	0.283843
	H16	H	0.394013	0.717230	0.834115
	H17	H	0.596914	0.723311	0.162871
	H18	H	0.588037	0.293178	0.833301
	H19	H	0.394674	0.290036	0.164205
	H20	H	0.709816	0.842413	0.392307
	H21	H	0.714628	0.166589	0.602978
	H22	H	0.274368	0.843730	0.602708
	H23	H	0.279208	0.168804	0.395513
	H24	H	0.893628	0.337623	0.211468
	H25	H	0.093464	0.667121	0.215407
	H26	H	0.088409	0.338726	0.786850
	H27	H	0.892306	0.667194	0.782936
	H28	H	0.209063	0.902447	0.335262
	H29	H	0.213292	0.108700	0.661786
	H30	H	0.775059	0.108089	0.335311
	H31	H	0.773364	0.898284	0.660128
	H32	H	0.329985	0.218986	0.897253
	H33	H	0.655717	0.225266	0.098967
	H34	H	0.332740	0.786255	0.101066
	H35	H	0.655269	0.788038	0.898155
	H36	H	0.332728	0.904227	0.213516
	H37	H	0.656566	0.108914	0.215913
	H38	H	0.332130	0.103738	0.780732
	H39	H	0.655858	0.905911	0.782839
	H40	H	0.896471	0.216614	0.333102
	H41	H	0.092296	0.217201	0.664098
	H42	H	0.089707	0.790547	0.333496
	H43	H	0.893286	0.788939	0.663010
	H44	H	0.206357	0.339707	0.899231
	H45	H	0.211916	0.665900	0.105165
	H46	H	0.772668	0.341327	0.101280
	H47	H	0.776980	0.666471	0.895141
	H48	H	0.405335	0.123767	0.592295
	H49	H	0.586444	0.888982	0.582084
	H50	H	0.587767	0.121992	0.409980
	H51	H	0.401485	0.889479	0.409688
	H52	H	0.572892	0.418937	0.110733
	H53	H	0.593477	0.586050	0.882436
	H54	H	0.405347	0.592246	0.114747
	H55	H	0.398584	0.417281	0.883520
	H56	H	0.107568	0.590355	0.404430
	H57	H	0.879521	0.593883	0.585388
	H58	H	0.109639	0.408906	0.594807
	H59	H	0.875611	0.409090	0.400728
	H60	H	0.108144	0.412883	0.591514
	H61	H	0.878400	0.592034	0.593014
	H62	H	0.111237	0.603098	0.405152
	H63	H	0.876572	0.403119	0.410185
	H64	H	0.403335	0.597720	0.117292
	H65	H	0.573417	0.593131	0.887222
	H66	H	0.587979	0.405130	0.120555
	H67	H	0.401029	0.408545	0.881264
	H68	H	0.587725	0.122332	0.408688
	H69	H	0.588811	0.884976	0.593770
	H70	H	0.405511	0.121323	0.585512
	H71	H	0.398459	0.887322	0.405903
	H72	H	0.910294	0.620160	0.096786
	H73	H	0.083122	0.386678	0.089165
	H74	H	0.088386	0.622698	0.906940
	H75	H	0.897942	0.384034	0.901398
	H76	H	0.096405	0.915620	0.618911
	H77	H	0.085565	0.101698	0.380042
	H78	H	0.902799	0.088048	0.614141
	H79	H	0.903995	0.915625	0.383245
	H80	H	0.610952	0.101531	0.903678
	H81	H	0.377914	0.106167	0.085228
	H82	H	0.610784	0.914617	0.093163
	H83	H	0.380579	0.916437	0.908303
	H84	H	0.609427	0.911863	0.085843
	H85	H	0.382689	0.087723	0.085429
	H86	H	0.609554	0.103505	0.909540
	H87	H	0.376803	0.912272	0.898168
	H88	H	0.907636	0.092166	0.613484
	H89	H	0.093200	0.097455	0.378170
	H90	H	0.082803	0.924009	0.611600
	H91	H	0.901027	0.908444	0.380223
	H92	H	0.080413	0.619460	0.909190
	H93	H	0.088359	0.384367	0.090525
	H94	H	0.903968	0.617185	0.081400
	H95	H	0.903695	0.388703	0.910029
	H96	H	0.399119	0.124173	0.587761
	H97	H	0.577678	0.889489	0.590899
	H98	H	0.586068	0.121971	0.408648
	H99	H	0.403472	0.888760	0.405392
	H100	H	0.593348	0.426593	0.115329
	H101	H	0.588576	0.606896	0.877253
	H102	H	0.399743	0.593278	0.117212
	H103	H	0.392577	0.412027	0.879197
	H104	H	0.105966	0.597242	0.416066
	H105	H	0.876524	0.599028	0.590730
	H106	H	0.109445	0.412995	0.596412
	H107	H	0.879541	0.413498	0.409307
	H108	H	0.895584	0.624168	0.093074
	H109	H	0.084418	0.384249	0.094637
	H110	H	0.086151	0.620017	0.914708
	H111	H	0.892769	0.385759	0.911626
	H112	H	0.081621	0.906001	0.616897
	H113	H	0.086892	0.093053	0.382340
	H114	H	0.901364	0.094501	0.616472
	H115	H	0.896233	0.915704	0.380907
	H116	H	0.607948	0.097404	0.907902
	H117	H	0.375370	0.096646	0.101146
	H118	H	0.607229	0.918867	0.087459
	H119	H	0.377209	0.905133	0.907664
	C120	C	0.372646	0.015019	0.619297
	C121	C	0.615631	0.995758	0.619560
	C122	C	0.615621	0.014154	0.376897
	C123	C	0.373056	0.997022	0.376825
	C124	C	0.613211	0.385951	0.007000
	C125	C	0.616598	0.627168	0.990063
	C126	C	0.372357	0.624396	0.007830
	C127	C	0.369501	0.382266	0.990439
	C128	C	0.001215	0.625511	0.377639
	C129	C	0.984740	0.626107	0.621497
	C130	C	0.001636	0.381093	0.622167
	C131	C	0.985023	0.381003	0.378068
	C132	C	0.872276	0.512065	0.119901
	C133	C	0.115440	0.493629	0.122185
	C134	C	0.112982	0.512219	0.879899
	C135	C	0.870099	0.494650	0.877628
	C136	C	0.115324	0.884331	0.507442
	C137	C	0.117566	0.126868	0.489431
	C138	C	0.873589	0.123264	0.506540
	C139	C	0.870796	0.882585	0.489549
	C140	C	0.501848	0.127783	0.876862
	C141	C	0.485753	0.128130	0.120295
	C142	C	0.502888	0.884010	0.119495
	C143	C	0.485111	0.882430	0.875932
	C144	C	0.373385	0.891174	0.675382
	C145	C	0.615591	0.119901	0.676220
	C146	C	0.614075	0.891527	0.318207
	C147	C	0.376598	0.120678	0.321420
	C148	C	0.669362	0.384776	0.883914
	C149	C	0.675816	0.629495	0.112054
	C150	C	0.314150	0.624081	0.884965
	C151	C	0.314070	0.381704	0.113895
	C152	C	0.879248	0.681128	0.377386
	C153	C	0.106387	0.684264	0.621886
	C154	C	0.880161	0.322254	0.620040
	C155	C	0.108001	0.327595	0.380841
	C156	C	0.878923	0.382139	0.676254
	C157	C	0.106477	0.625288	0.679316
	C158	C	0.879273	0.622384	0.319996
	C159	C	0.106677	0.383587	0.322023
	C160	C	0.373928	0.679674	0.883727
	C161	C	0.616418	0.685001	0.113274
	C162	C	0.609639	0.330242	0.882834
	C163	C	0.373368	0.326762	0.114569
	C164	C	0.671761	0.891480	0.374253
	C165	C	0.674729	0.118405	0.621081
	C166	C	0.314199	0.892090	0.620525
	C167	C	0.317218	0.119876	0.376553
	C168	C	0.872822	0.387633	0.174825
	C169	C	0.113668	0.617846	0.178091
	C170	C	0.109732	0.388306	0.823905
	C171	C	0.872397	0.618025	0.820854
	C172	C	0.170341	0.884222	0.383831
	C173	C	0.174154	0.126930	0.612932
	C174	C	0.815595	0.124989	0.383754
	C175	C	0.813070	0.880799	0.611866
	C176	C	0.379124	0.181604	0.877768
	C177	C	0.607560	0.186041	0.119064
	C178	C	0.381192	0.825605	0.119812
	C179	C	0.606956	0.826511	0.878075
	C180	C	0.381095	0.884178	0.176002
	C181	C	0.607882	0.128366	0.177349
	C182	C	0.380166	0.124390	0.819441
	C183	C	0.607281	0.885126	0.820748
	C184	C	0.875818	0.179304	0.382793
	C185	C	0.114185	0.181081	0.614271
	C186	C	0.110988	0.828254	0.383190
	C187	C	0.872751	0.826182	0.613236
	C188	C	0.168408	0.388796	0.879936
	C189	C	0.172743	0.617164	0.123155
	C190	C	0.812855	0.389570	0.120075
	C191	C	0.815148	0.617854	0.877121
	C192	C	0.396364	0.100714	0.595499
	C193	C	0.591563	0.910210	0.595750
	C194	C	0.593573	0.099969	0.401832
	C195	C	0.394749	0.910795	0.400105
	C196	C	0.591160	0.409899	0.093123
	C197	C	0.592291	0.602441	0.904477
	C198	C	0.395951	0.601161	0.093999
	C199	C	0.391142	0.405653	0.903865
	C200	C	0.086182	0.603562	0.401734
	C201	C	0.900150	0.602141	0.596942
	C202	C	0.086918	0.404621	0.600604
	C203	C	0.899545	0.402319	0.400325
	C204	C	0.896212	0.598049	0.097081
	C205	C	0.092114	0.407480	0.098570
	C206	C	0.091267	0.598484	0.903331
	C207	C	0.891629	0.408420	0.900936
	C208	C	0.093380	0.908124	0.593557
	C209	C	0.095221	0.104055	0.402644
	C210	C	0.897056	0.098863	0.592480
	C211	C	0.893604	0.906291	0.403806
	C212	C	0.587202	0.106853	0.900099
	C213	C	0.400638	0.103988	0.097192
	C214	C	0.587161	0.908041	0.095788
	C215	C	0.400178	0.904752	0.898272
	Zn216	Zn	0.494153	0.005712	0.747108
	Zn217	Zn	0.494634	0.005462	0.248953
	Zn218	Zn	0.743579	0.504868	-0.001535
	Zn219	Zn	0.242140	0.503641	0.000628
	Zn220	Zn	-0.007068	0.755668	0.498785
	Zn221	Zn	-0.005145	0.252058	0.498848
	Zn222	Zn	-0.008239	0.503472	0.751155
	Zn223	Zn	-0.006588	0.502342	0.248429
	Zn224	Zn	0.493385	0.753754	-0.000885
	Zn225	Zn	0.492458	0.257394	-0.001543
	Zn226	Zn	0.743039	0.003892	0.497850
	Zn227	Zn	0.244942	0.005609	0.498079
	N228	N	0.409244	0.968568	0.674687
	N229	N	0.579549	0.042688	0.675575
	N230	N	0.579986	0.968812	0.319783
	N231	N	0.410690	0.043198	0.321509
	N232	N	0.671669	0.418669	0.962344
	N233	N	0.675872	0.594306	0.034294
	N234	N	0.313044	0.590531	0.963373
	N235	N	0.311672	0.415520	0.035818
	N236	N	0.955994	0.683223	0.412354
	N237	N	0.029530	0.684961	0.586927
	N238	N	0.957369	0.321673	0.586959
	N239	N	0.031180	0.325828	0.414953
	N240	N	0.955361	0.418099	0.677532
	N241	N	0.029812	0.589928	0.679276
	N242	N	0.956172	0.588432	0.319960
	N243	N	0.029368	0.416094	0.320237
	N244	N	0.409530	0.679786	0.961130
	N245	N	0.580062	0.683645	0.036429
	N246	N	0.575452	0.330721	0.960407
	N247	N	0.407124	0.327077	0.036554
	N248	N	0.672869	0.968830	0.410040
	N249	N	0.675033	0.040361	0.586796
	N250	N	0.313782	0.969942	0.586375
	N251	N	0.315110	0.041858	0.410496
	N252	N	0.909024	0.464796	0.175061
	N253	N	0.079084	0.540046	0.177742
	N254	N	0.076029	0.466116	0.823730
	N255	N	0.905917	0.540348	0.821032
	N256	N	0.173286	0.918278	0.462122
	N257	N	0.176227	0.093943	0.534307
	N258	N	0.814062	0.090836	0.461829
	N259	N	0.811626	0.915059	0.534001
	N260	N	0.455820	0.183884	0.912876
	N261	N	0.530644	0.186132	0.084542
	N262	N	0.457757	0.825285	0.085494
	N263	N	0.529997	0.824727	0.911674
	N264	N	0.457641	0.919850	0.176110
	N265	N	0.531102	0.092939	0.178157
	N266	N	0.457354	0.091669	0.818860
	N267	N	0.530544	0.919055	0.819080
	N268	N	0.911300	0.178357	0.460287
	N269	N	0.079627	0.181058	0.536505
	N270	N	0.077604	0.828078	0.461236
	N271	N	0.908001	0.827122	0.536209
	N272	N	0.170380	0.466865	0.914217
	N273	N	0.173894	0.538868	0.089135
	N274	N	0.812330	0.467949	0.086755
	N275	N	0.813830	0.540226	0.911596
	O276	O	0.900959	-0.144694	1.014538
	H277	H	0.903923	-0.140366	1.005734
	H278	H	0.893669	-0.151885	1.010688
	O279	O	0.341558	0.587763	0.508203
	H280	H	0.349836	0.593035	0.515338
	H281	H	0.338827	0.606815	0.520831
	O282	O	0.581387	0.603002	0.605875
	H283	H	0.587194	0.608480	0.606244
	H284	H	0.580090	0.600670	0.606824
	O285	O	0.415893	0.618912	0.457144
	H286	H	0.421770	0.621747	0.462575
	H287	H	0.422415	0.636332	0.459904
	O288	O	0.405251	0.573227	0.503074
	H289	H	0.406939	0.578048	0.505548
	H290	H	0.400131	0.583412	0.490137
	O291	O	-0.053294	-0.002942	0.979328
	H292	H	-0.056044	-0.012153	0.993559
	H293	H	-0.045719	0.008946	0.970349
	O294	O	0.917901	1.038319	0.024417
	H295	H	0.919997	1.041568	0.011671
	H296	H	0.907035	1.044733	0.021190
	O297	O	1.023638	1.027494	-0.100489
	H298	H	1.041414	1.022986	-0.088170
	H299	H	1.027717	1.018957	-0.104417
	O300	O	0.617058	0.478544	0.372869
	H301	H	0.623933	0.480516	0.377137
	H302	H	0.624035	0.484402	0.371545
	O303	O	0.636159	0.484590	0.571782
	H304	H	0.633463	0.482740	0.551560
	H305	H	0.638316	0.484836	0.580274
	O306	O	0.566624	0.427880	0.572415
	H307	H	0.563407	0.427109	0.561211
	H308	H	0.581021	0.426978	0.566125
	O309	O	0.452608	0.462948	0.428575
	H310	H	0.447108	0.458173	0.422164
	H311	H	0.459022	0.467717	0.419401
	O312	O	0.892209	0.951236	1.111913
	H313	H	0.893465	0.971052	1.104315
	H314	H	0.888990	0.946493	1.107753
	O315	O	0.987269	0.987179	-0.062733
	H316	H	0.987095	0.979870	-0.068062
	H317	H	0.984515	0.984014	-0.064289
	O318	O	0.626787	0.542510	0.471044
	H319	H	0.627529	0.544225	0.456839
	H320	H	0.621481	0.529823	0.475808
	O321	O	0.499534	0.514377	0.450135
	H322	H	0.497284	0.507813	0.452538
	H323	H	0.502289	0.511994	0.445134
	O324	O	0.093602	0.970085	0.951287
	H325	H	0.097994	0.970468	0.957336
	H326	H	0.081541	0.957069	0.944948
	O327	O	-0.149811	1.069152	0.997023
	H328	H	-0.148670	1.070244	0.994602
	H329	H	-0.149514	1.066759	0.995423
	O330	O	0.033268	0.133073	0.044087
	H331	H	0.033864	0.150030	0.036028
	H332	H	0.029182	0.128584	0.054875
	O333	O	0.504967	0.553599	0.563687
	H334	H	0.492713	0.538891	0.564569
	H335	H	0.493941	0.559206	0.555949
	O336	O	-0.040242	-0.056163	0.014762
	H337	H	-0.039304	-0.050815	0.016438
	H338	H	-0.043876	-0.059838	0.018300
	O339	O	0.033126	-0.034747	-0.014048
	H340	H	0.022063	-0.027487	-0.011355
	H341	H	0.032889	-0.036725	-0.015180
	O342	O	0.476861	0.440199	0.420741
	H343	H	0.482990	0.444221	0.429138
	H344	H	0.470287	0.439860	0.422716
	O345	O	-0.040795	0.972303	0.912965
	H346	H	-0.036462	0.977879	0.929900
	H347	H	-0.033579	0.974859	0.909647
	O348	O	0.500237	0.508035	0.547151
	H349	H	0.503091	0.488658	0.549531
	H350	H	0.496928	0.510292	0.545853
	O351	O	0.360595	0.585053	0.495850
	H352	H	0.354294	0.578664	0.486929
	H353	H	0.367332	0.589839	0.487899
	O354	O	0.043608	0.996338	-0.017766
	H355	H	0.044496	0.998553	-0.007162
	H356	H	0.046229	0.996978	-0.014149
	O357	O	0.360364	0.505117	0.459568
	H358	H	0.373365	0.506174	0.462484
	H359	H	0.365937	0.505643	0.464290
	O360	O	1.519671	-0.491960	1.532820
	H361	H	1.521429	-0.491128	1.550484
	H362	H	1.509370	-0.487627	1.535180
	O363	O	0.494802	0.481669	0.451713
	H364	H	0.500768	0.476717	0.452598
	H365	H	0.494621	0.492477	0.441951
	O366	O	0.443500	0.496099	0.399809
	H367	H	0.451450	0.507079	0.400508
	H368	H	0.436244	0.494718	0.421437
	O369	O	0.983164	-0.063337	0.028839
	H370	H	0.980909	-0.056002	0.046341
	H371	H	0.985787	-0.078686	0.027213
	O372	O	0.532878	0.366631	0.548553
	H373	H	0.529283	0.363290	0.528013
	H374	H	0.518781	0.370180	0.554926
	O375	O	1.063905	0.119225	1.073941
	H376	H	1.060929	0.126494	1.063086
	H377	H	1.071879	0.110558	1.079479
	O378	O	-0.086843	1.059230	0.035394
	H379	H	-0.079435	1.062019	0.037298
	H380	H	-0.086529	1.055168	0.034923
	O381	O	0.566173	0.568059	0.566752
	H382	H	0.563959	0.566823	0.554137
	H383	H	0.564291	0.561771	0.574769
	O384	O	1.047642	0.947780	-0.065072
	H385	H	1.058613	0.952626	-0.066739
	H386	H	1.050343	0.935176	-0.073396
	O387	O	1.087617	-0.052633	0.962630
	H388	H	1.074699	-0.046368	0.957988
	H389	H	1.090918	-0.056240	0.957834
	O390	O	1.006077	1.007266	-0.039223
	H391	H	0.993831	0.999218	-0.043098
	H392	H	1.007002	1.004660	-0.047746
	O393	O	0.503286	0.484314	0.443716
	H394	H	0.501894	0.482778	0.450629
	H395	H	0.503450	0.478344	0.442389
