data_Molecule from HDF5

_cell_length_a		16.275217
_cell_length_b		16.191494
_cell_length_c		16.116632
_cell_angle_alpha	90.413507
_cell_angle_beta	90.770339
_cell_angle_gamma	90.517861
_symmetry_space_group_name_H-M	'P 1'
_symmetry_Int_Tables_number		1

loop_
	_symmetry_equiv_pos_as_xyz
	x,y,z

loop_
	_atom_site_label
	_atom_site_type_symbol
	_atom_site_fract_x
	_atom_site_fract_y
	_atom_site_fract_z
	H0	H	0.408582	0.829983	0.703313
	H1	H	0.605433	0.161061	0.713007
	H2	H	0.597011	0.830160	0.284153
	H3	H	0.407586	0.160928	0.282600
	H4	H	0.713744	0.397261	0.828576
	H5	H	0.722998	0.599757	0.158010
	H6	H	0.290090	0.592868	0.830003
	H7	H	0.290439	0.397390	0.159693
	H8	H	0.838997	0.707733	0.397040
	H9	H	0.166048	0.715691	0.598614
	H10	H	0.839553	0.281522	0.590128
	H11	H	0.166437	0.282513	0.395242
	H12	H	0.838702	0.399343	0.705242
	H13	H	0.166978	0.598748	0.712029
	H14	H	0.840006	0.594240	0.278034
	H15	H	0.167904	0.402372	0.283134
	H16	H	0.404999	0.706293	0.829719
	H17	H	0.607274	0.711340	0.159460
	H18	H	0.598320	0.280450	0.829565
	H19	H	0.408159	0.284306	0.160870
	H20	H	0.715268	0.831853	0.397548
	H21	H	0.722418	0.160791	0.599481
	H22	H	0.286601	0.832862	0.594839
	H23	H	0.289085	0.160806	0.395621
	H24	H	0.905317	0.332552	0.204836
	H25	H	0.105517	0.662577	0.210415
	H26	H	0.098789	0.333236	0.781016
	H27	H	0.906777	0.663042	0.782715
	H28	H	0.213835	0.896441	0.330554
	H29	H	0.223287	0.100723	0.658914
	H30	H	0.786899	0.094743	0.331971
	H31	H	0.791430	0.897197	0.661162
	H32	H	0.339064	0.206163	0.895385
	H33	H	0.666736	0.213992	0.099906
	H34	H	0.340587	0.778916	0.090461
	H35	H	0.668033	0.781429	0.897962
	H36	H	0.338839	0.897182	0.204370
	H37	H	0.668205	0.094949	0.211392
	H38	H	0.340256	0.091938	0.779194
	H39	H	0.668452	0.897800	0.782668
	H40	H	0.903783	0.205860	0.330353
	H41	H	0.108069	0.216148	0.659720
	H42	H	0.097407	0.783102	0.330477
	H43	H	0.906430	0.783727	0.661139
	H44	H	0.214051	0.332512	0.894693
	H45	H	0.223566	0.660620	0.096986
	H46	H	0.787459	0.334162	0.092726
	H47	H	0.788008	0.660445	0.893334
	H48	H	0.410637	0.114199	0.586436
	H49	H	0.589535	0.880492	0.591342
	H50	H	0.607251	0.113480	0.418179
	H51	H	0.401204	0.878220	0.406961
	H52	H	0.600653	0.402379	0.114115
	H53	H	0.609115	0.579667	0.874005
	H54	H	0.410667	0.584705	0.113859
	H55	H	0.406585	0.403742	0.876814
	H56	H	0.119431	0.588310	0.403531
	H57	H	0.889936	0.580702	0.583406
	H58	H	0.120493	0.406002	0.587248
	H59	H	0.890009	0.403921	0.408512
	H60	H	0.120031	0.408138	0.588359
	H61	H	0.881703	0.591396	0.599424
	H62	H	0.122414	0.593968	0.401817
	H63	H	0.885690	0.408076	0.390834
	H64	H	0.418537	0.587782	0.112209
	H65	H	0.582726	0.582535	0.880947
	H66	H	0.599485	0.410146	0.111969
	H67	H	0.410581	0.397369	0.876611
	H68	H	0.603556	0.119494	0.390623
	H69	H	0.600089	0.880880	0.578990
	H70	H	0.414126	0.114593	0.591122
	H71	H	0.405202	0.875381	0.393680
	H72	H	0.908181	0.618576	0.090765
	H73	H	0.101239	0.379898	0.083521
	H74	H	0.099112	0.614289	0.907117
	H75	H	0.913642	0.379651	0.894328
	H76	H	0.092849	0.899773	0.615546
	H77	H	0.106965	0.092945	0.372395
	H78	H	0.911787	0.091552	0.616133
	H79	H	0.898205	0.914271	0.378569
	H80	H	0.622074	0.092461	0.905466
	H81	H	0.390095	0.084409	0.079964
	H82	H	0.624932	0.901349	0.102170
	H83	H	0.384728	0.895930	0.895959
	H84	H	0.622645	0.894815	0.083830
	H85	H	0.384988	0.084273	0.096919
	H86	H	0.618840	0.087815	0.909952
	H87	H	0.388247	0.898415	0.906035
	H88	H	0.913597	0.087148	0.613791
	H89	H	0.093458	0.076549	0.381589
	H90	H	0.105837	0.907603	0.616171
	H91	H	0.922052	0.905064	0.381991
	H92	H	0.102525	0.618104	0.903046
	H93	H	0.099241	0.376968	0.092709
	H94	H	0.921962	0.613384	0.089189
	H95	H	0.911388	0.382135	0.907560
	H96	H	0.415858	0.112435	0.585787
	H97	H	0.604614	0.874962	0.594170
	H98	H	0.581977	0.109434	0.406371
	H99	H	0.414376	0.881094	0.403477
	H100	H	0.594212	0.404890	0.111263
	H101	H	0.596538	0.603549	0.871420
	H102	H	0.412639	0.592703	0.115525
	H103	H	0.403158	0.396995	0.874534
	H104	H	0.120285	0.593037	0.407573
	H105	H	0.884142	0.599674	0.581189
	H106	H	0.120424	0.405807	0.590391
	H107	H	0.883114	0.391102	0.396683
	H108	H	0.912197	0.613144	0.077797
	H109	H	0.091683	0.382057	0.087180
	H110	H	0.096490	0.615228	0.902279
	H111	H	0.901851	0.377256	0.898861
	H112	H	0.093038	0.914904	0.610769
	H113	H	0.085457	0.098082	0.377844
	H114	H	0.916895	0.092012	0.614312
	H115	H	0.902632	0.888829	0.372641
	H116	H	0.620084	0.085724	0.903375
	H117	H	0.383078	0.099794	0.088448
	H118	H	0.617584	0.913186	0.088606
	H119	H	0.388775	0.905381	0.898861
	C120	C	0.383969	0.004737	0.615702
	C121	C	0.627559	0.987690	0.618749
	C122	C	0.624283	0.004786	0.376035
	C123	C	0.380117	0.987143	0.373058
	C124	C	0.624757	0.375612	0.003052
	C125	C	0.626335	0.618056	0.985081
	C126	C	0.384261	0.615895	0.004385
	C127	C	0.380755	0.373207	0.985986
	C128	C	0.012500	0.618819	0.374234
	C129	C	0.993878	0.620182	0.618060
	C130	C	0.011822	0.376881	0.615838
	C131	C	0.994543	0.374218	0.371353
	C132	C	0.883648	0.506418	0.114325
	C133	C	0.127411	0.488598	0.117318
	C134	C	0.125688	0.506842	0.874004
	C135	C	0.881541	0.488508	0.872164
	C136	C	0.124013	0.876916	0.504623
	C137	C	0.126021	0.119614	0.486167
	C138	C	0.883821	0.117307	0.505200
	C139	C	0.881337	0.874912	0.487369
	C140	C	0.512153	0.116555	0.875414
	C141	C	0.494822	0.118788	0.118928
	C142	C	0.512728	0.873804	0.117194
	C143	C	0.495720	0.872476	0.872726
	C144	C	0.387136	0.879885	0.667812
	C145	C	0.625873	0.111562	0.675452
	C146	C	0.618977	0.879889	0.321490
	C147	C	0.385150	0.111664	0.319256
	C148	C	0.677420	0.376754	0.878380
	C149	C	0.684356	0.618475	0.108937
	C150	C	0.327856	0.613129	0.879509
	C151	C	0.328108	0.377178	0.110637
	C152	C	0.888237	0.671262	0.376004
	C153	C	0.117262	0.676996	0.618019
	C154	C	0.888414	0.320350	0.611164
	C155	C	0.117996	0.320832	0.375049
	C156	C	0.888092	0.378757	0.668778
	C157	C	0.117684	0.618746	0.674360
	C158	C	0.888816	0.614937	0.317126
	C159	C	0.118657	0.379865	0.319152
	C160	C	0.385184	0.669573	0.879452
	C161	C	0.626346	0.673707	0.109747
	C162	C	0.619852	0.318852	0.878813
	C163	C	0.386038	0.320855	0.111237
	C164	C	0.677811	0.880668	0.377587
	C165	C	0.684046	0.111501	0.618864
	C166	C	0.326805	0.881348	0.613393
	C167	C	0.326466	0.111525	0.375312
	C168	C	0.884987	0.382259	0.168310
	C169	C	0.125959	0.612813	0.173204
	C170	C	0.120249	0.382366	0.818497
	C171	C	0.885429	0.613214	0.818939
	C172	C	0.176636	0.877551	0.380105
	C173	C	0.183833	0.119843	0.610339
	C174	C	0.825632	0.114790	0.381093
	C175	C	0.828296	0.877389	0.611905
	C176	C	0.388499	0.169531	0.876049
	C177	C	0.617943	0.175236	0.118736
	C178	C	0.389453	0.817202	0.112142
	C179	C	0.619450	0.819175	0.877254
	C180	C	0.388685	0.876057	0.168910
	C181	C	0.618542	0.116147	0.174532
	C182	C	0.389079	0.112869	0.817821
	C183	C	0.619478	0.876773	0.819792
	C184	C	0.883791	0.169848	0.380013
	C185	C	0.126654	0.177254	0.610359
	C186	C	0.118986	0.820771	0.380073
	C187	C	0.885454	0.820732	0.611801
	C188	C	0.177593	0.382046	0.875202
	C189	C	0.184862	0.611749	0.116850
	C190	C	0.826506	0.382968	0.112352
	C191	C	0.826370	0.612014	0.873762
	C192	C	0.406861	0.091408	0.594053
	C193	C	0.604773	0.901165	0.595059
	C194	C	0.603601	0.091605	0.398445
	C195	C	0.400832	0.900606	0.394896
	C196	C	0.604295	0.398952	0.089977
	C197	C	0.602830	0.595209	0.897889
	C198	C	0.407096	0.594507	0.091494
	C199	C	0.400834	0.393324	0.898630
	C200	C	0.098388	0.598122	0.397554
	C201	C	0.907587	0.597320	0.594719
	C202	C	0.098130	0.399917	0.594938
	C203	C	0.908553	0.394842	0.392326
	C204	C	0.907010	0.592649	0.092184
	C205	C	0.104265	0.402093	0.094426
	C206	C	0.105534	0.593517	0.897408
	C207	C	0.902754	0.402129	0.893898
	C208	C	0.103289	0.900422	0.591814
	C209	C	0.102264	0.096076	0.399751
	C210	C	0.907343	0.096495	0.592081
	C211	C	0.901645	0.896284	0.400242
	C212	C	0.598193	0.095171	0.899328
	C213	C	0.408503	0.096155	0.095437
	C214	C	0.599406	0.896365	0.097497
	C215	C	0.409654	0.893722	0.893822
	Zn216	Zn	0.504468	-0.004519	0.745146
	Zn217	Zn	0.503220	-0.004241	0.246365
	Zn218	Zn	0.753810	0.497983	-0.006435
	Zn219	Zn	0.254720	0.496339	-0.005423
	Zn220	Zn	0.002659	0.747820	0.496082
	Zn221	Zn	0.003543	0.245953	0.494387
	Zn222	Zn	0.003518	0.498279	0.745970
	Zn223	Zn	0.004019	0.497791	0.244430
	Zn224	Zn	0.504929	0.744272	-0.004877
	Zn225	Zn	0.503203	0.245905	-0.004143
	Zn226	Zn	0.754877	-0.003225	0.496746
	Zn227	Zn	0.252895	-0.002941	0.495646
	N228	N	0.421998	0.957694	0.669279
	N229	N	0.591460	0.033491	0.675459
	N230	N	0.586636	0.958038	0.320355
	N231	N	0.417495	0.033454	0.317429
	N232	N	0.680610	0.411420	0.956697
	N233	N	0.684268	0.584350	0.030328
	N234	N	0.327118	0.580527	0.958119
	N235	N	0.324650	0.409062	0.031750
	N236	N	0.965837	0.673766	0.410949
	N237	N	0.039341	0.678001	0.583771
	N238	N	0.966396	0.319149	0.578897
	N239	N	0.039855	0.316885	0.406748
	N240	N	0.965861	0.413108	0.671651
	N241	N	0.040006	0.584151	0.674509
	N242	N	0.966933	0.582974	0.316021
	N243	N	0.040989	0.412217	0.316635
	N244	N	0.419610	0.671364	0.957928
	N245	N	0.590945	0.673640	0.031703
	N246	N	0.588174	0.317843	0.957552
	N247	N	0.417993	0.318007	0.032695
	N248	N	0.681400	0.959377	0.410749
	N249	N	0.685253	0.033452	0.584365
	N250	N	0.324953	0.960016	0.581617
	N251	N	0.322997	0.033071	0.407876
	N252	N	0.920135	0.459966	0.169542
	N253	N	0.090922	0.535014	0.173722
	N254	N	0.088581	0.460820	0.817930
	N255	N	0.918871	0.535486	0.817716
	N256	N	0.179832	0.911625	0.458595
	N257	N	0.183789	0.085064	0.532294
	N258	N	0.825354	0.082713	0.459942
	N259	N	0.825688	0.910608	0.533662
	N260	N	0.466196	0.171978	0.911043
	N261	N	0.539845	0.177080	0.085042
	N262	N	0.467739	0.815634	0.080729
	N263	N	0.541475	0.816205	0.909339
	N264	N	0.466433	0.910336	0.172139
	N265	N	0.540896	0.081605	0.174653
	N266	N	0.467016	0.080655	0.817277
	N267	N	0.541649	0.909211	0.816781
	N268	N	0.918912	0.171999	0.458130
	N269	N	0.091359	0.177482	0.532034
	N270	N	0.087017	0.820090	0.458671
	N271	N	0.917731	0.819120	0.533242
	N272	N	0.181109	0.460398	0.909160
	N273	N	0.185729	0.533561	0.082916
	N274	N	0.825608	0.461270	0.079547
	N275	N	0.823744	0.533642	0.906350
	O276	O	1.015935	1.033275	-0.010130
	H277	H	1.020923	1.029311	0.003375
	H278	H	1.007569	1.025634	-0.019224
	O279	O	0.008441	0.077643	1.048614
	H280	H	0.004774	0.077850	1.041301
	H281	H	0.004186	0.079809	1.044371
	O282	O	-0.002404	0.022453	-0.109941
	H283	H	-0.005956	0.027786	-0.110982
	H284	H	-0.017827	0.009168	-0.108574
	O285	O	0.443811	0.511510	0.538042
	H286	H	0.445490	0.513817	0.544934
	H287	H	0.449589	0.517121	0.535219
	O288	O	0.080116	-0.059584	0.070977
	H289	H	0.093795	-0.060697	0.089125
	H290	H	0.079579	-0.046151	0.068337
	O291	O	0.031962	1.008236	-0.009857
	H292	H	0.025939	1.003670	-0.013725
	H293	H	0.023656	1.001156	-0.012370
	O294	O	-0.013220	0.993744	-0.016880
	H295	H	-0.028432	0.979369	-0.018375
	H296	H	-0.017173	1.011875	-0.011451
	O297	O	0.491095	0.461048	0.449377
	H298	H	0.491250	0.461945	0.455905
	H299	H	0.495925	0.458717	0.445185
	O300	O	0.444610	0.459721	0.473906
	H301	H	0.444136	0.456993	0.470739
	H302	H	0.444735	0.470322	0.471866
	O303	O	0.950485	0.034209	0.881930
	H304	H	0.956873	0.026523	0.893191
	H305	H	0.941646	0.044635	0.893384
	O306	O	-0.066987	0.980889	0.944748
	H307	H	-0.066597	0.993826	0.944865
	H308	H	-0.062260	0.976981	0.945755
	O309	O	0.139974	1.121635	1.059042
	H310	H	0.143015	1.128715	1.055979
	H311	H	0.139314	1.115617	1.035026
	O312	O	0.069388	0.071087	1.081019
	H313	H	0.069309	0.098500	1.080481
	H314	H	0.085635	0.070456	1.086084
	O315	O	0.456125	0.489250	0.436536
	H316	H	0.453366	0.486383	0.432425
	H317	H	0.451979	0.494069	0.425993
	O318	O	-0.080663	0.016847	0.952209
	H319	H	-0.083605	0.012999	0.954978
	H320	H	-0.078433	0.030698	0.941157
	O321	O	0.483161	0.517137	0.464067
	H322	H	0.481553	0.518870	0.460692
	H323	H	0.479548	0.514446	0.465800
	O324	O	0.993189	0.025057	1.105050
	H325	H	1.016076	0.029097	1.108641
	H326	H	1.004413	0.031237	1.110411
	O327	O	1.062801	1.127064	1.018703
	H328	H	1.058924	1.131641	1.016914
	H329	H	1.069007	1.124912	1.002621
	O330	O	0.502592	0.490639	0.496058
	H331	H	0.495167	0.493522	0.495884
	H332	H	0.504269	0.495634	0.503485
	O333	O	0.976100	-0.063542	0.055975
	H334	H	0.975033	-0.058701	0.068823
	H335	H	0.978448	-0.068809	0.066570
	O336	O	0.505240	0.467332	0.484619
	H337	H	0.502652	0.460131	0.485714
	H338	H	0.512394	0.467419	0.490869
	O339	O	0.499101	0.485524	0.473759
	H340	H	0.502217	0.491800	0.465739
	H341	H	0.496107	0.481969	0.480221
	O342	O	0.012722	0.951582	0.975877
	H343	H	0.015060	0.945585	0.979765
	H344	H	0.018748	0.953364	0.975168
	O345	O	0.435475	0.450944	0.442567
	H346	H	0.439796	0.447815	0.446458
	H347	H	0.437189	0.447564	0.446297
