data_Molecule from HDF5

_cell_length_a		16.320920
_cell_length_b		16.190308
_cell_length_c		16.437984
_cell_angle_alpha	90.201221
_cell_angle_beta	90.238304
_cell_angle_gamma	89.917004
_symmetry_space_group_name_H-M	'P 1'
_symmetry_Int_Tables_number		1

loop_
	_symmetry_equiv_pos_as_xyz
	x,y,z

loop_
	_atom_site_label
	_atom_site_type_symbol
	_atom_site_fract_x
	_atom_site_fract_y
	_atom_site_fract_z
	H0	H	0.387650	0.839139	0.713920
	H1	H	0.600150	0.159000	0.723872
	H2	H	0.592113	0.838110	0.283244
	H3	H	0.383482	0.160861	0.276690
	H4	H	0.710814	0.398880	0.839158
	H5	H	0.713298	0.610903	0.156335
	H6	H	0.270270	0.605250	0.839690
	H7	H	0.269561	0.396342	0.158056
	H8	H	0.830177	0.720233	0.399711
	H9	H	0.154441	0.719556	0.600365
	H10	H	0.831503	0.284584	0.603861
	H11	H	0.151746	0.281669	0.396151
	H12	H	0.832767	0.398329	0.720591
	H13	H	0.152548	0.607362	0.721178
	H14	H	0.834836	0.614238	0.275344
	H15	H	0.151536	0.394954	0.277541
	H16	H	0.388931	0.718330	0.836913
	H17	H	0.591645	0.720044	0.159104
	H18	H	0.595486	0.281634	0.839109
	H19	H	0.385178	0.279388	0.157240
	H20	H	0.708605	0.839025	0.398299
	H21	H	0.712978	0.160845	0.607832
	H22	H	0.273828	0.839757	0.597959
	H23	H	0.270539	0.163029	0.392639
	H24	H	0.886608	0.343186	0.220740
	H25	H	0.096991	0.665310	0.218572
	H26	H	0.100365	0.342912	0.778235
	H27	H	0.888088	0.664307	0.781267
	H28	H	0.210372	0.897185	0.339281
	H29	H	0.214509	0.107854	0.657759
	H30	H	0.769150	0.108207	0.341020
	H31	H	0.772090	0.896903	0.657803
	H32	H	0.331122	0.221599	0.892382
	H33	H	0.650981	0.222115	0.104167
	H34	H	0.327832	0.787825	0.094423
	H35	H	0.653845	0.786561	0.900190
	H36	H	0.330481	0.894763	0.218057
	H37	H	0.650105	0.107261	0.222055
	H38	H	0.332270	0.106223	0.775296
	H39	H	0.650266	0.893074	0.777088
	H40	H	0.887318	0.223453	0.340894
	H41	H	0.095963	0.221323	0.660139
	H42	H	0.095227	0.780193	0.340364
	H43	H	0.892136	0.785995	0.659782
	H44	H	0.212088	0.342183	0.892984
	H45	H	0.209774	0.664797	0.101961
	H46	H	0.772610	0.341760	0.102583
	H47	H	0.775559	0.665614	0.899091
	H48	H	0.407108	0.116967	0.591586
	H49	H	0.580917	0.884738	0.589032
	H50	H	0.575837	0.115316	0.410059
	H51	H	0.407130	0.890572	0.416962
	H52	H	0.580109	0.416856	0.110186
	H53	H	0.585776	0.593829	0.882205
	H54	H	0.395643	0.599476	0.115816
	H55	H	0.403364	0.414817	0.887054
	H56	H	0.107005	0.588252	0.405202
	H57	H	0.875461	0.590994	0.599921
	H58	H	0.105670	0.415876	0.589029
	H59	H	0.882026	0.421978	0.412113
	H60	H	0.107156	0.414820	0.593406
	H61	H	0.875261	0.601038	0.589629
	H62	H	0.108738	0.597104	0.411162
	H63	H	0.876292	0.416511	0.403166
	H64	H	0.398246	0.585817	0.111476
	H65	H	0.582122	0.591614	0.884325
	H66	H	0.578506	0.411295	0.111819
	H67	H	0.402090	0.409913	0.885326
	H68	H	0.581963	0.117172	0.413176
	H69	H	0.580003	0.885914	0.585762
	H70	H	0.407385	0.114664	0.583390
	H71	H	0.389122	0.882262	0.409014
	H72	H	0.902248	0.620165	0.093059
	H73	H	0.082434	0.389071	0.081200
	H74	H	0.063803	0.612138	0.910838
	H75	H	0.900538	0.387359	0.911127
	H76	H	0.091046	0.906562	0.617872
	H77	H	0.089765	0.090348	0.383768
	H78	H	0.905074	0.087309	0.611091
	H79	H	0.903072	0.910498	0.385561
	H80	H	0.605561	0.088740	0.908749
	H81	H	0.376990	0.090550	0.085761
	H82	H	0.608507	0.908013	0.094635
	H83	H	0.372346	0.909945	0.895740
	H84	H	0.604977	0.909853	0.086514
	H85	H	0.378799	0.085555	0.086557
	H86	H	0.603737	0.088374	0.912562
	H87	H	0.373889	0.902431	0.908142
	H88	H	0.904912	0.099236	0.615289
	H89	H	0.075321	0.084665	0.389842
	H90	H	0.086204	0.923569	0.610375
	H91	H	0.897062	0.911093	0.383102
	H92	H	0.091475	0.617498	0.925410
	H93	H	0.084986	0.384671	0.094244
	H94	H	0.907949	0.616487	0.087917
	H95	H	0.902274	0.385762	0.906036
	H96	H	0.400161	0.117962	0.586627
	H97	H	0.583481	0.884440	0.586382
	H98	H	0.580261	0.118047	0.405859
	H99	H	0.406999	0.883586	0.396731
	H100	H	0.584620	0.413253	0.113032
	H101	H	0.581802	0.595557	0.882794
	H102	H	0.408453	0.595455	0.111203
	H103	H	0.398884	0.413690	0.885452
	H104	H	0.104304	0.588039	0.415483
	H105	H	0.880914	0.587747	0.586556
	H106	H	0.107786	0.411809	0.589943
	H107	H	0.878090	0.410890	0.413208
	H108	H	0.899770	0.618263	0.085124
	H109	H	0.072641	0.390262	0.090931
	H110	H	0.087382	0.625449	0.895562
	H111	H	0.905834	0.388196	0.909847
	H112	H	0.073393	0.909269	0.611470
	H113	H	0.076437	0.100680	0.384317
	H114	H	0.893557	0.091920	0.615692
	H115	H	0.900208	0.915867	0.385622
	H116	H	0.604776	0.085658	0.910236
	H117	H	0.375790	0.088907	0.090906
	H118	H	0.605089	0.915938	0.092600
	H119	H	0.377251	0.916681	0.907840
	C120	C	0.372565	0.009799	0.617587
	C121	C	0.613504	0.991206	0.620587
	C122	C	0.611138	0.009852	0.378777
	C123	C	0.369002	0.992101	0.375975
	C124	C	0.612963	0.381250	0.006767
	C125	C	0.613698	0.625272	0.988878
	C126	C	0.369945	0.623636	0.006701
	C127	C	0.368905	0.380043	0.990735
	C128	C	0.001387	0.624561	0.378637
	C129	C	0.983731	0.624885	0.622420
	C130	C	0.000934	0.382353	0.622171
	C131	C	0.984062	0.382636	0.377707
	C132	C	0.870940	0.512200	0.120652
	C133	C	0.112844	0.494571	0.120549
	C134	C	0.113086	0.511825	0.878534
	C135	C	0.871697	0.494473	0.878704
	C136	C	0.113777	0.880897	0.507557
	C137	C	0.113641	0.124585	0.490617
	C138	C	0.868866	0.124821	0.508915
	C139	C	0.870368	0.881508	0.490850
	C140	C	0.499376	0.120715	0.877214
	C141	C	0.482399	0.122094	0.120703
	C142	C	0.499200	0.880319	0.119732
	C143	C	0.481454	0.878523	0.875038
	C144	C	0.370050	0.887590	0.674641
	C145	C	0.617273	0.111275	0.683159
	C146	C	0.611706	0.886981	0.321536
	C147	C	0.365962	0.112972	0.316321
	C148	C	0.671818	0.379594	0.886946
	C149	C	0.672880	0.627899	0.109101
	C150	C	0.310506	0.623864	0.886843
	C151	C	0.308935	0.377585	0.109909
	C152	C	0.879517	0.682716	0.378538
	C153	C	0.105576	0.681890	0.621132
	C154	C	0.879909	0.323794	0.622678
	C155	C	0.103991	0.321771	0.377337
	C156	C	0.880655	0.379996	0.681227
	C157	C	0.104683	0.626159	0.681204
	C158	C	0.881488	0.629324	0.317254
	C159	C	0.103774	0.377959	0.317917
	C160	C	0.369689	0.680061	0.885382
	C161	C	0.612506	0.682611	0.110216
	C162	C	0.614046	0.321322	0.887049
	C163	C	0.366952	0.319522	0.109826
	C164	C	0.669532	0.887473	0.378800
	C165	C	0.673403	0.112421	0.625070
	C166	C	0.313142	0.888153	0.617236
	C167	C	0.309974	0.114037	0.374348
	C168	C	0.868537	0.391084	0.180493
	C169	C	0.115399	0.616375	0.179505
	C170	C	0.116861	0.391024	0.818256
	C171	C	0.870124	0.616121	0.820862
	C172	C	0.171489	0.878654	0.387154
	C173	C	0.174402	0.126518	0.610382
	C174	C	0.808915	0.126776	0.388951
	C175	C	0.812202	0.879925	0.610803
	C176	C	0.379282	0.181600	0.874266
	C177	C	0.602584	0.182465	0.123010
	C178	C	0.376950	0.824227	0.116245
	C179	C	0.604270	0.823035	0.878566
	C180	C	0.378285	0.878037	0.177507
	C181	C	0.602141	0.125367	0.181718
	C182	C	0.379926	0.124045	0.815838
	C183	C	0.602618	0.875913	0.817257
	C184	C	0.867635	0.184314	0.388988
	C185	C	0.115221	0.182958	0.611480
	C186	C	0.114190	0.820295	0.387798
	C187	C	0.871993	0.824398	0.611612
	C188	C	0.172504	0.390482	0.875800
	C189	C	0.171419	0.616359	0.121445
	C190	C	0.811527	0.390586	0.121948
	C191	C	0.813895	0.616721	0.879309
	C192	C	0.397569	0.094547	0.594146
	C193	C	0.588605	0.906884	0.594541
	C194	C	0.586419	0.094617	0.402715
	C195	C	0.393838	0.907439	0.400457
	C196	C	0.588265	0.406643	0.090156
	C197	C	0.590067	0.600687	0.904928
	C198	C	0.393987	0.600310	0.090753
	C199	C	0.394112	0.405472	0.907577
	C200	C	0.084929	0.598542	0.403409
	C201	C	0.899138	0.600398	0.598856
	C202	C	0.084983	0.407085	0.597893
	C203	C	0.900484	0.408957	0.402440
	C204	C	0.896070	0.596421	0.095992
	C205	C	0.087520	0.410031	0.095968
	C206	C	0.088176	0.596442	0.903680
	C207	C	0.896034	0.409178	0.902236
	C208	C	0.090342	0.906052	0.591217
	C209	C	0.087884	0.099390	0.407716
	C210	C	0.893874	0.100030	0.592470
	C211	C	0.893414	0.905499	0.406698
	C212	C	0.583031	0.094841	0.903046
	C213	C	0.398911	0.096048	0.094989
	C214	C	0.584140	0.904281	0.097751
	C215	C	0.396673	0.902666	0.897314
	Zn216	Zn	0.491250	-0.000451	0.747219
	Zn217	Zn	0.490726	0.000062	0.249558
	Zn218	Zn	0.742394	0.503035	-0.001349
	Zn219	Zn	0.240326	0.502940	-0.001019
	Zn220	Zn	-0.008157	0.752574	0.499946
	Zn221	Zn	-0.008201	0.253986	0.500797
	Zn222	Zn	-0.007075	0.502948	0.751390
	Zn223	Zn	-0.007101	0.504100	0.248962
	Zn224	Zn	0.490756	0.752612	-0.002193
	Zn225	Zn	0.491281	0.250848	-0.001675
	Zn226	Zn	0.740345	0.001985	0.499365
	Zn227	Zn	0.243014	0.002536	0.498081
	N228	N	0.406195	0.964212	0.675123
	N229	N	0.580718	0.034922	0.680395
	N230	N	0.576155	0.964064	0.321328
	N231	N	0.402050	0.036174	0.317351
	N232	N	0.671224	0.416160	0.962475
	N233	N	0.673754	0.592704	0.032827
	N234	N	0.310580	0.589498	0.963186
	N235	N	0.309944	0.414246	0.034563
	N236	N	0.954771	0.679816	0.416003
	N237	N	0.029183	0.681440	0.585670
	N238	N	0.955689	0.325085	0.586585
	N239	N	0.028306	0.324404	0.413752
	N240	N	0.956994	0.415602	0.681225
	N241	N	0.027892	0.591619	0.682237
	N242	N	0.958281	0.593825	0.316934
	N243	N	0.028101	0.415270	0.318070
	N244	N	0.405842	0.680019	0.960911
	N245	N	0.576571	0.681209	0.034582
	N246	N	0.578301	0.322011	0.962669
	N247	N	0.403219	0.320688	0.034543
	N248	N	0.669279	0.964805	0.413537
	N249	N	0.671435	0.036711	0.587137
	N250	N	0.314553	0.965221	0.582428
	N251	N	0.311611	0.037823	0.410696
	N252	N	0.904552	0.467745	0.180116
	N253	N	0.079943	0.539532	0.179237
	N254	N	0.080593	0.467700	0.819730
	N255	N	0.905126	0.538834	0.820255
	N256	N	0.171277	0.915832	0.462533
	N257	N	0.173816	0.090987	0.534264
	N258	N	0.809250	0.091060	0.464648
	N259	N	0.811326	0.914729	0.534641
	N260	N	0.454670	0.179692	0.911723
	N261	N	0.526959	0.180755	0.086071
	N262	N	0.453164	0.825585	0.081057
	N263	N	0.528035	0.824404	0.913670
	N264	N	0.455375	0.912228	0.179824
	N265	N	0.526165	0.088779	0.180661
	N266	N	0.455737	0.087047	0.817539
	N267	N	0.525335	0.909724	0.814986
	N268	N	0.903742	0.183649	0.464727
	N269	N	0.078363	0.182119	0.536146
	N270	N	0.079057	0.821794	0.463607
	N271	N	0.907390	0.825184	0.535926
	N272	N	0.170039	0.466496	0.912936
	N273	N	0.170235	0.539452	0.085666
	N274	N	0.812601	0.467024	0.085795
	N275	N	0.814897	0.539953	0.914590
	O276	O	0.594873	0.498751	0.594721
	H277	H	0.606845	0.496358	0.593422
	H278	H	0.597209	0.494532	0.583830
	O279	O	0.359519	0.590650	0.610861
	H280	H	0.334397	0.590323	0.620574
	H281	H	0.367878	0.572881	0.609231
	O282	O	0.539279	0.318846	0.555368
	H283	H	0.550771	0.329705	0.557599
	H284	H	0.558119	0.320387	0.539288
	O285	O	1.031790	0.042834	0.036232
	H286	H	1.030397	0.043307	0.052442
	H287	H	1.031910	0.052178	0.030399
	O288	O	0.174270	0.191773	1.118477
	H289	H	0.148381	0.204458	1.123704
	H290	H	0.178268	0.162015	1.126144
	O291	O	0.647528	0.412283	0.497293
	H292	H	0.642054	0.412343	0.487915
	H293	H	0.648350	0.411591	0.509353
	O294	O	0.517034	0.333234	0.353494
	H295	H	0.502353	0.345200	0.351681
	H296	H	0.507999	0.319045	0.342700
	O297	O	0.871376	0.863711	1.166048
	H298	H	0.847061	0.864061	1.168370
	H299	H	0.874129	0.851519	1.172298
	O300	O	0.064185	-0.100415	0.001779
	H301	H	0.056213	-0.094728	0.010540
	H302	H	0.076886	-0.101783	0.013195
	O303	O	0.485287	0.547708	0.300410
	H304	H	0.486463	0.545566	0.299688
	H305	H	0.477051	0.545332	0.292629
	O306	O	0.881956	0.018708	-0.181875
	H307	H	0.889899	0.022684	-0.184767
	H308	H	0.873401	0.005200	-0.162111
	O309	O	0.356938	0.374532	0.410334
	H310	H	0.339594	0.385294	0.394830
	H311	H	0.357220	0.378518	0.416827
	O312	O	0.821734	0.817242	0.151458
	H313	H	0.835575	0.819171	0.147224
	H314	H	0.811765	0.801322	0.148551
	O315	O	0.527446	0.437457	0.639479
	H316	H	0.536383	0.435652	0.633578
	H317	H	0.528605	0.433436	0.634977
	O318	O	0.385739	0.463004	0.634598
	H319	H	0.392197	0.450983	0.616690
	H320	H	0.394740	0.454261	0.649083
	O321	O	1.124719	-0.036367	0.894492
	H322	H	1.133574	-0.026569	0.908412
	H323	H	1.123979	-0.025956	0.893635
	O324	O	0.034464	-0.137676	0.833045
	H325	H	0.048970	-0.151630	0.831272
	H326	H	0.042072	-0.135532	0.822078
	O327	O	0.646181	0.287826	0.533772
	H328	H	0.645424	0.306021	0.505967
	H329	H	0.670796	0.252810	0.535143
	O330	O	0.603473	0.588883	0.473105
	H331	H	0.603774	0.597533	0.482625
	H332	H	0.589902	0.589110	0.486381
	O333	O	1.106405	1.056754	0.865404
	H334	H	1.121321	1.053261	0.881156
	H335	H	1.096774	1.056598	0.859944
	O336	O	0.553588	0.531562	0.457305
	H337	H	0.553068	0.527489	0.471160
	H338	H	0.564464	0.538551	0.459707
	O339	O	0.837363	-0.007487	0.951052
	H340	H	0.848597	-0.010310	0.951943
	H341	H	0.838936	-0.010205	0.930777
	O342	O	0.014221	1.059297	1.127252
	H343	H	0.006405	1.069347	1.124171
	H344	H	0.000801	1.071109	1.129137
	O345	O	0.473321	0.324345	0.547561
	H346	H	0.472100	0.304781	0.544304
	H347	H	0.484808	0.326973	0.546825
	O348	O	0.707065	0.470707	0.285010
	H349	H	0.723120	0.459805	0.268723
	H350	H	0.706365	0.460559	0.293773
	O351	O	-0.095564	0.112203	0.128673
	H352	H	-0.100283	0.131310	0.131202
	H353	H	-0.105581	0.117347	0.109733
	O354	O	0.927034	1.042266	0.116055
	H355	H	0.909469	1.050929	0.121366
	H356	H	0.920439	1.047862	0.101293
	O357	O	0.117228	0.859497	0.052872
	H358	H	0.122312	0.869249	0.050200
	H359	H	0.116812	0.862868	0.040391
	O360	O	0.345829	0.566275	0.571125
	H361	H	0.335409	0.573536	0.550684
	H362	H	0.344163	0.554900	0.577548
	O363	O	0.598863	0.634826	0.613226
	H364	H	0.595739	0.646652	0.618075
	H365	H	0.588193	0.646835	0.605824
	O366	O	0.383274	0.623996	0.371205
	H367	H	0.401495	0.611983	0.375233
	H368	H	0.378628	0.626486	0.374694
	O369	O	0.369403	0.412166	0.527974
	H370	H	0.365791	0.404565	0.528052
	H371	H	0.379278	0.402372	0.539175
	O372	O	0.436479	0.667504	0.496670
	H373	H	0.427640	0.661586	0.506711
	H374	H	0.430938	0.663158	0.495282
	O375	O	0.631015	0.333820	0.333724
	H376	H	0.598594	0.320785	0.319936
	H377	H	0.625542	0.355940	0.349365
	O378	O	0.517376	0.554158	0.464722
	H379	H	0.515064	0.546934	0.468520
	H380	H	0.528383	0.568187	0.467591
	O381	O	0.314516	0.604434	0.336971
	H382	H	0.286862	0.613307	0.324527
	H383	H	0.328943	0.615363	0.336204
	O384	O	-0.102203	1.156257	1.002982
	H385	H	-0.107171	1.142850	0.986602
	H386	H	-0.113011	1.144433	1.016051
	O387	O	0.875466	0.902928	-0.051544
	H388	H	0.879657	0.919656	-0.062818
	H389	H	0.869359	0.901836	-0.048406
	O390	O	0.438936	0.566804	0.590953
	H391	H	0.429650	0.575921	0.587737
	H392	H	0.443060	0.559367	0.597103
	O393	O	0.828287	0.027903	0.932002
	H394	H	0.837857	0.031823	0.924921
	H395	H	0.829359	0.012349	0.920560
	O396	O	0.116240	1.168179	1.039436
	H397	H	0.130531	1.184656	1.039940
	H398	H	0.105407	1.161898	1.069539
	O399	O	0.358437	0.463884	0.619940
	H400	H	0.370518	0.443684	0.627534
	H401	H	0.359749	0.456742	0.607455
	O402	O	1.133488	-0.144763	0.811475
	H403	H	1.138792	-0.144904	0.818188
	H404	H	1.138579	-0.137744	0.805404
	O405	O	0.046649	0.075550	-0.097694
	H406	H	0.056560	0.070356	-0.097955
	H407	H	0.038077	0.071258	-0.099895
	O408	O	0.902132	1.175331	1.091963
	H409	H	0.899985	1.167796	1.063742
	H410	H	0.886107	1.179658	1.106981
	O411	O	1.162658	0.969649	0.185797
	H412	H	1.134354	0.969427	0.184596
	H413	H	1.177356	0.981718	0.195209
	O414	O	-0.007242	0.099939	0.960768
	H415	H	-0.010514	0.114465	0.962635
	H416	H	0.010848	0.102728	0.964194
	O417	O	0.896342	0.093638	0.805966
	H418	H	0.910170	0.088625	0.811607
	H419	H	0.904463	0.092079	0.796109
	O420	O	0.051523	0.959609	0.203813
	H421	H	0.043569	0.941176	0.206252
	H422	H	0.047675	0.956413	0.203718
	O423	O	1.652536	0.647424	-0.386322
	H424	H	1.643524	0.652842	-0.383445
	H425	H	1.633012	0.647184	-0.384073
	O426	O	-0.123314	-0.038125	0.882928
	H427	H	-0.134572	-0.047083	0.878589
	H428	H	-0.119295	-0.050783	0.885394
	O429	O	0.496962	0.579967	0.432981
	H430	H	0.503667	0.568341	0.431948
	H431	H	0.497749	0.590904	0.460406
