data_Molecule from HDF5

_cell_length_a		16.093880
_cell_length_b		16.308419
_cell_length_c		16.216304
_cell_angle_alpha	89.793711
_cell_angle_beta	90.099758
_cell_angle_gamma	90.445824
_symmetry_space_group_name_H-M	'P 1'
_symmetry_Int_Tables_number		1

loop_
	_symmetry_equiv_pos_as_xyz
	x,y,z

loop_
	_atom_site_label
	_atom_site_type_symbol
	_atom_site_fract_x
	_atom_site_fract_y
	_atom_site_fract_z
	H0	H	0.399537	0.838568	0.709342
	H1	H	0.601501	0.164737	0.706758
	H2	H	0.597918	0.837827	0.278710
	H3	H	0.401865	0.164801	0.275352
	H4	H	0.715212	0.407634	0.828203
	H5	H	0.717017	0.598485	0.158858
	H6	H	0.293119	0.597297	0.828113
	H7	H	0.290622	0.402559	0.158359
	H8	H	0.837528	0.713893	0.393277
	H9	H	0.166676	0.718157	0.593620
	H10	H	0.837392	0.286994	0.593398
	H11	H	0.167460	0.288305	0.395547
	H12	H	0.837719	0.401444	0.707820
	H13	H	0.168990	0.600726	0.705389
	H14	H	0.838250	0.599319	0.278468
	H15	H	0.170297	0.407169	0.283974
	H16	H	0.405244	0.716513	0.829319
	H17	H	0.604966	0.717739	0.157906
	H18	H	0.605252	0.287939	0.829278
	H19	H	0.403409	0.283767	0.155859
	H20	H	0.714787	0.837642	0.395074
	H21	H	0.715634	0.165505	0.590018
	H22	H	0.285848	0.837691	0.590374
	H23	H	0.289546	0.166839	0.395868
	H24	H	0.904304	0.338521	0.208439
	H25	H	0.105933	0.665307	0.208126
	H26	H	0.102144	0.338940	0.777749
	H27	H	0.905984	0.665146	0.777831
	H28	H	0.211429	0.908136	0.328388
	H29	H	0.215761	0.099804	0.658534
	H30	H	0.789448	0.097987	0.328531
	H31	H	0.787695	0.902535	0.659002
	H32	H	0.338649	0.215791	0.892160
	H33	H	0.667338	0.216504	0.092830
	H34	H	0.339226	0.784704	0.092125
	H35	H	0.668567	0.791107	0.893951
	H36	H	0.336595	0.902192	0.203719
	H37	H	0.666386	0.103213	0.208749
	H38	H	0.336706	0.098658	0.780288
	H39	H	0.666818	0.904168	0.778200
	H40	H	0.901107	0.217434	0.330617
	H41	H	0.102426	0.215935	0.658133
	H42	H	0.101211	0.788136	0.330255
	H43	H	0.899215	0.782611	0.657248
	H44	H	0.215969	0.337068	0.896751
	H45	H	0.220620	0.664980	0.091060
	H46	H	0.787818	0.338366	0.092812
	H47	H	0.792145	0.666124	0.895972
	H48	H	0.411280	0.118418	0.589326
	H49	H	0.594804	0.884842	0.583127
	H50	H	0.595369	0.121962	0.386255
	H51	H	0.414482	0.888351	0.399100
	H52	H	0.601126	0.410015	0.111468
	H53	H	0.590933	0.603048	0.875984
	H54	H	0.410468	0.591965	0.111562
	H55	H	0.412910	0.409788	0.876749
	H56	H	0.120474	0.600397	0.408809
	H57	H	0.881356	0.598305	0.589849
	H58	H	0.120088	0.411348	0.586224
	H59	H	0.883464	0.414649	0.388326
	H60	H	0.122707	0.407444	0.589466
	H61	H	0.886195	0.592383	0.578241
	H62	H	0.119505	0.589286	0.400170
	H63	H	0.881284	0.396170	0.403115
	H64	H	0.416811	0.594793	0.110104
	H65	H	0.605559	0.602443	0.872945
	H66	H	0.590128	0.412583	0.107855
	H67	H	0.411389	0.405430	0.874997
	H68	H	0.582623	0.112712	0.404042
	H69	H	0.594213	0.883387	0.590782
	H70	H	0.410346	0.117419	0.583497
	H71	H	0.399546	0.885432	0.406414
	H72	H	0.908027	0.619567	0.086904
	H73	H	0.093919	0.384079	0.092559
	H74	H	0.096561	0.616253	0.904846
	H75	H	0.917260	0.385389	0.892865
	H76	H	0.091123	0.908578	0.610724
	H77	H	0.089214	0.098264	0.377966
	H78	H	0.903307	0.095188	0.613188
	H79	H	0.901748	0.917476	0.377963
	H80	H	0.621917	0.101091	0.904736
	H81	H	0.383858	0.094570	0.084682
	H82	H	0.620010	0.915426	0.087761
	H83	H	0.382175	0.899077	0.903084
	H84	H	0.623482	0.908133	0.088607
	H85	H	0.384568	0.094136	0.081502
	H86	H	0.618803	0.088937	0.900568
	H87	H	0.386897	0.912756	0.907209
	H88	H	0.911317	0.091033	0.610147
	H89	H	0.095342	0.101639	0.375207
	H90	H	0.092773	0.908409	0.611433
	H91	H	0.919962	0.907764	0.380348
	H92	H	0.104507	0.620872	0.898854
	H93	H	0.094768	0.386365	0.085032
	H94	H	0.914537	0.618878	0.089504
	H95	H	0.912254	0.388644	0.911109
	H96	H	0.406204	0.119553	0.587298
	H97	H	0.588721	0.885710	0.586307
	H98	H	0.605557	0.118332	0.407599
	H99	H	0.401958	0.881148	0.390370
	H100	H	0.593405	0.402181	0.111565
	H101	H	0.597145	0.590070	0.877408
	H102	H	0.411220	0.599081	0.112577
	H103	H	0.407092	0.409108	0.874662
	H104	H	0.125318	0.601896	0.395289
	H105	H	0.885596	0.585630	0.589932
	H106	H	0.121327	0.406704	0.583756
	H107	H	0.890273	0.416373	0.411190
	H108	H	0.912981	0.617791	0.082734
	H109	H	0.100577	0.383927	0.088543
	H110	H	0.095013	0.619010	0.894775
	H111	H	0.899956	0.381613	0.898507
	H112	H	0.092977	0.909850	0.611931
	H113	H	0.096428	0.093279	0.375963
	H114	H	0.911070	0.100826	0.612919
	H115	H	0.903379	0.898045	0.372259
	H116	H	0.623800	0.097946	0.892558
	H117	H	0.384295	0.092157	0.083940
	H118	H	0.620586	0.909342	0.081829
	H119	H	0.382456	0.910056	0.893494
	C120	C	0.379431	0.010260	0.614993
	C121	C	0.622358	0.992946	0.614712
	C122	C	0.622662	0.009663	0.371181
	C123	C	0.378064	0.993566	0.370385
	C124	C	0.624438	0.380932	0.001493
	C125	C	0.626504	0.625798	0.984667
	C126	C	0.384276	0.622898	0.002232
	C127	C	0.382017	0.379266	0.984214
	C128	C	0.012248	0.624020	0.372073
	C129	C	0.993631	0.622175	0.614412
	C130	C	0.011705	0.379977	0.615532
	C131	C	0.994530	0.381139	0.372752
	C132	C	0.882183	0.510642	0.115660
	C133	C	0.126530	0.492947	0.116452
	C134	C	0.126045	0.510221	0.871491
	C135	C	0.882066	0.493543	0.871851
	C136	C	0.121274	0.881447	0.502603
	C137	C	0.122909	0.124803	0.485228
	C138	C	0.879970	0.123834	0.502968
	C139	C	0.879250	0.878719	0.485638
	C140	C	0.511914	0.123664	0.870719
	C141	C	0.493386	0.122920	0.113140
	C142	C	0.512110	0.880538	0.114309
	C143	C	0.493464	0.880449	0.872152
	C144	C	0.380202	0.887104	0.670636
	C145	C	0.621126	0.116106	0.668970
	C146	C	0.619256	0.886708	0.316190
	C147	C	0.381804	0.116544	0.314512
	C148	C	0.678497	0.385882	0.877472
	C149	C	0.680465	0.620658	0.109171
	C150	C	0.329734	0.618849	0.877688
	C151	C	0.327984	0.381939	0.108739
	C152	C	0.887310	0.677155	0.373178
	C153	C	0.117749	0.679354	0.612911
	C154	C	0.886988	0.324831	0.613400
	C155	C	0.118791	0.326800	0.375920
	C156	C	0.887066	0.381895	0.670269
	C157	C	0.119219	0.620736	0.668191
	C158	C	0.887603	0.620143	0.316212
	C159	C	0.119999	0.385523	0.320010
	C160	C	0.385759	0.677819	0.878126
	C161	C	0.624763	0.679956	0.108518
	C162	C	0.623558	0.326307	0.878194
	C163	C	0.383778	0.322814	0.107455
	C164	C	0.677009	0.886508	0.374169
	C165	C	0.678060	0.116408	0.611108
	C166	C	0.323547	0.886747	0.611648
	C167	C	0.325671	0.117443	0.374175
	C168	C	0.883633	0.387366	0.170786
	C169	C	0.125799	0.616365	0.170610
	C170	C	0.122440	0.387032	0.816499
	C171	C	0.885549	0.616594	0.816286
	C172	C	0.174813	0.886432	0.377936
	C173	C	0.178201	0.120774	0.609271
	C174	C	0.826082	0.119508	0.378371
	C175	C	0.824337	0.881193	0.609377
	C176	C	0.387686	0.177875	0.872614
	C177	C	0.617907	0.178675	0.112678
	C178	C	0.387937	0.823532	0.111904
	C179	C	0.618723	0.827617	0.873979
	C180	C	0.386584	0.881645	0.167310
	C181	C	0.617439	0.122119	0.170047
	C182	C	0.386498	0.119377	0.817376
	C183	C	0.617964	0.884313	0.816618
	C184	C	0.881483	0.179281	0.379454
	C185	C	0.121726	0.178606	0.609083
	C186	C	0.120247	0.826558	0.378998
	C187	C	0.880017	0.821900	0.608546
	C188	C	0.178975	0.386307	0.875484
	C189	C	0.182749	0.616230	0.112346
	C190	C	0.825987	0.387276	0.113192
	C191	C	0.828802	0.617039	0.874842
	C192	C	0.402379	0.096200	0.593230
	C193	C	0.599317	0.906869	0.593066
	C194	C	0.601024	0.095649	0.392907
	C195	C	0.398904	0.907345	0.392312
	C196	C	0.601560	0.401925	0.088131
	C197	C	0.604618	0.604704	0.897869
	C198	C	0.406457	0.601564	0.088804
	C199	C	0.403892	0.401567	0.897807
	C200	C	0.099329	0.603299	0.394612
	C201	C	0.906676	0.599020	0.592410
	C202	C	0.098734	0.402192	0.593343
	C203	C	0.907399	0.402727	0.394266
	C204	C	0.905204	0.596479	0.093196
	C205	C	0.103295	0.407134	0.095061
	C206	C	0.104758	0.596391	0.892814
	C207	C	0.903518	0.407524	0.894123
	C208	C	0.098837	0.902664	0.589066
	C209	C	0.100387	0.104105	0.398705
	C210	C	0.901946	0.102092	0.589751
	C211	C	0.901802	0.901079	0.399088
	C212	C	0.599118	0.102467	0.892701
	C213	C	0.406653	0.100187	0.090191
	C214	C	0.598845	0.904041	0.092525
	C215	C	0.406345	0.901072	0.894579
	Zn216	Zn	0.501561	0.001640	0.744259
	Zn217	Zn	0.500932	0.001607	0.241221
	Zn218	Zn	0.753419	0.501910	-0.006304
	Zn219	Zn	0.254684	0.501491	-0.006503
	Zn220	Zn	0.001812	0.750797	0.493967
	Zn221	Zn	0.002332	0.252627	0.494713
	Zn222	Zn	0.003734	0.501849	0.742588
	Zn223	Zn	0.003993	0.502784	0.244677
	Zn224	Zn	0.504346	0.753234	-0.006552
	Zn225	Zn	0.504150	0.251002	-0.007816
	Zn226	Zn	0.752052	0.001187	0.493946
	Zn227	Zn	0.250031	0.002557	0.493765
	N228	N	0.414277	0.964805	0.672819
	N229	N	0.587182	0.038480	0.671266
	N230	N	0.586213	0.964309	0.314358
	N231	N	0.413294	0.038337	0.311784
	N232	N	0.678959	0.419165	0.955129
	N233	N	0.681710	0.587747	0.031151
	N234	N	0.328612	0.585457	0.955753
	N235	N	0.326636	0.416061	0.031132
	N236	N	0.965536	0.679531	0.407311
	N237	N	0.038865	0.680059	0.580013
	N238	N	0.965421	0.323672	0.580007
	N239	N	0.039727	0.324065	0.408128
	N240	N	0.965659	0.415778	0.671561
	N241	N	0.041032	0.585816	0.669337
	N242	N	0.966463	0.588017	0.315127
	N243	N	0.041670	0.418465	0.317778
	N244	N	0.418861	0.680541	0.956493
	N245	N	0.592059	0.683263	0.030120
	N246	N	0.590588	0.323193	0.956569
	N247	N	0.416558	0.320932	0.028981
	N248	N	0.679287	0.963938	0.407778
	N249	N	0.679040	0.038788	0.578107
	N250	N	0.323341	0.964164	0.577552
	N251	N	0.323267	0.040058	0.407989
	N252	N	0.917874	0.464965	0.172461
	N253	N	0.091380	0.538869	0.173291
	N254	N	0.090436	0.465043	0.813761
	N255	N	0.918100	0.538710	0.814526
	N256	N	0.175555	0.919885	0.455706
	N257	N	0.179055	0.087945	0.531320
	N258	N	0.825329	0.085571	0.456228
	N259	N	0.823789	0.915893	0.531765
	N260	N	0.466619	0.180413	0.905369
	N261	N	0.539928	0.179299	0.077873
	N262	N	0.467026	0.822747	0.079674
	N263	N	0.540407	0.825325	0.907898
	N264	N	0.464674	0.916677	0.168718
	N265	N	0.539017	0.088033	0.170399
	N266	N	0.464855	0.086508	0.815930
	N267	N	0.539149	0.916338	0.815307
	N268	N	0.914020	0.182300	0.458002
	N269	N	0.088107	0.180982	0.530981
	N270	N	0.087559	0.823420	0.457423
	N271	N	0.913311	0.820350	0.530568
	N272	N	0.181165	0.463770	0.908965
	N273	N	0.183198	0.538639	0.079448
	N274	N	0.824964	0.464873	0.079594
	N275	N	0.826775	0.539602	0.908744
	O276	O	1.048933	1.022557	0.068404
	H277	H	1.047183	1.022101	0.076685
	H278	H	1.045272	1.029129	0.067754
	O279	O	-0.008620	0.027546	0.071743
	H280	H	-0.006882	0.027728	0.069288
	H281	H	-0.004238	0.030667	0.069962
	O282	O	-0.114936	-0.027139	1.033127
	H283	H	-0.117078	-0.033463	1.037771
	H284	H	-0.128676	-0.030320	1.030289
	O285	O	0.500590	0.501352	0.513268
	H286	H	0.493293	0.503365	0.509294
	H287	H	0.499713	0.504583	0.513148
	O288	O	0.569793	0.439421	0.486931
	H289	H	0.573214	0.436939	0.488893
	H290	H	0.571677	0.442265	0.490643
	O291	O	0.509533	0.450636	0.486655
	H292	H	0.497353	0.454960	0.477723
	H293	H	0.510475	0.456050	0.489756
	O294	O	-0.435834	-0.529786	0.492259
	H295	H	-0.435863	-0.528891	0.493882
	H296	H	-0.431804	-0.536774	0.487075
	O297	O	0.596622	0.555172	0.477856
	H298	H	0.595006	0.557630	0.482176
	H299	H	0.598622	0.556041	0.479009
	O300	O	-0.031229	0.949460	1.087881
	H301	H	-0.034229	0.951467	1.095339
	H302	H	-0.030832	0.955545	1.088532
	O303	O	0.538907	0.504313	0.457509
	H304	H	0.541857	0.502533	0.462162
	H305	H	0.551712	0.512688	0.454430
	O306	O	-0.021638	-0.086675	1.090513
	H307	H	-0.018783	-0.089714	1.104885
	H308	H	-0.019837	-0.075774	1.089538
	O309	O	0.989284	1.002826	1.037970
	H310	H	1.000240	1.008854	1.036097
	H311	H	0.993787	0.996827	1.049223
	O312	O	0.592969	0.537094	0.524105
	H313	H	0.598454	0.527099	0.525015
	H314	H	0.601602	0.533304	0.512908
	O315	O	0.535823	0.533059	0.532711
	H316	H	0.533918	0.532054	0.540455
	H317	H	0.537158	0.530155	0.539540
	O318	O	-0.013177	0.956073	0.047539
	H319	H	-0.010639	0.951278	0.049092
	H320	H	-0.012406	0.948441	0.045359
	O321	O	0.999899	1.020990	0.042007
	H322	H	0.997806	1.018884	0.035451
	H323	H	1.000799	1.021100	0.045214
