data_Molecule from HDF5

_cell_length_a		16.431518
_cell_length_b		15.897252
_cell_length_c		16.537187
_cell_angle_alpha	90.159893
_cell_angle_beta	89.936681
_cell_angle_gamma	90.185969
_symmetry_space_group_name_H-M	'P 1'
_symmetry_Int_Tables_number		1

loop_
	_symmetry_equiv_pos_as_xyz
	x,y,z

loop_
	_atom_site_label
	_atom_site_type_symbol
	_atom_site_fract_x
	_atom_site_fract_y
	_atom_site_fract_z
	H0	H	0.389088	0.835504	0.722532
	H1	H	0.598433	0.164101	0.722727
	H2	H	0.598996	0.836626	0.284634
	H3	H	0.392270	0.165163	0.289455
	H4	H	0.715268	0.390709	0.846099
	H5	H	0.716438	0.610551	0.160650
	H6	H	0.269820	0.608504	0.845365
	H7	H	0.267981	0.392469	0.160909
	H8	H	0.830499	0.713000	0.408720
	H9	H	0.154567	0.715554	0.602421
	H10	H	0.830590	0.283222	0.598265
	H11	H	0.156303	0.287910	0.405858
	H12	H	0.834074	0.388292	0.726057
	H13	H	0.150061	0.609831	0.728159
	H14	H	0.833701	0.607787	0.281544
	H15	H	0.150150	0.391278	0.278032
	H16	H	0.393432	0.717198	0.843322
	H17	H	0.589543	0.715566	0.165778
	H18	H	0.590144	0.282527	0.843431
	H19	H	0.393334	0.284936	0.165516
	H20	H	0.707799	0.833727	0.403215
	H21	H	0.711844	0.164184	0.606449
	H22	H	0.275587	0.836086	0.607106
	H23	H	0.279094	0.164743	0.402881
	H24	H	0.888414	0.334473	0.218932
	H25	H	0.094186	0.663909	0.220406
	H26	H	0.093690	0.334479	0.786204
	H27	H	0.887316	0.663350	0.784144
	H28	H	0.216338	0.893182	0.346004
	H29	H	0.217621	0.109648	0.660562
	H30	H	0.771921	0.104638	0.345531
	H31	H	0.769352	0.889321	0.660946
	H32	H	0.329574	0.210687	0.911523
	H33	H	0.655694	0.216285	0.101346
	H34	H	0.329842	0.786141	0.101201
	H35	H	0.655864	0.786243	0.909061
	H36	H	0.334238	0.893052	0.227090
	H37	H	0.653540	0.107779	0.226051
	H38	H	0.336877	0.111322	0.780397
	H39	H	0.650900	0.890269	0.780638
	H40	H	0.897551	0.211689	0.340528
	H41	H	0.092247	0.217512	0.663472
	H42	H	0.091450	0.782948	0.342557
	H43	H	0.894527	0.783069	0.664520
	H44	H	0.207115	0.334215	0.901928
	H45	H	0.208560	0.665101	0.105630
	H46	H	0.774330	0.335468	0.105022
	H47	H	0.776626	0.665312	0.902166
	H48	H	0.412603	0.116747	0.597908
	H49	H	0.580575	0.883152	0.591182
	H50	H	0.584850	0.119015	0.411486
	H51	H	0.410533	0.881933	0.410191
	H52	H	0.590851	0.407571	0.120555
	H53	H	0.579801	0.587092	0.892427
	H54	H	0.407606	0.598465	0.117289
	H55	H	0.402720	0.410702	0.892238
	H56	H	0.107172	0.589790	0.410060
	H57	H	0.879422	0.592070	0.587353
	H58	H	0.108153	0.409666	0.600618
	H59	H	0.876947	0.407311	0.408282
	H60	H	0.105847	0.409118	0.590633
	H61	H	0.881078	0.577258	0.596543
	H62	H	0.105778	0.585826	0.409200
	H63	H	0.878368	0.408249	0.409731
	H64	H	0.386198	0.592393	0.121261
	H65	H	0.585907	0.595881	0.888722
	H66	H	0.586865	0.421225	0.114541
	H67	H	0.397389	0.403376	0.888067
	H68	H	0.581447	0.116888	0.416685
	H69	H	0.585294	0.881100	0.594430
	H70	H	0.407092	0.115148	0.588233
	H71	H	0.406766	0.884730	0.421667
	H72	H	0.913497	0.612077	0.085755
	H73	H	0.086069	0.379869	0.090086
	H74	H	0.075028	0.612918	0.920306
	H75	H	0.901258	0.379437	0.906537
	H76	H	0.084387	0.914033	0.615494
	H77	H	0.098829	0.093008	0.385166
	H78	H	0.896126	0.088676	0.618427
	H79	H	0.897524	0.911269	0.389799
	H80	H	0.604353	0.083473	0.917260
	H81	H	0.380735	0.088892	0.094353
	H82	H	0.603074	0.916281	0.091586
	H83	H	0.379749	0.910212	0.913684
	H84	H	0.608439	0.914683	0.106342
	H85	H	0.379982	0.083801	0.104717
	H86	H	0.608530	0.086323	0.906205
	H87	H	0.380144	0.914315	0.912821
	H88	H	0.905024	0.083157	0.613272
	H89	H	0.087920	0.079726	0.392996
	H90	H	0.085146	0.907152	0.617840
	H91	H	0.903643	0.909897	0.391153
	H92	H	0.090328	0.620241	0.916226
	H93	H	0.079032	0.380419	0.097516
	H94	H	0.891477	0.621101	0.088538
	H95	H	0.910470	0.385163	0.915479
	H96	H	0.401742	0.120321	0.596739
	H97	H	0.579439	0.881321	0.597053
	H98	H	0.588329	0.119165	0.417505
	H99	H	0.399201	0.879169	0.414022
	H100	H	0.577105	0.409468	0.115821
	H101	H	0.590902	0.585916	0.889703
	H102	H	0.400193	0.576487	0.111822
	H103	H	0.393494	0.412226	0.889842
	H104	H	0.107951	0.588088	0.406990
	H105	H	0.874879	0.592359	0.604166
	H106	H	0.104115	0.418337	0.595619
	H107	H	0.877753	0.409189	0.407668
	H108	H	0.906388	0.621280	0.106876
	H109	H	0.076872	0.383804	0.088222
	H110	H	0.077469	0.619395	0.904604
	H111	H	0.897425	0.381900	0.919566
	H112	H	0.090397	0.911191	0.617457
	H113	H	0.081251	0.096729	0.389770
	H114	H	0.905573	0.094215	0.616714
	H115	H	0.899697	0.905676	0.389335
	H116	H	0.609011	0.094809	0.915310
	H117	H	0.375731	0.095242	0.103115
	H118	H	0.609269	0.902613	0.095707
	H119	H	0.378785	0.911762	0.910110
	C120	C	0.374174	0.009017	0.625284
	C121	C	0.614448	0.990375	0.625447
	C122	C	0.614991	0.009023	0.384022
	C123	C	0.375134	0.990977	0.385049
	C124	C	0.614650	0.379389	0.011715
	C125	C	0.615048	0.622024	0.995877
	C126	C	0.368961	0.621596	0.011711
	C127	C	0.368226	0.377549	0.995317
	C128	C	0.000956	0.619855	0.380958
	C129	C	0.984075	0.620265	0.626107
	C130	C	0.000697	0.378383	0.625093
	C131	C	0.984127	0.377559	0.379056
	C132	C	0.872063	0.508969	0.123808
	C133	C	0.111833	0.490619	0.122682
	C134	C	0.112100	0.508681	0.882297
	C135	C	0.871871	0.490755	0.882730
	C136	C	0.116525	0.878074	0.512162
	C137	C	0.118601	0.122670	0.494349
	C138	C	0.872235	0.119814	0.511070
	C139	C	0.870300	0.876927	0.495299
	C140	C	0.501729	0.120740	0.883252
	C141	C	0.485051	0.121870	0.128965
	C142	C	0.501326	0.878773	0.127661
	C143	C	0.484878	0.879060	0.882336
	C144	C	0.371277	0.885280	0.683591
	C145	C	0.616965	0.114587	0.683884
	C146	C	0.616517	0.885439	0.324670
	C147	C	0.373790	0.115378	0.327672
	C148	C	0.674168	0.374729	0.893072
	C149	C	0.675057	0.626675	0.114037
	C150	C	0.310427	0.624965	0.892500
	C151	C	0.309134	0.375550	0.114497
	C152	C	0.879199	0.676167	0.385791
	C153	C	0.105523	0.678384	0.624360
	C154	C	0.879470	0.320163	0.621260
	C155	C	0.106590	0.323290	0.383247
	C156	C	0.881239	0.372520	0.684718
	C157	C	0.103165	0.625397	0.686646
	C158	C	0.880892	0.623555	0.322890
	C159	C	0.103602	0.375162	0.319925
	C160	C	0.371880	0.679497	0.891423
	C161	C	0.611483	0.678801	0.116794
	C162	C	0.611899	0.320668	0.891672
	C163	C	0.371298	0.321742	0.116682
	C164	C	0.671013	0.884095	0.383423
	C165	C	0.673467	0.114623	0.625980
	C166	C	0.314830	0.885289	0.626093
	C167	C	0.317617	0.115315	0.384422
	C168	C	0.870164	0.384301	0.180823
	C169	C	0.113113	0.614845	0.181040
	C170	C	0.112650	0.384175	0.824666
	C171	C	0.870078	0.614548	0.824230
	C172	C	0.175342	0.875377	0.392761
	C173	C	0.177102	0.126464	0.613474
	C174	C	0.812823	0.121917	0.392224
	C175	C	0.810634	0.873214	0.613899
	C176	C	0.379360	0.175689	0.887895
	C177	C	0.606817	0.179066	0.124165
	C178	C	0.379116	0.822836	0.123737
	C179	C	0.606547	0.822143	0.886018
	C180	C	0.381526	0.875878	0.186633
	C181	C	0.605814	0.125072	0.186081
	C182	C	0.382969	0.125613	0.822959
	C183	C	0.604301	0.874397	0.822571
	C184	C	0.875347	0.175378	0.389631
	C185	C	0.114352	0.180062	0.615003
	C186	C	0.113399	0.820605	0.391249
	C187	C	0.873162	0.820255	0.616057
	C188	C	0.168909	0.383938	0.882309
	C189	C	0.169947	0.615223	0.123889
	C190	C	0.813470	0.384705	0.124005
	C191	C	0.815082	0.615580	0.882953
	C192	C	0.399668	0.095147	0.601316
	C193	C	0.589216	0.904158	0.601452
	C194	C	0.591568	0.095772	0.408137
	C195	C	0.398623	0.904432	0.408735
	C196	C	0.591563	0.405308	0.095307
	C197	C	0.592006	0.596795	0.911993
	C198	C	0.391430	0.596571	0.094985
	C199	C	0.391197	0.401720	0.911727
	C200	C	0.085099	0.595131	0.402747
	C201	C	0.900418	0.594649	0.602702
	C202	C	0.084301	0.404706	0.602364
	C203	C	0.899510	0.401406	0.401799
	C204	C	0.896840	0.595601	0.100520
	C205	C	0.087728	0.403971	0.098826
	C206	C	0.088097	0.595044	0.906594
	C207	C	0.896066	0.404485	0.906801
	C208	C	0.093408	0.903397	0.595313
	C209	C	0.096250	0.097169	0.410793
	C210	C	0.895430	0.095658	0.594517
	C211	C	0.893641	0.901765	0.411887
	C212	C	0.585523	0.095641	0.906289
	C213	C	0.400686	0.096635	0.107062
	C214	C	0.585160	0.903993	0.104707
	C215	C	0.401224	0.904789	0.905471
	Zn216	Zn	0.493930	0.000409	0.753029
	Zn217	Zn	0.494056	0.000371	0.258030
	Zn218	Zn	0.745290	0.500419	0.003292
	Zn219	Zn	0.238657	0.500015	0.002869
	Zn220	Zn	-0.006855	0.748569	0.503997
	Zn221	Zn	-0.006252	0.250156	0.502176
	Zn222	Zn	-0.008363	0.499275	0.755474
	Zn223	Zn	-0.008014	0.499552	0.250170
	Zn224	Zn	0.492385	0.750294	0.004257
	Zn225	Zn	0.492277	0.249635	0.005177
	Zn226	Zn	0.741193	-0.000903	0.504104
	Zn227	Zn	0.247717	-0.000465	0.504148
	N228	N	0.407366	0.963445	0.683253
	N229	N	0.581256	0.036280	0.683868
	N230	N	0.582289	0.964229	0.325004
	N231	N	0.408960	0.037207	0.327987
	N232	N	0.675675	0.410659	0.968827
	N233	N	0.677291	0.592170	0.037759
	N234	N	0.308313	0.589727	0.968312
	N235	N	0.307052	0.409430	0.037986
	N236	N	0.954939	0.674100	0.421154
	N237	N	0.030527	0.675574	0.587558
	N238	N	0.954672	0.323681	0.584878
	N239	N	0.031110	0.324462	0.419220
	N240	N	0.957657	0.408061	0.687279
	N241	N	0.026512	0.590303	0.688147
	N242	N	0.957629	0.589229	0.319680
	N243	N	0.026365	0.408140	0.317218
	N244	N	0.407578	0.677614	0.966402
	N245	N	0.574743	0.676070	0.042035
	N246	N	0.575589	0.323532	0.966574
	N247	N	0.407542	0.322991	0.041845
	N248	N	0.670213	0.962002	0.419647
	N249	N	0.672092	0.036312	0.590558
	N250	N	0.316241	0.963420	0.590815
	N251	N	0.318222	0.036880	0.419638
	N252	N	0.905548	0.462884	0.181101
	N253	N	0.077749	0.536552	0.180508
	N254	N	0.077984	0.462874	0.824548
	N255	N	0.904618	0.535940	0.823891
	N256	N	0.177466	0.910444	0.468810
	N257	N	0.179641	0.091222	0.537504
	N258	N	0.810735	0.088258	0.468751
	N259	N	0.808652	0.907620	0.537758
	N260	N	0.454179	0.172861	0.924773
	N261	N	0.530635	0.177541	0.089766
	N262	N	0.454583	0.824212	0.087961
	N263	N	0.531382	0.825109	0.922631
	N264	N	0.458596	0.909962	0.189279
	N265	N	0.528940	0.090621	0.189332
	N266	N	0.460208	0.092317	0.819802
	N267	N	0.527718	0.908931	0.820096
	N268	N	0.911881	0.174189	0.464358
	N269	N	0.078949	0.178103	0.539925
	N270	N	0.077739	0.822050	0.466499
	N271	N	0.909735	0.822322	0.541219
	N272	N	0.168778	0.462357	0.917232
	N273	N	0.169147	0.536771	0.088445
	N274	N	0.814464	0.463144	0.089337
	N275	N	0.815827	0.537417	0.918194
	O276	O	0.406488	0.419689	0.351257
	H277	H	0.424081	0.412234	0.366086
	H278	H	0.403439	0.399929	0.328328
	O279	O	0.644123	0.532201	0.452691
	H280	H	0.646025	0.530531	0.466732
	H281	H	0.645815	0.524444	0.450656
	O282	O	1.010814	0.068819	1.099373
	H283	H	1.015104	0.056195	1.086272
	H284	H	1.012114	0.077073	1.096113
	O285	O	0.529090	0.522568	0.423916
	H286	H	0.537893	0.520875	0.425684
	H287	H	0.534830	0.528177	0.425136
	O288	O	0.880200	1.096433	0.896560
	H289	H	0.884057	1.086868	0.889590
	H290	H	0.911288	1.108362	0.892799
	O291	O	0.031852	1.071895	0.143428
	H292	H	0.034979	1.081369	0.156762
	H293	H	0.041072	1.058632	0.154126
	O294	O	0.358516	0.602022	0.341061
	H295	H	0.348259	0.589209	0.345709
	H296	H	0.372648	0.602873	0.347831
	O297	O	0.612379	0.351163	0.303348
	H298	H	0.622671	0.351433	0.285058
	H299	H	0.626079	0.335509	0.316147
	O300	O	0.411751	0.345549	0.572402
	H301	H	0.414946	0.355220	0.566731
	H302	H	0.419104	0.338048	0.588431
	O303	O	0.466072	0.683812	0.382274
	H304	H	0.461704	0.690674	0.381017
	H305	H	0.457612	0.684826	0.359611
	O306	O	0.537427	0.423448	0.666770
	H307	H	0.540112	0.429636	0.664017
	H308	H	0.514970	0.430136	0.681298
	O309	O	0.430825	0.512785	0.613480
	H310	H	0.427311	0.495324	0.608549
	H311	H	0.426356	0.512285	0.614096
	O312	O	0.039732	-0.079464	0.149595
	H313	H	0.035766	-0.097827	0.149380
	H314	H	0.048581	-0.069072	0.156631
	O315	O	0.516202	0.613384	0.693434
	H316	H	0.510783	0.599964	0.692013
	H317	H	0.486275	0.610409	0.690052
	O318	O	0.026520	1.054124	1.002949
	H319	H	0.034889	1.045128	0.992336
	H320	H	0.029180	1.068859	1.013679
	O321	O	0.467480	0.623952	0.434019
	H322	H	0.461094	0.616984	0.442816
	H323	H	0.455986	0.637141	0.436001
	O324	O	0.165022	1.044738	-0.122151
	H325	H	0.157738	1.039912	-0.128695
	H326	H	0.184187	1.042329	-0.129240
	O327	O	0.294528	0.522055	0.537050
	H328	H	0.279494	0.495186	0.539836
	H329	H	0.292804	0.511386	0.532006
	O330	O	0.559874	-0.440742	1.601156
	H331	H	0.564776	-0.441211	1.591766
	H332	H	0.553085	-0.422255	1.608182
	O333	O	-0.008676	0.019715	0.798460
	H334	H	-0.006459	0.019048	0.792016
	H335	H	-0.024717	0.009325	0.800901
	O336	O	0.665385	0.536162	0.527093
	H337	H	0.669098	0.549442	0.549315
	H338	H	0.678323	0.537636	0.531589
	O339	O	0.329906	-0.547297	0.510459
	H340	H	0.333758	-0.558023	0.493686
	H341	H	0.331550	-0.554698	0.507329
	O342	O	0.108150	-0.121489	-0.149309
	H343	H	0.108185	-0.111437	-0.143300
	H344	H	0.091282	-0.121543	-0.154371
	O345	O	0.903942	-0.097742	0.915771
	H346	H	0.890862	-0.091837	0.931829
	H347	H	0.890017	-0.098819	0.910395
	O348	O	0.852623	0.952505	0.029706
	H349	H	0.857694	0.957638	0.008470
	H350	H	0.858981	0.952068	0.033618
	O351	O	0.661352	0.332361	0.444001
	H352	H	0.660023	0.340002	0.462323
	H353	H	0.673710	0.343782	0.454696
	O354	O	1.059947	0.017855	1.051347
	H355	H	1.051449	-0.008645	1.062537
	H356	H	1.062391	0.024342	1.052329
	O357	O	0.608569	0.548095	0.635438
	H358	H	0.603776	0.555277	0.644465
	H359	H	0.609165	0.558813	0.632943
	O360	O	0.440647	0.524861	0.632626
	H361	H	0.433352	0.535936	0.633431
	H362	H	0.433601	0.536232	0.627495
	O363	O	-0.012978	0.880816	1.130307
	H364	H	-0.025700	0.877928	1.121928
	H365	H	-0.011647	0.885411	1.133368
	O366	O	0.540430	0.471432	0.390383
	H367	H	0.548177	0.472626	0.392713
	H368	H	0.546948	0.485751	0.387855
	O369	O	0.108560	0.924164	0.058507
	H370	H	0.096128	0.935201	0.041254
	H371	H	0.120287	0.920117	0.061023
	O372	O	1.477121	0.500705	0.417153
	H373	H	1.473947	0.502823	0.407702
	H374	H	1.479178	0.484843	0.415254
	O375	O	0.877661	0.084705	-0.159508
	H376	H	0.865965	0.089916	-0.170299
	H377	H	0.876376	0.071725	-0.153601
	O378	O	1.014030	0.955975	0.079084
	H379	H	1.009471	0.964235	0.068670
	H380	H	1.024053	0.957857	0.078263
	O381	O	0.990227	-0.087830	0.157712
	H382	H	0.985192	-0.077995	0.141413
	H383	H	0.969707	-0.086007	0.166569
	O384	O	1.027251	1.186970	0.064635
	H385	H	1.036633	1.200874	0.069138
	H386	H	1.030520	1.176667	0.049560
	O387	O	-0.080390	0.032771	-0.016288
	H388	H	-0.080505	0.027298	-0.011486
	H389	H	-0.074814	0.042125	-0.003835
	O390	O	-0.012360	0.866544	-0.155450
	H391	H	-0.008362	0.889878	-0.154075
	H392	H	-0.029689	0.856294	-0.174699
	O393	O	1.095204	0.928557	0.979182
	H394	H	1.090003	0.927970	0.984792
	H395	H	1.108747	0.921355	0.985983
	O396	O	0.458664	0.483146	0.515058
	H397	H	0.453679	0.489895	0.493587
	H398	H	0.453652	0.495800	0.523012
	O399	O	-0.131563	1.153879	0.817239
	H400	H	-0.124657	1.151691	0.813268
	H401	H	-0.128457	1.163001	0.814495
	O402	O	0.435449	0.492955	0.559659
	H403	H	0.430895	0.486966	0.549317
	H404	H	0.425202	0.496728	0.544066
	O405	O	0.870725	0.924844	0.002300
	H406	H	0.854849	0.930285	0.000883
	H407	H	0.873813	0.939578	0.013178
	O408	O	1.015834	1.002395	-0.027594
	H409	H	0.997753	0.976597	-0.025887
	H410	H	1.043875	0.991111	-0.013034
	O411	O	0.751724	-0.205637	0.715173
	H412	H	0.770482	-0.188870	0.709614
	H413	H	0.728450	-0.212064	0.720511
	O414	O	0.395073	0.347938	0.523372
	H415	H	0.398703	0.347391	0.543800
	H416	H	0.398425	0.344749	0.529389
	O417	O	0.390582	0.506793	0.552506
	H418	H	0.401052	0.504776	0.549499
	H419	H	0.394004	0.512779	0.546772
