data_Molecule from HDF5

_cell_length_a		16.308978
_cell_length_b		16.105332
_cell_length_c		16.263544
_cell_angle_alpha	90.260948
_cell_angle_beta	90.142829
_cell_angle_gamma	89.937862
_symmetry_space_group_name_H-M	'P 1'
_symmetry_Int_Tables_number		1

loop_
	_symmetry_equiv_pos_as_xyz
	x,y,z

loop_
	_atom_site_label
	_atom_site_type_symbol
	_atom_site_fract_x
	_atom_site_fract_y
	_atom_site_fract_z
	H0	H	0.407201	0.838155	0.712760
	H1	H	0.602595	0.168816	0.713783
	H2	H	0.602960	0.837685	0.285418
	H3	H	0.406914	0.168930	0.286870
	H4	H	0.720799	0.402530	0.835779
	H5	H	0.721802	0.604849	0.162957
	H6	H	0.289722	0.602858	0.836081
	H7	H	0.291141	0.404133	0.163534
	H8	H	0.840351	0.716166	0.404522
	H9	H	0.169260	0.717073	0.598379
	H10	H	0.840783	0.291134	0.595773
	H11	H	0.169331	0.288740	0.402516
	H12	H	0.842627	0.403982	0.715743
	H13	H	0.168837	0.602916	0.716215
	H14	H	0.842369	0.603917	0.284010
	H15	H	0.168873	0.402640	0.285431
	H16	H	0.409460	0.715193	0.834393
	H17	H	0.600912	0.715808	0.165043
	H18	H	0.602980	0.288661	0.835495
	H19	H	0.410764	0.292685	0.164771
	H20	H	0.718233	0.837755	0.400587
	H21	H	0.717993	0.168560	0.599144
	H22	H	0.292138	0.838083	0.597639
	H23	H	0.291855	0.169041	0.401973
	H24	H	0.907863	0.337538	0.212474
	H25	H	0.103521	0.668533	0.214721
	H26	H	0.102392	0.337763	0.787122
	H27	H	0.907066	0.669179	0.788578
	H28	H	0.220193	0.902378	0.335985
	H29	H	0.221805	0.104629	0.662359
	H30	H	0.788898	0.102188	0.335391
	H31	H	0.788989	0.903948	0.663576
	H32	H	0.341179	0.216229	0.904355
	H33	H	0.669882	0.216848	0.097489
	H34	H	0.341282	0.791598	0.095598
	H35	H	0.669251	0.789111	0.902155
	H36	H	0.342121	0.905477	0.213414
	H37	H	0.668758	0.103679	0.215796
	H38	H	0.341604	0.103644	0.785236
	H39	H	0.668316	0.903422	0.784808
	H40	H	0.909132	0.214276	0.334715
	H41	H	0.100365	0.215159	0.664633
	H42	H	0.099974	0.790505	0.335182
	H43	H	0.908745	0.791873	0.665019
	H44	H	0.218706	0.338103	0.901172
	H45	H	0.218656	0.668958	0.099738
	H46	H	0.792244	0.338714	0.097542
	H47	H	0.792697	0.668813	0.903217
	H48	H	0.408763	0.123173	0.592942
	H49	H	0.596378	0.884210	0.594273
	H50	H	0.595019	0.122642	0.403167
	H51	H	0.414112	0.885016	0.401947
	H52	H	0.595520	0.411232	0.115738
	H53	H	0.599642	0.591129	0.884031
	H54	H	0.413943	0.592979	0.114202
	H55	H	0.406043	0.407969	0.881268
	H56	H	0.122707	0.596294	0.402800
	H57	H	0.888753	0.591915	0.597172
	H58	H	0.123516	0.408024	0.596177
	H59	H	0.888282	0.405509	0.408796
	H60	H	0.121742	0.409618	0.591737
	H61	H	0.886625	0.601498	0.598897
	H62	H	0.121659	0.600124	0.410381
	H63	H	0.890773	0.415432	0.406077
	H64	H	0.413649	0.602477	0.117414
	H65	H	0.596476	0.597725	0.883356
	H66	H	0.603238	0.408401	0.118231
	H67	H	0.411307	0.416234	0.884776
	H68	H	0.594276	0.118964	0.412366
	H69	H	0.596494	0.886099	0.590783
	H70	H	0.413879	0.121868	0.595378
	H71	H	0.413308	0.886929	0.408795
	H72	H	0.917267	0.620114	0.094960
	H73	H	0.093658	0.384755	0.101498
	H74	H	0.096940	0.623190	0.902788
	H75	H	0.916655	0.385783	0.905776
	H76	H	0.100528	0.911343	0.616916
	H77	H	0.097819	0.092522	0.383290
	H78	H	0.910256	0.091430	0.614714
	H79	H	0.912598	0.908783	0.383977
	H80	H	0.623192	0.099260	0.906213
	H81	H	0.386248	0.110551	0.092056
	H82	H	0.618701	0.914175	0.086073
	H83	H	0.389813	0.918539	0.900659
	H84	H	0.623183	0.916013	0.101926
	H85	H	0.392796	0.090097	0.085936
	H86	H	0.621221	0.093734	0.908416
	H87	H	0.384330	0.903011	0.899319
	H88	H	0.914597	0.101061	0.616128
	H89	H	0.096841	0.098223	0.382557
	H90	H	0.099639	0.912008	0.617004
	H91	H	0.907789	0.908110	0.381842
	H92	H	0.096035	0.619766	0.911116
	H93	H	0.095553	0.388910	0.083240
	H94	H	0.912416	0.620565	0.090073
	H95	H	0.911187	0.385865	0.911033
	H96	H	0.413370	0.121288	0.590168
	H97	H	0.599852	0.884662	0.591321
	H98	H	0.602650	0.122537	0.409468
	H99	H	0.408171	0.884001	0.405353
	H100	H	0.602055	0.416348	0.115629
	H101	H	0.602978	0.597177	0.881301
	H102	H	0.405720	0.597408	0.118612
	H103	H	0.416321	0.407304	0.883515
	H104	H	0.119578	0.591793	0.409102
	H105	H	0.889862	0.598433	0.589697
	H106	H	0.121510	0.412382	0.595690
	H107	H	0.886648	0.408388	0.399144
	H108	H	0.910927	0.623152	0.095887
	H109	H	0.110041	0.380591	0.093671
	H110	H	0.103862	0.623321	0.909006
	H111	H	0.909743	0.383450	0.904092
	H112	H	0.099891	0.910858	0.616774
	H113	H	0.101569	0.096202	0.381170
	H114	H	0.904847	0.099436	0.619124
	H115	H	0.909684	0.912745	0.384044
	H116	H	0.622731	0.094738	0.902132
	H117	H	0.386911	0.094043	0.106226
	H118	H	0.625344	0.901548	0.094516
	H119	H	0.390212	0.908024	0.913998
	C120	C	0.384095	0.012263	0.620661
	C121	C	0.625801	0.994415	0.621045
	C122	C	0.625506	0.011817	0.379194
	C123	C	0.383418	0.994718	0.377598
	C124	C	0.627842	0.382687	0.007933
	C125	C	0.627615	0.625023	0.991383
	C126	C	0.383409	0.625316	0.007838
	C127	C	0.383795	0.382104	0.991549
	C128	C	0.013221	0.624682	0.379059
	C129	C	0.996772	0.625586	0.623026
	C130	C	0.014097	0.381900	0.621903
	C131	C	0.997005	0.381295	0.377537
	C132	C	0.884804	0.511973	0.121603
	C133	C	0.127746	0.494342	0.121905
	C134	C	0.126686	0.512294	0.879165
	C135	C	0.884470	0.494704	0.879088
	C136	C	0.127364	0.881976	0.508453
	C137	C	0.127073	0.124665	0.490992
	C138	C	0.882060	0.125369	0.507829
	C139	C	0.882658	0.881886	0.491573
	C140	C	0.513890	0.124939	0.878339
	C141	C	0.497103	0.126137	0.122828
	C142	C	0.513783	0.882615	0.121015
	C143	C	0.496396	0.881320	0.876979
	C144	C	0.386955	0.887653	0.675167
	C145	C	0.623380	0.119337	0.676345
	C146	C	0.623236	0.887009	0.323611
	C147	C	0.386244	0.119594	0.324023
	C148	C	0.682758	0.383207	0.884731
	C149	C	0.683404	0.624381	0.114484
	C150	C	0.328354	0.622724	0.884593
	C151	C	0.329453	0.384423	0.114887
	C152	C	0.889689	0.679372	0.382669
	C153	C	0.120359	0.679776	0.619319
	C154	C	0.890016	0.328159	0.617474
	C155	C	0.120428	0.326455	0.381845
	C156	C	0.890823	0.384407	0.676762
	C157	C	0.119954	0.623244	0.678069
	C158	C	0.890668	0.622978	0.323307
	C159	C	0.120233	0.382788	0.323400
	C160	C	0.387959	0.678650	0.883818
	C161	C	0.623125	0.679409	0.115500
	C162	C	0.623685	0.326919	0.884490
	C163	C	0.388586	0.328903	0.115533
	C164	C	0.680353	0.887097	0.380847
	C165	C	0.680710	0.119031	0.619514
	C166	C	0.329422	0.887695	0.618242
	C167	C	0.329008	0.119490	0.381115
	C168	C	0.887425	0.387272	0.175438
	C169	C	0.124455	0.619024	0.177120
	C170	C	0.123847	0.387455	0.824315
	C171	C	0.887073	0.619618	0.825609
	C172	C	0.181571	0.883447	0.384667
	C173	C	0.182990	0.124012	0.613891
	C174	C	0.827212	0.122083	0.384367
	C175	C	0.827505	0.884090	0.614927
	C176	C	0.390177	0.179104	0.882825
	C177	C	0.620644	0.179915	0.118805
	C178	C	0.390187	0.829193	0.116490
	C179	C	0.620117	0.826682	0.880990
	C180	C	0.390595	0.885561	0.175118
	C181	C	0.620090	0.123584	0.177544
	C182	C	0.390306	0.122932	0.823765
	C183	C	0.619659	0.883339	0.822535
	C184	C	0.886905	0.177860	0.383769
	C185	C	0.122819	0.179221	0.614869
	C186	C	0.122268	0.827392	0.384467
	C187	C	0.887432	0.829003	0.615935
	C188	C	0.181157	0.387457	0.881232
	C189	C	0.181622	0.619244	0.119839
	C190	C	0.829756	0.387840	0.118565
	C191	C	0.830051	0.619427	0.882494
	C192	C	0.405728	0.099617	0.599265
	C193	C	0.603973	0.907566	0.598695
	C194	C	0.603578	0.098755	0.401588
	C195	C	0.405281	0.907589	0.398988
	C196	C	0.606621	0.405396	0.094210
	C197	C	0.606129	0.602174	0.905176
	C198	C	0.404726	0.603741	0.094383
	C199	C	0.404886	0.403970	0.905301
	C200	C	0.099254	0.602550	0.401099
	C201	C	0.910685	0.603845	0.601517
	C202	C	0.099989	0.403611	0.600724
	C203	C	0.910896	0.403351	0.398429
	C204	C	0.906985	0.599058	0.100023
	C205	C	0.106160	0.407099	0.099432
	C206	C	0.105237	0.599570	0.901210
	C207	C	0.906256	0.407513	0.900528
	C208	C	0.106200	0.904708	0.594555
	C209	C	0.105360	0.102293	0.404531
	C210	C	0.903530	0.103891	0.594433
	C211	C	0.903759	0.903489	0.405416
	C212	C	0.600002	0.102679	0.899327
	C213	C	0.410840	0.104593	0.101288
	C214	C	0.600283	0.904165	0.100398
	C215	C	0.410425	0.903424	0.898091
	Zn216	Zn	0.504967	0.003819	0.748828
	Zn217	Zn	0.505535	0.003751	0.250746
	Zn218	Zn	0.757143	0.503460	-0.000389
	Zn219	Zn	0.254874	0.503259	0.000184
	Zn220	Zn	0.004719	0.754007	0.500730
	Zn221	Zn	0.004779	0.253439	0.499460
	Zn222	Zn	0.005360	0.503534	0.751362
	Zn223	Zn	0.006158	0.502572	0.249282
	Zn224	Zn	0.505617	0.753992	-0.000291
	Zn225	Zn	0.505629	0.253880	0.000311
	Zn226	Zn	0.753470	0.003202	0.499906
	Zn227	Zn	0.256364	0.003518	0.499288
	N228	N	0.420298	0.966160	0.676656
	N229	N	0.589913	0.040950	0.677383
	N230	N	0.589625	0.965516	0.322509
	N231	N	0.419314	0.040948	0.321737
	N232	N	0.685358	0.417228	0.962479
	N233	N	0.686331	0.591118	0.036359
	N234	N	0.325414	0.590499	0.962730
	N235	N	0.326403	0.416924	0.036679
	N236	N	0.966957	0.680271	0.416694
	N237	N	0.042750	0.681227	0.585892
	N238	N	0.967457	0.326546	0.583991
	N239	N	0.042809	0.325298	0.414804
	N240	N	0.968762	0.417193	0.679652
	N241	N	0.042091	0.590248	0.680553
	N242	N	0.968537	0.589915	0.320713
	N243	N	0.042699	0.416233	0.320600
	N244	N	0.421285	0.680552	0.961753
	N245	N	0.589269	0.680189	0.037975
	N246	N	0.590467	0.326283	0.962155
	N247	N	0.421739	0.327474	0.037876
	N248	N	0.681797	0.965512	0.414601
	N249	N	0.682286	0.040474	0.585740
	N250	N	0.327684	0.966116	0.584986
	N251	N	0.327209	0.040798	0.413622
	N252	N	0.921068	0.465580	0.177121
	N253	N	0.091571	0.540426	0.178305
	N254	N	0.090840	0.465979	0.822861
	N255	N	0.920222	0.540986	0.823401
	N256	N	0.184850	0.916769	0.462767
	N257	N	0.185453	0.090928	0.535750
	N258	N	0.824283	0.090067	0.462708
	N259	N	0.824797	0.916668	0.536821
	N260	N	0.467802	0.180424	0.916010
	N261	N	0.543084	0.181334	0.085298
	N262	N	0.467783	0.827168	0.083929
	N263	N	0.542608	0.825348	0.914170
	N264	N	0.468696	0.918293	0.177909
	N265	N	0.542243	0.091024	0.180312
	N266	N	0.468173	0.089708	0.820989
	N267	N	0.541840	0.916545	0.819620
	N268	N	0.920190	0.179980	0.461495
	N269	N	0.088380	0.179470	0.537501
	N270	N	0.089320	0.826359	0.462316
	N271	N	0.920947	0.827463	0.538389
	N272	N	0.182955	0.466141	0.914772
	N273	N	0.183873	0.540550	0.086493
	N274	N	0.827967	0.466357	0.085878
	N275	N	0.828381	0.540697	0.914916
	O276	O	-0.450667	-0.474704	1.496779
	H277	H	-0.448525	-0.477797	1.491242
	H278	H	-0.447951	-0.468075	1.495000
	O279	O	0.499177	0.495711	0.503130
	H280	H	0.490990	0.491126	0.500234
	H281	H	0.493288	0.492617	0.501900
	O282	O	0.542716	0.459569	0.525001
	H283	H	0.542486	0.461452	0.524748
	H284	H	0.551086	0.452493	0.521405
	O285	O	0.511055	1.531673	-0.517965
	H286	H	0.516210	1.539005	-0.513231
	H287	H	0.513723	1.536771	-0.514931
	O288	O	0.542324	0.488751	0.499748
	H289	H	0.546821	0.489467	0.498038
	H290	H	0.548145	0.481029	0.499351
	O291	O	-0.490156	0.482334	1.506738
	H292	H	-0.495291	0.482581	1.510999
	H293	H	-0.490831	0.490106	1.508517
	O294	O	0.514472	0.518432	0.490680
	H295	H	0.514467	0.515424	0.499170
	H296	H	0.512128	0.524566	0.481116
	O297	O	1.188440	-0.221941	-0.201371
	H298	H	1.190959	-0.224083	-0.204135
	H299	H	1.189276	-0.229111	-0.201105
