data_Molecule from HDF5

_cell_length_a		16.382372
_cell_length_b		16.281318
_cell_length_c		16.331792
_cell_angle_alpha	90.010584
_cell_angle_beta	90.178338
_cell_angle_gamma	89.594946
_symmetry_space_group_name_H-M	'P 1'
_symmetry_Int_Tables_number		1

loop_
	_symmetry_equiv_pos_as_xyz
	x,y,z

loop_
	_atom_site_label
	_atom_site_type_symbol
	_atom_site_fract_x
	_atom_site_fract_y
	_atom_site_fract_z
	H0	H	0.390555	0.841210	0.712128
	H1	H	0.590826	0.164660	0.710807
	H2	H	0.597668	0.840640	0.275065
	H3	H	0.389674	0.163778	0.275959
	H4	H	0.708850	0.398299	0.833255
	H5	H	0.713828	0.609284	0.151851
	H6	H	0.271582	0.604381	0.833385
	H7	H	0.273006	0.398537	0.155416
	H8	H	0.831932	0.721784	0.392852
	H9	H	0.152236	0.720774	0.601603
	H10	H	0.830075	0.288066	0.592517
	H11	H	0.152816	0.283000	0.393690
	H12	H	0.830985	0.401176	0.710212
	H13	H	0.153226	0.600673	0.714045
	H14	H	0.833567	0.610309	0.273024
	H15	H	0.151283	0.395183	0.274203
	H16	H	0.388641	0.719367	0.831763
	H17	H	0.593001	0.720601	0.154847
	H18	H	0.590767	0.285410	0.832658
	H19	H	0.389901	0.284385	0.155705
	H20	H	0.711984	0.841017	0.391876
	H21	H	0.707842	0.164485	0.596104
	H22	H	0.275677	0.840308	0.595771
	H23	H	0.271519	0.161848	0.389400
	H24	H	0.889619	0.341592	0.213751
	H25	H	0.097966	0.661785	0.217180
	H26	H	0.095145	0.339032	0.779136
	H27	H	0.886296	0.660917	0.773202
	H28	H	0.214386	0.892688	0.333470
	H29	H	0.211728	0.103321	0.653212
	H30	H	0.770164	0.108657	0.334570
	H31	H	0.773675	0.900651	0.654430
	H32	H	0.329689	0.220218	0.893491
	H33	H	0.651543	0.222090	0.098716
	H34	H	0.331229	0.786440	0.095123
	H35	H	0.650222	0.781113	0.889327
	H36	H	0.333100	0.898297	0.212841
	H37	H	0.651759	0.106354	0.214644
	H38	H	0.330836	0.106498	0.774954
	H39	H	0.651754	0.899498	0.775912
	H40	H	0.887915	0.221140	0.333439
	H41	H	0.092869	0.217213	0.655379
	H42	H	0.099060	0.776403	0.335135
	H43	H	0.890672	0.785214	0.655937
	H44	H	0.211641	0.341405	0.892309
	H45	H	0.211717	0.661538	0.101589
	H46	H	0.771980	0.342192	0.098922
	H47	H	0.767288	0.660340	0.884758
	H48	H	0.395972	0.120553	0.588165
	H49	H	0.580189	0.888072	0.585001
	H50	H	0.589459	0.118413	0.407026
	H51	H	0.403100	0.887011	0.404560
	H52	H	0.582297	0.414243	0.108554
	H53	H	0.574046	0.592472	0.880287
	H54	H	0.396396	0.597677	0.111796
	H55	H	0.409761	0.401997	0.878952
	H56	H	0.103646	0.587544	0.412352
	H57	H	0.878435	0.600461	0.577137
	H58	H	0.109145	0.402712	0.585000
	H59	H	0.877439	0.410653	0.404339
	H60	H	0.106057	0.411350	0.585270
	H61	H	0.881324	0.584131	0.583316
	H62	H	0.103581	0.584240	0.406096
	H63	H	0.878555	0.414029	0.404255
	H64	H	0.398433	0.588121	0.107573
	H65	H	0.582717	0.594196	0.877073
	H66	H	0.581165	0.412906	0.109283
	H67	H	0.387182	0.410898	0.874823
	H68	H	0.578650	0.118878	0.394688
	H69	H	0.586243	0.887414	0.581187
	H70	H	0.407931	0.114558	0.584327
	H71	H	0.402038	0.885580	0.400459
	H72	H	0.899655	0.618258	0.084779
	H73	H	0.082984	0.388082	0.080357
	H74	H	0.086422	0.616331	0.910233
	H75	H	0.902248	0.383831	0.895696
	H76	H	0.077339	0.912338	0.605740
	H77	H	0.082121	0.093824	0.377818
	H78	H	0.902224	0.103219	0.611592
	H79	H	0.903021	0.915647	0.381416
	H80	H	0.608060	0.101933	0.906010
	H81	H	0.379794	0.086003	0.086045
	H82	H	0.608057	0.911881	0.087547
	H83	H	0.376339	0.916376	0.898048
	H84	H	0.606817	0.908357	0.080772
	H85	H	0.374401	0.096642	0.089199
	H86	H	0.601954	0.086207	0.909089
	H87	H	0.374351	0.908403	0.901270
	H88	H	0.890515	0.092182	0.612227
	H89	H	0.083864	0.088739	0.378650
	H90	H	0.086954	0.907240	0.609572
	H91	H	0.905250	0.912977	0.380711
	H92	H	0.082431	0.619878	0.896497
	H93	H	0.084042	0.386260	0.085412
	H94	H	0.907184	0.615022	0.084440
	H95	H	0.907496	0.390172	0.909003
	H96	H	0.398020	0.115409	0.575848
	H97	H	0.586347	0.885147	0.587919
	H98	H	0.574230	0.112952	0.409735
	H99	H	0.406231	0.886435	0.401480
	H100	H	0.583452	0.412122	0.108908
	H101	H	0.580538	0.586282	0.880511
	H102	H	0.405401	0.595627	0.107083
	H103	H	0.403775	0.425510	0.885393
	H104	H	0.106941	0.590196	0.407071
	H105	H	0.873488	0.596617	0.594193
	H106	H	0.109295	0.407172	0.593140
	H107	H	0.877013	0.412563	0.401622
	H108	H	0.902222	0.615075	0.077745
	H109	H	0.078584	0.388691	0.084624
	H110	H	0.073321	0.614198	0.905569
	H111	H	0.892681	0.384447	0.908276
	H112	H	0.087140	0.918340	0.606143
	H113	H	0.078736	0.090012	0.379803
	H114	H	0.904913	0.087382	0.606008
	H115	H	0.901961	0.912271	0.379658
	H116	H	0.608248	0.090171	0.893720
	H117	H	0.378892	0.095457	0.077473
	H118	H	0.605254	0.915773	0.081226
	H119	H	0.377466	0.913489	0.905867
	C120	C	0.370744	0.010448	0.614051
	C121	C	0.613199	0.994178	0.615175
	C122	C	0.612957	0.010229	0.372841
	C123	C	0.371330	0.992805	0.371427
	C124	C	0.612290	0.381344	0.002837
	C125	C	0.612027	0.623730	0.984712
	C126	C	0.368761	0.624368	0.002267
	C127	C	0.370080	0.381643	0.986204
	C128	C	0.000144	0.621847	0.375164
	C129	C	0.983864	0.623281	0.617157
	C130	C	0.001258	0.378794	0.616514
	C131	C	0.983390	0.380317	0.372332
	C132	C	0.871076	0.510606	0.114871
	C133	C	0.113625	0.493323	0.116686
	C134	C	0.112248	0.510090	0.874063
	C135	C	0.869074	0.492269	0.871942
	C136	C	0.115725	0.878498	0.502268
	C137	C	0.112532	0.121731	0.484871
	C138	C	0.868524	0.125298	0.503437
	C139	C	0.872514	0.882580	0.486649
	C140	C	0.499994	0.124324	0.872288
	C141	C	0.483537	0.123954	0.115729
	C142	C	0.501218	0.881230	0.114150
	C143	C	0.482095	0.881001	0.871186
	C144	C	0.371103	0.889194	0.672668
	C145	C	0.611522	0.116026	0.672451
	C146	C	0.615312	0.888934	0.314693
	C147	C	0.370565	0.114918	0.314240
	C148	C	0.669872	0.379786	0.881445
	C149	C	0.673012	0.626825	0.104538
	C150	C	0.310624	0.624013	0.881497
	C151	C	0.312017	0.380330	0.107115
	C152	C	0.880149	0.682411	0.373530
	C153	C	0.104234	0.681320	0.619492
	C154	C	0.878749	0.324754	0.613748
	C155	C	0.104300	0.321498	0.373308
	C156	C	0.879430	0.381169	0.672152
	C157	C	0.104727	0.621549	0.675531
	C158	C	0.880989	0.626587	0.313972
	C159	C	0.103668	0.377704	0.314180
	C160	C	0.368990	0.681281	0.880601
	C161	C	0.613149	0.682347	0.105832
	C162	C	0.611039	0.323584	0.881142
	C163	C	0.370370	0.323479	0.107471
	C164	C	0.672674	0.889225	0.372394
	C165	C	0.669405	0.115948	0.615131
	C166	C	0.314168	0.888721	0.614555
	C167	C	0.311779	0.114020	0.370771
	C168	C	0.870188	0.389926	0.174520
	C169	C	0.115971	0.613701	0.177345
	C170	C	0.113951	0.388119	0.816921
	C171	C	0.867400	0.612708	0.812275
	C172	C	0.174833	0.874898	0.381844
	C173	C	0.171468	0.121945	0.605887
	C174	C	0.809484	0.126927	0.382679
	C175	C	0.813512	0.881578	0.606779
	C176	C	0.378524	0.182122	0.873195
	C177	C	0.603479	0.183022	0.117542
	C178	C	0.379860	0.824248	0.114692
	C179	C	0.602430	0.821043	0.870569
	C180	C	0.380641	0.880216	0.173243
	C181	C	0.603845	0.125176	0.175067
	C182	C	0.378940	0.125236	0.814447
	C183	C	0.603397	0.879993	0.814230
	C184	C	0.868592	0.182642	0.381861
	C185	C	0.112337	0.178589	0.606762
	C186	C	0.117381	0.817016	0.382586
	C187	C	0.871809	0.824413	0.607694
	C188	C	0.171941	0.389122	0.873481
	C189	C	0.172479	0.613657	0.119570
	C190	C	0.811514	0.390414	0.117396
	C191	C	0.808396	0.612498	0.868180
	C192	C	0.393849	0.095021	0.589668
	C193	C	0.590742	0.908940	0.591656
	C194	C	0.588050	0.094856	0.396807
	C195	C	0.396420	0.908346	0.395229
	C196	C	0.589025	0.405806	0.086990
	C197	C	0.586740	0.598411	0.900982
	C198	C	0.393106	0.600726	0.086930
	C199	C	0.393490	0.405833	0.901740
	C200	C	0.083243	0.595033	0.400965
	C201	C	0.899690	0.600387	0.592250
	C202	C	0.086157	0.400498	0.594295
	C203	C	0.899430	0.405143	0.396363
	C204	C	0.895928	0.594285	0.089539
	C205	C	0.088859	0.409446	0.091010
	C206	C	0.087602	0.594864	0.897374
	C207	C	0.893877	0.408069	0.897068
	C208	C	0.090889	0.904865	0.585618
	C209	C	0.088416	0.097759	0.400615
	C210	C	0.892189	0.101333	0.587999
	C211	C	0.896753	0.906678	0.402491
	C212	C	0.584360	0.099888	0.895969
	C213	C	0.399621	0.099793	0.091187
	C214	C	0.584829	0.905057	0.090202
	C215	C	0.398107	0.905639	0.894848
	Zn216	Zn	0.491075	0.002688	0.742972
	Zn217	Zn	0.492674	0.001197	0.242862
	Zn218	Zn	0.741088	0.501769	-0.006472
	Zn219	Zn	0.240698	0.501986	-0.005196
	Zn220	Zn	-0.007401	0.751893	0.495127
	Zn221	Zn	-0.008448	0.251318	0.494230
	Zn222	Zn	-0.007818	0.500159	0.744795
	Zn223	Zn	-0.007610	0.502477	0.244376
	Zn224	Zn	0.490631	0.752658	-0.006485
	Zn225	Zn	0.491174	0.252664	-0.005452
	Zn226	Zn	0.741992	0.002905	0.493961
	Zn227	Zn	0.242786	0.001015	0.492437
	N228	N	0.405518	0.965938	0.672531
	N229	N	0.577325	0.039116	0.672670
	N230	N	0.579175	0.965310	0.314625
	N231	N	0.406729	0.038436	0.314384
	N232	N	0.670945	0.414931	0.957968
	N233	N	0.672590	0.591263	0.028046
	N234	N	0.310019	0.589814	0.958414
	N235	N	0.311972	0.415896	0.030612
	N236	N	0.955382	0.679609	0.410749
	N237	N	0.028013	0.682685	0.584102
	N238	N	0.955370	0.323174	0.579859
	N239	N	0.028358	0.322905	0.408742
	N240	N	0.956580	0.413676	0.674253
	N241	N	0.028680	0.586587	0.674350
	N242	N	0.956605	0.589298	0.315220
	N243	N	0.027418	0.413235	0.313292
	N244	N	0.404084	0.681786	0.957110
	N245	N	0.576104	0.680710	0.030304
	N246	N	0.576367	0.324045	0.957662
	N247	N	0.405550	0.324095	0.031434
	N248	N	0.671553	0.966008	0.407663
	N249	N	0.670651	0.039137	0.580397
	N250	N	0.314040	0.965105	0.578674
	N251	N	0.311895	0.037002	0.405185
	N252	N	0.906241	0.465831	0.173269
	N253	N	0.080170	0.537597	0.175832
	N254	N	0.077290	0.464320	0.817183
	N255	N	0.904648	0.536957	0.814558
	N256	N	0.173867	0.912394	0.457168
	N257	N	0.171735	0.087367	0.529167
	N258	N	0.809408	0.091918	0.459284
	N259	N	0.813940	0.917044	0.530594
	N260	N	0.454865	0.181680	0.908508
	N261	N	0.527441	0.182461	0.081408
	N262	N	0.455452	0.824848	0.078367
	N263	N	0.526100	0.821550	0.905246
	N264	N	0.457077	0.914742	0.173181
	N265	N	0.528280	0.089351	0.174050
	N266	N	0.455561	0.090353	0.813430
	N267	N	0.527600	0.916455	0.814388
	N268	N	0.904422	0.181946	0.457942
	N269	N	0.076539	0.178741	0.530506
	N270	N	0.081334	0.819077	0.458469
	N271	N	0.908123	0.824888	0.531934
	N272	N	0.171069	0.465936	0.908331
	N273	N	0.171275	0.537918	0.082541
	N274	N	0.811761	0.466605	0.081066
	N275	N	0.809478	0.536542	0.904769
	O276	O	0.478844	0.360365	0.425387
	H277	H	0.481398	0.363937	0.418513
	H278	H	0.467106	0.373862	0.425643
	O279	O	0.837184	0.990183	-0.152210
	H280	H	0.850959	0.979105	-0.141183
	H281	H	0.827402	0.985400	-0.152077
	O282	O	-0.057596	-0.189907	1.194607
	H283	H	-0.079917	-0.196546	1.178083
	H284	H	-0.069565	-0.192902	1.204803
	O285	O	1.177827	-0.169206	-0.185023
	H286	H	1.172086	-0.137244	-0.186828
	H287	H	1.188607	-0.164915	-0.192611
	O288	O	-0.637696	0.392456	0.510558
	H289	H	-0.639326	0.406414	0.520084
	H290	H	-0.641704	0.392661	0.508421
	O291	O	0.451349	0.537801	0.538153
	H292	H	0.443902	0.539731	0.551662
	H293	H	0.452503	0.546506	0.544913
	O294	O	0.527472	0.609369	0.470392
	H295	H	0.548285	0.615446	0.469165
	H296	H	0.519966	0.621193	0.475440
	O297	O	1.192731	1.019770	0.964264
	H298	H	1.181966	1.022697	0.976874
	H299	H	1.197222	1.021229	0.979953
	O300	O	0.024989	-0.051296	-0.079618
	H301	H	0.032482	-0.058357	-0.073093
	H302	H	0.046920	-0.054076	-0.062157
	O303	O	0.566578	0.485393	0.570299
	H304	H	0.562066	0.482657	0.565701
	H305	H	0.574557	0.483735	0.559700
	O306	O	0.884066	0.121188	0.093020
	H307	H	0.893905	0.113682	0.079252
	H308	H	0.884164	0.131648	0.079199
	O309	O	0.570864	0.643285	0.566174
	H310	H	0.571860	0.634064	0.565631
	H311	H	0.585738	0.641416	0.554720
	O312	O	0.857686	0.837510	0.145245
	H313	H	0.852453	0.861999	0.159525
	H314	H	0.858713	0.833834	0.121173
	O315	O	0.516938	0.381218	0.440880
	H316	H	0.515515	0.387643	0.426953
	H317	H	0.509260	0.386749	0.454246
	O318	O	0.349775	0.693720	0.517024
	H319	H	0.341507	0.684767	0.519484
	H320	H	0.350926	0.699330	0.495858
	O321	O	1.080442	0.051301	1.056792
	H322	H	1.078011	0.053009	1.068765
	H323	H	1.085057	0.031489	1.058753
	O324	O	0.112950	0.138902	1.067492
	H325	H	0.105662	0.132381	1.081989
	H326	H	0.101086	0.150082	1.068659
	O327	O	0.595612	0.441732	0.441954
	H328	H	0.589905	0.425439	0.445038
	H329	H	0.594392	0.434083	0.431376
	O330	O	0.552053	0.455483	0.385296
	H331	H	0.543121	0.477648	0.383622
	H332	H	0.545496	0.445976	0.364820
	O333	O	1.195759	1.020308	1.108611
	H334	H	1.180847	1.044411	1.100978
	H335	H	1.219141	1.029430	1.130878
	O336	O	0.496191	0.420967	0.441675
	H337	H	0.492918	0.425077	0.455366
	H338	H	0.482590	0.418492	0.435285
	O339	O	0.801289	-0.083191	0.931563
	H340	H	0.815948	-0.080711	0.938578
	H341	H	0.804109	-0.090312	0.930438
	O342	O	-0.417376	0.381750	1.438966
	H343	H	-0.418851	0.383603	1.445392
	H344	H	-0.411674	0.358981	1.442600
	O345	O	0.492163	0.548616	0.405712
	H346	H	0.506877	0.537405	0.388713
	H347	H	0.485283	0.556756	0.415205
	O348	O	0.481632	0.562141	0.518436
	H349	H	0.477415	0.571745	0.513652
	H350	H	0.482220	0.564188	0.512831
	O351	O	0.014014	-0.159605	-0.211587
	H352	H	0.037709	-0.151453	-0.208889
	H353	H	0.014081	-0.175786	-0.229914
	O354	O	1.032371	1.031131	0.102112
	H355	H	1.041665	1.035926	0.112234
	H356	H	1.041857	1.024999	0.107964
	O357	O	-0.186359	1.182406	-0.033489
	H358	H	-0.187844	1.165223	-0.046246
	H359	H	-0.202074	1.188596	-0.050814
	O360	O	0.439960	0.546918	0.659843
	H361	H	0.439811	0.547542	0.665024
	H362	H	0.447100	0.544524	0.651145
	O363	O	0.534698	0.570630	0.380176
	H364	H	0.544912	0.574775	0.390921
	H365	H	0.528768	0.563405	0.374072
	O366	O	1.065603	1.109631	1.203110
	H367	H	1.049558	1.106649	1.215085
	H368	H	1.057449	1.103397	1.190755
	O369	O	0.316664	0.465491	0.435037
	H370	H	0.295764	0.470302	0.427873
	H371	H	0.323882	0.474796	0.435861
	O372	O	1.065650	1.159735	-0.132247
	H373	H	1.049822	1.155501	-0.119286
	H374	H	1.047050	1.168589	-0.136500
	O375	O	0.435558	0.377388	0.584727
	H376	H	0.426611	0.363541	0.589202
	H377	H	0.432258	0.374213	0.597808
	O378	O	0.322836	0.597938	0.447643
	H379	H	0.330589	0.593441	0.446664
	H380	H	0.312586	0.594082	0.452121
	O381	O	0.602575	0.530619	0.531501
	H382	H	0.603929	0.528196	0.512151
	H383	H	0.609720	0.524111	0.543559
	O384	O	-0.078807	1.087202	0.820840
	H385	H	-0.092396	1.094810	0.816625
	H386	H	-0.091136	1.074903	0.822579
	O387	O	1.171503	1.145486	0.130176
	H388	H	1.187023	1.141628	0.114956
	H389	H	1.139530	1.155384	0.134622
	O390	O	0.639780	0.677903	0.512245
	H391	H	0.649223	0.670796	0.507626
	H392	H	0.656377	0.674086	0.508903
	O393	O	1.027374	-0.813073	1.901924
	H394	H	1.008598	-0.823274	1.913378
	H395	H	1.012242	-0.791230	1.884107
	O396	O	0.028793	0.812640	1.076222
	H397	H	0.035206	0.812256	1.095968
	H398	H	0.030364	0.808127	1.065243
	O399	O	0.618573	0.469215	0.363034
	H400	H	0.623733	0.455402	0.362703
	H401	H	0.628559	0.462421	0.352768
	O402	O	0.797524	-0.012456	1.168167
	H403	H	0.781974	-0.013218	1.184111
	H404	H	0.811516	0.003593	1.156362
	O405	O	0.041560	-0.114180	-0.081971
	H406	H	0.054630	-0.102459	-0.095753
	H407	H	0.057981	-0.124839	-0.081847
	O408	O	0.785515	0.798836	1.037219
	H409	H	0.792476	0.792020	1.027343
	H410	H	0.782777	0.781173	1.024807
	O411	O	0.809959	1.140199	-0.187111
	H412	H	0.803600	1.138745	-0.186514
	H413	H	0.800021	1.098342	-0.188111
	O414	O	0.188095	-0.210597	0.977391
	H415	H	0.182761	-0.209686	0.944097
	H416	H	0.214252	-0.223290	0.978243
	O417	O	0.888231	0.018841	1.062641
	H418	H	0.899978	0.007032	1.068443
	H419	H	0.898580	0.026314	1.060008
	O420	O	0.102621	1.010309	-0.197115
	H421	H	0.099809	1.021953	-0.180947
	H422	H	0.092623	1.021210	-0.201063
	O423	O	1.473178	0.407731	-0.428236
	H424	H	1.474977	0.416823	-0.430088
	H425	H	1.465221	0.409000	-0.419528
	O426	O	-0.153412	0.183002	1.059051
	H427	H	-0.161127	0.185836	1.036749
	H428	H	-0.156566	0.179572	1.047552
	O429	O	0.499091	0.487832	0.656322
	H430	H	0.485669	0.489143	0.659912
	H431	H	0.509910	0.497113	0.650425
