data_Molecule from HDF5

_cell_length_a		16.289070
_cell_length_b		16.396730
_cell_length_c		16.402806
_cell_angle_alpha	90.005826
_cell_angle_beta	90.077015
_cell_angle_gamma	90.332103
_symmetry_space_group_name_H-M	'P 1'
_symmetry_Int_Tables_number		1

loop_
	_symmetry_equiv_pos_as_xyz
	x,y,z

loop_
	_atom_site_label
	_atom_site_type_symbol
	_atom_site_fract_x
	_atom_site_fract_y
	_atom_site_fract_z
	H0	H	0.386639	0.835712	0.732519
	H1	H	0.606408	0.150203	0.730995
	H2	H	0.606811	0.835055	0.282990
	H3	H	0.393652	0.151339	0.287047
	H4	H	0.719528	0.382056	0.850522
	H5	H	0.718242	0.595224	0.167197
	H6	H	0.274204	0.598089	0.851198
	H7	H	0.275798	0.386268	0.167449
	H8	H	0.837362	0.713102	0.400563
	H9	H	0.155823	0.715783	0.615659
	H10	H	0.839821	0.266728	0.614454
	H11	H	0.159233	0.275362	0.405016
	H12	H	0.838241	0.380804	0.731608
	H13	H	0.154130	0.601853	0.733717
	H14	H	0.835280	0.593885	0.288677
	H15	H	0.156559	0.387208	0.287309
	H16	H	0.387826	0.716278	0.851539
	H17	H	0.608928	0.716701	0.165338
	H18	H	0.601541	0.270393	0.849329
	H19	H	0.387462	0.267130	0.165640
	H20	H	0.720585	0.833978	0.399536
	H21	H	0.721914	0.149859	0.614909
	H22	H	0.273520	0.834526	0.614660
	H23	H	0.278907	0.151682	0.403570
	H24	H	0.888224	0.331081	0.228912
	H25	H	0.103276	0.649462	0.231042
	H26	H	0.102436	0.333499	0.787110
	H27	H	0.887778	0.648598	0.782839
	H28	H	0.217914	0.888306	0.349066
	H29	H	0.219587	0.097672	0.666307
	H30	H	0.775721	0.099018	0.350387
	H31	H	0.773742	0.882883	0.665949
	H32	H	0.336134	0.209756	0.903193
	H33	H	0.657288	0.214450	0.112439
	H34	H	0.340127	0.767225	0.116297
	H35	H	0.654558	0.767014	0.896568
	H36	H	0.338829	0.884841	0.230026
	H37	H	0.657422	0.100066	0.229393
	H38	H	0.339055	0.099297	0.783789
	H39	H	0.655531	0.884583	0.782878
	H40	H	0.890173	0.215310	0.350558
	H41	H	0.105934	0.215092	0.665766
	H42	H	0.106554	0.767613	0.350876
	H43	H	0.887107	0.766258	0.664329
	H44	H	0.216781	0.332792	0.904665
	H45	H	0.222074	0.649341	0.118073
	H46	H	0.774256	0.331941	0.111988
	H47	H	0.773380	0.649301	0.899805
	H48	H	0.416398	0.106373	0.602158
	H49	H	0.591005	0.877727	0.592633
	H50	H	0.588552	0.106485	0.417792
	H51	H	0.403985	0.877028	0.418224
	H52	H	0.580668	0.401286	0.120139
	H53	H	0.585168	0.578574	0.894938
	H54	H	0.411899	0.591624	0.125629
	H55	H	0.404710	0.407793	0.895553
	H56	H	0.109081	0.578471	0.423107
	H57	H	0.884674	0.578455	0.593606
	H58	H	0.111085	0.403552	0.599770
	H59	H	0.883750	0.406505	0.419122
	H60	H	0.112624	0.403916	0.596816
	H61	H	0.884428	0.576152	0.593564
	H62	H	0.111537	0.577589	0.414508
	H63	H	0.879633	0.399073	0.414906
	H64	H	0.400017	0.573682	0.123078
	H65	H	0.582833	0.579669	0.895458
	H66	H	0.586709	0.399488	0.123636
	H67	H	0.413490	0.400288	0.895736
	H68	H	0.585846	0.104694	0.418685
	H69	H	0.582749	0.877627	0.602587
	H70	H	0.411588	0.102332	0.589108
	H71	H	0.413825	0.878628	0.414992
	H72	H	0.903814	0.606637	0.100516
	H73	H	0.089919	0.378066	0.091673
	H74	H	0.082627	0.606096	0.914838
	H75	H	0.910000	0.378487	0.918128
	H76	H	0.083620	0.902215	0.621252
	H77	H	0.087200	0.086762	0.392205
	H78	H	0.914568	0.078907	0.619419
	H79	H	0.919531	0.907638	0.399953
	H80	H	0.612526	0.085789	0.920648
	H81	H	0.383009	0.079810	0.098022
	H82	H	0.608396	0.912984	0.092809
	H83	H	0.387977	0.914548	0.919130
	H84	H	0.614046	0.905283	0.102115
	H85	H	0.382604	0.080783	0.097898
	H86	H	0.609806	0.079315	0.922598
	H87	H	0.380403	0.899376	0.914907
	H88	H	0.910890	0.081161	0.621922
	H89	H	0.091354	0.081158	0.392191
	H90	H	0.086696	0.904191	0.622289
	H91	H	0.910392	0.891498	0.391489
	H92	H	0.080491	0.601826	0.925245
	H93	H	0.087840	0.375685	0.103989
	H94	H	0.913601	0.603766	0.100601
	H95	H	0.909547	0.380608	0.922859
	H96	H	0.402507	0.108915	0.598930
	H97	H	0.579001	0.882688	0.591935
	H98	H	0.588581	0.104487	0.421922
	H99	H	0.410527	0.881706	0.424168
	H100	H	0.585705	0.405738	0.120150
	H101	H	0.584600	0.581659	0.894405
	H102	H	0.420758	0.574329	0.116270
	H103	H	0.403305	0.396636	0.891522
	H104	H	0.112916	0.585763	0.418697
	H105	H	0.884021	0.577361	0.595535
	H106	H	0.110905	0.406228	0.597726
	H107	H	0.883103	0.398202	0.423872
	H108	H	0.907682	0.602312	0.092740
	H109	H	0.078259	0.380577	0.097153
	H110	H	0.091488	0.606801	0.923202
	H111	H	0.905818	0.377632	0.920510
	H112	H	0.084259	0.905730	0.620318
	H113	H	0.084911	0.081158	0.395170
	H114	H	0.910021	0.076965	0.620487
	H115	H	0.899796	0.909256	0.393743
	H116	H	0.611813	0.080404	0.915724
	H117	H	0.382906	0.080081	0.096718
	H118	H	0.611627	0.900394	0.090137
	H119	H	0.386782	0.901431	0.930988
	C120	C	0.375973	0.001546	0.629719
	C121	C	0.618646	0.983601	0.629266
	C122	C	0.620516	0.000771	0.385932
	C123	C	0.376932	0.983755	0.386633
	C124	C	0.617112	0.369793	0.016604
	C125	C	0.618553	0.613122	0.999457
	C126	C	0.376561	0.613476	0.017635
	C127	C	0.374607	0.369406	0.999558
	C128	C	0.005214	0.612942	0.386370
	C129	C	0.988193	0.612733	0.629070
	C130	C	0.006258	0.370354	0.630130
	C131	C	0.988550	0.370026	0.387153
	C132	C	0.875243	0.499051	0.129667
	C133	C	0.118746	0.482788	0.130574
	C134	C	0.117582	0.500494	0.888273
	C135	C	0.874658	0.482711	0.886166
	C136	C	0.118096	0.871339	0.516499
	C137	C	0.120376	0.114790	0.498678
	C138	C	0.877717	0.112713	0.516646
	C139	C	0.875455	0.869439	0.499142
	C140	C	0.505582	0.113484	0.886560
	C141	C	0.488421	0.114095	0.129751
	C142	C	0.506912	0.871256	0.129024
	C143	C	0.488839	0.870722	0.886202
	C144	C	0.370441	0.882863	0.691645
	C145	C	0.623592	0.102498	0.690562
	C146	C	0.624029	0.882509	0.323937
	C147	C	0.375083	0.103567	0.326827
	C148	C	0.678416	0.365878	0.897688
	C149	C	0.679483	0.615004	0.119043
	C150	C	0.314412	0.616701	0.898828
	C151	C	0.315281	0.367792	0.119538
	C152	C	0.885183	0.672668	0.383567
	C153	C	0.107660	0.675536	0.633541
	C154	C	0.887022	0.307588	0.632632
	C155	C	0.109911	0.312951	0.385889
	C156	C	0.886359	0.364829	0.690868
	C157	C	0.107105	0.618398	0.691951
	C158	C	0.884209	0.613382	0.327458
	C159	C	0.109066	0.369164	0.327450
	C160	C	0.371262	0.675418	0.898927
	C161	C	0.624273	0.675059	0.118199
	C162	C	0.619979	0.309605	0.897120
	C163	C	0.370539	0.307940	0.118213
	C164	C	0.681112	0.881940	0.382163
	C165	C	0.680989	0.102644	0.632513
	C166	C	0.314113	0.882168	0.632703
	C167	C	0.317833	0.103682	0.384929
	C168	C	0.871090	0.379421	0.189509
	C169	C	0.121926	0.601930	0.191242
	C170	C	0.120375	0.381015	0.827626
	C171	C	0.870517	0.601235	0.823836
	C172	C	0.178440	0.869143	0.396916
	C173	C	0.180220	0.116286	0.618363
	C174	C	0.816021	0.116297	0.397897
	C175	C	0.813851	0.865475	0.618066
	C176	C	0.384742	0.171568	0.884412
	C177	C	0.608902	0.174871	0.131347
	C178	C	0.387591	0.808404	0.133542
	C179	C	0.607562	0.808484	0.880580
	C180	C	0.387016	0.866951	0.190387
	C181	C	0.609086	0.117869	0.189628
	C182	C	0.386165	0.116340	0.825008
	C183	C	0.607899	0.866925	0.823674
	C184	C	0.872967	0.174732	0.398223
	C185	C	0.123405	0.174862	0.618182
	C186	C	0.122682	0.809163	0.397770
	C187	C	0.870455	0.807058	0.617486
	C188	C	0.177199	0.380535	0.886316
	C189	C	0.181046	0.601590	0.134764
	C190	C	0.814440	0.379365	0.130789
	C191	C	0.813447	0.601607	0.882365
	C192	C	0.402481	0.084187	0.604111
	C193	C	0.591809	0.900882	0.603366
	C194	C	0.594923	0.083818	0.411993
	C195	C	0.402312	0.900725	0.411856
	C196	C	0.591803	0.395122	0.099674
	C197	C	0.591934	0.587536	0.916866
	C198	C	0.403203	0.587570	0.100045
	C199	C	0.399803	0.394430	0.916161
	C200	C	0.089327	0.587966	0.411564
	C201	C	0.905880	0.585271	0.602037
	C202	C	0.089617	0.397004	0.605237
	C203	C	0.904063	0.394172	0.411995
	C204	C	0.901144	0.582555	0.105008
	C205	C	0.092861	0.399618	0.104807
	C206	C	0.092181	0.583097	0.913453
	C207	C	0.900805	0.400402	0.912780
	C208	C	0.092449	0.896593	0.599306
	C209	C	0.095091	0.090071	0.415124
	C210	C	0.904377	0.086574	0.599179
	C211	C	0.902053	0.895491	0.416682
	C212	C	0.589525	0.088814	0.912234
	C213	C	0.404767	0.087793	0.104706
	C214	C	0.589696	0.898373	0.102670
	C215	C	0.406580	0.897342	0.913819
	Zn216	Zn	0.497289	-0.007076	0.758411
	Zn217	Zn	0.498199	-0.007389	0.257624
	Zn218	Zn	0.745899	0.490755	0.008109
	Zn219	Zn	0.247303	0.491669	0.009007
	Zn220	Zn	-0.003030	0.741592	0.507913
	Zn221	Zn	-0.001369	0.242499	0.507920
	Zn222	Zn	-0.003238	0.491570	0.758516
	Zn223	Zn	-0.003708	0.490501	0.258995
	Zn224	Zn	0.498361	0.742487	0.008043
	Zn225	Zn	0.496095	0.241433	0.007196
	Zn226	Zn	0.748286	-0.008015	0.508732
	Zn227	Zn	0.247844	-0.007814	0.507637
	N228	N	0.408324	0.958032	0.689911
	N229	N	0.585765	0.027404	0.688764
	N230	N	0.586785	0.957402	0.326374
	N231	N	0.411175	0.027998	0.327672
	N232	N	0.676533	0.403010	0.972880
	N233	N	0.676338	0.577452	0.044147
	N234	N	0.317364	0.578899	0.973588
	N235	N	0.317628	0.405292	0.044658
	N236	N	0.961541	0.672410	0.419527
	N237	N	0.032682	0.672211	0.595199
	N238	N	0.962709	0.310677	0.595708
	N239	N	0.033834	0.313467	0.422190
	N240	N	0.961563	0.403020	0.689412
	N241	N	0.031895	0.580123	0.689536
	N242	N	0.960136	0.576961	0.329076
	N243	N	0.032355	0.403632	0.327947
	N244	N	0.409137	0.673666	0.973805
	N245	N	0.587465	0.674234	0.042680
	N246	N	0.582289	0.311938	0.971961
	N247	N	0.406825	0.309019	0.042642
	N248	N	0.679110	0.956705	0.420110
	N249	N	0.677865	0.027817	0.594948
	N250	N	0.317364	0.956766	0.594905
	N251	N	0.318790	0.028202	0.421267
	N252	N	0.908673	0.454783	0.188655
	N253	N	0.083776	0.527077	0.188787
	N254	N	0.084203	0.456513	0.828520
	N255	N	0.907675	0.526272	0.826033
	N256	N	0.175637	0.907041	0.471535
	N257	N	0.178608	0.079886	0.542857
	N258	N	0.819045	0.078271	0.472511
	N259	N	0.816714	0.903383	0.543345
	N260	N	0.460085	0.169795	0.922041
	N261	N	0.532624	0.172845	0.095322
	N262	N	0.463075	0.810970	0.096312
	N263	N	0.532621	0.810773	0.918712
	N264	N	0.462219	0.905359	0.187785
	N265	N	0.533136	0.080862	0.188810
	N266	N	0.462253	0.080814	0.826364
	N267	N	0.532864	0.904933	0.826968
	N268	N	0.910742	0.172650	0.473087
	N269	N	0.086986	0.173841	0.542745
	N270	N	0.085983	0.810220	0.473172
	N271	N	0.907642	0.808941	0.542404
	N272	N	0.175916	0.455790	0.923179
	N273	N	0.178997	0.526333	0.097742
	N274	N	0.816731	0.454782	0.094426
	N275	N	0.815704	0.526905	0.920277
	O276	O	0.716912	0.509581	0.727440
	H277	H	0.702279	0.563063	0.714338
	H278	H	0.756377	0.514972	0.766637
	O279	O	0.690422	0.406943	0.530322
	H280	H	0.684130	0.428025	0.536998
	H281	H	0.705494	0.416517	0.541368
	O282	O	0.887082	0.984805	-0.005969
	H283	H	0.884125	0.990105	-0.008011
	H284	H	0.885892	0.983661	-0.005696
	O285	O	1.098368	0.805210	-0.152625
	H286	H	1.094004	0.790189	-0.130780
	H287	H	1.064251	0.799555	-0.159555
	O288	O	0.317891	0.464932	0.395926
	H289	H	0.329906	0.454794	0.369253
	H290	H	0.317899	0.442507	0.414775
	O291	O	0.500823	0.360816	0.707764
	H292	H	0.515232	0.348377	0.697754
	H293	H	0.529775	0.368570	0.718467
	O294	O	0.776419	0.771549	1.027524
	H295	H	0.736397	0.732797	1.034245
	H296	H	0.789625	0.787603	1.080865
	O297	O	0.389577	0.695784	0.530976
	H298	H	0.387793	0.705029	0.543350
	H299	H	0.368868	0.673712	0.533083
	O300	O	0.481360	0.347902	0.404535
	H301	H	0.509321	0.351092	0.407683
	H302	H	0.481852	0.335447	0.396874
	O303	O	0.418833	0.405709	0.307579
	H304	H	0.429175	0.394744	0.315075
	H305	H	0.445286	0.390297	0.303919
	O306	O	0.529023	0.706783	0.478003
	H307	H	0.513969	0.709358	0.490019
	H308	H	0.517232	0.706154	0.438789
	O309	O	0.946832	0.180101	0.037475
	H310	H	0.937882	0.187917	0.042391
	H311	H	0.953596	0.174510	0.034049
	O312	O	0.350214	0.697855	0.582715
	H313	H	0.320390	0.717143	0.559622
	H314	H	0.346549	0.676720	0.608197
	O315	O	-0.189176	0.078815	0.851788
	H316	H	-0.194751	0.055680	0.848977
	H317	H	-0.181851	0.076934	0.849562
	O318	O	-0.002814	0.143902	0.112873
	H319	H	0.017446	0.167840	0.124141
	H320	H	0.026778	0.141808	0.102562
	O321	O	0.318188	0.674134	0.329041
	H322	H	0.310718	0.683059	0.378303
	H323	H	0.307086	0.623602	0.324464
	O324	O	1.046557	-0.152397	1.154113
	H325	H	1.040247	-0.150067	1.150289
	H326	H	1.042036	-0.143146	1.150606
	O327	O	0.500160	0.665912	0.718061
	H328	H	0.481402	0.671534	0.717548
	H329	H	0.480286	0.677363	0.739157
	O330	O	0.171781	1.013944	1.044049
	H331	H	0.178905	0.996517	1.026583
	H332	H	0.164309	1.012599	1.015514
	O333	O	-0.646870	0.285374	-0.497486
	H334	H	-0.627293	0.281902	-0.494955
	H335	H	-0.653358	0.276089	-0.497632
	O336	O	0.912223	1.082604	0.068541
	H337	H	0.920496	1.064324	0.053650
	H338	H	0.913763	1.117253	0.068176
	O339	O	0.073831	1.046336	0.950255
	H340	H	0.079572	1.048119	0.938486
	H341	H	0.056249	1.038018	0.950128
	O342	O	0.544173	0.352753	0.348752
	H343	H	0.571736	0.372235	0.350756
	H344	H	0.547835	0.337328	0.344788
	O345	O	-0.111689	-0.094910	0.889750
	H346	H	-0.122870	-0.113819	0.908826
	H347	H	-0.118601	-0.093021	0.874330
	O348	O	0.672817	0.352419	0.325531
	H349	H	0.672983	0.389538	0.325365
	H350	H	0.687932	0.358350	0.356405
	O351	O	1.210490	0.992301	-0.030704
	H352	H	1.216882	0.985616	-0.039272
	H353	H	1.205546	0.970915	-0.024127
	O354	O	1.121482	1.024217	1.207435
	H355	H	1.136509	1.025922	1.208236
	H356	H	1.130472	1.018392	1.195029
	O357	O	0.092348	-0.157397	-0.126073
	H358	H	0.089672	-0.161462	-0.112619
	H359	H	0.090997	-0.163523	-0.133704
	O360	O	0.521385	0.284745	0.606193
	H361	H	0.546838	0.286615	0.588943
	H362	H	0.514834	0.263008	0.598383
	O363	O	0.975142	-0.221173	-0.053876
	H364	H	0.952039	-0.218694	-0.045915
	H365	H	0.976074	-0.223219	-0.043870
	O366	O	-0.192230	0.069575	1.006211
	H367	H	-0.195853	0.049122	0.999637
	H368	H	-0.174001	0.066846	1.002686
	O369	O	1.052191	0.124981	0.805517
	H370	H	1.067820	0.114117	0.805130
	H371	H	1.046729	0.131711	0.788015
	O372	O	0.344993	0.390348	0.507408
	H373	H	0.342664	0.369576	0.508694
	H374	H	0.358015	0.376121	0.501448
	O375	O	0.166085	0.194680	1.065608
	H376	H	0.172916	0.187522	1.058533
	H377	H	0.171222	0.199370	1.038692
	O378	O	0.593711	0.527505	0.502207
	H379	H	0.571126	0.526954	0.506602
	H380	H	0.593867	0.512147	0.513855
	O381	O	0.016834	0.977105	0.126266
	H382	H	0.010784	0.986890	0.138561
	H383	H	0.009575	0.984198	0.108691
	O384	O	0.477241	0.706851	0.290770
	H385	H	0.436298	0.709386	0.290672
	H386	H	0.463563	0.731892	0.273447
	O387	O	0.709382	0.701719	0.529725
	H388	H	0.739065	0.733594	0.525899
	H389	H	0.694651	0.691517	0.504088
	O390	O	0.938453	0.953006	-0.198615
	H391	H	0.928814	0.951650	-0.185443
	H392	H	0.934104	0.960615	-0.193338
	O393	O	1.043457	0.121707	0.906012
	H394	H	1.045220	0.126276	0.896345
	H395	H	1.015138	0.115366	0.905009
	O396	O	0.676649	0.665899	0.690921
	H397	H	0.622197	0.679820	0.700239
	H398	H	0.687949	0.679975	0.636999
	O399	O	-0.070944	0.791519	0.204806
	H400	H	-0.072355	0.797986	0.225108
	H401	H	-0.034527	0.797469	0.211374
	O402	O	1.316666	1.311801	-0.307272
	H403	H	1.354078	1.304528	-0.320087
	H404	H	1.324381	1.302636	-0.310626
	O405	O	0.650981	0.318893	0.541374
	H406	H	0.670962	0.328155	0.534755
	H407	H	0.665312	0.333361	0.555277
	O408	O	0.497979	0.496915	0.717103
	H409	H	0.512758	0.493422	0.716355
	H410	H	0.487330	0.502103	0.724362
	O411	O	1.118174	1.175507	1.199147
	H412	H	1.141132	1.148140	1.194155
	H413	H	1.125721	1.194726	1.186762
	O414	O	0.634143	0.509951	0.310777
	H415	H	0.640420	0.524213	0.309726
	H416	H	0.607789	0.531444	0.310772
	O417	O	-0.139991	0.980411	1.207592
	H418	H	-0.109639	0.999400	1.222398
	H419	H	-0.149279	0.998320	1.202853
	O420	O	0.205194	0.817209	1.005896
	H421	H	0.217712	0.793849	1.007264
	H422	H	0.184221	0.827636	1.009263
	O423	O	0.125913	0.948933	-0.185566
	H424	H	0.132752	0.941978	-0.189101
	H425	H	0.108621	0.937133	-0.177713
	O426	O	0.588653	0.532528	0.503271
	H427	H	0.574023	0.533327	0.510236
	H428	H	0.591864	0.552646	0.506162
	O429	O	0.285926	0.475565	0.717679
	H430	H	0.267526	0.467212	0.744137
	H431	H	0.290808	0.437502	0.709029
	O432	O	0.415207	0.527446	0.295227
	H433	H	0.385488	0.528459	0.271552
	H434	H	0.423691	0.520293	0.288026
	O435	O	-0.124252	0.054223	-0.075882
	H436	H	-0.132497	0.048939	-0.063523
	H437	H	-0.133171	0.042791	-0.051855
	O438	O	-0.196411	0.865433	1.196370
	H439	H	-0.187028	0.911568	1.206343
	H440	H	-0.173832	0.856676	1.221379
	O441	O	0.339778	0.561203	0.605494
	H442	H	0.341769	0.549590	0.593637
	H443	H	0.347084	0.543086	0.625898
