data_Molecule from HDF5

_cell_length_a		16.213443
_cell_length_b		16.024808
_cell_length_c		16.240810
_cell_angle_alpha	92.060828
_cell_angle_beta	91.595312
_cell_angle_gamma	91.021887
_symmetry_space_group_name_H-M	'P 1'
_symmetry_Int_Tables_number		1

loop_
	_symmetry_equiv_pos_as_xyz
	x,y,z

loop_
	_atom_site_label
	_atom_site_type_symbol
	_atom_site_fract_x
	_atom_site_fract_y
	_atom_site_fract_z
	H0	H	0.400352	0.831978	0.692334
	H1	H	0.605088	0.163305	0.721000
	H2	H	0.588014	0.836655	0.276634
	H3	H	0.395871	0.167314	0.284551
	H4	H	0.702823	0.398478	0.830534
	H5	H	0.719599	0.612644	0.158831
	H6	H	0.275992	0.594204	0.834135
	H7	H	0.285484	0.405656	0.160629
	H8	H	0.829356	0.703001	0.399458
	H9	H	0.159679	0.722260	0.603092
	H10	H	0.830547	0.290719	0.579534
	H11	H	0.161676	0.287109	0.398479
	H12	H	0.830497	0.403128	0.698846
	H13	H	0.158693	0.611912	0.722007
	H14	H	0.833688	0.592848	0.276474
	H15	H	0.161614	0.398132	0.280574
	H16	H	0.399163	0.700110	0.827561
	H17	H	0.602667	0.727253	0.157993
	H18	H	0.585805	0.281315	0.831897
	H19	H	0.399830	0.291075	0.161078
	H20	H	0.703187	0.834236	0.393328
	H21	H	0.714425	0.166539	0.603954
	H22	H	0.281940	0.835990	0.585148
	H23	H	0.281450	0.167110	0.398554
	H24	H	0.900342	0.333300	0.192736
	H25	H	0.106625	0.664229	0.223330
	H26	H	0.087977	0.336147	0.777065
	H27	H	0.896893	0.669097	0.786200
	H28	H	0.202151	0.897680	0.329626
	H29	H	0.219854	0.110602	0.658600
	H30	H	0.775979	0.094352	0.333586
	H31	H	0.785526	0.908321	0.661179
	H32	H	0.328648	0.203304	0.897227
	H33	H	0.659474	0.221936	0.103306
	H34	H	0.331513	0.789820	0.079546
	H35	H	0.662277	0.787969	0.898538
	H36	H	0.331396	0.899832	0.199684
	H37	H	0.657556	0.112607	0.222074
	H38	H	0.333295	0.092462	0.774384
	H39	H	0.662042	0.900188	0.781221
	H40	H	0.899332	0.200424	0.328223
	H41	H	0.102466	0.225733	0.658884
	H42	H	0.084712	0.782134	0.331437
	H43	H	0.901354	0.794259	0.661959
	H44	H	0.201669	0.333889	0.895251
	H45	H	0.216785	0.666524	0.105692
	H46	H	0.782424	0.337686	0.085689
	H47	H	0.783836	0.669318	0.901832
	H48	H	0.402946	0.124339	0.593664
	H49	H	0.601242	0.874241	0.593018
	H50	H	0.589108	0.118974	0.416846
	H51	H	0.399410	0.880445	0.386367
	H52	H	0.596395	0.418323	0.114292
	H53	H	0.599362	0.590908	0.874639
	H54	H	0.400377	0.596741	0.116278
	H55	H	0.397174	0.406376	0.880095
	H56	H	0.111317	0.588682	0.413404
	H57	H	0.878561	0.599068	0.581850
	H58	H	0.113702	0.417051	0.591384
	H59	H	0.876887	0.403618	0.379068
	H60	H	0.114290	0.414587	0.588953
	H61	H	0.879178	0.587060	0.592341
	H62	H	0.115360	0.591240	0.404900
	H63	H	0.875609	0.389056	0.393403
	H64	H	0.415312	0.592961	0.109527
	H65	H	0.585247	0.582624	0.880859
	H66	H	0.590205	0.417636	0.111226
	H67	H	0.400971	0.399215	0.878876
	H68	H	0.594106	0.121424	0.410627
	H69	H	0.581774	0.880156	0.590469
	H70	H	0.421213	0.118418	0.594193
	H71	H	0.404755	0.884612	0.398242
	H72	H	0.907908	0.622495	0.090672
	H73	H	0.104762	0.377394	0.086020
	H74	H	0.089385	0.623794	0.901883
	H75	H	0.902789	0.385386	0.896390
	H76	H	0.080020	0.907643	0.612040
	H77	H	0.079081	0.098521	0.377468
	H78	H	0.903550	0.093835	0.613877
	H79	H	0.892893	0.910363	0.379625
	H80	H	0.617094	0.106113	0.910351
	H81	H	0.379111	0.089768	0.091535
	H82	H	0.614267	0.914616	0.089008
	H83	H	0.377446	0.899369	0.886567
	H84	H	0.613504	0.917936	0.088202
	H85	H	0.373697	0.098105	0.092661
	H86	H	0.608324	0.086268	0.919767
	H87	H	0.377861	0.897602	0.891033
	H88	H	0.915890	0.102566	0.612007
	H89	H	0.100551	0.093974	0.372939
	H90	H	0.107363	0.909931	0.618590
	H91	H	0.905492	0.899637	0.380944
	H92	H	0.079814	0.615825	0.915644
	H93	H	0.083618	0.379578	0.097983
	H94	H	0.912201	0.622536	0.094123
	H95	H	0.893400	0.381610	0.897107
	H96	H	0.411617	0.117191	0.579260
	H97	H	0.594414	0.882657	0.574393
	H98	H	0.585601	0.121003	0.408509
	H99	H	0.391613	0.880335	0.397773
	H100	H	0.593100	0.411148	0.114510
	H101	H	0.584672	0.598660	0.875880
	H102	H	0.412286	0.608753	0.115784
	H103	H	0.393217	0.399384	0.876920
	H104	H	0.114781	0.598014	0.412311
	H105	H	0.873344	0.601189	0.596412
	H106	H	0.112301	0.418581	0.588381
	H107	H	0.883277	0.408786	0.398259
	H108	H	0.912453	0.621236	0.089944
	H109	H	0.084904	0.386588	0.073859
	H110	H	0.098600	0.621048	0.918539
	H111	H	0.898926	0.381518	0.888669
	H112	H	0.092813	0.931736	0.608228
	H113	H	0.087550	0.077661	0.382140
	H114	H	0.904111	0.107752	0.617520
	H115	H	0.891910	0.893247	0.374863
	H116	H	0.614602	0.086484	0.896879
	H117	H	0.377805	0.095253	0.083207
	H118	H	0.615453	0.916907	0.091111
	H119	H	0.379153	0.903264	0.891082
	C120	C	0.380428	0.009595	0.612608
	C121	C	0.622465	0.989591	0.619386
	C122	C	0.615381	0.010721	0.377904
	C123	C	0.371683	0.992014	0.369906
	C124	C	0.617253	0.381753	0.004794
	C125	C	0.621467	0.625426	0.985829
	C126	C	0.377536	0.622134	0.004700
	C127	C	0.372263	0.377259	0.987769
	C128	C	0.004908	0.618343	0.378015
	C129	C	0.986170	0.627383	0.622234
	C130	C	0.004697	0.384872	0.612928
	C131	C	0.988102	0.374456	0.367080
	C132	C	0.880163	0.511588	0.114032
	C133	C	0.122441	0.490659	0.120303
	C134	C	0.115148	0.510563	0.877893
	C135	C	0.871951	0.493607	0.871207
	C136	C	0.117307	0.881952	0.504302
	C137	C	0.121092	0.124849	0.486036
	C138	C	0.876765	0.122999	0.504818
	C139	C	0.872170	0.877725	0.487962
	C140	C	0.504343	0.118391	0.876748
	C141	C	0.485662	0.126708	0.121668
	C142	C	0.505343	0.884721	0.112467
	C143	C	0.487929	0.874216	0.866886
	C144	C	0.380760	0.882992	0.659219
	C145	C	0.623285	0.114175	0.680807
	C146	C	0.609689	0.885931	0.316831
	C147	C	0.375099	0.117510	0.319984
	C148	C	0.666776	0.379611	0.880155
	C149	C	0.679800	0.629508	0.109598
	C150	C	0.317031	0.615173	0.881777
	C151	C	0.321234	0.383825	0.111600
	C152	C	0.879613	0.668184	0.378691
	C153	C	0.110183	0.684963	0.623236
	C154	C	0.879848	0.328348	0.603194
	C155	C	0.112132	0.322427	0.375303
	C156	C	0.879839	0.384338	0.662302
	C157	C	0.109441	0.629944	0.682407
	C158	C	0.881964	0.613495	0.317330
	C159	C	0.112213	0.377949	0.316875
	C160	C	0.378424	0.667651	0.878400
	C161	C	0.622145	0.687134	0.109063
	C162	C	0.608695	0.321277	0.880923
	C163	C	0.378073	0.326835	0.111730
	C164	C	0.666784	0.884668	0.375116
	C165	C	0.677798	0.115792	0.622566
	C166	C	0.321690	0.885018	0.605648
	C167	C	0.318370	0.117430	0.376704
	C168	C	0.880355	0.384383	0.160166
	C169	C	0.124379	0.615117	0.182435
	C170	C	0.109410	0.385520	0.817152
	C171	C	0.876051	0.619169	0.821757
	C172	C	0.166215	0.879163	0.379280
	C173	C	0.180653	0.129193	0.609552
	C174	C	0.816919	0.115247	0.381565
	C175	C	0.821744	0.885764	0.612136
	C176	C	0.379160	0.168448	0.877047
	C177	C	0.609623	0.184290	0.122636
	C178	C	0.380926	0.827235	0.103390
	C179	C	0.612630	0.823011	0.875191
	C180	C	0.380902	0.882325	0.163121
	C181	C	0.608616	0.129951	0.182025
	C182	C	0.381415	0.113155	0.815782
	C183	C	0.612693	0.878983	0.817190
	C184	C	0.878184	0.167975	0.378906
	C185	C	0.121950	0.186346	0.609412
	C186	C	0.108141	0.821441	0.380578
	C187	C	0.879152	0.828873	0.612467
	C188	C	0.165920	0.384204	0.876117
	C189	C	0.179366	0.616365	0.124074
	C190	C	0.821387	0.386654	0.106814
	C191	C	0.819876	0.619242	0.879275
	C192	C	0.404776	0.097423	0.594513
	C193	C	0.599298	0.901858	0.593545
	C194	C	0.595403	0.098027	0.404244
	C195	C	0.392478	0.904424	0.388378
	C196	C	0.598916	0.408067	0.091083
	C197	C	0.596861	0.598650	0.899610
	C198	C	0.402073	0.604838	0.091293
	C199	C	0.391462	0.396033	0.901154
	C200	C	0.091357	0.598509	0.402923
	C201	C	0.899589	0.602863	0.597383
	C202	C	0.091066	0.409489	0.595107
	C203	C	0.901239	0.394397	0.384680
	C204	C	0.904076	0.599314	0.096891
	C205	C	0.098182	0.403627	0.093763
	C206	C	0.095137	0.597792	0.904363
	C207	C	0.892365	0.405590	0.888691
	C208	C	0.098950	0.908665	0.590625
	C209	C	0.096442	0.098051	0.399708
	C210	C	0.900852	0.106270	0.591913
	C211	C	0.890958	0.895643	0.401048
	C212	C	0.590928	0.098679	0.901728
	C213	C	0.399276	0.101769	0.096553
	C214	C	0.591882	0.909391	0.094769
	C215	C	0.400805	0.894033	0.884289
	Zn216	Zn	0.498664	-0.002086	0.742247
	Zn217	Zn	0.494774	0.003317	0.246058
	Zn218	Zn	0.748878	0.503089	-0.004718
	Zn219	Zn	0.246980	0.500965	-0.001815
	Zn220	Zn	-0.004874	0.751360	0.498074
	Zn221	Zn	-0.003014	0.251933	0.492876
	Zn222	Zn	-0.005209	0.503303	0.746562
	Zn223	Zn	-0.001252	0.498914	0.243340
	Zn224	Zn	0.497349	0.751772	-0.007263
	Zn225	Zn	0.494467	0.250243	-0.002231
	Zn226	Zn	0.746574	0.001158	0.497769
	Zn227	Zn	0.249101	0.002192	0.494433
	N228	N	0.416984	0.961494	0.663675
	N229	N	0.589565	0.034661	0.678886
	N230	N	0.578547	0.965435	0.318464
	N231	N	0.407379	0.038597	0.315413
	N232	N	0.672333	0.416520	0.958176
	N233	N	0.679584	0.592155	0.031823
	N234	N	0.316357	0.587555	0.961078
	N235	N	0.317188	0.414310	0.033434
	N236	N	0.957109	0.671275	0.416001
	N237	N	0.032551	0.683700	0.586646
	N238	N	0.958584	0.328102	0.573296
	N239	N	0.034074	0.320124	0.405874
	N240	N	0.958213	0.418933	0.668371
	N241	N	0.031074	0.595001	0.682012
	N242	N	0.961016	0.583377	0.316697
	N243	N	0.033984	0.409421	0.311206
	N244	N	0.415591	0.672137	0.955862
	N245	N	0.586416	0.684780	0.031010
	N246	N	0.578755	0.322368	0.959458
	N247	N	0.409081	0.322539	0.033797
	N248	N	0.670179	0.963173	0.412657
	N249	N	0.677125	0.037530	0.584575
	N250	N	0.321528	0.964977	0.577462
	N251	N	0.315815	0.038259	0.406805
	N252	N	0.916281	0.463176	0.165119
	N253	N	0.089715	0.536082	0.180300
	N254	N	0.078637	0.465109	0.818280
	N255	N	0.907701	0.540024	0.816504
	N256	N	0.172045	0.916167	0.457191
	N257	N	0.180315	0.091837	0.531787
	N258	N	0.815815	0.088089	0.461054
	N259	N	0.817189	0.915340	0.533670
	N260	N	0.456701	0.171941	0.914206
	N261	N	0.532042	0.182568	0.085827
	N262	N	0.459144	0.828677	0.072343
	N263	N	0.534261	0.819918	0.905483
	N264	N	0.458998	0.917572	0.168889
	N265	N	0.530402	0.094851	0.181659
	N266	N	0.460357	0.082976	0.815483
	N267	N	0.534127	0.909754	0.811369
	N268	N	0.914688	0.173056	0.456582
	N269	N	0.085602	0.183805	0.531594
	N270	N	0.078545	0.823019	0.459341
	N271	N	0.909524	0.823492	0.534119
	N272	N	0.169549	0.462872	0.913479
	N273	N	0.178147	0.538003	0.085938
	N274	N	0.820991	0.466694	0.079109
	N275	N	0.816795	0.539898	0.908824
	O276	O	0.005035	-0.046446	0.077966
	H277	H	0.009654	-0.049721	0.084540
	H278	H	0.006455	-0.057498	0.076237
	O279	O	0.499865	0.471661	0.463595
	H280	H	0.507760	0.468666	0.465570
	H281	H	0.491969	0.459766	0.464998
	O282	O	0.453433	0.457169	0.457823
	H283	H	0.451685	0.458627	0.457256
	H284	H	0.456154	0.459298	0.462924
	O285	O	0.036240	1.046613	0.980161
	H286	H	0.036146	1.046063	0.978436
	H287	H	0.045329	1.042661	0.976325
	O288	O	0.541875	0.493614	0.484868
	H289	H	0.547406	0.501184	0.476875
	H290	H	0.539822	0.480681	0.476323
	O291	O	0.976261	0.932440	1.025044
	H292	H	0.980403	0.930672	1.038674
	H293	H	0.974788	0.938956	1.021040
	O294	O	0.997805	1.003464	0.975980
	H295	H	0.981236	1.007132	0.976986
	H296	H	1.003250	0.995951	0.978699
	O297	O	0.969092	0.096651	0.927499
	H298	H	0.972992	0.081883	0.928426
	H299	H	0.952434	0.107902	0.914566
	O300	O	0.523468	0.541003	0.570446
	H301	H	0.510184	0.546589	0.567952
	H302	H	0.529606	0.544582	0.585409
	O303	O	1.028695	-0.024417	0.049136
	H304	H	1.035340	-0.029892	0.042139
	H305	H	1.025392	-0.001263	0.051720
	O306	O	-0.034709	1.110443	0.948915
	H307	H	-0.046444	1.100764	0.948245
	H308	H	-0.043438	1.116565	0.944115
	O309	O	0.423515	0.411172	0.575471
	H310	H	0.423267	0.402431	0.581569
	H311	H	0.420088	0.411422	0.572021
	O312	O	0.998384	0.078711	0.991240
	H313	H	1.002659	0.084429	0.992883
	H314	H	0.993963	0.083182	0.984454
	O315	O	0.459698	0.566166	0.398728
	H316	H	0.462194	0.559884	0.409669
	H317	H	0.452052	0.567591	0.395718
	O318	O	0.415302	0.498200	0.521499
	H319	H	0.416757	0.486865	0.515856
	H320	H	0.427131	0.501563	0.532032
	O321	O	0.992203	1.045747	0.965931
	H322	H	0.994370	1.049966	0.982149
	H323	H	0.993733	1.047786	0.962318
	O324	O	0.480539	0.612994	0.419750
	H325	H	0.477601	0.620000	0.428546
	H326	H	0.471012	0.619516	0.427990
	O327	O	0.578597	0.501649	0.437979
	H328	H	0.594640	0.499551	0.449276
	H329	H	0.572414	0.513079	0.439570
	O330	O	0.938155	-0.032649	0.963931
	H331	H	0.941658	-0.029824	0.978519
	H332	H	0.946517	-0.037367	0.960311
	O333	O	1.112744	1.013300	0.079778
	H334	H	1.104573	1.004222	0.072075
	H335	H	1.119079	1.020999	0.094002
	O336	O	0.548485	0.469487	0.418168
	H337	H	0.537537	0.476249	0.410329
	H338	H	0.557533	0.472991	0.417854
	O339	O	0.583417	0.528825	0.588511
	H340	H	0.594637	0.529338	0.586417
	H341	H	0.581732	0.518004	0.584927
	O342	O	-0.081252	1.084258	-0.054527
	H343	H	-0.073287	1.083660	-0.048579
	H344	H	-0.076115	1.087837	-0.055330
	O345	O	0.001249	-0.014801	0.096019
	H346	H	-0.001433	-0.007792	0.098104
	H347	H	0.005325	-0.017579	0.100921
	O348	O	0.439379	0.415852	0.474712
	H349	H	0.439544	0.396842	0.476252
	H350	H	0.441784	0.408444	0.473301
	O351	O	0.520285	0.514128	0.567851
	H352	H	0.530204	0.524032	0.563807
	H353	H	0.518016	0.522870	0.573537
	O354	O	0.536465	0.492593	0.501597
	H355	H	0.535008	0.505895	0.503793
	H356	H	0.531967	0.485294	0.497718
	O357	O	0.542627	0.378444	0.582114
	H358	H	0.543784	0.390801	0.584521
	H359	H	0.546262	0.375186	0.577015
	O360	O	-0.049898	-0.024499	0.034396
	H361	H	-0.043104	-0.010044	0.033061
	H362	H	-0.046977	-0.016667	0.032914
	O363	O	0.512344	0.558556	0.450960
	H364	H	0.504754	0.559259	0.448250
	H365	H	0.511406	0.562506	0.454828
	O366	O	0.041086	-0.029504	1.014376
	H367	H	0.042000	-0.037207	1.018512
	H368	H	0.040500	-0.030792	1.011633
	O369	O	0.487636	0.484174	0.592356
	H370	H	0.489883	0.481405	0.593974
	H371	H	0.491484	0.495074	0.592644
