data_Molecule from HDF5

_cell_length_a		15.980330
_cell_length_b		16.293453
_cell_length_c		16.401376
_cell_angle_alpha	89.951434
_cell_angle_beta	89.663346
_cell_angle_gamma	90.363795
_symmetry_space_group_name_H-M	'P 1'
_symmetry_Int_Tables_number		1

loop_
	_symmetry_equiv_pos_as_xyz
	x,y,z

loop_
	_atom_site_label
	_atom_site_type_symbol
	_atom_site_fract_x
	_atom_site_fract_y
	_atom_site_fract_z
	H0	H	0.378636	0.846264	0.711854
	H1	H	0.594838	0.167273	0.709050
	H2	H	0.594862	0.846067	0.268286
	H3	H	0.386967	0.167926	0.272287
	H4	H	0.702216	0.410320	0.829630
	H5	H	0.700177	0.606125	0.154785
	H6	H	0.270894	0.604026	0.830182
	H7	H	0.269199	0.404800	0.154962
	H8	H	0.821667	0.719385	0.392744
	H9	H	0.151451	0.721882	0.594101
	H10	H	0.820525	0.287525	0.593716
	H11	H	0.152146	0.293959	0.393037
	H12	H	0.821058	0.398557	0.710656
	H13	H	0.150700	0.606260	0.709150
	H14	H	0.821550	0.605265	0.278705
	H15	H	0.149003	0.399725	0.273929
	H16	H	0.384314	0.723397	0.830136
	H17	H	0.589977	0.726601	0.152015
	H18	H	0.594361	0.289145	0.831391
	H19	H	0.380644	0.283796	0.151503
	H20	H	0.699893	0.842217	0.391902
	H21	H	0.701108	0.169720	0.585401
	H22	H	0.270817	0.842911	0.588505
	H23	H	0.275707	0.170606	0.392877
	H24	H	0.879941	0.342245	0.211834
	H25	H	0.090282	0.665949	0.211667
	H26	H	0.090071	0.342744	0.774375
	H27	H	0.880378	0.663543	0.772239
	H28	H	0.200733	0.909144	0.327667
	H29	H	0.202391	0.103496	0.652937
	H30	H	0.778190	0.101169	0.326462
	H31	H	0.769958	0.906882	0.652853
	H32	H	0.322367	0.221865	0.891089
	H33	H	0.653244	0.223593	0.088947
	H34	H	0.320967	0.792688	0.090565
	H35	H	0.653757	0.793998	0.890028
	H36	H	0.323237	0.904464	0.207938
	H37	H	0.653792	0.109816	0.204194
	H38	H	0.322729	0.107570	0.775480
	H39	H	0.652485	0.907169	0.774040
	H40	H	0.887015	0.223432	0.330568
	H41	H	0.089369	0.222949	0.652932
	H42	H	0.092678	0.784829	0.330880
	H43	H	0.881424	0.785864	0.652282
	H44	H	0.200329	0.340984	0.896215
	H45	H	0.200119	0.668087	0.091105
	H46	H	0.768097	0.342485	0.090938
	H47	H	0.780351	0.670636	0.899800
	H48	H	0.394007	0.121790	0.577435
	H49	H	0.572651	0.892511	0.578420
	H50	H	0.580797	0.124103	0.392396
	H51	H	0.393760	0.889987	0.397154
	H52	H	0.577392	0.420909	0.105771
	H53	H	0.579842	0.602236	0.875586
	H54	H	0.399202	0.603615	0.106549
	H55	H	0.405160	0.421043	0.882949
	H56	H	0.100843	0.585097	0.406346
	H57	H	0.866963	0.593708	0.589766
	H58	H	0.107339	0.401531	0.582473
	H59	H	0.865269	0.409828	0.398548
	H60	H	0.099419	0.422497	0.574588
	H61	H	0.867986	0.599065	0.581417
	H62	H	0.108628	0.595066	0.391054
	H63	H	0.867347	0.410914	0.406968
	H64	H	0.390077	0.603105	0.109561
	H65	H	0.582655	0.603416	0.874804
	H66	H	0.569188	0.413178	0.105875
	H67	H	0.397255	0.402177	0.874267
	H68	H	0.578479	0.122262	0.396592
	H69	H	0.581158	0.888697	0.582363
	H70	H	0.393098	0.125595	0.589672
	H71	H	0.397292	0.889029	0.394122
	H72	H	0.885064	0.624021	0.086322
	H73	H	0.071859	0.389028	0.086194
	H74	H	0.076154	0.619363	0.905004
	H75	H	0.894726	0.388111	0.901209
	H76	H	0.075461	0.903067	0.608150
	H77	H	0.082795	0.101419	0.374830
	H78	H	0.887214	0.095758	0.608141
	H79	H	0.900231	0.913874	0.377950
	H80	H	0.613329	0.112512	0.891881
	H81	H	0.367701	0.096369	0.085983
	H82	H	0.606521	0.919283	0.082519
	H83	H	0.370354	0.921813	0.897975
	H84	H	0.607495	0.912977	0.080255
	H85	H	0.369935	0.099218	0.078487
	H86	H	0.600990	0.097540	0.914934
	H87	H	0.365804	0.910105	0.895293
	H88	H	0.899504	0.092630	0.604068
	H89	H	0.078659	0.098081	0.376393
	H90	H	0.086207	0.917245	0.607774
	H91	H	0.898084	0.903437	0.373870
	H92	H	0.080008	0.622112	0.897917
	H93	H	0.077736	0.388717	0.083841
	H94	H	0.899497	0.623613	0.099777
	H95	H	0.893647	0.387902	0.901914
	H96	H	0.404404	0.120250	0.584561
	H97	H	0.572431	0.889652	0.587779
	H98	H	0.584110	0.123830	0.396509
	H99	H	0.398796	0.890719	0.398066
	H100	H	0.578531	0.409864	0.109566
	H101	H	0.582610	0.599928	0.875921
	H102	H	0.394932	0.595741	0.106062
	H103	H	0.384411	0.420022	0.875338
	H104	H	0.105069	0.603974	0.408401
	H105	H	0.869912	0.589050	0.581143
	H106	H	0.106458	0.420595	0.596506
	H107	H	0.867463	0.417991	0.401892
	H108	H	0.902603	0.617151	0.081598
	H109	H	0.076889	0.386560	0.089267
	H110	H	0.071471	0.619741	0.897498
	H111	H	0.894902	0.387211	0.900031
	H112	H	0.069556	0.917715	0.602570
	H113	H	0.078159	0.102812	0.374984
	H114	H	0.896278	0.104803	0.609091
	H115	H	0.889757	0.911398	0.373425
	H116	H	0.604947	0.084223	0.888246
	H117	H	0.372554	0.091079	0.081448
	H118	H	0.604723	0.917380	0.076522
	H119	H	0.370383	0.913297	0.906815
	C120	C	0.365321	0.015316	0.613057
	C121	C	0.607448	0.997678	0.611166
	C122	C	0.610780	0.015640	0.366225
	C123	C	0.367035	0.997706	0.367993
	C124	C	0.607557	0.385984	0.000141
	C125	C	0.609834	0.630196	0.982863
	C126	C	0.364470	0.628914	0.000469
	C127	C	0.364295	0.383578	0.984072
	C128	C	-0.004442	0.624513	0.372591
	C129	C	0.977250	0.625188	0.614283
	C130	C	-0.005138	0.383415	0.614281
	C131	C	0.976593	0.384178	0.372718
	C132	C	0.863625	0.513738	0.117236
	C133	C	0.106975	0.495377	0.115732
	C134	C	0.106684	0.513047	0.871256
	C135	C	0.865385	0.495558	0.872189
	C136	C	0.108130	0.883431	0.499303
	C137	C	0.109480	0.129355	0.482402
	C138	C	0.866191	0.126868	0.499501
	C139	C	0.864364	0.881244	0.482091
	C140	C	0.496989	0.128005	0.869224
	C141	C	0.479439	0.126869	0.110464
	C142	C	0.496690	0.885857	0.110903
	C143	C	0.478198	0.885469	0.869319
	C144	C	0.361930	0.894129	0.671631
	C145	C	0.610822	0.119414	0.668786
	C146	C	0.611849	0.893824	0.308438
	C147	C	0.367715	0.119817	0.311580
	C148	C	0.664694	0.389546	0.878387
	C149	C	0.663670	0.627285	0.105549
	C150	C	0.308563	0.625372	0.878686
	C151	C	0.307217	0.384428	0.105886
	C152	C	0.871173	0.681036	0.373344
	C153	C	0.101626	0.683460	0.613738
	C154	C	0.870371	0.325564	0.613625
	C155	C	0.102009	0.330301	0.373279
	C156	C	0.870685	0.380998	0.671966
	C157	C	0.101239	0.625753	0.671059
	C158	C	0.871038	0.624316	0.316647
	C159	C	0.100476	0.383280	0.313905
	C160	C	0.365140	0.684569	0.878525
	C161	C	0.608620	0.687334	0.104038
	C162	C	0.610752	0.329038	0.879200
	C163	C	0.362730	0.324166	0.104208
	C164	C	0.664418	0.891950	0.369908
	C165	C	0.664069	0.120595	0.607228
	C166	C	0.308094	0.892373	0.610426
	C167	C	0.312245	0.120956	0.371519
	C168	C	0.861752	0.391295	0.173065
	C169	C	0.108341	0.617637	0.172616
	C170	C	0.107491	0.390776	0.814324
	C171	C	0.864028	0.616641	0.813303
	C172	C	0.164086	0.886920	0.376724
	C173	C	0.164774	0.125323	0.604519
	C174	C	0.813979	0.122855	0.376036
	C175	C	0.807514	0.885080	0.604168
	C176	C	0.372229	0.184006	0.870811
	C177	C	0.604017	0.184825	0.108934
	C178	C	0.371367	0.830008	0.110565
	C179	C	0.603515	0.831025	0.870424
	C180	C	0.372497	0.885420	0.169034
	C181	C	0.604287	0.128154	0.166208
	C182	C	0.372340	0.126932	0.813537
	C183	C	0.603070	0.887049	0.812373
	C184	C	0.868171	0.183710	0.378127
	C185	C	0.108579	0.184769	0.604292
	C186	C	0.109824	0.825406	0.378456
	C187	C	0.863092	0.825087	0.603900
	C188	C	0.162726	0.390007	0.874700
	C189	C	0.163045	0.618925	0.112502
	C190	C	0.806105	0.391258	0.112840
	C191	C	0.813863	0.620080	0.876316
	C192	C	0.389896	0.100431	0.590391
	C193	C	0.582700	0.912444	0.589184
	C194	C	0.587801	0.101018	0.388418
	C195	C	0.389847	0.912152	0.390147
	C196	C	0.582416	0.408074	0.085182
	C197	C	0.588034	0.608393	0.897511
	C198	C	0.387931	0.607269	0.085134
	C199	C	0.388612	0.407485	0.899461
	C200	C	0.082147	0.601386	0.395348
	C201	C	0.890761	0.600960	0.591017
	C202	C	0.081820	0.407736	0.591247
	C203	C	0.889325	0.406509	0.395850
	C204	C	0.888381	0.599382	0.095559
	C205	C	0.082665	0.410220	0.093045
	C206	C	0.082863	0.598159	0.893551
	C207	C	0.887774	0.409958	0.894638
	C208	C	0.084080	0.906045	0.584218
	C209	C	0.086443	0.107307	0.397359
	C210	C	0.887816	0.104256	0.584750
	C211	C	0.888833	0.903070	0.397358
	C212	C	0.583873	0.104961	0.891827
	C213	C	0.392763	0.102740	0.088460
	C214	C	0.583543	0.909660	0.086906
	C215	C	0.391276	0.908313	0.892899
	Zn216	Zn	0.487345	0.006468	0.741527
	Zn217	Zn	0.488927	0.006848	0.238197
	Zn218	Zn	0.737169	0.506865	-0.007624
	Zn219	Zn	0.234960	0.505302	-0.006868
	Zn220	Zn	-0.012902	0.752676	0.491814
	Zn221	Zn	-0.013262	0.257594	0.491963
	Zn222	Zn	-0.014859	0.503471	0.742476
	Zn223	Zn	-0.013799	0.504040	0.245383
	Zn224	Zn	0.487278	0.758163	-0.009666
	Zn225	Zn	0.487705	0.255411	-0.009076
	Zn226	Zn	0.736592	0.005698	0.489568
	Zn227	Zn	0.237608	0.006025	0.490085
	N228	N	0.396639	0.971584	0.673690
	N229	N	0.576097	0.041994	0.671310
	N230	N	0.579063	0.971706	0.305951
	N231	N	0.400874	0.042249	0.309141
	N232	N	0.662573	0.424641	0.954679
	N233	N	0.664626	0.592439	0.029275
	N234	N	0.307945	0.591250	0.955419
	N235	N	0.308295	0.420657	0.030181
	N236	N	0.949593	0.681436	0.407301
	N237	N	0.023377	0.683272	0.579169
	N238	N	0.948661	0.327092	0.578248
	N239	N	0.024071	0.330744	0.409225
	N240	N	0.949077	0.416366	0.672439
	N241	N	0.023044	0.590228	0.671469
	N242	N	0.949440	0.589605	0.316190
	N243	N	0.021490	0.416256	0.313305
	N244	N	0.399266	0.686917	0.955276
	N245	N	0.575809	0.689260	0.026690
	N246	N	0.575869	0.326697	0.956015
	N247	N	0.397431	0.323412	0.027209
	N248	N	0.663788	0.968382	0.405389
	N249	N	0.662144	0.043969	0.572014
	N250	N	0.309935	0.968714	0.574610
	N251	N	0.311640	0.043880	0.406013
	N252	N	0.896459	0.468644	0.176004
	N253	N	0.074252	0.540056	0.174787
	N254	N	0.073645	0.468325	0.811899
	N255	N	0.895177	0.538151	0.810333
	N256	N	0.163137	0.922369	0.452895
	N257	N	0.165585	0.091579	0.527833
	N258	N	0.812249	0.088286	0.452640
	N259	N	0.807691	0.919090	0.527335
	N260	N	0.450846	0.184923	0.904497
	N261	N	0.525663	0.183936	0.074834
	N262	N	0.449640	0.830099	0.075092
	N263	N	0.524753	0.829889	0.905018
	N264	N	0.451557	0.919281	0.169392
	N265	N	0.525833	0.092988	0.167467
	N266	N	0.450920	0.093055	0.812329
	N267	N	0.524154	0.920295	0.811741
	N268	N	0.899726	0.186379	0.455897
	N269	N	0.075027	0.187392	0.527220
	N270	N	0.075968	0.823189	0.455848
	N271	N	0.897725	0.822614	0.527096
	N272	N	0.162269	0.466848	0.909377
	N273	N	0.162895	0.541878	0.078134
	N274	N	0.807083	0.468540	0.078856
	N275	N	0.814344	0.543755	0.912262
	O276	O	0.963535	0.047723	1.007095
	H277	H	0.972630	0.042803	1.003298
	H278	H	0.968114	0.051186	1.009351
	O279	O	0.351385	0.628253	0.516421
	H280	H	0.360814	0.632652	0.516996
	H281	H	0.346237	0.623354	0.520253
	O282	O	0.330737	0.503545	0.475384
	H283	H	0.327169	0.484231	0.473702
	H284	H	0.315678	0.498104	0.492185
	O285	O	0.388304	0.397102	0.453905
	H286	H	0.385356	0.401524	0.443688
	H287	H	0.390373	0.410624	0.452676
	O288	O	0.577079	0.670748	0.521940
	H289	H	0.581139	0.656863	0.536945
	H290	H	0.593699	0.683399	0.526911
	O291	O	0.511405	-0.406004	1.319171
	H292	H	0.509169	-0.392328	1.315628
	H293	H	0.503933	-0.406879	1.324875
	O294	O	1.061907	1.047764	-0.060236
	H295	H	1.078507	1.049640	-0.063031
	H296	H	1.054742	1.041927	-0.064587
	O297	O	0.998441	0.967074	0.014497
	H298	H	0.985940	0.964324	0.010015
	H299	H	0.991454	0.970450	0.012690
	O300	O	0.568390	0.383937	0.602059
	H301	H	0.562484	0.379542	0.608202
	H302	H	0.554284	0.398263	0.601122
	O303	O	0.366078	0.458697	0.644074
	H304	H	0.365218	0.459539	0.645185
	H305	H	0.375746	0.468857	0.631204
	O306	O	0.378204	0.396274	0.468971
	H307	H	0.391456	0.401955	0.462602
	H308	H	0.381659	0.395548	0.471885
	O309	O	0.381414	0.586170	0.450075
	H310	H	0.395179	0.590172	0.455166
	H311	H	0.369433	0.580377	0.465808
	O312	O	0.994564	1.104949	1.059872
	H313	H	0.994017	1.106571	1.066983
	H314	H	1.008957	1.097991	1.064487
	O315	O	0.997855	1.055159	0.065936
	H316	H	1.002328	1.045923	0.066148
	H317	H	1.007808	1.058229	0.075930
	O318	O	0.413579	0.710683	0.368211
	H319	H	0.403760	0.715954	0.375464
	H320	H	0.401349	0.725012	0.344840
	O321	O	0.478061	0.503334	0.586727
	H322	H	0.473737	0.505714	0.584889
	H323	H	0.493584	0.499674	0.591695
	O324	O	-0.029202	0.999927	0.995503
	H325	H	-0.025013	1.004408	0.999688
	H326	H	-0.026123	1.005831	0.988265
	O327	O	-0.063025	1.007706	0.987942
	H328	H	-0.059910	1.004086	0.989405
	H329	H	-0.056787	1.004562	0.982489
	O330	O	0.067639	0.030008	0.043309
	H331	H	0.058769	0.029352	0.041936
	H332	H	0.072862	0.022512	0.036715
	O333	O	0.563884	0.676131	0.563790
	H334	H	0.575592	0.654872	0.567405
	H335	H	0.565422	0.677414	0.557529
	O336	O	-0.023809	-0.086525	0.010374
	H337	H	-0.019724	-0.096305	0.012966
	H338	H	-0.041383	-0.083335	0.008988
	O339	O	-0.012871	0.002502	0.063139
	H340	H	0.001512	0.008486	0.059853
	H341	H	-0.010455	0.000142	0.060091
	O342	O	0.433629	0.646990	0.608539
	H343	H	0.437899	0.646064	0.622035
	H344	H	0.434907	0.643479	0.610669
	O345	O	0.022274	0.853995	0.885832
	H346	H	0.040306	0.850386	0.872366
	H347	H	0.018613	0.856306	0.876166
	O348	O	0.473262	0.386595	0.470943
	H349	H	0.462475	0.395075	0.470285
	H350	H	0.472929	0.379627	0.478756
	O351	O	0.623398	0.482877	0.557622
	H352	H	0.629752	0.478805	0.548328
	H353	H	0.631341	0.465186	0.562528
	O354	O	-0.102971	0.981464	0.067676
	H355	H	-0.101912	0.992527	0.063858
	H356	H	-0.105101	0.983027	0.075567
	O357	O	0.536272	0.544206	0.625265
	H358	H	0.540527	0.555423	0.630960
	H359	H	0.540413	0.546530	0.611335
	O360	O	1.532194	-0.494232	1.412936
	H361	H	1.527621	-0.500983	1.408216
	H362	H	1.532819	-0.485623	1.402484
	O363	O	0.579312	0.441069	0.318168
	H364	H	0.573523	0.443798	0.316455
	H365	H	0.572623	0.445380	0.315794
	O366	O	0.536992	0.498483	0.416081
	H367	H	0.541721	0.479873	0.421507
	H368	H	0.547532	0.490609	0.397910
	O369	O	1.104697	-0.054234	-0.108052
	H370	H	1.121511	-0.053334	-0.103735
	H371	H	1.112910	-0.058464	-0.109865
	O372	O	0.434435	0.494733	0.497072
	H373	H	0.435778	0.495768	0.502668
	H374	H	0.431504	0.507593	0.494238
	O375	O	0.961899	-0.102127	1.046796
	H376	H	0.945797	-0.115667	1.044773
	H377	H	0.952351	-0.105026	1.050463
	O378	O	-0.053045	1.043944	-0.116439
	H379	H	-0.045932	1.053394	-0.116160
	H380	H	-0.059669	1.052383	-0.113205
	O381	O	0.547209	0.411668	0.497451
	H382	H	0.549451	0.405324	0.489791
	H383	H	0.538660	0.417538	0.496416
	O384	O	1.055397	1.009885	-0.064945
	H385	H	1.051340	1.002748	-0.078451
	H386	H	1.054241	1.011865	-0.054315
	O387	O	1.601555	0.453849	1.598067
	H388	H	1.607545	0.439308	1.599856
	H389	H	1.612965	0.447120	1.593516
	O390	O	1.060917	0.884677	-0.010525
	H391	H	1.050848	0.873560	0.000065
	H392	H	1.058179	0.886414	-0.016894
	O393	O	0.540426	0.361111	0.459249
	H394	H	0.544378	0.363715	0.440963
	H395	H	0.533769	0.361572	0.479221
