data_Molecule from HDF5

_cell_length_a		16.256922
_cell_length_b		16.387460
_cell_length_c		16.195981
_cell_angle_alpha	89.703619
_cell_angle_beta	90.031563
_cell_angle_gamma	90.022989
_symmetry_space_group_name_H-M	'P 1'
_symmetry_Int_Tables_number		1

loop_
	_symmetry_equiv_pos_as_xyz
	x,y,z

loop_
	_atom_site_label
	_atom_site_type_symbol
	_atom_site_fract_x
	_atom_site_fract_y
	_atom_site_fract_z
	H0	H	0.389968	0.832032	0.718988
	H1	H	0.594423	0.153735	0.716642
	H2	H	0.595717	0.829375	0.286033
	H3	H	0.391017	0.151761	0.279126
	H4	H	0.714472	0.390935	0.838140
	H5	H	0.713578	0.590887	0.164107
	H6	H	0.278992	0.593642	0.839173
	H7	H	0.279964	0.386338	0.163283
	H8	H	0.831811	0.710604	0.395645
	H9	H	0.154273	0.713361	0.604981
	H10	H	0.832696	0.272516	0.607282
	H11	H	0.153676	0.270375	0.395778
	H12	H	0.833945	0.388966	0.720715
	H13	H	0.158124	0.591690	0.714359
	H14	H	0.833479	0.593880	0.280702
	H15	H	0.159049	0.393205	0.287979
	H16	H	0.392391	0.709832	0.840064
	H17	H	0.601579	0.708087	0.163080
	H18	H	0.602935	0.273144	0.837720
	H19	H	0.394554	0.269789	0.161295
	H20	H	0.712657	0.831845	0.398821
	H21	H	0.712421	0.152407	0.604232
	H22	H	0.274621	0.832545	0.603966
	H23	H	0.274239	0.152290	0.395171
	H24	H	0.895597	0.330339	0.219617
	H25	H	0.100434	0.651359	0.217647
	H26	H	0.099492	0.329941	0.781436
	H27	H	0.895596	0.652453	0.782753
	H28	H	0.211469	0.890689	0.339408
	H29	H	0.210979	0.096195	0.662321
	H30	H	0.777605	0.093642	0.337383
	H31	H	0.778194	0.892274	0.664296
	H32	H	0.336285	0.213497	0.892256
	H33	H	0.658095	0.208065	0.103636
	H34	H	0.335875	0.769122	0.105852
	H35	H	0.658283	0.775892	0.899602
	H36	H	0.332348	0.888779	0.216553
	H37	H	0.656155	0.091807	0.218809
	H38	H	0.331682	0.092880	0.785162
	H39	H	0.656577	0.892418	0.783229
	H40	H	0.886638	0.213372	0.340127
	H41	H	0.097287	0.210821	0.661937
	H42	H	0.096118	0.775915	0.339144
	H43	H	0.887628	0.771772	0.662511
	H44	H	0.216262	0.329932	0.896157
	H45	H	0.214567	0.650807	0.101101
	H46	H	0.779356	0.329924	0.105124
	H47	H	0.778308	0.651619	0.897100
	H48	H	0.397679	0.109666	0.592952
	H49	H	0.584742	0.878694	0.590128
	H50	H	0.583238	0.104934	0.412249
	H51	H	0.402438	0.876914	0.408664
	H52	H	0.584113	0.403724	0.114210
	H53	H	0.583106	0.590359	0.884109
	H54	H	0.406925	0.572796	0.115321
	H55	H	0.405531	0.394072	0.880997
	H56	H	0.110972	0.583371	0.404504
	H57	H	0.878082	0.582377	0.592031
	H58	H	0.107231	0.401577	0.584743
	H59	H	0.878561	0.401152	0.409370
	H60	H	0.111858	0.403215	0.593834
	H61	H	0.878345	0.582932	0.590905
	H62	H	0.112217	0.592495	0.412479
	H63	H	0.880159	0.401505	0.412207
	H64	H	0.412769	0.582015	0.116722
	H65	H	0.595574	0.582536	0.882821
	H66	H	0.583304	0.391211	0.117106
	H67	H	0.401728	0.407573	0.885042
	H68	H	0.586008	0.106459	0.409222
	H69	H	0.586040	0.875873	0.592865
	H70	H	0.405888	0.107581	0.593874
	H71	H	0.401299	0.877751	0.412694
	H72	H	0.901933	0.604986	0.084360
	H73	H	0.086044	0.373450	0.099580
	H74	H	0.089929	0.604994	0.911636
	H75	H	0.903712	0.375450	0.909086
	H76	H	0.077240	0.892350	0.618426
	H77	H	0.086128	0.074817	0.386621
	H78	H	0.901925	0.098726	0.622418
	H79	H	0.897845	0.903384	0.384067
	H80	H	0.611661	0.083677	0.906533
	H81	H	0.381377	0.083598	0.081077
	H82	H	0.613963	0.892025	0.092133
	H83	H	0.375645	0.894640	0.905360
	H84	H	0.608970	0.901107	0.088265
	H85	H	0.382543	0.074173	0.088399
	H86	H	0.611324	0.082765	0.909610
	H87	H	0.379638	0.894661	0.916892
	H88	H	0.889024	0.071868	0.618292
	H89	H	0.072266	0.082268	0.388275
	H90	H	0.091627	0.904802	0.620608
	H91	H	0.906495	0.904661	0.386574
	H92	H	0.090366	0.605627	0.906465
	H93	H	0.082829	0.378444	0.089638
	H94	H	0.903428	0.608631	0.095930
	H95	H	0.908914	0.377260	0.910176
	H96	H	0.401615	0.106465	0.586228
	H97	H	0.583046	0.877271	0.592852
	H98	H	0.581686	0.105877	0.408356
	H99	H	0.398521	0.875610	0.409833
	H100	H	0.594525	0.397649	0.119119
	H101	H	0.583285	0.575586	0.888247
	H102	H	0.401624	0.581964	0.119782
	H103	H	0.415240	0.403366	0.887498
	H104	H	0.107166	0.581175	0.415953
	H105	H	0.879138	0.581049	0.590941
	H106	H	0.110837	0.394399	0.589396
	H107	H	0.878980	0.404015	0.410790
	H108	H	0.912285	0.603760	0.089886
	H109	H	0.093998	0.373592	0.090790
	H110	H	0.085472	0.604534	0.908076
	H111	H	0.905602	0.376951	0.914319
	H112	H	0.075598	0.910009	0.612332
	H113	H	0.084305	0.089369	0.381683
	H114	H	0.917679	0.075981	0.610205
	H115	H	0.903956	0.896803	0.383312
	H116	H	0.612055	0.080538	0.908153
	H117	H	0.377553	0.084121	0.092289
	H118	H	0.613128	0.900772	0.098808
	H119	H	0.380308	0.905053	0.910520
	C120	C	0.371254	0.001591	0.622032
	C121	C	0.614905	0.983766	0.622436
	C122	C	0.615059	-0.000272	0.379538
	C123	C	0.370608	0.982874	0.377996
	C124	C	0.618494	0.368556	0.009132
	C125	C	0.618271	0.612176	0.992387
	C126	C	0.376189	0.610451	0.009736
	C127	C	0.376145	0.369329	0.991365
	C128	C	0.003076	0.615291	0.378777
	C129	C	0.985775	0.612871	0.621389
	C130	C	0.003332	0.369473	0.621862
	C131	C	0.985710	0.371479	0.380062
	C132	C	0.875380	0.499851	0.122517
	C133	C	0.118704	0.481597	0.123162
	C134	C	0.119064	0.498916	0.878065
	C135	C	0.875182	0.482628	0.879216
	C136	C	0.113297	0.872113	0.509992
	C137	C	0.113332	0.113483	0.492052
	C138	C	0.871189	0.113786	0.509715
	C139	C	0.871709	0.870534	0.492031
	C140	C	0.504319	0.113006	0.877614
	C141	C	0.487435	0.111071	0.119469
	C142	C	0.504686	0.867869	0.123173
	C143	C	0.485925	0.869135	0.879601
	C144	C	0.370737	0.880398	0.680353
	C145	C	0.613925	0.105092	0.679038
	C146	C	0.615070	0.878213	0.323613
	C147	C	0.371177	0.103574	0.318427
	C148	C	0.676238	0.370765	0.886740
	C149	C	0.675426	0.610752	0.115191
	C150	C	0.317730	0.612399	0.887860
	C151	C	0.318347	0.367518	0.114088
	C152	C	0.880988	0.672032	0.377114
	C153	C	0.106949	0.672457	0.622501
	C154	C	0.881588	0.311458	0.625050
	C155	C	0.106558	0.311532	0.378229
	C156	C	0.881902	0.369903	0.681154
	C157	C	0.108965	0.612119	0.676986
	C158	C	0.881743	0.613873	0.319824
	C159	C	0.109074	0.372299	0.324392
	C160	C	0.374360	0.670221	0.888479
	C161	C	0.619727	0.669243	0.114544
	C162	C	0.620474	0.312219	0.886613
	C163	C	0.375605	0.309752	0.113134
	C164	C	0.673261	0.879257	0.380013
	C165	C	0.672960	0.104463	0.622741
	C166	C	0.313391	0.880554	0.622956
	C167	C	0.312984	0.103884	0.376319
	C168	C	0.875944	0.378425	0.180885
	C169	C	0.119223	0.602958	0.179282
	C170	C	0.119361	0.378236	0.819712
	C171	C	0.875751	0.603893	0.821347
	C172	C	0.171797	0.871979	0.387858
	C173	C	0.172363	0.114807	0.613772
	C174	C	0.814457	0.113689	0.386952
	C175	C	0.815230	0.871420	0.615055
	C176	C	0.383688	0.172887	0.875379
	C177	C	0.609140	0.168806	0.121577
	C178	C	0.383374	0.809392	0.123901
	C179	C	0.609130	0.813815	0.879911
	C180	C	0.381794	0.868827	0.179098
	C181	C	0.608321	0.111157	0.179198
	C182	C	0.381264	0.112763	0.821935
	C183	C	0.608174	0.872148	0.822187
	C184	C	0.869145	0.173154	0.388306
	C185	C	0.115195	0.171725	0.613509
	C186	C	0.114301	0.814802	0.387793
	C187	C	0.869568	0.811451	0.613999
	C188	C	0.177441	0.378157	0.877229
	C189	C	0.176308	0.602559	0.121402
	C190	C	0.817767	0.378388	0.123999
	C191	C	0.817386	0.603533	0.878425
	C192	C	0.394967	0.085909	0.597823
	C193	C	0.591383	0.899202	0.598669
	C194	C	0.590616	0.083883	0.403039
	C195	C	0.393901	0.898788	0.402914
	C196	C	0.594269	0.391121	0.094587
	C197	C	0.594228	0.589322	0.907198
	C198	C	0.400323	0.586006	0.094956
	C199	C	0.400323	0.394415	0.906573
	C200	C	0.088273	0.592389	0.403613
	C201	C	0.900623	0.589143	0.598074
	C202	C	0.087846	0.392916	0.596642
	C203	C	0.901076	0.395319	0.403941
	C204	C	0.898938	0.583937	0.097452
	C205	C	0.094561	0.397049	0.100122
	C206	C	0.095448	0.583199	0.901872
	C207	C	0.899107	0.398459	0.904076
	C208	C	0.088687	0.895718	0.594954
	C209	C	0.088240	0.089257	0.407296
	C210	C	0.895679	0.089253	0.594872
	C211	C	0.895661	0.894730	0.406692
	C212	C	0.589441	0.089167	0.901117
	C213	C	0.402613	0.087595	0.094349
	C214	C	0.589799	0.891212	0.099836
	C215	C	0.400851	0.891421	0.903829
	Zn216	Zn	0.492576	-0.007394	0.750907
	Zn217	Zn	0.494408	-0.009672	0.249854
	Zn218	Zn	0.745974	0.490285	0.001558
	Zn219	Zn	0.247153	0.489723	0.000952
	Zn220	Zn	-0.007083	0.743111	0.501307
	Zn221	Zn	-0.007419	0.241643	0.500434
	Zn222	Zn	-0.003492	0.491006	0.749525
	Zn223	Zn	-0.003341	0.491881	0.251534
	Zn224	Zn	0.496526	0.739853	0.001981
	Zn225	Zn	0.497423	0.240429	-0.001641
	Zn226	Zn	0.743970	-0.007695	0.500927
	Zn227	Zn	0.241725	-0.006734	0.501235
	N228	N	0.405881	0.956589	0.679943
	N229	N	0.578669	0.028856	0.679067
	N230	N	0.579398	0.954205	0.323340
	N231	N	0.405940	0.027288	0.319024
	N232	N	0.675340	0.404904	0.964136
	N233	N	0.674843	0.575992	0.038119
	N234	N	0.318976	0.575790	0.964282
	N235	N	0.318557	0.403922	0.037430
	N236	N	0.957499	0.673112	0.413046
	N237	N	0.029239	0.673166	0.588710
	N238	N	0.958097	0.311089	0.588780
	N239	N	0.028850	0.310630	0.412181
	N240	N	0.958641	0.404881	0.679655
	N241	N	0.032739	0.575818	0.676529
	N242	N	0.958912	0.579517	0.320608
	N243	N	0.033122	0.408891	0.325408
	N244	N	0.410415	0.669004	0.965405
	N245	N	0.585046	0.670574	0.037180
	N246	N	0.585184	0.310848	0.963717
	N247	N	0.410546	0.310442	0.035815
	N248	N	0.673514	0.955875	0.414066
	N249	N	0.673681	0.027948	0.588245
	N250	N	0.313261	0.957068	0.587835
	N251	N	0.312389	0.027846	0.412529
	N252	N	0.911025	0.454818	0.180124
	N253	N	0.084344	0.526607	0.180786
	N254	N	0.083773	0.454306	0.820123
	N255	N	0.910765	0.527505	0.821545
	N256	N	0.171072	0.907073	0.464760
	N257	N	0.171351	0.079343	0.537097
	N258	N	0.815622	0.077454	0.463604
	N259	N	0.816294	0.907437	0.538050
	N260	N	0.461222	0.173310	0.909211
	N261	N	0.532802	0.168808	0.085114
	N262	N	0.460839	0.808501	0.090059
	N263	N	0.531960	0.811768	0.914805
	N264	N	0.458263	0.904547	0.178814
	N265	N	0.531691	0.075822	0.178043
	N266	N	0.457304	0.076164	0.823140
	N267	N	0.530580	0.905648	0.821713
	N268	N	0.903472	0.173578	0.465858
	N269	N	0.079451	0.171291	0.536574
	N270	N	0.078724	0.814494	0.464955
	N271	N	0.903713	0.810794	0.536487
	N272	N	0.177539	0.454296	0.912543
	N273	N	0.175879	0.526041	0.087138
	N274	N	0.817062	0.454828	0.088575
	N275	N	0.816744	0.527063	0.913550
	O276	O	0.655648	0.351390	0.355535
	H277	H	0.653340	0.351247	0.371796
	H278	H	0.636460	0.348866	0.356009
	O279	O	0.463458	0.623291	0.318359
	H280	H	0.451422	0.613084	0.311084
	H281	H	0.447188	0.640606	0.311314
	O282	O	1.028009	-0.055057	0.985750
	H283	H	1.031859	-0.064085	0.971970
	H284	H	1.032738	-0.067821	0.992651
	O285	O	0.396232	0.459914	0.488607
	H286	H	0.392362	0.459293	0.494968
	H287	H	0.393132	0.468666	0.491068
	O288	O	0.937269	0.945808	1.022302
	H289	H	0.942771	0.947810	1.027312
	H290	H	0.932185	0.952125	1.036657
	O291	O	-0.000048	0.957820	0.112105
	H292	H	-0.017791	0.953814	0.114406
	H293	H	-0.013554	0.959053	0.106310
	O294	O	0.446319	0.454769	0.511935
	H295	H	0.434833	0.459731	0.499487
	H296	H	0.438465	0.449697	0.513599
	O297	O	0.511382	0.428116	0.443959
	H298	H	0.510187	0.416948	0.447956
	H299	H	0.506912	0.436913	0.459958
	O300	O	0.650577	0.342261	0.491928
	H301	H	0.660418	0.353578	0.490901
	H302	H	0.659295	0.344824	0.495283
	O303	O	0.617199	0.417267	0.508738
	H304	H	0.630475	0.401817	0.510863
	H305	H	0.618001	0.422590	0.490221
	O306	O	0.357460	0.440242	0.441587
	H307	H	0.362499	0.457627	0.449314
	H308	H	0.367552	0.436572	0.438516
	O309	O	0.535050	0.675827	0.663607
	H310	H	0.545089	0.685386	0.676674
	H311	H	0.546815	0.690413	0.666042
	O312	O	-0.050150	-0.004726	0.091770
	H313	H	-0.034034	0.008580	0.089710
	H314	H	-0.050165	-0.008579	0.094502
	O315	O	0.507243	0.511905	0.488340
	H316	H	0.519992	0.501674	0.486376
	H317	H	0.499809	0.520666	0.485989
	O318	O	-0.082855	0.912471	1.046061
	H319	H	-0.076956	0.907919	1.055303
	H320	H	-0.083784	0.906910	1.038415
	O321	O	0.421750	0.386863	0.442100
	H322	H	0.406685	0.386300	0.453472
	H323	H	0.424993	0.389527	0.436879
	O324	O	-0.143712	1.173927	-0.110030
	H325	H	-0.147387	1.182010	-0.092491
	H326	H	-0.143145	1.166317	-0.093277
	O327	O	0.496543	0.665386	0.550978
	H328	H	0.494341	0.649238	0.549891
	H329	H	0.506800	0.670463	0.551777
	O330	O	0.653719	-0.476644	1.562149
	H331	H	0.629570	-0.474081	1.551592
	H332	H	0.667768	-0.470900	1.574025
	O333	O	0.103401	-0.193687	0.968868
	H334	H	0.100292	-0.198940	0.962081
	H335	H	0.111506	-0.209824	0.971046
	O336	O	0.302039	0.611767	0.323337
	H337	H	0.305273	0.604540	0.333779
	H338	H	0.314395	0.594406	0.330078
	O339	O	1.185463	0.083619	0.173895
	H340	H	1.189552	0.076773	0.163401
	H341	H	1.201384	0.087566	0.191478
	O342	O	-0.136869	0.141992	0.064347
	H343	H	-0.121370	0.130248	0.070968
	H344	H	-0.144577	0.143387	0.074108
	O345	O	1.087851	0.056828	1.037541
	H346	H	1.087472	0.047807	1.029668
	H347	H	1.098577	0.064039	1.056132
	O348	O	0.842018	0.876814	-0.088052
	H349	H	0.858569	0.887276	-0.080287
	H350	H	0.862192	0.881894	-0.088375
	O351	O	0.379680	0.446260	0.632173
	H352	H	0.395117	0.444146	0.650882
	H353	H	0.399196	0.453007	0.624186
	O354	O	1.170315	0.091103	1.086758
	H355	H	1.159588	0.113781	1.077064
	H356	H	1.177250	0.068027	1.090201
	O357	O	0.647874	0.514204	0.689808
	H358	H	0.650589	0.516448	0.691184
	H359	H	0.653464	0.524842	0.694265
	O360	O	0.421618	0.545535	0.621834
	H361	H	0.429654	0.556858	0.616774
	H362	H	0.413975	0.543172	0.626756
	O363	O	0.135886	0.966069	0.870005
	H364	H	0.136414	0.958728	0.858766
	H365	H	0.150251	0.987183	0.875087
	O366	O	0.469465	0.343177	0.644994
	H367	H	0.479542	0.350131	0.657053
	H368	H	0.471847	0.335566	0.659866
	O369	O	0.077897	0.846965	-0.131558
	H370	H	0.079278	0.844944	-0.119268
	H371	H	0.066446	0.875011	-0.126628
	O372	O	0.676541	0.678012	0.643569
	H373	H	0.673327	0.679070	0.633096
	H374	H	0.689935	0.687021	0.645577
	O375	O	0.644181	0.593993	0.437370
	H376	H	0.636348	0.597309	0.426974
	H377	H	0.633624	0.586360	0.445651
	O378	O	1.098856	0.880830	-0.026947
	H379	H	1.105211	0.887779	-0.011088
	H380	H	1.085389	0.887861	-0.018542
	O381	O	0.952289	0.031283	0.003820
	H382	H	0.965069	0.034075	0.005113
	H383	H	0.953371	0.016243	0.004316
	O384	O	1.005475	1.172286	0.043702
	H385	H	0.994111	1.170012	0.035992
	H386	H	1.001902	1.184685	0.048684
	O387	O	0.018561	-0.049789	0.047449
	H388	H	0.013232	-0.038965	0.053728
	H389	H	0.024986	-0.048548	0.060721
	O390	O	-0.124804	1.018507	-0.051536
	H391	H	-0.128039	1.021631	-0.054724
	H392	H	-0.126848	1.025722	-0.039157
	O393	O	0.960062	1.093891	0.872775
	H394	H	0.962003	1.103771	0.900156
	H395	H	0.951706	1.095005	0.871724
	O396	O	0.549746	0.502178	0.462487
	H397	H	0.549077	0.507713	0.450094
	H398	H	0.561713	0.504402	0.459631
	O399	O	0.009286	1.138620	1.024708
	H400	H	0.007860	1.124359	1.015428
	H401	H	0.006752	1.134027	1.010600
	O402	O	0.301548	0.360764	0.519810
	H403	H	0.290490	0.354399	0.537970
	H404	H	0.305384	0.363359	0.536591
	O405	O	0.898763	0.901808	0.095124
	H406	H	0.881952	0.905397	0.094299
	H407	H	0.907515	0.920637	0.087664
	O408	O	1.034198	0.931071	-0.113903
	H409	H	1.024070	0.936069	-0.121571
	H410	H	1.034463	0.927393	-0.099563
	O411	O	0.988235	-0.108550	0.976821
	H412	H	0.997186	-0.105142	0.975378
	H413	H	0.985599	-0.115258	0.975673
	O414	O	0.441305	0.494326	0.354320
	H415	H	0.460776	0.494875	0.362870
	H416	H	0.454888	0.490764	0.367025
	O417	O	0.376703	0.669712	0.420105
	H418	H	0.382341	0.658366	0.435719
	H419	H	0.368333	0.663928	0.427834
