data_Molecule from HDF5

_cell_length_a		16.273137
_cell_length_b		16.259156
_cell_length_c		15.959965
_cell_angle_alpha	90.877347
_cell_angle_beta	89.747509
_cell_angle_gamma	88.968049
_symmetry_space_group_name_H-M	'P 1'
_symmetry_Int_Tables_number		1

loop_
	_symmetry_equiv_pos_as_xyz
	x,y,z

loop_
	_atom_site_label
	_atom_site_type_symbol
	_atom_site_fract_x
	_atom_site_fract_y
	_atom_site_fract_z
	H0	H	0.416926	0.838679	0.706992
	H1	H	0.600986	0.168461	0.714362
	H2	H	0.610367	0.839664	0.282192
	H3	H	0.412460	0.170258	0.292881
	H4	H	0.725746	0.398317	0.830498
	H5	H	0.718439	0.601890	0.163973
	H6	H	0.294977	0.601765	0.831185
	H7	H	0.296800	0.409274	0.164453
	H8	H	0.846531	0.724054	0.400646
	H9	H	0.173836	0.716924	0.600329
	H10	H	0.844423	0.294928	0.597198
	H11	H	0.171588	0.281663	0.393051
	H12	H	0.843575	0.415574	0.708502
	H13	H	0.173991	0.598479	0.711306
	H14	H	0.842681	0.601664	0.289462
	H15	H	0.173476	0.402456	0.282691
	H16	H	0.407394	0.715676	0.830669
	H17	H	0.604186	0.716593	0.163361
	H18	H	0.610286	0.285027	0.831709
	H19	H	0.414532	0.298770	0.166872
	H20	H	0.728855	0.840924	0.394627
	H21	H	0.720636	0.168780	0.602089
	H22	H	0.297448	0.840481	0.597398
	H23	H	0.290297	0.166289	0.399936
	H24	H	0.915199	0.338222	0.207331
	H25	H	0.100131	0.668545	0.212183
	H26	H	0.108406	0.339471	0.782972
	H27	H	0.912356	0.670634	0.793454
	H28	H	0.227409	0.899030	0.332251
	H29	H	0.218364	0.102978	0.666100
	H30	H	0.795009	0.102868	0.331415
	H31	H	0.796848	0.909696	0.664866
	H32	H	0.346480	0.222459	0.899716
	H33	H	0.673369	0.217358	0.101152
	H34	H	0.344436	0.792774	0.098088
	H35	H	0.671310	0.781166	0.892564
	H36	H	0.343379	0.913993	0.210179
	H37	H	0.674714	0.097162	0.210853
	H38	H	0.343635	0.100291	0.790989
	H39	H	0.673297	0.902861	0.783836
	H40	H	0.908378	0.215901	0.331194
	H41	H	0.104218	0.218412	0.664027
	H42	H	0.112013	0.784813	0.332873
	H43	H	0.915310	0.800091	0.667750
	H44	H	0.229540	0.341341	0.891929
	H45	H	0.220757	0.668420	0.100755
	H46	H	0.796674	0.339568	0.097082
	H47	H	0.788894	0.665293	0.898571
	H48	H	0.402881	0.124261	0.592336
	H49	H	0.605717	0.889908	0.578196
	H50	H	0.592709	0.120024	0.406611
	H51	H	0.410902	0.886290	0.414636
	H52	H	0.611998	0.417917	0.117388
	H53	H	0.598340	0.587064	0.878843
	H54	H	0.416511	0.603963	0.118332
	H55	H	0.411757	0.413484	0.877015
	H56	H	0.123979	0.594817	0.414310
	H57	H	0.888981	0.608238	0.598905
	H58	H	0.124844	0.413681	0.590539
	H59	H	0.888075	0.403309	0.402583
	H60	H	0.128899	0.403832	0.592210
	H61	H	0.890739	0.607467	0.590149
	H62	H	0.124440	0.586865	0.403025
	H63	H	0.894653	0.411091	0.411565
	H64	H	0.409364	0.599004	0.118059
	H65	H	0.598855	0.595693	0.876440
	H66	H	0.595401	0.413633	0.114535
	H67	H	0.426707	0.415346	0.881998
	H68	H	0.606629	0.120018	0.416507
	H69	H	0.616414	0.882935	0.591543
	H70	H	0.414685	0.123458	0.603207
	H71	H	0.413620	0.881017	0.392365
	H72	H	0.905876	0.624760	0.099256
	H73	H	0.113258	0.387859	0.079108
	H74	H	0.113613	0.625456	0.906199
	H75	H	0.916343	0.386041	0.905090
	H76	H	0.106328	0.899917	0.622692
	H77	H	0.101008	0.093089	0.377469
	H78	H	0.925524	0.098173	0.613483
	H79	H	0.905280	0.919949	0.377697
	H80	H	0.628546	0.103556	0.911178
	H81	H	0.394734	0.097921	0.090050
	H82	H	0.624794	0.908985	0.086514
	H83	H	0.388719	0.907880	0.900503
	H84	H	0.626296	0.906956	0.090216
	H85	H	0.389357	0.103190	0.103088
	H86	H	0.622237	0.087119	0.911783
	H87	H	0.390412	0.906086	0.906462
	H88	H	0.910650	0.111850	0.622324
	H89	H	0.104244	0.090938	0.377846
	H90	H	0.114691	0.917964	0.619084
	H91	H	0.933926	0.919613	0.386321
	H92	H	0.098067	0.623303	0.897311
	H93	H	0.111165	0.382017	0.097165
	H94	H	0.919227	0.618747	0.094706
	H95	H	0.916660	0.383645	0.899053
	H96	H	0.416654	0.119029	0.588509
	H97	H	0.598774	0.887528	0.595334
	H98	H	0.607480	0.125354	0.400469
	H99	H	0.430624	0.889215	0.404483
	H100	H	0.606986	0.402420	0.120572
	H101	H	0.605250	0.590131	0.875732
	H102	H	0.417411	0.595226	0.115411
	H103	H	0.420780	0.402403	0.876607
	H104	H	0.128890	0.600557	0.401095
	H105	H	0.892698	0.600425	0.595571
	H106	H	0.125041	0.406602	0.581769
	H107	H	0.891433	0.415432	0.398890
	H108	H	0.907580	0.620138	0.084944
	H109	H	0.096150	0.388228	0.087488
	H110	H	0.099812	0.619032	0.915196
	H111	H	0.921282	0.386434	0.901762
	H112	H	0.095356	0.915877	0.614473
	H113	H	0.100220	0.090300	0.379081
	H114	H	0.905371	0.092346	0.618538
	H115	H	0.922098	0.895016	0.373765
	H116	H	0.629454	0.092402	0.896496
	H117	H	0.390459	0.111667	0.090923
	H118	H	0.625925	0.904735	0.087232
	H119	H	0.391716	0.912575	0.904764
	C120	C	0.386292	0.013272	0.621289
	C121	C	0.632298	0.995231	0.620131
	C122	C	0.632220	0.012941	0.376634
	C123	C	0.388426	0.994595	0.377366
	C124	C	0.633736	0.379952	0.007100
	C125	C	0.627970	0.621142	0.987659
	C126	C	0.385988	0.626588	0.006775
	C127	C	0.390763	0.384276	0.989195
	C128	C	0.017286	0.624784	0.377965
	C129	C	1.000295	0.629188	0.622048
	C130	C	0.017401	0.383776	0.617552
	C131	C	1.000135	0.379340	0.374467
	C132	C	0.885938	0.512186	0.119924
	C133	C	0.131849	0.495061	0.118899
	C134	C	0.132933	0.513490	0.875369
	C135	C	0.887918	0.494661	0.876119
	C136	C	0.133939	0.880693	0.508029
	C137	C	0.128642	0.122310	0.489089
	C138	C	0.885665	0.127478	0.507305
	C139	C	0.891197	0.885341	0.489653
	C140	C	0.518139	0.124272	0.878775
	C141	C	0.500520	0.128762	0.122856
	C142	C	0.517073	0.882279	0.118254
	C143	C	0.499260	0.879252	0.874228
	C144	C	0.393799	0.888332	0.672127
	C145	C	0.624480	0.119243	0.676924
	C146	C	0.630768	0.889049	0.320027
	C147	C	0.391061	0.119922	0.327502
	C148	C	0.688725	0.379129	0.880968
	C149	C	0.681598	0.621089	0.113837
	C150	C	0.331796	0.622433	0.880904
	C151	C	0.335021	0.388870	0.115036
	C152	C	0.894613	0.683598	0.380550
	C153	C	0.124443	0.680622	0.619990
	C154	C	0.893497	0.332139	0.616558
	C155	C	0.122839	0.320991	0.374315
	C156	C	0.893062	0.392429	0.671897
	C157	C	0.124663	0.621361	0.674823
	C158	C	0.892824	0.622868	0.325254
	C159	C	0.123755	0.381326	0.319307
	C160	C	0.387722	0.679119	0.880722
	C161	C	0.624812	0.678164	0.113534
	C162	C	0.631209	0.322597	0.881640
	C163	C	0.393483	0.333805	0.116252
	C164	C	0.690025	0.889769	0.375742
	C165	C	0.683864	0.119361	0.620833
	C166	C	0.334369	0.889316	0.617556
	C167	C	0.330256	0.117881	0.380859
	C168	C	0.892732	0.387659	0.171660
	C169	C	0.123904	0.619388	0.175014
	C170	C	0.129946	0.389237	0.819327
	C171	C	0.890842	0.619964	0.826907
	C172	C	0.189202	0.880252	0.382182
	C173	C	0.181524	0.121865	0.615496
	C174	C	0.831816	0.123268	0.381518
	C175	C	0.835468	0.889804	0.615434
	C176	C	0.395004	0.182553	0.880771
	C177	C	0.624384	0.180369	0.120503
	C178	C	0.393318	0.830496	0.117333
	C179	C	0.622524	0.821058	0.874133
	C180	C	0.392791	0.891012	0.172909
	C181	C	0.625002	0.120775	0.175481
	C182	C	0.393511	0.121636	0.826513
	C183	C	0.623551	0.881465	0.819715
	C184	C	0.888198	0.179759	0.381290
	C185	C	0.124675	0.179379	0.614658
	C186	C	0.132074	0.823111	0.382632
	C187	C	0.894201	0.835161	0.616843
	C188	C	0.189840	0.389867	0.874147
	C189	C	0.183795	0.619119	0.119483
	C190	C	0.833793	0.388499	0.116747
	C191	C	0.829193	0.617305	0.879192
	C192	C	0.405535	0.099740	0.600867
	C193	C	0.612893	0.909102	0.595538
	C194	C	0.608990	0.099552	0.400738
	C195	C	0.411502	0.908006	0.397792
	C196	C	0.611583	0.404086	0.094785
	C197	C	0.607107	0.597852	0.899833
	C198	C	0.407919	0.605718	0.094527
	C199	C	0.413099	0.404422	0.901483
	C200	C	0.103620	0.601055	0.399701
	C201	C	0.913477	0.610880	0.601106
	C202	C	0.103726	0.402335	0.594865
	C203	C	0.913626	0.403091	0.397587
	C204	C	0.905120	0.598757	0.099192
	C205	C	0.112713	0.408510	0.095015
	C206	C	0.110553	0.600224	0.899150
	C207	C	0.911248	0.407797	0.896033
	C208	C	0.111948	0.904304	0.596005
	C209	C	0.107977	0.098577	0.400830
	C210	C	0.907330	0.106940	0.595514
	C211	C	0.913849	0.905371	0.402017
	C212	C	0.604499	0.101178	0.900158
	C213	C	0.413918	0.109999	0.101100
	C214	C	0.603414	0.901300	0.094893
	C215	C	0.412676	0.902143	0.897207
	Zn216	Zn	0.508580	0.003438	0.748575
	Zn217	Zn	0.509476	0.005005	0.248802
	Zn218	Zn	0.758947	0.502295	-0.002921
	Zn219	Zn	0.261326	0.504201	-0.003072
	Zn220	Zn	0.010232	0.756060	0.500250
	Zn221	Zn	0.007988	0.251646	0.497181
	Zn222	Zn	0.009688	0.505546	0.748602
	Zn223	Zn	0.008236	0.503057	0.247291
	Zn224	Zn	0.507471	0.751050	-0.003692
	Zn225	Zn	0.510268	0.255437	-0.000314
	Zn226	Zn	0.761584	0.005231	0.497739
	Zn227	Zn	0.259673	0.003258	0.498636
	N228	N	0.425425	0.966234	0.674590
	N229	N	0.593144	0.041120	0.676749
	N230	N	0.595240	0.966666	0.320758
	N231	N	0.426726	0.042402	0.325228
	N232	N	0.690383	0.413995	0.960258
	N233	N	0.683671	0.586114	0.034680
	N234	N	0.330521	0.590262	0.960143
	N235	N	0.333297	0.419967	0.035235
	N236	N	0.973022	0.685034	0.412620
	N237	N	0.046140	0.685460	0.587645
	N238	N	0.971670	0.326794	0.583194
	N239	N	0.044631	0.319709	0.407813
	N240	N	0.971156	0.423663	0.673089
	N241	N	0.046497	0.590346	0.676679
	N242	N	0.970286	0.586847	0.323804
	N243	N	0.046220	0.416694	0.319084
	N244	N	0.420679	0.681900	0.959969
	N245	N	0.592014	0.678280	0.034168
	N246	N	0.597854	0.322791	0.961046
	N247	N	0.427478	0.330838	0.037072
	N248	N	0.691035	0.967891	0.410268
	N249	N	0.689015	0.041362	0.586353
	N250	N	0.329396	0.967919	0.586785
	N251	N	0.328322	0.038901	0.410807
	N252	N	0.924448	0.465554	0.173900
	N253	N	0.092593	0.541254	0.175039
	N254	N	0.095215	0.467281	0.820040
	N255	N	0.926752	0.542491	0.824782
	N256	N	0.190286	0.915464	0.461013
	N257	N	0.183963	0.086867	0.536311
	N258	N	0.830084	0.091525	0.461020
	N259	N	0.833213	0.920121	0.535285
	N260	N	0.473472	0.184197	0.912581
	N261	N	0.545924	0.185615	0.088583
	N262	N	0.471434	0.825088	0.083790
	N263	N	0.544211	0.819555	0.907368
	N264	N	0.470790	0.922437	0.173698
	N265	N	0.547095	0.089238	0.176934
	N266	N	0.470938	0.085967	0.825219
	N267	N	0.545993	0.916881	0.819698
	N268	N	0.921152	0.182371	0.460642
	N269	N	0.092367	0.179505	0.535113
	N270	N	0.098479	0.823294	0.462014
	N271	N	0.928309	0.832343	0.537692
	N272	N	0.191959	0.468124	0.908088
	N273	N	0.188758	0.540899	0.085150
	N274	N	0.829402	0.466886	0.085295
	N275	N	0.827421	0.538294	0.908992
	O276	O	0.035826	0.009388	-0.038905
	H277	H	0.037991	0.012114	-0.039609
	H278	H	0.030844	0.012501	-0.042302
	O279	O	0.420069	0.508788	0.569457
	H280	H	0.431808	0.513265	0.570837
	H281	H	0.411971	0.513001	0.569691
	O282	O	0.560451	0.528500	0.488373
	H283	H	0.559623	0.521154	0.483008
	H284	H	0.561960	0.533477	0.487713
	O285	O	1.097895	-0.023438	0.971902
	H286	H	1.090043	-0.008130	0.971485
	H287	H	1.100251	-0.026062	0.972960
	O288	O	1.003521	-0.017093	0.045990
	H289	H	1.010148	-0.012144	0.048149
	H290	H	1.004864	-0.018608	0.066576
	O291	O	0.434351	0.510454	0.479526
	H292	H	0.426756	0.517979	0.471674
	H293	H	0.426086	0.503497	0.484700
	O294	O	1.003799	-0.029028	1.039799
	H295	H	1.016519	-0.028627	1.034191
	H296	H	0.994335	-0.029893	1.035656
	O297	O	-0.050585	0.067665	-0.001731
	H298	H	-0.047109	0.063597	-0.009757
	H299	H	-0.058920	0.078438	-0.009461
	O300	O	0.468483	0.623775	0.435191
	H301	H	0.468949	0.618814	0.424437
	H302	H	0.463262	0.626257	0.427442
	O303	O	-0.049783	0.066733	-0.022696
	H304	H	-0.052101	0.063331	-0.023543
	H305	H	-0.047498	0.074510	-0.013501
	O306	O	0.946300	-0.042579	-0.042123
	H307	H	0.950485	-0.044499	-0.033991
	H308	H	0.946497	-0.044129	-0.027578
	O309	O	-0.112439	0.084462	0.912469
	H310	H	-0.114849	0.090072	0.905502
	H311	H	-0.115624	0.077819	0.902814
	O312	O	1.054425	1.044878	0.938960
	H313	H	1.049288	1.052857	0.946607
	H314	H	1.051332	1.038187	0.944342
	O315	O	0.577156	0.471356	0.510897
	H316	H	0.581622	0.458873	0.505263
	H317	H	0.589977	0.459841	0.511422
	O318	O	0.587535	0.588986	0.538753
	H319	H	0.592684	0.592149	0.537376
	H320	H	0.582622	0.591037	0.529484
	O321	O	0.017700	0.965875	1.042023
	H322	H	0.032427	0.959498	1.054289
	H323	H	0.019091	0.968672	1.040243
	O324	O	0.539974	0.525523	0.612696
	H325	H	0.528002	0.530558	0.614822
	H326	H	0.534122	0.532317	0.592369
	O327	O	0.390208	0.500774	0.540331
	H328	H	0.380948	0.504261	0.535901
	H329	H	0.401830	0.514063	0.539711
	O330	O	0.600328	0.456467	0.467147
	H331	H	0.611856	0.462990	0.475112
	H332	H	0.599295	0.463248	0.474881
	O333	O	0.610413	0.449991	0.474130
	H334	H	0.627124	0.448748	0.479436
	H335	H	0.615253	0.443155	0.478330
	O336	O	0.569936	0.461140	0.425814
	H337	H	0.562675	0.464459	0.418552
	H338	H	0.574251	0.460960	0.413795
	O339	O	1.089730	1.056521	0.022439
	H340	H	1.083194	1.056305	0.017540
	H341	H	1.094934	1.044707	0.020543
	O342	O	0.515147	0.500697	0.486630
	H343	H	0.515277	0.504421	0.491279
	H344	H	0.517839	0.494548	0.492636
	O345	O	0.451157	0.564694	0.437562
	H346	H	0.453297	0.551757	0.437700
	H347	H	0.448185	0.561919	0.439412
	O348	O	0.107406	-0.052644	-0.040785
	H349	H	0.096409	-0.052043	-0.048258
	H350	H	0.105767	-0.052455	-0.054724
	O351	O	-0.442437	1.366336	1.416562
	H352	H	-0.450757	1.364541	1.420038
	H353	H	-0.440922	1.366147	1.417556
	O354	O	0.425180	0.496190	0.467585
	H355	H	0.414188	0.507832	0.471159
	H356	H	0.434268	0.495286	0.480264
	O357	O	0.082466	1.053153	1.051454
	H358	H	0.074547	1.057299	1.045131
	H359	H	0.093065	1.055096	1.049968
