data_Molecule from HDF5

_cell_length_a		16.071241
_cell_length_b		16.163388
_cell_length_c		16.424130
_cell_angle_alpha	90.196931
_cell_angle_beta	90.191618
_cell_angle_gamma	90.171256
_symmetry_space_group_name_H-M	'P 1'
_symmetry_Int_Tables_number		1

loop_
	_symmetry_equiv_pos_as_xyz
	x,y,z

loop_
	_atom_site_label
	_atom_site_type_symbol
	_atom_site_fract_x
	_atom_site_fract_y
	_atom_site_fract_z
	H0	H	0.400947	0.837894	0.719442
	H1	H	0.607909	0.164563	0.722098
	H2	H	0.604728	0.837922	0.287344
	H3	H	0.402139	0.165195	0.286188
	H4	H	0.718598	0.402222	0.841347
	H5	H	0.718502	0.599507	0.166505
	H6	H	0.288300	0.597460	0.841061
	H7	H	0.288923	0.403288	0.166443
	H8	H	0.836368	0.712300	0.408597
	H9	H	0.169291	0.714710	0.600617
	H10	H	0.837540	0.289239	0.600997
	H11	H	0.168553	0.291048	0.407779
	H12	H	0.838656	0.400576	0.719227
	H13	H	0.167129	0.606033	0.721141
	H14	H	0.838039	0.602647	0.288670
	H15	H	0.166782	0.401366	0.288600
	H16	H	0.403498	0.714477	0.840717
	H17	H	0.604010	0.717986	0.165240
	H18	H	0.601440	0.285886	0.840505
	H19	H	0.403711	0.285032	0.165433
	H20	H	0.714481	0.836136	0.407703
	H21	H	0.715146	0.167633	0.599466
	H22	H	0.291330	0.836116	0.598041
	H23	H	0.293058	0.167722	0.407507
	H24	H	0.900659	0.337690	0.219459
	H25	H	0.105144	0.665193	0.220910
	H26	H	0.104435	0.338792	0.786121
	H27	H	0.900540	0.665856	0.787845
	H28	H	0.214546	0.905843	0.339993
	H29	H	0.221313	0.102839	0.665644
	H30	H	0.788797	0.099388	0.340654
	H31	H	0.789256	0.905016	0.666786
	H32	H	0.336627	0.211858	0.906064
	H33	H	0.668924	0.214540	0.100466
	H34	H	0.337253	0.789958	0.097974
	H35	H	0.669285	0.788202	0.905446
	H36	H	0.338649	0.901039	0.216303
	H37	H	0.668114	0.103837	0.219044
	H38	H	0.339723	0.101242	0.786846
	H39	H	0.668084	0.899451	0.787108
	H40	H	0.904269	0.217152	0.341232
	H41	H	0.104290	0.220173	0.665974
	H42	H	0.101571	0.785844	0.341873
	H43	H	0.904312	0.787178	0.666559
	H44	H	0.212292	0.335344	0.908834
	H45	H	0.215720	0.666659	0.100330
	H46	H	0.790351	0.336212	0.099245
	H47	H	0.791586	0.666996	0.909788
	H48	H	0.412065	0.120153	0.597959
	H49	H	0.597549	0.882157	0.600436
	H50	H	0.595060	0.120405	0.406815
	H51	H	0.411650	0.882355	0.402510
	H52	H	0.595467	0.403914	0.119704
	H53	H	0.590215	0.592313	0.890158
	H54	H	0.410015	0.601934	0.120910
	H55	H	0.398789	0.411287	0.886063
	H56	H	0.122357	0.597058	0.411931
	H57	H	0.881906	0.601961	0.595323
	H58	H	0.121287	0.415686	0.600948
	H59	H	0.886560	0.417741	0.412241
	H60	H	0.122126	0.408847	0.596294
	H61	H	0.887886	0.588170	0.591816
	H62	H	0.120274	0.591505	0.413620
	H63	H	0.881457	0.408110	0.402593
	H64	H	0.405053	0.592692	0.120520
	H65	H	0.596954	0.600283	0.885564
	H66	H	0.599600	0.407707	0.120546
	H67	H	0.416790	0.411318	0.891429
	H68	H	0.592121	0.119036	0.409573
	H69	H	0.589304	0.884861	0.597962
	H70	H	0.417065	0.118349	0.599160
	H71	H	0.413788	0.885708	0.411565
	H72	H	0.915365	0.618691	0.101499
	H73	H	0.091935	0.383317	0.098534
	H74	H	0.096085	0.618966	0.914598
	H75	H	0.914954	0.388199	0.918538
	H76	H	0.103729	0.914499	0.619470
	H77	H	0.091392	0.095607	0.390526
	H78	H	0.911024	0.104079	0.621735
	H79	H	0.903997	0.911387	0.387398
	H80	H	0.618802	0.086089	0.913578
	H81	H	0.385008	0.092914	0.096352
	H82	H	0.619442	0.917106	0.094663
	H83	H	0.384890	0.911375	0.904190
	H84	H	0.624981	0.909120	0.102161
	H85	H	0.385505	0.091111	0.094123
	H86	H	0.624075	0.093128	0.903892
	H87	H	0.383795	0.903789	0.908712
	H88	H	0.904081	0.091921	0.619056
	H89	H	0.098568	0.102445	0.386341
	H90	H	0.089587	0.911493	0.616667
	H91	H	0.915490	0.908736	0.390356
	H92	H	0.097818	0.621661	0.908589
	H93	H	0.094834	0.383714	0.096436
	H94	H	0.912691	0.618977	0.094282
	H95	H	0.901789	0.380799	0.908103
	H96	H	0.414837	0.117963	0.594321
	H97	H	0.596592	0.885139	0.591858
	H98	H	0.596281	0.119866	0.411091
	H99	H	0.405029	0.882469	0.408980
	H100	H	0.594648	0.409463	0.117523
	H101	H	0.601385	0.590191	0.888169
	H102	H	0.415189	0.593768	0.117684
	H103	H	0.409511	0.396420	0.885578
	H104	H	0.121318	0.592159	0.408294
	H105	H	0.882631	0.591453	0.605288
	H106	H	0.119317	0.415382	0.593136
	H107	H	0.883222	0.403980	0.416460
	H108	H	0.907870	0.620440	0.100271
	H109	H	0.095646	0.382776	0.100012
	H110	H	0.091234	0.618380	0.909606
	H111	H	0.918229	0.383680	0.901270
	H112	H	0.098861	0.900916	0.622686
	H113	H	0.101253	0.091852	0.387659
	H114	H	0.918041	0.093809	0.615849
	H115	H	0.908301	0.899964	0.386324
	H116	H	0.623053	0.098573	0.915401
	H117	H	0.385159	0.090179	0.096919
	H118	H	0.621983	0.905318	0.090962
	H119	H	0.386773	0.911074	0.913288
	C120	C	0.383793	0.009960	0.624645
	C121	C	0.624880	0.992778	0.625595
	C122	C	0.623891	0.010463	0.381544
	C123	C	0.381979	0.992976	0.380285
	C124	C	0.625270	0.378645	0.011941
	C125	C	0.625660	0.623648	0.995253
	C126	C	0.380842	0.623437	0.012169
	C127	C	0.379879	0.377911	0.994888
	C128	C	0.011548	0.622467	0.383135
	C129	C	0.993926	0.623541	0.625805
	C130	C	0.011976	0.382544	0.625229
	C131	C	0.993389	0.381561	0.382677
	C132	C	0.882396	0.510044	0.125777
	C133	C	0.124231	0.492424	0.126736
	C134	C	0.123464	0.510645	0.882846
	C135	C	0.882004	0.493011	0.881786
	C136	C	0.125408	0.880064	0.512325
	C137	C	0.126735	0.125942	0.495226
	C138	C	0.881453	0.124680	0.511681
	C139	C	0.880953	0.879320	0.495789
	C140	C	0.512470	0.121348	0.882366
	C141	C	0.494457	0.121846	0.124648
	C142	C	0.512653	0.881021	0.123799
	C143	C	0.494644	0.879747	0.880954
	C144	C	0.382645	0.886442	0.680134
	C145	C	0.625821	0.115917	0.682693
	C146	C	0.623679	0.886802	0.325829
	C147	C	0.383170	0.116471	0.325000
	C148	C	0.680337	0.381608	0.889569
	C149	C	0.680773	0.620605	0.117866
	C150	C	0.325744	0.618984	0.889668
	C151	C	0.326444	0.382064	0.117841
	C152	C	0.886389	0.676364	0.386739
	C153	C	0.119251	0.678218	0.622302
	C154	C	0.887022	0.326664	0.622131
	C155	C	0.118743	0.327752	0.386608
	C156	C	0.887692	0.382024	0.680869
	C157	C	0.118087	0.624271	0.682317
	C158	C	0.887136	0.621497	0.327350
	C159	C	0.117981	0.382522	0.327470
	C160	C	0.383275	0.676995	0.889444
	C161	C	0.623891	0.679438	0.117191
	C162	C	0.622191	0.323705	0.889247
	C163	C	0.383180	0.322987	0.117160
	C164	C	0.678087	0.885827	0.385922
	C165	C	0.679156	0.117586	0.621635
	C166	C	0.328332	0.885598	0.619946
	C167	C	0.329074	0.117719	0.385395
	C168	C	0.881988	0.386543	0.180935
	C169	C	0.123908	0.616221	0.182235
	C170	C	0.122977	0.387220	0.826015
	C171	C	0.882135	0.616822	0.826849
	C172	C	0.178370	0.883727	0.389116
	C173	C	0.183092	0.123751	0.617330
	C174	C	0.826428	0.120745	0.389491
	C175	C	0.826602	0.883475	0.618191
	C176	C	0.386738	0.175014	0.885118
	C177	C	0.619365	0.177208	0.121562
	C178	C	0.386993	0.826917	0.119281
	C179	C	0.619533	0.824835	0.884275
	C180	C	0.388039	0.881681	0.178562
	C181	C	0.618973	0.122048	0.180471
	C182	C	0.388200	0.119913	0.826347
	C183	C	0.619183	0.880698	0.825972
	C184	C	0.883679	0.179352	0.389643
	C185	C	0.124804	0.181764	0.617689
	C186	C	0.122005	0.824429	0.389995
	C187	C	0.883697	0.824717	0.618019
	C188	C	0.176709	0.385373	0.886631
	C189	C	0.179113	0.616948	0.122441
	C190	C	0.827505	0.385706	0.121056
	C191	C	0.827437	0.617461	0.886792
	C192	C	0.407561	0.096358	0.603378
	C193	C	0.601510	0.906429	0.603337
	C194	C	0.601215	0.097175	0.403009
	C195	C	0.403914	0.905854	0.401296
	C196	C	0.603256	0.400603	0.097263
	C197	C	0.602862	0.601015	0.910062
	C198	C	0.403366	0.602340	0.097721
	C199	C	0.401730	0.399748	0.909732
	C200	C	0.098828	0.600206	0.404742
	C201	C	0.906699	0.600698	0.603823
	C202	C	0.098668	0.406170	0.603227
	C203	C	0.906378	0.403436	0.404081
	C204	C	0.905269	0.597132	0.104862
	C205	C	0.100982	0.405641	0.104791
	C206	C	0.101675	0.597198	0.904664
	C207	C	0.904988	0.406449	0.902955
	C208	C	0.104043	0.902387	0.597527
	C209	C	0.103685	0.103503	0.410216
	C210	C	0.904202	0.103057	0.596969
	C211	C	0.902725	0.900492	0.410225
	C212	C	0.599462	0.099117	0.904534
	C213	C	0.407623	0.098380	0.102180
	C214	C	0.599774	0.903743	0.102242
	C215	C	0.407740	0.902106	0.902373
	Zn216	Zn	0.503997	0.000963	0.753727
	Zn217	Zn	0.503687	0.001271	0.252449
	Zn218	Zn	0.754799	0.501173	0.003814
	Zn219	Zn	0.251540	0.501062	0.003943
	Zn220	Zn	0.003398	0.750264	0.504333
	Zn221	Zn	0.003126	0.254733	0.504195
	Zn222	Zn	0.002823	0.502669	0.753476
	Zn223	Zn	0.002504	0.501506	0.254779
	Zn224	Zn	0.503355	0.753115	0.002737
	Zn225	Zn	0.502839	0.249418	0.003319
	Zn226	Zn	0.751702	0.001971	0.503644
	Zn227	Zn	0.255134	0.002061	0.503169
	N228	N	0.416649	0.964691	0.682969
	N229	N	0.592588	0.037301	0.685036
	N230	N	0.590813	0.965287	0.322927
	N231	N	0.415333	0.037717	0.321821
	N232	N	0.682563	0.414845	0.966903
	N233	N	0.682003	0.586461	0.041067
	N234	N	0.324000	0.586522	0.966909
	N235	N	0.324359	0.415627	0.040906
	N236	N	0.964732	0.676911	0.420811
	N237	N	0.040947	0.677859	0.587907
	N238	N	0.965241	0.326920	0.588153
	N239	N	0.040451	0.327058	0.420307
	N240	N	0.966199	0.416091	0.682809
	N241	N	0.039243	0.590682	0.684463
	N242	N	0.966124	0.588729	0.324978
	N243	N	0.039101	0.415036	0.324736
	N244	N	0.416883	0.679907	0.966654
	N245	N	0.590461	0.681516	0.039943
	N246	N	0.588518	0.322085	0.966147
	N247	N	0.415812	0.320526	0.039877
	N248	N	0.678292	0.963815	0.419898
	N249	N	0.678820	0.039935	0.586912
	N250	N	0.328805	0.963499	0.586023
	N251	N	0.328288	0.039844	0.419222
	N252	N	0.915495	0.464961	0.183611
	N253	N	0.090486	0.537754	0.184846
	N254	N	0.090652	0.465920	0.823453
	N255	N	0.914978	0.538271	0.823502
	N256	N	0.180474	0.917814	0.465912
	N257	N	0.184396	0.089802	0.540425
	N258	N	0.825090	0.087427	0.466267
	N259	N	0.824802	0.916755	0.541193
	N260	N	0.465063	0.176258	0.919299
	N261	N	0.541162	0.177084	0.087398
	N262	N	0.465466	0.826299	0.085987
	N263	N	0.541243	0.824370	0.917872
	N264	N	0.466992	0.914567	0.181464
	N265	N	0.540177	0.088409	0.182436
	N266	N	0.467205	0.087545	0.824390
	N267	N	0.540584	0.914101	0.823677
	N268	N	0.917203	0.181967	0.466847
	N269	N	0.090636	0.183454	0.540764
	N270	N	0.089842	0.821994	0.467567
	N271	N	0.917038	0.822352	0.541004
	N272	N	0.177069	0.463004	0.921450
	N273	N	0.179295	0.538897	0.088498
	N274	N	0.827729	0.463551	0.087337
	N275	N	0.827473	0.539536	0.920451
	O276	O	0.478565	0.501248	0.565892
	H277	H	0.489983	0.506131	0.563676
	H278	H	0.480561	0.502733	0.563186
	O279	O	0.005131	0.029214	-0.005739
	H280	H	0.003028	0.025821	-0.007714
	H281	H	0.005415	0.023304	-0.010702
	O282	O	0.532693	0.507154	0.524481
	H283	H	0.531668	0.494672	0.528488
	H284	H	0.536867	0.513570	0.526578
	O285	O	0.460218	0.474074	0.570402
	H286	H	0.454182	0.476536	0.572269
	H287	H	0.456679	0.476051	0.571599
	O288	O	1.004651	0.028726	-0.019510
	H289	H	1.004525	0.032255	-0.011995
	H290	H	1.006836	0.037593	-0.018860
	O291	O	-0.564404	0.482011	-0.436588
	H292	H	-0.562620	0.479180	-0.437580
	H293	H	-0.571463	0.471813	-0.430662
	O294	O	0.521877	0.581516	0.560867
	H295	H	0.520393	0.576793	0.556731
	H296	H	0.518483	0.589058	0.560369
	O297	O	0.463492	1.485263	-0.484189
	H298	H	0.453939	1.493254	-0.487621
	H299	H	0.457375	1.485470	-0.491788
	O300	O	0.965209	0.018189	1.026759
	H301	H	0.967882	0.021599	1.026884
	H302	H	0.957718	0.015292	1.026797
	O303	O	0.537184	0.495618	0.566282
	H304	H	0.534141	0.498719	0.567338
	H305	H	0.534467	0.497765	0.569462
	O306	O	-0.016752	1.012552	0.992487
	H307	H	-0.019611	1.010887	0.994614
	H308	H	-0.019438	1.009913	0.986980
	O309	O	0.482093	0.502239	0.546986
	H310	H	0.484764	0.502404	0.554007
	H311	H	0.490283	0.506581	0.549691
