data_Molecule from HDF5

_cell_length_a		16.048537
_cell_length_b		16.248973
_cell_length_c		16.421321
_cell_angle_alpha	90.059602
_cell_angle_beta	90.388701
_cell_angle_gamma	88.815410
_symmetry_space_group_name_H-M	'P 1'
_symmetry_Int_Tables_number		1

loop_
	_symmetry_equiv_pos_as_xyz
	x,y,z

loop_
	_atom_site_label
	_atom_site_type_symbol
	_atom_site_fract_x
	_atom_site_fract_y
	_atom_site_fract_z
	H0	H	0.397443	0.840285	0.713113
	H1	H	0.600843	0.161926	0.716297
	H2	H	0.606867	0.841981	0.275583
	H3	H	0.388740	0.163876	0.275536
	H4	H	0.717692	0.398897	0.832544
	H5	H	0.716652	0.596092	0.156923
	H6	H	0.281505	0.604516	0.834638
	H7	H	0.289100	0.404971	0.157696
	H8	H	0.836197	0.721755	0.392133
	H9	H	0.166511	0.712663	0.592240
	H10	H	0.834264	0.296475	0.592417
	H11	H	0.164082	0.282490	0.393673
	H12	H	0.836817	0.408043	0.708874
	H13	H	0.163459	0.606244	0.714035
	H14	H	0.837474	0.610003	0.274784
	H15	H	0.165118	0.397520	0.277614
	H16	H	0.395191	0.721528	0.834803
	H17	H	0.605615	0.719387	0.155401
	H18	H	0.606675	0.279484	0.834576
	H19	H	0.405628	0.287482	0.157201
	H20	H	0.719981	0.841022	0.395797
	H21	H	0.708325	0.167036	0.594587
	H22	H	0.290438	0.837450	0.590520
	H23	H	0.279472	0.165425	0.395712
	H24	H	0.898257	0.343303	0.214730
	H25	H	0.104102	0.664859	0.214717
	H26	H	0.109637	0.342552	0.773430
	H27	H	0.892220	0.665589	0.776664
	H28	H	0.216152	0.900708	0.331497
	H29	H	0.213634	0.099233	0.657780
	H30	H	0.777305	0.107272	0.334282
	H31	H	0.788864	0.907428	0.657159
	H32	H	0.337768	0.222651	0.892788
	H33	H	0.667412	0.208481	0.094075
	H34	H	0.334933	0.788559	0.095313
	H35	H	0.664522	0.782128	0.895336
	H36	H	0.335133	0.902485	0.210757
	H37	H	0.661537	0.102707	0.215890
	H38	H	0.335193	0.105092	0.779563
	H39	H	0.663539	0.894415	0.778815
	H40	H	0.891968	0.225347	0.335004
	H41	H	0.101292	0.219424	0.655976
	H42	H	0.104066	0.781515	0.333183
	H43	H	0.898289	0.784786	0.653755
	H44	H	0.219806	0.339381	0.895633
	H45	H	0.213989	0.666382	0.095111
	H46	H	0.796871	0.336197	0.088970
	H47	H	0.777890	0.663023	0.892332
	H48	H	0.404340	0.120751	0.595080
	H49	H	0.598681	0.888529	0.570596
	H50	H	0.587405	0.118225	0.407133
	H51	H	0.410369	0.886025	0.401039
	H52	H	0.592953	0.405032	0.108820
	H53	H	0.592904	0.578049	0.883418
	H54	H	0.409561	0.599402	0.112047
	H55	H	0.416607	0.416516	0.883790
	H56	H	0.114533	0.583787	0.407275
	H57	H	0.883758	0.594285	0.585569
	H58	H	0.116608	0.412910	0.580202
	H59	H	0.883388	0.425781	0.390119
	H60	H	0.117830	0.414917	0.588457
	H61	H	0.880619	0.598566	0.587713
	H62	H	0.120796	0.590005	0.394459
	H63	H	0.878439	0.405163	0.400164
	H64	H	0.406646	0.593905	0.111425
	H65	H	0.574638	0.594777	0.884320
	H66	H	0.601881	0.398454	0.112624
	H67	H	0.414971	0.404090	0.879420
	H68	H	0.584978	0.120645	0.399273
	H69	H	0.606570	0.878616	0.596834
	H70	H	0.412378	0.116705	0.586710
	H71	H	0.409887	0.885510	0.399259
	H72	H	0.915234	0.617985	0.089356
	H73	H	0.099780	0.382860	0.094592
	H74	H	0.086015	0.623636	0.887675
	H75	H	0.915665	0.385968	0.896486
	H76	H	0.087206	0.909742	0.606555
	H77	H	0.088703	0.097519	0.378729
	H78	H	0.914987	0.098976	0.607400
	H79	H	0.908461	0.918686	0.380248
	H80	H	0.623554	0.098818	0.900020
	H81	H	0.382560	0.098484	0.082103
	H82	H	0.614064	0.913128	0.083294
	H83	H	0.379769	0.909414	0.896945
	H84	H	0.616776	0.912520	0.090653
	H85	H	0.382666	0.093233	0.084668
	H86	H	0.614209	0.085743	0.916385
	H87	H	0.382793	0.909831	0.909345
	H88	H	0.902994	0.109769	0.614815
	H89	H	0.089647	0.090603	0.379987
	H90	H	0.095146	0.899862	0.611528
	H91	H	0.915087	0.912457	0.380970
	H92	H	0.076326	0.612044	0.910653
	H93	H	0.084082	0.390070	0.087420
	H94	H	0.909083	0.616714	0.076087
	H95	H	0.915320	0.386451	0.900191
	H96	H	0.401151	0.119328	0.584014
	H97	H	0.577968	0.887976	0.592958
	H98	H	0.579405	0.117225	0.404327
	H99	H	0.412771	0.885806	0.399585
	H100	H	0.603274	0.410040	0.110085
	H101	H	0.596156	0.600263	0.874008
	H102	H	0.413540	0.594020	0.109592
	H103	H	0.405681	0.412836	0.878866
	H104	H	0.120285	0.598202	0.407212
	H105	H	0.882451	0.598571	0.581828
	H106	H	0.120370	0.406329	0.585616
	H107	H	0.887858	0.422648	0.412536
	H108	H	0.901330	0.622217	0.087670
	H109	H	0.099598	0.389035	0.077358
	H110	H	0.102738	0.621663	0.909714
	H111	H	0.911600	0.385207	0.898288
	H112	H	0.100958	0.911864	0.609566
	H113	H	0.083121	0.093152	0.381224
	H114	H	0.899034	0.092999	0.610038
	H115	H	0.907598	0.910408	0.378123
	H116	H	0.617563	0.077474	0.895091
	H117	H	0.380457	0.097833	0.086701
	H118	H	0.617545	0.906176	0.085693
	H119	H	0.383298	0.920097	0.902006
	C120	C	0.378543	0.010591	0.616160
	C121	C	0.621609	0.993179	0.617084
	C122	C	0.618834	0.011814	0.373506
	C123	C	0.377239	0.993228	0.371175
	C124	C	0.627764	0.375179	0.003754
	C125	C	0.620912	0.620965	0.986607
	C126	C	0.378343	0.625829	0.004598
	C127	C	0.382631	0.382031	0.987098
	C128	C	0.009733	0.623878	0.372191
	C129	C	0.991354	0.625256	0.615233
	C130	C	0.009358	0.384293	0.614163
	C131	C	0.991882	0.383601	0.372004
	C132	C	0.881304	0.510911	0.113691
	C133	C	0.123222	0.494803	0.116809
	C134	C	0.122035	0.511700	0.872535
	C135	C	0.879817	0.493269	0.870281
	C136	C	0.124097	0.877967	0.502426
	C137	C	0.118887	0.123014	0.486786
	C138	C	0.874528	0.129751	0.504016
	C139	C	0.880101	0.883787	0.485744
	C140	C	0.509672	0.121176	0.873703
	C141	C	0.491082	0.123459	0.115603
	C142	C	0.507920	0.881701	0.116016
	C143	C	0.490381	0.880259	0.873373
	C144	C	0.379459	0.888205	0.673143
	C145	C	0.619420	0.114182	0.676088
	C146	C	0.624074	0.890261	0.315333
	C147	C	0.372200	0.115385	0.314321
	C148	C	0.681554	0.377621	0.881482
	C149	C	0.678722	0.617901	0.108179
	C150	C	0.319715	0.625030	0.882991
	C151	C	0.327249	0.384430	0.109243
	C152	C	0.885858	0.683327	0.372269
	C153	C	0.116394	0.677543	0.613447
	C154	C	0.884317	0.332647	0.612249
	C155	C	0.114920	0.322318	0.373597
	C156	C	0.885646	0.387707	0.670617
	C157	C	0.114877	0.624143	0.673733
	C158	C	0.886331	0.627667	0.314060
	C159	C	0.115641	0.379634	0.315864
	C160	C	0.376530	0.683062	0.883104
	C161	C	0.623213	0.679061	0.107525
	C162	C	0.625784	0.318572	0.882661
	C163	C	0.385103	0.326030	0.108992
	C164	C	0.680243	0.889844	0.375126
	C165	C	0.673109	0.117041	0.615421
	C166	C	0.325966	0.886931	0.612292
	C167	C	0.317522	0.116253	0.373946
	C168	C	0.881659	0.390116	0.172989
	C169	C	0.122444	0.616354	0.175162
	C170	C	0.126398	0.390412	0.813824
	C171	C	0.875100	0.616305	0.814517
	C172	C	0.179440	0.880079	0.380386
	C173	C	0.175956	0.120218	0.608674
	C174	C	0.816280	0.127826	0.382658
	C175	C	0.825642	0.886417	0.608114
	C176	C	0.386337	0.182309	0.873731
	C177	C	0.616615	0.174189	0.114762
	C178	C	0.384247	0.826194	0.114983
	C179	C	0.614896	0.821043	0.875045
	C180	C	0.384371	0.882822	0.172490
	C181	C	0.613795	0.121319	0.175175
	C182	C	0.385214	0.123784	0.817339
	C183	C	0.614336	0.876652	0.816803
	C184	C	0.873324	0.186604	0.382962
	C185	C	0.119948	0.180244	0.607907
	C186	C	0.123474	0.820656	0.381115
	C187	C	0.880187	0.825373	0.606419
	C188	C	0.181459	0.388894	0.874625
	C189	C	0.177254	0.617434	0.115456
	C190	C	0.830522	0.386747	0.110823
	C191	C	0.817698	0.614845	0.871935
	C192	C	0.399615	0.096312	0.594819
	C193	C	0.600541	0.907244	0.593644
	C194	C	0.591639	0.096707	0.396777
	C195	C	0.403291	0.907978	0.393534
	C196	C	0.605874	0.398007	0.088684
	C197	C	0.595359	0.597726	0.902345
	C198	C	0.402867	0.602539	0.088935
	C199	C	0.405436	0.404623	0.902652
	C200	C	0.096131	0.598144	0.396078
	C201	C	0.904671	0.603744	0.591908
	C202	C	0.095845	0.405119	0.591387
	C203	C	0.905723	0.410045	0.394552
	C204	C	0.902309	0.596704	0.090878
	C205	C	0.101012	0.409207	0.093427
	C206	C	0.095888	0.596970	0.895900
	C207	C	0.906451	0.408168	0.892037
	C208	C	0.101165	0.900448	0.587092
	C209	C	0.094415	0.100450	0.401934
	C210	C	0.898606	0.107300	0.588892
	C211	C	0.903454	0.907047	0.401648
	C212	C	0.595916	0.095089	0.896985
	C213	C	0.404450	0.102600	0.091434
	C214	C	0.593956	0.904075	0.093205
	C215	C	0.404191	0.905707	0.896120
	Zn216	Zn	0.499655	0.000055	0.744911
	Zn217	Zn	0.497966	0.003282	0.243096
	Zn218	Zn	0.753159	0.499536	-0.006481
	Zn219	Zn	0.250869	0.503283	-0.004403
	Zn220	Zn	0.000511	0.751419	0.493331
	Zn221	Zn	-0.001226	0.255778	0.495387
	Zn222	Zn	0.001182	0.504323	0.742608
	Zn223	Zn	0.000714	0.504231	0.243557
	Zn224	Zn	0.499835	0.753578	-0.004833
	Zn225	Zn	0.503047	0.249869	-0.004728
	Zn226	Zn	0.749153	0.004541	0.495419
	Zn227	Zn	0.250707	0.001577	0.494191
	N228	N	0.411082	0.966196	0.675917
	N229	N	0.588226	0.035883	0.677189
	N230	N	0.586671	0.967067	0.314425
	N231	N	0.408560	0.037862	0.312474
	N232	N	0.683219	0.412152	0.957952
	N233	N	0.677399	0.582374	0.031969
	N234	N	0.320465	0.589999	0.959253
	N235	N	0.325619	0.418638	0.032562
	N236	N	0.963622	0.680943	0.407814
	N237	N	0.038600	0.678323	0.577674
	N238	N	0.962319	0.330207	0.578050
	N239	N	0.036884	0.324392	0.407716
	N240	N	0.964407	0.419134	0.671931
	N241	N	0.036043	0.592688	0.674995
	N242	N	0.964473	0.591317	0.314006
	N243	N	0.037939	0.416859	0.314674
	N244	N	0.411900	0.683849	0.959640
	N245	N	0.588244	0.681099	0.030842
	N246	N	0.593343	0.316643	0.959698
	N247	N	0.418817	0.324410	0.032239
	N248	N	0.677283	0.966568	0.410605
	N249	N	0.674728	0.040556	0.579519
	N250	N	0.325312	0.963825	0.577349
	N251	N	0.320220	0.039430	0.408694
	N252	N	0.912625	0.468336	0.174774
	N253	N	0.089622	0.538757	0.176026
	N254	N	0.090195	0.467834	0.812577
	N255	N	0.913068	0.539809	0.813324
	N256	N	0.180244	0.914808	0.456915
	N257	N	0.175394	0.085143	0.532299
	N258	N	0.816760	0.093477	0.459014
	N259	N	0.825704	0.922331	0.532378
	N260	N	0.464764	0.180837	0.908092
	N261	N	0.539238	0.175573	0.078451
	N262	N	0.462185	0.825282	0.080596
	N263	N	0.536924	0.823000	0.909525
	N264	N	0.462315	0.916671	0.173268
	N265	N	0.534501	0.090847	0.175989
	N266	N	0.463045	0.086702	0.816934
	N267	N	0.536100	0.912977	0.815688
	N268	N	0.908615	0.188013	0.459487
	N269	N	0.085492	0.182414	0.530970
	N270	N	0.090077	0.818931	0.457963
	N271	N	0.913430	0.823382	0.529420
	N272	N	0.179036	0.465496	0.910422
	N273	N	0.177683	0.540843	0.079875
	N274	N	0.830095	0.463007	0.074500
	N275	N	0.820647	0.537652	0.906106
	O276	O	0.004871	0.121537	0.004445
	H277	H	0.000441	0.122422	-0.000466
	H278	H	0.002669	0.111591	0.009759
	O279	O	0.495666	0.355892	0.441726
	H280	H	0.484832	0.358895	0.452678
	H281	H	0.498087	0.347907	0.438850
	O282	O	0.926926	0.100531	-0.030703
	H283	H	0.932467	0.093275	-0.019346
	H284	H	0.934280	0.090438	-0.029078
	O285	O	-0.108310	0.807554	0.035015
	H286	H	-0.096820	0.808914	0.038393
	H287	H	-0.123577	0.807978	0.041165
	O288	O	0.526637	0.558571	0.450837
	H289	H	0.518491	0.559281	0.460191
	H290	H	0.524768	0.560115	0.448181
	O291	O	0.584139	0.544695	0.473448
	H292	H	0.587913	0.544566	0.472352
	H293	H	0.582227	0.547484	0.454331
	O294	O	1.050263	0.929413	1.109535
	H295	H	1.040694	0.921836	1.113990
	H296	H	1.038199	0.928549	1.105604
	O297	O	0.031140	-0.036841	-0.118313
	H298	H	0.030590	-0.024150	-0.126098
	H299	H	0.032032	-0.023667	-0.106740
	O300	O	0.358817	0.537068	0.497579
	H301	H	0.371419	0.532588	0.494643
	H302	H	0.353460	0.542013	0.512040
	O303	O	-0.108879	1.019471	0.935698
	H304	H	-0.117795	1.024809	0.919994
	H305	H	-0.107534	1.017424	0.934716
	O306	O	0.482256	0.486353	0.455887
	H307	H	0.483987	0.491130	0.446990
	H308	H	0.483870	0.477692	0.454626
	O309	O	1.114987	0.077573	0.048158
	H310	H	1.114960	0.074609	0.065853
	H311	H	1.099767	0.065485	0.035839
	O312	O	-0.067380	-0.020388	0.888469
	H313	H	-0.065212	-0.014662	0.870652
	H314	H	-0.073932	-0.038234	0.887175
	O315	O	0.390915	0.556216	0.372137
	H316	H	0.382227	0.569665	0.371037
	H317	H	0.378615	0.548698	0.382679
	O318	O	0.523002	0.578775	0.639519
	H319	H	0.543065	0.565813	0.631869
	H320	H	0.527355	0.581141	0.653024
	O321	O	0.470022	0.557409	0.638170
	H322	H	0.487356	0.553523	0.642958
	H323	H	0.475493	0.555584	0.637857
	O324	O	0.504445	0.445424	0.663886
	H325	H	0.503628	0.444540	0.661494
	H326	H	0.503018	0.450601	0.661691
	O327	O	-0.004119	0.883231	1.072827
	H328	H	-0.008930	0.888387	1.069436
	H329	H	0.004226	0.890622	1.084910
	O330	O	0.444099	0.642811	0.488407
	H331	H	0.448011	0.641507	0.487117
	H332	H	0.444125	0.650315	0.491925
	O333	O	-0.081538	1.057770	1.018839
	H334	H	-0.088071	1.053414	1.017810
	H335	H	-0.061475	1.071257	1.015177
	O336	O	1.146486	0.900589	1.006340
	H337	H	1.153347	0.898256	0.996161
	H338	H	1.153280	0.896222	1.005622
	O339	O	0.443191	0.456122	0.327267
	H340	H	0.431900	0.453564	0.337610
	H341	H	0.435455	0.443224	0.326322
	O342	O	1.056115	0.139431	0.134479
	H343	H	1.068236	0.133800	0.129909
	H344	H	1.047772	0.127334	0.134688
	O345	O	0.621120	0.539509	0.359073
	H346	H	0.606161	0.553170	0.353917
	H347	H	0.610775	0.539891	0.348046
	O348	O	1.066528	1.106327	1.104818
	H349	H	1.064136	1.112999	1.109594
	H350	H	1.080791	1.103816	1.105650
	O351	O	0.914150	0.915934	0.069380
	H352	H	0.926916	0.911264	0.070038
	H353	H	0.905162	0.924654	0.067918
	O354	O	0.538670	0.463974	0.641049
	H355	H	0.542079	0.455845	0.643153
	H356	H	0.542931	0.448663	0.639569
	O357	O	0.631171	0.382717	0.405781
	H358	H	0.623586	0.392212	0.391204
	H359	H	0.633098	0.379878	0.399954
	O360	O	0.091338	-0.017730	0.079423
	H361	H	0.089625	-0.025429	0.081546
	H362	H	0.075935	-0.002748	0.075877
	O363	O	0.535674	0.531855	0.523654
	H364	H	0.547051	0.525179	0.535075
	H365	H	0.526968	0.526134	0.522294
	O366	O	0.046878	-0.182990	0.806125
	H367	H	0.069702	-0.181803	0.808709
	H368	H	0.042114	-0.194451	0.786219
	O369	O	0.575542	0.562182	0.485710
	H370	H	0.581884	0.582742	0.485666
	H371	H	0.578409	0.563286	0.474316
	O372	O	0.320931	0.569972	0.555401
	H373	H	0.311196	0.573000	0.562692
	H374	H	0.316622	0.582251	0.571613
	O375	O	0.549591	0.541860	0.374973
	H376	H	0.539321	0.551717	0.368344
	H377	H	0.545619	0.535418	0.367859
	O378	O	0.474219	0.425336	0.553730
	H379	H	0.456159	0.424098	0.552894
	H380	H	0.477901	0.433279	0.566808
	O381	O	0.460638	0.331813	0.542423
	H382	H	0.447668	0.332832	0.550994
	H383	H	0.485218	0.314584	0.558265
	O384	O	0.017438	0.968131	-0.062889
	H385	H	0.013131	0.959754	-0.080171
	H386	H	0.010000	0.963237	-0.057573
	O387	O	1.070978	-0.038361	1.091430
	H388	H	1.065878	-0.041492	1.087456
	H389	H	1.072146	-0.045131	1.099875
	O390	O	-0.085962	0.943198	-0.098752
	H391	H	-0.088780	0.943028	-0.099609
	H392	H	-0.086215	0.941286	-0.098479
	O393	O	1.089324	0.973701	-0.075962
	H394	H	1.083236	0.987295	-0.063158
	H395	H	1.094586	0.982640	-0.076476
	O396	O	0.774303	0.235045	0.721840
	H397	H	0.777186	0.231905	0.719762
	H398	H	0.766681	0.232113	0.718858
	O399	O	-0.156467	1.118563	1.001259
	H400	H	-0.156324	1.119558	0.992238
	H401	H	-0.135900	1.131677	1.022374
	O402	O	0.958799	1.208584	0.856539
	H403	H	0.963232	1.221777	0.853759
	H404	H	0.956374	1.213831	0.871800
	O405	O	0.509714	0.399262	0.457036
	H406	H	0.509114	0.396892	0.451417
	H407	H	0.504564	0.390495	0.452788
