data_Molecule from HDF5

_cell_length_a		16.415340
_cell_length_b		16.320579
_cell_length_c		16.228005
_cell_angle_alpha	89.690571
_cell_angle_beta	89.953095
_cell_angle_gamma	89.707003
_symmetry_space_group_name_H-M	'P 1'
_symmetry_Int_Tables_number		1

loop_
	_symmetry_equiv_pos_as_xyz
	x,y,z

loop_
	_atom_site_label
	_atom_site_type_symbol
	_atom_site_fract_x
	_atom_site_fract_y
	_atom_site_fract_z
	H0	H	0.387235	0.839207	0.722019
	H1	H	0.589929	0.161550	0.717146
	H2	H	0.591236	0.837272	0.285217
	H3	H	0.390021	0.162203	0.285125
	H4	H	0.708873	0.393787	0.842282
	H5	H	0.706332	0.602703	0.162665
	H6	H	0.267153	0.607409	0.840852
	H7	H	0.269116	0.396400	0.162615
	H8	H	0.828400	0.722231	0.396106
	H9	H	0.147669	0.718489	0.605974
	H10	H	0.828761	0.280535	0.604821
	H11	H	0.149657	0.280684	0.399474
	H12	H	0.828815	0.394112	0.721439
	H13	H	0.147827	0.601106	0.720807
	H14	H	0.827065	0.603992	0.282308
	H15	H	0.150086	0.400036	0.284124
	H16	H	0.383906	0.720567	0.839736
	H17	H	0.589777	0.716587	0.163685
	H18	H	0.591116	0.283236	0.840109
	H19	H	0.384701	0.279785	0.162334
	H20	H	0.710642	0.839483	0.396362
	H21	H	0.707459	0.159308	0.603714
	H22	H	0.268260	0.839956	0.608529
	H23	H	0.268923	0.160736	0.397534
	H24	H	0.888520	0.338310	0.219575
	H25	H	0.089201	0.661958	0.218664
	H26	H	0.092432	0.337850	0.784477
	H27	H	0.880782	0.657745	0.778190
	H28	H	0.209550	0.896528	0.341237
	H29	H	0.209677	0.106879	0.661648
	H30	H	0.770065	0.105760	0.340330
	H31	H	0.769118	0.893629	0.661914
	H32	H	0.329952	0.221336	0.896327
	H33	H	0.648587	0.217970	0.103886
	H34	H	0.328920	0.780149	0.107041
	H35	H	0.648276	0.777930	0.896573
	H36	H	0.328550	0.897141	0.221581
	H37	H	0.650234	0.099616	0.218039
	H38	H	0.329739	0.106549	0.780097
	H39	H	0.650026	0.896962	0.782719
	H40	H	0.887324	0.219633	0.340063
	H41	H	0.090744	0.216209	0.663911
	H42	H	0.093562	0.781810	0.340181
	H43	H	0.881763	0.777899	0.661583
	H44	H	0.211956	0.341403	0.895160
	H45	H	0.209092	0.659462	0.107553
	H46	H	0.769757	0.339097	0.107309
	H47	H	0.764723	0.657801	0.893153
	H48	H	0.391850	0.117390	0.591266
	H49	H	0.582021	0.882071	0.597477
	H50	H	0.582818	0.115141	0.410254
	H51	H	0.400455	0.887165	0.419627
	H52	H	0.586644	0.411499	0.118886
	H53	H	0.579273	0.581952	0.888104
	H54	H	0.391656	0.596151	0.120537
	H55	H	0.404522	0.413657	0.888219
	H56	H	0.100945	0.590986	0.413525
	H57	H	0.876104	0.584547	0.590065
	H58	H	0.102167	0.409280	0.590983
	H59	H	0.876270	0.412407	0.410864
	H60	H	0.103596	0.407628	0.595795
	H61	H	0.873851	0.590014	0.590263
	H62	H	0.101931	0.587999	0.407762
	H63	H	0.873654	0.407471	0.408253
	H64	H	0.394250	0.580499	0.115143
	H65	H	0.570737	0.590249	0.888344
	H66	H	0.572408	0.415282	0.113693
	H67	H	0.398157	0.407399	0.884080
	H68	H	0.580098	0.115317	0.407893
	H69	H	0.572197	0.887688	0.590472
	H70	H	0.403806	0.114003	0.593535
	H71	H	0.391314	0.882799	0.411420
	H72	H	0.901609	0.611902	0.086491
	H73	H	0.077145	0.385333	0.095581
	H74	H	0.077560	0.611014	0.920977
	H75	H	0.901651	0.382252	0.900611
	H76	H	0.073219	0.913214	0.613879
	H77	H	0.076187	0.099970	0.384254
	H78	H	0.890771	0.085589	0.618145
	H79	H	0.898450	0.911581	0.386028
	H80	H	0.604822	0.090926	0.906583
	H81	H	0.377148	0.088094	0.087128
	H82	H	0.601179	0.913700	0.090129
	H83	H	0.377856	0.917867	0.914094
	H84	H	0.604820	0.905914	0.097658
	H85	H	0.374614	0.087276	0.095010
	H86	H	0.604094	0.094693	0.912293
	H87	H	0.374026	0.910153	0.906726
	H88	H	0.902965	0.085529	0.614274
	H89	H	0.089010	0.084982	0.384928
	H90	H	0.076969	0.903816	0.618556
	H91	H	0.900590	0.914035	0.387784
	H92	H	0.082430	0.617488	0.907587
	H93	H	0.077200	0.386936	0.087426
	H94	H	0.888722	0.615549	0.086389
	H95	H	0.907638	0.391005	0.923217
	H96	H	0.399260	0.111997	0.582493
	H97	H	0.583979	0.884830	0.585354
	H98	H	0.579280	0.113942	0.410843
	H99	H	0.404005	0.884634	0.406756
	H100	H	0.574801	0.400889	0.120030
	H101	H	0.581428	0.592929	0.884112
	H102	H	0.406916	0.591363	0.113810
	H103	H	0.394901	0.416776	0.886981
	H104	H	0.104193	0.593951	0.407991
	H105	H	0.875973	0.588496	0.584893
	H106	H	0.103824	0.403768	0.592098
	H107	H	0.875375	0.407301	0.414572
	H108	H	0.896107	0.616837	0.096897
	H109	H	0.084299	0.384387	0.090967
	H110	H	0.067964	0.612312	0.908494
	H111	H	0.884476	0.381389	0.918827
	H112	H	0.083779	0.912576	0.618179
	H113	H	0.070337	0.082196	0.391412
	H114	H	0.897291	0.096396	0.619548
	H115	H	0.901584	0.910990	0.386667
	H116	H	0.602004	0.088117	0.911891
	H117	H	0.373518	0.094250	0.091559
	H118	H	0.602353	0.902729	0.086936
	H119	H	0.376603	0.906931	0.917519
	C120	C	0.367230	0.008581	0.622685
	C121	C	0.610060	0.990847	0.621767
	C122	C	0.611782	0.008266	0.379026
	C123	C	0.367551	0.991078	0.380581
	C124	C	0.609369	0.378069	0.010929
	C125	C	0.608567	0.619752	0.993011
	C126	C	0.365788	0.622231	0.009966
	C127	C	0.367359	0.379717	0.992942
	C128	C	-0.003417	0.622932	0.378446
	C129	C	0.980062	0.619529	0.621545
	C130	C	-0.002379	0.376154	0.623977
	C131	C	0.981198	0.378320	0.380180
	C132	C	0.865849	0.508553	0.122569
	C133	C	0.109934	0.491832	0.122551
	C134	C	0.109147	0.508088	0.880680
	C135	C	0.865441	0.490059	0.880080
	C136	C	0.109926	0.878931	0.510144
	C137	C	0.109570	0.120497	0.493258
	C138	C	0.866847	0.121222	0.510434
	C139	C	0.867942	0.879141	0.492733
	C140	C	0.497840	0.122762	0.878793
	C141	C	0.480397	0.121018	0.122458
	C142	C	0.497129	0.876879	0.123651
	C143	C	0.481202	0.878847	0.880060
	C144	C	0.367347	0.887587	0.682580
	C145	C	0.609366	0.112739	0.678586
	C146	C	0.611296	0.886104	0.322775
	C147	C	0.369038	0.113272	0.323086
	C148	C	0.668840	0.376189	0.889937
	C149	C	0.667167	0.621370	0.114436
	C150	C	0.306727	0.624955	0.888912
	C151	C	0.308487	0.377652	0.114237
	C152	C	0.876232	0.682230	0.377393
	C153	C	0.100053	0.678464	0.623899
	C154	C	0.876853	0.318995	0.624037
	C155	C	0.101864	0.320333	0.380026
	C156	C	0.876864	0.375652	0.682167
	C157	C	0.099900	0.620256	0.681436
	C158	C	0.875801	0.623663	0.320408
	C159	C	0.101967	0.379566	0.322682
	C160	C	0.364735	0.681599	0.888413
	C161	C	0.608974	0.677877	0.114831
	C162	C	0.610171	0.321041	0.888928
	C163	C	0.365930	0.319541	0.113969
	C164	C	0.670775	0.887336	0.378243
	C165	C	0.667984	0.111784	0.622374
	C166	C	0.308520	0.887687	0.625832
	C167	C	0.309139	0.112643	0.379171
	C168	C	0.867796	0.386993	0.181072
	C169	C	0.108949	0.613270	0.180025
	C170	C	0.111345	0.387102	0.822634
	C171	C	0.862852	0.609782	0.818257
	C172	C	0.169852	0.877747	0.389452
	C173	C	0.169436	0.123627	0.614019
	C174	C	0.808912	0.123849	0.388829
	C175	C	0.808229	0.875878	0.613598
	C176	C	0.377851	0.182177	0.877304
	C177	C	0.600877	0.178847	0.123003
	C178	C	0.376825	0.819111	0.125494
	C179	C	0.600868	0.818238	0.878284
	C180	C	0.376768	0.877479	0.182678
	C181	C	0.601748	0.119713	0.179530
	C182	C	0.377848	0.124840	0.819514
	C183	C	0.601655	0.877561	0.821386
	C184	C	0.867197	0.180523	0.388604
	C185	C	0.109998	0.178208	0.615051
	C186	C	0.111987	0.820488	0.388929
	C187	C	0.864442	0.818004	0.613423
	C188	C	0.170987	0.388682	0.877769
	C189	C	0.168750	0.612160	0.124829
	C190	C	0.809051	0.387149	0.124761
	C191	C	0.804721	0.609728	0.875660
	C192	C	0.391286	0.092490	0.596691
	C193	C	0.586328	0.906741	0.597897
	C194	C	0.587863	0.092663	0.402750
	C195	C	0.391516	0.906725	0.405353
	C196	C	0.584941	0.402388	0.095376
	C197	C	0.584352	0.595335	0.908723
	C198	C	0.390443	0.596677	0.094449
	C199	C	0.391958	0.405284	0.908370
	C200	C	0.080552	0.598221	0.402812
	C201	C	0.896824	0.595106	0.595876
	C202	C	0.081514	0.399871	0.599868
	C203	C	0.896897	0.402168	0.404217
	C204	C	0.888877	0.592842	0.097244
	C205	C	0.086470	0.407561	0.098263
	C206	C	0.083576	0.591720	0.905356
	C207	C	0.890705	0.406513	0.906626
	C208	C	0.085060	0.902908	0.594716
	C209	C	0.085240	0.096184	0.408664
	C210	C	0.890317	0.096278	0.595235
	C211	C	0.893212	0.904800	0.408773
	C212	C	0.581859	0.098164	0.903218
	C213	C	0.396910	0.097054	0.098201
	C214	C	0.581084	0.900476	0.098718
	C215	C	0.397766	0.904365	0.905333
	Zn216	Zn	0.489518	0.000559	0.750824
	Zn217	Zn	0.489681	-0.000829	0.251556
	Zn218	Zn	0.737074	0.498640	0.002045
	Zn219	Zn	0.238383	0.500616	0.001449
	Zn220	Zn	-0.011750	0.750782	0.501406
	Zn221	Zn	-0.010752	0.248052	0.502049
	Zn222	Zn	-0.012137	0.498275	0.752049
	Zn223	Zn	-0.012138	0.500362	0.250057
	Zn224	Zn	0.488015	0.749051	0.001333
	Zn225	Zn	0.489022	0.250763	0.001082
	Zn226	Zn	0.739074	-0.000576	0.501406
	Zn227	Zn	0.238383	0.000164	0.502365
	N228	N	0.403052	0.963536	0.680721
	N229	N	0.574005	0.036655	0.678382
	N230	N	0.575301	0.962277	0.323127
	N231	N	0.404607	0.036828	0.323868
	N232	N	0.668524	0.411034	0.966829
	N233	N	0.667151	0.585956	0.037734
	N234	N	0.307083	0.589080	0.965764
	N235	N	0.309271	0.414140	0.037919
	N236	N	0.952552	0.682226	0.412287
	N237	N	0.024357	0.678504	0.587626
	N238	N	0.952972	0.318902	0.588837
	N239	N	0.025573	0.319302	0.414684
	N240	N	0.952987	0.410419	0.682405
	N241	N	0.024258	0.584402	0.680087
	N242	N	0.951688	0.587682	0.320721
	N243	N	0.025757	0.414826	0.322725
	N244	N	0.400645	0.680104	0.964873
	N245	N	0.573350	0.677249	0.038278
	N246	N	0.573897	0.322141	0.965131
	N247	N	0.401686	0.320748	0.037374
	N248	N	0.671338	0.964302	0.412201
	N249	N	0.668592	0.035059	0.587831
	N250	N	0.308228	0.964015	0.589513
	N251	N	0.307745	0.035516	0.413926
	N252	N	0.902173	0.463484	0.180018
	N253	N	0.073139	0.537334	0.178929
	N254	N	0.073319	0.462352	0.824327
	N255	N	0.900042	0.534262	0.821038
	N256	N	0.168575	0.913301	0.465924
	N257	N	0.169170	0.088328	0.537385
	N258	N	0.808428	0.087916	0.465668
	N259	N	0.810207	0.913172	0.537482
	N260	N	0.453617	0.181222	0.913321
	N261	N	0.524554	0.179853	0.088235
	N262	N	0.452733	0.818506	0.089644
	N263	N	0.524782	0.819004	0.914065
	N264	N	0.452785	0.912385	0.181740
	N265	N	0.525896	0.084592	0.179518
	N266	N	0.453643	0.088621	0.820225
	N267	N	0.526314	0.914459	0.822493
	N268	N	0.902306	0.179230	0.465224
	N269	N	0.073364	0.176385	0.538952
	N270	N	0.075513	0.821089	0.465117
	N271	N	0.900858	0.819561	0.537144
	N272	N	0.169746	0.464894	0.913246
	N273	N	0.169341	0.535650	0.089776
	N274	N	0.807392	0.463995	0.089414
	N275	N	0.806019	0.534109	0.913213
	O276	O	0.536831	0.358120	0.612858
	H277	H	0.523485	0.365028	0.626311
	H278	H	0.548073	0.350285	0.618962
	O279	O	1.004854	0.894761	0.124202
	H280	H	0.997150	0.907797	0.106204
	H281	H	0.997245	0.884152	0.148710
	O282	O	0.573214	0.455316	0.633343
	H283	H	0.575673	0.463622	0.641296
	H284	H	0.570513	0.459017	0.634572
	O285	O	1.190076	0.128614	0.202109
	H286	H	1.206133	0.134741	0.207539
	H287	H	1.180261	0.110924	0.203357
	O288	O	-0.037943	-0.139607	1.205190
	H289	H	-0.057916	-0.135562	1.200539
	H290	H	-0.053257	-0.150196	1.226655
	O291	O	0.673274	0.604250	0.623722
	H292	H	0.668397	0.626657	0.622112
	H293	H	0.693252	0.598880	0.640716
	O294	O	0.556672	0.642361	0.522521
	H295	H	0.561359	0.631965	0.513016
	H296	H	0.567369	0.643283	0.545330
	O297	O	1.018792	1.049423	0.798229
	H298	H	1.018332	1.013578	0.794288
	H299	H	1.025980	1.039512	0.799655
	O300	O	-0.131408	-0.197872	-0.025929
	H301	H	-0.134315	-0.186927	-0.033514
	H302	H	-0.126017	-0.199730	-0.026312
	O303	O	0.403922	0.584718	0.336439
	H304	H	0.405156	0.594644	0.326029
	H305	H	0.414981	0.593409	0.325664
	O306	O	1.168049	-0.157656	-0.184586
	H307	H	1.145577	-0.147913	-0.172781
	H308	H	1.181924	-0.152967	-0.160456
	O309	O	0.564849	0.645155	0.676527
	H310	H	0.544961	0.655632	0.688385
	H311	H	0.573935	0.654082	0.642055
	O312	O	0.817006	0.860761	0.049818
	H313	H	0.818413	0.872324	0.065742
	H314	H	0.799243	0.841728	0.040289
	O315	O	0.376984	0.357525	0.668910
	H316	H	0.369243	0.370213	0.660870
	H317	H	0.360807	0.356840	0.678235
	O318	O	0.305606	0.564925	0.546037
	H319	H	0.320368	0.566440	0.526160
	H320	H	0.291615	0.577116	0.541223
	O321	O	1.098770	0.034556	0.843187
	H322	H	1.113768	0.029871	0.844091
	H323	H	1.103549	0.029197	0.836796
	O324	O	0.099755	-0.020188	0.926074
	H325	H	0.097993	-0.019752	0.928678
	H326	H	0.111528	-0.015539	0.922798
	O327	O	0.452178	0.414345	0.317192
	H328	H	0.448156	0.406583	0.316768
	H329	H	0.456647	0.398673	0.307684
	O330	O	0.406645	0.487302	0.663194
	H331	H	0.392822	0.480746	0.661120
	H332	H	0.403987	0.516557	0.668366
	O333	O	0.991348	1.198215	0.965028
	H334	H	1.003053	1.191653	0.958005
	H335	H	1.002315	1.205774	0.956994
	O336	O	0.431785	0.496418	0.672874
	H337	H	0.437629	0.498138	0.675765
	H338	H	0.429752	0.509413	0.665185
	O339	O	1.189634	0.136651	1.020021
	H340	H	1.180242	0.128851	1.041504
	H341	H	1.194365	0.147546	1.017748
	O342	O	0.011295	0.789382	0.793714
	H343	H	0.030119	0.800611	0.800482
	H344	H	0.009673	0.763766	0.771929
	O345	O	0.490636	0.530437	0.354183
	H346	H	0.486744	0.522448	0.337729
	H347	H	0.483636	0.524697	0.360643
	O348	O	0.601697	0.314808	0.371122
	H349	H	0.608142	0.325117	0.396569
	H350	H	0.617067	0.293018	0.366664
	O351	O	0.005849	0.199037	0.180460
	H352	H	0.007948	0.210739	0.185248
	H353	H	0.028061	0.192871	0.174997
	O354	O	0.879627	0.888274	0.123595
	H355	H	0.885324	0.904269	0.134514
	H356	H	0.880535	0.880111	0.117329
	O357	O	-0.124229	1.164246	-0.104474
	H358	H	-0.124117	1.173053	-0.104918
	H359	H	-0.115983	1.159039	-0.102714
	O360	O	0.527242	0.308447	0.396675
	H361	H	0.541954	0.300726	0.418658
	H362	H	0.509993	0.300511	0.388791
	O363	O	0.514544	0.468659	0.493828
	H364	H	0.515878	0.457702	0.497640
	H365	H	0.508225	0.448599	0.484853
	O366	O	0.326477	0.486248	0.360158
	H367	H	0.333694	0.479286	0.369698
	H368	H	0.325906	0.493549	0.372520
	O369	O	0.509077	0.526596	0.540086
	H370	H	0.513460	0.531514	0.529011
	H371	H	0.503204	0.520994	0.552605
	O372	O	0.342651	0.694119	0.458883
	H373	H	0.329256	0.703933	0.456283
	H374	H	0.354458	0.687395	0.439636
	O375	O	0.440608	0.683837	0.378179
	H376	H	0.450478	0.676689	0.375960
	H377	H	0.474350	0.671196	0.363760
	O378	O	0.562397	0.587712	0.383936
	H379	H	0.580923	0.570176	0.382000
	H380	H	0.554798	0.580864	0.398830
	O381	O	0.411793	0.514854	0.653144
	H382	H	0.408707	0.532427	0.648393
	H383	H	0.405347	0.521936	0.658177
	O384	O	-0.207920	0.984607	0.919899
	H385	H	-0.191128	0.977341	0.928377
	H386	H	-0.217564	0.968466	0.929150
	O387	O	1.156596	0.924823	0.026229
	H388	H	1.149836	0.916354	0.040477
	H389	H	1.155448	0.928707	0.037025
	O390	O	0.613840	0.376851	0.394909
	H391	H	0.621302	0.365735	0.403608
	H392	H	0.617256	0.393124	0.398061
	O393	O	0.946160	0.023678	1.027110
	H394	H	0.955875	0.032011	1.035233
	H395	H	0.939109	0.025758	1.032947
	O396	O	0.115179	0.806466	0.992967
	H397	H	0.110662	0.815867	1.006458
	H398	H	0.112897	0.803111	0.981917
	O399	O	0.682224	0.515704	0.320482
	H400	H	0.694341	0.503405	0.331413
	H401	H	0.674575	0.491643	0.310097
	O402	O	1.111127	0.178231	1.009174
	H403	H	1.128448	0.184967	1.009407
	H404	H	1.107543	0.165143	0.994935
	O405	O	-0.116393	-0.002585	-0.118037
	H406	H	-0.112857	-0.021944	-0.126569
	H407	H	-0.101122	0.005039	-0.114278
	O408	O	0.818905	1.040667	1.147620
	H409	H	0.815276	1.053332	1.129559
	H410	H	0.856048	1.033413	1.163153
	O411	O	0.802205	0.989921	0.105616
	H412	H	0.814172	0.995651	0.110657
	H413	H	0.796431	0.992339	0.070550
	O414	O	-0.074687	0.080139	0.820017
	H415	H	-0.095271	0.076990	0.821282
	H416	H	-0.082626	0.096207	0.817277
	O417	O	0.948467	-0.017333	1.012147
	H418	H	0.923207	-0.015169	1.001600
	H419	H	0.945221	-0.035116	1.024544
	O420	O	0.124888	1.044026	0.108239
	H421	H	0.107435	1.029531	0.116051
	H422	H	0.135437	1.038183	0.102131
	O423	O	1.481365	0.538103	-0.437635
	H424	H	1.485065	0.533010	-0.439852
	H425	H	1.482108	0.543755	-0.433724
	O426	O	-0.041245	0.069689	1.136194
	H427	H	-0.037106	0.073588	1.140774
	H428	H	-0.026258	0.058551	1.124788
	O429	O	0.538745	0.337109	0.491038
	H430	H	0.526177	0.336104	0.486775
	H431	H	0.532438	0.336283	0.514269
