data_Molecule from HDF5

_cell_length_a		16.304945
_cell_length_b		16.259467
_cell_length_c		16.142404
_cell_angle_alpha	89.944525
_cell_angle_beta	90.035013
_cell_angle_gamma	89.908571
_symmetry_space_group_name_H-M	'P 1'
_symmetry_Int_Tables_number		1

loop_
	_symmetry_equiv_pos_as_xyz
	x,y,z

loop_
	_atom_site_label
	_atom_site_type_symbol
	_atom_site_fract_x
	_atom_site_fract_y
	_atom_site_fract_z
	H0	H	0.403494	0.836435	0.710648
	H1	H	0.595208	0.166083	0.712391
	H2	H	0.594447	0.835890	0.288110
	H3	H	0.402612	0.166537	0.286233
	H4	H	0.713240	0.402583	0.833915
	H5	H	0.712750	0.599253	0.163929
	H6	H	0.286692	0.599208	0.834497
	H7	H	0.286894	0.403719	0.164691
	H8	H	0.836873	0.719239	0.398056
	H9	H	0.163301	0.716598	0.599084
	H10	H	0.835711	0.287210	0.599558
	H11	H	0.163094	0.287029	0.401595
	H12	H	0.835839	0.404507	0.714102
	H13	H	0.163991	0.598260	0.712728
	H14	H	0.836030	0.600224	0.285247
	H15	H	0.164550	0.405191	0.287375
	H16	H	0.401598	0.714320	0.833853
	H17	H	0.596952	0.714107	0.164983
	H18	H	0.596517	0.288131	0.833786
	H19	H	0.402052	0.288435	0.164848
	H20	H	0.715173	0.837940	0.399292
	H21	H	0.713682	0.164883	0.599363
	H22	H	0.285267	0.838013	0.597144
	H23	H	0.285047	0.166465	0.400949
	H24	H	0.903402	0.337038	0.212022
	H25	H	0.095893	0.666994	0.211676
	H26	H	0.096430	0.337491	0.787443
	H27	H	0.902018	0.666523	0.786697
	H28	H	0.212011	0.903926	0.334404
	H29	H	0.212666	0.099897	0.664127
	H30	H	0.785752	0.100846	0.334724
	H31	H	0.785244	0.903274	0.664735
	H32	H	0.334854	0.215980	0.899802
	H33	H	0.663153	0.215143	0.098186
	H34	H	0.335847	0.787492	0.097684
	H35	H	0.662928	0.787290	0.900570
	H36	H	0.334583	0.905584	0.211424
	H37	H	0.663339	0.097559	0.212847
	H38	H	0.334247	0.096877	0.787363
	H39	H	0.663046	0.904419	0.786424
	H40	H	0.901278	0.215668	0.334724
	H41	H	0.096701	0.214025	0.665048
	H42	H	0.095392	0.789985	0.334332
	H43	H	0.901252	0.789040	0.664926
	H44	H	0.215238	0.338594	0.900302
	H45	H	0.215315	0.665125	0.100482
	H46	H	0.785797	0.338508	0.098709
	H47	H	0.783784	0.665097	0.899438
	H48	H	0.400226	0.121032	0.595284
	H49	H	0.585905	0.885945	0.594908
	H50	H	0.579834	0.113879	0.407581
	H51	H	0.404002	0.883705	0.403471
	H52	H	0.594727	0.400755	0.119957
	H53	H	0.591587	0.599316	0.879904
	H54	H	0.412346	0.599140	0.117235
	H55	H	0.408546	0.399848	0.879397
	H56	H	0.117643	0.603058	0.410140
	H57	H	0.886186	0.584909	0.594220
	H58	H	0.115922	0.408357	0.592062
	H59	H	0.885502	0.411007	0.411676
	H60	H	0.116136	0.408056	0.595256
	H61	H	0.878649	0.601989	0.601854
	H62	H	0.113608	0.589881	0.410561
	H63	H	0.882310	0.411928	0.400055
	H64	H	0.400687	0.596823	0.119768
	H65	H	0.597018	0.593051	0.880117
	H66	H	0.599300	0.412316	0.117220
	H67	H	0.398186	0.412934	0.880166
	H68	H	0.600616	0.117403	0.416799
	H69	H	0.595849	0.886129	0.585234
	H70	H	0.408602	0.118658	0.595182
	H71	H	0.405695	0.884919	0.406184
	H72	H	0.907314	0.619856	0.096432
	H73	H	0.096028	0.383147	0.097750
	H74	H	0.095095	0.618024	0.912758
	H75	H	0.905733	0.382389	0.899577
	H76	H	0.093257	0.901313	0.620281
	H77	H	0.096104	0.097771	0.378666
	H78	H	0.899019	0.090986	0.618500
	H79	H	0.916651	0.912267	0.385541
	H80	H	0.617286	0.103143	0.907179
	H81	H	0.383177	0.101488	0.084582
	H82	H	0.617079	0.908628	0.096975
	H83	H	0.383199	0.916275	0.901136
	H84	H	0.616946	0.903133	0.091073
	H85	H	0.385380	0.086526	0.092313
	H86	H	0.612888	0.091170	0.912440
	H87	H	0.377550	0.898493	0.898764
	H88	H	0.912182	0.091062	0.614304
	H89	H	0.092849	0.090647	0.382787
	H90	H	0.099399	0.913208	0.618941
	H91	H	0.904533	0.899917	0.378643
	H92	H	0.098161	0.621645	0.903695
	H93	H	0.088939	0.387272	0.091950
	H94	H	0.906804	0.617827	0.088139
	H95	H	0.913922	0.388403	0.910243
	H96	H	0.404124	0.117854	0.588066
	H97	H	0.598624	0.880460	0.598042
	H98	H	0.597135	0.123073	0.394109
	H99	H	0.401398	0.884329	0.406512
	H100	H	0.587205	0.409844	0.115044
	H101	H	0.588736	0.591569	0.883504
	H102	H	0.407865	0.588002	0.115651
	H103	H	0.413946	0.414536	0.885639
	H104	H	0.118354	0.595237	0.398319
	H105	H	0.884212	0.600927	0.582391
	H106	H	0.117213	0.404920	0.592891
	H107	H	0.881042	0.402272	0.406296
	H108	H	0.900333	0.620912	0.092866
	H109	H	0.097381	0.384759	0.088628
	H110	H	0.088931	0.619104	0.904751
	H111	H	0.900103	0.384856	0.912794
	H112	H	0.086602	0.911707	0.614996
	H113	H	0.088864	0.097847	0.381673
	H114	H	0.906009	0.102353	0.620386
	H115	H	0.898043	0.917840	0.382089
	H116	H	0.616644	0.091474	0.898855
	H117	H	0.378775	0.099887	0.100434
	H118	H	0.613737	0.910343	0.090428
	H119	H	0.383884	0.903918	0.915596
	C120	C	0.376939	0.010373	0.620795
	C121	C	0.620941	0.992634	0.621144
	C122	C	0.620842	0.009544	0.378039
	C123	C	0.376658	0.993434	0.377411
	C124	C	0.621522	0.379658	0.007914
	C125	C	0.620410	0.622592	0.990490
	C126	C	0.378413	0.622936	0.008295
	C127	C	0.378779	0.380626	0.991089
	C128	C	0.008221	0.624068	0.377913
	C129	C	0.991312	0.624089	0.621228
	C130	C	0.008060	0.379436	0.622239
	C131	C	0.991392	0.380092	0.377923
	C132	C	0.877616	0.510848	0.121445
	C133	C	0.121841	0.493516	0.121442
	C134	C	0.121832	0.510882	0.878553
	C135	C	0.878002	0.493454	0.878402
	C136	C	0.120561	0.880774	0.508530
	C137	C	0.120570	0.123101	0.490450
	C138	C	0.877487	0.123610	0.508556
	C139	C	0.877960	0.881201	0.491452
	C140	C	0.507087	0.123185	0.877393
	C141	C	0.490788	0.123569	0.121170
	C142	C	0.507430	0.879813	0.120677
	C143	C	0.490453	0.878923	0.877288
	C144	C	0.382066	0.885964	0.673654
	C145	C	0.616547	0.116891	0.675251
	C146	C	0.616486	0.885204	0.324541
	C147	C	0.381272	0.117432	0.323661
	C148	C	0.675801	0.382238	0.883320
	C149	C	0.674837	0.619717	0.115047
	C150	C	0.323735	0.620341	0.883742
	C151	C	0.324358	0.382939	0.115408
	C152	C	0.885431	0.680186	0.379117
	C153	C	0.114467	0.678754	0.619307
	C154	C	0.884760	0.325055	0.619595
	C155	C	0.114328	0.324760	0.380725
	C156	C	0.884653	0.383525	0.676543
	C157	C	0.114838	0.620062	0.675838
	C158	C	0.884794	0.621122	0.323000
	C159	C	0.115051	0.383480	0.323930
	C160	C	0.381570	0.676989	0.883469
	C161	C	0.617476	0.676679	0.115372
	C162	C	0.617801	0.325360	0.883188
	C163	C	0.381906	0.326181	0.115553
	C164	C	0.676346	0.886398	0.379983
	C165	C	0.675314	0.116308	0.619108
	C166	C	0.323217	0.886664	0.617417
	C167	C	0.322650	0.117222	0.380357
	C168	C	0.882030	0.386568	0.175296
	C169	C	0.117525	0.617577	0.175004
	C170	C	0.117743	0.386785	0.824577
	C171	C	0.881095	0.617337	0.823997
	C172	C	0.174463	0.883660	0.383698
	C173	C	0.174842	0.120094	0.615089
	C174	C	0.822795	0.121027	0.384163
	C175	C	0.822988	0.883142	0.615404
	C176	C	0.384021	0.178306	0.879617
	C177	C	0.614183	0.177677	0.118625
	C178	C	0.384603	0.825308	0.118197
	C179	C	0.614112	0.825156	0.880635
	C180	C	0.383730	0.884378	0.174332
	C181	C	0.614256	0.119356	0.175622
	C182	C	0.383502	0.119016	0.823636
	C183	C	0.614248	0.883329	0.823736
	C184	C	0.880277	0.178053	0.383993
	C185	C	0.117336	0.176892	0.615449
	C186	C	0.116587	0.827138	0.383743
	C187	C	0.880507	0.826188	0.615480
	C188	C	0.176754	0.387294	0.880761
	C189	C	0.176893	0.616713	0.119812
	C190	C	0.823329	0.387235	0.119033
	C191	C	0.822176	0.616590	0.879741
	C192	C	0.398117	0.096917	0.599220
	C193	C	0.599730	0.906490	0.599345
	C194	C	0.599024	0.095567	0.399741
	C195	C	0.397415	0.906640	0.398945
	C196	C	0.600030	0.401213	0.094860
	C197	C	0.598932	0.600887	0.903725
	C198	C	0.400250	0.600904	0.095148
	C199	C	0.400456	0.402608	0.904110
	C200	C	0.094199	0.602396	0.400015
	C201	C	0.905304	0.602407	0.599155
	C202	C	0.094220	0.400585	0.599893
	C203	C	0.905229	0.401910	0.399718
	C204	C	0.898686	0.597127	0.099149
	C205	C	0.100599	0.407254	0.099310
	C206	C	0.100435	0.597135	0.900547
	C207	C	0.900086	0.407497	0.900824
	C208	C	0.099449	0.902406	0.595628
	C209	C	0.098965	0.101780	0.403479
	C210	C	0.899188	0.101503	0.595330
	C211	C	0.899911	0.903527	0.404529
	C212	C	0.593339	0.101657	0.899591
	C213	C	0.404658	0.102339	0.098993
	C214	C	0.593691	0.901188	0.099231
	C215	C	0.403821	0.899881	0.898755
	Zn216	Zn	0.498659	0.001272	0.749151
	Zn217	Zn	0.499307	0.001307	0.249435
	Zn218	Zn	0.749029	0.501933	-0.000796
	Zn219	Zn	0.250417	0.502094	0.000061
	Zn220	Zn	-0.000277	0.752987	0.500006
	Zn221	Zn	-0.000927	0.250914	0.499660
	Zn222	Zn	-0.000265	0.502354	0.750212
	Zn223	Zn	-0.000144	0.502332	0.249127
	Zn224	Zn	0.499689	0.750738	-0.000819
	Zn225	Zn	0.499169	0.252082	-0.000630
	Zn226	Zn	0.749478	0.001731	0.499715
	Zn227	Zn	0.248304	0.002125	0.499477
	N228	N	0.414316	0.963927	0.676157
	N229	N	0.583456	0.039077	0.676810
	N230	N	0.582517	0.962684	0.323315
	N231	N	0.414135	0.039333	0.321778
	N232	N	0.678065	0.415293	0.961755
	N233	N	0.676772	0.586778	0.036580
	N234	N	0.321844	0.587220	0.962276
	N235	N	0.322240	0.416175	0.036993
	N236	N	0.963141	0.682154	0.412472
	N237	N	0.036633	0.681340	0.586209
	N238	N	0.962657	0.322511	0.586524
	N239	N	0.036395	0.322690	0.413572
	N240	N	0.962325	0.416444	0.678399
	N241	N	0.037399	0.586723	0.677221
	N242	N	0.961981	0.586737	0.322123
	N243	N	0.037575	0.417425	0.322212
	N244	N	0.414477	0.678844	0.961943
	N245	N	0.584315	0.678668	0.036971
	N246	N	0.584762	0.323518	0.961589
	N247	N	0.414904	0.324624	0.037228
	N248	N	0.679085	0.964598	0.412527
	N249	N	0.678072	0.038344	0.586035
	N250	N	0.320057	0.965053	0.585105
	N251	N	0.319776	0.039159	0.413145
	N252	N	0.914963	0.464509	0.176934
	N253	N	0.083785	0.540164	0.175887
	N254	N	0.084045	0.464463	0.823408
	N255	N	0.914998	0.539849	0.822937
	N256	N	0.177120	0.916306	0.462289
	N257	N	0.177052	0.087557	0.536533
	N258	N	0.820934	0.087680	0.462725
	N259	N	0.821099	0.916549	0.537128
	N260	N	0.461857	0.180782	0.912691
	N261	N	0.536359	0.180477	0.085611
	N262	N	0.462512	0.822539	0.085513
	N263	N	0.536126	0.822282	0.912951
	N264	N	0.461347	0.917475	0.176191
	N265	N	0.536506	0.086587	0.177316
	N266	N	0.460999	0.085443	0.822274
	N267	N	0.536302	0.916096	0.821477
	N268	N	0.913329	0.179874	0.462203
	N269	N	0.084099	0.178850	0.537007
	N270	N	0.083760	0.825505	0.462178
	N271	N	0.913995	0.825013	0.537260
	N272	N	0.179375	0.465366	0.913551
	N273	N	0.179634	0.538484	0.086919
	N274	N	0.820515	0.465296	0.086096
	N275	N	0.819991	0.538604	0.912777
	O276	O	-0.037614	0.039875	0.942856
	H277	H	-0.039544	0.039008	0.940675
	H278	H	-0.038904	0.037014	0.943426
	O279	O	0.580628	0.502276	0.500424
	H280	H	0.586442	0.507240	0.508392
	H281	H	0.581118	0.506673	0.501365
	O282	O	0.559634	0.482677	0.508384
	H283	H	0.567863	0.484473	0.502389
	H284	H	0.552824	0.472077	0.505833
	O285	O	0.581173	0.458048	0.472282
	H286	H	0.581040	0.461339	0.470629
	H287	H	0.582053	0.452195	0.472015
	O288	O	0.572143	0.475088	0.485160
	H289	H	0.566094	0.478134	0.487914
	H290	H	0.571673	0.472448	0.485897
	O291	O	-0.034816	1.058585	0.974621
	H292	H	-0.040417	1.061851	0.974971
	H293	H	-0.030748	1.058944	0.970122
	O294	O	0.549406	0.488212	0.520382
	H295	H	0.549546	0.491817	0.516607
	H296	H	0.557410	0.478721	0.517306
	O297	O	0.989405	0.037415	-0.038563
	H298	H	0.986907	0.034403	-0.042274
	H299	H	0.993972	0.046463	-0.037033
