data_Molecule from HDF5

_cell_length_a		16.312384
_cell_length_b		16.102337
_cell_length_c		16.139995
_cell_angle_alpha	89.944689
_cell_angle_beta	90.914066
_cell_angle_gamma	90.143532
_symmetry_space_group_name_H-M	'P 1'
_symmetry_Int_Tables_number		1

loop_
	_symmetry_equiv_pos_as_xyz
	x,y,z

loop_
	_atom_site_label
	_atom_site_type_symbol
	_atom_site_fract_x
	_atom_site_fract_y
	_atom_site_fract_z
	H0	H	0.406700	0.830838	0.706859
	H1	H	0.605534	0.160950	0.713112
	H2	H	0.595512	0.830002	0.287969
	H3	H	0.402991	0.162038	0.281082
	H4	H	0.713454	0.396837	0.830612
	H5	H	0.721656	0.597176	0.159465
	H6	H	0.285118	0.595986	0.832191
	H7	H	0.290189	0.393374	0.160181
	H8	H	0.838875	0.710419	0.394454
	H9	H	0.166741	0.712039	0.596164
	H10	H	0.839479	0.281064	0.591479
	H11	H	0.166618	0.282552	0.398832
	H12	H	0.838624	0.396695	0.706603
	H13	H	0.165926	0.597249	0.713936
	H14	H	0.839757	0.594802	0.277435
	H15	H	0.167890	0.400292	0.286350
	H16	H	0.402393	0.708793	0.830455
	H17	H	0.601945	0.706473	0.162858
	H18	H	0.597069	0.283372	0.831070
	H19	H	0.408880	0.284141	0.161683
	H20	H	0.714946	0.832183	0.399129
	H21	H	0.720600	0.160942	0.600175
	H22	H	0.288320	0.833114	0.595866
	H23	H	0.287544	0.161448	0.394134
	H24	H	0.907049	0.331072	0.206548
	H25	H	0.103009	0.662734	0.208952
	H26	H	0.097302	0.331061	0.784687
	H27	H	0.903161	0.663058	0.780632
	H28	H	0.213539	0.896832	0.330708
	H29	H	0.222946	0.099124	0.659149
	H30	H	0.782857	0.099041	0.332947
	H31	H	0.791507	0.896313	0.660932
	H32	H	0.338835	0.209878	0.894640
	H33	H	0.665995	0.211141	0.099033
	H34	H	0.338714	0.781564	0.091819
	H35	H	0.666562	0.782342	0.901658
	H36	H	0.337741	0.897334	0.206346
	H37	H	0.665625	0.094077	0.214066
	H38	H	0.340605	0.096440	0.776542
	H39	H	0.667249	0.897248	0.785113
	H40	H	0.902935	0.208692	0.329769
	H41	H	0.103791	0.210437	0.660674
	H42	H	0.095326	0.787340	0.329716
	H43	H	0.907464	0.783437	0.660782
	H44	H	0.214564	0.331554	0.897347
	H45	H	0.221649	0.659980	0.099979
	H46	H	0.789784	0.331462	0.094100
	H47	H	0.786742	0.661711	0.894444
	H48	H	0.418207	0.113969	0.586426
	H49	H	0.586746	0.883204	0.582655
	H50	H	0.599491	0.113319	0.417001
	H51	H	0.398948	0.876171	0.403023
	H52	H	0.597280	0.406082	0.114316
	H53	H	0.588351	0.592779	0.878550
	H54	H	0.417648	0.593932	0.113422
	H55	H	0.397371	0.398658	0.873933
	H56	H	0.116801	0.583351	0.408107
	H57	H	0.885249	0.589578	0.589049
	H58	H	0.120520	0.396260	0.586962
	H59	H	0.886324	0.402412	0.402405
	H60	H	0.116190	0.412706	0.586410
	H61	H	0.885469	0.594093	0.585016
	H62	H	0.124221	0.593333	0.392365
	H63	H	0.886863	0.407014	0.398696
	H64	H	0.404183	0.590796	0.117864
	H65	H	0.599281	0.592708	0.875215
	H66	H	0.599567	0.401722	0.114427
	H67	H	0.405901	0.414028	0.879297
	H68	H	0.603179	0.121085	0.395608
	H69	H	0.611335	0.875845	0.583895
	H70	H	0.409631	0.113869	0.581323
	H71	H	0.409964	0.876300	0.395518
	H72	H	0.913148	0.611064	0.077063
	H73	H	0.110040	0.373907	0.089246
	H74	H	0.088645	0.613220	0.906567
	H75	H	0.908510	0.378162	0.900673
	H76	H	0.100844	0.911713	0.612860
	H77	H	0.105706	0.086877	0.374296
	H78	H	0.911062	0.100421	0.618267
	H79	H	0.895372	0.911515	0.375745
	H80	H	0.618969	0.091511	0.908985
	H81	H	0.387809	0.080047	0.088498
	H82	H	0.624756	0.896089	0.103706
	H83	H	0.387625	0.900989	0.907137
	H84	H	0.619215	0.895709	0.084638
	H85	H	0.380912	0.096188	0.096816
	H86	H	0.618474	0.086276	0.906200
	H87	H	0.387483	0.911060	0.898544
	H88	H	0.902380	0.081737	0.615206
	H89	H	0.088022	0.082084	0.381564
	H90	H	0.093195	0.905450	0.612371
	H91	H	0.916408	0.909815	0.381688
	H92	H	0.098405	0.614660	0.910361
	H93	H	0.092587	0.376230	0.101575
	H94	H	0.901577	0.619233	0.088100
	H95	H	0.906325	0.378567	0.901728
	H96	H	0.410378	0.117560	0.590602
	H97	H	0.596157	0.873773	0.605423
	H98	H	0.583024	0.113111	0.402668
	H99	H	0.410376	0.880646	0.408600
	H100	H	0.601465	0.405157	0.115182
	H101	H	0.594109	0.582884	0.878886
	H102	H	0.412420	0.580089	0.112389
	H103	H	0.414720	0.398938	0.878288
	H104	H	0.121357	0.602657	0.410155
	H105	H	0.886654	0.588785	0.584534
	H106	H	0.121740	0.405374	0.600402
	H107	H	0.884518	0.401558	0.396497
	H108	H	0.919313	0.615271	0.093054
	H109	H	0.091933	0.382493	0.080853
	H110	H	0.096161	0.617286	0.900337
	H111	H	0.906260	0.377549	0.899761
	H112	H	0.101337	0.900729	0.615983
	H113	H	0.091521	0.100306	0.375551
	H114	H	0.922901	0.084511	0.608783
	H115	H	0.904925	0.893109	0.374034
	H116	H	0.620160	0.091283	0.903067
	H117	H	0.385967	0.095638	0.079371
	H118	H	0.617538	0.912496	0.095715
	H119	H	0.383025	0.899397	0.895744
	C120	C	0.383754	0.005739	0.615120
	C121	C	0.626986	0.987041	0.619821
	C122	C	0.622426	0.006114	0.377344
	C123	C	0.379153	0.987489	0.373392
	C124	C	0.624821	0.375420	0.004991
	C125	C	0.624597	0.618204	0.986972
	C126	C	0.380929	0.617610	0.005191
	C127	C	0.380609	0.374792	0.986969
	C128	C	0.012152	0.620413	0.372893
	C129	C	0.993920	0.619961	0.617309
	C130	C	0.011181	0.374867	0.617927
	C131	C	0.994472	0.375197	0.373388
	C132	C	0.882865	0.505627	0.115264
	C133	C	0.126703	0.487262	0.119077
	C134	C	0.122228	0.505800	0.876592
	C135	C	0.879579	0.487918	0.872294
	C136	C	0.124393	0.876822	0.504559
	C137	C	0.125540	0.118773	0.486458
	C138	C	0.881453	0.118037	0.505048
	C139	C	0.879958	0.875637	0.486855
	C140	C	0.511471	0.118550	0.874581
	C141	C	0.493145	0.118874	0.118730
	C142	C	0.511472	0.873613	0.119403
	C143	C	0.494476	0.874914	0.874446
	C144	C	0.386013	0.880809	0.669956
	C145	C	0.625039	0.111759	0.674843
	C146	C	0.617709	0.880073	0.324225
	C147	C	0.382551	0.112455	0.318409
	C148	C	0.676521	0.377074	0.880156
	C149	C	0.682503	0.616434	0.110686
	C150	C	0.323685	0.615900	0.881281
	C151	C	0.327669	0.375168	0.110938
	C152	C	0.888003	0.673265	0.374219
	C153	C	0.117535	0.674801	0.616708
	C154	C	0.888292	0.318918	0.612966
	C155	C	0.117754	0.320355	0.378268
	C156	C	0.887822	0.376947	0.670030
	C157	C	0.117191	0.617614	0.675099
	C158	C	0.888709	0.616078	0.315855
	C159	C	0.118478	0.378937	0.321997
	C160	C	0.382365	0.671972	0.880531
	C161	C	0.622916	0.671036	0.112321
	C162	C	0.618916	0.320405	0.880487
	C163	C	0.386583	0.320615	0.111837
	C164	C	0.676787	0.881117	0.379548
	C165	C	0.682693	0.111518	0.619117
	C166	C	0.327111	0.881952	0.614838
	C167	C	0.324911	0.112114	0.374506
	C168	C	0.886194	0.380674	0.169608
	C169	C	0.123726	0.612559	0.172543
	C170	C	0.118718	0.380812	0.821587
	C171	C	0.882610	0.613157	0.817803
	C172	C	0.176796	0.877965	0.380015
	C173	C	0.183689	0.118360	0.610188
	C174	C	0.822668	0.117774	0.381587
	C175	C	0.828315	0.877139	0.611510
	C176	C	0.388313	0.173169	0.874426
	C177	C	0.616891	0.173357	0.118505
	C178	C	0.387776	0.819132	0.113466
	C179	C	0.617638	0.819688	0.879994
	C180	C	0.387327	0.876855	0.170622
	C181	C	0.616567	0.115554	0.175877
	C182	C	0.389070	0.116443	0.815925
	C183	C	0.618085	0.877061	0.822168
	C184	C	0.882375	0.172221	0.379927
	C185	C	0.124167	0.173405	0.611070
	C186	C	0.117834	0.823297	0.379586
	C187	C	0.886200	0.820941	0.611503
	C188	C	0.176912	0.381055	0.877743
	C189	C	0.182725	0.611232	0.118161
	C190	C	0.827659	0.380981	0.113613
	C191	C	0.824358	0.612557	0.873799
	C192	C	0.406190	0.092728	0.592673
	C193	C	0.604811	0.900060	0.597284
	C194	C	0.601464	0.093046	0.398798
	C195	C	0.400044	0.900170	0.395658
	C196	C	0.605278	0.397562	0.092001
	C197	C	0.600799	0.596229	0.899990
	C198	C	0.404424	0.594969	0.092176
	C199	C	0.400218	0.397077	0.899741
	C200	C	0.098290	0.599496	0.396543
	C201	C	0.907888	0.597400	0.593289
	C202	C	0.097322	0.397808	0.597427
	C203	C	0.908312	0.397087	0.393258
	C204	C	0.904811	0.592702	0.092711
	C205	C	0.104668	0.400088	0.097222
	C206	C	0.100725	0.592549	0.899177
	C207	C	0.900828	0.400745	0.894232
	C208	C	0.104455	0.899357	0.591421
	C209	C	0.102046	0.096286	0.399675
	C210	C	0.905202	0.095470	0.591620
	C211	C	0.899559	0.898178	0.399658
	C212	C	0.597166	0.096321	0.899096
	C213	C	0.407178	0.097106	0.095122
	C214	C	0.598001	0.895069	0.100352
	C215	C	0.408241	0.897213	0.894573
	Zn216	Zn	0.504042	-0.003600	0.745112
	Zn217	Zn	0.501099	-0.003915	0.247564
	Zn218	Zn	0.753059	0.496955	-0.005401
	Zn219	Zn	0.252474	0.495882	-0.003186
	Zn220	Zn	0.002672	0.748984	0.495099
	Zn221	Zn	0.002983	0.246019	0.494841
	Zn222	Zn	0.001998	0.497315	0.746033
	Zn223	Zn	0.004122	0.496910	0.244550
	Zn224	Zn	0.502881	0.745741	-0.003242
	Zn225	Zn	0.502263	0.247472	-0.003375
	Zn226	Zn	0.752449	-0.002957	0.497300
	Zn227	Zn	0.253389	-0.003200	0.495274
	N228	N	0.420548	0.958835	0.670329
	N229	N	0.591197	0.033446	0.675546
	N230	N	0.584542	0.958600	0.322492
	N231	N	0.415563	0.033893	0.317468
	N232	N	0.680477	0.410472	0.958619
	N233	N	0.683707	0.584301	0.031625
	N234	N	0.322546	0.583077	0.960124
	N235	N	0.323762	0.408399	0.032205
	N236	N	0.965528	0.675932	0.409087
	N237	N	0.039975	0.676457	0.581619
	N238	N	0.966255	0.317292	0.581341
	N239	N	0.039651	0.317942	0.409409
	N240	N	0.965298	0.410999	0.673140
	N241	N	0.039247	0.584298	0.675481
	N242	N	0.966838	0.583757	0.314909
	N243	N	0.040859	0.412244	0.318852
	N244	N	0.417466	0.672882	0.958709
	N245	N	0.587646	0.672235	0.034282
	N246	N	0.587397	0.319212	0.959103
	N247	N	0.418677	0.320081	0.033628
	N248	N	0.679788	0.960301	0.411845
	N249	N	0.684198	0.032892	0.585522
	N250	N	0.325755	0.960626	0.581208
	N251	N	0.322752	0.033457	0.407928
	N252	N	0.919950	0.459214	0.170666
	N253	N	0.089399	0.534389	0.173169
	N254	N	0.085421	0.459252	0.820644
	N255	N	0.915813	0.534782	0.816428
	N256	N	0.181030	0.910647	0.458903
	N257	N	0.184427	0.085103	0.531743
	N258	N	0.821936	0.084822	0.460336
	N259	N	0.824418	0.910408	0.532902
	N260	N	0.465460	0.174564	0.910433
	N261	N	0.539346	0.175358	0.083446
	N262	N	0.465918	0.816908	0.082493
	N263	N	0.539765	0.818125	0.911532
	N264	N	0.465255	0.909941	0.174637
	N265	N	0.538779	0.082247	0.176132
	N266	N	0.466752	0.083196	0.815960
	N267	N	0.540524	0.910728	0.818528
	N268	N	0.918302	0.172686	0.457666
	N269	N	0.088494	0.173872	0.533130
	N270	N	0.085928	0.822539	0.457874
	N271	N	0.917577	0.819956	0.532943
	N272	N	0.179230	0.459704	0.911453
	N273	N	0.184784	0.532325	0.085653
	N274	N	0.825581	0.459737	0.080448
	N275	N	0.822102	0.533692	0.906961
	O276	O	0.993313	0.911671	-0.049090
	H277	H	0.996544	0.926905	-0.053906
	H278	H	0.983559	0.905254	-0.051514
	O279	O	0.015841	-0.035851	1.002749
	H280	H	0.014365	-0.036372	1.005397
	H281	H	0.024729	-0.042997	1.009094
	O282	O	-0.021133	0.029224	-0.014015
	H283	H	-0.025515	0.032973	-0.021975
	H284	H	-0.013999	0.036698	-0.013291
	O285	O	0.473484	0.488727	0.471542
	H286	H	0.462896	0.483376	0.475741
	H287	H	0.481498	0.490470	0.469134
	O288	O	-0.015840	0.046497	-0.027163
	H289	H	-0.011731	0.040822	-0.032664
	H290	H	-0.027667	0.056083	-0.009250
	O291	O	-0.026013	0.972154	-0.051847
	H292	H	-0.029312	0.974837	-0.049219
	H293	H	-0.026245	0.977111	-0.050143
	O294	O	-0.036365	1.048159	-0.065404
	H295	H	-0.045977	1.047865	-0.073881
	H296	H	-0.025252	1.042032	-0.069612
	O297	O	0.462818	0.551178	0.478745
	H298	H	0.466117	0.558038	0.478863
	H299	H	0.459853	0.554417	0.475501
	O300	O	0.501468	0.465847	0.502059
	H301	H	0.505197	0.459763	0.500148
	H302	H	0.487422	0.461975	0.500210
	O303	O	1.020837	-0.033864	1.030110
	H304	H	1.011122	-0.039852	1.026632
	H305	H	1.016411	-0.032648	1.043922
	O306	O	-0.011397	1.010387	1.043433
	H307	H	-0.007054	1.012182	1.046703
	H308	H	-0.014617	0.999846	1.041260
	O309	O	0.039761	1.064861	1.035440
	H310	H	0.040066	1.071082	1.037013
	H311	H	0.037707	1.066735	1.036417
	O312	O	0.024377	-0.034842	0.934013
	H313	H	0.024812	-0.030542	0.920942
	H314	H	0.027322	-0.041043	0.922316
	O315	O	0.528994	0.507256	0.454714
	H316	H	0.527675	0.520881	0.453653
	H317	H	0.529988	0.508342	0.460344
	O318	O	-0.002326	-0.038012	0.983347
	H319	H	-0.009455	-0.032080	0.973399
	H320	H	0.000837	-0.042507	0.983099
	O321	O	0.500062	0.630176	0.506093
	H322	H	0.521997	0.638684	0.515991
	H323	H	0.498951	0.633727	0.509868
	O324	O	1.038320	0.021723	0.966344
	H325	H	1.040165	0.031323	0.970331
	H326	H	1.042503	0.021343	0.985064
	O327	O	1.027423	1.016866	0.984941
	H328	H	1.028527	1.008501	0.981261
	H329	H	1.025187	1.021482	0.982406
	O330	O	0.459783	0.477838	0.438139
	H331	H	0.450904	0.477278	0.432516
	H332	H	0.459990	0.478434	0.431173
	O333	O	0.575553	0.540206	0.551896
	H334	H	0.585479	0.534400	0.558714
	H335	H	0.569665	0.539438	0.547586
	O336	O	0.519547	0.458938	0.564979
	H337	H	0.517937	0.467897	0.562417
	H338	H	0.529986	0.462520	0.567181
	O339	O	0.563910	0.523414	0.438103
	H340	H	0.565774	0.527471	0.441803
	H341	H	0.559451	0.518178	0.439307
	O342	O	0.556837	0.528874	0.516412
	H343	H	0.548207	0.524175	0.514298
	H344	H	0.553571	0.526990	0.512265
	O345	O	0.411126	0.495681	0.508750
	H346	H	0.419680	0.496762	0.510586
	H347	H	0.406620	0.494861	0.514749
