data_Molecule from HDF5

_cell_length_a		16.324721
_cell_length_b		15.953346
_cell_length_c		16.217951
_cell_angle_alpha	89.100873
_cell_angle_beta	89.456577
_cell_angle_gamma	89.870787
_symmetry_space_group_name_H-M	'P 1'
_symmetry_Int_Tables_number		1

loop_
	_symmetry_equiv_pos_as_xyz
	x,y,z

loop_
	_atom_site_label
	_atom_site_type_symbol
	_atom_site_fract_x
	_atom_site_fract_y
	_atom_site_fract_z
	H0	H	0.406807	0.836476	0.710452
	H1	H	0.600276	0.171531	0.700754
	H2	H	0.604812	0.836635	0.285001
	H3	H	0.406407	0.170315	0.279482
	H4	H	0.725718	0.406013	0.830008
	H5	H	0.724260	0.604864	0.156733
	H6	H	0.292518	0.612157	0.830206
	H7	H	0.288397	0.398229	0.155512
	H8	H	0.842630	0.719634	0.395624
	H9	H	0.172286	0.712900	0.584094
	H10	H	0.842310	0.288382	0.595785
	H11	H	0.170845	0.291316	0.398158
	H12	H	0.845276	0.399159	0.715578
	H13	H	0.170319	0.602786	0.706062
	H14	H	0.842881	0.606016	0.277535
	H15	H	0.168578	0.401592	0.275903
	H16	H	0.414165	0.720054	0.829377
	H17	H	0.599798	0.709413	0.161081
	H18	H	0.606461	0.295748	0.828048
	H19	H	0.409905	0.288816	0.158154
	H20	H	0.722496	0.838031	0.393606
	H21	H	0.718796	0.169080	0.591231
	H22	H	0.292243	0.837243	0.597446
	H23	H	0.293772	0.170672	0.392679
	H24	H	0.907825	0.337806	0.210086
	H25	H	0.103846	0.670703	0.202140
	H26	H	0.108065	0.335836	0.782704
	H27	H	0.909881	0.668971	0.778377
	H28	H	0.225569	0.905379	0.330783
	H29	H	0.220725	0.102993	0.658095
	H30	H	0.790249	0.109428	0.331699
	H31	H	0.788540	0.897856	0.657267
	H32	H	0.343445	0.220725	0.898244
	H33	H	0.672998	0.212795	0.085469
	H34	H	0.343201	0.787592	0.096220
	H35	H	0.672153	0.795345	0.900433
	H36	H	0.343535	0.901007	0.214316
	H37	H	0.670086	0.102592	0.207834
	H38	H	0.342525	0.106705	0.779502
	H39	H	0.667807	0.902346	0.776223
	H40	H	0.910820	0.218845	0.330258
	H41	H	0.099049	0.210413	0.660929
	H42	H	0.103812	0.797103	0.326829
	H43	H	0.909442	0.787823	0.658466
	H44	H	0.225373	0.338569	0.892304
	H45	H	0.219385	0.670414	0.089246
	H46	H	0.793027	0.337943	0.097293
	H47	H	0.796298	0.669811	0.891570
	H48	H	0.403087	0.126714	0.589395
	H49	H	0.598000	0.885244	0.579415
	H50	H	0.601474	0.127377	0.389501
	H51	H	0.407932	0.883922	0.411805
	H52	H	0.600104	0.410680	0.110348
	H53	H	0.600398	0.606105	0.875235
	H54	H	0.408722	0.592441	0.111921
	H55	H	0.412593	0.414357	0.873494
	H56	H	0.123548	0.603092	0.401168
	H57	H	0.892194	0.588438	0.588621
	H58	H	0.123506	0.405679	0.585937
	H59	H	0.888455	0.408965	0.399542
	H60	H	0.123816	0.411292	0.587867
	H61	H	0.888346	0.597264	0.591837
	H62	H	0.120482	0.589820	0.397187
	H63	H	0.889959	0.411972	0.405824
	H64	H	0.411622	0.590023	0.110554
	H65	H	0.612335	0.600628	0.873379
	H66	H	0.602686	0.407280	0.113032
	H67	H	0.416373	0.420319	0.876917
	H68	H	0.585874	0.118848	0.402952
	H69	H	0.604377	0.880434	0.591933
	H70	H	0.418052	0.123832	0.590654
	H71	H	0.412861	0.881473	0.398425
	H72	H	0.912668	0.625035	0.085608
	H73	H	0.098381	0.383825	0.086299
	H74	H	0.105025	0.625726	0.894228
	H75	H	0.914187	0.384734	0.910356
	H76	H	0.103793	0.899139	0.615625
	H77	H	0.096882	0.092903	0.379836
	H78	H	0.904387	0.090126	0.613591
	H79	H	0.910109	0.916543	0.375791
	H80	H	0.624561	0.092885	0.888850
	H81	H	0.391428	0.101740	0.083264
	H82	H	0.625952	0.904388	0.093300
	H83	H	0.385456	0.908002	0.895787
	H84	H	0.622495	0.908018	0.087484
	H85	H	0.393961	0.088228	0.086732
	H86	H	0.626386	0.105659	0.893993
	H87	H	0.390056	0.906810	0.910989
	H88	H	0.913712	0.090809	0.611550
	H89	H	0.100277	0.103573	0.374883
	H90	H	0.105600	0.916040	0.610471
	H91	H	0.915050	0.915374	0.377434
	H92	H	0.095112	0.622909	0.894635
	H93	H	0.098365	0.384870	0.085350
	H94	H	0.915409	0.624371	0.084151
	H95	H	0.912065	0.380748	0.901742
	H96	H	0.411158	0.122185	0.578422
	H97	H	0.589035	0.883798	0.591379
	H98	H	0.606786	0.123145	0.409865
	H99	H	0.422428	0.887312	0.408064
	H100	H	0.602864	0.411287	0.111490
	H101	H	0.602314	0.593312	0.878250
	H102	H	0.412025	0.594291	0.111523
	H103	H	0.419850	0.413720	0.876653
	H104	H	0.126389	0.598962	0.387751
	H105	H	0.890978	0.596506	0.582935
	H106	H	0.124500	0.406663	0.591224
	H107	H	0.889846	0.416189	0.399007
	H108	H	0.912705	0.623967	0.082406
	H109	H	0.100101	0.383295	0.085144
	H110	H	0.101703	0.621285	0.902826
	H111	H	0.920840	0.383373	0.903676
	H112	H	0.090552	0.907551	0.608409
	H113	H	0.107815	0.094831	0.377106
	H114	H	0.908704	0.098162	0.614559
	H115	H	0.912407	0.911153	0.374533
	H116	H	0.621339	0.095583	0.902403
	H117	H	0.387495	0.096979	0.095703
	H118	H	0.623924	0.912263	0.093678
	H119	H	0.390913	0.921068	0.902342
	C120	C	0.383145	0.013228	0.616620
	C121	C	0.625268	0.993888	0.614324
	C122	C	0.627276	0.012689	0.373228
	C123	C	0.385493	0.994893	0.374902
	C124	C	0.630437	0.383086	0.002554
	C125	C	0.630651	0.626193	0.984907
	C126	C	0.384578	0.625300	0.002990
	C127	C	0.386367	0.383696	0.984111
	C128	C	0.015107	0.626987	0.368393
	C129	C	0.998714	0.623251	0.613922
	C130	C	0.015598	0.379535	0.617882
	C131	C	0.997687	0.382589	0.373016
	C132	C	0.885161	0.513637	0.114761
	C133	C	0.127513	0.494542	0.112855
	C134	C	0.130056	0.512890	0.870071
	C135	C	0.887546	0.493438	0.873952
	C136	C	0.129277	0.881433	0.502470
	C137	C	0.128128	0.124320	0.486019
	C138	C	0.882611	0.124475	0.504240
	C139	C	0.884169	0.882182	0.484676
	C140	C	0.515428	0.127794	0.869213
	C141	C	0.498797	0.124502	0.115541
	C142	C	0.515587	0.879499	0.119854
	C143	C	0.497591	0.883373	0.874525
	C144	C	0.386200	0.887096	0.672967
	C145	C	0.621550	0.120729	0.665637
	C146	C	0.625122	0.886716	0.320988
	C147	C	0.387290	0.120467	0.317727
	C148	C	0.686830	0.386252	0.878801
	C149	C	0.685286	0.623575	0.108265
	C150	C	0.330825	0.628976	0.879183
	C151	C	0.328341	0.380669	0.107068
	C152	C	0.891662	0.682285	0.373645
	C153	C	0.122723	0.676951	0.607028
	C154	C	0.891851	0.325178	0.616407
	C155	C	0.121223	0.327609	0.376049
	C156	C	0.893321	0.380260	0.676173
	C157	C	0.121691	0.621911	0.667775
	C158	C	0.891924	0.625899	0.314659
	C159	C	0.120412	0.382726	0.315725
	C160	C	0.391104	0.682957	0.878878
	C161	C	0.623633	0.676027	0.110516
	C162	C	0.627494	0.331139	0.877866
	C163	C	0.388959	0.326318	0.108434
	C164	C	0.683687	0.887478	0.375123
	C165	C	0.680633	0.119478	0.611075
	C166	C	0.329365	0.887171	0.616715
	C167	C	0.330796	0.120561	0.374182
	C168	C	0.887614	0.387753	0.171979
	C169	C	0.124503	0.620527	0.165721
	C170	C	0.128524	0.386539	0.818017
	C171	C	0.889845	0.619131	0.816489
	C172	C	0.186545	0.885204	0.379197
	C173	C	0.182437	0.122219	0.609412
	C174	C	0.828308	0.126913	0.380566
	C175	C	0.827547	0.879741	0.608416
	C176	C	0.392481	0.183825	0.875104
	C177	C	0.623156	0.177280	0.109113
	C178	C	0.392376	0.824471	0.117030
	C179	C	0.621986	0.830527	0.878369
	C180	C	0.392540	0.881306	0.175831
	C181	C	0.621756	0.122363	0.169729
	C182	C	0.391862	0.126790	0.816350
	C183	C	0.619890	0.883950	0.816797
	C184	C	0.888199	0.181593	0.379901
	C185	C	0.122015	0.175743	0.610799
	C186	C	0.125929	0.831158	0.377099
	C187	C	0.887873	0.825074	0.608860
	C188	C	0.186800	0.387874	0.872730
	C189	C	0.182259	0.620342	0.109668
	C190	C	0.830674	0.387837	0.115665
	C191	C	0.833289	0.619519	0.872903
	C192	C	0.404444	0.101399	0.592974
	C193	C	0.603554	0.905912	0.593677
	C194	C	0.604762	0.100352	0.394414
	C195	C	0.407798	0.906838	0.399152
	C196	C	0.608256	0.403500	0.089234
	C197	C	0.610925	0.606039	0.898161
	C198	C	0.404720	0.599717	0.089097
	C199	C	0.409539	0.408652	0.898036
	C200	C	0.101198	0.604086	0.389122
	C201	C	0.912746	0.600893	0.593886
	C202	C	0.101686	0.401524	0.595199
	C203	C	0.911721	0.405478	0.394977
	C204	C	0.907148	0.601697	0.091101
	C205	C	0.105642	0.406800	0.091792
	C206	C	0.107315	0.600679	0.891001
	C207	C	0.909458	0.405554	0.898034
	C208	C	0.106764	0.901571	0.589053
	C209	C	0.107729	0.103314	0.399745
	C210	C	0.902917	0.100315	0.590872
	C211	C	0.905948	0.907203	0.398317
	C212	C	0.601759	0.104647	0.889075
	C213	C	0.413061	0.102239	0.094810
	C214	C	0.601895	0.901713	0.098074
	C215	C	0.411233	0.905370	0.896697
	Zn216	Zn	0.505083	0.003746	0.742690
	Zn217	Zn	0.506257	0.003341	0.247259
	Zn218	Zn	0.759388	0.504256	-0.006372
	Zn219	Zn	0.255962	0.504131	-0.008032
	Zn220	Zn	0.006994	0.753787	0.492102
	Zn221	Zn	0.005812	0.252155	0.495564
	Zn222	Zn	0.007987	0.501683	0.745927
	Zn223	Zn	0.006472	0.503852	0.241340
	Zn224	Zn	0.507432	0.752769	-0.004331
	Zn225	Zn	0.508574	0.254911	-0.006731
	Zn226	Zn	0.753978	0.002732	0.494102
	Zn227	Zn	0.257642	0.003837	0.494921
	N228	N	0.418978	0.966630	0.672981
	N229	N	0.587805	0.041570	0.667767
	N230	N	0.590730	0.965493	0.319665
	N231	N	0.420486	0.041053	0.318033
	N232	N	0.688919	0.417659	0.957332
	N233	N	0.689933	0.593404	0.029209
	N234	N	0.326470	0.593726	0.957292
	N235	N	0.326688	0.415702	0.028888
	N236	N	0.969369	0.683324	0.406102
	N237	N	0.045119	0.677958	0.574109
	N238	N	0.968836	0.324630	0.580940
	N239	N	0.043954	0.327426	0.411167
	N240	N	0.971273	0.413463	0.677173
	N241	N	0.043813	0.589115	0.672089
	N242	N	0.969696	0.592193	0.311399
	N243	N	0.042555	0.416089	0.313307
	N244	N	0.424050	0.680748	0.956723
	N245	N	0.590375	0.678036	0.032873
	N246	N	0.593084	0.329023	0.955828
	N247	N	0.424324	0.327910	0.030865
	N248	N	0.685033	0.966828	0.407308
	N249	N	0.683097	0.039633	0.579977
	N250	N	0.327202	0.966673	0.582333
	N251	N	0.329504	0.041193	0.409031
	N252	N	0.920800	0.467056	0.171522
	N253	N	0.091204	0.541314	0.167997
	N254	N	0.093843	0.465291	0.816462
	N255	N	0.922939	0.539614	0.817087
	N256	N	0.188973	0.915482	0.458221
	N257	N	0.186556	0.090680	0.530813
	N258	N	0.824626	0.092078	0.458760
	N259	N	0.825353	0.914810	0.530274
	N260	N	0.470421	0.184653	0.907008
	N261	N	0.545699	0.178998	0.076055
	N262	N	0.469946	0.823304	0.083056
	N263	N	0.544875	0.830120	0.913733
	N264	N	0.470106	0.915020	0.177738
	N265	N	0.543506	0.090290	0.173836
	N266	N	0.469420	0.092731	0.812554
	N267	N	0.541502	0.916060	0.814233
	N268	N	0.921314	0.180300	0.457670
	N269	N	0.088967	0.177239	0.533158
	N270	N	0.090917	0.828870	0.454638
	N271	N	0.922407	0.826409	0.530963
	N272	N	0.187822	0.467511	0.904296
	N273	N	0.184236	0.540963	0.077497
	N274	N	0.828982	0.467201	0.081006
	N275	N	0.831716	0.540371	0.907823
	O276	O	-0.004567	-0.089401	-0.000102
	H277	H	-0.006427	-0.083137	0.007538
	H278	H	-0.016147	-0.092352	0.006357
	O279	O	0.455253	0.427547	0.469263
	H280	H	0.459949	0.437452	0.464173
	H281	H	0.453207	0.419624	0.472216
	O282	O	0.580487	0.463307	0.419253
	H283	H	0.586299	0.464697	0.407254
	H284	H	0.586577	0.461711	0.422823
	O285	O	1.079360	-0.084735	1.008124
	H286	H	1.078395	-0.084166	1.007596
	H287	H	1.079075	-0.097441	1.008240
	O288	O	0.953655	-0.026839	0.119330
	H289	H	0.949247	-0.027734	0.128276
	H290	H	0.950710	-0.016011	0.128853
	O291	O	0.597544	0.445266	0.522160
	H292	H	0.608061	0.442525	0.523090
	H293	H	0.600836	0.446870	0.507518
	O294	O	0.988780	0.034556	0.990948
	H295	H	0.988353	0.036600	0.991187
	H296	H	1.007499	0.023069	0.991956
	O297	O	-0.002377	-0.061502	0.033394
	H298	H	-0.002051	-0.059614	0.037013
	H299	H	-0.002820	-0.068773	0.037966
	O300	O	0.460914	0.414319	0.457693
	H301	H	0.456767	0.413992	0.457099
	H302	H	0.464765	0.411337	0.449702
	O303	O	0.528654	0.571579	0.507363
	H304	H	0.526546	0.561575	0.512374
	H305	H	0.525646	0.567784	0.507439
	O306	O	1.010817	0.034963	0.046154
	H307	H	1.023385	0.036113	0.043499
	H308	H	1.009803	0.040605	0.049487
	O309	O	-0.032606	-0.013085	0.991907
	H310	H	-0.038024	-0.005036	0.980661
	H311	H	-0.039774	-0.017461	1.000052
	O312	O	1.086203	1.025331	0.979753
	H313	H	1.098266	1.009768	0.987696
	H314	H	1.079396	1.015157	0.972516
	O315	O	0.513212	0.588307	0.503457
	H316	H	0.512633	0.592024	0.511602
	H317	H	0.517206	0.586145	0.505334
	O318	O	0.456544	0.581089	0.362605
	H319	H	0.454799	0.598200	0.368930
	H320	H	0.449933	0.586990	0.349188
	O321	O	0.049278	1.054602	1.007618
	H322	H	0.054279	1.048441	1.000227
	H323	H	0.047726	1.050296	0.998523
	O324	O	0.440849	0.431737	0.549923
	H325	H	0.431766	0.442248	0.551591
	H326	H	0.444840	0.431179	0.548629
	O327	O	0.416286	0.488051	0.489706
	H328	H	0.412230	0.482347	0.497860
	H329	H	0.422929	0.480957	0.496996
	O330	O	0.483781	0.491522	0.512550
	H331	H	0.475214	0.497725	0.513867
	H332	H	0.487367	0.482233	0.507567
	O333	O	0.488918	0.489755	0.421877
	H334	H	0.483037	0.492299	0.423188
	H335	H	0.492013	0.494072	0.420804
	O336	O	0.541297	0.496778	0.472600
	H337	H	0.529356	0.504191	0.474098
	H338	H	0.543185	0.495697	0.465571
	O339	O	1.043437	0.986571	0.006856
	H340	H	1.043757	0.993638	-0.007581
	H341	H	1.052484	0.974738	0.010475
	O342	O	0.494195	0.554566	0.500095
	H343	H	0.500157	0.558232	0.498423
	H344	H	0.492545	0.562901	0.503279
	O345	O	0.521401	0.475270	0.508511
	H346	H	0.511035	0.466800	0.503058
	H347	H	0.531140	0.461441	0.505982
	O348	O	0.068985	-0.013394	-0.037707
	H349	H	0.079137	-0.012802	-0.050143
	H350	H	0.062622	-0.013283	-0.024957
	O351	O	-0.449961	1.492669	1.521849
	H352	H	-0.455701	1.481253	1.518886
	H353	H	-0.455471	1.489145	1.534135
	O354	O	0.541722	0.554508	0.563326
	H355	H	0.537418	0.548824	0.564555
	H356	H	0.547470	0.549775	0.568237
	O357	O	0.011820	0.966797	0.939702
	H358	H	0.001286	0.965808	0.940911
	H359	H	0.009210	0.980936	0.941913
