data_Molecule from HDF5

_cell_length_a		16.509156
_cell_length_b		16.451420
_cell_length_c		16.461824
_cell_angle_alpha	90.011811
_cell_angle_beta	89.986025
_cell_angle_gamma	90.127813
_symmetry_space_group_name_H-M	'P 1'
_symmetry_Int_Tables_number		1

loop_
	_symmetry_equiv_pos_as_xyz
	x,y,z

loop_
	_atom_site_label
	_atom_site_type_symbol
	_atom_site_fract_x
	_atom_site_fract_y
	_atom_site_fract_z
	H0	H	0.400047	0.846211	0.722817
	H1	H	0.611552	0.162736	0.724448
	H2	H	0.613231	0.848291	0.278454
	H3	H	0.395379	0.159038	0.275846
	H4	H	0.730394	0.395824	0.844768
	H5	H	0.730090	0.610374	0.158899
	H6	H	0.287022	0.608253	0.845019
	H7	H	0.283708	0.396961	0.159150
	H8	H	0.848105	0.725259	0.394566
	H9	H	0.160777	0.727200	0.607670
	H10	H	0.848139	0.279571	0.609287
	H11	H	0.162047	0.281475	0.395597
	H12	H	0.847617	0.395541	0.726302
	H13	H	0.161125	0.608807	0.722452
	H14	H	0.848287	0.608469	0.279204
	H15	H	0.161692	0.396560	0.278469
	H16	H	0.403673	0.723182	0.844521
	H17	H	0.616445	0.729162	0.158354
	H18	H	0.614403	0.279663	0.844510
	H19	H	0.401728	0.281325	0.159550
	H20	H	0.729296	0.848509	0.394440
	H21	H	0.729863	0.161633	0.611806
	H22	H	0.283610	0.846077	0.606908
	H23	H	0.278358	0.157730	0.390475
	H24	H	0.899517	0.344848	0.223412
	H25	H	0.110863	0.662580	0.222911
	H26	H	0.108967	0.346591	0.781984
	H27	H	0.897817	0.661301	0.779888
	H28	H	0.227936	0.895561	0.343254
	H29	H	0.226544	0.108100	0.658036
	H30	H	0.782065	0.110964	0.344043
	H31	H	0.785289	0.899936	0.660232
	H32	H	0.348810	0.223035	0.898340
	H33	H	0.663521	0.228021	0.110797
	H34	H	0.349968	0.778786	0.109938
	H35	H	0.664744	0.783669	0.897670
	H36	H	0.349080	0.896164	0.225076
	H37	H	0.662045	0.114215	0.228975
	H38	H	0.347879	0.105158	0.783435
	H39	H	0.663987	0.899422	0.780922
	H40	H	0.899321	0.225955	0.342635
	H41	H	0.111080	0.225440	0.658407
	H42	H	0.110160	0.781515	0.343045
	H43	H	0.900413	0.782583	0.659571
	H44	H	0.226751	0.347038	0.898653
	H45	H	0.229306	0.662027	0.109983
	H46	H	0.781039	0.346553	0.110785
	H47	H	0.783061	0.660878	0.895256
	H48	H	0.415782	0.116058	0.587440
	H49	H	0.586014	0.894468	0.591707
	H50	H	0.588129	0.115888	0.413737
	H51	H	0.420857	0.889498	0.406704
	H52	H	0.594666	0.418691	0.112036
	H53	H	0.592403	0.593124	0.890767
	H54	H	0.418875	0.589466	0.115037
	H55	H	0.421575	0.412272	0.890289
	H56	H	0.118693	0.595723	0.412863
	H57	H	0.891553	0.598310	0.586418
	H58	H	0.119020	0.412598	0.597044
	H59	H	0.893630	0.416935	0.411549
	H60	H	0.115272	0.412313	0.585345
	H61	H	0.894427	0.587181	0.589001
	H62	H	0.116183	0.592219	0.415815
	H63	H	0.891598	0.414143	0.411486
	H64	H	0.421390	0.591722	0.115014
	H65	H	0.597605	0.595434	0.888394
	H66	H	0.591458	0.416551	0.112381
	H67	H	0.412532	0.411378	0.886729
	H68	H	0.591294	0.114156	0.421007
	H69	H	0.599378	0.893436	0.582547
	H70	H	0.413587	0.117821	0.591800
	H71	H	0.424065	0.895558	0.420613
	H72	H	0.913958	0.615746	0.087214
	H73	H	0.091783	0.391578	0.092941
	H74	H	0.095418	0.618860	0.909413
	H75	H	0.916601	0.390418	0.913413
	H76	H	0.089168	0.920331	0.609590
	H77	H	0.094323	0.089276	0.388531
	H78	H	0.919326	0.090639	0.612041
	H79	H	0.912300	0.912393	0.386517
	H80	H	0.620693	0.094695	0.910128
	H81	H	0.395594	0.095299	0.085172
	H82	H	0.614061	0.920300	0.082948
	H83	H	0.394262	0.916460	0.910861
	H84	H	0.618150	0.922257	0.095293
	H85	H	0.397805	0.085986	0.087968
	H86	H	0.619205	0.093287	0.915070
	H87	H	0.391232	0.911063	0.909324
	H88	H	0.918343	0.094692	0.613857
	H89	H	0.089965	0.091382	0.389243
	H90	H	0.091442	0.909276	0.614500
	H91	H	0.915535	0.922685	0.391395
	H92	H	0.094988	0.617201	0.914430
	H93	H	0.094196	0.392994	0.086198
	H94	H	0.919511	0.616716	0.094487
	H95	H	0.919457	0.391622	0.912899
	H96	H	0.418553	0.116453	0.592097
	H97	H	0.599721	0.887336	0.598159
	H98	H	0.595876	0.117500	0.415602
	H99	H	0.410240	0.889740	0.418054
	H100	H	0.594929	0.415012	0.114338
	H101	H	0.597178	0.589135	0.889963
	H102	H	0.418293	0.592212	0.116792
	H103	H	0.415356	0.420312	0.890251
	H104	H	0.117044	0.590489	0.411351
	H105	H	0.889060	0.593587	0.597448
	H106	H	0.114232	0.422546	0.591770
	H107	H	0.893683	0.414812	0.414701
	H108	H	0.922546	0.612429	0.086720
	H109	H	0.099114	0.390854	0.090760
	H110	H	0.099690	0.619520	0.913268
	H111	H	0.918141	0.391850	0.916309
	H112	H	0.100512	0.917874	0.614612
	H113	H	0.093420	0.094627	0.387354
	H114	H	0.915435	0.091233	0.613951
	H115	H	0.923451	0.913359	0.390327
	H116	H	0.619122	0.089820	0.910855
	H117	H	0.393554	0.092286	0.094737
	H118	H	0.619229	0.910697	0.089617
	H119	H	0.394090	0.912083	0.915185
	C120	C	0.383966	0.012024	0.622659
	C121	C	0.627442	0.996238	0.623889
	C122	C	0.625901	0.013011	0.382077
	C123	C	0.384070	0.994357	0.380369
	C124	C	0.627887	0.382532	0.009717
	C125	C	0.629148	0.625976	0.993190
	C126	C	0.386944	0.623965	0.011565
	C127	C	0.384671	0.382099	0.993514
	C128	C	0.013523	0.625046	0.380249
	C129	C	0.995576	0.625456	0.623106
	C130	C	0.012561	0.382266	0.624019
	C131	C	0.996599	0.382532	0.379971
	C132	C	0.884938	0.511386	0.122907
	C133	C	0.127856	0.495863	0.123525
	C134	C	0.127794	0.513653	0.880909
	C135	C	0.884957	0.495529	0.881482
	C136	C	0.126455	0.881997	0.509232
	C137	C	0.125785	0.124432	0.492555
	C138	C	0.884111	0.125719	0.509401
	C139	C	0.884053	0.883093	0.493182
	C140	C	0.514973	0.124395	0.880423
	C141	C	0.498571	0.125834	0.124132
	C142	C	0.514085	0.882868	0.122935
	C143	C	0.497629	0.881657	0.879939
	C144	C	0.382028	0.893367	0.682552
	C145	C	0.629557	0.115033	0.684620
	C146	C	0.630659	0.895183	0.319482
	C147	C	0.378524	0.111939	0.317056
	C148	C	0.689637	0.378409	0.891881
	C149	C	0.689984	0.628772	0.111689
	C150	C	0.326823	0.626507	0.892477
	C151	C	0.324135	0.378742	0.111972
	C152	C	0.895347	0.685168	0.376798
	C153	C	0.113554	0.686681	0.625789
	C154	C	0.894928	0.320320	0.627223
	C155	C	0.115132	0.321976	0.377581
	C156	C	0.894796	0.378086	0.685696
	C157	C	0.113863	0.627653	0.682862
	C158	C	0.895429	0.626779	0.319447
	C159	C	0.114973	0.379263	0.319460
	C160	C	0.385036	0.683646	0.892264
	C161	C	0.633226	0.687839	0.111270
	C162	C	0.632144	0.320265	0.891843
	C163	C	0.383000	0.321611	0.112314
	C164	C	0.688280	0.895338	0.377348
	C165	C	0.688405	0.114710	0.627989
	C166	C	0.324131	0.893272	0.624853
	C167	C	0.320250	0.111240	0.374214
	C168	C	0.881978	0.392428	0.183304
	C169	C	0.129934	0.614716	0.183849
	C170	C	0.128304	0.394050	0.821882
	C171	C	0.880838	0.614029	0.820340
	C172	C	0.187332	0.878257	0.390553
	C173	C	0.186473	0.126657	0.610764
	C174	C	0.822979	0.128584	0.390956
	C175	C	0.824598	0.881292	0.612503
	C176	C	0.396078	0.183451	0.879603
	C177	C	0.616043	0.187665	0.128311
	C178	C	0.396875	0.820000	0.127122
	C179	C	0.617142	0.823336	0.878963
	C180	C	0.396271	0.878448	0.184629
	C181	C	0.615325	0.130945	0.187442
	C182	C	0.395629	0.125265	0.822056
	C183	C	0.616582	0.880589	0.820375
	C184	C	0.881515	0.185734	0.390234
	C185	C	0.129028	0.185008	0.610995
	C186	C	0.128588	0.821361	0.390411
	C187	C	0.881823	0.822951	0.612362
	C188	C	0.186839	0.394353	0.879583
	C189	C	0.188803	0.614557	0.127176
	C190	C	0.822733	0.393308	0.127340
	C191	C	0.823616	0.613811	0.878024
	C192	C	0.408831	0.095344	0.597519
	C193	C	0.602335	0.913462	0.598174
	C194	C	0.599191	0.094504	0.408891
	C195	C	0.410843	0.912841	0.407349
	C196	C	0.601353	0.409160	0.091478
	C197	C	0.603292	0.599857	0.911151
	C198	C	0.412331	0.598527	0.094172
	C199	C	0.409508	0.407391	0.910736
	C200	C	0.095868	0.599912	0.406051
	C201	C	0.913032	0.600238	0.597931
	C202	C	0.094690	0.408290	0.598473
	C203	C	0.914396	0.408103	0.405372
	C204	C	0.911103	0.593511	0.096971
	C205	C	0.102375	0.413357	0.097375
	C206	C	0.103777	0.596776	0.905281
	C207	C	0.910715	0.412934	0.906739
	C208	C	0.100998	0.908279	0.591622
	C209	C	0.099931	0.099105	0.409909
	C210	C	0.910168	0.099693	0.591644
	C211	C	0.909877	0.908581	0.410790
	C212	C	0.598182	0.099590	0.904986
	C213	C	0.416807	0.098721	0.096936
	C214	C	0.595990	0.910124	0.096888
	C215	C	0.414790	0.906073	0.904839
	Zn216	Zn	0.505694	0.003168	0.751422
	Zn217	Zn	0.505977	0.003816	0.252280
	Zn218	Zn	0.756640	0.503099	0.001760
	Zn219	Zn	0.256435	0.505030	0.003212
	Zn220	Zn	0.004239	0.754251	0.501263
	Zn221	Zn	0.004915	0.254199	0.500985
	Zn222	Zn	0.004255	0.504392	0.753039
	Zn223	Zn	0.005880	0.503550	0.251385
	Zn224	Zn	0.506915	0.753425	0.002178
	Zn225	Zn	0.506843	0.253654	0.001488
	Zn226	Zn	0.755667	0.004835	0.502403
	Zn227	Zn	0.255203	0.002751	0.500782
	N228	N	0.418724	0.968294	0.681059
	N229	N	0.592266	0.040230	0.682049
	N230	N	0.592519	0.969313	0.322292
	N231	N	0.417790	0.038399	0.320810
	N232	N	0.687200	0.416087	0.966256
	N233	N	0.687776	0.591158	0.037267
	N234	N	0.327811	0.590157	0.967730
	N235	N	0.325087	0.415694	0.037187
	N236	N	0.969884	0.684296	0.413768
	N237	N	0.038900	0.685316	0.589208
	N238	N	0.969104	0.322781	0.589582
	N239	N	0.040431	0.323855	0.414463
	N240	N	0.969100	0.415793	0.683981
	N241	N	0.039440	0.590519	0.681367
	N242	N	0.970067	0.590247	0.321463
	N243	N	0.040462	0.416043	0.320726
	N244	N	0.421682	0.682096	0.967178
	N245	N	0.596290	0.686239	0.036535
	N246	N	0.594335	0.322744	0.966066
	N247	N	0.419688	0.323425	0.037486
	N248	N	0.685531	0.969552	0.415466
	N249	N	0.687317	0.039849	0.590945
	N250	N	0.325212	0.968244	0.588292
	N251	N	0.323468	0.037218	0.412570
	N252	N	0.919764	0.466978	0.180990
	N253	N	0.092597	0.540027	0.181583
	N254	N	0.092504	0.469355	0.822345
	N255	N	0.918254	0.539510	0.822545
	N256	N	0.186090	0.915132	0.465477
	N257	N	0.184791	0.089882	0.535855
	N258	N	0.824218	0.092464	0.466181
	N259	N	0.825781	0.917910	0.537441
	N260	N	0.471475	0.183046	0.915035
	N261	N	0.542183	0.184711	0.089980
	N262	N	0.471257	0.822630	0.089656
	N263	N	0.542218	0.823702	0.915150
	N264	N	0.470376	0.916795	0.182115
	N265	N	0.540681	0.093615	0.185359
	N266	N	0.470741	0.089500	0.822361
	N267	N	0.541178	0.916000	0.820744
	N268	N	0.918462	0.184221	0.465029
	N269	N	0.092033	0.183807	0.536320
	N270	N	0.091578	0.823423	0.465222
	N271	N	0.918136	0.824064	0.537277
	N272	N	0.186809	0.469747	0.915300
	N273	N	0.187648	0.539518	0.090578
	N274	N	0.824006	0.468347	0.090702
	N275	N	0.826060	0.539193	0.915448
	O276	O	0.532252	0.286910	0.287938
	H277	H	0.504122	0.281434	0.321123
	H278	H	0.528318	0.247531	0.259995
	O279	O	0.728688	0.278145	0.478999
	H280	H	0.763839	0.242907	0.470514
	H281	H	0.720526	0.289714	0.429208
	O282	O	1.430222	1.466269	0.450278
	H283	H	1.436199	1.468658	0.448394
	H284	H	1.429620	1.454879	0.459138
	O285	O	1.002425	-0.202989	-0.040599
	H286	H	0.992171	-0.205804	-0.044791
	H287	H	0.997724	-0.213312	-0.038358
	O288	O	0.035116	0.206358	0.212389
	H289	H	0.052504	0.203494	0.214238
	H290	H	0.036413	0.210934	0.228769
	O291	O	1.203964	0.853400	-0.195415
	H292	H	1.233774	0.818561	-0.222608
	H293	H	1.190668	0.854876	-0.172684
	O294	O	0.043373	1.046726	-0.138534
	H295	H	0.033576	1.031645	-0.140973
	H296	H	0.055000	1.033150	-0.139656
	O297	O	0.501634	0.487570	0.701690
	H298	H	0.510142	0.488505	0.681780
	H299	H	0.514784	0.497750	0.705493
	O300	O	0.461042	0.351891	0.480162
	H301	H	0.457473	0.353467	0.489841
	H302	H	0.456789	0.358004	0.493825
	O303	O	0.304830	0.304252	0.697879
	H304	H	0.316995	0.287539	0.719225
	H305	H	0.291801	0.317618	0.720053
	O306	O	0.081954	1.152036	1.005377
	H307	H	0.086719	1.160889	1.032434
	H308	H	0.066532	1.145699	1.000077
	O309	O	-0.020641	0.209195	0.015945
	H310	H	-0.034487	0.212760	0.027476
	H311	H	-0.028614	0.202131	0.014437
	O312	O	0.452775	0.440984	0.288729
	H313	H	0.460342	0.436981	0.302162
	H314	H	0.451815	0.418495	0.292260
	O315	O	0.218981	0.216741	1.031802
	H316	H	0.212061	0.211749	1.021630
	H317	H	0.237209	0.229122	1.030781
	O318	O	0.091545	1.200521	-0.190931
	H319	H	0.088514	1.170304	-0.197469
	H320	H	0.085422	1.200457	-0.172804
	O321	O	0.713546	0.483522	0.291021
	H322	H	0.701517	0.493909	0.271651
	H323	H	0.703371	0.495419	0.281298
	O324	O	0.688869	0.690761	0.687888
	H325	H	0.701344	0.680817	0.659819
	H326	H	0.685385	0.667804	0.677006
	O327	O	0.364128	0.573483	1.525894
	H328	H	0.353997	0.573044	1.519813
	H329	H	0.370442	0.561664	1.528616
	O330	O	0.795717	-0.011247	0.189548
	H331	H	0.805762	-0.038621	0.183307
	H332	H	0.779035	-0.021219	0.212304
	O333	O	1.095015	1.026123	0.930117
	H334	H	1.075893	1.016422	0.945198
	H335	H	1.079798	1.009778	0.938160
	O336	O	1.021549	-0.037798	1.009032
	H337	H	1.025970	-0.048446	1.004165
	H338	H	1.014817	-0.038928	1.017735
	O339	O	0.596502	0.438630	0.687908
	H340	H	0.576685	0.426811	0.688039
	H341	H	0.594530	0.429656	0.677216
	O342	O	0.504705	0.701875	0.501263
	H343	H	0.506294	0.712773	0.505537
	H344	H	0.509834	0.706509	0.499063
	O345	O	-0.038274	0.023392	0.110519
	H346	H	-0.026556	0.032883	0.112302
	H347	H	-0.041828	0.015249	0.107786
	O348	O	1.199016	0.197772	1.199031
	H349	H	1.185552	0.204984	1.166628
	H350	H	1.211655	0.172709	1.201592
	O351	O	0.963983	0.979462	-0.183513
	H352	H	0.945547	0.985311	-0.176125
	H353	H	0.968114	0.956650	-0.180325
	O354	O	0.476569	0.523065	0.561400
	H355	H	0.463450	0.512972	0.565071
	H356	H	0.478423	0.522982	0.571919
	O357	O	0.951565	1.020920	0.868380
	H358	H	0.950251	1.026128	0.841589
	H359	H	0.939655	1.025783	0.883415
	O360	O	0.402044	0.322840	0.377055
	H361	H	0.395601	0.329658	0.382273
	H362	H	0.384589	0.322731	0.394249
	O363	O	0.549677	0.299138	0.561954
	H364	H	0.562515	0.297115	0.563628
	H365	H	0.555856	0.294941	0.559182
	O366	O	0.820616	0.187700	0.815777
	H367	H	0.852684	0.197257	0.828766
	H368	H	0.821588	0.188586	0.844276
	O369	O	0.687486	0.679811	0.335409
	H370	H	0.684922	0.665410	0.345172
	H371	H	0.672050	0.662617	0.343419
	O372	O	0.693614	0.320659	0.322059
	H373	H	0.640210	0.310669	0.310092
	H374	H	0.703539	0.373914	0.308960
	O375	O	-0.206709	1.038105	0.992996
	H376	H	-0.202816	1.024907	0.990486
	H377	H	-0.203554	1.024732	1.009627
	O378	O	0.708871	0.521242	0.476915
	H379	H	0.704455	0.499257	0.477146
	H380	H	0.721399	0.498485	0.469523
	O381	O	0.888770	0.091382	0.165604
	H382	H	0.884656	0.075277	0.175335
	H383	H	0.884552	0.090237	0.160584
	O384	O	-0.173699	0.005595	0.786596
	H385	H	-0.160282	0.049989	0.791409
	H386	H	-0.193451	0.013101	0.764546
	O387	O	-0.207550	1.219421	0.979513
	H388	H	-0.214173	1.196174	0.998212
	H389	H	-0.232577	1.237861	0.984116
	O390	O	0.211532	-0.194868	0.935176
	H391	H	0.215240	-0.201025	0.955779
	H392	H	0.202454	-0.207008	0.926129
	O393	O	0.813297	0.816265	0.195152
	H394	H	0.798377	0.804693	0.166344
	H395	H	0.827502	0.802408	0.195616
	O396	O	0.286263	0.280522	0.524728
	H397	H	0.253067	0.247063	0.534394
	H398	H	0.295575	0.291585	0.571255
	O399	O	0.057697	0.924670	0.190444
	H400	H	0.057374	0.927540	0.190207
	H401	H	0.055865	0.931761	0.188539
	O402	O	0.221658	-0.099037	1.047416
	H403	H	0.220366	-0.097595	1.046647
	H404	H	0.223364	-0.092943	1.042883
	O405	O	-0.204700	-0.210802	0.028663
	H406	H	-0.211892	-0.188397	0.009652
	H407	H	-0.231033	-0.228959	0.020986
	O408	O	0.538483	0.670176	0.392770
	H409	H	0.531258	0.676409	0.404886
	H410	H	0.536221	0.695394	0.384199
	O411	O	0.716368	0.715394	0.527813
	H412	H	0.713287	0.692172	0.506995
	H413	H	0.735217	0.732383	0.519630
	O414	O	0.302684	0.472154	0.717220
	H415	H	0.305847	0.480719	0.725430
	H416	H	0.295858	0.457030	0.727481
	O417	O	0.279241	0.495198	0.505393
	H418	H	0.280532	0.472737	0.490459
	H419	H	0.270046	0.478996	0.500798
	O420	O	0.713898	0.458605	0.544579
	H421	H	0.721274	0.442740	0.545406
	H422	H	0.710021	0.438768	0.555357
	O423	O	-0.540280	0.694957	0.598692
	H424	H	-0.541587	0.693351	0.614230
	H425	H	-0.542375	0.691707	0.592997
	O426	O	1.160477	1.112482	0.954879
	H427	H	1.144920	1.101539	0.966794
	H428	H	1.156074	1.111018	0.937200
	O429	O	0.298082	0.513962	0.294158
	H430	H	0.322051	0.515560	0.289098
	H431	H	0.287387	0.524272	0.268959
	O432	O	0.805278	-0.083736	0.920499
	H433	H	0.817609	-0.059791	0.932266
	H434	H	0.798662	-0.078818	0.893282
	O435	O	0.210255	0.027261	0.206405
	H436	H	0.221289	0.020284	0.224377
	H437	H	0.209439	0.028781	0.202626
	O438	O	0.976330	-0.209004	0.215111
	H439	H	0.974303	-0.201481	0.221249
	H440	H	0.967740	-0.225161	0.233716
	O441	O	0.302041	0.666271	0.666765
	H442	H	0.321491	0.650996	0.665580
	H443	H	0.305691	0.636714	0.645436
	O444	O	0.174111	0.942648	0.795669
	H445	H	0.173062	0.922416	0.795139
	H446	H	0.182729	0.943152	0.777123
	O447	O	0.564310	0.576177	0.308873
	H448	H	0.545191	0.562004	0.311881
	H449	H	0.548925	0.599979	0.312955
	O450	O	0.371123	0.683810	0.307227
	H451	H	0.354738	0.679316	0.337203
	H452	H	0.377523	0.686658	0.302960
	O453	O	0.474576	0.286837	0.719077
	H454	H	0.470473	0.263708	0.741999
	H455	H	0.482231	0.291911	0.712868
	O456	O	0.663741	-0.421155	-0.365140
	H457	H	0.650051	-0.442078	-0.367359
	H458	H	0.676157	-0.423892	-0.357734
	O459	O	0.509241	0.688950	0.687244
	H460	H	0.519566	0.713794	0.714158
	H461	H	0.536760	0.683883	0.678043
	O462	O	0.302819	0.703404	0.431519
	H463	H	0.298890	0.679080	0.445811
	H464	H	0.289459	0.725095	0.452353
	O465	O	1.076673	-0.172550	-0.097061
	H466	H	1.089677	-0.172602	-0.081802
	H467	H	1.092887	-0.183679	-0.105063
