data_Molecule from HDF5

_cell_length_a		16.138990
_cell_length_b		16.153413
_cell_length_c		16.376745
_cell_angle_alpha	90.057300
_cell_angle_beta	89.959682
_cell_angle_gamma	90.237782
_symmetry_space_group_name_H-M	'P 1'
_symmetry_Int_Tables_number		1

loop_
	_symmetry_equiv_pos_as_xyz
	x,y,z

loop_
	_atom_site_label
	_atom_site_type_symbol
	_atom_site_fract_x
	_atom_site_fract_y
	_atom_site_fract_z
	H0	H	0.398215	0.840323	0.711018
	H1	H	0.601331	0.168671	0.710560
	H2	H	0.600243	0.840209	0.280531
	H3	H	0.400664	0.168351	0.279268
	H4	H	0.716435	0.407222	0.831266
	H5	H	0.718926	0.604747	0.158271
	H6	H	0.289619	0.600880	0.831710
	H7	H	0.287535	0.406344	0.158971
	H8	H	0.836562	0.715263	0.398425
	H9	H	0.167129	0.717916	0.592375
	H10	H	0.835789	0.293988	0.590537
	H11	H	0.167927	0.292648	0.399524
	H12	H	0.838209	0.404003	0.710044
	H13	H	0.166826	0.605148	0.710756
	H14	H	0.838830	0.604231	0.278984
	H15	H	0.167287	0.404340	0.280435
	H16	H	0.405507	0.718194	0.832267
	H17	H	0.601199	0.719571	0.159093
	H18	H	0.600420	0.289943	0.831700
	H19	H	0.404425	0.290205	0.158856
	H20	H	0.712371	0.838245	0.399377
	H21	H	0.713887	0.170511	0.591819
	H22	H	0.288072	0.839180	0.590468
	H23	H	0.290221	0.170461	0.399129
	H24	H	0.902058	0.339598	0.209592
	H25	H	0.104875	0.668133	0.211000
	H26	H	0.101847	0.339398	0.780568
	H27	H	0.902478	0.667992	0.780314
	H28	H	0.215299	0.907499	0.332272
	H29	H	0.216390	0.103569	0.658462
	H30	H	0.788485	0.101487	0.331938
	H31	H	0.787285	0.906498	0.659161
	H32	H	0.336119	0.215391	0.900102
	H33	H	0.667886	0.217551	0.091499
	H34	H	0.337391	0.791000	0.092113
	H35	H	0.668401	0.794940	0.899451
	H36	H	0.337009	0.903447	0.210027
	H37	H	0.665825	0.106260	0.211372
	H38	H	0.337454	0.103745	0.781279
	H39	H	0.665888	0.903248	0.778487
	H40	H	0.903729	0.219123	0.332416
	H41	H	0.098351	0.217859	0.658759
	H42	H	0.099974	0.789885	0.332277
	H43	H	0.903065	0.789210	0.658150
	H44	H	0.213241	0.338368	0.899898
	H45	H	0.216227	0.669736	0.092056
	H46	H	0.788974	0.339315	0.091675
	H47	H	0.792617	0.670048	0.900304
	H48	H	0.413972	0.122009	0.593560
	H49	H	0.594751	0.885826	0.591568
	H50	H	0.590738	0.121789	0.399183
	H51	H	0.414164	0.888596	0.399593
	H52	H	0.597675	0.403255	0.114027
	H53	H	0.586578	0.596422	0.883710
	H54	H	0.415431	0.598827	0.109854
	H55	H	0.403383	0.405751	0.876458
	H56	H	0.121518	0.596441	0.397730
	H57	H	0.880792	0.595447	0.602465
	H58	H	0.117340	0.416510	0.582575
	H59	H	0.886173	0.414060	0.405315
	H60	H	0.122425	0.415831	0.597193
	H61	H	0.884171	0.605659	0.580466
	H62	H	0.121316	0.601928	0.404111
	H63	H	0.884119	0.414667	0.396877
	H64	H	0.406184	0.602531	0.113663
	H65	H	0.599665	0.610849	0.875433
	H66	H	0.601935	0.417805	0.110508
	H67	H	0.406970	0.415171	0.880662
	H68	H	0.593322	0.120249	0.406082
	H69	H	0.588558	0.887972	0.588833
	H70	H	0.409967	0.121421	0.585440
	H71	H	0.406680	0.887538	0.406403
	H72	H	0.907923	0.625743	0.097791
	H73	H	0.090472	0.386108	0.095154
	H74	H	0.094736	0.620096	0.905315
	H75	H	0.914746	0.387581	0.903071
	H76	H	0.089830	0.900380	0.613276
	H77	H	0.095728	0.097652	0.378683
	H78	H	0.914347	0.091143	0.607629
	H79	H	0.905867	0.908611	0.378085
	H80	H	0.621514	0.103591	0.905141
	H81	H	0.386797	0.092389	0.085130
	H82	H	0.618934	0.919969	0.093461
	H83	H	0.383527	0.910734	0.901606
	H84	H	0.622874	0.907826	0.093427
	H85	H	0.383052	0.094500	0.094859
	H86	H	0.616834	0.090964	0.905658
	H87	H	0.384654	0.911452	0.903153
	H88	H	0.911274	0.109953	0.613453
	H89	H	0.094297	0.099165	0.379463
	H90	H	0.105914	0.914481	0.613702
	H91	H	0.906524	0.911215	0.379491
	H92	H	0.100404	0.623719	0.901077
	H93	H	0.091909	0.388806	0.083175
	H94	H	0.922290	0.618749	0.088283
	H95	H	0.906100	0.386450	0.904207
	H96	H	0.404652	0.124497	0.592345
	H97	H	0.594958	0.887659	0.584920
	H98	H	0.598229	0.123848	0.401152
	H99	H	0.404610	0.883829	0.397849
	H100	H	0.588483	0.413255	0.107756
	H101	H	0.606242	0.591251	0.879352
	H102	H	0.406748	0.592440	0.110788
	H103	H	0.413909	0.406723	0.879550
	H104	H	0.118260	0.593453	0.404870
	H105	H	0.890036	0.582246	0.584485
	H106	H	0.122868	0.403127	0.588365
	H107	H	0.883113	0.406713	0.400817
	H108	H	0.905888	0.621005	0.079823
	H109	H	0.101477	0.384020	0.089580
	H110	H	0.093455	0.622820	0.898053
	H111	H	0.910016	0.384739	0.896794
	H112	H	0.086740	0.920170	0.606307
	H113	H	0.096706	0.100145	0.378452
	H114	H	0.895892	0.096004	0.614586
	H115	H	0.908195	0.909534	0.379065
	H116	H	0.622062	0.096098	0.894201
	H117	H	0.382652	0.102140	0.087287
	H118	H	0.619171	0.912854	0.083277
	H119	H	0.384114	0.912192	0.901956
	C120	C	0.379949	0.013367	0.617469
	C121	C	0.622249	0.996067	0.616901
	C122	C	0.622501	0.012814	0.374099
	C123	C	0.380170	0.995789	0.373547
	C124	C	0.624587	0.382616	0.003124
	C125	C	0.625615	0.627659	0.987420
	C126	C	0.381246	0.625915	0.003771
	C127	C	0.380277	0.381866	0.987267
	C128	C	0.011092	0.625200	0.374081
	C129	C	0.993462	0.624906	0.617535
	C130	C	0.011272	0.383500	0.616914
	C131	C	0.994070	0.383238	0.373654
	C132	C	0.882028	0.512888	0.116755
	C133	C	0.124120	0.495651	0.117207
	C134	C	0.123680	0.512675	0.873860
	C135	C	0.881795	0.495193	0.873834
	C136	C	0.123012	0.882913	0.503749
	C137	C	0.123547	0.126949	0.487069
	C138	C	0.879088	0.126906	0.503885
	C139	C	0.878790	0.881788	0.486681
	C140	C	0.510960	0.125399	0.874424
	C141	C	0.493040	0.125863	0.117288
	C142	C	0.510811	0.883997	0.117354
	C143	C	0.493459	0.883199	0.873839
	C144	C	0.379529	0.889410	0.672542
	C145	C	0.620705	0.119900	0.672001
	C146	C	0.620459	0.889059	0.318702
	C147	C	0.381162	0.119610	0.317772
	C148	C	0.679022	0.386107	0.880081
	C149	C	0.680676	0.624771	0.109852
	C150	C	0.327153	0.622171	0.880435
	C151	C	0.325331	0.385362	0.110115
	C152	C	0.886182	0.678400	0.377579
	C153	C	0.117868	0.680642	0.613815
	C154	C	0.885772	0.330222	0.612330
	C155	C	0.118373	0.329189	0.377774
	C156	C	0.887014	0.384959	0.671710
	C157	C	0.117826	0.624221	0.672095
	C158	C	0.887518	0.623600	0.317927
	C159	C	0.118144	0.384650	0.318661
	C160	C	0.384810	0.680261	0.880689
	C161	C	0.622565	0.682330	0.110185
	C162	C	0.621391	0.327701	0.880516
	C163	C	0.383386	0.327680	0.110088
	C164	C	0.676154	0.888167	0.377756
	C165	C	0.676866	0.120676	0.613068
	C166	C	0.324797	0.888746	0.612596
	C167	C	0.326603	0.120690	0.377242
	C168	C	0.882824	0.388637	0.171488
	C169	C	0.123209	0.619432	0.172194
	C170	C	0.121669	0.388655	0.818565
	C171	C	0.883434	0.619159	0.818941
	C172	C	0.177879	0.885897	0.380848
	C173	C	0.178751	0.124160	0.609667
	C174	C	0.825565	0.122940	0.380799
	C175	C	0.824585	0.885520	0.610150
	C176	C	0.385709	0.178967	0.878539
	C177	C	0.618136	0.180551	0.113324
	C178	C	0.386620	0.828373	0.113442
	C179	C	0.618473	0.830344	0.877620
	C180	C	0.386303	0.884512	0.171849
	C181	C	0.617079	0.125586	0.172825
	C182	C	0.386276	0.123143	0.819882
	C183	C	0.617053	0.884526	0.817510
	C184	C	0.883000	0.181168	0.381016
	C185	C	0.120218	0.181253	0.609767
	C186	C	0.120033	0.828089	0.380706
	C187	C	0.881870	0.827049	0.609670
	C188	C	0.177007	0.388035	0.877788
	C189	C	0.179069	0.620227	0.113505
	C190	C	0.826699	0.388349	0.112970
	C191	C	0.829076	0.620493	0.878723
	C192	C	0.402675	0.100212	0.596552
	C193	C	0.599457	0.909337	0.594937
	C194	C	0.600542	0.099674	0.395831
	C195	C	0.401996	0.909126	0.394964
	C196	C	0.602722	0.405006	0.088821
	C197	C	0.603871	0.606029	0.901702
	C198	C	0.403065	0.604323	0.089273
	C199	C	0.401703	0.403092	0.901115
	C200	C	0.097915	0.603674	0.395738
	C201	C	0.907194	0.601386	0.595702
	C202	C	0.098417	0.405443	0.595705
	C203	C	0.906789	0.405434	0.394828
	C204	C	0.905025	0.599480	0.095065
	C205	C	0.101453	0.408781	0.095614
	C206	C	0.102244	0.599845	0.895092
	C207	C	0.903650	0.408640	0.895103
	C208	C	0.100623	0.904919	0.589136
	C209	C	0.101873	0.105238	0.401051
	C210	C	0.900602	0.105349	0.589800
	C211	C	0.900279	0.903363	0.401007
	C212	C	0.597619	0.103565	0.895454
	C213	C	0.406472	0.103167	0.095678
	C214	C	0.597813	0.906728	0.096148
	C215	C	0.406438	0.904974	0.895844
	Zn216	Zn	0.501349	0.003920	0.745847
	Zn217	Zn	0.500983	0.004736	0.245607
	Zn218	Zn	0.754096	0.504649	-0.004777
	Zn219	Zn	0.251478	0.504086	-0.004485
	Zn220	Zn	0.001551	0.752823	0.495552
	Zn221	Zn	0.001397	0.255976	0.495337
	Zn222	Zn	0.002488	0.503826	0.745693
	Zn223	Zn	0.002857	0.504092	0.245395
	Zn224	Zn	0.503172	0.756084	-0.004493
	Zn225	Zn	0.502231	0.253325	-0.004619
	Zn226	Zn	0.750370	0.004366	0.495459
	Zn227	Zn	0.252300	0.005130	0.494994
	N228	N	0.413195	0.967739	0.675568
	N229	N	0.587325	0.041426	0.674312
	N230	N	0.587595	0.967521	0.316578
	N231	N	0.413812	0.041015	0.315308
	N232	N	0.681148	0.419574	0.957463
	N233	N	0.682864	0.591534	0.032408
	N234	N	0.324745	0.589049	0.957856
	N235	N	0.323462	0.418405	0.032601
	N236	N	0.964065	0.679532	0.411696
	N237	N	0.039767	0.680764	0.580174
	N238	N	0.964066	0.329132	0.578954
	N239	N	0.040028	0.328147	0.411043
	N240	N	0.965984	0.417370	0.674640
	N241	N	0.039439	0.590424	0.674783
	N242	N	0.966172	0.591236	0.315602
	N243	N	0.039711	0.417574	0.316121
	N244	N	0.417466	0.683093	0.958246
	N245	N	0.589083	0.684163	0.033088
	N246	N	0.588175	0.325662	0.957956
	N247	N	0.416711	0.325531	0.032827
	N248	N	0.677477	0.966229	0.411425
	N249	N	0.677757	0.042659	0.579456
	N250	N	0.324851	0.966811	0.579000
	N251	N	0.325713	0.042807	0.411169
	N252	N	0.916235	0.467289	0.174192
	N253	N	0.089971	0.540865	0.174811
	N254	N	0.089372	0.467341	0.816052
	N255	N	0.915352	0.540427	0.815795
	N256	N	0.179656	0.919571	0.457921
	N257	N	0.180962	0.091334	0.532057
	N258	N	0.823138	0.089981	0.458127
	N259	N	0.822462	0.918706	0.532717
	N260	N	0.463936	0.180397	0.911742
	N261	N	0.540128	0.180883	0.079511
	N262	N	0.464970	0.827955	0.080076
	N263	N	0.540639	0.829416	0.911867
	N264	N	0.464501	0.918355	0.174299
	N265	N	0.538533	0.092077	0.175369
	N266	N	0.464902	0.090510	0.817006
	N267	N	0.538138	0.916446	0.815086
	N268	N	0.915673	0.183666	0.458484
	N269	N	0.086677	0.183157	0.532634
	N270	N	0.086747	0.826039	0.458268
	N271	N	0.914659	0.824477	0.532169
	N272	N	0.178339	0.466006	0.911416
	N273	N	0.179468	0.542154	0.079879
	N274	N	0.826182	0.466451	0.079588
	N275	N	0.827808	0.542386	0.912202
	O276	O	-0.405208	-0.473204	1.495765
	H277	H	-0.403056	-0.479290	1.496806
	H278	H	-0.409567	-0.477135	1.499854
	O279	O	0.576612	0.553012	0.545524
	H280	H	0.577590	0.541839	0.539866
	H281	H	0.572465	0.555470	0.558497
	O282	O	0.552196	0.522328	0.482656
	H283	H	0.551431	0.523719	0.478631
	H284	H	0.557997	0.529300	0.477296
	O285	O	0.573631	0.491929	0.497554
	H286	H	0.572006	0.496913	0.500448
	H287	H	0.574818	0.491102	0.496187
	O288	O	0.538151	0.572939	0.505595
	H289	H	0.541573	0.575786	0.509755
	H290	H	0.544119	0.574663	0.507250
	O291	O	-0.014016	0.966779	0.996185
	H292	H	-0.009564	0.968262	0.996755
	H293	H	-0.017340	0.965334	0.997687
	O294	O	0.547066	0.553820	0.459872
	H295	H	0.551952	0.562994	0.458862
	H296	H	0.550273	0.558004	0.459689
	O297	O	0.981235	-0.048813	0.006128
	H298	H	0.985328	-0.051096	0.009718
	H299	H	0.976222	-0.052373	0.006188
