data_Molecule from HDF5

_cell_length_a		16.582932
_cell_length_b		16.180693
_cell_length_c		16.071533
_cell_angle_alpha	89.918291
_cell_angle_beta	90.071921
_cell_angle_gamma	90.064057
_symmetry_space_group_name_H-M	'P 1'
_symmetry_Int_Tables_number		1

loop_
	_symmetry_equiv_pos_as_xyz
	x,y,z

loop_
	_atom_site_label
	_atom_site_type_symbol
	_atom_site_fract_x
	_atom_site_fract_y
	_atom_site_fract_z
	H0	H	0.393542	0.823297	0.728060
	H1	H	0.589632	0.150643	0.725987
	H2	H	0.586293	0.821676	0.301027
	H3	H	0.392163	0.150159	0.298041
	H4	H	0.713132	0.381816	0.849888
	H5	H	0.715418	0.595495	0.172718
	H6	H	0.272819	0.596129	0.849927
	H7	H	0.272903	0.381245	0.173415
	H8	H	0.832660	0.703954	0.410567
	H9	H	0.150822	0.707498	0.617081
	H10	H	0.832219	0.267795	0.614817
	H11	H	0.151105	0.265685	0.408761
	H12	H	0.833139	0.384930	0.731580
	H13	H	0.152765	0.587355	0.729769
	H14	H	0.833580	0.588197	0.292933
	H15	H	0.152219	0.385142	0.294517
	H16	H	0.394965	0.701264	0.847021
	H17	H	0.591408	0.700214	0.177026
	H18	H	0.593185	0.271648	0.848058
	H19	H	0.393880	0.272397	0.176911
	H20	H	0.711720	0.826249	0.404757
	H21	H	0.712834	0.147339	0.619526
	H22	H	0.271246	0.826093	0.620609
	H23	H	0.270204	0.147131	0.404974
	H24	H	0.896817	0.322827	0.225745
	H25	H	0.093182	0.650553	0.227438
	H26	H	0.089315	0.322053	0.799980
	H27	H	0.895474	0.650546	0.798014
	H28	H	0.211915	0.879184	0.351414
	H29	H	0.211448	0.093339	0.674106
	H30	H	0.771483	0.092506	0.349721
	H31	H	0.770794	0.880367	0.674132
	H32	H	0.333881	0.206109	0.909844
	H33	H	0.651270	0.207800	0.118185
	H34	H	0.333702	0.765430	0.115589
	H35	H	0.651972	0.768058	0.909503
	H36	H	0.331115	0.885694	0.228857
	H37	H	0.651117	0.088478	0.233139
	H38	H	0.332637	0.088089	0.794797
	H39	H	0.651570	0.885006	0.793183
	H40	H	0.891219	0.201410	0.347311
	H41	H	0.088239	0.199375	0.677464
	H42	H	0.089049	0.772840	0.347992
	H43	H	0.890578	0.770626	0.677085
	H44	H	0.214916	0.326480	0.903910
	H45	H	0.213212	0.648779	0.116743
	H46	H	0.772059	0.327147	0.120992
	H47	H	0.771128	0.646529	0.902288
	H48	H	0.398822	0.103489	0.601198
	H49	H	0.589099	0.870220	0.596413
	H50	H	0.586935	0.107725	0.414430
	H51	H	0.401629	0.871687	0.425906
	H52	H	0.584228	0.396375	0.130088
	H53	H	0.582798	0.589545	0.891889
	H54	H	0.399322	0.572380	0.128849
	H55	H	0.399591	0.403824	0.895690
	H56	H	0.104947	0.575565	0.423342
	H57	H	0.878891	0.580563	0.599768
	H58	H	0.104803	0.389960	0.598981
	H59	H	0.874980	0.389984	0.415183
	H60	H	0.103951	0.398544	0.605281
	H61	H	0.880535	0.573179	0.605195
	H62	H	0.107415	0.580517	0.417697
	H63	H	0.881065	0.392460	0.427478
	H64	H	0.405622	0.573693	0.126948
	H65	H	0.597376	0.569645	0.892399
	H66	H	0.587450	0.402339	0.128935
	H67	H	0.407438	0.398768	0.896139
	H68	H	0.572208	0.099131	0.424544
	H69	H	0.582797	0.868510	0.607638
	H70	H	0.400078	0.102914	0.600523
	H71	H	0.392712	0.869095	0.425734
	H72	H	0.904115	0.603807	0.103601
	H73	H	0.085657	0.370360	0.105517
	H74	H	0.086446	0.605552	0.916871
	H75	H	0.901620	0.369330	0.922176
	H76	H	0.080770	0.905414	0.626641
	H77	H	0.080643	0.073720	0.396529
	H78	H	0.895319	0.082311	0.632886
	H79	H	0.906693	0.892166	0.395899
	H80	H	0.606928	0.081442	0.920518
	H81	H	0.378698	0.078728	0.105841
	H82	H	0.604509	0.890831	0.098765
	H83	H	0.377428	0.893032	0.916674
	H84	H	0.603337	0.901651	0.105845
	H85	H	0.378372	0.082030	0.103373
	H86	H	0.605751	0.078191	0.922461
	H87	H	0.379374	0.890132	0.924086
	H88	H	0.894812	0.067988	0.627814
	H89	H	0.082655	0.077196	0.393648
	H90	H	0.078027	0.895367	0.629674
	H91	H	0.891744	0.895778	0.392134
	H92	H	0.080151	0.601077	0.925039
	H93	H	0.082298	0.373203	0.098447
	H94	H	0.904130	0.602534	0.097878
	H95	H	0.903847	0.372336	0.926117
	H96	H	0.398873	0.103386	0.599259
	H97	H	0.577318	0.873106	0.597353
	H98	H	0.588570	0.102078	0.433403
	H99	H	0.398103	0.867743	0.417483
	H100	H	0.581190	0.401091	0.127519
	H101	H	0.575047	0.568286	0.900636
	H102	H	0.401436	0.578626	0.130228
	H103	H	0.400081	0.394250	0.892855
	H104	H	0.106146	0.583615	0.424901
	H105	H	0.876586	0.580424	0.607923
	H106	H	0.108430	0.389912	0.608874
	H107	H	0.880806	0.402566	0.417932
	H108	H	0.899458	0.604072	0.099761
	H109	H	0.089959	0.370140	0.098220
	H110	H	0.091138	0.603172	0.927564
	H111	H	0.899093	0.370454	0.926456
	H112	H	0.088028	0.899204	0.631332
	H113	H	0.084832	0.073960	0.394750
	H114	H	0.908079	0.075801	0.626193
	H115	H	0.901481	0.906881	0.399258
	H116	H	0.606049	0.077830	0.918149
	H117	H	0.379613	0.078881	0.101706
	H118	H	0.608556	0.891151	0.110936
	H119	H	0.380677	0.898000	0.922440
	C120	C	0.369990	-0.004152	0.632963
	C121	C	0.613012	0.977725	0.632739
	C122	C	0.612097	-0.004552	0.392265
	C123	C	0.368516	0.977246	0.391451
	C124	C	0.614581	0.367521	0.020982
	C125	C	0.615477	0.607704	1.002814
	C126	C	0.372831	0.607054	0.020476
	C127	C	0.372261	0.366874	1.003052
	C128	C	0.000908	0.609776	0.390246
	C129	C	0.983949	0.609069	0.635085
	C130	C	0.000502	0.363269	0.634814
	C131	C	0.984257	0.363926	0.389725
	C132	C	0.872247	0.496045	0.132815
	C133	C	0.115795	0.478641	0.132791
	C134	C	0.115223	0.495680	0.891384
	C135	C	0.871826	0.477983	0.891986
	C136	C	0.112570	0.867178	0.521665
	C137	C	0.112366	0.106475	0.503346
	C138	C	0.869029	0.107374	0.520925
	C139	C	0.869588	0.866248	0.503509
	C140	C	0.500988	0.109678	0.890000
	C141	C	0.484020	0.110081	0.135202
	C142	C	0.500316	0.863607	0.135192
	C143	C	0.484219	0.864028	0.889893
	C144	C	0.372218	0.872780	0.690696
	C145	C	0.610619	0.101219	0.689015
	C146	C	0.608988	0.871847	0.336616
	C147	C	0.371085	0.100720	0.334783
	C148	C	0.673418	0.364257	0.898610
	C149	C	0.674642	0.611623	0.124781
	C150	C	0.314015	0.610855	0.898105
	C151	C	0.313406	0.363963	0.125439
	C152	C	0.880848	0.666212	0.390414
	C153	C	0.103506	0.667895	0.635722
	C154	C	0.880217	0.306360	0.634487
	C155	C	0.103612	0.305461	0.389673
	C156	C	0.880501	0.364997	0.692400
	C157	C	0.104358	0.608037	0.692054
	C158	C	0.881283	0.608312	0.332115
	C159	C	0.104485	0.365036	0.332908
	C160	C	0.374379	0.664026	0.896664
	C161	C	0.613314	0.664330	0.126605
	C162	C	0.613484	0.309670	0.897544
	C163	C	0.373871	0.310220	0.127184
	C164	C	0.671048	0.873959	0.388900
	C165	C	0.671969	0.099482	0.636043
	C166	C	0.311468	0.874252	0.636761
	C167	C	0.310587	0.099222	0.388232
	C168	C	0.874641	0.372777	0.189503
	C169	C	0.114270	0.601275	0.190012
	C170	C	0.111510	0.371958	0.835957
	C171	C	0.873669	0.600797	0.834434
	C172	C	0.171508	0.863051	0.399409
	C173	C	0.171024	0.109929	0.625734
	C174	C	0.810812	0.109942	0.398371
	C175	C	0.810819	0.863115	0.625879
	C176	C	0.381451	0.167437	0.890141
	C177	C	0.603802	0.168089	0.136483
	C178	C	0.380869	0.805307	0.134611
	C179	C	0.604141	0.806785	0.890132
	C180	C	0.379643	0.865037	0.191317
	C181	C	0.603600	0.109000	0.194169
	C182	C	0.380786	0.108295	0.833184
	C183	C	0.603945	0.865157	0.832178
	C184	C	0.870467	0.164273	0.397118
	C185	C	0.109748	0.162741	0.627517
	C186	C	0.110746	0.809511	0.397979
	C187	C	0.870605	0.808539	0.627232
	C188	C	0.174008	0.374216	0.887870
	C189	C	0.174001	0.600394	0.134948
	C190	C	0.812687	0.374953	0.137288
	C191	C	0.811937	0.598896	0.886593
	C192	C	0.392738	0.081074	0.607821
	C193	C	0.589910	0.892706	0.607750
	C194	C	0.589275	0.080807	0.416943
	C195	C	0.390960	0.891940	0.415781
	C196	C	0.591112	0.392628	0.106508
	C197	C	0.591990	0.582998	0.917252
	C198	C	0.395547	0.582045	0.106514
	C199	C	0.395624	0.391739	0.917269
	C200	C	0.084478	0.586504	0.414743
	C201	C	0.900500	0.585097	0.611145
	C202	C	0.084003	0.386183	0.611209
	C203	C	0.900846	0.387981	0.413317
	C204	C	0.895749	0.581229	0.107785
	C205	C	0.092620	0.393440	0.107937
	C206	C	0.092642	0.581138	0.915942
	C207	C	0.894685	0.392872	0.917551
	C208	C	0.089039	0.892595	0.607003
	C209	C	0.089318	0.081939	0.417217
	C210	C	0.892438	0.082659	0.606880
	C211	C	0.893109	0.891148	0.417957
	C212	C	0.584679	0.085968	0.913634
	C213	C	0.400668	0.086634	0.110834
	C214	C	0.583728	0.887681	0.111996
	C215	C	0.400876	0.887029	0.914002
	Zn216	Zn	0.492219	-0.012772	0.760267
	Zn217	Zn	0.491197	-0.013418	0.264685
	Zn218	Zn	0.743600	0.487430	0.012525
	Zn219	Zn	0.244196	0.487253	0.011470
	Zn220	Zn	-0.008377	0.739778	0.513122
	Zn221	Zn	-0.008601	0.233538	0.511700
	Zn222	Zn	-0.006897	0.486456	0.764300
	Zn223	Zn	-0.006304	0.486961	0.260519
	Zn224	Zn	0.492515	0.733894	0.011953
	Zn225	Zn	0.493588	0.239403	0.012082
	Zn226	Zn	0.741371	-0.013187	0.511727
	Zn227	Zn	0.241002	-0.013069	0.512518
	N228	N	0.407808	0.949496	0.688648
	N229	N	0.574805	0.024595	0.687148
	N230	N	0.573128	0.948353	0.338625
	N231	N	0.406474	0.023863	0.336444
	N232	N	0.674368	0.399297	0.976584
	N233	N	0.676324	0.577522	0.046673
	N234	N	0.312801	0.576030	0.976314
	N235	N	0.312149	0.398408	0.047183
	N236	N	0.956334	0.667345	0.425784
	N237	N	0.027488	0.668966	0.601292
	N238	N	0.955684	0.305070	0.599429
	N239	N	0.027874	0.304664	0.424276
	N240	N	0.956131	0.399894	0.692681
	N241	N	0.029180	0.572146	0.691665
	N242	N	0.957132	0.574066	0.331714
	N243	N	0.029262	0.400642	0.332813
	N244	N	0.410286	0.661745	0.973735
	N245	N	0.577144	0.662068	0.049667
	N246	N	0.577831	0.311490	0.974612
	N247	N	0.409719	0.311916	0.050080
	N248	N	0.672912	0.951958	0.422781
	N249	N	0.673749	0.021747	0.601921
	N250	N	0.309967	0.951765	0.601579
	N251	N	0.308706	0.021475	0.422584
	N252	N	0.910962	0.449074	0.186783
	N253	N	0.078773	0.524566	0.188696
	N254	N	0.075950	0.448535	0.837908
	N255	N	0.910233	0.524718	0.837619
	N256	N	0.172848	0.897880	0.477462
	N257	N	0.172760	0.075673	0.547348
	N258	N	0.809953	0.075225	0.476437
	N259	N	0.809959	0.898297	0.547878
	N260	N	0.457257	0.168265	0.924944
	N261	N	0.528544	0.168994	0.100829
	N262	N	0.456834	0.804020	0.100636
	N263	N	0.528808	0.806002	0.925480
	N264	N	0.454899	0.900883	0.191565
	N265	N	0.528107	0.073643	0.193588
	N266	N	0.456150	0.073087	0.833104
	N267	N	0.528447	0.900003	0.831886
	N268	N	0.906066	0.162750	0.474419
	N269	N	0.074021	0.160690	0.550319
	N270	N	0.074766	0.811994	0.474964
	N271	N	0.906388	0.810255	0.550208
	N272	N	0.176518	0.452280	0.921577
	N273	N	0.175307	0.522826	0.100181
	N274	N	0.810846	0.452875	0.102915
	N275	N	0.810761	0.521420	0.921808
	O276	O	0.420397	0.525584	0.345984
	H277	H	0.431633	0.537860	0.356772
	H278	H	0.423463	0.536045	0.336169
	O279	O	0.163411	0.077841	0.012930
	H280	H	0.160243	0.057885	0.023001
	H281	H	0.169479	0.064954	0.009294
	O282	O	0.908495	0.086226	0.974437
	H283	H	0.905600	0.094173	0.963187
	H284	H	0.910430	0.068262	0.970099
	O285	O	0.434589	0.558040	0.635291
	H286	H	0.429771	0.576838	0.633296
	H287	H	0.425515	0.549665	0.635776
	O288	O	1.065714	1.011043	1.010118
	H289	H	1.072641	1.007328	1.021089
	H290	H	1.061213	1.013140	1.024756
	O291	O	0.108235	1.127998	-0.091914
	H292	H	0.118731	1.115731	-0.086755
	H293	H	0.094255	1.139042	-0.080190
	O294	O	0.976253	0.863569	1.048657
	H295	H	0.979468	0.875475	1.059282
	H296	H	0.968514	0.870116	1.051429
	O297	O	0.234017	0.729013	0.214657
	H298	H	0.250022	0.731534	0.224710
	H299	H	0.228005	0.715316	0.207185
	O300	O	0.534648	0.602202	0.474580
	H301	H	0.546547	0.590518	0.482460
	H302	H	0.530851	0.611485	0.473773
	O303	O	0.368328	0.555352	0.516619
	H304	H	0.365324	0.546157	0.515665
	H305	H	0.357742	0.545309	0.517325
	O306	O	0.592212	0.329868	0.520281
	H307	H	0.578904	0.330909	0.528318
	H308	H	0.601920	0.326632	0.518950
	O309	O	0.561082	0.485906	0.563861
	H310	H	0.534392	0.490438	0.558191
	H311	H	0.570676	0.475391	0.569923
	O312	O	-0.187625	0.136673	-0.002950
	H313	H	-0.200534	0.145601	-0.014984
	H314	H	-0.192284	0.126337	-0.003301
	O315	O	1.067961	0.868906	0.015049
	H316	H	1.070867	0.868073	0.007351
	H317	H	1.062972	0.864105	0.011283
	O318	O	-0.568021	1.511605	0.356887
	H319	H	-0.560278	1.508987	0.345462
	H320	H	-0.570025	1.498868	0.352225
	O321	O	0.889081	1.018461	0.149457
	H322	H	0.876877	1.007888	0.146611
	H323	H	0.888488	1.015213	0.139068
	O324	O	-0.124891	1.161108	-0.034520
	H325	H	-0.145540	1.183556	-0.042934
	H326	H	-0.116671	1.160814	-0.053526
	O327	O	0.404362	0.601322	0.477754
	H328	H	0.422770	0.608182	0.461461
	H329	H	0.398108	0.610364	0.466466
	O330	O	0.586712	-0.486709	1.594502
	H331	H	0.580599	-0.487094	1.611619
	H332	H	0.596423	-0.480054	1.600889
	O333	O	0.079173	-0.030599	1.050409
	H334	H	0.073950	-0.032799	1.041089
	H335	H	0.061210	-0.038109	1.048804
	O336	O	0.613689	0.532081	0.471066
	H337	H	0.627364	0.519681	0.467696
	H338	H	0.612809	0.531485	0.475106
	O339	O	0.675135	-0.509042	0.435100
	H340	H	0.674519	-0.516631	0.427619
	H341	H	0.676566	-0.516072	0.439865
	O342	O	-0.077889	-0.034516	0.016854
	H343	H	-0.068294	-0.043508	-0.000918
	H344	H	-0.059171	-0.023717	0.030013
	O345	O	1.175386	-0.105683	1.058170
	H346	H	1.167235	-0.105304	1.060220
	H347	H	1.184217	-0.115892	1.066086
	O348	O	1.059142	0.818568	-0.077537
	H349	H	1.058972	0.817619	-0.061477
	H350	H	1.054373	0.809810	-0.081908
	O351	O	0.552864	0.431088	0.625938
	H352	H	0.560927	0.428937	0.620925
	H353	H	0.545330	0.431071	0.633375
	O354	O	0.939684	-0.180160	1.150078
	H355	H	0.945310	-0.172011	1.154266
	H356	H	0.926545	-0.183489	1.174211
	O357	O	0.364225	0.478666	0.442484
	H358	H	0.360458	0.476807	0.440077
	H359	H	0.362902	0.482679	0.440385
	O360	O	0.411080	0.410435	0.622295
	H361	H	0.408111	0.419958	0.625629
	H362	H	0.402090	0.405959	0.632004
	O363	O	0.072156	0.912141	0.858042
	H364	H	0.062922	0.910269	0.865904
	H365	H	0.082681	0.921823	0.857911
	O366	O	0.490497	0.476572	0.412717
	H367	H	0.494787	0.478047	0.404840
	H368	H	0.490792	0.487601	0.416173
	O369	O	-0.053100	1.158797	-0.045715
	H370	H	-0.056573	1.137426	-0.049624
	H371	H	-0.055257	1.161271	-0.056131
	O372	O	1.558247	0.579057	0.582001
	H373	H	1.555111	0.580807	0.583416
	H374	H	1.553408	0.575979	0.591286
	O375	O	0.796584	-0.214249	0.078576
	H376	H	0.795680	-0.198713	0.091872
	H377	H	0.774407	-0.231246	0.069757
	O378	O	1.628750	1.596954	-0.421013
	H379	H	1.618648	1.594933	-0.413770
	H380	H	1.643476	1.595625	-0.414672
	O381	O	0.867448	-0.112692	0.185592
	H382	H	0.877397	-0.116191	0.178187
	H383	H	0.846844	-0.104312	0.176543
	O384	O	0.988350	0.886054	-0.170781
	H385	H	0.983321	0.896031	-0.157673
	H386	H	0.980324	0.884077	-0.180538
	O387	O	0.142769	0.069403	0.109173
	H388	H	0.141205	0.067018	0.116280
	H389	H	0.158560	0.089105	0.136452
	O390	O	-0.196345	0.972413	-0.013563
	H391	H	-0.189178	0.971769	-0.022629
	H392	H	-0.198613	0.968484	-0.006118
	O393	O	1.045268	1.095502	1.012430
	H394	H	1.046457	1.092192	1.005828
	H395	H	1.059828	1.102772	0.999074
	O396	O	0.553666	0.525283	0.572427
	H397	H	0.557543	0.536172	0.568376
	H398	H	0.559893	0.525826	0.582633
	O399	O	-0.129699	1.038590	0.896068
	H400	H	-0.119680	1.029187	0.902980
	H401	H	-0.130823	1.022487	0.886179
	O402	O	0.553480	0.299607	0.455781
	H403	H	0.529118	0.290844	0.456310
	H404	H	0.554859	0.295354	0.473017
	O405	O	1.081659	1.072480	0.173557
	H406	H	1.075440	1.077691	0.165432
	H407	H	1.086665	1.061568	0.183236
	O408	O	0.394331	1.311248	0.456505
	H409	H	0.391541	1.302077	0.446382
	H410	H	0.377569	1.316751	0.453325
	O411	O	0.344095	-0.573166	0.529477
	H412	H	0.334326	-0.566868	0.539565
	H413	H	0.335177	-0.582770	0.526083
	O414	O	0.410041	0.422372	0.616723
	H415	H	0.404430	0.419253	0.613574
	H416	H	0.404786	0.416477	0.609848
	O417	O	0.552162	0.458891	0.395948
	H418	H	0.555355	0.452103	0.401835
	H419	H	0.561219	0.429624	0.393893
