data_Molecule from HDF5

_cell_length_a		16.347756
_cell_length_b		16.596886
_cell_length_c		16.921860
_cell_angle_alpha	89.777892
_cell_angle_beta	90.041144
_cell_angle_gamma	89.754697
_symmetry_space_group_name_H-M	'P 1'
_symmetry_Int_Tables_number		1

loop_
	_symmetry_equiv_pos_as_xyz
	x,y,z

loop_
	_atom_site_label
	_atom_site_type_symbol
	_atom_site_fract_x
	_atom_site_fract_y
	_atom_site_fract_z
	H0	H	0.400319	0.839310	0.714098
	H1	H	0.609142	0.151174	0.716331
	H2	H	0.618762	0.845590	0.268580
	H3	H	0.395704	0.150294	0.270894
	H4	H	0.721099	0.397299	0.837262
	H5	H	0.725659	0.598062	0.148003
	H6	H	0.285664	0.597626	0.840211
	H7	H	0.285830	0.393209	0.149384
	H8	H	0.845587	0.716339	0.390797
	H9	H	0.163244	0.713052	0.596231
	H10	H	0.845751	0.278356	0.598087
	H11	H	0.163149	0.281543	0.394652
	H12	H	0.846387	0.391494	0.714956
	H13	H	0.161003	0.602859	0.715783
	H14	H	0.846488	0.603569	0.273885
	H15	H	0.161655	0.393004	0.276756
	H16	H	0.400587	0.717548	0.841122
	H17	H	0.615689	0.721573	0.144684
	H18	H	0.604594	0.278856	0.837468
	H19	H	0.400886	0.273519	0.147311
	H20	H	0.728131	0.841568	0.391074
	H21	H	0.722581	0.152397	0.598511
	H22	H	0.291630	0.835890	0.590445
	H23	H	0.286116	0.153073	0.392732
	H24	H	0.896825	0.340000	0.216387
	H25	H	0.108128	0.651989	0.214067
	H26	H	0.110372	0.340476	0.775196
	H27	H	0.894715	0.649490	0.770342
	H28	H	0.226192	0.891898	0.339855
	H29	H	0.223047	0.095092	0.648322
	H30	H	0.777009	0.105812	0.345183
	H31	H	0.785009	0.892977	0.650047
	H32	H	0.342480	0.209270	0.896823
	H33	H	0.664643	0.209448	0.092819
	H34	H	0.347060	0.776059	0.099772
	H35	H	0.663394	0.778596	0.893932
	H36	H	0.349017	0.887712	0.217601
	H37	H	0.660660	0.102999	0.215951
	H38	H	0.342444	0.096213	0.779379
	H39	H	0.661261	0.891448	0.775716
	H40	H	0.892768	0.224281	0.344489
	H41	H	0.109204	0.216476	0.647119
	H42	H	0.112231	0.772087	0.341711
	H43	H	0.898043	0.770814	0.646273
	H44	H	0.218613	0.337019	0.898515
	H45	H	0.220598	0.653998	0.094102
	H46	H	0.790817	0.335425	0.091691
	H47	H	0.784407	0.652195	0.892319
	H48	H	0.419412	0.108193	0.592178
	H49	H	0.587245	0.885692	0.584823
	H50	H	0.580295	0.104855	0.402094
	H51	H	0.423490	0.884474	0.400254
	H52	H	0.594374	0.401442	0.104235
	H53	H	0.591700	0.587100	0.884243
	H54	H	0.421371	0.586378	0.102811
	H55	H	0.408613	0.398514	0.880596
	H56	H	0.115418	0.581976	0.411040
	H57	H	0.890511	0.586297	0.580931
	H58	H	0.118691	0.408180	0.588549
	H59	H	0.890130	0.417696	0.398942
	H60	H	0.119054	0.404267	0.586002
	H61	H	0.893387	0.580552	0.581073
	H62	H	0.117887	0.577991	0.396996
	H63	H	0.884123	0.402022	0.399448
	H64	H	0.413091	0.592155	0.107390
	H65	H	0.593525	0.584651	0.885312
	H66	H	0.596563	0.398627	0.104657
	H67	H	0.409217	0.404982	0.882837
	H68	H	0.589262	0.103914	0.414482
	H69	H	0.596901	0.883526	0.583778
	H70	H	0.413252	0.107391	0.580915
	H71	H	0.419398	0.885834	0.408922
	H72	H	0.907043	0.610334	0.085762
	H73	H	0.087405	0.383353	0.093501
	H74	H	0.091484	0.609136	0.901841
	H75	H	0.920731	0.382745	0.897042
	H76	H	0.089591	0.907579	0.600678
	H77	H	0.089291	0.087296	0.384493
	H78	H	0.917958	0.084285	0.603348
	H79	H	0.913109	0.913235	0.386371
	H80	H	0.623200	0.088810	0.890144
	H81	H	0.389358	0.086357	0.085632
	H82	H	0.615945	0.905392	0.073643
	H83	H	0.388633	0.907935	0.903269
	H84	H	0.613348	0.919183	0.082373
	H85	H	0.391822	0.083137	0.080017
	H86	H	0.619636	0.093343	0.907658
	H87	H	0.388354	0.906393	0.902522
	H88	H	0.917417	0.089193	0.604813
	H89	H	0.093853	0.092763	0.382931
	H90	H	0.093674	0.896611	0.605698
	H91	H	0.923300	0.909763	0.389461
	H92	H	0.092126	0.608810	0.902576
	H93	H	0.092899	0.385006	0.082068
	H94	H	0.921450	0.607688	0.092540
	H95	H	0.919723	0.386052	0.907977
	H96	H	0.406879	0.112516	0.591014
	H97	H	0.592776	0.882070	0.592497
	H98	H	0.594109	0.110383	0.401977
	H99	H	0.414039	0.881914	0.401681
	H100	H	0.597797	0.401538	0.104738
	H101	H	0.590564	0.584480	0.886325
	H102	H	0.411477	0.581800	0.104764
	H103	H	0.414769	0.400777	0.883948
	H104	H	0.121566	0.591866	0.401420
	H105	H	0.889812	0.582534	0.586048
	H106	H	0.117683	0.408139	0.584231
	H107	H	0.890888	0.408780	0.413085
	H108	H	0.919429	0.603812	0.077534
	H109	H	0.100279	0.380181	0.091392
	H110	H	0.092076	0.609111	0.901876
	H111	H	0.910944	0.380905	0.902944
	H112	H	0.101359	0.906096	0.604494
	H113	H	0.096241	0.085640	0.382627
	H114	H	0.913067	0.086364	0.605150
	H115	H	0.916991	0.902582	0.384210
	H116	H	0.615669	0.076372	0.901757
	H117	H	0.391209	0.079749	0.085949
	H118	H	0.620899	0.906471	0.089157
	H119	H	0.389010	0.906533	0.904063
	C120	C	0.383114	0.004650	0.615960
	C121	C	0.624246	0.987267	0.617316
	C122	C	0.624749	0.004998	0.373550
	C123	C	0.384646	0.987103	0.372378
	C124	C	0.626532	0.372176	0.001639
	C125	C	0.626094	0.617685	0.985835
	C126	C	0.382766	0.618259	0.003318
	C127	C	0.381161	0.371954	0.985234
	C128	C	0.013247	0.617259	0.372590
	C129	C	0.995868	0.615186	0.613992
	C130	C	0.013234	0.375698	0.616482
	C131	C	0.994270	0.377896	0.374223
	C132	C	0.883535	0.503521	0.115572
	C133	C	0.125189	0.487163	0.117526
	C134	C	0.124360	0.505075	0.873310
	C135	C	0.883733	0.486817	0.872058
	C136	C	0.127215	0.872431	0.502153
	C137	C	0.125323	0.118184	0.485177
	C138	C	0.881752	0.119885	0.504029
	C139	C	0.884171	0.875421	0.487453
	C140	C	0.512635	0.116076	0.872046
	C141	C	0.495803	0.115154	0.114187
	C142	C	0.513235	0.876181	0.114947
	C143	C	0.494670	0.875590	0.874039
	C144	C	0.382158	0.885856	0.673635
	C145	C	0.626902	0.104352	0.676316
	C146	C	0.633358	0.890467	0.311103
	C147	C	0.379930	0.104220	0.312501
	C148	C	0.682609	0.376176	0.883972
	C149	C	0.686789	0.618091	0.101271
	C150	C	0.324611	0.617849	0.886792
	C151	C	0.324524	0.373210	0.102333
	C152	C	0.893727	0.677151	0.371694
	C153	C	0.115195	0.674362	0.615476
	C154	C	0.893511	0.317352	0.617061
	C155	C	0.114879	0.319995	0.374984
	C156	C	0.893917	0.373343	0.675258
	C157	C	0.114123	0.619539	0.674889
	C158	C	0.893909	0.620984	0.313640
	C159	C	0.114042	0.375479	0.316388
	C160	C	0.381451	0.677499	0.887298
	C161	C	0.631368	0.679084	0.099851
	C162	C	0.624723	0.317500	0.883932
	C163	C	0.381557	0.313503	0.101401
	C164	C	0.687861	0.888700	0.371711
	C165	C	0.683197	0.105343	0.617514
	C166	C	0.328072	0.884354	0.612568
	C167	C	0.324812	0.105329	0.372532
	C168	C	0.880527	0.386096	0.174927
	C169	C	0.126686	0.605219	0.174675
	C170	C	0.127101	0.386796	0.816001
	C171	C	0.878311	0.603523	0.811596
	C172	C	0.186569	0.872218	0.386240
	C173	C	0.184055	0.116175	0.601650
	C174	C	0.818487	0.123615	0.390303
	C175	C	0.824416	0.873457	0.603164
	C176	C	0.390732	0.171550	0.875748
	C177	C	0.615983	0.172198	0.113431
	C178	C	0.394732	0.815584	0.117969
	C179	C	0.615205	0.817608	0.874460
	C180	C	0.395765	0.871068	0.176621
	C181	C	0.613977	0.119288	0.174541
	C182	C	0.390786	0.115594	0.817581
	C183	C	0.614119	0.873470	0.815685
	C184	C	0.875972	0.182536	0.390269
	C185	C	0.127528	0.176344	0.601232
	C186	C	0.129943	0.812637	0.387315
	C187	C	0.880533	0.812860	0.601570
	C188	C	0.181039	0.385232	0.877083
	C189	C	0.182228	0.606244	0.114895
	C190	C	0.827521	0.383892	0.113128
	C191	C	0.823659	0.604750	0.872042
	C192	C	0.406468	0.087674	0.594229
	C193	C	0.599417	0.905132	0.593562
	C194	C	0.596147	0.085480	0.399062
	C195	C	0.411383	0.905212	0.396720
	C196	C	0.603138	0.394039	0.083161
	C197	C	0.599423	0.592568	0.906120
	C198	C	0.407991	0.593841	0.083904
	C199	C	0.404138	0.394940	0.903757
	C200	C	0.096629	0.591532	0.396303
	C201	C	0.912958	0.590184	0.589694
	C202	C	0.096772	0.400008	0.592916
	C203	C	0.910323	0.402315	0.397211
	C204	C	0.908732	0.585944	0.091916
	C205	C	0.100653	0.404462	0.095474
	C206	C	0.099076	0.587612	0.895455
	C207	C	0.909795	0.404577	0.895946
	C208	C	0.102041	0.896832	0.582776
	C209	C	0.100236	0.095289	0.404411
	C210	C	0.908609	0.093885	0.583722
	C211	C	0.910219	0.901335	0.407555
	C212	C	0.597305	0.092874	0.893407
	C213	C	0.412389	0.090184	0.090546
	C214	C	0.595348	0.902868	0.089155
	C215	C	0.410516	0.899850	0.896868
	Zn216	Zn	0.502773	-0.004238	0.745420
	Zn217	Zn	0.504654	-0.004073	0.242841
	Zn218	Zn	0.755792	0.494810	-0.006054
	Zn219	Zn	0.252652	0.496170	-0.005141
	Zn220	Zn	0.005100	0.743332	0.493924
	Zn221	Zn	0.004085	0.249605	0.494445
	Zn222	Zn	0.004446	0.496539	0.743487
	Zn223	Zn	0.003026	0.496505	0.245158
	Zn224	Zn	0.504393	0.748429	-0.005082
	Zn225	Zn	0.504651	0.242653	-0.006806
	Zn226	Zn	0.752460	-0.003405	0.496117
	Zn227	Zn	0.255852	-0.004782	0.493160
	N228	N	0.415272	0.961681	0.676118
	N229	N	0.591021	0.029860	0.676489
	N230	N	0.594864	0.963893	0.311895
	N231	N	0.415910	0.029269	0.311816
	N232	N	0.684115	0.409187	0.958225
	N233	N	0.683929	0.580551	0.029232
	N234	N	0.325140	0.582000	0.959928
	N235	N	0.323947	0.408740	0.029113
	N236	N	0.968953	0.675055	0.407448
	N237	N	0.040616	0.672025	0.578353
	N238	N	0.968917	0.318545	0.581187
	N239	N	0.039105	0.321029	0.410106
	N240	N	0.969720	0.408567	0.675490
	N241	N	0.038788	0.583260	0.674119
	N242	N	0.969502	0.584591	0.313514
	N243	N	0.037807	0.410454	0.315428
	N244	N	0.416733	0.678195	0.960929
	N245	N	0.594584	0.679140	0.026913
	N246	N	0.590600	0.314733	0.958036
	N247	N	0.415758	0.312192	0.027368
	N248	N	0.682662	0.961071	0.410088
	N249	N	0.681578	0.031488	0.581248
	N250	N	0.328301	0.959099	0.577415
	N251	N	0.327734	0.031433	0.409147
	N252	N	0.914385	0.461807	0.176909
	N253	N	0.091894	0.530113	0.176469
	N254	N	0.092762	0.462402	0.813025
	N255	N	0.914760	0.528846	0.811369
	N256	N	0.185161	0.908580	0.458848
	N257	N	0.183289	0.081032	0.528425
	N258	N	0.821910	0.085310	0.462137
	N259	N	0.826327	0.911492	0.531119
	N260	N	0.467730	0.172411	0.908591
	N261	N	0.541225	0.170024	0.076466
	N262	N	0.468923	0.818575	0.080266
	N263	N	0.539891	0.819014	0.909865
	N264	N	0.470617	0.908180	0.175006
	N265	N	0.538090	0.084615	0.175154
	N266	N	0.467730	0.082228	0.814752
	N267	N	0.537911	0.908890	0.815083
	N268	N	0.914564	0.180502	0.462102
	N269	N	0.092156	0.178180	0.527577
	N270	N	0.093617	0.812769	0.460392
	N271	N	0.916922	0.813823	0.528506
	N272	N	0.179602	0.459818	0.911943
	N273	N	0.181613	0.531662	0.080193
	N274	N	0.829094	0.458048	0.076988
	N275	N	0.826722	0.531003	0.908756
	O276	O	-0.060963	0.775525	-0.068195
	H277	H	-0.055061	0.763138	-0.036955
	H278	H	-0.068565	0.771654	-0.045907
	O279	O	0.566284	0.540141	0.254569
	H280	H	0.579532	0.549660	0.246031
	H281	H	0.579701	0.536559	0.256597
	O282	O	1.049330	0.064395	0.785299
	H283	H	1.029326	0.058051	0.782132
	H284	H	1.043756	0.054547	0.780172
	O285	O	0.290057	0.476314	0.444979
	H286	H	0.294700	0.478813	0.445330
	H287	H	0.280528	0.461480	0.442141
	O288	O	0.463962	0.271445	0.720964
	H289	H	0.469902	0.263707	0.740856
	H290	H	0.448019	0.262853	0.722246
	O291	O	0.286326	0.273848	0.528992
	H292	H	0.276243	0.263191	0.551692
	H293	H	0.273146	0.268798	0.551867
	O294	O	0.783667	0.220646	0.940814
	H295	H	0.777041	0.225312	0.912729
	H296	H	0.765391	0.240500	0.926918
	O297	O	0.497853	0.715133	0.273666
	H298	H	0.485261	0.719179	0.285495
	H299	H	0.477520	0.727007	0.263901
	O300	O	0.009731	-0.013529	1.227653
	H301	H	0.000601	-0.031051	1.222507
	H302	H	0.031976	-0.024593	1.216302
	O303	O	0.680734	0.349305	0.645239
	H304	H	0.703555	0.333143	0.672162
	H305	H	0.669465	0.353965	0.622932
	O306	O	0.652086	0.284524	0.569834
	H307	H	0.641553	0.299915	0.562409
	H308	H	0.666180	0.271278	0.572421
	O309	O	0.314520	0.689888	0.692859
	H310	H	0.330220	0.678450	0.662363
	H311	H	0.340657	0.665273	0.688730
	O312	O	0.718906	0.718416	0.533490
	H313	H	0.728148	0.717378	0.550900
	H314	H	0.737912	0.731402	0.549829
	O315	O	1.062134	1.023008	1.097864
	H316	H	1.048073	1.021752	1.086286
	H317	H	1.074852	1.009882	1.099723
	O318	O	0.527075	0.712924	0.437852
	H319	H	0.549264	0.707978	0.439777
	H320	H	0.524613	0.713702	0.431908
	O321	O	0.206921	0.787318	0.786381
	H322	H	0.236149	0.759117	0.767538
	H323	H	0.196091	0.804394	0.774548
	O324	O	0.971448	0.779471	0.219010
	H325	H	0.980352	0.766770	0.239451
	H326	H	0.974652	0.783109	0.219540
	O327	O	-0.025572	0.219031	0.766896
	H328	H	-0.012320	0.228422	0.789115
	H329	H	-0.022505	0.235187	0.744309
	O330	O	0.645341	0.337124	0.419231
	H331	H	0.642500	0.316756	0.409221
	H332	H	0.644302	0.331946	0.439865
	O333	O	0.676755	0.569114	0.409979
	H334	H	0.675558	0.541301	0.413976
	H335	H	0.694421	0.573511	0.416580
	O336	O	0.479852	0.479573	0.541952
	H337	H	0.465636	0.471279	0.523774
	H338	H	0.497924	0.469175	0.544613
	O339	O	0.965183	-0.040266	0.751968
	H340	H	0.965600	-0.054233	0.757381
	H341	H	0.967447	-0.073376	0.747812
	O342	O	-0.207241	-0.222713	0.022994
	H343	H	-0.209612	-0.221015	0.054736
	H344	H	-0.229051	-0.243930	0.042313
	O345	O	0.045835	0.898687	0.891281
	H346	H	0.036647	0.879247	0.892443
	H347	H	0.044488	0.901054	0.899988
	O348	O	0.204377	0.198452	0.213701
	H349	H	0.190094	0.206905	0.179781
	H350	H	0.218977	0.214973	0.223137
	O351	O	0.692517	0.691070	0.298527
	H352	H	0.668556	0.677407	0.316759
	H353	H	0.673527	0.672652	0.315057
	O354	O	0.183100	-0.006631	0.915468
	H355	H	0.191778	-0.015967	0.932899
	H356	H	0.162482	-0.026308	0.901708
	O357	O	0.703630	0.529107	0.571088
	H358	H	0.705084	0.515167	0.560742
	H359	H	0.707890	0.525902	0.587683
	O360	O	0.297351	0.287487	0.703993
	H361	H	0.318374	0.305588	0.706498
	H362	H	0.263108	0.254524	0.734259
	O363	O	0.209943	-0.076904	0.066403
	H364	H	0.214316	-0.075930	0.065869
	H365	H	0.215663	-0.079744	0.083073
	O366	O	0.541531	0.713288	0.716504
	H367	H	0.544589	0.714631	0.719430
	H368	H	0.540096	0.720536	0.719365
	O369	O	0.706718	0.291862	0.282566
	H370	H	0.738764	0.255852	0.253327
	H371	H	0.673036	0.286363	0.292133
	O372	O	0.937241	0.914966	0.060910
	H373	H	0.951790	0.902808	0.058502
	H374	H	0.922150	0.905843	0.068113
	O375	O	0.839875	-0.051942	0.205541
	H376	H	0.838744	-0.059270	0.213918
	H377	H	0.855403	-0.045518	0.221845
	O378	O	0.535311	0.495063	0.496789
	H379	H	0.548254	0.501595	0.495819
	H380	H	0.535247	0.497812	0.507978
	O381	O	0.028196	0.782481	0.769499
	H382	H	0.048301	0.760398	0.761665
	H383	H	0.032043	0.766747	0.788974
	O384	O	0.817909	-0.194054	0.800694
	H385	H	0.841519	-0.185655	0.823311
	H386	H	0.832331	-0.174560	0.820420
	O387	O	1.036592	1.211621	-0.077106
	H388	H	1.036884	1.219451	-0.038247
	H389	H	1.016732	1.190049	-0.084020
	O390	O	0.533944	0.274931	0.272459
	H391	H	0.534828	0.258159	0.261007
	H392	H	0.530350	0.262380	0.299107
	O393	O	0.377709	0.511280	0.729756
	H394	H	0.366135	0.497126	0.736577
	H395	H	0.378313	0.479985	0.732321
	O396	O	0.222074	0.955087	0.765663
	H397	H	0.236112	0.956316	0.756063
	H398	H	0.222274	0.945474	0.754983
	O399	O	0.016341	0.152724	1.051526
	H400	H	0.022779	0.134291	1.064786
	H401	H	0.011107	0.162577	1.066965
	O402	O	0.402679	0.335420	0.421647
	H403	H	0.432385	0.334180	0.435078
	H404	H	0.383956	0.318212	0.438674
	O405	O	0.785247	0.010280	1.052752
	H406	H	0.793091	0.017716	1.062676
	H407	H	0.779896	0.014616	1.085176
	O408	O	0.219169	0.214673	0.051987
	H409	H	0.225508	0.216004	0.040231
	H410	H	0.232301	0.220565	0.031838
	O411	O	0.712029	0.708074	0.703876
	H412	H	0.687171	0.696847	0.699878
	H413	H	0.744642	0.739790	0.736629
	O414	O	0.615843	0.434807	0.669083
	H415	H	0.622998	0.425065	0.662013
	H416	H	0.627094	0.429920	0.659846
	O417	O	0.521336	0.365509	0.561226
	H418	H	0.528885	0.367694	0.571004
	H419	H	0.531792	0.370883	0.566942
	O420	O	0.288975	0.530583	0.269496
	H421	H	0.290136	0.511023	0.255536
	H422	H	0.285986	0.511123	0.259184
	O423	O	-0.127538	0.162465	1.055498
	H424	H	-0.113216	0.167773	1.038195
	H425	H	-0.141820	0.161932	1.035824
	O426	O	0.351322	0.688672	0.513626
	H427	H	0.356045	0.663634	0.519341
	H428	H	0.369960	0.692077	0.514519
	O429	O	0.797397	0.946985	0.902851
	H430	H	0.792279	0.932735	0.935879
	H431	H	0.809035	0.957171	0.920958
	O432	O	0.495848	0.712479	0.540944
	H433	H	0.511865	0.714585	0.537039
	H434	H	0.518168	0.711781	0.545465
	O435	O	0.174475	0.813636	0.180263
	H436	H	0.212582	0.784008	0.208462
	H437	H	0.177502	0.848798	0.173123
	O438	O	-0.112499	0.038729	0.232470
	H439	H	-0.105426	0.053747	0.242788
	H440	H	-0.090385	0.005656	0.227153
	O441	O	0.033412	0.219043	0.226786
	H442	H	0.039367	0.248647	0.254722
	H443	H	0.041385	0.206200	0.221445
	O444	O	0.451680	0.466269	0.272206
	H445	H	0.465501	0.461025	0.276571
	H446	H	0.474237	0.454459	0.267073
	O447	O	0.198800	1.104010	0.968110
	H448	H	0.198910	1.056983	0.972812
	H449	H	0.174053	1.118684	0.955595
	O450	O	0.221899	0.771607	0.955442
	H451	H	0.230577	0.774593	0.931875
	H452	H	0.246707	0.754208	0.941434
	O453	O	0.328790	0.495875	0.706137
	H454	H	0.297356	0.477494	0.727336
	H455	H	0.338520	0.499171	0.692433
	O456	O	0.190673	0.188941	0.794383
	H457	H	0.170333	0.153620	0.797267
	H458	H	0.170541	0.184867	0.825231
	O459	O	0.796461	0.785494	0.200234
	H460	H	0.829807	0.799677	0.212563
	H461	H	0.764620	0.755047	0.234552
	O462	O	0.715256	0.457827	0.276473
	H463	H	0.721059	0.429881	0.276459
	H464	H	0.736233	0.441698	0.263078
	O465	O	0.812586	0.187039	0.197859
	H466	H	0.839715	0.161985	0.196567
	H467	H	0.829152	0.172023	0.167165
	O468	O	0.332013	0.664806	0.435360
	H469	H	0.339138	0.653826	0.449512
	H470	H	0.314799	0.670014	0.436799
	O471	O	0.299020	0.478587	0.541503
	H472	H	0.303668	0.468564	0.533409
	H473	H	0.305542	0.479949	0.541617
	O474	O	0.283729	0.716607	0.268256
	H475	H	0.298731	0.683385	0.274062
	H476	H	0.293671	0.704496	0.299441
	O477	O	0.316686	0.308563	1.301988
	H478	H	0.318973	0.302717	1.309024
	H479	H	0.338108	0.319929	1.315673
	O480	O	0.572288	0.367478	0.488250
	H481	H	0.580410	0.361659	0.504187
	H482	H	0.572906	0.385801	0.482635
	O483	O	0.661945	0.540090	0.705985
	H484	H	0.666502	0.562335	0.711670
	H485	H	0.677525	0.555100	0.725693
	O486	O	0.803352	0.196884	0.782485
	H487	H	0.850485	0.198220	0.778967
	H488	H	0.799437	0.148379	0.784750
	O489	O	1.054816	0.765319	0.052085
	H490	H	1.082938	0.766838	0.062336
	H491	H	1.074689	0.768352	0.072649
	O492	O	0.221026	0.028645	0.222827
	H493	H	0.222058	0.064082	0.217903
	H494	H	0.249371	0.037244	0.242032
	O495	O	-0.041359	1.061197	0.942893
	H496	H	-0.045508	1.053799	0.953502
	H497	H	-0.045156	1.051613	0.928565
	O498	O	0.797670	1.043434	0.779681
	H499	H	0.788807	1.023706	0.788620
	H500	H	0.791051	1.024306	0.780099
	O501	O	0.572071	0.420460	0.472300
	H502	H	0.578263	0.418911	0.454223
	H503	H	0.583355	0.419561	0.485627
