data_Molecule from HDF5

_cell_length_a		16.463422
_cell_length_b		16.320722
_cell_length_c		16.458001
_cell_angle_alpha	90.005447
_cell_angle_beta	89.987161
_cell_angle_gamma	89.871592
_symmetry_space_group_name_H-M	'P 1'
_symmetry_Int_Tables_number		1

loop_
	_symmetry_equiv_pos_as_xyz
	x,y,z

loop_
	_atom_site_label
	_atom_site_type_symbol
	_atom_site_fract_x
	_atom_site_fract_y
	_atom_site_fract_z
	H0	H	0.392002	0.843411	0.738786
	H1	H	0.607909	0.160077	0.735209
	H2	H	0.608709	0.842544	0.291185
	H3	H	0.397921	0.161046	0.297188
	H4	H	0.724781	0.393578	0.857316
	H5	H	0.722517	0.610311	0.172170
	H6	H	0.274057	0.613489	0.858245
	H7	H	0.280277	0.396854	0.172127
	H8	H	0.844066	0.723540	0.408919
	H9	H	0.158774	0.723772	0.624221
	H10	H	0.842468	0.280410	0.619002
	H11	H	0.160194	0.281739	0.412169
	H12	H	0.844826	0.390363	0.741016
	H13	H	0.157697	0.608157	0.740455
	H14	H	0.844816	0.610413	0.291675
	H15	H	0.158572	0.394947	0.292059
	H16	H	0.391238	0.727759	0.857013
	H17	H	0.604850	0.724721	0.171918
	H18	H	0.607861	0.278364	0.857058
	H19	H	0.398809	0.282974	0.172859
	H20	H	0.726702	0.843209	0.405069
	H21	H	0.723375	0.159715	0.620445
	H22	H	0.277725	0.842457	0.623292
	H23	H	0.280259	0.159723	0.411459
	H24	H	0.899970	0.342332	0.232886
	H25	H	0.107161	0.662021	0.237171
	H26	H	0.108255	0.342266	0.794648
	H27	H	0.892904	0.659639	0.791104
	H28	H	0.222525	0.893449	0.357335
	H29	H	0.226433	0.110726	0.671084
	H30	H	0.780361	0.106731	0.357650
	H31	H	0.774973	0.890343	0.671416
	H32	H	0.342759	0.224080	0.909189
	H33	H	0.659069	0.220261	0.117298
	H34	H	0.342685	0.780876	0.120009
	H35	H	0.659074	0.779675	0.908040
	H36	H	0.344123	0.892952	0.238644
	H37	H	0.657266	0.108015	0.237196
	H38	H	0.345235	0.113163	0.788529
	H39	H	0.657683	0.892215	0.789375
	H40	H	0.899785	0.218996	0.355959
	H41	H	0.109317	0.225250	0.672365
	H42	H	0.106297	0.777569	0.357664
	H43	H	0.891748	0.775364	0.672337
	H44	H	0.224399	0.343713	0.909034
	H45	H	0.223384	0.661944	0.121999
	H46	H	0.781787	0.342708	0.119825
	H47	H	0.778422	0.661312	0.908208
	H48	H	0.417323	0.111131	0.599986
	H49	H	0.589927	0.887044	0.601725
	H50	H	0.590460	0.114132	0.427186
	H51	H	0.406501	0.884303	0.427738
	H52	H	0.595059	0.409315	0.129699
	H53	H	0.591234	0.588815	0.902352
	H54	H	0.411246	0.582350	0.123529
	H55	H	0.414487	0.413821	0.901310
	H56	H	0.114833	0.589078	0.427868
	H57	H	0.891458	0.587895	0.595809
	H58	H	0.109984	0.412853	0.595528
	H59	H	0.887563	0.410193	0.424494
	H60	H	0.111874	0.420970	0.608936
	H61	H	0.891330	0.580242	0.605638
	H62	H	0.113430	0.586907	0.427225
	H63	H	0.888680	0.413097	0.425297
	H64	H	0.420064	0.593072	0.123807
	H65	H	0.587838	0.587005	0.902314
	H66	H	0.592072	0.415515	0.126272
	H67	H	0.411173	0.413006	0.899690
	H68	H	0.590111	0.114393	0.426464
	H69	H	0.586080	0.888852	0.602149
	H70	H	0.410884	0.113811	0.598379
	H71	H	0.413305	0.885621	0.420505
	H72	H	0.916994	0.615508	0.105850
	H73	H	0.090523	0.387843	0.109844
	H74	H	0.086532	0.612064	0.932891
	H75	H	0.912023	0.388402	0.927115
	H76	H	0.083709	0.914155	0.625485
	H77	H	0.090872	0.092667	0.401529
	H78	H	0.907443	0.094043	0.631994
	H79	H	0.909353	0.918587	0.404233
	H80	H	0.612708	0.080096	0.917035
	H81	H	0.385998	0.097338	0.100834
	H82	H	0.611446	0.911926	0.093902
	H83	H	0.387228	0.908457	0.925196
	H84	H	0.610793	0.923740	0.104760
	H85	H	0.389627	0.084094	0.103112
	H86	H	0.617993	0.098858	0.921939
	H87	H	0.392982	0.918621	0.932902
	H88	H	0.910068	0.083790	0.626865
	H89	H	0.092123	0.088061	0.401852
	H90	H	0.089270	0.909553	0.629232
	H91	H	0.920480	0.915080	0.406562
	H92	H	0.090663	0.615876	0.927585
	H93	H	0.086501	0.392563	0.100844
	H94	H	0.908986	0.616239	0.099148
	H95	H	0.914756	0.388976	0.927516
	H96	H	0.413546	0.115252	0.604943
	H97	H	0.588129	0.888789	0.598731
	H98	H	0.589550	0.114113	0.426680
	H99	H	0.415582	0.889061	0.429950
	H100	H	0.588359	0.409768	0.127656
	H101	H	0.588631	0.590228	0.901827
	H102	H	0.406919	0.594800	0.129257
	H103	H	0.411824	0.416130	0.901034
	H104	H	0.114101	0.588049	0.425541
	H105	H	0.886502	0.591783	0.606953
	H106	H	0.117796	0.405991	0.608449
	H107	H	0.887317	0.412082	0.421964
	H108	H	0.907773	0.619886	0.108648
	H109	H	0.095902	0.387194	0.100911
	H110	H	0.083171	0.613888	0.925968
	H111	H	0.913190	0.389387	0.930507
	H112	H	0.091237	0.917201	0.626900
	H113	H	0.088168	0.089729	0.403985
	H114	H	0.918318	0.092090	0.628041
	H115	H	0.912819	0.907160	0.401248
	H116	H	0.609028	0.086965	0.935347
	H117	H	0.383081	0.091713	0.112791
	H118	H	0.616558	0.908994	0.108773
	H119	H	0.389054	0.921675	0.919708
	C120	C	0.379118	0.009509	0.636021
	C121	C	0.621818	0.992853	0.634303
	C122	C	0.622908	0.009414	0.393546
	C123	C	0.380269	0.991791	0.394215
	C124	C	0.623836	0.378989	0.023595
	C125	C	0.621496	0.622995	1.006034
	C126	C	0.378247	0.624813	0.022768
	C127	C	0.380211	0.381670	1.005625
	C128	C	0.010078	0.621870	0.393960
	C129	C	0.993015	0.621289	0.636815
	C130	C	0.009299	0.379344	0.637004
	C131	C	0.992751	0.379742	0.392666
	C132	C	0.880169	0.511458	0.136036
	C133	C	0.123300	0.494483	0.136713
	C134	C	0.121415	0.509831	0.894860
	C135	C	0.879461	0.493381	0.894068
	C136	C	0.121879	0.879523	0.523478
	C137	C	0.123457	0.123207	0.506391
	C138	C	0.880410	0.121858	0.523866
	C139	C	0.879354	0.879046	0.506833
	C140	C	0.509436	0.122890	0.892191
	C141	C	0.491218	0.122889	0.136650
	C142	C	0.509023	0.880986	0.135726
	C143	C	0.492843	0.881122	0.892183
	C144	C	0.374741	0.891101	0.698599
	C145	C	0.625226	0.112440	0.694925
	C146	C	0.626529	0.890186	0.331621
	C147	C	0.378972	0.112612	0.336109
	C148	C	0.684403	0.375807	0.904792
	C149	C	0.682092	0.627365	0.124660
	C150	C	0.315364	0.629887	0.904940
	C151	C	0.320289	0.378948	0.124605
	C152	C	0.891269	0.683198	0.391158
	C153	C	0.111110	0.683483	0.641772
	C154	C	0.890308	0.319306	0.638491
	C155	C	0.112461	0.320795	0.392448
	C156	C	0.891444	0.374385	0.698998
	C157	C	0.110903	0.625659	0.699423
	C158	C	0.891878	0.626794	0.332676
	C159	C	0.111608	0.377183	0.332857
	C160	C	0.373704	0.686985	0.904398
	C161	C	0.623201	0.684312	0.124750
	C162	C	0.625896	0.318637	0.904345
	C163	C	0.379364	0.322382	0.125219
	C164	C	0.685327	0.890424	0.388478
	C165	C	0.682980	0.112181	0.637866
	C166	C	0.317403	0.890539	0.640909
	C167	C	0.320235	0.112020	0.392588
	C168	C	0.880415	0.390524	0.194129
	C169	C	0.125462	0.614073	0.197332
	C170	C	0.125805	0.390368	0.834112
	C171	C	0.875581	0.612226	0.831758
	C172	C	0.182395	0.875726	0.404888
	C173	C	0.185323	0.127375	0.624279
	C174	C	0.820935	0.124378	0.404715
	C175	C	0.816120	0.873251	0.624272
	C176	C	0.390541	0.184273	0.890234
	C177	C	0.610983	0.181482	0.137020
	C178	C	0.390450	0.820485	0.138267
	C179	C	0.611393	0.819378	0.889477
	C180	C	0.391187	0.876385	0.197624
	C181	C	0.610223	0.125714	0.196727
	C182	C	0.391739	0.128686	0.830275
	C183	C	0.610671	0.875445	0.830235
	C184	C	0.880120	0.180475	0.404003
	C185	C	0.127047	0.184784	0.624788
	C186	C	0.124616	0.818063	0.404979
	C187	C	0.874757	0.816172	0.624959
	C188	C	0.183689	0.390919	0.891206
	C189	C	0.183206	0.614123	0.139818
	C190	C	0.821479	0.390897	0.137965
	C191	C	0.818636	0.613110	0.890311
	C192	C	0.406006	0.091960	0.608879
	C193	C	0.595620	0.910060	0.608410
	C194	C	0.597272	0.092393	0.419458
	C195	C	0.404773	0.908080	0.418745
	C196	C	0.598943	0.404224	0.106301
	C197	C	0.596431	0.596486	0.923789
	C198	C	0.405105	0.597853	0.104340
	C199	C	0.405102	0.407190	0.922525
	C200	C	0.092452	0.595739	0.419416
	C201	C	0.911310	0.594556	0.610376
	C202	C	0.091824	0.405738	0.611680
	C203	C	0.909501	0.404790	0.416894
	C204	C	0.904230	0.595221	0.111631
	C205	C	0.098175	0.411081	0.111087
	C206	C	0.094650	0.592659	0.921230
	C207	C	0.905771	0.410618	0.920698
	C208	C	0.095715	0.906194	0.605780
	C209	C	0.098007	0.097341	0.423839
	C210	C	0.904833	0.097017	0.607235
	C211	C	0.906281	0.906044	0.425427
	C212	C	0.591766	0.096244	0.917441
	C213	C	0.407911	0.098002	0.112618
	C214	C	0.591426	0.907342	0.109863
	C215	C	0.410844	0.908416	0.918324
	Zn216	Zn	0.501480	0.002048	0.763148
	Zn217	Zn	0.500895	0.001164	0.265395
	Zn218	Zn	0.751434	0.502037	0.014975
	Zn219	Zn	0.250796	0.502814	0.014613
	Zn220	Zn	0.001498	0.750227	0.515519
	Zn221	Zn	0.001072	0.251056	0.515108
	Zn222	Zn	0.001269	0.500393	0.766007
	Zn223	Zn	0.001705	0.502368	0.264543
	Zn224	Zn	0.500437	0.752644	0.013259
	Zn225	Zn	0.500592	0.251480	0.014398
	Zn226	Zn	0.751148	0.000888	0.514988
	Zn227	Zn	0.251176	0.000342	0.515082
	N228	N	0.412162	0.966348	0.696029
	N229	N	0.587701	0.037297	0.692807
	N230	N	0.588257	0.964999	0.334713
	N231	N	0.415328	0.036806	0.336898
	N232	N	0.683138	0.412945	0.979718
	N233	N	0.681315	0.590001	0.049898
	N234	N	0.317746	0.592104	0.979544
	N235	N	0.320701	0.414951	0.049091
	N236	N	0.965535	0.680058	0.428998
	N237	N	0.036957	0.680893	0.603574
	N238	N	0.964604	0.322311	0.600830
	N239	N	0.037537	0.322356	0.428961
	N240	N	0.966693	0.410815	0.698324
	N241	N	0.036184	0.587974	0.696927
	N242	N	0.966762	0.589330	0.334365
	N243	N	0.036170	0.413091	0.332850
	N244	N	0.412144	0.684089	0.978321
	N245	N	0.586246	0.681844	0.050056
	N246	N	0.589160	0.320058	0.979299
	N247	N	0.415717	0.323925	0.050085
	N248	N	0.683109	0.965427	0.426133
	N249	N	0.681053	0.036730	0.601070
	N250	N	0.320130	0.965274	0.602777
	N251	N	0.320657	0.035795	0.427827
	N252	N	0.915925	0.466660	0.193343
	N253	N	0.088784	0.538442	0.195429
	N254	N	0.087870	0.465461	0.836353
	N255	N	0.912731	0.536689	0.834111
	N256	N	0.180968	0.913197	0.479884
	N257	N	0.183008	0.089478	0.549662
	N258	N	0.820928	0.088733	0.480341
	N259	N	0.818840	0.911739	0.550091
	N260	N	0.464716	0.180782	0.928092
	N261	N	0.536089	0.180094	0.100506
	N262	N	0.464816	0.823130	0.100566
	N263	N	0.536744	0.822547	0.927051
	N264	N	0.466091	0.913361	0.196268
	N265	N	0.534639	0.090046	0.196648
	N266	N	0.466560	0.091215	0.831384
	N267	N	0.535873	0.912735	0.831537
	N268	N	0.916259	0.179110	0.479290
	N269	N	0.089204	0.182250	0.550544
	N270	N	0.088001	0.820260	0.479865
	N271	N	0.913406	0.819351	0.551060
	N272	N	0.181178	0.466368	0.928192
	N273	N	0.182171	0.538662	0.102964
	N274	N	0.820832	0.467237	0.102840
	N275	N	0.820722	0.538045	0.928082
	O276	O	0.310149	0.643712	0.327613
	H277	H	0.311380	0.639727	0.350621
	H278	H	0.339067	0.652716	0.317161
	O279	O	1.159950	-0.059340	1.108849
	H280	H	1.164920	-0.044697	1.129649
	H281	H	1.161524	-0.055323	1.093411
	O282	O	-0.039745	1.157977	0.825672
	H283	H	-0.073271	1.157524	0.828301
	H284	H	-0.050143	1.180748	0.811947
	O285	O	-0.135501	0.850680	0.023170
	H286	H	-0.141000	0.854101	0.005794
	H287	H	-0.147519	0.844350	0.001708
	O288	O	1.451491	1.379892	-0.288661
	H289	H	1.445285	1.369326	-0.300908
	H290	H	1.452333	1.399533	-0.280404
	O291	O	0.384323	0.395151	0.422025
	H292	H	0.397603	0.386035	0.421347
	H293	H	0.398122	0.399040	0.426174
	O294	O	0.074956	-0.212673	0.865376
	H295	H	0.113190	-0.202095	0.879328
	H296	H	0.089143	-0.234734	0.847149
	O297	O	0.318525	0.315536	0.621454
	H298	H	0.318480	0.319921	0.598190
	H299	H	0.316575	0.334858	0.619667
	O300	O	1.135844	1.013704	0.967822
	H301	H	1.126531	1.017023	0.967073
	H302	H	1.132842	1.030231	0.969314
	O303	O	0.713014	0.332755	0.535312
	H304	H	0.717166	0.334874	0.546587
	H305	H	0.733763	0.322109	0.538196
	O306	O	0.487451	0.596325	0.368129
	H307	H	0.488888	0.598056	0.374655
	H308	H	0.497322	0.596752	0.369684
	O309	O	1.050245	0.153685	0.133636
	H310	H	1.038574	0.153949	0.133151
	H311	H	1.071531	0.145369	0.129708
	O312	O	0.018492	0.836597	1.209051
	H313	H	0.020169	0.821832	1.219916
	H314	H	0.001076	0.837184	1.191720
	O315	O	0.540968	0.447302	0.440903
	H316	H	0.542258	0.457240	0.448785
	H317	H	0.542921	0.446430	0.440963
	O318	O	0.968860	0.135351	0.050848
	H319	H	0.955877	0.128970	0.037971
	H320	H	0.960277	0.123731	0.048912
	O321	O	0.032239	0.037597	-0.194235
	H322	H	0.062523	0.023720	-0.193133
	H323	H	0.025049	0.061885	-0.193292
	O324	O	0.715837	0.481562	0.296976
	H325	H	0.708900	0.475729	0.287630
	H326	H	0.728306	0.470239	0.273608
	O327	O	0.290887	0.491815	0.706974
	H328	H	0.303759	0.512139	0.719914
	H329	H	0.277298	0.502538	0.720967
	O330	O	0.006075	0.807048	0.007341
	H331	H	0.022911	0.805460	-0.006885
	H332	H	0.013417	0.804739	0.000997
	O333	O	0.451078	0.534738	0.727374
	H334	H	0.469736	0.533216	0.724144
	H335	H	0.462686	0.520783	0.726545
	O336	O	-0.186567	-0.185762	0.207342
	H337	H	-0.186897	-0.178748	0.192504
	H338	H	-0.172879	-0.188519	0.177368
	O339	O	0.084860	0.818650	-0.170589
	H340	H	0.099424	0.837885	-0.184935
	H341	H	0.105011	0.822131	-0.138500
	O342	O	-0.019610	0.982914	1.174336
	H343	H	-0.036873	0.989567	1.181148
	H344	H	-0.009042	0.964457	1.173082
	O345	O	0.288217	0.657425	-0.511455
	H346	H	0.299677	0.643174	-0.517854
	H347	H	0.260456	0.673227	-0.518940
	O348	O	0.532344	0.495821	0.555074
	H349	H	0.550223	0.493134	0.569509
	H350	H	0.526904	0.479621	0.563036
	O351	O	0.310783	1.271716	1.390306
	H352	H	0.310119	1.288597	1.400845
	H353	H	0.334006	1.251853	1.393288
	O354	O	0.293754	0.446435	-0.536347
	H355	H	0.302199	0.444498	-0.555681
	H356	H	0.293471	0.447724	-0.504274
	O357	O	-0.207287	0.206415	0.992843
	H358	H	-0.213523	0.185578	1.005276
	H359	H	-0.230705	0.216957	0.988098
	O360	O	0.485454	0.291595	0.724826
	H361	H	0.450942	0.293734	0.718929
	H362	H	0.473623	0.267597	0.738399
	O363	O	-0.055331	-0.106277	0.872473
	H364	H	-0.032695	-0.092844	0.869790
	H365	H	-0.040679	-0.119326	0.861464
	O366	O	0.414605	0.683696	0.577807
	H367	H	0.408448	0.688602	0.558341
	H368	H	0.413932	0.677620	0.561115
	O369	O	0.542491	0.304140	0.319771
	H370	H	0.549474	0.284574	0.312800
	H371	H	0.544379	0.308770	0.322897
	O372	O	0.787578	0.056317	1.058710
	H373	H	0.793862	0.040473	1.061678
	H374	H	0.785988	0.042872	1.065144
	O375	O	0.651314	0.376120	0.557478
	H376	H	0.661916	0.380609	0.554828
	H377	H	0.649480	0.392309	0.578160
	O378	O	0.684883	0.677770	0.675413
	H379	H	0.683210	0.691785	0.642018
	H380	H	0.653515	0.687909	0.682072
	O381	O	0.708601	0.541218	0.471500
	H382	H	0.713808	0.518272	0.468421
	H383	H	0.709548	0.521277	0.451258
	O384	O	0.524776	0.375148	0.543360
	H385	H	0.518152	0.368856	0.550349
	H386	H	0.524418	0.381316	0.560704
	O387	O	0.142779	0.204706	1.212038
	H388	H	0.122131	0.208766	1.218470
	H389	H	0.170709	0.220854	1.210506
	O390	O	0.195131	-0.102532	0.071695
	H391	H	0.217004	-0.097313	0.085200
	H392	H	0.178619	-0.116056	0.088279
	O393	O	0.795556	1.020239	0.806567
	H394	H	0.807914	1.004895	0.796090
	H395	H	0.800795	1.013780	0.788904
	O396	O	1.193270	-0.078354	-0.186765
	H397	H	1.210219	-0.071646	-0.169182
	H398	H	1.216658	-0.050730	-0.185757
	O399	O	1.207772	0.206037	1.039074
	H400	H	1.187124	0.201108	1.050027
	H401	H	1.229741	0.224300	1.043929
	O402	O	1.022402	1.202398	0.931657
	H403	H	1.015829	1.206090	0.916446
	H404	H	1.010789	1.203311	0.946965
	O405	O	0.845163	0.927809	0.224076
	H406	H	0.847255	0.914257	0.217800
	H407	H	0.844011	0.917726	0.238590
	O408	O	0.513910	-0.400765	0.388791
	H409	H	0.512927	-0.391979	0.400261
	H410	H	0.525374	-0.400183	0.386537
	O411	O	1.000665	0.986387	0.038702
	H412	H	1.002266	0.979422	0.057474
	H413	H	1.016369	0.992669	0.043775
	O414	O	0.291645	0.534282	0.375013
	H415	H	0.287248	0.544849	0.371992
	H416	H	0.300022	0.529053	0.363138
	O417	O	0.383290	0.495256	0.354947
	H418	H	0.378015	0.499020	0.345054
	H419	H	0.404877	0.489548	0.355665
	O420	O	-0.155176	-0.062889	-0.074068
	H421	H	-0.130871	-0.059771	-0.080837
	H422	H	-0.153950	-0.060015	-0.079417
	O423	O	0.504532	0.681200	0.728131
	H424	H	0.487452	0.682001	0.705525
	H425	H	0.513290	0.705568	0.755382
	O426	O	0.713952	0.519170	0.728112
	H427	H	0.735115	0.525036	0.754215
	H428	H	0.705793	0.560939	0.721085
	O429	O	-0.019077	0.868825	0.135879
	H430	H	-0.032426	0.867338	0.123676
	H431	H	-0.005377	0.876059	0.132017
	O432	O	0.696855	0.692339	0.517201
	H433	H	0.710745	0.684473	0.515998
	H434	H	0.704603	0.678232	0.507111
	O435	O	0.701910	0.307839	0.323555
	H436	H	0.700516	0.296194	0.314825
	H437	H	0.706651	0.314246	0.336097
	O438	O	0.147592	0.064265	0.184683
	H439	H	0.150992	0.082204	0.197949
	H440	H	0.152343	0.080289	0.204203
	O441	O	1.215332	0.045351	-0.129640
	H442	H	1.222995	0.061851	-0.138369
	H443	H	1.200122	0.062833	-0.115136
	O444	O	-0.181212	1.187324	0.827931
	H445	H	-0.188199	1.145580	0.818573
	H446	H	-0.181499	1.192449	0.864709
	O447	O	0.473001	0.646339	0.387744
	H448	H	0.472912	0.667770	0.385057
	H449	H	0.501364	0.644159	0.398492
	O450	O	0.831603	0.170516	0.210915
	H451	H	0.844896	0.174069	0.198107
	H452	H	0.851207	0.156540	0.202474
	O453	O	0.539117	0.691802	0.539870
	H454	H	0.539516	0.692161	0.537784
	H455	H	0.552677	0.693975	0.553846
