data_Molecule from HDF5

_cell_length_a		16.090576
_cell_length_b		16.200264
_cell_length_c		16.318431
_cell_angle_alpha	90.167159
_cell_angle_beta	89.732523
_cell_angle_gamma	90.727625
_symmetry_space_group_name_H-M	'P 1'
_symmetry_Int_Tables_number		1

loop_
	_symmetry_equiv_pos_as_xyz
	x,y,z

loop_
	_atom_site_label
	_atom_site_type_symbol
	_atom_site_fract_x
	_atom_site_fract_y
	_atom_site_fract_z
	H0	H	0.396613	0.839915	0.708206
	H1	H	0.605853	0.166122	0.705868
	H2	H	0.601886	0.838499	0.272581
	H3	H	0.405087	0.165872	0.276797
	H4	H	0.715006	0.403788	0.826126
	H5	H	0.716243	0.602963	0.153131
	H6	H	0.291046	0.596557	0.825269
	H7	H	0.284437	0.403722	0.153647
	H8	H	0.836733	0.713497	0.392421
	H9	H	0.167300	0.719177	0.588081
	H10	H	0.837057	0.286762	0.588127
	H11	H	0.168111	0.292418	0.389211
	H12	H	0.837163	0.399394	0.704331
	H13	H	0.166501	0.605876	0.703952
	H14	H	0.836966	0.599882	0.276414
	H15	H	0.165783	0.404632	0.272294
	H16	H	0.403207	0.715830	0.827409
	H17	H	0.600997	0.718429	0.152922
	H18	H	0.601689	0.286985	0.827245
	H19	H	0.399862	0.285834	0.153556
	H20	H	0.711877	0.836299	0.393015
	H21	H	0.717837	0.166711	0.587187
	H22	H	0.284457	0.838578	0.589299
	H23	H	0.294657	0.167855	0.396279
	H24	H	0.896982	0.339159	0.205621
	H25	H	0.103829	0.666568	0.203604
	H26	H	0.099834	0.338990	0.771408
	H27	H	0.903032	0.665714	0.773631
	H28	H	0.214549	0.907174	0.326292
	H29	H	0.215861	0.103311	0.653395
	H30	H	0.791923	0.095950	0.325393
	H31	H	0.785812	0.902782	0.653297
	H32	H	0.335692	0.210958	0.895667
	H33	H	0.667320	0.220395	0.088620
	H34	H	0.336017	0.787940	0.087395
	H35	H	0.667391	0.790219	0.890410
	H36	H	0.337225	0.901655	0.204629
	H37	H	0.668149	0.103673	0.203349
	H38	H	0.337641	0.099841	0.777720
	H39	H	0.667099	0.905473	0.774719
	H40	H	0.905300	0.214623	0.325755
	H41	H	0.102163	0.221003	0.651819
	H42	H	0.101183	0.789337	0.326413
	H43	H	0.899073	0.785070	0.652442
	H44	H	0.211495	0.336738	0.890549
	H45	H	0.214967	0.666962	0.085404
	H46	H	0.784920	0.337510	0.085737
	H47	H	0.791625	0.668276	0.893047
	H48	H	0.413335	0.120618	0.590166
	H49	H	0.598585	0.882246	0.583724
	H50	H	0.589584	0.117928	0.395733
	H51	H	0.404560	0.884001	0.399469
	H52	H	0.594496	0.413643	0.106505
	H53	H	0.606902	0.607209	0.866228
	H54	H	0.397928	0.594471	0.109831
	H55	H	0.396050	0.409070	0.870293
	H56	H	0.122765	0.593849	0.385515
	H57	H	0.879277	0.598514	0.591301
	H58	H	0.122593	0.407821	0.584346
	H59	H	0.885302	0.417118	0.395499
	H60	H	0.118387	0.412863	0.574055
	H61	H	0.885140	0.598486	0.571737
	H62	H	0.122790	0.606114	0.396881
	H63	H	0.880336	0.402992	0.390019
	H64	H	0.412609	0.587951	0.103398
	H65	H	0.600505	0.581101	0.875581
	H66	H	0.588544	0.413527	0.104998
	H67	H	0.413624	0.412935	0.877791
	H68	H	0.600636	0.119113	0.402981
	H69	H	0.587058	0.884630	0.589530
	H70	H	0.414553	0.118678	0.580754
	H71	H	0.408389	0.882049	0.391601
	H72	H	0.904142	0.624933	0.092237
	H73	H	0.073555	0.390439	0.081896
	H74	H	0.089177	0.616903	0.898914
	H75	H	0.907951	0.381847	0.883814
	H76	H	0.083270	0.898366	0.607715
	H77	H	0.091665	0.087035	0.377448
	H78	H	0.904985	0.096806	0.608868
	H79	H	0.900150	0.906892	0.370633
	H80	H	0.619519	0.091400	0.899138
	H81	H	0.383343	0.099050	0.081576
	H82	H	0.620288	0.911680	0.079358
	H83	H	0.381014	0.907342	0.891425
	H84	H	0.620222	0.913199	0.085677
	H85	H	0.386534	0.087990	0.082357
	H86	H	0.622534	0.097173	0.891538
	H87	H	0.384106	0.903712	0.904570
	H88	H	0.911184	0.090739	0.604605
	H89	H	0.091558	0.110838	0.370112
	H90	H	0.107927	0.907797	0.611263
	H91	H	0.911505	0.913498	0.375567
	H92	H	0.103084	0.620458	0.899271
	H93	H	0.100337	0.384774	0.068352
	H94	H	0.920421	0.617891	0.086291
	H95	H	0.917164	0.389739	0.900141
	H96	H	0.406358	0.121819	0.583694
	H97	H	0.588016	0.887803	0.576769
	H98	H	0.601950	0.122519	0.390332
	H99	H	0.413736	0.886237	0.397533
	H100	H	0.591413	0.408201	0.106704
	H101	H	0.580272	0.600577	0.876185
	H102	H	0.413072	0.603660	0.108652
	H103	H	0.409429	0.395273	0.870803
	H104	H	0.117687	0.591809	0.401356
	H105	H	0.887080	0.581186	0.583285
	H106	H	0.118900	0.419799	0.583548
	H107	H	0.885371	0.404455	0.405596
	H108	H	0.904699	0.618805	0.075222
	H109	H	0.096293	0.378458	0.097826
	H110	H	0.094653	0.622409	0.887748
	H111	H	0.897297	0.384210	0.901493
	H112	H	0.089081	0.923772	0.601970
	H113	H	0.112509	0.097345	0.368301
	H114	H	0.914105	0.099090	0.606071
	H115	H	0.911659	0.900288	0.372457
	H116	H	0.622554	0.102468	0.900018
	H117	H	0.381738	0.094330	0.092234
	H118	H	0.622055	0.907533	0.083558
	H119	H	0.386548	0.916346	0.899695
	C120	C	0.379927	0.011742	0.613225
	C121	C	0.622378	0.993625	0.611599
	C122	C	0.624633	0.011082	0.367377
	C123	C	0.381982	0.993170	0.369256
	C124	C	0.621472	0.382094	-0.001606
	C125	C	0.624434	0.625315	0.980968
	C126	C	0.379877	0.622878	-0.000995
	C127	C	0.377273	0.377952	0.981208
	C128	C	0.011389	0.624274	0.367534
	C129	C	0.992976	0.623771	0.610432
	C130	C	0.010644	0.382554	0.609762
	C131	C	0.992746	0.381176	0.367291
	C132	C	0.878856	0.511597	0.112144
	C133	C	0.121011	0.493449	0.110375
	C134	C	0.123579	0.511093	0.866141
	C135	C	0.880026	0.494118	0.867464
	C136	C	0.122490	0.882061	0.498788
	C137	C	0.126188	0.127086	0.480282
	C138	C	0.881848	0.123158	0.498124
	C139	C	0.878587	0.878348	0.481012
	C140	C	0.511745	0.123894	0.869424
	C141	C	0.493523	0.124301	0.112496
	C142	C	0.510961	0.881161	0.111070
	C143	C	0.493392	0.881283	0.868923
	C144	C	0.378760	0.888571	0.669225
	C145	C	0.623928	0.117086	0.667299
	C146	C	0.621792	0.887284	0.311321
	C147	C	0.385226	0.117067	0.314870
	C148	C	0.677116	0.383999	0.875224
	C149	C	0.678808	0.623290	0.104220
	C150	C	0.326999	0.618448	0.874949
	C151	C	0.322006	0.381861	0.104704
	C152	C	0.886370	0.676675	0.371684
	C153	C	0.117786	0.680944	0.608175
	C154	C	0.886336	0.324929	0.608553
	C155	C	0.118114	0.328796	0.369163
	C156	C	0.886405	0.381401	0.665998
	C157	C	0.117287	0.624483	0.665927
	C158	C	0.886514	0.620414	0.313913
	C159	C	0.116855	0.384588	0.310847
	C160	C	0.382868	0.677878	0.875919
	C161	C	0.621519	0.680727	0.104090
	C162	C	0.620615	0.325784	0.875682
	C163	C	0.379478	0.323703	0.104634
	C164	C	0.676268	0.886080	0.371159
	C165	C	0.679765	0.117338	0.608609
	C166	C	0.322821	0.887924	0.610128
	C167	C	0.329919	0.118134	0.373926
	C168	C	0.878170	0.388061	0.167274
	C169	C	0.122261	0.617294	0.165456
	C170	C	0.120277	0.387783	0.810082
	C171	C	0.882874	0.617251	0.812302
	C172	C	0.177527	0.885510	0.375302
	C173	C	0.179588	0.124118	0.604002
	C174	C	0.828497	0.117930	0.374490
	C175	C	0.823118	0.881587	0.604217
	C176	C	0.385721	0.175340	0.873862
	C177	C	0.618232	0.181420	0.108991
	C178	C	0.385918	0.825568	0.108387
	C179	C	0.617851	0.827511	0.870335
	C180	C	0.386355	0.882314	0.166203
	C181	C	0.618525	0.123470	0.165969
	C182	C	0.386859	0.120234	0.815435
	C183	C	0.617574	0.884600	0.812775
	C184	C	0.885121	0.176863	0.374627
	C185	C	0.122957	0.182807	0.603329
	C186	C	0.120503	0.827589	0.375167
	C187	C	0.879422	0.823055	0.603699
	C188	C	0.175676	0.386591	0.869448
	C189	C	0.177358	0.617615	0.106565
	C190	C	0.822529	0.387135	0.107680
	C191	C	0.827486	0.618473	0.871548
	C192	C	0.404156	0.098089	0.591387
	C193	C	0.598320	0.907194	0.589534
	C194	C	0.603634	0.097396	0.389499
	C195	C	0.402612	0.906573	0.390132
	C196	C	0.598402	0.405025	0.084063
	C197	C	0.602322	0.602911	0.895034
	C198	C	0.401473	0.601634	0.085037
	C199	C	0.399707	0.399247	0.895205
	C200	C	0.098639	0.603480	0.388369
	C201	C	0.906184	0.599723	0.588548
	C202	C	0.097491	0.406570	0.587416
	C203	C	0.905888	0.401973	0.390300
	C204	C	0.902798	0.598150	0.090937
	C205	C	0.097017	0.406922	0.088856
	C206	C	0.102004	0.597711	0.888578
	C207	C	0.901316	0.407528	0.888780
	C208	C	0.100277	0.903789	0.584860
	C209	C	0.104978	0.105029	0.394240
	C210	C	0.903599	0.101858	0.584388
	C211	C	0.901159	0.900250	0.395102
	C212	C	0.598823	0.103335	0.890765
	C213	C	0.406461	0.100960	0.091556
	C214	C	0.598492	0.904099	0.089169
	C215	C	0.406369	0.902706	0.891887
	Zn216	Zn	0.502093	0.003295	0.741141
	Zn217	Zn	0.502714	0.001889	0.239833
	Zn218	Zn	0.751839	0.503117	-0.010646
	Zn219	Zn	0.249724	0.501394	-0.010585
	Zn220	Zn	0.001887	0.751777	0.489498
	Zn221	Zn	0.002567	0.254275	0.488934
	Zn222	Zn	0.001517	0.502699	0.738464
	Zn223	Zn	0.001363	0.502796	0.240003
	Zn224	Zn	0.502095	0.752730	-0.010063
	Zn225	Zn	0.501573	0.251560	-0.009916
	Zn226	Zn	0.751450	0.001413	0.490059
	Zn227	Zn	0.252976	0.003043	0.490068
	N228	N	0.413648	0.966734	0.671131
	N229	N	0.588807	0.039128	0.669100
	N230	N	0.590503	0.965954	0.308748
	N231	N	0.416702	0.038527	0.311790
	N232	N	0.677809	0.418427	0.952520
	N233	N	0.680582	0.589445	0.026736
	N234	N	0.324927	0.584925	0.952427
	N235	N	0.320426	0.414989	0.027048
	N236	N	0.964928	0.679189	0.404481
	N237	N	0.039324	0.680662	0.574442
	N238	N	0.964638	0.325335	0.574530
	N239	N	0.039840	0.326344	0.403562
	N240	N	0.964847	0.416628	0.666809
	N241	N	0.038896	0.589585	0.667500
	N242	N	0.965452	0.588728	0.311033
	N243	N	0.038056	0.416387	0.309691
	N244	N	0.415019	0.680732	0.953924
	N245	N	0.588456	0.682190	0.026371
	N246	N	0.586571	0.324646	0.953230
	N247	N	0.412783	0.321008	0.026829
	N248	N	0.678235	0.963890	0.405426
	N249	N	0.678950	0.039446	0.574586
	N250	N	0.323568	0.965306	0.575813
	N251	N	0.327875	0.040189	0.407298
	N252	N	0.912437	0.466373	0.170105
	N253	N	0.087691	0.539145	0.167889
	N254	N	0.088564	0.466224	0.808235
	N255	N	0.914550	0.538893	0.809607
	N256	N	0.178852	0.918912	0.452996
	N257	N	0.181822	0.090168	0.526478
	N258	N	0.826419	0.085227	0.452341
	N259	N	0.822187	0.915077	0.526914
	N260	N	0.464400	0.178020	0.906670
	N261	N	0.539582	0.181802	0.076237
	N262	N	0.464606	0.825018	0.074835
	N263	N	0.539554	0.825137	0.904377
	N264	N	0.465174	0.916325	0.167804
	N265	N	0.540055	0.088761	0.168297
	N266	N	0.465994	0.089012	0.812531
	N267	N	0.538851	0.917064	0.811770
	N268	N	0.917402	0.180183	0.452627
	N269	N	0.090631	0.184966	0.525483
	N270	N	0.087152	0.825181	0.452946
	N271	N	0.913321	0.821078	0.526047
	N272	N	0.177881	0.464330	0.903569
	N273	N	0.176615	0.539569	0.072874
	N274	N	0.822804	0.465038	0.074355
	N275	N	0.825610	0.540525	0.905272
	O276	O	0.501551	0.518145	0.516520
	H277	H	0.519981	0.524446	0.514491
	H278	H	0.523519	0.503037	0.512138
	O279	O	0.409665	0.522028	0.597882
	H280	H	0.402849	0.524679	0.610160
	H281	H	0.419588	0.537529	0.597075
	O282	O	0.559698	0.609693	0.573974
	H283	H	0.563955	0.610319	0.569129
	H284	H	0.560459	0.608095	0.563044
	O285	O	-0.641569	1.426010	1.594529
	H286	H	-0.641974	1.444816	1.606480
	H287	H	-0.652314	1.426745	1.592050
	O288	O	0.530805	0.564352	0.531729
	H289	H	0.521797	0.568456	0.539470
	H290	H	0.537089	0.574172	0.531415
	O291	O	-0.505218	-0.442970	1.515137
	H292	H	-0.503013	-0.447156	1.510031
	H293	H	-0.507623	-0.444268	1.519349
	O294	O	0.510259	0.476170	0.555455
	H295	H	0.518392	0.465647	0.555976
	H296	H	0.500075	0.470599	0.559246
	O297	O	0.542844	0.377742	0.458928
	H298	H	0.532848	0.377753	0.449246
	H299	H	0.544642	0.372423	0.472768
	O300	O	0.485502	0.428590	0.445504
	H301	H	0.476617	0.435382	0.454295
	H302	H	0.489091	0.430543	0.457540
	O303	O	0.584796	0.491845	0.455463
	H304	H	0.590867	0.487243	0.432839
	H305	H	0.591685	0.480733	0.458997
	O306	O	1.055120	-0.000996	1.068726
	H307	H	1.060644	0.003961	1.065952
	H308	H	1.060232	0.004048	1.069987
	O309	O	0.553147	0.457144	0.462740
	H310	H	0.541279	0.444906	0.468142
	H311	H	0.555852	0.455728	0.457729
	O312	O	0.499846	0.582011	0.520282
	H313	H	0.492682	0.594040	0.525843
	H314	H	0.511560	0.578796	0.516707
	O315	O	1.042795	0.018583	1.053614
	H316	H	1.037876	0.016110	1.053316
	H317	H	1.035170	0.022520	1.056844
	O318	O	0.056627	0.015948	0.046647
	H319	H	0.067425	0.019172	0.042837
	H320	H	0.059162	0.017242	0.043189
	O321	O	0.494248	0.415993	0.410154
	H322	H	0.499106	0.418243	0.406325
	H323	H	0.482436	0.412736	0.412802
	O324	O	1.031161	0.015036	0.035304
	H325	H	1.023946	0.008494	0.040339
	H326	H	1.038848	0.013151	0.048715
	O327	O	1.037630	0.999208	0.042387
	H328	H	1.029283	0.991780	0.045369
	H329	H	1.043245	0.992548	0.045311
	O330	O	0.536355	0.406332	0.465323
	H331	H	0.532897	0.400326	0.460209
	H332	H	0.532441	0.402916	0.473697
	O333	O	0.507525	0.613431	0.460092
	H334	H	0.499384	0.620805	0.454365
	H335	H	0.506770	0.606416	0.459737
