data_Molecule from HDF5

_cell_length_a		16.438278
_cell_length_b		16.139537
_cell_length_c		16.178017
_cell_angle_alpha	89.701990
_cell_angle_beta	90.277622
_cell_angle_gamma	90.112827
_symmetry_space_group_name_H-M	'P 1'
_symmetry_Int_Tables_number		1

loop_
	_symmetry_equiv_pos_as_xyz
	x,y,z

loop_
	_atom_site_label
	_atom_site_type_symbol
	_atom_site_fract_x
	_atom_site_fract_y
	_atom_site_fract_z
	H0	H	0.402242	0.835830	0.711033
	H1	H	0.600035	0.164987	0.709386
	H2	H	0.599114	0.835549	0.281553
	H3	H	0.399124	0.162676	0.276575
	H4	H	0.718612	0.394856	0.831124
	H5	H	0.723762	0.605593	0.153651
	H6	H	0.283852	0.604770	0.830042
	H7	H	0.280919	0.394085	0.153951
	H8	H	0.841261	0.718269	0.388666
	H9	H	0.162354	0.716919	0.596392
	H10	H	0.840272	0.282735	0.592337
	H11	H	0.162355	0.280786	0.392204
	H12	H	0.841673	0.394677	0.710321
	H13	H	0.162938	0.598079	0.708955
	H14	H	0.842855	0.604453	0.270639
	H15	H	0.164203	0.399348	0.277961
	H16	H	0.402424	0.714948	0.829305
	H17	H	0.602192	0.713374	0.157291
	H18	H	0.599709	0.283831	0.831035
	H19	H	0.401171	0.286012	0.157962
	H20	H	0.718346	0.838238	0.391418
	H21	H	0.720979	0.162661	0.599569
	H22	H	0.282613	0.838079	0.600290
	H23	H	0.284126	0.163377	0.391811
	H24	H	0.903093	0.336449	0.208319
	H25	H	0.109345	0.661924	0.212215
	H26	H	0.098789	0.334253	0.780996
	H27	H	0.901736	0.663187	0.773445
	H28	H	0.221598	0.895842	0.333963
	H29	H	0.219973	0.105579	0.657036
	H30	H	0.777665	0.108306	0.333904
	H31	H	0.781792	0.892615	0.656760
	H32	H	0.338865	0.216169	0.894291
	H33	H	0.660013	0.220868	0.100902
	H34	H	0.339868	0.778187	0.097123
	H35	H	0.661212	0.781924	0.891882
	H36	H	0.339803	0.893947	0.214391
	H37	H	0.660470	0.102122	0.215065
	H38	H	0.339882	0.102344	0.776232
	H39	H	0.661566	0.899070	0.778808
	H40	H	0.899245	0.215881	0.330243
	H41	H	0.098923	0.212731	0.658004
	H42	H	0.102560	0.784606	0.331465
	H43	H	0.902154	0.781570	0.657710
	H44	H	0.221082	0.338081	0.886773
	H45	H	0.222333	0.662164	0.095184
	H46	H	0.783336	0.338595	0.097453
	H47	H	0.781944	0.662851	0.884388
	H48	H	0.407455	0.115924	0.579548
	H49	H	0.591480	0.882462	0.589469
	H50	H	0.583040	0.111336	0.414731
	H51	H	0.412370	0.882742	0.402707
	H52	H	0.593139	0.410547	0.110437
	H53	H	0.583785	0.589401	0.878963
	H54	H	0.403609	0.583715	0.109895
	H55	H	0.403960	0.413757	0.876365
	H56	H	0.114964	0.586920	0.401493
	H57	H	0.886541	0.593332	0.580475
	H58	H	0.115167	0.408142	0.581976
	H59	H	0.886599	0.405760	0.400198
	H60	H	0.118147	0.409299	0.590847
	H61	H	0.889016	0.586441	0.579671
	H62	H	0.118810	0.593741	0.399516
	H63	H	0.888711	0.409142	0.402917
	H64	H	0.415852	0.582506	0.105523
	H65	H	0.595243	0.596946	0.873980
	H66	H	0.594541	0.412011	0.110436
	H67	H	0.415457	0.411642	0.878112
	H68	H	0.600350	0.119132	0.408946
	H69	H	0.589630	0.885695	0.583769
	H70	H	0.405014	0.120948	0.589748
	H71	H	0.409091	0.884250	0.411493
	H72	H	0.910199	0.616988	0.079636
	H73	H	0.086341	0.384910	0.086484
	H74	H	0.093527	0.615755	0.901642
	H75	H	0.904333	0.379954	0.896640
	H76	H	0.086592	0.917367	0.607031
	H77	H	0.088443	0.094249	0.377612
	H78	H	0.910569	0.079194	0.606963
	H79	H	0.899342	0.911729	0.375731
	H80	H	0.613870	0.088326	0.905998
	H81	H	0.385384	0.093117	0.087967
	H82	H	0.612733	0.912196	0.086247
	H83	H	0.389078	0.911048	0.910703
	H84	H	0.615843	0.908176	0.091801
	H85	H	0.386464	0.090625	0.082365
	H86	H	0.616782	0.092368	0.898739
	H87	H	0.385522	0.913704	0.897113
	H88	H	0.917914	0.095705	0.610389
	H89	H	0.099578	0.090906	0.374822
	H90	H	0.088903	0.899863	0.612913
	H91	H	0.912200	0.919089	0.382796
	H92	H	0.093912	0.616731	0.901083
	H93	H	0.092335	0.387257	0.073822
	H94	H	0.914897	0.617056	0.081977
	H95	H	0.914888	0.385502	0.902751
	H96	H	0.414796	0.116595	0.587789
	H97	H	0.596084	0.883137	0.585207
	H98	H	0.585312	0.117658	0.396021
	H99	H	0.403566	0.880148	0.404547
	H100	H	0.593198	0.412577	0.109323
	H101	H	0.597073	0.582706	0.877390
	H102	H	0.411734	0.594603	0.111841
	H103	H	0.408340	0.402782	0.873969
	H104	H	0.115500	0.592785	0.406321
	H105	H	0.886438	0.588294	0.586580
	H106	H	0.118780	0.400464	0.587057
	H107	H	0.887913	0.410758	0.398299
	H108	H	0.914216	0.615306	0.076614
	H109	H	0.099471	0.380509	0.085496
	H110	H	0.092877	0.616887	0.900824
	H111	H	0.904549	0.385050	0.908860
	H112	H	0.102102	0.911294	0.613388
	H113	H	0.091975	0.082559	0.380583
	H114	H	0.901235	0.091718	0.614112
	H115	H	0.913282	0.903439	0.376414
	H116	H	0.615658	0.096837	0.907101
	H117	H	0.386925	0.087901	0.087264
	H118	H	0.614438	0.904282	0.084870
	H119	H	0.383220	0.901064	0.903093
	C120	C	0.379377	0.009301	0.616761
	C121	C	0.622557	0.991538	0.616718
	C122	C	0.620492	0.008610	0.375378
	C123	C	0.378650	0.990698	0.374447
	C124	C	0.622518	0.379655	0.002619
	C125	C	0.622947	0.620825	0.984141
	C126	C	0.379826	0.619754	0.001702
	C127	C	0.378916	0.378806	0.984100
	C128	C	0.010832	0.622417	0.370432
	C129	C	0.993029	0.619925	0.613994
	C130	C	0.010419	0.376108	0.615034
	C131	C	0.993945	0.377601	0.371028
	C132	C	0.882429	0.509039	0.111860
	C133	C	0.124406	0.491544	0.113358
	C134	C	0.122593	0.508288	0.871194
	C135	C	0.878379	0.491115	0.869773
	C136	C	0.123041	0.878929	0.503513
	C137	C	0.122579	0.120543	0.485692
	C138	C	0.878906	0.120990	0.503127
	C139	C	0.878881	0.878954	0.485833
	C140	C	0.508998	0.122320	0.873252
	C141	C	0.491731	0.121634	0.117357
	C142	C	0.508340	0.876376	0.117831
	C143	C	0.492187	0.878615	0.873219
	C144	C	0.381921	0.885266	0.672975
	C145	C	0.621264	0.115380	0.672494
	C146	C	0.619489	0.885144	0.318840
	C147	C	0.379285	0.113721	0.315385
	C148	C	0.679477	0.377275	0.879875
	C149	C	0.683105	0.622796	0.105728
	C150	C	0.322781	0.622225	0.878797
	C151	C	0.320890	0.377111	0.106098
	C152	C	0.889804	0.680072	0.369372
	C153	C	0.114215	0.677677	0.614901
	C154	C	0.888705	0.320381	0.612575
	C155	C	0.114683	0.320272	0.372601
	C156	C	0.889359	0.376188	0.671309
	C157	C	0.114528	0.618657	0.671183
	C158	C	0.890736	0.623429	0.310483
	C159	C	0.115490	0.378797	0.315364
	C160	C	0.381373	0.677507	0.878536
	C161	C	0.622766	0.676814	0.107552
	C162	C	0.620207	0.321878	0.880038
	C163	C	0.380745	0.323159	0.108117
	C164	C	0.678695	0.886286	0.373866
	C165	C	0.680959	0.114264	0.617319
	C166	C	0.322043	0.886503	0.618374
	C167	C	0.322233	0.113930	0.372941
	C168	C	0.883009	0.385807	0.170360
	C169	C	0.126693	0.613435	0.172319
	C170	C	0.119943	0.384050	0.816922
	C171	C	0.880509	0.614144	0.811366
	C172	C	0.181502	0.877913	0.382080
	C173	C	0.180086	0.122389	0.608196
	C174	C	0.818983	0.124577	0.381431
	C175	C	0.821497	0.875792	0.608207
	C176	C	0.387394	0.178431	0.874027
	C177	C	0.612115	0.181082	0.119446
	C178	C	0.387811	0.817556	0.116767
	C179	C	0.613041	0.820927	0.873038
	C180	C	0.387838	0.875341	0.175240
	C181	C	0.612369	0.121956	0.176314
	C182	C	0.387936	0.121747	0.815292
	C183	C	0.613204	0.879337	0.816541
	C184	C	0.879613	0.178048	0.379670
	C185	C	0.119853	0.175946	0.608864
	C186	C	0.122268	0.822387	0.380660
	C187	C	0.881035	0.820144	0.608636
	C188	C	0.180520	0.385944	0.869969
	C189	C	0.183305	0.613472	0.114249
	C190	C	0.823686	0.386742	0.114960
	C191	C	0.820882	0.613801	0.866808
	C192	C	0.402476	0.095458	0.592725
	C193	C	0.599233	0.905862	0.593066
	C194	C	0.596630	0.093874	0.399465
	C195	C	0.401738	0.904653	0.398858
	C196	C	0.600202	0.404513	0.087903
	C197	C	0.598755	0.596788	0.898872
	C198	C	0.403457	0.594246	0.087116
	C199	C	0.402437	0.402648	0.898403
	C200	C	0.094701	0.598301	0.395228
	C201	C	0.909063	0.596218	0.589363
	C202	C	0.095358	0.399286	0.593086
	C203	C	0.909563	0.401570	0.393823
	C204	C	0.906211	0.594103	0.086684
	C205	C	0.099746	0.406278	0.088825
	C206	C	0.100029	0.594256	0.894342
	C207	C	0.901194	0.405769	0.895211
	C208	C	0.099335	0.902654	0.589018
	C209	C	0.100020	0.096450	0.399902
	C210	C	0.903042	0.096212	0.588189
	C211	C	0.901537	0.904058	0.400580
	C212	C	0.593372	0.099350	0.897026
	C213	C	0.407846	0.097411	0.093051
	C214	C	0.592611	0.901003	0.094370
	C215	C	0.407850	0.901789	0.896907
	Zn216	Zn	0.500691	0.000275	0.744544
	Zn217	Zn	0.500211	-0.001110	0.246923
	Zn218	Zn	0.751813	0.500433	-0.007381
	Zn219	Zn	0.251670	0.499769	-0.008816
	Zn220	Zn	0.001091	0.750770	0.493745
	Zn221	Zn	0.001067	0.248147	0.493350
	Zn222	Zn	0.001529	0.498361	0.743576
	Zn223	Zn	0.003138	0.500165	0.240964
	Zn224	Zn	0.500689	0.748110	-0.006381
	Zn225	Zn	0.500256	0.251578	-0.004693
	Zn226	Zn	0.750380	0.000720	0.494788
	Zn227	Zn	0.251232	0.000732	0.495842
	N228	N	0.416697	0.962845	0.672231
	N229	N	0.585565	0.038299	0.672172
	N230	N	0.583850	0.962037	0.319820
	N231	N	0.413497	0.035825	0.315982
	N232	N	0.681422	0.412403	0.957198
	N233	N	0.683509	0.588955	0.027819
	N234	N	0.321722	0.587184	0.956415
	N235	N	0.319616	0.410964	0.027852
	N236	N	0.965486	0.679697	0.405952
	N237	N	0.037698	0.678656	0.580097
	N238	N	0.965027	0.320116	0.578576
	N239	N	0.038001	0.319226	0.406380
	N240	N	0.966107	0.410073	0.673210
	N241	N	0.038285	0.583409	0.670818
	N242	N	0.966940	0.588338	0.310968
	N243	N	0.039307	0.413797	0.314277
	N244	N	0.416400	0.676058	0.955962
	N245	N	0.586166	0.675973	0.030835
	N246	N	0.585518	0.323179	0.957287
	N247	N	0.415970	0.323924	0.031172
	N248	N	0.679429	0.963997	0.408246
	N249	N	0.682010	0.036138	0.583470
	N250	N	0.320249	0.964734	0.584283
	N251	N	0.321579	0.036363	0.408600
	N252	N	0.919097	0.462913	0.168446
	N253	N	0.090663	0.536489	0.171659
	N254	N	0.084343	0.461086	0.817564
	N255	N	0.915324	0.536804	0.812981
	N256	N	0.181976	0.912424	0.459620
	N257	N	0.181969	0.088641	0.530348
	N258	N	0.818484	0.089729	0.459121
	N259	N	0.819891	0.911561	0.530731
	N260	N	0.463685	0.179001	0.909426
	N261	N	0.536195	0.180915	0.083453
	N262	N	0.464008	0.818095	0.081801
	N263	N	0.536832	0.820276	0.907717
	N264	N	0.463633	0.911326	0.175817
	N265	N	0.536639	0.085638	0.174991
	N266	N	0.464468	0.087705	0.814673
	N267	N	0.537015	0.914394	0.816501
	N268	N	0.916207	0.176145	0.456365
	N269	N	0.084852	0.175231	0.531526
	N270	N	0.086341	0.823111	0.457223
	N271	N	0.916014	0.821830	0.531539
	N272	N	0.182293	0.464258	0.903027
	N273	N	0.181830	0.536633	0.078192
	N274	N	0.823122	0.464216	0.079262
	N275	N	0.819233	0.536166	0.902295
	O276	O	0.045184	-0.035564	-0.121825
	H277	H	0.040339	-0.033121	-0.130878
	H278	H	0.040804	-0.043343	-0.120035
	O279	O	0.518614	0.565493	0.554553
	H280	H	0.504486	0.556344	0.556872
	H281	H	0.509023	0.578870	0.540525
	O282	O	1.002092	0.031594	0.120939
	H283	H	1.012888	0.038542	0.117391
	H284	H	1.005674	0.033708	0.126750
	O285	O	0.120860	0.999849	0.074265
	H286	H	0.119662	0.996129	0.063894
	H287	H	0.116671	1.005671	0.074685
	O288	O	0.521096	0.411298	0.522537
	H289	H	0.519791	0.420646	0.512409
	H290	H	0.511447	0.412598	0.521857
	O291	O	0.425645	0.418411	0.543303
	H292	H	0.431436	0.412475	0.541784
	H293	H	0.426891	0.418673	0.540654
	O294	O	1.033339	1.117153	1.035791
	H295	H	1.036542	1.111395	1.032652
	H296	H	1.046578	1.126456	1.043806
	O297	O	0.657822	-0.590206	-0.655039
	H298	H	0.669465	-0.588859	-0.635049
	H299	H	0.632589	-0.596807	-0.659426
	O300	O	0.482786	0.521977	0.444868
	H301	H	0.492808	0.536339	0.452061
	H302	H	0.472221	0.529596	0.440676
	O303	O	-0.049184	0.845685	1.165787
	H304	H	-0.029972	0.838946	1.171884
	H305	H	-0.065259	0.839463	1.171934
	O306	O	-0.122801	1.078475	-0.150063
	H307	H	-0.129145	1.087772	-0.139164
	H308	H	-0.117226	1.071834	-0.146643
	O309	O	1.125821	-0.153788	-0.082657
	H310	H	1.117986	-0.156426	-0.084379
	H311	H	1.126787	-0.157335	-0.074694
	O312	O	-0.143351	-0.081425	1.061196
	H313	H	-0.157872	-0.094792	1.076126
	H314	H	-0.148152	-0.089323	1.082634
	O315	O	-0.027484	0.846880	0.910910
	H316	H	-0.041577	0.838962	0.924489
	H317	H	-0.036270	0.856158	0.915085
	O318	O	0.450176	0.532292	0.509399
	H319	H	0.459282	0.538674	0.513317
	H320	H	0.447064	0.532666	0.517990
	O321	O	0.599770	0.602919	0.427370
	H322	H	0.605726	0.600723	0.417179
	H323	H	0.612354	0.603669	0.427396
	O324	O	0.417816	0.448681	0.400474
	H325	H	0.428975	0.453965	0.397809
	H326	H	0.418514	0.455951	0.404477
	O327	O	0.039433	1.055644	0.954062
	H328	H	0.030238	1.057537	0.973849
	H329	H	0.038987	1.058904	0.948779
	O330	O	0.548929	0.537140	0.465420
	H331	H	0.558673	0.540382	0.475155
	H332	H	0.559029	0.543534	0.466003
	O333	O	0.019364	1.130830	1.007165
	H334	H	0.024837	1.121154	1.011841
	H335	H	0.017385	1.126047	1.000082
	O336	O	1.139753	1.109748	1.108269
	H337	H	1.154100	1.106169	1.110595
	H338	H	1.140008	1.122083	1.119389
	O339	O	0.612942	0.529527	0.625586
	H340	H	0.618984	0.527772	0.623591
	H341	H	0.605496	0.546208	0.626612
	O342	O	1.131522	-0.053129	-0.069662
	H343	H	1.140152	-0.059909	-0.083053
	H344	H	1.135001	-0.060978	-0.068253
	O345	O	0.559107	0.405649	0.543513
	H346	H	0.566400	0.402003	0.543908
	H347	H	0.570827	0.395945	0.547003
	O348	O	0.930544	1.054134	0.938520
	H349	H	0.928588	1.057407	0.941397
	H350	H	0.932344	1.063012	0.928886
	O351	O	1.040890	0.931128	0.032827
	H352	H	1.044363	0.937756	0.047762
	H353	H	1.028604	0.930349	0.010868
	O354	O	0.653504	0.573466	0.418071
	H355	H	0.666088	0.562920	0.412460
	H356	H	0.655506	0.566740	0.425520
	O357	O	0.413476	0.527609	0.541844
	H358	H	0.420637	0.512625	0.555927
	H359	H	0.412295	0.519354	0.527530
	O360	O	-0.087994	0.076624	-0.063222
	H361	H	-0.099663	0.083446	-0.061013
	H362	H	-0.077404	0.075943	-0.061627
	O363	O	0.517119	0.628982	0.524187
	H364	H	0.502606	0.631790	0.533036
	H365	H	0.510281	0.623522	0.533469
	O366	O	-0.143401	0.043971	1.090793
	H367	H	-0.125728	0.053118	1.092289
	H368	H	-0.141196	0.048232	1.080341
	O369	O	0.487901	0.362065	0.512808
	H370	H	0.493454	0.369606	0.505124
	H371	H	0.491501	0.357507	0.509691
	O372	O	0.520600	0.460272	0.367375
	H373	H	0.502277	0.486162	0.363297
	H374	H	0.516015	0.458181	0.348700
	O375	O	0.522264	0.553724	0.610522
	H376	H	0.508965	0.542334	0.605425
	H377	H	0.531476	0.564368	0.617618
	O378	O	0.420861	0.525901	0.517650
	H379	H	0.427180	0.515986	0.515690
	H380	H	0.434674	0.521907	0.530619
	O381	O	0.554099	0.500855	0.596905
	H382	H	0.543638	0.499181	0.597555
	H383	H	0.565004	0.511857	0.610439
	O384	O	-0.177921	0.832570	0.183357
	H385	H	-0.175341	0.862488	0.180117
	H386	H	-0.158969	0.832815	0.178655
	O387	O	0.811348	-0.005950	1.051457
	H388	H	0.796732	0.010157	1.046028
	H389	H	0.832987	0.009753	1.054067
	O390	O	-0.034691	1.104765	-0.086863
	H391	H	-0.034799	1.109314	-0.096103
	H392	H	-0.039418	1.096477	-0.092828
	O393	O	0.853492	1.066171	-0.077472
	H394	H	0.846966	1.081685	-0.079851
	H395	H	0.861350	1.055546	-0.070675
	O396	O	1.159540	-0.095114	1.058936
	H397	H	1.163972	-0.102847	1.056686
	H398	H	1.157183	-0.090293	1.036805
	O399	O	0.055007	1.026703	0.935428
	H400	H	0.051953	1.025302	0.936220
	H401	H	0.041991	1.015068	0.941409
	O402	O	1.104342	1.108808	1.003066
	H403	H	1.101557	1.105310	1.009125
	H404	H	1.109045	1.104410	0.990699
	O405	O	0.365907	0.550205	0.472205
	H406	H	0.355824	0.556614	0.470911
	H407	H	0.375140	0.543337	0.475447
