data_Molecule from HDF5

_cell_length_a		16.344819
_cell_length_b		16.177226
_cell_length_c		15.915202
_cell_angle_alpha	91.215744
_cell_angle_beta	88.073467
_cell_angle_gamma	88.709347
_symmetry_space_group_name_H-M	'P 1'
_symmetry_Int_Tables_number		1

loop_
	_symmetry_equiv_pos_as_xyz
	x,y,z

loop_
	_atom_site_label
	_atom_site_type_symbol
	_atom_site_fract_x
	_atom_site_fract_y
	_atom_site_fract_z
	H0	H	0.398080	0.834400	0.706504
	H1	H	0.577882	0.168570	0.706218
	H2	H	0.601472	0.836840	0.272977
	H3	H	0.402471	0.169619	0.297591
	H4	H	0.716960	0.391500	0.828718
	H5	H	0.696946	0.600601	0.162905
	H6	H	0.287205	0.597762	0.825106
	H7	H	0.272941	0.405069	0.157894
	H8	H	0.830549	0.722032	0.403995
	H9	H	0.158092	0.714764	0.591689
	H10	H	0.828698	0.294526	0.597806
	H11	H	0.155734	0.277888	0.383413
	H12	H	0.828974	0.414035	0.713059
	H13	H	0.160526	0.594384	0.700834
	H14	H	0.825880	0.598166	0.293387
	H15	H	0.155692	0.395103	0.269550
	H16	H	0.399320	0.711396	0.826398
	H17	H	0.582063	0.714466	0.161742
	H18	H	0.600338	0.280169	0.828122
	H19	H	0.394199	0.300429	0.163877
	H20	H	0.721878	0.837877	0.382177
	H21	H	0.701323	0.166312	0.595336
	H22	H	0.277912	0.836125	0.598429
	H23	H	0.276262	0.163729	0.401027
	H24	H	0.897154	0.332487	0.205612
	H25	H	0.077960	0.666870	0.205642
	H26	H	0.097559	0.335979	0.773900
	H27	H	0.902136	0.669630	0.798393
	H28	H	0.218027	0.892794	0.330148
	H29	H	0.195417	0.101720	0.664210
	H30	H	0.783971	0.101596	0.327490
	H31	H	0.774836	0.906800	0.659842
	H32	H	0.330691	0.219407	0.906139
	H33	H	0.657695	0.216451	0.093691
	H34	H	0.328872	0.793279	0.098990
	H35	H	0.656196	0.777078	0.882491
	H36	H	0.330693	0.912147	0.214640
	H37	H	0.660849	0.094872	0.201921
	H38	H	0.327045	0.098396	0.795739
	H39	H	0.656590	0.897924	0.771820
	H40	H	0.899183	0.211693	0.326911
	H41	H	0.081635	0.216301	0.662275
	H42	H	0.103622	0.780338	0.328910
	H43	H	0.894644	0.800038	0.664800
	H44	H	0.219944	0.337433	0.879708
	H45	H	0.202056	0.665409	0.096183
	H46	H	0.776955	0.335241	0.097544
	H47	H	0.775182	0.662583	0.899844
	H48	H	0.392683	0.117109	0.591625
	H49	H	0.581524	0.886346	0.576952
	H50	H	0.580897	0.120155	0.390558
	H51	H	0.402780	0.881937	0.406155
	H52	H	0.585518	0.404647	0.117943
	H53	H	0.590274	0.571167	0.877886
	H54	H	0.390118	0.595160	0.114475
	H55	H	0.413573	0.401106	0.872382
	H56	H	0.108630	0.596062	0.407143
	H57	H	0.873281	0.610858	0.604026
	H58	H	0.111746	0.402079	0.585962
	H59	H	0.871165	0.395981	0.402290
	H60	H	0.111066	0.400409	0.575764
	H61	H	0.877455	0.605831	0.591648
	H62	H	0.105285	0.577764	0.398773
	H63	H	0.880121	0.408582	0.414545
	H64	H	0.396391	0.594117	0.112813
	H65	H	0.577537	0.593734	0.875288
	H66	H	0.588859	0.411497	0.116491
	H67	H	0.402770	0.403849	0.870634
	H68	H	0.586890	0.114115	0.416455
	H69	H	0.596869	0.883329	0.573876
	H70	H	0.385977	0.120413	0.594335
	H71	H	0.408542	0.880758	0.398455
	H72	H	0.895364	0.614054	0.082617
	H73	H	0.083799	0.383832	0.077436
	H74	H	0.096729	0.620673	0.903648
	H75	H	0.906537	0.379954	0.894638
	H76	H	0.078447	0.910687	0.614391
	H77	H	0.099757	0.088107	0.372789
	H78	H	0.894573	0.093511	0.613468
	H79	H	0.904760	0.908092	0.372567
	H80	H	0.609185	0.080690	0.894586
	H81	H	0.374562	0.104368	0.110880
	H82	H	0.610586	0.902663	0.078431
	H83	H	0.371403	0.907949	0.888394
	H84	H	0.609329	0.905615	0.080195
	H85	H	0.376873	0.113011	0.091647
	H86	H	0.614483	0.096102	0.893246
	H87	H	0.374030	0.890866	0.913200
	H88	H	0.899418	0.101753	0.614341
	H89	H	0.087551	0.078757	0.377719
	H90	H	0.086534	0.901912	0.619004
	H91	H	0.912317	0.913015	0.375795
	H92	H	0.090219	0.622296	0.895825
	H93	H	0.092162	0.383028	0.073425
	H94	H	0.881856	0.620569	0.094477
	H95	H	0.911131	0.383798	0.905033
	H96	H	0.392777	0.120978	0.599950
	H97	H	0.590951	0.880369	0.588881
	H98	H	0.604905	0.125469	0.399764
	H99	H	0.410465	0.883781	0.405561
	H100	H	0.580687	0.412394	0.113051
	H101	H	0.602402	0.592010	0.868968
	H102	H	0.394022	0.601251	0.115126
	H103	H	0.410210	0.411280	0.874458
	H104	H	0.113339	0.592690	0.388443
	H105	H	0.877728	0.597600	0.601114
	H106	H	0.108343	0.409495	0.579195
	H107	H	0.874678	0.414537	0.395336
	H108	H	0.898153	0.617933	0.101814
	H109	H	0.089837	0.380669	0.082138
	H110	H	0.086878	0.617583	0.905276
	H111	H	0.900854	0.379916	0.905268
	H112	H	0.090629	0.914887	0.616586
	H113	H	0.085531	0.093503	0.373735
	H114	H	0.887797	0.101646	0.617587
	H115	H	0.912965	0.903151	0.373998
	H116	H	0.608833	0.091131	0.908054
	H117	H	0.380399	0.092397	0.093180
	H118	H	0.612836	0.902770	0.081864
	H119	H	0.382203	0.920352	0.913861
	C120	C	0.366716	0.009589	0.621084
	C121	C	0.613057	0.992715	0.612522
	C122	C	0.622201	0.010866	0.369675
	C123	C	0.376772	0.992061	0.378190
	C124	C	0.617230	0.377027	0.004657
	C125	C	0.613346	0.617842	0.984964
	C126	C	0.370016	0.623281	0.003099
	C127	C	0.376139	0.381102	0.984027
	C128	C	0.000924	0.620890	0.374849
	C129	C	0.985505	0.628118	0.621184
	C130	C	0.002010	0.380275	0.614367
	C131	C	0.983855	0.376108	0.370195
	C132	C	0.866826	0.507988	0.119689
	C133	C	0.112761	0.491610	0.110781
	C134	C	0.121171	0.510752	0.868758
	C135	C	0.875976	0.491135	0.876865
	C136	C	0.118032	0.877547	0.505490
	C137	C	0.113370	0.118596	0.486012
	C138	C	0.869857	0.125036	0.503847
	C139	C	0.877131	0.882985	0.485531
	C140	C	0.501998	0.120598	0.876086
	C141	C	0.486367	0.126985	0.121173
	C142	C	0.502520	0.879715	0.114495
	C143	C	0.484347	0.875449	0.870588
	C144	C	0.375155	0.884332	0.671398
	C145	C	0.602752	0.118312	0.669270
	C146	C	0.621704	0.886141	0.311353
	C147	C	0.380421	0.118729	0.330518
	C148	C	0.677420	0.373782	0.878842
	C149	C	0.662065	0.619142	0.112105
	C150	C	0.321331	0.619152	0.875853
	C151	C	0.314359	0.385549	0.109169
	C152	C	0.878398	0.680947	0.382558
	C153	C	0.109206	0.678242	0.613205
	C154	C	0.877870	0.330867	0.616531
	C155	C	0.106701	0.317190	0.365973
	C156	C	0.878082	0.390008	0.673975
	C157	C	0.110316	0.618297	0.667671
	C158	C	0.876017	0.619566	0.327304
	C159	C	0.106759	0.375474	0.309186
	C160	C	0.377406	0.675451	0.876602
	C161	C	0.605126	0.676341	0.111612
	C162	C	0.619533	0.318210	0.878535
	C163	C	0.374515	0.333131	0.112113
	C164	C	0.681542	0.887060	0.365814
	C165	C	0.663997	0.117321	0.613978
	C166	C	0.315179	0.885235	0.617470
	C167	C	0.317298	0.115473	0.381908
	C168	C	0.874127	0.382734	0.170739
	C169	C	0.102906	0.616791	0.168174
	C170	C	0.119156	0.385745	0.810816
	C171	C	0.879336	0.618159	0.830095
	C172	C	0.178461	0.874763	0.379982
	C173	C	0.161101	0.120158	0.613278
	C174	C	0.819765	0.121243	0.377672
	C175	C	0.816113	0.887338	0.611057
	C176	C	0.379122	0.179284	0.884409
	C177	C	0.609295	0.178898	0.114334
	C178	C	0.378534	0.829475	0.117265
	C179	C	0.607224	0.816745	0.865725
	C180	C	0.379335	0.888426	0.175148
	C181	C	0.610972	0.118515	0.168446
	C182	C	0.377199	0.119238	0.829285
	C183	C	0.607447	0.876721	0.810325
	C184	C	0.876790	0.176478	0.377439
	C185	C	0.104282	0.177156	0.612405
	C186	C	0.121379	0.818711	0.379444
	C187	C	0.875693	0.834138	0.613318
	C188	C	0.179708	0.386662	0.864318
	C189	C	0.164293	0.616040	0.113474
	C190	C	0.814306	0.384141	0.116949
	C191	C	0.816485	0.614841	0.880875
	C192	C	0.384874	0.097081	0.601318
	C193	C	0.595157	0.905732	0.587295
	C194	C	0.598105	0.097456	0.394908
	C195	C	0.400384	0.904907	0.397662
	C196	C	0.592277	0.402187	0.092950
	C197	C	0.595298	0.592899	0.896816
	C198	C	0.388187	0.603069	0.091224
	C199	C	0.401472	0.399789	0.895463
	C200	C	0.086790	0.596120	0.392851
	C201	C	0.898713	0.610096	0.604064
	C202	C	0.088077	0.398439	0.588024
	C203	C	0.897652	0.399513	0.396425
	C204	C	0.886183	0.595076	0.099048
	C205	C	0.094134	0.404895	0.085290
	C206	C	0.098116	0.597574	0.894107
	C207	C	0.899252	0.403946	0.895940
	C208	C	0.092592	0.902040	0.593797
	C209	C	0.096132	0.093912	0.397612
	C210	C	0.888366	0.105001	0.592164
	C211	C	0.902588	0.902411	0.397103
	C212	C	0.588546	0.096290	0.893473
	C213	C	0.399661	0.108676	0.103854
	C214	C	0.588541	0.898014	0.087905
	C215	C	0.398078	0.899357	0.897462
	Zn216	Zn	0.491167	0.000272	0.745087
	Zn217	Zn	0.496805	0.002425	0.246425
	Zn218	Zn	0.743161	0.498169	-0.004230
	Zn219	Zn	0.246500	0.500943	-0.008986
	Zn220	Zn	-0.004805	0.754344	0.496638
	Zn221	Zn	-0.007480	0.248179	0.493363
	Zn222	Zn	-0.004423	0.502820	0.746513
	Zn223	Zn	-0.008966	0.498435	0.243257
	Zn224	Zn	0.492467	0.747569	-0.006824
	Zn225	Zn	0.494951	0.252858	-0.002832
	Zn226	Zn	0.747176	0.001815	0.492968
	Zn227	Zn	0.243056	-0.000856	0.496939
	N228	N	0.406307	0.962676	0.674050
	N229	N	0.571782	0.039721	0.668425
	N230	N	0.585585	0.963960	0.313303
	N231	N	0.416748	0.040711	0.327422
	N232	N	0.676252	0.409541	0.958478
	N233	N	0.667397	0.583511	0.032465
	N234	N	0.316459	0.587348	0.955462
	N235	N	0.315116	0.414431	0.028457
	N236	N	0.957120	0.682127	0.411235
	N237	N	0.030522	0.684929	0.585269
	N238	N	0.955722	0.324803	0.579950
	N239	N	0.029138	0.317219	0.403262
	N240	N	0.956286	0.420016	0.672663
	N241	N	0.032336	0.587978	0.673188
	N242	N	0.953127	0.582966	0.322013
	N243	N	0.029391	0.411136	0.311529
	N244	N	0.406919	0.678234	0.956639
	N245	N	0.575682	0.675772	0.031557
	N246	N	0.582782	0.320072	0.957736
	N247	N	0.412377	0.330418	0.033223
	N248	N	0.681964	0.965729	0.401316
	N249	N	0.670650	0.038407	0.579524
	N250	N	0.309768	0.964273	0.586935
	N251	N	0.315133	0.035809	0.410739
	N252	N	0.905853	0.460912	0.172847
	N253	N	0.071372	0.538360	0.166649
	N254	N	0.083325	0.463831	0.813329
	N255	N	0.916035	0.540347	0.827322
	N256	N	0.176547	0.910423	0.459494
	N257	N	0.166645	0.084232	0.533800
	N258	N	0.815276	0.090098	0.457437
	N259	N	0.816816	0.916732	0.530532
	N260	N	0.457905	0.180384	0.912570
	N261	N	0.530769	0.184399	0.085680
	N262	N	0.456126	0.823972	0.080369
	N263	N	0.529508	0.815991	0.902703
	N264	N	0.457474	0.918946	0.173737
	N265	N	0.533508	0.086994	0.172921
	N266	N	0.454719	0.083268	0.823939
	N267	N	0.530018	0.912537	0.813530
	N268	N	0.907118	0.179205	0.456939
	N269	N	0.075365	0.176609	0.532167
	N270	N	0.084218	0.820535	0.458519
	N271	N	0.912987	0.831320	0.534218
	N272	N	0.181217	0.465323	0.899415
	N273	N	0.170706	0.537234	0.078544
	N274	N	0.809263	0.463227	0.086182
	N275	N	0.814196	0.534850	0.908970
	O276	O	-0.073895	-0.052744	0.093238
	H277	H	-0.092249	-0.060114	0.107218
	H278	H	-0.080452	-0.045902	0.087139
	O279	O	0.415131	0.489170	0.482195
	H280	H	0.415438	0.480517	0.484461
	H281	H	0.407678	0.488169	0.485623
	O282	O	0.412254	0.456168	0.485567
	H283	H	0.408764	0.457924	0.503318
	H284	H	0.399700	0.465374	0.483017
	O285	O	-0.088340	0.979474	0.992832
	H286	H	-0.080129	0.973808	0.984058
	H287	H	-0.078968	0.974271	0.992840
	O288	O	0.472793	0.555354	0.456543
	H289	H	0.483728	0.552031	0.458794
	H290	H	0.464331	0.550853	0.452988
	O291	O	1.025268	1.090403	1.005356
	H292	H	1.030895	1.089020	1.015849
	H293	H	1.027291	1.092774	1.007460
	O294	O	1.150271	0.850384	0.924443
	H295	H	1.131287	0.847509	0.924633
	H296	H	1.155864	0.835586	0.932851
	O297	O	1.093541	-0.004565	1.068586
	H298	H	1.087207	0.002973	1.075852
	H299	H	1.103012	-0.006517	1.067103
	O300	O	0.466213	0.511573	0.492865
	H301	H	0.472558	0.507553	0.486702
	H302	H	0.465574	0.502043	0.480787
	O303	O	1.031366	-0.024731	-0.025477
	H304	H	1.039480	-0.022055	-0.025625
	H305	H	1.036108	-0.031097	-0.042371
	O306	O	-0.177996	0.884377	1.145825
	H307	H	-0.187587	0.880287	1.149217
	H308	H	-0.178889	0.860862	1.133216
	O309	O	1.041224	0.978181	1.043163
	H310	H	1.047072	0.962130	1.043514
	H311	H	1.043266	0.996662	1.045127
	O312	O	0.910457	0.044057	0.903959
	H313	H	0.919442	0.045620	0.900860
	H314	H	0.914588	0.051820	0.910765
	O315	O	0.481223	0.462218	0.554652
	H316	H	0.481564	0.467881	0.555913
	H317	H	0.473498	0.458451	0.560150
	O318	O	0.509619	0.513454	0.491971
	H319	H	0.521739	0.502879	0.495375
	H320	H	0.524250	0.509754	0.489232
	O321	O	1.041423	1.104578	1.013309
	H322	H	1.056112	1.105366	1.024714
	H323	H	1.038479	1.108566	1.013969
	O324	O	1.009294	-0.082230	-0.141567
	H325	H	0.997131	-0.078194	-0.158415
	H326	H	1.014735	-0.076876	-0.145797
	O327	O	0.527369	0.519101	0.468155
	H328	H	0.534081	0.515089	0.461811
	H329	H	0.531705	0.512056	0.464115
	O330	O	1.028423	-0.057580	0.961773
	H331	H	1.033011	-0.077833	0.955997
	H332	H	1.026539	-0.067575	0.954900
	O333	O	1.039446	0.964594	0.019092
	H334	H	1.046553	0.962684	0.023769
	H335	H	1.050810	0.973702	0.016662
	O336	O	0.464818	0.521894	0.446036
	H337	H	0.471825	0.520504	0.451331
	H338	H	0.467409	0.521629	0.455191
	O339	O	0.455806	0.456554	0.538998
	H340	H	0.443773	0.460804	0.527893
	H341	H	0.449065	0.461521	0.554186
	O342	O	-0.059376	1.032256	0.006146
	H343	H	-0.062607	1.033483	-0.007523
	H344	H	-0.060004	1.030698	0.001638
	O345	O	0.028554	0.015791	-0.084322
	H346	H	0.028208	-0.001935	-0.091960
	H347	H	0.024886	0.022107	-0.077217
	O348	O	0.548708	0.470726	0.438791
	H349	H	0.554659	0.461030	0.425368
	H350	H	0.557222	0.465275	0.437510
	O351	O	0.052127	0.991321	0.948079
	H352	H	0.042511	0.979008	0.941599
	H353	H	0.056859	0.993664	0.952877
	O354	O	0.503677	0.435805	0.440996
	H355	H	0.507267	0.432068	0.443230
	H356	H	0.501438	0.434910	0.438293
	O357	O	0.565662	0.497463	0.479693
	H358	H	0.571395	0.503896	0.473303
	H359	H	0.557078	0.515119	0.490333
	O360	O	-0.027068	-0.073419	-0.012814
	H361	H	-0.019694	-0.060459	-0.002758
	H362	H	-0.029696	-0.062261	-0.011274
	O363	O	0.533084	0.531672	0.521368
	H364	H	0.532933	0.529087	0.511671
	H365	H	0.547093	0.532744	0.510419
	O366	O	0.013680	0.089553	1.017009
	H367	H	0.020399	0.086457	1.007513
	H368	H	0.003969	0.087216	1.021996
	O369	O	0.482486	0.571418	0.472484
	H370	H	0.475593	0.583910	0.462519
	H371	H	0.484409	0.562837	0.455837
