data_Molecule from HDF5

_cell_length_a		16.612907
_cell_length_b		16.470914
_cell_length_c		16.479544
_cell_angle_alpha	89.961269
_cell_angle_beta	89.989455
_cell_angle_gamma	90.039460
_symmetry_space_group_name_H-M	'P 1'
_symmetry_Int_Tables_number		1

loop_
	_symmetry_equiv_pos_as_xyz
	x,y,z

loop_
	_atom_site_label
	_atom_site_type_symbol
	_atom_site_fract_x
	_atom_site_fract_y
	_atom_site_fract_z
	H0	H	0.387740	0.854040	0.726798
	H1	H	0.600476	0.168283	0.729171
	H2	H	0.597659	0.854751	0.285757
	H3	H	0.389046	0.169015	0.284680
	H4	H	0.716891	0.403319	0.849964
	H5	H	0.713900	0.617633	0.162058
	H6	H	0.268525	0.621377	0.848906
	H7	H	0.270921	0.406152	0.161305
	H8	H	0.837180	0.734101	0.401517
	H9	H	0.148255	0.737086	0.614315
	H10	H	0.837255	0.290005	0.610957
	H11	H	0.148919	0.290697	0.399396
	H12	H	0.837283	0.406023	0.728249
	H13	H	0.147727	0.621256	0.731218
	H14	H	0.837353	0.620503	0.282220
	H15	H	0.149392	0.408880	0.283574
	H16	H	0.387507	0.733438	0.847644
	H17	H	0.594660	0.731229	0.163305
	H18	H	0.598662	0.289720	0.848413
	H19	H	0.385818	0.288398	0.161073
	H20	H	0.715106	0.855645	0.400672
	H21	H	0.716510	0.168934	0.613114
	H22	H	0.268261	0.856128	0.614903
	H23	H	0.270361	0.167441	0.398114
	H24	H	0.888439	0.353626	0.225448
	H25	H	0.094325	0.670690	0.222228
	H26	H	0.098810	0.355741	0.783019
	H27	H	0.888673	0.669345	0.784656
	H28	H	0.215715	0.906831	0.349673
	H29	H	0.218365	0.121858	0.660968
	H30	H	0.771596	0.118622	0.349109
	H31	H	0.771685	0.906822	0.662930
	H32	H	0.338511	0.236413	0.896157
	H33	H	0.648694	0.235971	0.111055
	H34	H	0.336630	0.792249	0.108565
	H35	H	0.649484	0.789836	0.900293
	H36	H	0.338088	0.907129	0.227614
	H37	H	0.650480	0.118192	0.226916
	H38	H	0.338101	0.118449	0.780862
	H39	H	0.648832	0.905186	0.782236
	H40	H	0.890004	0.232929	0.347492
	H41	H	0.099165	0.235553	0.661888
	H42	H	0.098800	0.791148	0.349197
	H43	H	0.888014	0.790769	0.663059
	H44	H	0.218199	0.357338	0.895760
	H45	H	0.212905	0.669291	0.109067
	H46	H	0.769002	0.355589	0.113239
	H47	H	0.772258	0.670361	0.900582
	H48	H	0.403003	0.125596	0.596406
	H49	H	0.586354	0.900139	0.589248
	H50	H	0.581506	0.125845	0.414383
	H51	H	0.406696	0.901503	0.422885
	H52	H	0.579138	0.430723	0.114835
	H53	H	0.578591	0.603175	0.892244
	H54	H	0.401848	0.599421	0.118311
	H55	H	0.406830	0.422969	0.892377
	H56	H	0.106179	0.601048	0.409636
	H57	H	0.881546	0.598140	0.599596
	H58	H	0.104298	0.424375	0.594809
	H59	H	0.880458	0.423720	0.413637
	H60	H	0.104983	0.424345	0.594172
	H61	H	0.881220	0.605577	0.591463
	H62	H	0.106055	0.606188	0.417132
	H63	H	0.881336	0.421465	0.417290
	H64	H	0.403153	0.602039	0.118043
	H65	H	0.586802	0.604249	0.889140
	H66	H	0.575849	0.420899	0.116893
	H67	H	0.402310	0.426072	0.892186
	H68	H	0.584036	0.124769	0.419202
	H69	H	0.584625	0.897903	0.597928
	H70	H	0.413256	0.120560	0.592831
	H71	H	0.399961	0.898113	0.417907
	H72	H	0.912291	0.623920	0.100557
	H73	H	0.078799	0.399942	0.092860
	H74	H	0.080537	0.623246	0.919732
	H75	H	0.908281	0.401390	0.918876
	H76	H	0.081003	0.925152	0.618689
	H77	H	0.086920	0.097067	0.392670
	H78	H	0.907925	0.096555	0.615395
	H79	H	0.899084	0.921185	0.390555
	H80	H	0.602726	0.090330	0.912981
	H81	H	0.379949	0.105282	0.094147
	H82	H	0.607684	0.921147	0.097839
	H83	H	0.382835	0.924748	0.918246
	H84	H	0.605949	0.919320	0.093390
	H85	H	0.385454	0.097102	0.090621
	H86	H	0.606668	0.107131	0.915375
	H87	H	0.380475	0.923390	0.911251
	H88	H	0.906964	0.107964	0.619554
	H89	H	0.078426	0.098207	0.395964
	H90	H	0.081778	0.925985	0.618064
	H91	H	0.903442	0.931330	0.395523
	H92	H	0.080547	0.623829	0.919315
	H93	H	0.084476	0.398834	0.090650
	H94	H	0.901269	0.621255	0.082842
	H95	H	0.900815	0.400149	0.922215
	H96	H	0.404146	0.121587	0.585225
	H97	H	0.578492	0.901094	0.593010
	H98	H	0.586564	0.127026	0.414945
	H99	H	0.408774	0.898730	0.414070
	H100	H	0.585376	0.423247	0.119031
	H101	H	0.584119	0.595792	0.892726
	H102	H	0.400327	0.602056	0.118660
	H103	H	0.406610	0.427532	0.894823
	H104	H	0.102695	0.597867	0.417417
	H105	H	0.885844	0.595810	0.589629
	H106	H	0.103946	0.424545	0.594276
	H107	H	0.882394	0.425378	0.417188
	H108	H	0.892792	0.630205	0.099185
	H109	H	0.083007	0.397002	0.096573
	H110	H	0.079168	0.624145	0.919268
	H111	H	0.902545	0.397880	0.914321
	H112	H	0.080843	0.925684	0.618300
	H113	H	0.082762	0.105493	0.391351
	H114	H	0.897480	0.099414	0.620342
	H115	H	0.910905	0.921785	0.394100
	H116	H	0.599680	0.097840	0.928150
	H117	H	0.381361	0.096998	0.100163
	H118	H	0.604900	0.924248	0.094692
	H119	H	0.379915	0.917870	0.916238
	C120	C	0.373127	0.019434	0.625794
	C121	C	0.615486	1.003616	0.626920
	C122	C	0.615698	0.021612	0.384356
	C123	C	0.372738	1.003164	0.385023
	C124	C	0.613701	0.390989	0.013796
	C125	C	0.614061	0.632936	0.995974
	C126	C	0.370185	0.633951	0.013850
	C127	C	0.371885	0.391081	0.996301
	C128	C	0.001912	0.634559	0.382803
	C129	C	0.985187	0.633396	0.627289
	C130	C	0.001755	0.390651	0.627686
	C131	C	0.984488	0.391209	0.383429
	C132	C	0.870251	0.521105	0.127158
	C133	C	0.113417	0.503331	0.125513
	C134	C	0.113760	0.521048	0.884633
	C135	C	0.871835	0.503944	0.885613
	C136	C	0.114149	0.891878	0.514903
	C137	C	0.115344	0.133781	0.496930
	C138	C	0.872452	0.133704	0.514358
	C139	C	0.872420	0.891931	0.497605
	C140	C	0.501166	0.132318	0.884650
	C141	C	0.485265	0.133471	0.127317
	C142	C	0.502393	0.890462	0.127033
	C143	C	0.484491	0.889635	0.882987
	C144	C	0.369724	0.901492	0.686949
	C145	C	0.618462	0.121379	0.688627
	C146	C	0.617023	0.902405	0.325141
	C147	C	0.370208	0.121372	0.324316
	C148	C	0.675581	0.386550	0.896462
	C149	C	0.673313	0.635307	0.115178
	C150	C	0.309554	0.637843	0.895937
	C151	C	0.310893	0.387636	0.114145
	C152	C	0.884352	0.694677	0.381923
	C153	C	0.101664	0.695852	0.631532
	C154	C	0.884297	0.329887	0.629659
	C155	C	0.102280	0.331162	0.381092
	C156	C	0.884196	0.387757	0.687959
	C157	C	0.101370	0.638222	0.689948
	C158	C	0.884371	0.637832	0.322710
	C159	C	0.102368	0.389675	0.323341
	C160	C	0.368845	0.693951	0.895253
	C161	C	0.614281	0.691736	0.115720
	C162	C	0.616921	0.329746	0.895782
	C163	C	0.368261	0.329322	0.113957
	C164	C	0.675251	0.902752	0.382177
	C165	C	0.676024	0.121696	0.630679
	C166	C	0.310205	0.902634	0.631212
	C167	C	0.311246	0.120623	0.380796
	C168	C	0.869057	0.401763	0.186595
	C169	C	0.113834	0.622733	0.183500
	C170	C	0.117146	0.402936	0.823289
	C171	C	0.870109	0.622455	0.825098
	C172	C	0.174988	0.888646	0.396646
	C173	C	0.177169	0.138850	0.614199
	C174	C	0.812133	0.136555	0.395883
	C175	C	0.812237	0.889127	0.615990
	C176	C	0.384825	0.194905	0.879202
	C177	C	0.602375	0.194779	0.129339
	C178	C	0.383813	0.831701	0.128097
	C179	C	0.602356	0.829765	0.881556
	C180	C	0.384700	0.888774	0.187180
	C181	C	0.603250	0.136277	0.187000
	C182	C	0.384862	0.136397	0.821689
	C183	C	0.602093	0.887161	0.822754
	C184	C	0.870866	0.193456	0.395260
	C185	C	0.117852	0.195275	0.614769
	C186	C	0.117100	0.831142	0.396472
	C187	C	0.870067	0.831330	0.615931
	C188	C	0.176595	0.403874	0.878974
	C189	C	0.173049	0.622030	0.127502
	C190	C	0.809595	0.402743	0.130725
	C191	C	0.811935	0.622692	0.882489
	C192	C	0.399427	0.101288	0.599052
	C193	C	0.590385	0.921306	0.600979
	C194	C	0.591080	0.104457	0.409104
	C195	C	0.398072	0.920748	0.411010
	C196	C	0.587366	0.417314	0.095609
	C197	C	0.590005	0.608323	0.913262
	C198	C	0.394860	0.608517	0.096755
	C199	C	0.397821	0.417778	0.914264
	C200	C	0.083712	0.608961	0.407538
	C201	C	0.903882	0.607081	0.600910
	C202	C	0.083395	0.416965	0.601823
	C203	C	0.902620	0.416261	0.408808
	C204	C	0.894847	0.603708	0.101552
	C205	C	0.089205	0.420232	0.100438
	C206	C	0.087544	0.602584	0.911635
	C207	C	0.896746	0.421346	0.911088
	C208	C	0.088506	0.918165	0.596916
	C209	C	0.090157	0.107624	0.414711
	C210	C	0.897003	0.108480	0.597027
	C211	C	0.897471	0.917531	0.414905
	C212	C	0.581995	0.106038	0.911437
	C213	C	0.403684	0.107501	0.102200
	C214	C	0.584735	0.914519	0.102466
	C215	C	0.402331	0.914895	0.907799
	Zn216	Zn	0.493427	0.012075	0.754583
	Zn217	Zn	0.494027	0.012048	0.256725
	Zn218	Zn	0.742456	0.511784	0.005224
	Zn219	Zn	0.242622	0.512203	0.005111
	Zn220	Zn	-0.006375	0.763217	0.506232
	Zn221	Zn	-0.006510	0.262076	0.504899
	Zn222	Zn	-0.007216	0.512522	0.756551
	Zn223	Zn	-0.007498	0.512122	0.254021
	Zn224	Zn	0.492471	0.761218	0.005329
	Zn225	Zn	0.492840	0.262077	0.004987
	Zn226	Zn	0.743686	0.012472	0.505570
	Zn227	Zn	0.243579	0.012083	0.506089
	N228	N	0.408152	0.975227	0.683723
	N229	N	0.581463	0.046846	0.686417
	N230	N	0.581077	0.977403	0.326100
	N231	N	0.407863	0.047242	0.326980
	N232	N	0.673772	0.423853	0.970925
	N233	N	0.673610	0.599655	0.039795
	N234	N	0.310387	0.601295	0.970892
	N235	N	0.312865	0.425245	0.039736
	N236	N	0.958435	0.692747	0.418883
	N237	N	0.028358	0.693052	0.593292
	N238	N	0.958633	0.331478	0.593127
	N239	N	0.028014	0.331866	0.417566
	N240	N	0.958497	0.424602	0.686987
	N241	N	0.028072	0.599841	0.687009
	N242	N	0.958555	0.601201	0.323051
	N243	N	0.028071	0.425925	0.324560
	N244	N	0.405780	0.691843	0.969768
	N245	N	0.578281	0.690589	0.040722
	N246	N	0.579014	0.332520	0.969729
	N247	N	0.405206	0.331226	0.039442
	N248	N	0.674824	0.978059	0.417897
	N249	N	0.674399	0.047263	0.593250
	N250	N	0.312185	0.977211	0.593875
	N251	N	0.312630	0.046012	0.417857
	N252	N	0.905797	0.476534	0.184881
	N253	N	0.077410	0.547972	0.182230
	N254	N	0.078897	0.476801	0.826521
	N255	N	0.906459	0.547663	0.826868
	N256	N	0.173274	0.925602	0.471220
	N257	N	0.175616	0.101282	0.539937
	N258	N	0.812963	0.100103	0.470886
	N259	N	0.813257	0.925805	0.541014
	N260	N	0.458058	0.192344	0.917577
	N261	N	0.528061	0.193329	0.093130
	N262	N	0.458000	0.832527	0.091387
	N263	N	0.527904	0.830806	0.917921
	N264	N	0.459426	0.924400	0.186668
	N265	N	0.529229	0.098979	0.186120
	N266	N	0.458073	0.098114	0.824888
	N267	N	0.527711	0.923377	0.823440
	N268	N	0.907468	0.191800	0.469944
	N269	N	0.079961	0.192151	0.540840
	N270	N	0.080113	0.832992	0.471096
	N271	N	0.906685	0.833077	0.541333
	N272	N	0.174700	0.478290	0.916346
	N273	N	0.173119	0.546422	0.092230
	N274	N	0.810150	0.477952	0.094646
	N275	N	0.812741	0.547788	0.919225
	O276	O	0.935610	1.194123	0.066915
	H277	H	0.936498	1.196706	0.077326
	H278	H	0.929453	1.202868	0.061249
	O279	O	-0.206513	-0.073312	0.949243
	H280	H	-0.203930	-0.051420	0.964582
	H281	H	-0.215180	-0.084780	0.974403
	O282	O	0.533896	0.588140	0.708230
	H283	H	0.527725	0.604574	0.694623
	H284	H	0.555068	0.597216	0.720765
	O285	O	0.057965	-0.195186	0.799075
	H286	H	0.066244	-0.194817	0.789609
	H287	H	0.063688	-0.198245	0.809767
	O288	O	1.015381	0.071154	0.804153
	H289	H	1.003120	0.062556	0.807429
	H290	H	1.032384	0.070570	0.813125
	O291	O	0.519100	0.396127	0.621860
	H292	H	0.541786	0.392429	0.613535
	H293	H	0.517433	0.400340	0.636082
	O294	O	0.149916	-0.118919	-0.005602
	H295	H	0.132443	-0.106952	0.005504
	H296	H	0.154232	-0.125337	0.003874
	O297	O	0.778938	0.042021	-0.202495
	H298	H	0.767989	0.033876	-0.213317
	H299	H	0.780212	0.022570	-0.199032
	O300	O	-0.036553	-0.196773	0.220632
	H301	H	-0.038610	-0.200535	0.223578
	H302	H	-0.048783	-0.209619	0.221249
	O303	O	-0.298881	-0.473868	-0.340547
	H304	H	-0.284148	-0.457234	-0.320752
	H305	H	-0.310561	-0.445483	-0.346911
	O306	O	1.193306	-0.110618	-0.153526
	H307	H	1.194495	-0.123568	-0.117207
	H308	H	1.190515	-0.087880	-0.155162
	O309	O	0.773398	0.981717	0.220174
	H310	H	0.745058	0.980465	0.246886
	H311	H	0.783027	0.968815	0.213086
	O312	O	0.084062	-0.074527	0.216039
	H313	H	0.088273	-0.090958	0.216409
	H314	H	0.058198	-0.054821	0.227961
	O315	O	0.380814	0.514346	0.518482
	H316	H	0.379094	0.506920	0.513236
	H317	H	0.372304	0.520028	0.520759
	O318	O	1.165515	1.177161	-0.164885
	H319	H	1.171448	1.180135	-0.171541
	H320	H	1.158637	1.162871	-0.152824
	O321	O	-0.733543	0.584138	0.567047
	H322	H	-0.737179	0.566679	0.562894
	H323	H	-0.740535	0.577857	0.568411
	O324	O	0.815711	0.160961	1.128931
	H325	H	0.805390	0.179311	1.133255
	H326	H	0.800421	0.166687	1.104438
	O327	O	0.788720	0.811180	0.207576
	H328	H	0.804850	0.813091	0.197291
	H329	H	0.764909	0.799217	0.234459
	O330	O	0.685991	0.684551	0.330627
	H331	H	0.671521	0.665789	0.349374
	H332	H	0.667356	0.677295	0.351684
	O333	O	0.692089	0.545714	0.470352
	H334	H	0.682949	0.530979	0.467115
	H335	H	0.687033	0.528638	0.467241
	O336	O	1.014512	-0.186868	1.001272
	H337	H	1.002618	-0.177071	1.014290
	H338	H	1.012914	-0.183306	0.997799
	O339	O	0.494283	0.723665	0.352268
	H340	H	0.479699	0.739125	0.351905
	H341	H	0.471899	0.719862	0.346602
	O342	O	-0.172432	1.188873	-0.135139
	H343	H	-0.165362	1.173824	-0.142648
	H344	H	-0.152926	1.182874	-0.144155
	O345	O	0.018687	0.164183	1.218315
	H346	H	0.015132	0.161782	1.209209
	H347	H	0.010592	0.189321	1.228973
	O348	O	0.455243	0.424900	0.373105
	H349	H	0.472813	0.438012	0.368741
	H350	H	0.462720	0.422842	0.369128
	O351	O	-0.058494	0.231229	0.789323
	H352	H	-0.040592	0.215883	0.798470
	H353	H	-0.061322	0.267150	0.753744
	O354	O	1.208430	-0.090623	1.025176
	H355	H	1.206010	-0.090164	1.023735
	H356	H	1.210635	-0.086670	1.030819
	O357	O	0.308195	0.316347	0.699738
	H358	H	0.306262	0.348580	0.690584
	H359	H	0.327397	0.320295	0.707367
	O360	O	0.276426	0.490467	0.718165
	H361	H	0.293442	0.505013	0.726688
	H362	H	0.268026	0.497990	0.740135
	O363	O	0.277371	0.730209	-0.519663
	H364	H	0.263143	0.737203	-0.539953
	H365	H	0.254475	0.727146	-0.517026
	O366	O	1.201848	0.031358	1.192248
	H367	H	1.183784	0.015492	1.194083
	H368	H	1.209620	0.030529	1.199402
	O369	O	-0.067420	0.000105	0.985615
	H370	H	-0.061314	0.004795	0.986669
	H371	H	-0.063246	0.007636	0.979460
	O372	O	0.191228	1.227086	1.024349
	H373	H	0.213688	1.230140	1.029883
	H374	H	0.196292	1.231371	1.036978
	O375	O	1.203655	-0.011325	-0.207075
	H376	H	1.212179	-0.017012	-0.223063
	H377	H	1.203239	-0.008126	-0.200190
	O378	O	1.634014	-0.516827	0.505716
	H379	H	1.617496	-0.503223	0.499203
	H380	H	1.641280	-0.522680	0.527997
	O381	O	-0.159919	0.857867	-0.178855
	H382	H	-0.143629	0.862155	-0.159641
	H383	H	-0.153391	0.871307	-0.166725
	O384	O	0.703753	0.718035	-0.461857
	H385	H	0.705378	0.706883	-0.482063
	H386	H	0.711919	0.725472	-0.477212
	O387	O	-0.230104	0.792245	1.038097
	H388	H	-0.245512	0.782489	1.047624
	H389	H	-0.236383	0.781194	1.055422
	O390	O	0.041884	1.229628	0.979034
	H391	H	0.048693	1.229047	0.980339
	H392	H	0.050017	1.233930	0.975046
	O393	O	0.081684	0.998402	0.011455
	H394	H	0.086330	0.997570	0.021182
	H395	H	0.068340	1.005365	0.005138
	O396	O	0.573100	0.453247	0.510502
	H397	H	0.556208	0.444780	0.515682
	H398	H	0.574213	0.465620	0.505830
	O399	O	0.432086	0.539497	0.487627
	H400	H	0.422677	0.534908	0.490102
	H401	H	0.430641	0.540526	0.502896
	O402	O	1.309556	0.326653	0.337132
	H403	H	1.311085	0.324563	0.346016
	H404	H	1.321778	0.336048	0.355137
	O405	O	0.579368	0.315793	0.702800
	H406	H	0.589669	0.321822	0.699801
	H407	H	0.581310	0.312190	0.720380
	O408	O	0.799435	1.026980	1.048868
	H409	H	0.796738	1.044077	1.048545
	H410	H	0.806340	1.033397	1.050539
	O411	O	0.692122	0.707667	0.704276
	H412	H	0.689386	0.716770	0.664728
	H413	H	0.697764	0.730869	0.711487
	O414	O	-0.215294	0.214316	-0.028987
	H415	H	-0.222268	0.209665	-0.059844
	H416	H	-0.219395	0.213858	-0.042196
	O417	O	0.209026	0.794756	0.221736
	H418	H	0.199482	0.809320	0.219304
	H419	H	0.195729	0.790605	0.218568
	O420	O	0.969296	-0.200671	1.000127
	H421	H	0.953743	-0.200895	1.005548
	H422	H	0.973347	-0.190909	0.980693
	O423	O	1.341468	0.687261	0.337402
	H424	H	1.330251	0.686111	0.329133
	H425	H	1.328665	0.673606	0.330594
	O426	O	0.716181	0.485439	0.287417
	H427	H	0.740915	0.483073	0.258836
	H428	H	0.701217	0.476141	0.284831
	O429	O	0.708999	0.301183	0.476043
	H430	H	0.727412	0.286862	0.481050
	H431	H	0.712246	0.315817	0.487180
	O432	O	1.562715	0.550493	0.301521
	H433	H	1.567215	0.558231	0.305421
	H434	H	1.558015	0.562276	0.302839
	O435	O	0.287088	0.404099	0.490978
	H436	H	0.290030	0.389625	0.500747
	H437	H	0.281297	0.390800	0.496133
	O438	O	0.282545	0.546416	0.296268
	H439	H	0.274441	0.534388	0.284624
	H440	H	0.287241	0.533054	0.302101
	O441	O	0.473391	0.404811	0.720207
	H442	H	0.469102	0.400681	0.729024
	H443	H	0.471981	0.413482	0.718834
	O444	O	0.686177	0.316205	0.310388
	H445	H	0.669634	0.323050	0.316695
	H446	H	0.683829	0.327118	0.331675
	O447	O	1.155172	0.131156	1.051484
	H448	H	1.171214	0.130571	1.049649
	H449	H	1.151625	0.149045	1.057680
	O450	O	1.434317	0.649866	0.530284
	H451	H	1.419860	0.661568	0.519294
	H452	H	1.425892	0.638115	0.538450
	O453	O	-0.476066	0.306020	0.290555
	H454	H	-0.476668	0.309569	0.297303
	H455	H	-0.477184	0.287584	0.275718
	O456	O	-0.022960	1.047615	1.226062
	H457	H	-0.038444	1.049326	1.221889
	H458	H	-0.029709	1.060764	1.226940
	O459	O	0.519894	0.324819	0.550241
	H460	H	0.531388	0.324877	0.570392
	H461	H	0.519022	0.331663	0.554893
	O462	O	0.304583	0.393433	0.566960
	H463	H	0.297421	0.376607	0.572273
	H464	H	0.319037	0.392703	0.574434
	O465	O	0.445715	0.400261	0.558323
	H466	H	0.454688	0.416076	0.564243
	H467	H	0.461018	0.401609	0.550106
	O468	O	0.524884	0.732158	0.724949
	H469	H	0.525061	0.769942	0.759884
	H470	H	0.534939	0.728818	0.705344
	O471	O	1.201116	1.216549	0.215417
	H472	H	1.217006	1.229494	0.215981
	H473	H	1.182668	1.187064	0.221001
	O474	O	1.978644	1.008845	0.805765
	H475	H	1.969860	0.997821	0.804077
	H476	H	1.981599	1.020815	0.804075
	O477	O	0.518956	0.731079	0.395636
	H478	H	0.503739	0.744851	0.397632
	H479	H	0.502491	0.736349	0.394896
