data_Molecule from HDF5

_cell_length_a		16.551508
_cell_length_b		16.568072
_cell_length_c		16.289678
_cell_angle_alpha	90.016523
_cell_angle_beta	90.139235
_cell_angle_gamma	90.065261
_symmetry_space_group_name_H-M	'P 1'
_symmetry_Int_Tables_number		1

loop_
	_symmetry_equiv_pos_as_xyz
	x,y,z

loop_
	_atom_site_label
	_atom_site_type_symbol
	_atom_site_fract_x
	_atom_site_fract_y
	_atom_site_fract_z
	H0	H	0.397202	0.846103	0.720626
	H1	H	0.601720	0.162799	0.717825
	H2	H	0.604816	0.846580	0.277087
	H3	H	0.394851	0.161260	0.277804
	H4	H	0.720667	0.399834	0.840360
	H5	H	0.726031	0.613308	0.156916
	H6	H	0.280018	0.611419	0.839847
	H7	H	0.279035	0.399785	0.157594
	H8	H	0.845985	0.731023	0.386984
	H9	H	0.156233	0.730207	0.608667
	H10	H	0.843534	0.283456	0.603547
	H11	H	0.158026	0.281949	0.392961
	H12	H	0.841845	0.403686	0.717252
	H13	H	0.158368	0.609316	0.721304
	H14	H	0.844647	0.610318	0.274449
	H15	H	0.158455	0.401032	0.278537
	H16	H	0.394635	0.727981	0.841996
	H17	H	0.608561	0.726572	0.159225
	H18	H	0.606276	0.282551	0.842663
	H19	H	0.395513	0.286347	0.159960
	H20	H	0.724378	0.847792	0.390681
	H21	H	0.721884	0.160735	0.604887
	H22	H	0.275440	0.848103	0.608794
	H23	H	0.277213	0.160592	0.392717
	H24	H	0.898749	0.347746	0.217014
	H25	H	0.107517	0.662630	0.221708
	H26	H	0.102111	0.346372	0.780386
	H27	H	0.896706	0.662807	0.777005
	H28	H	0.222376	0.898388	0.341674
	H29	H	0.220637	0.108875	0.659893
	H30	H	0.781162	0.105857	0.339998
	H31	H	0.780644	0.899439	0.659261
	H32	H	0.343611	0.226850	0.894850
	H33	H	0.657547	0.226569	0.106133
	H34	H	0.345251	0.778378	0.110046
	H35	H	0.656539	0.781319	0.891554
	H36	H	0.341200	0.902532	0.218017
	H37	H	0.659740	0.103992	0.217049
	H38	H	0.341967	0.106928	0.781055
	H39	H	0.658108	0.901104	0.779783
	H40	H	0.898275	0.221652	0.338910
	H41	H	0.104628	0.224051	0.659312
	H42	H	0.108408	0.781601	0.341936
	H43	H	0.894711	0.781888	0.657831
	H44	H	0.223802	0.348248	0.892584
	H45	H	0.224063	0.662377	0.105537
	H46	H	0.778317	0.350532	0.103410
	H47	H	0.774968	0.660082	0.887202
	H48	H	0.406147	0.116880	0.588069
	H49	H	0.590328	0.891542	0.588516
	H50	H	0.584079	0.112514	0.413543
	H51	H	0.408537	0.892853	0.413639
	H52	H	0.594601	0.416308	0.115848
	H53	H	0.586243	0.597404	0.885660
	H54	H	0.414804	0.594061	0.113489
	H55	H	0.414704	0.411977	0.884683
	H56	H	0.111605	0.590461	0.409264
	H57	H	0.889957	0.590775	0.588984
	H58	H	0.113002	0.413315	0.585909
	H59	H	0.889163	0.414787	0.411185
	H60	H	0.113439	0.415475	0.589641
	H61	H	0.886910	0.597747	0.587920
	H62	H	0.113139	0.597931	0.413852
	H63	H	0.887258	0.413499	0.404921
	H64	H	0.410536	0.591071	0.113061
	H65	H	0.591368	0.592150	0.885940
	H66	H	0.589752	0.421611	0.112648
	H67	H	0.409307	0.416497	0.885146
	H68	H	0.595932	0.116027	0.415282
	H69	H	0.592014	0.889948	0.589763
	H70	H	0.411350	0.116996	0.592007
	H71	H	0.409240	0.891766	0.409244
	H72	H	0.912464	0.616196	0.080604
	H73	H	0.094094	0.391632	0.091245
	H74	H	0.093988	0.617991	0.910921
	H75	H	0.907461	0.393236	0.911978
	H76	H	0.088903	0.918295	0.613808
	H77	H	0.097416	0.096477	0.382231
	H78	H	0.917923	0.091878	0.611579
	H79	H	0.912402	0.917977	0.386452
	H80	H	0.613675	0.099411	0.914300
	H81	H	0.386929	0.101806	0.084541
	H82	H	0.616772	0.909056	0.095763
	H83	H	0.389485	0.915535	0.914962
	H84	H	0.609390	0.910718	0.076892
	H85	H	0.389877	0.091575	0.086328
	H86	H	0.611616	0.092226	0.913024
	H87	H	0.389640	0.917548	0.913495
	H88	H	0.909689	0.102990	0.617954
	H89	H	0.088823	0.085628	0.387710
	H90	H	0.085433	0.919857	0.610657
	H91	H	0.913326	0.917519	0.386915
	H92	H	0.090725	0.617675	0.909182
	H93	H	0.087088	0.394602	0.087435
	H94	H	0.910835	0.619663	0.087113
	H95	H	0.909346	0.391988	0.906657
	H96	H	0.412174	0.114333	0.585880
	H97	H	0.589929	0.891393	0.590721
	H98	H	0.590750	0.117102	0.403965
	H99	H	0.412852	0.893303	0.411265
	H100	H	0.587017	0.414299	0.114753
	H101	H	0.584677	0.590771	0.888537
	H102	H	0.415139	0.589485	0.111584
	H103	H	0.416175	0.418591	0.887284
	H104	H	0.109065	0.590990	0.418275
	H105	H	0.891068	0.594615	0.582333
	H106	H	0.114010	0.411512	0.589385
	H107	H	0.886879	0.408822	0.409702
	H108	H	0.917519	0.616635	0.085841
	H109	H	0.095136	0.394034	0.082913
	H110	H	0.091016	0.616623	0.912767
	H111	H	0.912540	0.393800	0.910835
	H112	H	0.085133	0.915847	0.612827
	H113	H	0.083376	0.098880	0.385714
	H114	H	0.903419	0.089355	0.615343
	H115	H	0.912547	0.916693	0.385966
	H116	H	0.614056	0.096110	0.907186
	H117	H	0.384502	0.097493	0.094103
	H118	H	0.609195	0.926315	0.089593
	H119	H	0.388397	0.915274	0.912661
	C120	C	0.377975	0.012167	0.621789
	C121	C	0.621940	0.995199	0.621403
	C122	C	0.621985	0.011862	0.377868
	C123	C	0.378222	0.996135	0.378384
	C124	C	0.621873	0.384933	0.009032
	C125	C	0.621785	0.626924	0.991119
	C126	C	0.380995	0.625221	0.007972
	C127	C	0.380629	0.384281	0.990957
	C128	C	0.008467	0.626240	0.378511
	C129	C	0.992924	0.626524	0.620172
	C130	C	0.009424	0.382559	0.620539
	C131	C	0.992510	0.381921	0.377166
	C132	C	0.880941	0.514378	0.117889
	C133	C	0.124180	0.497123	0.120435
	C134	C	0.123112	0.513173	0.878101
	C135	C	0.877965	0.496688	0.876579
	C136	C	0.120346	0.884413	0.508051
	C137	C	0.121863	0.125648	0.491053
	C138	C	0.879444	0.125114	0.508665
	C139	C	0.879573	0.883574	0.491152
	C140	C	0.509088	0.127319	0.878917
	C141	C	0.491786	0.127140	0.121070
	C142	C	0.508493	0.882739	0.121008
	C143	C	0.492447	0.884003	0.880144
	C144	C	0.377251	0.893534	0.681667
	C145	C	0.621574	0.114922	0.679238
	C146	C	0.623691	0.893765	0.316818
	C147	C	0.376552	0.114091	0.317886
	C148	C	0.681124	0.381787	0.888800
	C149	C	0.684756	0.630877	0.109831
	C150	C	0.320582	0.628762	0.887890
	C151	C	0.319643	0.382051	0.110322
	C152	C	0.892004	0.688844	0.371456
	C153	C	0.109947	0.688556	0.625203
	C154	C	0.890509	0.323600	0.622067
	C155	C	0.110710	0.322228	0.374936
	C156	C	0.889598	0.383607	0.678359
	C157	C	0.111036	0.628419	0.681302
	C158	C	0.891409	0.628784	0.315350
	C159	C	0.111239	0.381699	0.318143
	C160	C	0.377418	0.686966	0.888806
	C161	C	0.626160	0.687182	0.110936
	C162	C	0.624446	0.323234	0.889819
	C163	C	0.377817	0.325589	0.111592
	C164	C	0.683031	0.894623	0.373738
	C165	C	0.681286	0.113771	0.623055
	C166	C	0.316968	0.894651	0.625847
	C167	C	0.317897	0.113735	0.375224
	C168	C	0.879205	0.395609	0.177795
	C169	C	0.125795	0.615268	0.181431
	C170	C	0.122330	0.394005	0.819182
	C171	C	0.877157	0.615107	0.816188
	C172	C	0.182007	0.880436	0.388988
	C173	C	0.181305	0.127504	0.611475
	C174	C	0.821061	0.125044	0.387550
	C175	C	0.819750	0.880795	0.611140
	C176	C	0.390647	0.186704	0.876583
	C177	C	0.610713	0.185913	0.123690
	C178	C	0.391382	0.820414	0.125976
	C179	C	0.609716	0.822501	0.875387
	C180	C	0.389356	0.881856	0.180148
	C181	C	0.611593	0.125341	0.179024
	C182	C	0.389842	0.127033	0.819958
	C183	C	0.610722	0.882319	0.819560
	C184	C	0.879313	0.182296	0.387171
	C185	C	0.123210	0.184575	0.611390
	C186	C	0.125089	0.822713	0.389061
	C187	C	0.876745	0.822484	0.610453
	C188	C	0.182738	0.395022	0.874974
	C189	C	0.184094	0.615274	0.123759
	C190	C	0.819297	0.396940	0.121417
	C191	C	0.816539	0.613908	0.871214
	C192	C	0.402769	0.094714	0.596013
	C193	C	0.597887	0.912563	0.596762
	C194	C	0.597205	0.093813	0.403668
	C195	C	0.403192	0.913942	0.404100
	C196	C	0.597353	0.410202	0.092638
	C197	C	0.595051	0.600943	0.908396
	C198	C	0.406255	0.599017	0.091095
	C199	C	0.406106	0.408879	0.907285
	C200	C	0.089939	0.600566	0.406121
	C201	C	0.910712	0.601564	0.593893
	C202	C	0.091908	0.406522	0.595619
	C203	C	0.909425	0.405646	0.401561
	C204	C	0.906433	0.596163	0.091868
	C205	C	0.099189	0.414824	0.094439
	C206	C	0.098941	0.595824	0.903495
	C207	C	0.902645	0.414675	0.902368
	C208	C	0.093981	0.910438	0.590878
	C209	C	0.097115	0.100757	0.407092
	C210	C	0.903623	0.101730	0.593106
	C211	C	0.905228	0.909807	0.408008
	C212	C	0.591834	0.102871	0.904207
	C213	C	0.408913	0.103778	0.095743
	C214	C	0.590483	0.908102	0.094999
	C215	C	0.410473	0.909062	0.906365
	Zn216	Zn	0.499931	0.004414	0.750197
	Zn217	Zn	0.500012	0.004203	0.248936
	Zn218	Zn	0.749838	0.506537	-0.001483
	Zn219	Zn	0.252923	0.505206	-0.001217
	Zn220	Zn	0.000541	0.756146	0.499101
	Zn221	Zn	0.000556	0.253185	0.499387
	Zn222	Zn	0.001179	0.505098	0.749342
	Zn223	Zn	0.001590	0.505293	0.248738
	Zn224	Zn	0.500670	0.754048	0.000464
	Zn225	Zn	0.500730	0.256670	0.000700
	Zn226	Zn	0.751180	0.003656	0.499969
	Zn227	Zn	0.249025	0.003878	0.499986
	N228	N	0.414192	0.967832	0.679215
	N229	N	0.585494	0.040248	0.678549
	N230	N	0.586155	0.967597	0.319333
	N231	N	0.413315	0.039869	0.319559
	N232	N	0.679640	0.419502	0.963933
	N233	N	0.682432	0.594237	0.034143
	N234	N	0.322774	0.591089	0.963051
	N235	N	0.321221	0.417910	0.034243
	N236	N	0.965970	0.687541	0.409825
	N237	N	0.035361	0.687378	0.587959
	N238	N	0.965908	0.322720	0.587064
	N239	N	0.035611	0.322196	0.410835
	N240	N	0.964491	0.419447	0.677645
	N241	N	0.037268	0.590563	0.678222
	N242	N	0.964731	0.590473	0.319837
	N243	N	0.036756	0.418059	0.319306
	N244	N	0.414021	0.684860	0.964481
	N245	N	0.587852	0.684883	0.036138
	N246	N	0.588232	0.325112	0.965481
	N247	N	0.414985	0.326776	0.036295
	N248	N	0.682137	0.968995	0.410924
	N249	N	0.681747	0.038379	0.587871
	N250	N	0.317278	0.969559	0.589436
	N251	N	0.318681	0.039179	0.411988
	N252	N	0.916859	0.469563	0.175766
	N253	N	0.089347	0.540654	0.179573
	N254	N	0.086065	0.468662	0.820897
	N255	N	0.914426	0.541152	0.819069
	N256	N	0.179168	0.918009	0.464026
	N257	N	0.180471	0.091472	0.535413
	N258	N	0.820826	0.090489	0.464251
	N259	N	0.821515	0.918107	0.535815
	N260	N	0.465978	0.187097	0.912517
	N261	N	0.535045	0.187448	0.088813
	N262	N	0.466639	0.820514	0.090415
	N263	N	0.535104	0.823328	0.912326
	N264	N	0.463124	0.919857	0.177061
	N265	N	0.536641	0.089724	0.177580
	N266	N	0.464511	0.091003	0.821268
	N267	N	0.536921	0.919959	0.822428
	N268	N	0.914649	0.182474	0.463546
	N269	N	0.087058	0.183535	0.535531
	N270	N	0.087622	0.824838	0.464259
	N271	N	0.913041	0.824144	0.534782
	N272	N	0.183572	0.470289	0.910252
	N273	N	0.183429	0.540629	0.086847
	N274	N	0.820174	0.471767	0.085173
	N275	N	0.816847	0.539349	0.907876
	O276	O	0.519147	0.294560	0.368123
	H277	H	0.528983	0.276717	0.356769
	H278	H	0.527092	0.289721	0.366544
	O279	O	0.708112	0.523359	0.463880
	H280	H	0.719967	0.528516	0.451358
	H281	H	0.699960	0.524121	0.446163
	O282	O	1.084771	0.923389	0.180110
	H283	H	1.095944	0.921698	0.195667
	H284	H	1.097360	0.928503	0.178172
	O285	O	0.682979	0.246682	0.240164
	H286	H	0.670465	0.255088	0.231079
	H287	H	0.698014	0.228621	0.215991
	O288	O	-0.053645	0.000502	0.174092
	H289	H	-0.045733	-0.008338	0.182831
	H290	H	-0.031000	0.015394	0.166943
	O291	O	1.211092	0.963970	-0.007281
	H292	H	1.217543	0.981064	-0.010437
	H293	H	1.217973	0.959245	-0.008879
	O294	O	0.221296	0.789195	-0.024254
	H295	H	0.226001	0.784216	-0.052091
	H296	H	0.237532	0.774660	-0.045206
	O297	O	0.687205	0.698467	0.695926
	H298	H	0.697215	0.683391	0.675484
	H299	H	0.664710	0.701991	0.680233
	O300	O	0.386990	0.306301	0.379977
	H301	H	0.400215	0.312104	0.393265
	H302	H	0.391487	0.320298	0.387474
	O303	O	0.302507	0.305575	0.695024
	H304	H	0.299743	0.297435	0.650395
	H305	H	0.324131	0.293268	0.707636
	O306	O	-0.008633	0.791089	0.999312
	H307	H	-0.018639	0.785892	0.992464
	H308	H	0.022311	0.799145	1.011886
	O309	O	0.467319	0.382509	0.462498
	H310	H	0.484360	0.382141	0.472088
	H311	H	0.463455	0.378921	0.476426
	O312	O	0.656934	0.338022	0.596555
	H313	H	0.667462	0.342744	0.588402
	H314	H	0.648349	0.344067	0.569629
	O315	O	-0.214788	-0.210935	1.019851
	H316	H	-0.226676	-0.219097	1.035281
	H317	H	-0.213884	-0.228606	1.025371
	O318	O	0.152753	0.931996	0.177240
	H319	H	0.151135	0.937440	0.175800
	H320	H	0.169002	0.935634	0.172098
	O321	O	0.376683	0.464452	0.534845
	H322	H	0.367225	0.456382	0.530234
	H323	H	0.376396	0.468505	0.520389
	O324	O	0.614847	0.457325	0.530521
	H325	H	0.622061	0.471392	0.541087
	H326	H	0.627589	0.459009	0.511076
	O327	O	1.115353	-0.087891	1.011058
	H328	H	1.138943	-0.101639	1.001052
	H329	H	1.106322	-0.092774	1.026983
	O330	O	1.088052	0.204592	0.206817
	H331	H	1.081598	0.205731	0.188363
	H332	H	1.087847	0.230552	0.214895
	O333	O	0.803695	0.977685	0.981443
	H334	H	0.805689	0.966598	0.987890
	H335	H	0.802197	0.968132	0.977824
	O336	O	0.954625	0.140327	0.980212
	H337	H	0.959196	0.147203	0.966851
	H338	H	0.960466	0.132451	0.971100
	O339	O	0.476882	0.291031	0.707279
	H340	H	0.467155	0.278781	0.714551
	H341	H	0.489763	0.302826	0.722398
	O342	O	0.291296	0.298148	0.524424
	H343	H	0.291633	0.287180	0.517087
	H344	H	0.289627	0.305587	0.509363
	O345	O	-0.136745	0.200827	0.020317
	H346	H	-0.143904	0.208718	0.013391
	H347	H	-0.123755	0.183676	0.019662
	O348	O	0.967965	0.217246	0.807155
	H349	H	0.950229	0.218868	0.790733
	H350	H	0.957486	0.226168	0.799107
	O351	O	0.880182	1.021282	-0.009637
	H352	H	0.904193	1.016032	0.000443
	H353	H	0.872266	1.010916	-0.017064
	O354	O	0.666689	0.350282	0.425288
	H355	H	0.645413	0.361416	0.412320
	H356	H	0.679678	0.335763	0.413344
	O357	O	1.031845	1.078643	0.941909
	H358	H	1.024822	1.091280	0.941328
	H359	H	1.033183	1.069596	0.942215
	O360	O	0.588859	0.438976	0.507325
	H361	H	0.602531	0.432130	0.507236
	H362	H	0.604842	0.434296	0.504954
	O363	O	0.472753	0.627742	0.622741
	H364	H	0.471940	0.632311	0.598894
	H365	H	0.443215	0.619938	0.628507
	O366	O	0.792264	0.115101	0.796135
	H367	H	0.788542	0.102351	0.808933
	H368	H	0.760337	0.130234	0.762434
	O369	O	0.714059	0.701675	0.510956
	H370	H	0.725639	0.718520	0.506597
	H371	H	0.708251	0.696146	0.506604
	O372	O	0.594199	0.401789	0.393828
	H373	H	0.597170	0.395394	0.392263
	H374	H	0.591652	0.392824	0.400095
	O375	O	0.177896	1.000350	0.801632
	H376	H	0.159066	0.997175	0.800741
	H377	H	0.187174	1.005047	0.784461
	O378	O	0.714095	0.479519	0.287431
	H379	H	0.716940	0.463260	0.286519
	H380	H	0.720399	0.455838	0.279151
	O381	O	0.828079	-0.073121	0.075678
	H382	H	0.854330	-0.065810	0.086982
	H383	H	0.807205	-0.063783	0.085853
	O384	O	-0.186225	-0.059715	0.826138
	H385	H	-0.190107	-0.074109	0.818151
	H386	H	-0.194695	-0.069487	0.825277
	O387	O	0.049345	0.870453	1.117061
	H388	H	0.041863	0.860707	1.130887
	H389	H	0.046635	0.877310	1.115716
	O390	O	0.024506	-0.040788	1.084380
	H391	H	0.023802	-0.055563	1.092303
	H392	H	0.037899	-0.039845	1.080920
	O393	O	0.833056	0.826874	0.178717
	H394	H	0.836412	0.855564	0.187604
	H395	H	0.837105	0.834157	0.155738
	O396	O	0.443687	0.484715	0.319191
	H397	H	0.439637	0.485575	0.331684
	H398	H	0.426672	0.499283	0.316234
	O399	O	0.479157	0.534887	0.693827
	H400	H	0.468109	0.545571	0.696045
	H401	H	0.492888	0.543604	0.690959
	O402	O	0.030915	-0.174314	0.800730
	H403	H	0.009132	-0.169039	0.795513
	H404	H	0.018519	-0.184508	0.812510
	O405	O	0.201742	0.206313	0.142405
	H406	H	0.194436	0.205403	0.141803
	H407	H	0.201268	0.205482	0.133844
	O408	O	0.599672	0.607492	0.345948
	H409	H	0.597232	0.600156	0.339629
	H410	H	0.606364	0.584732	0.335114
	O411	O	0.291654	0.536253	0.552557
	H412	H	0.301542	0.517035	0.542617
	H413	H	0.286787	0.528429	0.580603
	O414	O	0.519625	0.706216	0.703479
	H415	H	0.514090	0.715269	0.719136
	H416	H	0.523206	0.693034	0.697043
	O417	O	0.328162	0.677489	0.488220
	H418	H	0.311549	0.682560	0.487704
	H419	H	0.327723	0.663303	0.502795
	O420	O	0.305304	0.697788	0.308607
	H421	H	0.340383	0.698433	0.308914
	H422	H	0.310857	0.710482	0.338434
	O423	O	-0.382613	0.616886	0.436883
	H424	H	-0.365703	0.618675	0.432343
	H425	H	-0.380989	0.626886	0.428783
	O426	O	0.853205	1.153530	1.120444
	H427	H	0.858333	1.163588	1.099100
	H428	H	0.863542	1.139446	1.097577
	O429	O	0.530560	0.579015	0.580234
	H430	H	0.530755	0.577151	0.570833
	H431	H	0.522033	0.573159	0.583229
	O432	O	0.775284	0.252662	0.744084
	H433	H	0.775069	0.264235	0.749046
	H434	H	0.759254	0.272160	0.723791
	O435	O	0.116731	0.193945	0.063868
	H436	H	0.115701	0.202393	0.075443
	H437	H	0.123249	0.185934	0.058734
	O438	O	1.107649	0.130237	-0.006724
	H439	H	1.113698	0.133602	-0.018666
	H440	H	1.100589	0.119076	-0.017314
	O441	O	0.419263	0.545045	0.362152
	H442	H	0.416381	0.556014	0.347016
	H443	H	0.433096	0.545003	0.376314
	O444	O	0.164638	0.808018	0.807107
	H445	H	0.122690	0.805481	0.800797
	H446	H	0.175640	0.825679	0.785657
	O447	O	0.281729	0.535996	0.289693
	H448	H	0.259651	0.547271	0.263713
	H449	H	0.281277	0.564420	0.297152
	O450	O	0.471723	0.711924	0.448086
	H451	H	0.474761	0.701239	0.439688
	H452	H	0.462816	0.719351	0.443010
	O453	O	0.702876	0.533891	0.712654
	H454	H	0.714503	0.552926	0.719816
	H455	H	0.713199	0.534556	0.711733
	O456	O	1.122949	0.144691	-0.108397
	H457	H	1.109425	0.126101	-0.099563
	H458	H	1.127289	0.143897	-0.110206
	O459	O	0.281788	0.480169	0.715643
	H460	H	0.279920	0.440512	0.719434
	H461	H	0.266407	0.469361	0.738192
	O462	O	0.473548	0.641213	0.340766
	H463	H	0.489073	0.621813	0.329992
	H464	H	0.468886	0.643512	0.325706
	O465	O	0.945235	-0.034113	-0.209344
	H466	H	0.925256	-0.041321	-0.209780
	H467	H	0.944877	-0.028167	-0.196848
