data_Molecule from HDF5

_cell_length_a		16.502113
_cell_length_b		16.548852
_cell_length_c		16.362478
_cell_angle_alpha	90.021354
_cell_angle_beta	89.817512
_cell_angle_gamma	90.145961
_symmetry_space_group_name_H-M	'P 1'
_symmetry_Int_Tables_number		1

loop_
	_symmetry_equiv_pos_as_xyz
	x,y,z

loop_
	_atom_site_label
	_atom_site_type_symbol
	_atom_site_fract_x
	_atom_site_fract_y
	_atom_site_fract_z
	H0	H	0.394471	0.846721	0.719746
	H1	H	0.602474	0.161369	0.718043
	H2	H	0.604364	0.845520	0.275902
	H3	H	0.395491	0.161102	0.278192
	H4	H	0.720203	0.396311	0.841494
	H5	H	0.719415	0.608468	0.158357
	H6	H	0.281405	0.603951	0.839991
	H7	H	0.274243	0.394700	0.157429
	H8	H	0.841480	0.725138	0.391288
	H9	H	0.153275	0.727889	0.605772
	H10	H	0.842686	0.279401	0.604761
	H11	H	0.157213	0.279413	0.389910
	H12	H	0.840037	0.398891	0.717681
	H13	H	0.156702	0.605983	0.718412
	H14	H	0.840083	0.606885	0.277505
	H15	H	0.156344	0.397158	0.274644
	H16	H	0.395638	0.722765	0.841140
	H17	H	0.605630	0.726031	0.157390
	H18	H	0.603473	0.281625	0.841154
	H19	H	0.389398	0.279524	0.157034
	H20	H	0.721524	0.845156	0.391874
	H21	H	0.721811	0.159856	0.603891
	H22	H	0.275970	0.847338	0.604276
	H23	H	0.273970	0.158302	0.388145
	H24	H	0.894501	0.345171	0.219200
	H25	H	0.102806	0.660638	0.220396
	H26	H	0.102398	0.344782	0.777843
	H27	H	0.894719	0.659447	0.777726
	H28	H	0.226729	0.890897	0.342220
	H29	H	0.219767	0.107387	0.657307
	H30	H	0.780253	0.106208	0.339947
	H31	H	0.776838	0.897079	0.656688
	H32	H	0.340564	0.225782	0.891630
	H33	H	0.654302	0.225247	0.104292
	H34	H	0.341360	0.778853	0.107500
	H35	H	0.654983	0.781834	0.892707
	H36	H	0.341327	0.896032	0.223264
	H37	H	0.657285	0.106197	0.216908
	H38	H	0.340559	0.108447	0.776161
	H39	H	0.656530	0.901691	0.778718
	H40	H	0.895813	0.223446	0.340763
	H41	H	0.104952	0.223052	0.657919
	H42	H	0.109864	0.775954	0.341811
	H43	H	0.891981	0.781251	0.656550
	H44	H	0.221119	0.345231	0.891634
	H45	H	0.221453	0.659333	0.105275
	H46	H	0.775531	0.346566	0.104638
	H47	H	0.776891	0.658810	0.893121
	H48	H	0.415032	0.112535	0.578754
	H49	H	0.584999	0.891686	0.585753
	H50	H	0.590434	0.116671	0.402782
	H51	H	0.407383	0.890893	0.412684
	H52	H	0.586070	0.417894	0.111933
	H53	H	0.586309	0.597381	0.885204
	H54	H	0.409139	0.596203	0.115485
	H55	H	0.404792	0.421321	0.886693
	H56	H	0.106426	0.585036	0.415022
	H57	H	0.885073	0.592428	0.589326
	H58	H	0.112040	0.415553	0.591246
	H59	H	0.888428	0.416539	0.408951
	H60	H	0.113511	0.409079	0.588229
	H61	H	0.886493	0.593036	0.586765
	H62	H	0.110024	0.589092	0.407626
	H63	H	0.885261	0.407931	0.407645
	H64	H	0.405310	0.587025	0.113933
	H65	H	0.592537	0.590069	0.884297
	H66	H	0.581633	0.412074	0.112492
	H67	H	0.418652	0.413883	0.889115
	H68	H	0.584852	0.112102	0.410830
	H69	H	0.591023	0.891361	0.585654
	H70	H	0.399934	0.117894	0.584600
	H71	H	0.415493	0.892498	0.408008
	H72	H	0.912443	0.613254	0.086544
	H73	H	0.093907	0.388495	0.086664
	H74	H	0.085504	0.613827	0.907855
	H75	H	0.906006	0.391224	0.916679
	H76	H	0.082570	0.910251	0.610552
	H77	H	0.082014	0.093630	0.386471
	H78	H	0.911423	0.086811	0.611247
	H79	H	0.906454	0.913502	0.383841
	H80	H	0.608051	0.087373	0.910440
	H81	H	0.388958	0.088443	0.079650
	H82	H	0.613740	0.906082	0.088392
	H83	H	0.388112	0.917323	0.915485
	H84	H	0.606775	0.915156	0.078861
	H85	H	0.385215	0.085928	0.093206
	H86	H	0.612333	0.094924	0.903742
	H87	H	0.383930	0.914496	0.903216
	H88	H	0.913834	0.095538	0.613592
	H89	H	0.091340	0.093944	0.382816
	H90	H	0.090542	0.918406	0.609926
	H91	H	0.912608	0.917005	0.386629
	H92	H	0.091636	0.613540	0.914703
	H93	H	0.081694	0.391129	0.092206
	H94	H	0.907110	0.614387	0.084297
	H95	H	0.903776	0.386384	0.904533
	H96	H	0.413559	0.118067	0.595029
	H97	H	0.588120	0.890175	0.590479
	H98	H	0.595488	0.115152	0.412660
	H99	H	0.414424	0.895264	0.417064
	H100	H	0.588482	0.411832	0.114476
	H101	H	0.584458	0.588544	0.888157
	H102	H	0.415307	0.589067	0.111544
	H103	H	0.406890	0.406099	0.882736
	H104	H	0.109112	0.592912	0.415574
	H105	H	0.886171	0.590603	0.587843
	H106	H	0.111082	0.414368	0.583872
	H107	H	0.888665	0.410606	0.415885
	H108	H	0.908868	0.616710	0.089775
	H109	H	0.084799	0.394714	0.079772
	H110	H	0.094015	0.617379	0.906615
	H111	H	0.915483	0.391107	0.907494
	H112	H	0.080352	0.920259	0.605477
	H113	H	0.087408	0.085467	0.387145
	H114	H	0.905132	0.092526	0.614627
	H115	H	0.912820	0.910137	0.383972
	H116	H	0.610252	0.097427	0.914417
	H117	H	0.382810	0.098621	0.087343
	H118	H	0.610584	0.919474	0.091919
	H119	H	0.383507	0.905254	0.913147
	C120	C	0.376965	0.012431	0.619402
	C121	C	0.620025	0.994922	0.619164
	C122	C	0.622220	0.010947	0.375685
	C123	C	0.378596	0.995214	0.377702
	C124	C	0.618011	0.381872	0.008029
	C125	C	0.620444	0.624867	0.990645
	C126	C	0.378450	0.622801	0.008311
	C127	C	0.376504	0.380665	0.990665
	C128	C	0.005604	0.622486	0.378568
	C129	C	0.989723	0.624296	0.620287
	C130	C	0.007787	0.380932	0.619993
	C131	C	0.991163	0.379754	0.376827
	C132	C	0.876588	0.511509	0.120197
	C133	C	0.119717	0.494796	0.119700
	C134	C	0.121141	0.510521	0.877382
	C135	C	0.876723	0.493656	0.877715
	C136	C	0.119663	0.881393	0.505605
	C137	C	0.120326	0.123726	0.490074
	C138	C	0.878574	0.123395	0.507781
	C139	C	0.877716	0.881343	0.489578
	C140	C	0.506218	0.125103	0.877203
	C141	C	0.489596	0.123239	0.119252
	C142	C	0.506476	0.880527	0.120499
	C143	C	0.489663	0.881547	0.877792
	C144	C	0.375122	0.893989	0.679913
	C145	C	0.621433	0.113965	0.678368
	C146	C	0.623654	0.892560	0.315532
	C147	C	0.376351	0.113353	0.316816
	C148	C	0.679372	0.378775	0.889012
	C149	C	0.680198	0.627106	0.110310
	C150	C	0.320145	0.623811	0.887938
	C151	C	0.314878	0.377344	0.109761
	C152	C	0.888173	0.684052	0.374064
	C153	C	0.107301	0.686141	0.623465
	C154	C	0.889316	0.320502	0.622507
	C155	C	0.109509	0.319557	0.372652
	C156	C	0.888156	0.379870	0.678869
	C157	C	0.108669	0.626026	0.679505
	C158	C	0.887323	0.625084	0.317411
	C159	C	0.109363	0.378223	0.315162
	C160	C	0.376891	0.682589	0.888456
	C161	C	0.623641	0.685728	0.109684
	C162	C	0.621566	0.321452	0.888663
	C163	C	0.372173	0.319686	0.109570
	C164	C	0.681891	0.892612	0.373302
	C165	C	0.680729	0.113126	0.621659
	C166	C	0.316364	0.894182	0.622575
	C167	C	0.315844	0.111868	0.371732
	C168	C	0.875002	0.392865	0.179908
	C169	C	0.121746	0.613143	0.180340
	C170	C	0.121593	0.392030	0.817456
	C171	C	0.875902	0.612174	0.817955
	C172	C	0.184385	0.874956	0.388868
	C173	C	0.180051	0.125498	0.609643
	C174	C	0.819951	0.124958	0.387760
	C175	C	0.817108	0.879028	0.609114
	C176	C	0.387700	0.185298	0.874143
	C177	C	0.607621	0.184320	0.121963
	C178	C	0.388578	0.819222	0.125163
	C179	C	0.608089	0.822267	0.874846
	C180	C	0.388481	0.877765	0.182534
	C181	C	0.608891	0.124859	0.178077
	C182	C	0.387698	0.127272	0.816346
	C183	C	0.608732	0.881640	0.818070
	C184	C	0.877386	0.183150	0.388064
	C185	C	0.123177	0.183529	0.609911
	C186	C	0.125979	0.817641	0.388561
	C187	C	0.874294	0.821110	0.608795
	C188	C	0.180571	0.392205	0.874326
	C189	C	0.180632	0.612689	0.123012
	C190	C	0.816065	0.393302	0.122999
	C191	C	0.817096	0.611907	0.875226
	C192	C	0.402213	0.094502	0.593626
	C193	C	0.595294	0.912515	0.594363
	C194	C	0.597425	0.093051	0.401105
	C195	C	0.404889	0.914022	0.404687
	C196	C	0.592539	0.406845	0.091283
	C197	C	0.595288	0.599506	0.907646
	C198	C	0.403012	0.598022	0.091793
	C199	C	0.402554	0.406412	0.907750
	C200	C	0.087115	0.596483	0.405082
	C201	C	0.907330	0.599332	0.595049
	C202	C	0.090573	0.406006	0.594935
	C203	C	0.908918	0.404777	0.403268
	C204	C	0.902088	0.593490	0.094323
	C205	C	0.093950	0.412769	0.093734
	C206	C	0.097312	0.593370	0.902675
	C207	C	0.901260	0.411101	0.902475
	C208	C	0.092272	0.908539	0.587376
	C209	C	0.094512	0.098208	0.407126
	C210	C	0.903206	0.098536	0.591459
	C211	C	0.903424	0.906422	0.406422
	C212	C	0.588728	0.100390	0.902451
	C213	C	0.407068	0.098037	0.094054
	C214	C	0.588823	0.906289	0.093981
	C215	C	0.406987	0.905492	0.903286
	Zn216	Zn	0.498717	0.003823	0.748504
	Zn217	Zn	0.498588	0.002766	0.248560
	Zn218	Zn	0.746956	0.502646	-0.000798
	Zn219	Zn	0.249777	0.501953	-0.001044
	Zn220	Zn	-0.001919	0.752745	0.498010
	Zn221	Zn	0.000315	0.251630	0.499229
	Zn222	Zn	-0.001238	0.501784	0.748869
	Zn223	Zn	-0.001875	0.502619	0.248813
	Zn224	Zn	0.498272	0.751854	-0.000496
	Zn225	Zn	0.497054	0.253433	-0.000879
	Zn226	Zn	0.750022	0.002448	0.498610
	Zn227	Zn	0.248445	0.003153	0.497725
	N228	N	0.411695	0.968452	0.678264
	N229	N	0.584342	0.039544	0.677064
	N230	N	0.587370	0.967040	0.316752
	N231	N	0.414634	0.039670	0.320316
	N232	N	0.677488	0.415643	0.964321
	N233	N	0.678291	0.589854	0.035209
	N234	N	0.320862	0.587582	0.963449
	N235	N	0.317306	0.414397	0.034613
	N236	N	0.962613	0.682679	0.411158
	N237	N	0.032268	0.685224	0.587550
	N238	N	0.964574	0.321167	0.586459
	N239	N	0.034877	0.320332	0.409999
	N240	N	0.962887	0.416788	0.677361
	N241	N	0.034573	0.588579	0.677802
	N242	N	0.961337	0.587332	0.320208
	N243	N	0.034653	0.414740	0.317368
	N244	N	0.412187	0.682061	0.964443
	N245	N	0.587419	0.684565	0.034213
	N246	N	0.584001	0.323406	0.963660
	N247	N	0.409533	0.321435	0.034523
	N248	N	0.681384	0.967467	0.409814
	N249	N	0.679850	0.038238	0.585413
	N250	N	0.317214	0.968902	0.585880
	N251	N	0.317002	0.037475	0.408868
	N252	N	0.911793	0.467353	0.178361
	N253	N	0.084539	0.538814	0.178407
	N254	N	0.085317	0.466706	0.819190
	N255	N	0.912101	0.537635	0.819080
	N256	N	0.180186	0.914375	0.462445
	N257	N	0.178484	0.089068	0.534043
	N258	N	0.820424	0.088754	0.463280
	N259	N	0.818921	0.915512	0.533800
	N260	N	0.462315	0.184104	0.911185
	N261	N	0.532447	0.183709	0.086266
	N262	N	0.463255	0.820670	0.087819
	N263	N	0.532965	0.821911	0.911178
	N264	N	0.462986	0.914876	0.179998
	N265	N	0.534318	0.087814	0.176730
	N266	N	0.462269	0.090525	0.818185
	N267	N	0.533857	0.917588	0.819589
	N268	N	0.913103	0.182164	0.463760
	N269	N	0.086924	0.182495	0.534402
	N270	N	0.086212	0.821572	0.462220
	N271	N	0.911412	0.822514	0.533420
	N272	N	0.180388	0.467034	0.910850
	N273	N	0.179450	0.538128	0.086206
	N274	N	0.816642	0.468166	0.086980
	N275	N	0.817498	0.537180	0.911513
	O276	O	0.633322	0.530446	0.349738
	H277	H	0.633325	0.530340	0.350673
	H278	H	0.634758	0.529546	0.349520
	O279	O	0.631746	0.369160	0.572496
	H280	H	0.620313	0.388335	0.562272
	H281	H	0.631948	0.382307	0.567373
	O282	O	0.784225	0.793008	0.047534
	H283	H	0.776025	0.798773	0.029911
	H284	H	0.771598	0.773763	0.044060
	O285	O	0.527612	0.290114	0.282415
	H286	H	0.556447	0.284894	0.281241
	H287	H	0.537673	0.271326	0.272395
	O288	O	-0.191270	-0.017525	0.202136
	H289	H	-0.212125	-0.014642	0.225302
	H290	H	-0.186820	0.001494	0.190102
	O291	O	1.179043	0.891719	0.096762
	H292	H	1.174566	0.901255	0.090650
	H293	H	1.168472	0.884144	0.104582
	O294	O	0.013726	0.816029	0.007993
	H295	H	0.015845	0.821488	0.001459
	H296	H	0.002354	0.812600	0.016825
	O297	O	0.532344	0.567185	0.341973
	H298	H	0.539236	0.581860	0.336646
	H299	H	0.538127	0.564691	0.347733
	O300	O	0.337365	0.502759	0.498966
	H301	H	0.342499	0.506268	0.492142
	H302	H	0.339067	0.504304	0.500019
	O303	O	0.305138	0.317341	0.686419
	H304	H	0.318754	0.325488	0.672165
	H305	H	0.334320	0.328756	0.692652
	O306	O	0.210624	0.789794	0.971572
	H307	H	0.214787	0.790919	0.965285
	H308	H	0.226168	0.779643	0.968626
	O309	O	0.694023	0.700774	0.688184
	H310	H	0.680710	0.705602	0.677279
	H311	H	0.711786	0.703707	0.702635
	O312	O	0.652637	0.425465	0.500306
	H313	H	0.657401	0.422095	0.481903
	H314	H	0.661098	0.431630	0.526133
	O315	O	0.215017	0.050105	0.930797
	H316	H	0.219345	0.055609	0.942578
	H317	H	0.200729	0.059514	0.944416
	O318	O	-0.146237	0.822689	-0.167807
	H319	H	-0.138720	0.838043	-0.157846
	H320	H	-0.120631	0.826004	-0.157018
	O321	O	0.509298	0.687979	0.631121
	H322	H	0.518715	0.684074	0.636523
	H323	H	0.512603	0.693650	0.624227
	O324	O	0.810911	0.193164	0.809515
	H325	H	0.791862	0.190976	0.806334
	H326	H	0.827904	0.189522	0.823051
	O327	O	0.796474	0.206867	0.980024
	H328	H	0.799659	0.213915	0.977594
	H329	H	0.802708	0.216286	0.983293
	O330	O	0.861588	-0.120579	0.139211
	H331	H	0.861219	-0.123505	0.112951
	H332	H	0.840917	-0.100659	0.151982
	O333	O	0.984133	1.135642	0.804405
	H334	H	0.978029	1.148861	0.788747
	H335	H	0.976170	1.116811	0.800571
	O336	O	0.985859	0.223404	0.940144
	H337	H	0.988410	0.222005	0.941804
	H338	H	0.988910	0.215822	0.944020
	O339	O	0.464062	0.299842	0.704839
	H340	H	0.476767	0.276811	0.710788
	H341	H	0.485387	0.308426	0.702497
	O342	O	0.544480	0.410515	0.537007
	H343	H	0.551747	0.402260	0.532911
	H344	H	0.528115	0.417341	0.524579
	O345	O	0.176656	0.181849	0.178912
	H346	H	0.190533	0.158286	0.163570
	H347	H	0.181176	0.170988	0.151653
	O348	O	1.087195	-0.029110	1.118763
	H349	H	1.089816	-0.054625	1.130195
	H350	H	1.069083	-0.046487	1.118958
	O351	O	0.984602	0.944838	-0.092250
	H352	H	0.994230	0.930729	-0.085476
	H353	H	1.003647	0.949476	-0.108530
	O354	O	0.695641	0.293921	0.399343
	H355	H	0.702133	0.288555	0.401040
	H356	H	0.704285	0.310561	0.394807
	O357	O	0.779442	0.952552	0.948898
	H358	H	0.788145	0.951542	0.957423
	H359	H	0.774622	0.975283	0.946457
	O360	O	0.314499	0.280753	0.507858
	H361	H	0.295871	0.270202	0.526580
	H362	H	0.306895	0.278600	0.509411
	O363	O	0.649370	0.608242	0.424708
	H364	H	0.649456	0.624125	0.412448
	H365	H	0.644794	0.586872	0.429944
	O366	O	0.793800	0.026708	0.797588
	H367	H	0.797631	0.042163	0.809687
	H368	H	0.796204	0.015471	0.779456
	O369	O	0.314675	0.542753	0.296269
	H370	H	0.313795	0.527759	0.282257
	H371	H	0.308736	0.521193	0.292990
	O372	O	0.530760	0.389836	0.625549
	H373	H	0.527822	0.391445	0.609611
	H374	H	0.534320	0.385484	0.631056
	O375	O	0.212105	0.966711	0.783772
	H376	H	0.239285	0.981843	0.769189
	H377	H	0.220626	0.988477	0.801762
	O378	O	0.710235	0.360670	0.289468
	H379	H	0.707963	0.362421	0.293548
	H380	H	0.719413	0.360955	0.272103
	O381	O	0.996983	0.115544	0.029028
	H382	H	0.999732	0.107069	0.035612
	H383	H	1.007658	0.117578	0.050552
	O384	O	0.019762	0.001124	0.795597
	H385	H	0.041134	-0.011926	0.787326
	H386	H	0.010569	-0.011524	0.816054
	O387	O	0.031553	0.786488	0.784636
	H388	H	0.057243	0.780255	0.780947
	H389	H	0.051848	0.774384	0.762767
	O390	O	0.211091	0.022927	1.203777
	H391	H	0.201955	0.011770	1.225036
	H392	H	0.217794	0.015310	1.214608
	O393	O	1.006054	0.793630	0.099145
	H394	H	0.992341	0.775300	0.108398
	H395	H	1.004198	0.792583	0.083835
	O396	O	0.609214	0.515500	0.333033
	H397	H	0.598352	0.494123	0.334689
	H398	H	0.625844	0.507885	0.324127
	O399	O	0.432564	0.667875	0.696706
	H400	H	0.444883	0.670823	0.675828
	H401	H	0.420593	0.682251	0.722036
	O402	O	0.105476	0.200926	0.885914
	H403	H	0.105230	0.202339	0.859505
	H404	H	0.089079	0.203643	0.880832
	O405	O	0.203265	0.207576	0.018778
	H406	H	0.209740	0.234829	0.003699
	H407	H	0.189499	0.205329	-0.000379
	O408	O	0.695965	0.710571	0.516980
	H409	H	0.687557	0.711813	0.529574
	H410	H	0.704158	0.728676	0.524202
	O411	O	0.443915	0.687741	0.557637
	H412	H	0.427245	0.686183	0.551102
	H413	H	0.456743	0.688974	0.549405
	O414	O	0.474953	0.712407	0.287307
	H415	H	0.465327	0.715890	0.275529
	H416	H	0.472571	0.721585	0.280432
	O417	O	0.284530	0.630702	0.505399
	H418	H	0.278244	0.644799	0.497978
	H419	H	0.281347	0.630838	0.496924
	O420	O	0.369102	0.691905	0.320853
	H421	H	0.381039	0.671813	0.315596
	H422	H	0.355884	0.674845	0.330961
	O423	O	-0.062602	0.805732	0.198324
	H424	H	-0.062552	0.799498	0.202350
	H425	H	-0.100267	0.804132	0.178025
	O426	O	0.996120	0.960744	1.061410
	H427	H	1.002531	0.951634	1.063528
	H428	H	0.996735	0.950299	1.072029
	O429	O	0.306527	0.695742	0.588140
	H430	H	0.319448	0.702728	0.573678
	H431	H	0.311347	0.675409	0.577421
	O432	O	0.378198	0.394171	0.510548
	H433	H	0.387826	0.376450	0.520144
	H434	H	0.372668	0.410708	0.522122
	O435	O	-0.034475	0.049563	0.206919
	H436	H	-0.032399	0.059335	0.210042
	H437	H	-0.023313	0.039239	0.215232
	O438	O	1.018409	0.214718	0.213735
	H439	H	1.026186	0.231716	0.241109
	H440	H	1.058023	0.212066	0.207718
	O441	O	0.402593	0.382165	0.341432
	H442	H	0.415197	0.368902	0.340678
	H443	H	0.420393	0.380865	0.336571
	O444	O	0.203053	0.796913	0.798011
	H445	H	0.206787	0.838930	0.799565
	H446	H	0.222282	0.788195	0.794486
	O447	O	0.369531	0.497445	0.517651
	H448	H	0.363770	0.479026	0.525318
	H449	H	0.364564	0.494595	0.518220
	O450	O	0.568939	0.470570	0.510926
	H451	H	0.573210	0.472916	0.493485
	H452	H	0.559980	0.478999	0.511115
	O453	O	0.711375	0.530697	0.706948
	H454	H	0.720562	0.541143	0.708453
	H455	H	0.717583	0.542655	0.720755
	O456	O	0.806578	0.174130	0.168568
	H457	H	0.821424	0.166604	0.153527
	H458	H	0.826592	0.161954	0.148970
	O459	O	0.617426	0.416722	0.676845
	H460	H	0.621018	0.433085	0.662649
	H461	H	0.619174	0.417150	0.681097
	O462	O	0.295210	0.494679	0.678996
	H463	H	0.287347	0.491646	0.673209
	H464	H	0.294662	0.495969	0.684091
	O465	O	0.851926	0.060292	-0.008889
	H466	H	0.854790	0.069187	-0.001892
	H467	H	0.853313	0.056285	-0.017728
