data_Molecule from HDF5

_cell_length_a		16.336575
_cell_length_b		16.389571
_cell_length_c		16.360586
_cell_angle_alpha	89.985085
_cell_angle_beta	89.720774
_cell_angle_gamma	89.818572
_symmetry_space_group_name_H-M	'P 1'
_symmetry_Int_Tables_number		1

loop_
	_symmetry_equiv_pos_as_xyz
	x,y,z

loop_
	_atom_site_label
	_atom_site_type_symbol
	_atom_site_fract_x
	_atom_site_fract_y
	_atom_site_fract_z
	H0	H	0.394013	0.830642	0.727269
	H1	H	0.599443	0.150811	0.724628
	H2	H	0.599880	0.830346	0.286958
	H3	H	0.393894	0.151672	0.288893
	H4	H	0.716634	0.388056	0.850620
	H5	H	0.709264	0.591503	0.171958
	H6	H	0.276140	0.594407	0.850957
	H7	H	0.277959	0.388671	0.172214
	H8	H	0.835414	0.710450	0.409432
	H9	H	0.156193	0.709501	0.610727
	H10	H	0.835382	0.273829	0.613351
	H11	H	0.156911	0.271361	0.403497
	H12	H	0.834473	0.391644	0.727679
	H13	H	0.157114	0.591297	0.725447
	H14	H	0.834883	0.596376	0.293001
	H15	H	0.155524	0.387776	0.288756
	H16	H	0.391622	0.711015	0.850690
	H17	H	0.597252	0.711320	0.168611
	H18	H	0.599533	0.274455	0.848124
	H19	H	0.392976	0.270663	0.170127
	H20	H	0.717052	0.830386	0.403862
	H21	H	0.711547	0.151810	0.605923
	H22	H	0.278623	0.829441	0.607869
	H23	H	0.275340	0.150223	0.400655
	H24	H	0.891866	0.332395	0.231948
	H25	H	0.098974	0.651504	0.231952
	H26	H	0.096892	0.331265	0.792907
	H27	H	0.889633	0.652521	0.791616
	H28	H	0.216389	0.884787	0.346598
	H29	H	0.214530	0.091705	0.667404
	H30	H	0.780848	0.093546	0.347178
	H31	H	0.776213	0.888462	0.668628
	H32	H	0.336282	0.208572	0.906892
	H33	H	0.656592	0.208072	0.109254
	H34	H	0.335993	0.770730	0.114238
	H35	H	0.656895	0.769315	0.903678
	H36	H	0.337053	0.885151	0.230287
	H37	H	0.656067	0.094019	0.225535
	H38	H	0.335622	0.090879	0.791382
	H39	H	0.658108	0.885537	0.787905
	H40	H	0.892792	0.214175	0.350765
	H41	H	0.096960	0.206129	0.669923
	H42	H	0.099915	0.768951	0.349187
	H43	H	0.892381	0.775764	0.670172
	H44	H	0.214728	0.331629	0.908811
	H45	H	0.216771	0.650583	0.117679
	H46	H	0.776983	0.331105	0.115235
	H47	H	0.775953	0.652318	0.910362
	H48	H	0.405233	0.104696	0.599611
	H49	H	0.590944	0.872583	0.602558
	H50	H	0.585078	0.103923	0.415638
	H51	H	0.402359	0.874956	0.417345
	H52	H	0.585873	0.396904	0.126316
	H53	H	0.586645	0.577593	0.895343
	H54	H	0.414287	0.571034	0.118393
	H55	H	0.397273	0.402634	0.894880
	H56	H	0.111533	0.583002	0.419798
	H57	H	0.879627	0.583094	0.603911
	H58	H	0.112156	0.401030	0.605294
	H59	H	0.882452	0.396858	0.428222
	H60	H	0.112254	0.395945	0.601445
	H61	H	0.878001	0.586343	0.603877
	H62	H	0.109932	0.580423	0.424763
	H63	H	0.886046	0.409099	0.426227
	H64	H	0.413073	0.594513	0.126973
	H65	H	0.583868	0.580205	0.895418
	H66	H	0.585439	0.399932	0.124119
	H67	H	0.409097	0.405467	0.898303
	H68	H	0.590296	0.105174	0.418252
	H69	H	0.581019	0.878926	0.597459
	H70	H	0.408245	0.102961	0.596606
	H71	H	0.411372	0.877020	0.413541
	H72	H	0.906941	0.604766	0.100791
	H73	H	0.085056	0.379953	0.098192
	H74	H	0.086438	0.606242	0.920335
	H75	H	0.907287	0.379866	0.925517
	H76	H	0.090771	0.901792	0.623302
	H77	H	0.087728	0.076062	0.394682
	H78	H	0.906881	0.078380	0.621508
	H79	H	0.909139	0.906414	0.396573
	H80	H	0.612525	0.080863	0.914580
	H81	H	0.380936	0.085459	0.092735
	H82	H	0.608896	0.902762	0.097295
	H83	H	0.383639	0.900909	0.918747
	H84	H	0.609478	0.899761	0.094700
	H85	H	0.385144	0.073731	0.095428
	H86	H	0.613179	0.083213	0.913607
	H87	H	0.382846	0.902145	0.917295
	H88	H	0.906002	0.086158	0.623868
	H89	H	0.079761	0.085513	0.394075
	H90	H	0.085948	0.905954	0.619319
	H91	H	0.913331	0.895595	0.394368
	H92	H	0.087280	0.607398	0.918103
	H93	H	0.084799	0.377514	0.101984
	H94	H	0.899599	0.606844	0.099024
	H95	H	0.901570	0.375899	0.919158
	H96	H	0.404044	0.104092	0.595345
	H97	H	0.590849	0.875673	0.590573
	H98	H	0.589147	0.105565	0.412280
	H99	H	0.409208	0.879409	0.422429
	H100	H	0.583260	0.397399	0.124323
	H101	H	0.587731	0.581239	0.894399
	H102	H	0.392619	0.579992	0.129121
	H103	H	0.406940	0.393725	0.894228
	H104	H	0.109115	0.577644	0.419785
	H105	H	0.879883	0.585093	0.601348
	H106	H	0.110530	0.401615	0.598888
	H107	H	0.880617	0.402343	0.415884
	H108	H	0.902603	0.608025	0.106677
	H109	H	0.081814	0.379565	0.100618
	H110	H	0.085614	0.606238	0.918341
	H111	H	0.909821	0.378841	0.916586
	H112	H	0.084009	0.899428	0.622073
	H113	H	0.091473	0.086703	0.389589
	H114	H	0.899951	0.081031	0.624586
	H115	H	0.902021	0.898898	0.390960
	H116	H	0.612669	0.082695	0.915662
	H117	H	0.378768	0.081313	0.103757
	H118	H	0.608999	0.902922	0.093576
	H119	H	0.382011	0.901032	0.916931
	C120	C	0.374967	-0.001418	0.628522
	C121	C	0.617786	0.981771	0.627284
	C122	C	0.619104	-0.000901	0.384394
	C123	C	0.375260	0.982349	0.385447
	C124	C	0.617018	0.368522	0.018710
	C125	C	0.616360	0.611466	1.001150
	C126	C	0.374267	0.613037	0.019442
	C127	C	0.374167	0.369199	1.001931
	C128	C	0.004010	0.612262	0.390911
	C129	C	0.986196	0.614073	0.632496
	C130	C	0.004618	0.370198	0.631969
	C131	C	0.988205	0.370758	0.390159
	C132	C	0.872866	0.500332	0.133467
	C133	C	0.116210	0.483777	0.132684
	C134	C	0.116959	0.500305	0.889178
	C135	C	0.873690	0.483775	0.889386
	C136	C	0.118210	0.869281	0.516047
	C137	C	0.117339	0.112382	0.498993
	C138	C	0.874220	0.113280	0.517582
	C139	C	0.875859	0.870444	0.500331
	C140	C	0.505981	0.112293	0.885342
	C141	C	0.487348	0.111521	0.127992
	C142	C	0.504173	0.869561	0.128508
	C143	C	0.488951	0.869051	0.886056
	C144	C	0.374682	0.878148	0.687383
	C145	C	0.617670	0.102720	0.685277
	C146	C	0.619627	0.878411	0.326028
	C147	C	0.374541	0.103157	0.327088
	C148	C	0.677271	0.368493	0.898524
	C149	C	0.671603	0.611118	0.123009
	C150	C	0.315182	0.613791	0.899107
	C151	C	0.316385	0.368868	0.123510
	C152	C	0.883286	0.671243	0.390208
	C153	C	0.108093	0.670607	0.630854
	C154	C	0.883482	0.312887	0.632243
	C155	C	0.108588	0.310992	0.386240
	C156	C	0.882993	0.371357	0.689314
	C157	C	0.108550	0.612075	0.687666
	C158	C	0.883113	0.614205	0.332389
	C159	C	0.108126	0.369226	0.329163
	C160	C	0.372540	0.671694	0.898642
	C161	C	0.616006	0.670839	0.121390
	C162	C	0.618689	0.312152	0.897150
	C163	C	0.373890	0.310275	0.122470
	C164	C	0.677843	0.878426	0.384026
	C165	C	0.673819	0.103186	0.626252
	C166	C	0.317311	0.877688	0.628341
	C167	C	0.315318	0.102453	0.382906
	C168	C	0.872770	0.380226	0.192328
	C169	C	0.117739	0.603794	0.192076
	C170	C	0.116684	0.379329	0.831715
	C171	C	0.871740	0.604340	0.831163
	C172	C	0.176829	0.866600	0.395183
	C173	C	0.175516	0.111434	0.619586
	C174	C	0.818424	0.113343	0.396024
	C175	C	0.816280	0.870391	0.620849
	C176	C	0.384560	0.169801	0.886466
	C177	C	0.608476	0.169279	0.128617
	C178	C	0.384003	0.810189	0.131896
	C179	C	0.608856	0.808790	0.884695
	C180	C	0.384552	0.867173	0.189757
	C181	C	0.608137	0.112566	0.186437
	C182	C	0.384051	0.110961	0.829522
	C183	C	0.609633	0.866979	0.827226
	C184	C	0.874361	0.173050	0.397678
	C185	C	0.116869	0.168288	0.620915
	C186	C	0.118949	0.808806	0.396502
	C187	C	0.874228	0.814137	0.621923
	C188	C	0.175027	0.379516	0.889462
	C189	C	0.176224	0.603272	0.135028
	C190	C	0.815654	0.379442	0.133964
	C191	C	0.814774	0.604101	0.890046
	C192	C	0.398791	0.082315	0.603943
	C193	C	0.594342	0.897716	0.603706
	C194	C	0.595002	0.082905	0.408317
	C195	C	0.400190	0.898897	0.410373
	C196	C	0.591991	0.391525	0.102927
	C197	C	0.592690	0.586813	0.916941
	C198	C	0.399332	0.588817	0.102974
	C199	C	0.397729	0.393389	0.917634
	C200	C	0.088127	0.587816	0.414718
	C201	C	0.901480	0.591719	0.609789
	C202	C	0.089571	0.392954	0.608589
	C203	C	0.904586	0.395577	0.416116
	C204	C	0.896303	0.584609	0.109294
	C205	C	0.091209	0.400711	0.107536
	C206	C	0.093296	0.584676	0.912269
	C207	C	0.898993	0.399920	0.913421
	C208	C	0.093887	0.894920	0.599887
	C209	C	0.093271	0.089587	0.414724
	C210	C	0.897424	0.088812	0.601613
	C211	C	0.900960	0.893649	0.415904
	C212	C	0.590630	0.089061	0.908087
	C213	C	0.403729	0.087458	0.103993
	C214	C	0.587583	0.894604	0.102541
	C215	C	0.404689	0.894031	0.910555
	Zn216	Zn	0.497433	-0.009897	0.756875
	Zn217	Zn	0.496095	-0.009483	0.256367
	Zn218	Zn	0.744686	0.490651	0.011297
	Zn219	Zn	0.245742	0.491322	0.011767
	Zn220	Zn	-0.004705	0.741887	0.510683
	Zn221	Zn	-0.003309	0.241613	0.510207
	Zn222	Zn	-0.004948	0.492646	0.760160
	Zn223	Zn	-0.004875	0.492315	0.261719
	Zn224	Zn	0.495666	0.740602	0.008525
	Zn225	Zn	0.496269	0.240361	0.008371
	Zn226	Zn	0.747221	-0.009924	0.507293
	Zn227	Zn	0.246420	-0.009367	0.505884
	N228	N	0.409904	0.954183	0.687545
	N229	N	0.583682	0.026030	0.686211
	N230	N	0.584141	0.954596	0.325862
	N231	N	0.410847	0.027356	0.328258
	N232	N	0.676522	0.402780	0.975157
	N233	N	0.671808	0.575036	0.047165
	N234	N	0.315684	0.578483	0.975287
	N235	N	0.316395	0.404835	0.047557
	N236	N	0.959355	0.670322	0.425620
	N237	N	0.030863	0.672230	0.597717
	N238	N	0.960330	0.311755	0.597658
	N239	N	0.032934	0.311781	0.423518
	N240	N	0.959333	0.406220	0.689306
	N241	N	0.031860	0.578144	0.689011
	N242	N	0.959071	0.578124	0.332774
	N243	N	0.032359	0.405718	0.331543
	N244	N	0.408247	0.671545	0.974386
	N245	N	0.582464	0.671101	0.044517
	N246	N	0.581996	0.311943	0.972826
	N247	N	0.408570	0.310063	0.045681
	N248	N	0.677798	0.954416	0.419276
	N249	N	0.674016	0.027160	0.591016
	N250	N	0.317498	0.953510	0.592369
	N251	N	0.315710	0.026596	0.418498
	N252	N	0.907584	0.456415	0.192059
	N253	N	0.080902	0.528541	0.190677
	N254	N	0.081426	0.455590	0.831124
	N255	N	0.907773	0.528357	0.830725
	N256	N	0.176322	0.903655	0.470560
	N257	N	0.176037	0.077704	0.542646
	N258	N	0.818133	0.077018	0.471601
	N259	N	0.817323	0.904696	0.544047
	N260	N	0.461487	0.171091	0.920028
	N261	N	0.532451	0.168748	0.093156
	N262	N	0.459365	0.811810	0.094343
	N263	N	0.532620	0.810152	0.920678
	N264	N	0.460158	0.903558	0.187691
	N265	N	0.531925	0.077267	0.186406
	N266	N	0.460748	0.076276	0.828498
	N267	N	0.533978	0.903632	0.827993
	N268	N	0.908297	0.173287	0.474311
	N269	N	0.081860	0.169265	0.544817
	N270	N	0.083380	0.810334	0.472691
	N271	N	0.910707	0.814130	0.546079
	N272	N	0.175315	0.455746	0.924284
	N273	N	0.175157	0.527742	0.098661
	N274	N	0.815519	0.455350	0.098139
	N275	N	0.815767	0.528046	0.925395
	O276	O	0.649457	0.673936	0.673755
	H277	H	0.665774	0.656028	0.670497
	H278	H	0.662253	0.667306	0.662611
	O279	O	0.316494	0.686666	0.409818
	H280	H	0.316358	0.681859	0.421983
	H281	H	0.302952	0.693756	0.431711
	O282	O	1.107448	0.938740	0.088345
	H283	H	1.114883	0.952341	0.097249
	H284	H	1.097577	0.944174	0.103326
	O285	O	1.203399	0.793284	-0.013613
	H286	H	1.206884	0.781740	-0.003718
	H287	H	1.214027	0.791101	-0.017163
	O288	O	0.296594	0.433855	0.714471
	H289	H	0.294515	0.458597	0.726962
	H290	H	0.304948	0.448866	0.709904
	O291	O	0.676498	0.545014	0.600764
	H292	H	0.662804	0.516735	0.599877
	H293	H	0.687728	0.539033	0.590830
	O294	O	0.791991	0.793748	1.075483
	H295	H	0.790703	0.783172	1.066377
	H296	H	0.801796	0.798090	1.059069
	O297	O	0.402445	0.377410	0.403328
	H298	H	0.397433	0.394166	0.408126
	H299	H	0.382489	0.373006	0.415733
	O300	O	0.691674	0.470223	0.487340
	H301	H	0.687036	0.464322	0.474924
	H302	H	0.693900	0.464343	0.482291
	O303	O	0.535693	0.384050	0.336685
	H304	H	0.532017	0.371650	0.336530
	H305	H	0.527838	0.387145	0.340026
	O306	O	0.509983	0.553033	0.353574
	H307	H	0.512710	0.555393	0.351294
	H308	H	0.516807	0.558526	0.351697
	O309	O	1.067093	0.165085	0.090645
	H310	H	1.048949	0.144564	0.074035
	H311	H	1.057456	0.173309	0.110186
	O312	O	0.578403	0.299138	0.526583
	H313	H	0.572156	0.295710	0.525771
	H314	H	0.573423	0.305396	0.533910
	O315	O	-0.013702	0.142316	0.801664
	H316	H	-0.015606	0.145898	0.802003
	H317	H	-0.016983	0.147839	0.797974
	O318	O	-0.196589	0.053466	0.060188
	H319	H	-0.212665	0.046474	0.062016
	H320	H	-0.182493	0.059379	0.044097
	O321	O	0.364327	0.630217	0.580186
	H322	H	0.383196	0.609915	0.575031
	H323	H	0.391009	0.629064	0.586522
	O324	O	0.879960	-0.154076	1.197163
	H325	H	0.882297	-0.167680	1.203405
	H326	H	0.877041	-0.165627	1.168321
	O327	O	0.694366	0.458643	0.379670
	H328	H	0.693597	0.426612	0.374187
	H329	H	0.702962	0.449364	0.361752
	O330	O	0.160078	1.042820	1.136889
	H331	H	0.150125	1.039051	1.142036
	H332	H	0.165772	1.045037	1.124197
	O333	O	-0.445173	0.565272	-0.514082
	H334	H	-0.439107	0.556831	-0.515485
	H335	H	-0.446961	0.573994	-0.505435
	O336	O	0.951532	0.814536	-0.059452
	H337	H	0.962478	0.815328	-0.076105
	H338	H	0.973996	0.810990	-0.057847
	O339	O	0.195438	1.118633	1.146763
	H340	H	0.183225	1.128332	1.165290
	H341	H	0.219536	1.150109	1.160822
	O342	O	0.451133	0.631670	0.519981
	H343	H	0.446525	0.635470	0.530487
	H344	H	0.463217	0.626962	0.509294
	O345	O	0.028601	-0.229215	0.788811
	H346	H	0.060618	-0.234428	0.777203
	H347	H	0.052370	-0.246964	0.769985
	O348	O	0.544989	0.399982	0.613918
	H349	H	0.524675	0.386458	0.615705
	H350	H	0.551924	0.401652	0.597396
	O351	O	1.007093	1.106391	-0.052267
	H352	H	1.011530	1.107461	-0.058474
	H353	H	1.014509	1.107718	-0.045589
	O354	O	1.085262	1.186877	1.181039
	H355	H	1.086125	1.170843	1.193159
	H356	H	1.047226	1.189357	1.183365
	O357	O	0.151661	0.000652	0.050132
	H358	H	0.144910	-0.007995	0.040282
	H359	H	0.142733	-0.006247	0.062860
	O360	O	0.472491	0.280224	0.696100
	H361	H	0.444582	0.276779	0.704323
	H362	H	0.458828	0.262549	0.718480
	O363	O	0.896787	-0.085492	-0.086349
	H364	H	0.919857	-0.095747	-0.086910
	H365	H	0.900282	-0.081881	-0.076334
	O366	O	-0.161223	0.184683	0.842833
	H367	H	-0.160368	0.156426	0.850388
	H368	H	-0.183922	0.200895	0.827815
	O369	O	0.796292	0.041740	0.882314
	H370	H	0.795252	0.042442	0.879976
	H371	H	0.789495	0.040672	0.873792
	O372	O	0.383350	0.658146	0.707912
	H373	H	0.406080	0.668842	0.719756
	H374	H	0.404551	0.647789	0.683086
	O375	O	-0.032506	-0.020370	0.974486
	H376	H	-0.026350	-0.013238	0.972192
	H377	H	-0.047054	-0.025231	0.971567
	O378	O	0.553914	0.519122	0.449740
	H379	H	0.552869	0.509016	0.438589
	H380	H	0.559370	0.513570	0.446139
	O381	O	-0.086717	1.002625	0.152558
	H382	H	-0.095420	0.985907	0.157997
	H383	H	-0.098359	1.001121	0.132045
	O384	O	0.547929	0.342143	0.597921
	H385	H	0.537530	0.338102	0.577728
	H386	H	0.544942	0.320863	0.615914
	O387	O	0.698673	0.734837	0.302205
	H388	H	0.685523	0.738127	0.285995
	H389	H	0.684878	0.721011	0.296701
	O390	O	0.823912	0.981105	0.219057
	H391	H	0.815073	0.949377	0.227035
	H392	H	0.814941	0.960328	0.236492
	O393	O	1.001477	-0.063036	1.109722
	H394	H	1.001621	-0.066931	1.118014
	H395	H	1.015326	-0.065807	1.115990
	O396	O	0.513031	0.518283	0.518980
	H397	H	0.522610	0.521060	0.501910
	H398	H	0.517735	0.502790	0.505273
	O399	O	0.168320	1.176961	-0.165229
	H400	H	0.162818	1.143678	-0.153026
	H401	H	0.148316	1.171040	-0.143060
	O402	O	1.317037	1.285698	-0.287645
	H403	H	1.304121	1.335375	-0.281474
	H404	H	1.292200	1.259109	-0.253679
	O405	O	0.280084	0.271873	0.540074
	H406	H	0.285405	0.273250	0.587327
	H407	H	0.251064	0.238964	0.545827
	O408	O	0.646887	0.296982	0.403200
	H409	H	0.650474	0.284809	0.410954
	H410	H	0.619817	0.298181	0.399093
	O411	O	1.037276	1.039285	0.879557
	H412	H	1.039648	1.045386	0.868841
	H413	H	1.038134	1.021352	0.883385
	O414	O	0.469748	0.603469	0.309636
	H415	H	0.451747	0.599506	0.306091
	H416	H	0.450858	0.595912	0.306052
	O417	O	0.109315	0.949743	1.192538
	H418	H	0.116042	0.940379	1.194597
	H419	H	0.103398	0.960329	1.185344
	O420	O	0.071219	0.917796	0.906055
	H421	H	0.068912	0.920892	0.923150
	H422	H	0.052493	0.917904	0.904944
	O423	O	0.192364	0.802129	-0.181844
	H424	H	0.199559	0.816412	-0.158391
	H425	H	0.216861	0.794050	-0.191036
	O426	O	0.393470	0.478270	0.483618
	H427	H	0.427467	0.481158	0.489640
	H428	H	0.380508	0.465838	0.477842
	O429	O	0.555733	0.557559	0.566494
	H430	H	0.566132	0.560345	0.554822
	H431	H	0.555626	0.557231	0.555119
	O432	O	0.334845	0.574324	0.330379
	H433	H	0.336213	0.557091	0.331001
	H434	H	0.325212	0.577106	0.338489
	O435	O	-0.004842	0.087272	-0.054910
	H436	H	-0.003850	0.098561	-0.065751
	H437	H	-0.011520	0.099838	-0.033470
	O438	O	-0.184315	1.111722	0.961929
	H439	H	-0.193903	1.104303	0.952347
	H440	H	-0.179679	1.098604	0.953647
	O441	O	0.513250	0.511674	0.670514
	H442	H	0.516459	0.511254	0.669258
	H443	H	0.526893	0.505133	0.665069
