data_Molecule from HDF5

_cell_length_a		16.287201
_cell_length_b		16.004276
_cell_length_c		16.301701
_cell_angle_alpha	90.022565
_cell_angle_beta	89.828924
_cell_angle_gamma	90.038353
_symmetry_space_group_name_H-M	'P 1'
_symmetry_Int_Tables_number		1

loop_
	_symmetry_equiv_pos_as_xyz
	x,y,z

loop_
	_atom_site_label
	_atom_site_type_symbol
	_atom_site_fract_x
	_atom_site_fract_y
	_atom_site_fract_z
	H0	H	0.403503	0.835053	0.708160
	H1	H	0.601314	0.165732	0.708234
	H2	H	0.602571	0.834528	0.280398
	H3	H	0.403008	0.165872	0.281794
	H4	H	0.718580	0.398058	0.832787
	H5	H	0.719153	0.602168	0.157197
	H6	H	0.286465	0.600715	0.831628
	H7	H	0.283979	0.398577	0.156894
	H8	H	0.836790	0.711813	0.399711
	H9	H	0.167516	0.712154	0.588967
	H10	H	0.837977	0.288956	0.591140
	H11	H	0.166884	0.288409	0.398015
	H12	H	0.839705	0.399203	0.711128
	H13	H	0.165557	0.601500	0.710120
	H14	H	0.838265	0.601099	0.279696
	H15	H	0.164343	0.399494	0.276985
	H16	H	0.408203	0.711336	0.829919
	H17	H	0.598625	0.713518	0.159341
	H18	H	0.596381	0.289646	0.829770
	H19	H	0.404357	0.287504	0.158827
	H20	H	0.715280	0.833726	0.396708
	H21	H	0.714999	0.166105	0.594241
	H22	H	0.290704	0.833969	0.593663
	H23	H	0.288505	0.165594	0.395471
	H24	H	0.901755	0.334779	0.209388
	H25	H	0.099630	0.666749	0.206252
	H26	H	0.100776	0.334478	0.781188
	H27	H	0.904265	0.665478	0.782798
	H28	H	0.218950	0.899435	0.332046
	H29	H	0.218731	0.100837	0.657903
	H30	H	0.786987	0.100344	0.333118
	H31	H	0.785825	0.899034	0.657687
	H32	H	0.336873	0.210544	0.899898
	H33	H	0.666466	0.214070	0.090470
	H34	H	0.337318	0.787720	0.091183
	H35	H	0.666546	0.787229	0.897942
	H36	H	0.339002	0.899006	0.212401
	H37	H	0.664495	0.103383	0.211300
	H38	H	0.339614	0.100094	0.778945
	H39	H	0.665198	0.899543	0.778241
	H40	H	0.906957	0.211985	0.331319
	H41	H	0.098882	0.213362	0.659425
	H42	H	0.097748	0.789285	0.329892
	H43	H	0.906635	0.788111	0.659367
	H44	H	0.213611	0.334301	0.895472
	H45	H	0.214326	0.665523	0.092757
	H46	H	0.787482	0.334573	0.095327
	H47	H	0.789180	0.665620	0.896161
	H48	H	0.401389	0.120235	0.582223
	H49	H	0.596298	0.879914	0.589180
	H50	H	0.592588	0.119116	0.401146
	H51	H	0.401399	0.879874	0.406945
	H52	H	0.601781	0.405734	0.114623
	H53	H	0.593306	0.589106	0.880142
	H54	H	0.405472	0.587140	0.110194
	H55	H	0.401378	0.404173	0.875441
	H56	H	0.119318	0.595857	0.400495
	H57	H	0.886441	0.589257	0.589073
	H58	H	0.116205	0.415945	0.589857
	H59	H	0.885591	0.404218	0.406377
	H60	H	0.123971	0.403951	0.595584
	H61	H	0.883690	0.594201	0.594693
	H62	H	0.118178	0.591555	0.399684
	H63	H	0.886653	0.413738	0.401420
	H64	H	0.410893	0.592899	0.111104
	H65	H	0.596543	0.596390	0.876954
	H66	H	0.594144	0.416178	0.108571
	H67	H	0.406779	0.411851	0.878408
	H68	H	0.593785	0.117539	0.405629
	H69	H	0.592203	0.881283	0.587617
	H70	H	0.410106	0.123239	0.596864
	H71	H	0.413805	0.878900	0.393628
	H72	H	0.910696	0.617864	0.083326
	H73	H	0.102460	0.373993	0.100005
	H74	H	0.102415	0.621985	0.900586
	H75	H	0.908845	0.379645	0.904218
	H76	H	0.102414	0.908353	0.612998
	H77	H	0.108939	0.081450	0.377491
	H78	H	0.908804	0.101851	0.615367
	H79	H	0.903898	0.906565	0.377059
	H80	H	0.618551	0.086344	0.896405
	H81	H	0.384115	0.093576	0.093339
	H82	H	0.617838	0.913552	0.090026
	H83	H	0.386010	0.908548	0.904202
	H84	H	0.620827	0.904745	0.092222
	H85	H	0.385479	0.094585	0.087324
	H86	H	0.622722	0.098742	0.895547
	H87	H	0.385196	0.910357	0.895926
	H88	H	0.899282	0.090968	0.614442
	H89	H	0.082378	0.087528	0.384738
	H90	H	0.094600	0.909675	0.610045
	H91	H	0.908969	0.909382	0.378635
	H92	H	0.091880	0.620835	0.896093
	H93	H	0.075722	0.385044	0.089906
	H94	H	0.905475	0.620801	0.087638
	H95	H	0.909256	0.379619	0.901243
	H96	H	0.418369	0.116839	0.583807
	H97	H	0.595034	0.881116	0.585287
	H98	H	0.597485	0.119559	0.403066
	H99	H	0.419240	0.885223	0.409907
	H100	H	0.588823	0.402780	0.112135
	H101	H	0.601115	0.590493	0.877604
	H102	H	0.403065	0.594283	0.113103
	H103	H	0.410540	0.403189	0.877841
	H104	H	0.119526	0.593307	0.396385
	H105	H	0.885352	0.596310	0.586995
	H106	H	0.118882	0.403886	0.581414
	H107	H	0.882995	0.405967	0.396384
	H108	H	0.911761	0.619065	0.090298
	H109	H	0.099766	0.383399	0.070304
	H110	H	0.092785	0.618602	0.907250
	H111	H	0.910773	0.381658	0.903113
	H112	H	0.096969	0.901849	0.613718
	H113	H	0.098881	0.107869	0.373501
	H114	H	0.912477	0.089092	0.609866
	H115	H	0.908911	0.903564	0.377565
	H116	H	0.617262	0.094126	0.907051
	H117	H	0.385943	0.088982	0.089206
	H118	H	0.617397	0.907921	0.083303
	H119	H	0.383926	0.902111	0.899027
	C120	C	0.381695	0.009742	0.615718
	C121	C	0.622902	0.990854	0.615694
	C122	C	0.623680	0.009121	0.374244
	C123	C	0.381799	0.990933	0.374484
	C124	C	0.623554	0.378652	0.003643
	C125	C	0.624656	0.621760	0.986020
	C126	C	0.379325	0.620782	0.003231
	C127	C	0.378353	0.377593	0.985480
	C128	C	0.010463	0.622130	0.371984
	C129	C	0.993768	0.622122	0.617137
	C130	C	0.011394	0.378865	0.617205
	C131	C	0.993254	0.378713	0.372547
	C132	C	0.880497	0.509558	0.116016
	C133	C	0.121647	0.490909	0.115659
	C134	C	0.123102	0.509628	0.873312
	C135	C	0.881101	0.490337	0.874540
	C136	C	0.125231	0.878211	0.503603
	C137	C	0.124807	0.121739	0.486808
	C138	C	0.879458	0.122237	0.504911
	C139	C	0.879906	0.878541	0.486287
	C140	C	0.510941	0.121904	0.872135
	C141	C	0.493316	0.122171	0.117032
	C142	C	0.510363	0.879242	0.117072
	C143	C	0.493569	0.878424	0.872285
	C144	C	0.383673	0.884372	0.670579
	C145	C	0.621252	0.116138	0.670709
	C146	C	0.622002	0.884049	0.318625
	C147	C	0.382781	0.116066	0.319068
	C148	C	0.679641	0.379249	0.881059
	C149	C	0.680310	0.621190	0.108709
	C150	C	0.325100	0.619757	0.880118
	C151	C	0.322512	0.378961	0.108370
	C152	C	0.886273	0.675493	0.377455
	C153	C	0.118036	0.675333	0.611156
	C154	C	0.887457	0.325050	0.612998
	C155	C	0.117218	0.324610	0.376123
	C156	C	0.888317	0.380097	0.672753
	C157	C	0.116824	0.620720	0.671821
	C158	C	0.886911	0.620293	0.317840
	C159	C	0.115975	0.380042	0.315923
	C160	C	0.385159	0.674955	0.879353
	C161	C	0.620342	0.676648	0.109891
	C162	C	0.619010	0.325143	0.879573
	C163	C	0.382788	0.324072	0.109475
	C164	C	0.678415	0.883640	0.376139
	C165	C	0.677593	0.116275	0.613851
	C166	C	0.327480	0.884153	0.613525
	C167	C	0.326072	0.115907	0.375629
	C168	C	0.881921	0.384218	0.171295
	C169	C	0.119893	0.616396	0.169958
	C170	C	0.120782	0.384418	0.818579
	C171	C	0.883492	0.615883	0.819858
	C172	C	0.180691	0.879881	0.380595
	C173	C	0.179848	0.120010	0.609559
	C174	C	0.825126	0.120298	0.381620
	C175	C	0.824697	0.880011	0.609379
	C176	C	0.386846	0.175203	0.877223
	C177	C	0.617223	0.176728	0.112184
	C178	C	0.386729	0.824322	0.113161
	C179	C	0.617181	0.824202	0.876288
	C180	C	0.387725	0.879594	0.173619
	C181	C	0.616280	0.121624	0.172218
	C182	C	0.387878	0.119938	0.817441
	C183	C	0.616468	0.879738	0.816773
	C184	C	0.884791	0.175720	0.380593
	C185	C	0.120338	0.175933	0.610439
	C186	C	0.120289	0.825230	0.379433
	C187	C	0.884720	0.824906	0.610326
	C188	C	0.176856	0.384162	0.875510
	C189	C	0.176891	0.615950	0.113326
	C190	C	0.825307	0.384154	0.114597
	C191	C	0.826487	0.615901	0.876406
	C192	C	0.403510	0.097412	0.594056
	C193	C	0.600885	0.903405	0.593978
	C194	C	0.601420	0.096248	0.396773
	C195	C	0.404713	0.903921	0.396770
	C196	C	0.601415	0.401516	0.089447
	C197	C	0.603007	0.598816	0.900291
	C198	C	0.400295	0.598186	0.089267
	C199	C	0.399738	0.399809	0.899580
	C200	C	0.096686	0.600008	0.392653
	C201	C	0.907517	0.599940	0.596369
	C202	C	0.097512	0.401269	0.595413
	C203	C	0.907264	0.401209	0.394822
	C204	C	0.902677	0.596493	0.093712
	C205	C	0.099270	0.403302	0.093334
	C206	C	0.101893	0.597773	0.895030
	C207	C	0.903113	0.403077	0.896414
	C208	C	0.104177	0.900242	0.589978
	C209	C	0.103047	0.098988	0.400762
	C210	C	0.900493	0.100494	0.591006
	C211	C	0.900974	0.900162	0.399942
	C212	C	0.597155	0.099557	0.893282
	C213	C	0.407392	0.099256	0.095900
	C214	C	0.596508	0.902010	0.094920
	C215	C	0.407185	0.900593	0.893527
	Zn216	Zn	0.502098	-0.000031	0.742910
	Zn217	Zn	0.502167	0.000843	0.246793
	Zn218	Zn	0.753447	0.499741	-0.005095
	Zn219	Zn	0.249363	0.499592	-0.005599
	Zn220	Zn	0.002075	0.750416	0.494453
	Zn221	Zn	0.002034	0.250201	0.495157
	Zn222	Zn	0.001997	0.500478	0.746657
	Zn223	Zn	0.001148	0.500464	0.243397
	Zn224	Zn	0.501750	0.750053	-0.005291
	Zn225	Zn	0.501854	0.249995	-0.005411
	Zn226	Zn	0.750650	0.000243	0.495648
	Zn227	Zn	0.254538	-0.000093	0.495086
	N228	N	0.416750	0.963425	0.672116
	N229	N	0.587860	0.037157	0.672180
	N230	N	0.588412	0.962906	0.317438
	N231	N	0.416863	0.037334	0.318271
	N232	N	0.682714	0.411715	0.959256
	N233	N	0.682931	0.587779	0.030970
	N234	N	0.321242	0.586762	0.958132
	N235	N	0.319560	0.411447	0.030300
	N236	N	0.964005	0.676949	0.410296
	N237	N	0.040554	0.676431	0.577807
	N238	N	0.964860	0.324263	0.578965
	N239	N	0.039991	0.323684	0.410582
	N240	N	0.966326	0.413062	0.675227
	N241	N	0.038534	0.588314	0.675779
	N242	N	0.965268	0.587943	0.314149
	N243	N	0.037961	0.413025	0.313794
	N244	N	0.418309	0.675799	0.956887
	N245	N	0.586427	0.677195	0.032526
	N246	N	0.584598	0.324748	0.956804
	N247	N	0.416566	0.322806	0.032119
	N248	N	0.679665	0.962413	0.409998
	N249	N	0.678714	0.037372	0.580412
	N250	N	0.326133	0.963156	0.580369
	N251	N	0.325462	0.037332	0.409473
	N252	N	0.915556	0.463039	0.172417
	N253	N	0.086133	0.537519	0.171250
	N254	N	0.087969	0.463563	0.817232
	N255	N	0.916831	0.537056	0.818610
	N256	N	0.183868	0.912146	0.458871
	N257	N	0.182736	0.087086	0.531735
	N258	N	0.821817	0.087889	0.459728
	N259	N	0.821875	0.912826	0.531417
	N260	N	0.464379	0.176358	0.910653
	N261	N	0.539771	0.177264	0.078958
	N262	N	0.464134	0.823977	0.078631
	N263	N	0.539764	0.823221	0.909929
	N264	N	0.465657	0.912756	0.176141
	N265	N	0.538278	0.088364	0.175448
	N266	N	0.466107	0.087745	0.813937
	N267	N	0.538403	0.912829	0.814121
	N268	N	0.917918	0.177157	0.458175
	N269	N	0.086880	0.177222	0.532937
	N270	N	0.086644	0.823862	0.456859
	N271	N	0.918295	0.823747	0.532768
	N272	N	0.178462	0.463094	0.908824
	N273	N	0.178220	0.536819	0.080297
	N274	N	0.824208	0.462970	0.080860
	N275	N	0.824918	0.536938	0.909851
	O276	O	0.508761	0.496336	0.523899
	H277	H	0.505060	0.489401	0.521161
	H278	H	0.512545	0.487509	0.525056
	O279	O	0.543196	0.506006	0.415418
	H280	H	0.538693	0.500685	0.411777
	H281	H	0.531613	0.516364	0.422023
	O282	O	0.531974	0.510539	0.435622
	H283	H	0.534535	0.506520	0.429550
	H284	H	0.530643	0.517982	0.427932
	O285	O	-0.586082	1.541940	1.460671
	H286	H	-0.586263	1.538911	1.455725
	H287	H	-0.585037	1.542824	1.473988
	O288	O	0.454372	0.530726	0.556803
	H289	H	0.447213	0.527396	0.564098
	H290	H	0.451771	0.530445	0.562765
	O291	O	-0.051123	0.017817	1.026718
	H292	H	-0.052196	0.014105	1.024888
	H293	H	-0.046965	0.025713	1.026123
	O294	O	0.551997	0.480261	0.533121
	H295	H	0.546714	0.470608	0.528801
	H296	H	0.548353	0.487423	0.542641
	O297	O	0.461362	0.579712	0.513040
	H298	H	0.455535	0.578757	0.505424
	H299	H	0.465789	0.577941	0.523124
	O300	O	0.548515	0.399584	0.422150
	H301	H	0.558488	0.394938	0.421131
	H302	H	0.555064	0.415723	0.414392
	O303	O	0.501548	0.432482	0.352185
	H304	H	0.517290	0.441208	0.349145
	H305	H	0.500739	0.435794	0.341907
	O306	O	1.011491	0.036842	1.044163
	H307	H	1.018356	0.039152	1.049662
	H308	H	1.013129	0.040570	1.045479
	O309	O	0.435242	0.464736	0.501706
	H310	H	0.434343	0.469315	0.510138
	H311	H	0.437553	0.455566	0.516558
	O312	O	0.520968	0.502137	0.567990
	H313	H	0.515954	0.494458	0.566461
	H314	H	0.524898	0.504439	0.555883
	O315	O	0.987807	-0.025936	1.024805
	H316	H	0.992947	-0.020617	1.035433
	H317	H	0.991119	-0.027978	1.025045
	O318	O	-0.018608	0.017843	0.079683
	H319	H	-0.019215	0.009070	0.082402
	H320	H	-0.032322	0.014961	0.084278
	O321	O	0.492160	0.520400	0.483129
	H322	H	0.487890	0.507980	0.480567
	H323	H	0.495705	0.515507	0.477532
	O324	O	0.963321	-0.016284	0.027159
	H325	H	0.968456	-0.008223	0.024836
	H326	H	0.962151	-0.012141	0.024643
	O327	O	0.969525	0.981286	0.069245
	H328	H	0.963449	0.980379	0.070025
	H329	H	0.967727	0.970586	0.058479
	O330	O	0.500871	0.456737	0.561861
	H331	H	0.491900	0.452927	0.555955
	H332	H	0.503937	0.461703	0.559798
	O333	O	0.428799	0.416474	0.433693
	H334	H	0.441226	0.416501	0.425301
	H335	H	0.419894	0.427045	0.428195
