data_Molecule from HDF5

_cell_length_a		16.123551
_cell_length_b		16.229273
_cell_length_c		16.306494
_cell_angle_alpha	90.080662
_cell_angle_beta	90.108754
_cell_angle_gamma	89.951849
_symmetry_space_group_name_H-M	'P 1'
_symmetry_Int_Tables_number		1

loop_
	_symmetry_equiv_pos_as_xyz
	x,y,z

loop_
	_atom_site_label
	_atom_site_type_symbol
	_atom_site_fract_x
	_atom_site_fract_y
	_atom_site_fract_z
	H0	H	0.404214	0.837819	0.720013
	H1	H	0.603414	0.165098	0.723531
	H2	H	0.603176	0.838560	0.291402
	H3	H	0.402394	0.165325	0.291901
	H4	H	0.716308	0.405390	0.843115
	H5	H	0.716622	0.599939	0.172057
	H6	H	0.289386	0.598884	0.842940
	H7	H	0.290903	0.404822	0.170870
	H8	H	0.837690	0.715840	0.408268
	H9	H	0.168108	0.715298	0.605883
	H10	H	0.836924	0.289714	0.604771
	H11	H	0.167634	0.288217	0.408351
	H12	H	0.837797	0.402979	0.721036
	H13	H	0.167369	0.601468	0.722241
	H14	H	0.838329	0.601289	0.292533
	H15	H	0.167448	0.403582	0.293162
	H16	H	0.403896	0.715868	0.842663
	H17	H	0.601962	0.717301	0.170515
	H18	H	0.602559	0.286540	0.843292
	H19	H	0.404576	0.286863	0.169824
	H20	H	0.715282	0.837623	0.409924
	H21	H	0.715404	0.166643	0.604076
	H22	H	0.289045	0.837366	0.603886
	H23	H	0.289446	0.166348	0.409987
	H24	H	0.904060	0.338299	0.221417
	H25	H	0.102730	0.665994	0.222652
	H26	H	0.102915	0.338259	0.791508
	H27	H	0.902315	0.665578	0.792598
	H28	H	0.214563	0.906089	0.342402
	H29	H	0.216367	0.099380	0.671313
	H30	H	0.788822	0.099894	0.342870
	H31	H	0.790810	0.906072	0.670253
	H32	H	0.337505	0.213821	0.909528
	H33	H	0.667819	0.212759	0.103982
	H34	H	0.337108	0.788878	0.104309
	H35	H	0.668083	0.789833	0.910517
	H36	H	0.337603	0.902436	0.221435
	H37	H	0.667359	0.099744	0.221462
	H38	H	0.337267	0.101061	0.792664
	H39	H	0.667218	0.902325	0.793274
	H40	H	0.903848	0.216937	0.343373
	H41	H	0.101680	0.217197	0.670741
	H42	H	0.102768	0.786892	0.343413
	H43	H	0.903470	0.787336	0.669192
	H44	H	0.215816	0.336790	0.909843
	H45	H	0.215389	0.666659	0.104166
	H46	H	0.791676	0.337061	0.103039
	H47	H	0.789582	0.666527	0.911093
	H48	H	0.410375	0.117692	0.596588
	H49	H	0.588389	0.883384	0.612636
	H50	H	0.597408	0.122021	0.408188
	H51	H	0.403975	0.883355	0.414489
	H52	H	0.597491	0.398984	0.126391
	H53	H	0.603269	0.598322	0.887924
	H54	H	0.414808	0.597741	0.122290
	H55	H	0.411876	0.403682	0.888959
	H56	H	0.118076	0.593464	0.421658
	H57	H	0.884061	0.597037	0.600900
	H58	H	0.122034	0.413480	0.609150
	H59	H	0.889019	0.414919	0.424738
	H60	H	0.121957	0.400868	0.597392
	H61	H	0.885563	0.595208	0.598082
	H62	H	0.120754	0.588410	0.408419
	H63	H	0.883971	0.417817	0.403649
	H64	H	0.407050	0.598237	0.125030
	H65	H	0.595898	0.588132	0.892489
	H66	H	0.602741	0.411355	0.124373
	H67	H	0.404851	0.407677	0.889050
	H68	H	0.589688	0.117955	0.413209
	H69	H	0.590596	0.889583	0.589400
	H70	H	0.406053	0.121111	0.602451
	H71	H	0.411376	0.883284	0.407712
	H72	H	0.907369	0.620518	0.102012
	H73	H	0.092315	0.385780	0.102790
	H74	H	0.097585	0.618829	0.915992
	H75	H	0.909660	0.381398	0.904045
	H76	H	0.103944	0.906883	0.626385
	H77	H	0.098276	0.091679	0.390340
	H78	H	0.909091	0.084568	0.619823
	H79	H	0.901081	0.908474	0.387182
	H80	H	0.620412	0.096673	0.918025
	H81	H	0.381120	0.099940	0.104547
	H82	H	0.618151	0.909924	0.091987
	H83	H	0.385943	0.915447	0.912491
	H84	H	0.619443	0.916032	0.104436
	H85	H	0.386254	0.095904	0.092777
	H86	H	0.619588	0.088762	0.915007
	H87	H	0.380784	0.905116	0.906509
	H88	H	0.920470	0.102308	0.622268
	H89	H	0.090014	0.096651	0.391529
	H90	H	0.093639	0.916679	0.620138
	H91	H	0.913321	0.914272	0.392417
	H92	H	0.097179	0.619675	0.910782
	H93	H	0.097044	0.385333	0.097210
	H94	H	0.912429	0.620002	0.103777
	H95	H	0.919860	0.388930	0.915864
	H96	H	0.413217	0.119051	0.604264
	H97	H	0.609431	0.880598	0.601085
	H98	H	0.598514	0.118462	0.417568
	H99	H	0.413488	0.886663	0.416920
	H100	H	0.590192	0.408996	0.121317
	H101	H	0.590079	0.600320	0.891042
	H102	H	0.410174	0.591337	0.123060
	H103	H	0.411906	0.411338	0.890866
	H104	H	0.124733	0.602084	0.412078
	H105	H	0.884448	0.592732	0.600976
	H106	H	0.117118	0.416476	0.593082
	H107	H	0.880188	0.397872	0.412858
	H108	H	0.910550	0.619249	0.098717
	H109	H	0.099042	0.383061	0.103939
	H110	H	0.092496	0.618429	0.913509
	H111	H	0.902986	0.384086	0.919840
	H112	H	0.089672	0.902287	0.623555
	H113	H	0.098212	0.100395	0.388340
	H114	H	0.899938	0.102059	0.628474
	H115	H	0.912932	0.899875	0.387395
	H116	H	0.622657	0.094990	0.908724
	H117	H	0.385063	0.087130	0.103490
	H118	H	0.622400	0.902842	0.102927
	H119	H	0.383991	0.904637	0.919250
	C120	C	0.381268	0.010518	0.628518
	C121	C	0.624496	0.993039	0.628958
	C122	C	0.624301	0.010947	0.384799
	C123	C	0.380633	0.993123	0.384864
	C124	C	0.625432	0.378825	0.015748
	C125	C	0.624916	0.623969	0.999109
	C126	C	0.381834	0.623612	0.015131
	C127	C	0.381661	0.379558	0.998069
	C128	C	0.011871	0.623261	0.385731
	C129	C	0.993985	0.623658	0.628745
	C130	C	0.011187	0.381271	0.628380
	C131	C	0.993723	0.381603	0.385585
	C132	C	0.881912	0.510869	0.128670
	C133	C	0.124868	0.493464	0.129525
	C134	C	0.124034	0.510240	0.885464
	C135	C	0.881561	0.493185	0.885389
	C136	C	0.124437	0.880099	0.515215
	C137	C	0.124373	0.124555	0.498701
	C138	C	0.880791	0.124564	0.515312
	C139	C	0.881186	0.880092	0.497165
	C140	C	0.511480	0.122322	0.885313
	C141	C	0.493395	0.122527	0.128632
	C142	C	0.510690	0.880790	0.128113
	C143	C	0.493241	0.880197	0.885191
	C144	C	0.383593	0.886789	0.682539
	C145	C	0.622985	0.116481	0.684788
	C146	C	0.622984	0.887503	0.329617
	C147	C	0.382702	0.116416	0.330074
	C148	C	0.679283	0.383496	0.892078
	C149	C	0.679101	0.620491	0.122765
	C150	C	0.326754	0.620236	0.891815
	C151	C	0.327461	0.383359	0.121678
	C152	C	0.887064	0.677559	0.388473
	C153	C	0.118501	0.678019	0.626195
	C154	C	0.886526	0.326656	0.625338
	C155	C	0.118396	0.326245	0.388163
	C156	C	0.886938	0.383214	0.682979
	C157	C	0.118357	0.621377	0.684112
	C158	C	0.887453	0.621067	0.330780
	C159	C	0.118270	0.383069	0.330621
	C160	C	0.383933	0.678241	0.891775
	C161	C	0.622348	0.679119	0.122075
	C162	C	0.622628	0.324533	0.892213
	C163	C	0.384301	0.324920	0.121296
	C164	C	0.678578	0.886906	0.388471
	C165	C	0.678719	0.117184	0.625528
	C166	C	0.326710	0.886575	0.624600
	C167	C	0.326604	0.117287	0.388663
	C168	C	0.883348	0.387258	0.183702
	C169	C	0.122688	0.617016	0.184592
	C170	C	0.122489	0.386790	0.830057
	C171	C	0.882420	0.616749	0.830304
	C172	C	0.178420	0.883951	0.391655
	C173	C	0.178985	0.120504	0.622041
	C174	C	0.826438	0.120846	0.391983
	C175	C	0.827195	0.884155	0.621002
	C176	C	0.386776	0.176754	0.888423
	C177	C	0.618414	0.176074	0.125150
	C178	C	0.386524	0.825906	0.125314
	C179	C	0.618316	0.826473	0.889136
	C180	C	0.386633	0.882778	0.183039
	C181	C	0.617968	0.120086	0.183696
	C182	C	0.386709	0.120716	0.830526
	C183	C	0.617853	0.882551	0.830903
	C184	C	0.883709	0.178881	0.392010
	C185	C	0.121996	0.179248	0.621817
	C186	C	0.122627	0.824875	0.392198
	C187	C	0.883322	0.825258	0.620506
	C188	C	0.178571	0.386232	0.888951
	C189	C	0.178935	0.617278	0.125898
	C190	C	0.828163	0.386497	0.124523
	C191	C	0.826990	0.617367	0.889396
	C192	C	0.403382	0.096997	0.607373
	C193	C	0.602539	0.906867	0.607497
	C194	C	0.601903	0.097283	0.406619
	C195	C	0.402985	0.906703	0.406562
	C196	C	0.603400	0.400140	0.101810
	C197	C	0.602978	0.601950	0.912664
	C198	C	0.404045	0.602129	0.101204
	C199	C	0.403263	0.401124	0.911874
	C200	C	0.098722	0.600999	0.407611
	C201	C	0.907208	0.601526	0.606611
	C202	C	0.097963	0.403561	0.606318
	C203	C	0.906979	0.403798	0.407178
	C204	C	0.903734	0.597508	0.107732
	C205	C	0.102597	0.406908	0.107854
	C206	C	0.102134	0.596619	0.907040
	C207	C	0.904266	0.407169	0.906666
	C208	C	0.102420	0.902128	0.601082
	C209	C	0.102115	0.102694	0.412236
	C210	C	0.903334	0.102767	0.601304
	C211	C	0.902701	0.901204	0.411301
	C212	C	0.598346	0.100088	0.907413
	C213	C	0.406473	0.100787	0.106841
	C214	C	0.597718	0.903073	0.106269
	C215	C	0.405931	0.901898	0.906437
	Zn216	Zn	0.502356	0.001717	0.757630
	Zn217	Zn	0.502325	0.001438	0.256812
	Zn218	Zn	0.753820	0.501613	0.007513
	Zn219	Zn	0.252904	0.501726	0.007124
	Zn220	Zn	0.002896	0.751338	0.506785
	Zn221	Zn	0.002241	0.253728	0.506958
	Zn222	Zn	0.002354	0.501932	0.756536
	Zn223	Zn	0.002901	0.502265	0.257401
	Zn224	Zn	0.502950	0.752816	0.006762
	Zn225	Zn	0.502692	0.250019	0.006316
	Zn226	Zn	0.752506	0.001989	0.506466
	Zn227	Zn	0.252852	0.002072	0.506676
	N228	N	0.416623	0.964792	0.685189
	N229	N	0.589831	0.038433	0.687087
	N230	N	0.589718	0.965535	0.327366
	N231	N	0.415668	0.038211	0.327878
	N232	N	0.681004	0.416593	0.969724
	N233	N	0.680738	0.586804	0.045183
	N234	N	0.325387	0.587022	0.969367
	N235	N	0.325508	0.416459	0.043925
	N236	N	0.965289	0.678820	0.422087
	N237	N	0.040278	0.679424	0.592354
	N238	N	0.964813	0.325496	0.591850
	N239	N	0.040180	0.325142	0.421659
	N240	N	0.965393	0.416440	0.684848
	N241	N	0.039931	0.588160	0.685702
	N242	N	0.966064	0.587812	0.328865
	N243	N	0.039955	0.416928	0.328925
	N244	N	0.417453	0.680552	0.969508
	N245	N	0.589498	0.681443	0.044168
	N246	N	0.589764	0.321446	0.970015
	N247	N	0.417235	0.322497	0.043598
	N248	N	0.679590	0.964756	0.422121
	N249	N	0.679828	0.039622	0.591483
	N250	N	0.325012	0.964605	0.591758
	N251	N	0.325521	0.039701	0.422514
	N252	N	0.916348	0.465350	0.186277
	N253	N	0.089506	0.538817	0.186699
	N254	N	0.089186	0.464866	0.827714
	N255	N	0.915929	0.538630	0.827836
	N256	N	0.179749	0.917596	0.469186
	N257	N	0.180486	0.087398	0.544273
	N258	N	0.824751	0.087628	0.469634
	N259	N	0.825602	0.917542	0.543485
	N260	N	0.465244	0.178077	0.921606
	N261	N	0.540106	0.177811	0.091548
	N262	N	0.464772	0.824812	0.091698
	N263	N	0.539873	0.824991	0.922283
	N264	N	0.464861	0.916157	0.184749
	N265	N	0.539274	0.087517	0.185844
	N266	N	0.465290	0.087615	0.828367
	N267	N	0.539067	0.915250	0.828310
	N268	N	0.916685	0.181435	0.469846
	N269	N	0.088740	0.181700	0.544065
	N270	N	0.089409	0.822602	0.469985
	N271	N	0.916282	0.822699	0.542830
	N272	N	0.179388	0.463898	0.922857
	N273	N	0.180141	0.539687	0.092181
	N274	N	0.827138	0.464443	0.091290
	N275	N	0.825926	0.539739	0.922844
	O276	O	0.510219	0.458968	0.516807
	H277	H	0.515130	0.456160	0.519843
	H278	H	0.517788	0.452365	0.506214
	O279	O	-0.046343	0.018469	-0.026962
	H280	H	-0.049327	0.011567	-0.035359
	H281	H	-0.045888	0.011065	-0.029607
	O282	O	0.475381	0.450360	0.530903
	H283	H	0.468661	0.449888	0.521973
	H284	H	0.474220	0.453354	0.535709
	O285	O	0.472292	0.476174	0.505349
	H286	H	0.482396	0.470428	0.505673
	H287	H	0.472565	0.471542	0.507418
	O288	O	1.019321	-0.009644	-0.054647
	H289	H	1.029899	-0.012933	-0.056928
	H290	H	1.016895	0.002736	-0.058437
	O291	O	-0.498517	0.536468	-0.487336
	H292	H	-0.497031	0.542525	-0.479455
	H293	H	-0.500587	0.540909	-0.490112
	O294	O	0.500524	0.560518	0.496930
	H295	H	0.504710	0.559248	0.504226
	H296	H	0.501422	0.565173	0.499262
	O297	O	0.500354	1.517644	-0.452746
	H298	H	0.502651	1.505958	-0.456914
	H299	H	0.495895	1.516664	-0.453240
	O300	O	0.974281	0.022101	0.956022
	H301	H	0.973477	0.017795	0.957968
	H302	H	0.975762	0.013072	0.958800
	O303	O	0.503610	0.586008	0.494296
	H304	H	0.501152	0.579392	0.501316
	H305	H	0.503588	0.582631	0.497734
	O306	O	0.004050	1.028803	0.946768
	H307	H	0.007656	1.035016	0.937245
	H308	H	-0.001280	1.039367	0.960598
	O309	O	0.523332	0.438181	0.481001
	H310	H	0.517421	0.439027	0.477914
	H311	H	0.518169	0.444942	0.478896
