data_Molecule from HDF5

_cell_length_a		16.101655
_cell_length_b		16.240659
_cell_length_c		16.272919
_cell_angle_alpha	89.710290
_cell_angle_beta	89.552735
_cell_angle_gamma	90.435217
_symmetry_space_group_name_H-M	'P 1'
_symmetry_Int_Tables_number		1

loop_
	_symmetry_equiv_pos_as_xyz
	x,y,z

loop_
	_atom_site_label
	_atom_site_type_symbol
	_atom_site_fract_x
	_atom_site_fract_y
	_atom_site_fract_z
	H0	H	0.399044	0.836066	0.714606
	H1	H	0.603161	0.163034	0.709596
	H2	H	0.601787	0.835735	0.278665
	H3	H	0.402607	0.163062	0.280619
	H4	H	0.714475	0.404305	0.830805
	H5	H	0.713264	0.597215	0.159440
	H6	H	0.290014	0.596433	0.829635
	H7	H	0.285016	0.401081	0.158529
	H8	H	0.835716	0.712567	0.396351
	H9	H	0.165256	0.713699	0.590830
	H10	H	0.835998	0.282679	0.596096
	H11	H	0.166247	0.287571	0.395828
	H12	H	0.835793	0.397431	0.711276
	H13	H	0.166352	0.598128	0.705102
	H14	H	0.834437	0.597489	0.282465
	H15	H	0.165234	0.400869	0.279157
	H16	H	0.403039	0.715214	0.831585
	H17	H	0.600805	0.714370	0.158748
	H18	H	0.599683	0.286839	0.831217
	H19	H	0.396529	0.282470	0.157502
	H20	H	0.713531	0.833875	0.398175
	H21	H	0.714696	0.163198	0.590058
	H22	H	0.285699	0.834465	0.595180
	H23	H	0.290747	0.164111	0.399334
	H24	H	0.896843	0.335707	0.212152
	H25	H	0.099504	0.663044	0.207753
	H26	H	0.098993	0.335702	0.779711
	H27	H	0.901895	0.663342	0.777760
	H28	H	0.215600	0.903612	0.331083
	H29	H	0.212625	0.095111	0.660827
	H30	H	0.790918	0.095923	0.331107
	H31	H	0.784940	0.898412	0.658669
	H32	H	0.334310	0.210440	0.898167
	H33	H	0.664556	0.215759	0.092265
	H34	H	0.336074	0.783381	0.096488
	H35	H	0.665919	0.788955	0.896833
	H36	H	0.336225	0.898863	0.211017
	H37	H	0.666809	0.098639	0.204968
	H38	H	0.335461	0.097143	0.782630
	H39	H	0.665660	0.902970	0.781560
	H40	H	0.903826	0.214441	0.332777
	H41	H	0.100975	0.214665	0.659050
	H42	H	0.101428	0.786125	0.330797
	H43	H	0.898871	0.781545	0.657885
	H44	H	0.211420	0.334207	0.898179
	H45	H	0.213221	0.663674	0.089826
	H46	H	0.784219	0.335374	0.093629
	H47	H	0.790290	0.665779	0.898666
	H48	H	0.400253	0.119469	0.594386
	H49	H	0.594406	0.879176	0.595314
	H50	H	0.595889	0.117088	0.396259
	H51	H	0.407332	0.882372	0.406017
	H52	H	0.587283	0.406683	0.110439
	H53	H	0.599885	0.585268	0.878730
	H54	H	0.399910	0.585887	0.111879
	H55	H	0.411267	0.402188	0.877489
	H56	H	0.120319	0.594040	0.398665
	H57	H	0.884739	0.585936	0.583258
	H58	H	0.122666	0.393933	0.585749
	H59	H	0.878298	0.392434	0.402680
	H60	H	0.114299	0.413877	0.577666
	H61	H	0.881490	0.588443	0.593570
	H62	H	0.117806	0.593489	0.401679
	H63	H	0.887305	0.408421	0.416424
	H64	H	0.414591	0.588725	0.108224
	H65	H	0.584724	0.596366	0.880952
	H66	H	0.590786	0.405073	0.112184
	H67	H	0.401829	0.401272	0.874597
	H68	H	0.592282	0.114650	0.401592
	H69	H	0.585042	0.883547	0.590107
	H70	H	0.416349	0.115843	0.594721
	H71	H	0.407032	0.880128	0.400755
	H72	H	0.900087	0.618757	0.088652
	H73	H	0.087989	0.382379	0.090533
	H74	H	0.088770	0.616837	0.895121
	H75	H	0.903571	0.379038	0.895138
	H76	H	0.108072	0.907478	0.615922
	H77	H	0.101016	0.094102	0.377091
	H78	H	0.910026	0.096228	0.614131
	H79	H	0.910424	0.907372	0.378784
	H80	H	0.618255	0.094552	0.904703
	H81	H	0.380115	0.098006	0.087024
	H82	H	0.623644	0.896932	0.089432
	H83	H	0.381115	0.911285	0.896777
	H84	H	0.615751	0.909555	0.078098
	H85	H	0.384834	0.085454	0.085257
	H86	H	0.618237	0.090887	0.900557
	H87	H	0.379657	0.897499	0.905568
	H88	H	0.901800	0.089452	0.614413
	H89	H	0.094575	0.091862	0.379995
	H90	H	0.083168	0.916838	0.605722
	H91	H	0.909757	0.901532	0.376695
	H92	H	0.095653	0.615985	0.905364
	H93	H	0.091655	0.382590	0.085463
	H94	H	0.911323	0.617119	0.096700
	H95	H	0.916351	0.386383	0.902203
	H96	H	0.408410	0.113869	0.580619
	H97	H	0.594513	0.882475	0.584410
	H98	H	0.599213	0.116909	0.401927
	H99	H	0.412211	0.883069	0.402447
	H100	H	0.590944	0.408825	0.111004
	H101	H	0.600232	0.603706	0.874468
	H102	H	0.405515	0.599073	0.114406
	H103	H	0.405278	0.409621	0.877455
	H104	H	0.117968	0.590941	0.399802
	H105	H	0.880489	0.596415	0.585565
	H106	H	0.121081	0.412482	0.599448
	H107	H	0.882320	0.414226	0.394638
	H108	H	0.912075	0.614384	0.083580
	H109	H	0.093719	0.379362	0.090913
	H110	H	0.100253	0.619782	0.894912
	H111	H	0.902804	0.383832	0.910860
	H112	H	0.085383	0.889947	0.614427
	H113	H	0.095415	0.098736	0.378095
	H114	H	0.910825	0.086195	0.610529
	H115	H	0.904615	0.905370	0.376815
	H116	H	0.620145	0.096695	0.899926
	H117	H	0.379724	0.089396	0.096963
	H118	H	0.619491	0.914062	0.094829
	H119	H	0.385813	0.911419	0.913302
	C120	C	0.378551	0.008000	0.619001
	C121	C	0.621388	0.990493	0.616830
	C122	C	0.623809	0.007566	0.372246
	C123	C	0.380645	0.990766	0.374690
	C124	C	0.620173	0.378738	0.003417
	C125	C	0.622569	0.622155	0.986735
	C126	C	0.379087	0.620506	0.003175
	C127	C	0.376673	0.376070	0.985121
	C128	C	0.008960	0.620898	0.372275
	C129	C	0.991684	0.619739	0.614977
	C130	C	0.009857	0.377205	0.616932
	C131	C	0.991503	0.377549	0.374372
	C132	C	0.877414	0.508294	0.118315
	C133	C	0.120756	0.490249	0.116147
	C134	C	0.122709	0.508169	0.871625
	C135	C	0.879173	0.491746	0.873837
	C136	C	0.122268	0.877417	0.503677
	C137	C	0.124105	0.122012	0.487262
	C138	C	0.880547	0.119371	0.504329
	C139	C	0.878310	0.875481	0.485846
	C140	C	0.509416	0.121716	0.873554
	C141	C	0.491337	0.120656	0.116588
	C142	C	0.510443	0.877021	0.117763
	C143	C	0.491486	0.878766	0.875235
	C144	C	0.379064	0.884739	0.675758
	C145	C	0.621067	0.114278	0.670802
	C146	C	0.621362	0.884373	0.317181
	C147	C	0.382857	0.114159	0.318971
	C148	C	0.676502	0.382850	0.879905
	C149	C	0.675979	0.617908	0.110398
	C150	C	0.326213	0.617646	0.879187
	C151	C	0.321978	0.379911	0.109113
	C152	C	0.884862	0.675286	0.375694
	C153	C	0.116160	0.675393	0.611514
	C154	C	0.885298	0.320740	0.615889
	C155	C	0.116691	0.324376	0.375831
	C156	C	0.885152	0.378159	0.672944
	C157	C	0.116693	0.618079	0.668334
	C158	C	0.884365	0.618014	0.318963
	C159	C	0.115952	0.380749	0.317771
	C160	C	0.382376	0.676670	0.880094
	C161	C	0.620186	0.676522	0.109903
	C162	C	0.619872	0.323998	0.880245
	C163	C	0.377323	0.320756	0.108589
	C164	C	0.676713	0.883305	0.376812
	C165	C	0.677181	0.114134	0.611798
	C166	C	0.323208	0.883907	0.616361
	C167	C	0.327657	0.115028	0.378390
	C168	C	0.877811	0.384618	0.173754
	C169	C	0.119274	0.614011	0.170089
	C170	C	0.119321	0.384583	0.817507
	C171	C	0.881983	0.614989	0.817416
	C172	C	0.178032	0.881854	0.379971
	C173	C	0.176700	0.117090	0.611303
	C174	C	0.827667	0.116634	0.380409
	C175	C	0.822731	0.877798	0.609546
	C176	C	0.383994	0.174273	0.877073
	C177	C	0.615526	0.176968	0.112614
	C178	C	0.385497	0.821298	0.116377
	C179	C	0.616349	0.825801	0.876637
	C180	C	0.385628	0.878594	0.173398
	C181	C	0.616557	0.118857	0.168866
	C182	C	0.384647	0.117984	0.819577
	C183	C	0.616295	0.882403	0.819381
	C184	C	0.883656	0.175516	0.381191
	C185	C	0.120971	0.176416	0.610563
	C186	C	0.120788	0.823816	0.379866
	C187	C	0.879274	0.819814	0.609182
	C188	C	0.175216	0.383804	0.876506
	C189	C	0.175844	0.614404	0.111443
	C190	C	0.821568	0.384466	0.115057
	C191	C	0.826543	0.616097	0.877223
	C192	C	0.401488	0.093963	0.596532
	C193	C	0.598060	0.903833	0.596120
	C194	C	0.602364	0.094084	0.393580
	C195	C	0.402279	0.904451	0.396619
	C196	C	0.596660	0.400488	0.088996
	C197	C	0.601361	0.601229	0.900215
	C198	C	0.400463	0.597953	0.089226
	C199	C	0.399495	0.397733	0.898948
	C200	C	0.096093	0.599254	0.393740
	C201	C	0.904672	0.596740	0.593765
	C202	C	0.096616	0.400030	0.594332
	C203	C	0.905100	0.398744	0.397809
	C204	C	0.900670	0.594359	0.096084
	C205	C	0.097806	0.403910	0.095184
	C206	C	0.101210	0.594964	0.892275
	C207	C	0.900922	0.405447	0.896148
	C208	C	0.099177	0.898550	0.589728
	C209	C	0.103271	0.101240	0.400864
	C210	C	0.901589	0.097217	0.590750
	C211	C	0.901442	0.897957	0.399847
	C212	C	0.596332	0.100399	0.895243
	C213	C	0.404171	0.097754	0.095879
	C214	C	0.597258	0.900071	0.094437
	C215	C	0.404597	0.900222	0.898426
	Zn216	Zn	0.500583	-0.000176	0.747008
	Zn217	Zn	0.501465	-0.000642	0.244682
	Zn218	Zn	0.750024	0.500644	-0.004543
	Zn219	Zn	0.249709	0.498991	-0.006084
	Zn220	Zn	0.000407	0.747992	0.494038
	Zn221	Zn	0.001490	0.249233	0.496002
	Zn222	Zn	0.000457	0.499710	0.743998
	Zn223	Zn	-0.000412	0.498906	0.245990
	Zn224	Zn	0.500868	0.750302	-0.004497
	Zn225	Zn	0.499131	0.248312	-0.005449
	Zn226	Zn	0.750875	-0.001805	0.495090
	Zn227	Zn	0.251444	-0.000755	0.495829
	N228	N	0.412770	0.962746	0.677439
	N229	N	0.586860	0.036315	0.673865
	N230	N	0.588975	0.962615	0.314424
	N231	N	0.415075	0.035954	0.316494
	N232	N	0.677075	0.416021	0.957408
	N233	N	0.677669	0.584973	0.032723
	N234	N	0.323902	0.583589	0.956716
	N235	N	0.321326	0.413509	0.031388
	N236	N	0.963463	0.677162	0.408204
	N237	N	0.037590	0.676528	0.579054
	N238	N	0.963891	0.319967	0.581864
	N239	N	0.038346	0.321927	0.410246
	N240	N	0.963465	0.412649	0.673617
	N241	N	0.038223	0.583993	0.670469
	N242	N	0.962690	0.584841	0.316962
	N243	N	0.037244	0.413164	0.316631
	N244	N	0.414681	0.678505	0.958165
	N245	N	0.587734	0.679403	0.031877
	N246	N	0.585330	0.321302	0.957840
	N247	N	0.410814	0.318235	0.030556
	N248	N	0.678386	0.960966	0.410237
	N249	N	0.677596	0.036116	0.579295
	N250	N	0.322612	0.961571	0.581805
	N251	N	0.325987	0.037203	0.412276
	N252	N	0.911717	0.462650	0.175868
	N253	N	0.085813	0.535830	0.173236
	N254	N	0.087424	0.463036	0.814354
	N255	N	0.913802	0.536624	0.814953
	N256	N	0.178931	0.914563	0.457773
	N257	N	0.178484	0.083761	0.533655
	N258	N	0.825609	0.082469	0.457969
	N259	N	0.821819	0.911608	0.531846
	N260	N	0.462466	0.176447	0.910001
	N261	N	0.536526	0.178221	0.080786
	N262	N	0.464260	0.820046	0.082575
	N263	N	0.538018	0.823646	0.910752
	N264	N	0.464155	0.912412	0.174370
	N265	N	0.538262	0.084526	0.171509
	N266	N	0.463546	0.086018	0.817118
	N267	N	0.537521	0.914749	0.818248
	N268	N	0.915915	0.177358	0.459318
	N269	N	0.089358	0.179894	0.532368
	N270	N	0.086716	0.820843	0.457717
	N271	N	0.912879	0.818062	0.531267
	N272	N	0.177266	0.461743	0.909202
	N273	N	0.176833	0.536481	0.078544
	N274	N	0.820932	0.462380	0.081499
	N275	N	0.825047	0.538526	0.911857
	O276	O	0.431559	0.467782	0.444619
	H277	H	0.432714	0.471920	0.445821
	H278	H	0.426291	0.464178	0.449827
	O279	O	0.528459	0.523026	0.436194
	H280	H	0.524153	0.522978	0.429538
	H281	H	0.518119	0.517094	0.446907
	O282	O	0.494654	0.457303	0.570626
	H283	H	0.495674	0.452026	0.564419
	H284	H	0.496373	0.455406	0.574177
	O285	O	-0.467131	1.518043	1.570446
	H286	H	-0.461471	1.522371	1.579530
	H287	H	-0.472053	1.512232	1.571254
	O288	O	0.500721	0.519722	0.456740
	H289	H	0.506747	0.528405	0.448553
	H290	H	0.504025	0.522873	0.458965
	O291	O	0.002236	0.043812	1.019687
	H292	H	0.004718	0.045765	1.027968
	H293	H	0.004689	0.044798	1.022823
	O294	O	0.542773	0.492114	0.433984
	H295	H	0.540444	0.499141	0.425877
	H296	H	0.538717	0.493665	0.425157
	O297	O	0.478571	0.476396	0.494360
	H298	H	0.483243	0.476265	0.495493
	H299	H	0.490549	0.470906	0.492360
	O300	O	0.444792	0.473895	0.475440
	H301	H	0.440170	0.478668	0.477306
	H302	H	0.446528	0.475566	0.483510
	O303	O	0.547647	0.537296	0.413253
	H304	H	0.541434	0.546512	0.404076
	H305	H	0.553843	0.537553	0.417586
	O306	O	0.994760	0.019282	1.065608
	H307	H	0.985811	0.010249	1.071368
	H308	H	0.996411	0.009858	1.068133
	O309	O	0.522935	0.507161	0.471775
	H310	H	0.525465	0.498058	0.470714
	H311	H	0.536336	0.492912	0.464458
	O312	O	0.494191	0.596039	0.508899
	H313	H	0.500923	0.584899	0.504653
	H314	H	0.496278	0.602963	0.509362
	O315	O	1.029635	0.004008	1.021291
	H316	H	1.032835	0.016901	1.026945
	H317	H	1.023664	-0.005660	1.017481
	O318	O	-0.023532	-0.014599	0.016149
	H319	H	-0.022820	-0.002111	0.013729
	H320	H	-0.027104	-0.012991	0.009574
	O321	O	0.398795	0.470014	0.574821
	H322	H	0.394561	0.466830	0.577768
	H323	H	0.408351	0.466705	0.568046
	O324	O	1.023414	-0.009070	0.019263
	H325	H	1.030827	-0.004810	0.016307
	H326	H	1.027687	-0.014492	0.020272
	O327	O	1.010678	0.963748	0.063243
	H328	H	1.004818	0.964936	0.062923
	H329	H	1.017437	0.953638	0.062665
	O330	O	0.517836	0.488951	0.544835
	H331	H	0.516254	0.493735	0.535447
	H332	H	0.513919	0.485598	0.551910
	O333	O	0.506633	0.459283	0.388438
	H334	H	0.503899	0.463726	0.393018
	H335	H	0.498639	0.458284	0.378284
