data_Molecule from HDF5

_cell_length_a		16.468836
_cell_length_b		15.981994
_cell_length_c		16.205268
_cell_angle_alpha	89.509009
_cell_angle_beta	90.210827
_cell_angle_gamma	90.036810
_symmetry_space_group_name_H-M	'P 1'
_symmetry_Int_Tables_number		1

loop_
	_symmetry_equiv_pos_as_xyz
	x,y,z

loop_
	_atom_site_label
	_atom_site_type_symbol
	_atom_site_fract_x
	_atom_site_fract_y
	_atom_site_fract_z
	H0	H	0.388348	0.840176	0.710517
	H1	H	0.585320	0.173174	0.701684
	H2	H	0.584435	0.839852	0.282012
	H3	H	0.388755	0.171164	0.278665
	H4	H	0.709242	0.404278	0.831923
	H5	H	0.710487	0.612700	0.155881
	H6	H	0.268152	0.613927	0.832991
	H7	H	0.273571	0.399627	0.156632
	H8	H	0.825463	0.715952	0.396546
	H9	H	0.149086	0.720000	0.595363
	H10	H	0.825567	0.285542	0.596878
	H11	H	0.151610	0.289670	0.403353
	H12	H	0.827889	0.399212	0.717559
	H13	H	0.150209	0.603569	0.712953
	H14	H	0.829789	0.605670	0.274393
	H15	H	0.150275	0.398527	0.279873
	H16	H	0.394359	0.718400	0.828385
	H17	H	0.585995	0.716298	0.158757
	H18	H	0.584978	0.297843	0.827149
	H19	H	0.394401	0.290721	0.157857
	H20	H	0.701643	0.839856	0.390427
	H21	H	0.706932	0.167416	0.595906
	H22	H	0.273356	0.838359	0.595096
	H23	H	0.269024	0.168811	0.387942
	H24	H	0.895142	0.336555	0.206717
	H25	H	0.089084	0.669547	0.209088
	H26	H	0.087408	0.338267	0.787249
	H27	H	0.890999	0.669157	0.779930
	H28	H	0.203203	0.900540	0.331067
	H29	H	0.208976	0.106883	0.655077
	H30	H	0.769324	0.108255	0.330762
	H31	H	0.767343	0.897115	0.655731
	H32	H	0.326926	0.222086	0.893694
	H33	H	0.652737	0.218125	0.088125
	H34	H	0.327719	0.787931	0.091878
	H35	H	0.652433	0.792868	0.897199
	H36	H	0.326845	0.904884	0.208659
	H37	H	0.649948	0.106525	0.210977
	H38	H	0.327283	0.109526	0.774598
	H39	H	0.649670	0.906622	0.775292
	H40	H	0.889910	0.219319	0.330475
	H41	H	0.082493	0.208682	0.662082
	H42	H	0.081250	0.792544	0.329369
	H43	H	0.893108	0.791753	0.660638
	H44	H	0.205330	0.341659	0.895204
	H45	H	0.206249	0.669745	0.097501
	H46	H	0.771413	0.341664	0.099805
	H47	H	0.775128	0.670484	0.890074
	H48	H	0.401043	0.119794	0.577497
	H49	H	0.574537	0.888266	0.584639
	H50	H	0.581591	0.124738	0.402283
	H51	H	0.391790	0.885502	0.403962
	H52	H	0.587798	0.408143	0.113341
	H53	H	0.590383	0.599199	0.874373
	H54	H	0.393697	0.595183	0.112376
	H55	H	0.394910	0.420437	0.877336
	H56	H	0.105904	0.599211	0.403596
	H57	H	0.872094	0.591252	0.597383
	H58	H	0.102828	0.412310	0.600775
	H59	H	0.872836	0.409332	0.398491
	H60	H	0.105713	0.399972	0.592837
	H61	H	0.872032	0.601676	0.586650
	H62	H	0.102601	0.595582	0.406662
	H63	H	0.875231	0.410308	0.406206
	H64	H	0.397231	0.591416	0.109623
	H65	H	0.583160	0.591410	0.878676
	H66	H	0.586814	0.422125	0.109757
	H67	H	0.396210	0.414133	0.875634
	H68	H	0.577836	0.123169	0.401168
	H69	H	0.578461	0.887598	0.582787
	H70	H	0.386915	0.124594	0.577001
	H71	H	0.392523	0.884449	0.400244
	H72	H	0.897708	0.622430	0.080185
	H73	H	0.090015	0.382792	0.088934
	H74	H	0.080351	0.625942	0.903549
	H75	H	0.895327	0.384997	0.908459
	H76	H	0.084817	0.914001	0.611331
	H77	H	0.083847	0.103510	0.373256
	H78	H	0.896580	0.090153	0.610203
	H79	H	0.896474	0.919144	0.380010
	H80	H	0.606513	0.099572	0.889757
	H81	H	0.373228	0.104472	0.081762
	H82	H	0.601906	0.913085	0.083920
	H83	H	0.378668	0.926309	0.901828
	H84	H	0.603493	0.917937	0.093114
	H85	H	0.377633	0.093212	0.082745
	H86	H	0.605770	0.107617	0.900514
	H87	H	0.369173	0.908760	0.890591
	H88	H	0.892235	0.092900	0.612161
	H89	H	0.084440	0.087731	0.378543
	H90	H	0.079948	0.914058	0.610266
	H91	H	0.895178	0.902213	0.375044
	H92	H	0.078749	0.623681	0.904045
	H93	H	0.080438	0.384770	0.092712
	H94	H	0.898149	0.624490	0.088952
	H95	H	0.898204	0.387020	0.907931
	H96	H	0.395108	0.125856	0.589492
	H97	H	0.577376	0.885547	0.586209
	H98	H	0.579429	0.123000	0.405239
	H99	H	0.395578	0.886534	0.402137
	H100	H	0.575671	0.413712	0.107764
	H101	H	0.579332	0.602995	0.876590
	H102	H	0.399867	0.596944	0.111084
	H103	H	0.390495	0.416931	0.875743
	H104	H	0.103956	0.594278	0.402326
	H105	H	0.877227	0.587757	0.583565
	H106	H	0.099896	0.412322	0.586436
	H107	H	0.874834	0.417202	0.401732
	H108	H	0.904656	0.621983	0.085140
	H109	H	0.082519	0.386715	0.083319
	H110	H	0.080895	0.623959	0.904916
	H111	H	0.896394	0.386645	0.910470
	H112	H	0.081331	0.909961	0.611938
	H113	H	0.070424	0.096955	0.379300
	H114	H	0.891601	0.087706	0.609716
	H115	H	0.881350	0.912888	0.375101
	H116	H	0.601760	0.094898	0.900472
	H117	H	0.371203	0.098514	0.092108
	H118	H	0.606631	0.907490	0.092154
	H119	H	0.375961	0.906842	0.911081
	C120	C	0.365592	0.014029	0.613322
	C121	C	0.607727	0.996259	0.613942
	C122	C	0.607652	0.014265	0.373480
	C123	C	0.365103	0.995509	0.371861
	C124	C	0.611968	0.385777	0.002007
	C125	C	0.612729	0.627569	0.984942
	C126	C	0.367635	0.626499	0.002865
	C127	C	0.367016	0.385309	0.984717
	C128	C	-0.002270	0.625458	0.373550
	C129	C	0.980140	0.624099	0.618622
	C130	C	-0.004055	0.378990	0.621765
	C131	C	0.981127	0.381775	0.375206
	C132	C	0.870036	0.513639	0.116051
	C133	C	0.112870	0.494614	0.117480
	C134	C	0.109446	0.514697	0.875623
	C135	C	0.868350	0.495388	0.876397
	C136	C	0.109104	0.882666	0.502918
	C137	C	0.108785	0.124192	0.485546
	C138	C	0.864876	0.123237	0.502708
	C139	C	0.863647	0.881128	0.485374
	C140	C	0.497478	0.129840	0.868722
	C141	C	0.481010	0.127909	0.114741
	C142	C	0.497408	0.882726	0.117249
	C143	C	0.480909	0.884419	0.871967
	C144	C	0.368192	0.889240	0.671279
	C145	C	0.606260	0.122266	0.666581
	C146	C	0.604977	0.889323	0.318517
	C147	C	0.367325	0.121018	0.315673
	C148	C	0.669107	0.386272	0.879771
	C149	C	0.670053	0.629280	0.107584
	C150	C	0.309087	0.630266	0.880738
	C151	C	0.312137	0.382610	0.107721
	C152	C	0.874893	0.679522	0.375484
	C153	C	0.101244	0.681379	0.616190
	C154	C	0.874468	0.322959	0.618455
	C155	C	0.102803	0.326275	0.380695
	C156	C	0.875606	0.379631	0.678492
	C157	C	0.101707	0.623210	0.674531
	C158	C	0.877040	0.624655	0.314590
	C159	C	0.102252	0.380670	0.319309
	C160	C	0.371632	0.682561	0.878629
	C161	C	0.608452	0.681256	0.109056
	C162	C	0.607693	0.332771	0.877477
	C163	C	0.372504	0.328460	0.108530
	C164	C	0.663165	0.889316	0.372765
	C165	C	0.666796	0.119317	0.613838
	C166	C	0.310581	0.888583	0.614491
	C167	C	0.308221	0.119897	0.370484
	C168	C	0.872759	0.387537	0.171092
	C169	C	0.109951	0.619789	0.172225
	C170	C	0.107776	0.388833	0.823039
	C171	C	0.870668	0.619918	0.818036
	C172	C	0.164079	0.882592	0.379684
	C173	C	0.167501	0.123899	0.607777
	C174	C	0.808479	0.125714	0.379637
	C175	C	0.807125	0.879532	0.607773
	C176	C	0.375313	0.184838	0.872355
	C177	C	0.603502	0.182042	0.110801
	C178	C	0.375782	0.826367	0.112928
	C179	C	0.603590	0.829933	0.875375
	C180	C	0.375273	0.884569	0.171007
	C181	C	0.602258	0.125908	0.171502
	C182	C	0.375730	0.128916	0.812770
	C183	C	0.602058	0.886348	0.814835
	C184	C	0.868388	0.181207	0.379505
	C185	C	0.104924	0.174985	0.611235
	C186	C	0.103437	0.828760	0.378812
	C187	C	0.869144	0.826420	0.609996
	C188	C	0.166480	0.390640	0.876756
	C189	C	0.168069	0.619902	0.116655
	C190	C	0.811795	0.389913	0.117394
	C191	C	0.813408	0.620788	0.873196
	C192	C	0.387697	0.100941	0.588535
	C193	C	0.583724	0.909563	0.591248
	C194	C	0.585978	0.101210	0.396196
	C195	C	0.386904	0.908338	0.395095
	C196	C	0.589940	0.408204	0.088026
	C197	C	0.590866	0.604605	0.898816
	C198	C	0.390199	0.601806	0.088661
	C199	C	0.387737	0.409892	0.898467
	C200	C	0.082107	0.603114	0.397172
	C201	C	0.895593	0.600457	0.595822
	C202	C	0.080998	0.401574	0.599673
	C203	C	0.896315	0.405442	0.396056
	C204	C	0.893351	0.600421	0.091977
	C205	C	0.090958	0.407431	0.094969
	C206	C	0.086744	0.601934	0.897748
	C207	C	0.890131	0.408744	0.901678
	C208	C	0.088203	0.905832	0.589052
	C209	C	0.086225	0.102496	0.399401
	C210	C	0.886948	0.097707	0.588613
	C211	C	0.884748	0.904746	0.398879
	C212	C	0.582552	0.107295	0.890518
	C213	C	0.396050	0.105227	0.092166
	C214	C	0.582075	0.905878	0.096044
	C215	C	0.396569	0.907349	0.894614
	Zn216	Zn	0.487765	0.006720	0.740559
	Zn217	Zn	0.488201	0.005613	0.246299
	Zn218	Zn	0.741093	0.507119	-0.004971
	Zn219	Zn	0.237898	0.506074	-0.005644
	Zn220	Zn	-0.012271	0.754457	0.495345
	Zn221	Zn	-0.012065	0.251538	0.496854
	Zn222	Zn	-0.011313	0.503383	0.749982
	Zn223	Zn	-0.008769	0.503325	0.244147
	Zn224	Zn	0.490341	0.753286	-0.006005
	Zn225	Zn	0.489614	0.258005	-0.008265
	Zn226	Zn	0.734817	0.002780	0.493270
	Zn227	Zn	0.237571	0.003750	0.492622
	N228	N	0.401345	0.968303	0.670947
	N229	N	0.570252	0.044584	0.666756
	N230	N	0.570929	0.967878	0.318958
	N231	N	0.401970	0.042802	0.316164
	N232	N	0.671925	0.418418	0.958244
	N233	N	0.672938	0.596738	0.029402
	N234	N	0.306420	0.596234	0.958977
	N235	N	0.308501	0.417296	0.029646
	N236	N	0.950718	0.680230	0.411421
	N237	N	0.024702	0.682114	0.582122
	N238	N	0.950532	0.322333	0.583907
	N239	N	0.026449	0.326808	0.414749
	N240	N	0.952304	0.413598	0.680611
	N241	N	0.025294	0.588442	0.675952
	N242	N	0.954290	0.591949	0.312959
	N243	N	0.025591	0.414712	0.315918
	N244	N	0.407399	0.680253	0.955615
	N245	N	0.573438	0.680234	0.031692
	N246	N	0.572876	0.332265	0.954504
	N247	N	0.405871	0.329887	0.030932
	N248	N	0.664978	0.968003	0.406344
	N249	N	0.667602	0.039908	0.581720
	N250	N	0.308873	0.967256	0.579139
	N251	N	0.306654	0.040865	0.404668
	N252	N	0.908303	0.465508	0.170393
	N253	N	0.076398	0.540965	0.173015
	N254	N	0.073061	0.467113	0.822157
	N255	N	0.904434	0.541169	0.819885
	N256	N	0.167744	0.915365	0.457908
	N257	N	0.170204	0.093248	0.528760
	N258	N	0.806393	0.090366	0.457300
	N259	N	0.803654	0.912659	0.529160
	N260	N	0.451933	0.185864	0.906402
	N261	N	0.527100	0.183275	0.076177
	N262	N	0.452670	0.825255	0.080213
	N263	N	0.527444	0.828530	0.910156
	N264	N	0.451939	0.918878	0.173980
	N265	N	0.524923	0.093089	0.174114
	N266	N	0.452629	0.095480	0.810622
	N267	N	0.524947	0.919308	0.812483
	N268	N	0.902731	0.179984	0.457157
	N269	N	0.068786	0.175172	0.534380
	N270	N	0.069763	0.828872	0.456415
	N271	N	0.903601	0.827270	0.532822
	N272	N	0.167532	0.470048	0.908751
	N273	N	0.170012	0.541035	0.083299
	N274	N	0.809887	0.469433	0.084075
	N275	N	0.811823	0.542397	0.908744
	O276	O	0.942137	0.034395	0.992032
	H277	H	0.938339	0.014441	0.997493
	H278	H	0.941573	0.035861	0.986162
	O279	O	0.649378	0.450768	0.425415
	H280	H	0.656653	0.446680	0.421431
	H281	H	0.654852	0.440638	0.407932
	O282	O	0.393359	0.557590	0.466650
	H283	H	0.393550	0.550508	0.470108
	H284	H	0.398232	0.565273	0.463112
	O285	O	0.487990	0.471237	0.550077
	H286	H	0.491990	0.468228	0.554184
	H287	H	0.497216	0.461349	0.553076
	O288	O	0.604043	0.489030	0.382894
	H289	H	0.615366	0.482718	0.391561
	H290	H	0.601812	0.505930	0.383413
	O291	O	0.265372	-0.358126	1.336297
	H292	H	0.265500	-0.369722	1.329115
	H293	H	0.254299	-0.358771	1.334549
	O294	O	0.887610	0.906875	0.058107
	H295	H	0.898993	0.912257	0.064397
	H296	H	0.877260	0.895302	0.055729
	O297	O	1.030602	0.919839	-0.081449
	H298	H	1.037185	0.900331	-0.092037
	H299	H	1.018470	0.920125	-0.058131
	O300	O	0.475054	0.329762	0.496239
	H301	H	0.472561	0.322287	0.497603
	H302	H	0.481211	0.320767	0.492822
	O303	O	0.430445	0.582594	0.482850
	H304	H	0.419798	0.596158	0.488359
	H305	H	0.426740	0.565587	0.489854
	O306	O	0.343362	0.543832	0.426824
	H307	H	0.327889	0.540147	0.441949
	H308	H	0.353994	0.554969	0.433040
	O309	O	0.637674	0.589243	0.564758
	H310	H	0.650421	0.600670	0.564965
	H311	H	0.635688	0.574614	0.561570
	O312	O	0.928780	1.047597	0.914430
	H313	H	0.924864	1.058612	0.931431
	H314	H	0.934856	1.059004	0.909485
	O315	O	1.142559	1.028182	0.051205
	H316	H	1.150133	1.033920	0.065357
	H317	H	1.137683	1.039821	0.041126
	O318	O	0.518145	0.422638	0.656852
	H319	H	0.506458	0.413165	0.674813
	H320	H	0.510521	0.438024	0.663116
	O321	O	0.558628	0.440711	0.484533
	H322	H	0.566448	0.441879	0.480783
	H323	H	0.552107	0.437389	0.492597
	O324	O	0.004497	0.968371	1.012148
	H325	H	-0.002229	0.958363	1.012165
	H326	H	-0.000504	0.971454	1.012587
	O327	O	0.059288	1.009365	1.006253
	H328	H	0.062191	1.005839	1.004366
	H329	H	0.056986	1.007515	1.019946
	O330	O	-0.061725	0.025995	0.026408
	H331	H	-0.062906	0.022040	0.015354
	H332	H	-0.062736	0.025244	0.032011
	O333	O	0.362349	0.393569	0.507248
	H334	H	0.366011	0.390903	0.497729
	H335	H	0.357481	0.391151	0.507566
	O336	O	-0.075018	0.042610	-0.032676
	H337	H	-0.084967	0.053474	-0.040874
	H338	H	-0.075385	0.047323	-0.033310
	O339	O	-0.036397	-0.023622	0.008019
	H340	H	-0.037255	-0.024433	0.014327
	H341	H	-0.027152	-0.027444	0.014165
	O342	O	0.484121	0.650656	0.349190
	H343	H	0.472198	0.658089	0.348566
	H344	H	0.487480	0.652759	0.355822
	O345	O	0.017411	1.019104	0.921225
	H346	H	0.025692	1.021603	0.913829
	H347	H	0.026128	1.024899	0.913761
	O348	O	0.450950	0.455689	0.367264
	H349	H	0.472731	0.466968	0.359658
	H350	H	0.456144	0.444971	0.356041
	O351	O	0.572930	0.677618	0.593470
	H352	H	0.581618	0.676515	0.595717
	H353	H	0.575729	0.675114	0.586747
	O354	O	-0.030078	1.080558	-0.027738
	H355	H	-0.037459	1.081409	-0.015573
	H356	H	-0.023616	1.078248	-0.037103
	O357	O	0.581003	0.489014	0.430365
	H358	H	0.569718	0.502211	0.432097
	H359	H	0.577141	0.495072	0.419152
	O360	O	1.512442	-0.457416	1.554807
	H361	H	1.506276	-0.453472	1.554702
	H362	H	1.496846	-0.435928	1.556529
	O363	O	0.624679	0.478502	0.597044
	H364	H	0.606494	0.476055	0.605729
	H365	H	0.623191	0.473154	0.593314
	O366	O	0.384906	0.457242	0.558822
	H367	H	0.388211	0.439809	0.563859
	H368	H	0.367151	0.445820	0.572702
	O369	O	0.964155	-0.063457	-0.088580
	H370	H	0.964121	-0.065523	-0.097288
	H371	H	0.968541	-0.075191	-0.093446
	O372	O	0.407404	0.461232	0.431786
	H373	H	0.406774	0.470635	0.427109
	H374	H	0.420049	0.468477	0.428466
	O375	O	1.038793	0.059551	0.962994
	H376	H	1.040987	0.060865	0.957496
	H377	H	1.032148	0.068473	0.971619
	O378	O	-0.000426	1.035386	-0.044820
	H379	H	-0.003142	1.036174	-0.053902
	H380	H	-0.002430	1.042819	-0.044053
	O381	O	0.385670	0.575682	0.470398
	H382	H	0.388391	0.582572	0.468063
	H383	H	0.373368	0.582754	0.453869
	O384	O	1.012768	0.908117	0.010868
	H385	H	1.005828	0.912589	0.011139
	H386	H	1.007142	0.905491	0.008243
	O387	O	1.479147	0.525157	1.558441
	H388	H	1.468581	0.527415	1.550710
	H389	H	1.487791	0.510739	1.565672
	O390	O	0.944238	0.961948	-0.020042
	H391	H	0.936250	0.955920	-0.027005
	H392	H	0.938536	0.964929	-0.020591
	O393	O	0.523567	0.507785	0.511575
	H394	H	0.517737	0.498308	0.513269
	H395	H	0.524137	0.511525	0.512270
