data_Molecule from HDF5

_cell_length_a		16.136643
_cell_length_b		16.319682
_cell_length_c		16.136988
_cell_angle_alpha	89.925892
_cell_angle_beta	89.872752
_cell_angle_gamma	89.768381
_symmetry_space_group_name_H-M	'P 1'
_symmetry_Int_Tables_number		1

loop_
	_symmetry_equiv_pos_as_xyz
	x,y,z

loop_
	_atom_site_label
	_atom_site_type_symbol
	_atom_site_fract_x
	_atom_site_fract_y
	_atom_site_fract_z
	H0	H	0.406939	0.836056	0.712516
	H1	H	0.601735	0.163332	0.711815
	H2	H	0.604326	0.836294	0.282837
	H3	H	0.405512	0.163801	0.283860
	H4	H	0.719500	0.402808	0.832530
	H5	H	0.716708	0.597171	0.163440
	H6	H	0.293331	0.598172	0.832751
	H7	H	0.292640	0.402633	0.163436
	H8	H	0.841532	0.715719	0.397468
	H9	H	0.169748	0.714194	0.598280
	H10	H	0.841142	0.285051	0.599839
	H11	H	0.169601	0.283518	0.397523
	H12	H	0.840477	0.402485	0.712544
	H13	H	0.171687	0.595070	0.708798
	H14	H	0.840343	0.598844	0.285153
	H15	H	0.171340	0.402603	0.286056
	H16	H	0.404251	0.715437	0.833677
	H17	H	0.605648	0.714742	0.161615
	H18	H	0.607058	0.284159	0.833595
	H19	H	0.404862	0.284602	0.162293
	H20	H	0.720233	0.835229	0.400008
	H21	H	0.719978	0.162747	0.597401
	H22	H	0.292246	0.835547	0.594848
	H23	H	0.289995	0.162701	0.399776
	H24	H	0.906977	0.336930	0.213858
	H25	H	0.103729	0.663797	0.212114
	H26	H	0.106177	0.336871	0.783353
	H27	H	0.906679	0.663930	0.783595
	H28	H	0.219390	0.900927	0.333085
	H29	H	0.216384	0.095179	0.664285
	H30	H	0.793357	0.097860	0.332633
	H31	H	0.792834	0.902531	0.663827
	H32	H	0.342330	0.216594	0.896588
	H33	H	0.669901	0.213646	0.098529
	H34	H	0.340515	0.785118	0.097987
	H35	H	0.670059	0.784987	0.897657
	H36	H	0.339719	0.902137	0.210963
	H37	H	0.670388	0.096824	0.210777
	H38	H	0.339271	0.096764	0.786732
	H39	H	0.669821	0.900301	0.783336
	H40	H	0.903944	0.216883	0.335340
	H41	H	0.106433	0.214256	0.662729
	H42	H	0.105845	0.783881	0.333774
	H43	H	0.903403	0.784380	0.662528
	H44	H	0.221188	0.337334	0.899822
	H45	H	0.219422	0.664006	0.095609
	H46	H	0.791623	0.336922	0.097292
	H47	H	0.789961	0.663894	0.899110
	H48	H	0.407697	0.117700	0.591856
	H49	H	0.606639	0.879758	0.595876
	H50	H	0.601109	0.112700	0.415852
	H51	H	0.405824	0.880541	0.403254
	H52	H	0.593534	0.398260	0.116620
	H53	H	0.594122	0.598495	0.878756
	H54	H	0.420862	0.594463	0.114421
	H55	H	0.405337	0.401586	0.875585
	H56	H	0.118858	0.586662	0.414819
	H57	H	0.884019	0.589543	0.603878
	H58	H	0.124365	0.406299	0.590749
	H59	H	0.889069	0.410841	0.408011
	H60	H	0.124371	0.404839	0.590491
	H61	H	0.884129	0.605983	0.587609
	H62	H	0.124857	0.587094	0.396010
	H63	H	0.887007	0.407470	0.403667
	H64	H	0.408483	0.600794	0.119796
	H65	H	0.604366	0.592691	0.877448
	H66	H	0.605771	0.404634	0.118778
	H67	H	0.414730	0.417901	0.883271
	H68	H	0.607514	0.119950	0.397945
	H69	H	0.590117	0.884654	0.595395
	H70	H	0.409707	0.117739	0.594181
	H71	H	0.417590	0.882253	0.398474
	H72	H	0.909055	0.617012	0.090743
	H73	H	0.100508	0.381262	0.097955
	H74	H	0.102853	0.617059	0.909143
	H75	H	0.915241	0.382764	0.897929
	H76	H	0.097167	0.906185	0.615838
	H77	H	0.093290	0.088732	0.382903
	H78	H	0.911023	0.084082	0.614639
	H79	H	0.909713	0.906952	0.379519
	H80	H	0.620993	0.090551	0.913214
	H81	H	0.385634	0.089008	0.098439
	H82	H	0.624836	0.904399	0.094690
	H83	H	0.386825	0.900668	0.912096
	H84	H	0.623049	0.902453	0.085739
	H85	H	0.384218	0.102547	0.089312
	H86	H	0.623248	0.085410	0.900691
	H87	H	0.390025	0.913297	0.907268
	H88	H	0.922427	0.093121	0.613406
	H89	H	0.093922	0.097520	0.379462
	H90	H	0.096894	0.903521	0.616014
	H91	H	0.916318	0.908734	0.381269
	H92	H	0.102108	0.619226	0.898546
	H93	H	0.093760	0.386281	0.089047
	H94	H	0.912357	0.618154	0.093766
	H95	H	0.919087	0.387111	0.910260
	H96	H	0.410700	0.115333	0.591875
	H97	H	0.599231	0.885750	0.581341
	H98	H	0.587966	0.115563	0.399902
	H99	H	0.414784	0.886327	0.411094
	H100	H	0.595134	0.411441	0.113292
	H101	H	0.595033	0.588016	0.881418
	H102	H	0.409048	0.586555	0.115024
	H103	H	0.424386	0.400549	0.880846
	H104	H	0.127032	0.603224	0.406581
	H105	H	0.893186	0.584653	0.582015
	H106	H	0.123371	0.405640	0.589570
	H107	H	0.886681	0.404889	0.408854
	H108	H	0.912300	0.616182	0.090551
	H109	H	0.104666	0.383101	0.087351
	H110	H	0.093332	0.616028	0.903813
	H111	H	0.905697	0.382632	0.908093
	H112	H	0.099602	0.905109	0.617258
	H113	H	0.102232	0.091167	0.379251
	H114	H	0.909011	0.097759	0.619756
	H115	H	0.915456	0.901943	0.379357
	H116	H	0.625972	0.098123	0.903348
	H117	H	0.391289	0.089000	0.081994
	H118	H	0.621369	0.910854	0.088590
	H119	H	0.383772	0.904085	0.898575
	C120	C	0.382114	0.008159	0.620598
	C121	C	0.627044	0.991320	0.619932
	C122	C	0.628074	0.007944	0.375663
	C123	C	0.383287	0.991097	0.375774
	C124	C	0.627778	0.377179	0.007153
	C125	C	0.626431	0.621031	0.988362
	C126	C	0.384317	0.621847	0.006568
	C127	C	0.385121	0.378512	0.989186
	C128	C	0.014383	0.621402	0.376726
	C129	C	0.996709	0.621047	0.619350
	C130	C	0.014796	0.377726	0.619908
	C131	C	0.996561	0.378455	0.377309
	C132	C	0.883310	0.508969	0.120490
	C133	C	0.127891	0.491840	0.120103
	C134	C	0.128447	0.509078	0.875523
	C135	C	0.884374	0.492007	0.876581
	C136	C	0.126689	0.877090	0.507033
	C137	C	0.125804	0.120664	0.489807
	C138	C	0.884679	0.120770	0.507185
	C139	C	0.884658	0.877851	0.489416
	C140	C	0.514526	0.120745	0.876481
	C141	C	0.496546	0.120963	0.118884
	C142	C	0.513950	0.877955	0.119076
	C143	C	0.496098	0.877735	0.876641
	C144	C	0.385920	0.884979	0.675097
	C145	C	0.623589	0.114267	0.674912
	C146	C	0.625169	0.884915	0.320716
	C147	C	0.385260	0.114601	0.321064
	C148	C	0.682620	0.381208	0.882248
	C149	C	0.680303	0.617848	0.113548
	C150	C	0.329923	0.619059	0.882316
	C151	C	0.330193	0.382119	0.113879
	C152	C	0.890722	0.677489	0.378087
	C153	C	0.120964	0.675635	0.617416
	C154	C	0.890378	0.322831	0.619512
	C155	C	0.120630	0.322447	0.378395
	C156	C	0.890096	0.381240	0.675234
	C157	C	0.121754	0.616823	0.672650
	C158	C	0.889759	0.618957	0.322517
	C159	C	0.121318	0.381125	0.322513
	C160	C	0.385625	0.677134	0.882770
	C161	C	0.624969	0.676281	0.112702
	C162	C	0.626670	0.322540	0.882620
	C163	C	0.385631	0.323061	0.113142
	C164	C	0.682969	0.884433	0.378817
	C165	C	0.682325	0.113985	0.617893
	C166	C	0.328874	0.884475	0.616628
	C167	C	0.327677	0.114155	0.378640
	C168	C	0.886550	0.385796	0.175739
	C169	C	0.124324	0.615005	0.174550
	C170	C	0.126405	0.386020	0.820933
	C171	C	0.886167	0.615012	0.821232
	C172	C	0.181801	0.880076	0.382420
	C173	C	0.180195	0.116785	0.614376
	C174	C	0.829965	0.118479	0.382719
	C175	C	0.829468	0.881169	0.614127
	C176	C	0.391057	0.177463	0.877410
	C177	C	0.620677	0.175723	0.118071
	C178	C	0.389708	0.822977	0.117575
	C179	C	0.620565	0.822509	0.877736
	C180	C	0.389254	0.881260	0.173915
	C181	C	0.620941	0.117483	0.173715
	C182	C	0.389550	0.117918	0.823056
	C183	C	0.620652	0.880238	0.821270
	C184	C	0.885194	0.177635	0.383872
	C185	C	0.125259	0.175848	0.613826
	C186	C	0.125312	0.821895	0.382847
	C187	C	0.884656	0.822505	0.613450
	C188	C	0.183700	0.386103	0.878925
	C189	C	0.181914	0.615059	0.116586
	C190	C	0.829087	0.385707	0.117933
	C191	C	0.828036	0.614947	0.878264
	C192	C	0.402980	0.094390	0.599093
	C193	C	0.605027	0.905642	0.597547
	C194	C	0.605524	0.093829	0.397888
	C195	C	0.406027	0.905402	0.397785
	C196	C	0.604983	0.398437	0.093762
	C197	C	0.604293	0.599436	0.901593
	C198	C	0.406226	0.600225	0.093967
	C199	C	0.408022	0.400265	0.902363
	C200	C	0.101380	0.598839	0.399081
	C201	C	0.909691	0.599611	0.597542
	C202	C	0.101357	0.399205	0.596924
	C203	C	0.909949	0.401009	0.400118
	C204	C	0.904874	0.594859	0.098397
	C205	C	0.105994	0.405711	0.098266
	C206	C	0.106090	0.595375	0.897366
	C207	C	0.906819	0.406397	0.898923
	C208	C	0.104403	0.898572	0.593880
	C209	C	0.103173	0.098925	0.402991
	C210	C	0.907549	0.098280	0.593500
	C211	C	0.907350	0.899478	0.402580
	C212	C	0.601003	0.098183	0.899062
	C213	C	0.409542	0.099785	0.096514
	C214	C	0.600722	0.899601	0.096456
	C215	C	0.409201	0.899673	0.899178
	Zn216	Zn	0.504905	-0.000534	0.749082
	Zn217	Zn	0.505046	0.000047	0.246881
	Zn218	Zn	0.754660	0.500427	-0.001747
	Zn219	Zn	0.257103	0.500423	-0.002386
	Zn220	Zn	0.005233	0.749507	0.498346
	Zn221	Zn	0.005289	0.249674	0.498869
	Zn222	Zn	0.005976	0.499570	0.747059
	Zn223	Zn	0.005386	0.500081	0.249122
	Zn224	Zn	0.505484	0.749091	-0.002284
	Zn225	Zn	0.506136	0.249127	-0.002240
	Zn226	Zn	0.757156	-0.000671	0.498270
	Zn227	Zn	0.254216	-0.000119	0.497849
	N228	N	0.418130	0.962986	0.677654
	N229	N	0.589986	0.036918	0.676151
	N230	N	0.591741	0.962733	0.318635
	N231	N	0.419340	0.037116	0.319286
	N232	N	0.683616	0.414426	0.960532
	N233	N	0.681444	0.584070	0.035315
	N234	N	0.329322	0.585014	0.960327
	N235	N	0.329593	0.415794	0.035682
	N236	N	0.969139	0.678945	0.411189
	N237	N	0.042196	0.678536	0.585118
	N238	N	0.968911	0.320391	0.585860
	N239	N	0.041990	0.320484	0.411696
	N240	N	0.968236	0.414379	0.675760
	N241	N	0.043401	0.583633	0.674007
	N242	N	0.967849	0.584700	0.321640
	N243	N	0.043222	0.415167	0.321647
	N244	N	0.418437	0.679105	0.961432
	N245	N	0.592143	0.678356	0.034092
	N246	N	0.593255	0.319864	0.961138
	N247	N	0.419540	0.320937	0.034774
	N248	N	0.684853	0.962040	0.412149
	N249	N	0.684600	0.036549	0.584493
	N250	N	0.326441	0.962088	0.583593
	N251	N	0.326336	0.036500	0.411753
	N252	N	0.919676	0.463392	0.177170
	N253	N	0.091389	0.537280	0.176869
	N254	N	0.092838	0.463612	0.818779
	N255	N	0.920546	0.537580	0.819944
	N256	N	0.183036	0.913736	0.460555
	N257	N	0.180607	0.083162	0.536181
	N258	N	0.829510	0.083810	0.460386
	N259	N	0.829325	0.914896	0.535938
	N260	N	0.469683	0.179110	0.910435
	N261	N	0.542313	0.178081	0.084665
	N262	N	0.468222	0.820802	0.084304
	N263	N	0.542209	0.820731	0.911344
	N264	N	0.467439	0.914764	0.175037
	N265	N	0.542697	0.084153	0.174292
	N266	N	0.467342	0.083487	0.822237
	N267	N	0.542124	0.913648	0.820197
	N268	N	0.918279	0.179438	0.462293
	N269	N	0.091967	0.178302	0.535344
	N270	N	0.091854	0.820111	0.461238
	N271	N	0.918297	0.820380	0.534993
	N272	N	0.185145	0.463766	0.911909
	N273	N	0.184246	0.537417	0.083524
	N274	N	0.826696	0.463191	0.084390
	N275	N	0.826732	0.537549	0.912032
	O276	O	1.027976	1.020389	0.025368
	H277	H	1.028072	1.023267	0.025440
	H278	H	1.029056	1.019701	0.022186
	O279	O	-0.040709	-0.087706	1.101122
	H280	H	-0.045469	-0.088134	1.106819
	H281	H	-0.051675	-0.089948	1.115121
	O282	O	-0.030540	0.008295	-0.043647
	H283	H	-0.026672	-0.001103	-0.041890
	H284	H	-0.032133	0.006473	-0.032336
	O285	O	0.522768	0.484782	0.473146
	H286	H	0.520962	0.494567	0.479775
	H287	H	0.523117	0.473630	0.466625
	O288	O	-0.022260	-0.078606	0.021943
	H289	H	-0.025969	-0.080787	0.021990
	H290	H	-0.021614	-0.084131	0.012768
	O291	O	0.134012	0.994463	-0.017122
	H292	H	0.135736	0.984181	-0.031434
	H293	H	0.128996	0.994666	-0.021770
	O294	O	0.051093	1.098080	0.100733
	H295	H	0.051330	1.108353	0.086756
	H296	H	0.058354	1.111948	0.108307
	O297	O	0.527508	0.500081	0.431659
	H298	H	0.529105	0.500629	0.434266
	H299	H	0.516053	0.498577	0.434928
	O300	O	0.515776	0.547145	0.480192
	H301	H	0.519734	0.541249	0.483799
	H302	H	0.522045	0.544315	0.482268
	O303	O	0.998947	0.007900	0.928906
	H304	H	0.998217	0.013313	0.927163
	H305	H	1.004173	0.008260	0.926514
	O306	O	-0.005473	0.996750	1.047759
	H307	H	0.000914	0.992069	1.053915
	H308	H	-0.009276	0.992713	1.054805
	O309	O	-0.092900	1.127690	1.015425
	H310	H	-0.097972	1.119598	1.020552
	H311	H	-0.084794	1.142234	1.005827
	O312	O	0.062533	-0.033435	1.020377
	H313	H	0.061258	-0.031382	1.024573
	H314	H	0.063629	-0.027598	1.024446
	O315	O	-0.000778	0.011951	-0.003997
	H316	H	-0.008086	0.010962	-0.001810
	H317	H	-0.001400	0.020719	-0.009547
	O318	O	-0.012517	0.045474	0.971845
	H319	H	-0.003669	0.044640	0.974950
	H320	H	-0.010542	0.043188	0.959726
	O321	O	0.487102	0.553165	0.487041
	H322	H	0.478088	0.551054	0.481151
	H323	H	0.484061	0.563240	0.472256
	O324	O	1.008214	0.070152	0.903568
	H325	H	1.013481	0.065721	0.897417
	H326	H	1.000204	0.083792	0.918137
	O327	O	0.915539	0.937190	0.986356
	H328	H	0.909422	0.945612	0.987717
	H329	H	0.919633	0.935000	0.985691
	O330	O	0.543223	0.523233	0.525129
	H331	H	0.552567	0.525615	0.520644
	H332	H	0.539712	0.527865	0.525952
	O333	O	0.964584	0.003405	0.003059
	H334	H	0.968040	0.000636	-0.004177
	H335	H	0.951688	0.002013	0.005018
	O336	O	0.536198	0.461667	0.544910
	H337	H	0.529984	0.473229	0.541803
	H338	H	0.542113	0.462407	0.552465
	O339	O	0.508219	0.517375	0.435145
	H340	H	0.514347	0.516025	0.427087
	H341	H	0.504368	0.509728	0.434481
	O342	O	0.082703	0.961012	0.976655
	H343	H	0.095629	0.952179	0.975967
	H344	H	0.068922	0.962517	0.982236
	O345	O	0.507490	0.540458	0.470864
	H346	H	0.508043	0.543162	0.473115
	H347	H	0.503952	0.537159	0.470676
