data_Molecule from HDF5

_cell_length_a		16.201322
_cell_length_b		16.227899
_cell_length_c		16.295825
_cell_angle_alpha	90.006812
_cell_angle_beta	89.966820
_cell_angle_gamma	90.019775
_symmetry_space_group_name_H-M	'P 1'
_symmetry_Int_Tables_number		1

loop_
	_symmetry_equiv_pos_as_xyz
	x,y,z

loop_
	_atom_site_label
	_atom_site_type_symbol
	_atom_site_fract_x
	_atom_site_fract_y
	_atom_site_fract_z
	H0	H	0.401888	0.835910	0.713521
	H1	H	0.599954	0.163841	0.714712
	H2	H	0.598808	0.836004	0.285223
	H3	H	0.401700	0.163381	0.285694
	H4	H	0.714061	0.401815	0.836501
	H5	H	0.713245	0.596713	0.163770
	H6	H	0.287494	0.596458	0.836511
	H7	H	0.284997	0.401111	0.163400
	H8	H	0.835893	0.714416	0.402305
	H9	H	0.165113	0.712270	0.595811
	H10	H	0.836030	0.285268	0.598767
	H11	H	0.165193	0.288404	0.402647
	H12	H	0.835506	0.401564	0.713970
	H13	H	0.164138	0.599359	0.713930
	H14	H	0.835775	0.600334	0.285565
	H15	H	0.163453	0.402436	0.286116
	H16	H	0.401942	0.713263	0.836044
	H17	H	0.598198	0.714726	0.163597
	H18	H	0.599509	0.285034	0.836612
	H19	H	0.401770	0.285870	0.163060
	H20	H	0.712520	0.834868	0.402599
	H21	H	0.712794	0.164702	0.595821
	H22	H	0.287366	0.835867	0.597156
	H23	H	0.287391	0.164469	0.402986
	H24	H	0.899639	0.336188	0.215153
	H25	H	0.097266	0.664149	0.213563
	H26	H	0.097803	0.335957	0.786574
	H27	H	0.900308	0.663606	0.785707
	H28	H	0.214947	0.902093	0.336268
	H29	H	0.214122	0.097646	0.663938
	H30	H	0.786166	0.098453	0.335979
	H31	H	0.786817	0.902827	0.663810
	H32	H	0.335212	0.212740	0.903317
	H33	H	0.664365	0.213745	0.098047
	H34	H	0.334703	0.786978	0.097330
	H35	H	0.664496	0.786967	0.903521
	H36	H	0.335600	0.902094	0.213827
	H37	H	0.663935	0.098734	0.214254
	H38	H	0.336358	0.099335	0.785729
	H39	H	0.664783	0.901498	0.786737
	H40	H	0.902742	0.214764	0.336188
	H41	H	0.098142	0.213845	0.664125
	H42	H	0.098499	0.786545	0.335973
	H43	H	0.900698	0.784652	0.663058
	H44	H	0.212361	0.334740	0.903841
	H45	H	0.213025	0.664595	0.097833
	H46	H	0.786535	0.335038	0.096891
	H47	H	0.786357	0.663861	0.903148
	H48	H	0.403136	0.118146	0.593866
	H49	H	0.590378	0.884572	0.591238
	H50	H	0.595459	0.118026	0.405140
	H51	H	0.407263	0.882043	0.406474
	H52	H	0.599321	0.408500	0.118169
	H53	H	0.588644	0.598562	0.882739
	H54	H	0.406288	0.591104	0.116118
	H55	H	0.404480	0.398468	0.879712
	H56	H	0.115715	0.585854	0.406327
	H57	H	0.884249	0.595318	0.584873
	H58	H	0.118819	0.399417	0.589542
	H59	H	0.881790	0.410042	0.403936
	H60	H	0.113931	0.414792	0.588979
	H61	H	0.884311	0.584855	0.596020
	H62	H	0.120735	0.596694	0.397911
	H63	H	0.880405	0.403004	0.406725
	H64	H	0.408470	0.594808	0.117122
	H65	H	0.598787	0.594461	0.880731
	H66	H	0.588013	0.410240	0.114796
	H67	H	0.400659	0.411853	0.882655
	H68	H	0.590992	0.116976	0.404166
	H69	H	0.597714	0.881593	0.592405
	H70	H	0.411175	0.117955	0.597395
	H71	H	0.406704	0.881730	0.406071
	H72	H	0.899027	0.616800	0.084343
	H73	H	0.092263	0.383282	0.092407
	H74	H	0.092790	0.618145	0.901534
	H75	H	0.914157	0.385117	0.909061
	H76	H	0.083298	0.907012	0.614318
	H77	H	0.089994	0.094848	0.384114
	H78	H	0.911062	0.088699	0.613605
	H79	H	0.906466	0.909513	0.384182
	H80	H	0.616615	0.091498	0.907886
	H81	H	0.382545	0.091057	0.095751
	H82	H	0.615994	0.909597	0.089387
	H83	H	0.383148	0.901199	0.916842
	H84	H	0.618247	0.909644	0.097896
	H85	H	0.381877	0.095661	0.092658
	H86	H	0.618008	0.091613	0.905312
	H87	H	0.385532	0.918738	0.904990
	H88	H	0.909411	0.099213	0.618230
	H89	H	0.096945	0.099377	0.381392
	H90	H	0.097679	0.897057	0.620434
	H91	H	0.909498	0.904675	0.382697
	H92	H	0.089901	0.616102	0.908330
	H93	H	0.093635	0.382262	0.094166
	H94	H	0.902196	0.621486	0.104758
	H95	H	0.901456	0.382044	0.910436
	H96	H	0.409014	0.115704	0.589126
	H97	H	0.592658	0.881476	0.598302
	H98	H	0.592596	0.116462	0.408328
	H99	H	0.407147	0.882428	0.406153
	H100	H	0.591586	0.399533	0.118642
	H101	H	0.591190	0.588374	0.885583
	H102	H	0.404295	0.594217	0.117678
	H103	H	0.413748	0.407626	0.885489
	H104	H	0.117716	0.599140	0.412004
	H105	H	0.879388	0.598820	0.598605
	H106	H	0.119816	0.408745	0.602472
	H107	H	0.883529	0.408521	0.410814
	H108	H	0.917923	0.613769	0.092515
	H109	H	0.091358	0.382901	0.094889
	H110	H	0.097157	0.618146	0.908752
	H111	H	0.907213	0.379797	0.898842
	H112	H	0.099507	0.915126	0.615487
	H113	H	0.097483	0.090428	0.383178
	H114	H	0.900690	0.091700	0.617399
	H115	H	0.903759	0.904858	0.381390
	H116	H	0.618126	0.094170	0.906906
	H117	H	0.383454	0.091587	0.090308
	H118	H	0.619166	0.901888	0.093278
	H119	H	0.377652	0.900420	0.896479
	C120	C	0.379140	0.008885	0.621521
	C121	C	0.622108	0.991541	0.621798
	C122	C	0.621599	0.008445	0.378029
	C123	C	0.378918	0.990882	0.378843
	C124	C	0.621364	0.378045	0.008569
	C125	C	0.621288	0.621727	0.991494
	C126	C	0.377732	0.621670	0.008745
	C127	C	0.377878	0.377918	0.991158
	C128	C	0.008919	0.622223	0.377995
	C129	C	0.991368	0.621314	0.621104
	C130	C	0.008761	0.378900	0.622009
	C131	C	0.991114	0.379202	0.379227
	C132	C	0.877748	0.508582	0.121914
	C133	C	0.120835	0.491271	0.121956
	C134	C	0.121433	0.508522	0.878153
	C135	C	0.878916	0.491033	0.878463
	C136	C	0.121799	0.878245	0.508390
	C137	C	0.122361	0.122265	0.491706
	C138	C	0.878730	0.121759	0.508070
	C139	C	0.878489	0.878376	0.491262
	C140	C	0.508782	0.121041	0.878695
	C141	C	0.491315	0.121678	0.121716
	C142	C	0.508612	0.878595	0.121470
	C143	C	0.491166	0.878604	0.878442
	C144	C	0.381475	0.885016	0.676162
	C145	C	0.619884	0.114975	0.676522
	C146	C	0.619369	0.884865	0.323045
	C147	C	0.381562	0.114726	0.323844
	C148	C	0.676270	0.381136	0.885102
	C149	C	0.675736	0.618028	0.114913
	C150	C	0.323821	0.618222	0.885511
	C151	C	0.323135	0.380701	0.114533
	C152	C	0.884784	0.676660	0.381583
	C153	C	0.115622	0.675946	0.617887
	C154	C	0.885108	0.323447	0.619440
	C155	C	0.115614	0.325454	0.382197
	C156	C	0.884586	0.381303	0.676395
	C157	C	0.115179	0.619198	0.675960
	C158	C	0.884704	0.619660	0.323821
	C159	C	0.114918	0.382061	0.324236
	C160	C	0.381288	0.675850	0.885360
	C161	C	0.618460	0.676348	0.114980
	C162	C	0.619355	0.323178	0.885339
	C163	C	0.381029	0.323554	0.114598
	C164	C	0.675823	0.884377	0.381219
	C165	C	0.676412	0.115239	0.617815
	C166	C	0.324492	0.885002	0.618354
	C167	C	0.325058	0.115352	0.382062
	C168	C	0.879699	0.384970	0.177153
	C169	C	0.117651	0.615444	0.175759
	C170	C	0.118553	0.384757	0.824031
	C171	C	0.880760	0.614835	0.824139
	C172	C	0.176417	0.881916	0.385001
	C173	C	0.176678	0.118599	0.615059
	C174	C	0.823921	0.119316	0.384841
	C175	C	0.824145	0.881810	0.614789
	C176	C	0.384702	0.175555	0.881956
	C177	C	0.615033	0.176322	0.118965
	C178	C	0.383888	0.824870	0.117839
	C179	C	0.615381	0.824300	0.882111
	C180	C	0.384504	0.881423	0.176036
	C181	C	0.615006	0.118954	0.176438
	C182	C	0.385088	0.119312	0.823461
	C183	C	0.615343	0.881063	0.824029
	C184	C	0.881872	0.176836	0.384927
	C185	C	0.118850	0.176205	0.615203
	C186	C	0.119132	0.823797	0.384959
	C187	C	0.880776	0.823276	0.614444
	C188	C	0.175342	0.384348	0.882436
	C189	C	0.175308	0.615241	0.118491
	C190	C	0.823374	0.384448	0.118604
	C191	C	0.823978	0.614717	0.882104
	C192	C	0.401310	0.095065	0.599882
	C193	C	0.600133	0.904703	0.600399
	C194	C	0.599611	0.094908	0.399572
	C195	C	0.400584	0.904557	0.400104
	C196	C	0.599485	0.399683	0.094801
	C197	C	0.599497	0.600029	0.905248
	C198	C	0.399757	0.599903	0.094996
	C199	C	0.399779	0.399523	0.904870
	C200	C	0.095538	0.600304	0.399085
	C201	C	0.904890	0.599397	0.599536
	C202	C	0.095125	0.401038	0.600269
	C203	C	0.904390	0.400629	0.400793
	C204	C	0.899679	0.595092	0.100265
	C205	C	0.098801	0.405155	0.100289
	C206	C	0.099828	0.595145	0.899792
	C207	C	0.901021	0.404547	0.899792
	C208	C	0.099759	0.899890	0.594477
	C209	C	0.101085	0.101079	0.405012
	C210	C	0.900428	0.099648	0.594153
	C211	C	0.900258	0.899932	0.405102
	C212	C	0.595245	0.098959	0.900280
	C213	C	0.404896	0.099355	0.099503
	C214	C	0.595261	0.900440	0.099880
	C215	C	0.404451	0.900387	0.899859
	Zn216	Zn	0.500276	0.000007	0.750237
	Zn217	Zn	0.499987	-0.000242	0.249967
	Zn218	Zn	0.750250	0.499207	-0.000461
	Zn219	Zn	0.249302	0.499923	0.000266
	Zn220	Zn	0.000235	0.749514	0.499754
	Zn221	Zn	0.000632	0.250945	0.500005
	Zn222	Zn	-0.000127	0.500312	0.749683
	Zn223	Zn	-0.001022	0.500140	0.250472
	Zn224	Zn	0.499422	0.750363	0.000203
	Zn225	Zn	0.499938	0.249432	-0.000039
	Zn226	Zn	0.750093	-0.000253	0.499336
	Zn227	Zn	0.250747	0.000100	0.499956
	N228	N	0.414774	0.962938	0.678226
	N229	N	0.586742	0.036937	0.678894
	N230	N	0.586350	0.962895	0.320941
	N231	N	0.414318	0.036420	0.321719
	N232	N	0.677558	0.414579	0.962702
	N233	N	0.677723	0.584854	0.036995
	N234	N	0.322147	0.584783	0.962975
	N235	N	0.321333	0.413870	0.036853
	N236	N	0.962978	0.678266	0.414507
	N237	N	0.037824	0.677195	0.584244
	N238	N	0.963067	0.322072	0.586107
	N239	N	0.037554	0.323481	0.415569
	N240	N	0.962625	0.414982	0.678134
	N241	N	0.036920	0.586047	0.678154
	N242	N	0.962817	0.586424	0.321428
	N243	N	0.036741	0.414929	0.322249
	N244	N	0.414012	0.678285	0.963384
	N245	N	0.585574	0.678730	0.037207
	N246	N	0.586019	0.321013	0.963102
	N247	N	0.414364	0.321482	0.036867
	N248	N	0.677328	0.962255	0.414912
	N249	N	0.677660	0.037362	0.584412
	N250	N	0.322876	0.962867	0.584980
	N251	N	0.323304	0.037536	0.415541
	N252	N	0.912979	0.463041	0.179241
	N253	N	0.084659	0.537168	0.178278
	N254	N	0.085661	0.463007	0.821538
	N255	N	0.914003	0.536781	0.821573
	N256	N	0.178359	0.914967	0.462722
	N257	N	0.178765	0.085642	0.537038
	N258	N	0.821976	0.085694	0.462366
	N259	N	0.822510	0.915183	0.537264
	N260	N	0.462541	0.176662	0.915663
	N261	N	0.537117	0.177855	0.085513
	N262	N	0.462033	0.822922	0.084810
	N263	N	0.537173	0.822715	0.915185
	N264	N	0.462972	0.914105	0.178394
	N265	N	0.536865	0.085553	0.178186
	N266	N	0.463366	0.086219	0.821224
	N267	N	0.537060	0.914083	0.821558
	N268	N	0.915298	0.178461	0.462668
	N269	N	0.085904	0.178440	0.537509
	N270	N	0.085445	0.822088	0.462591
	N271	N	0.913979	0.820980	0.536618
	N272	N	0.177162	0.462312	0.915529
	N273	N	0.177326	0.537187	0.085561
	N274	N	0.821978	0.462243	0.084994
	N275	N	0.822909	0.536821	0.915343
