data_Molecule from HDF5

_cell_length_a		16.184729
_cell_length_b		16.275618
_cell_length_c		16.153366
_cell_angle_alpha	89.847447
_cell_angle_beta	90.105938
_cell_angle_gamma	89.951806
_symmetry_space_group_name_H-M	'P 1'
_symmetry_Int_Tables_number		1

loop_
	_symmetry_equiv_pos_as_xyz
	x,y,z

loop_
	_atom_site_label
	_atom_site_type_symbol
	_atom_site_fract_x
	_atom_site_fract_y
	_atom_site_fract_z
	H0	H	0.409083	0.835797	0.711759
	H1	H	0.605285	0.163293	0.713426
	H2	H	0.606575	0.835731	0.284735
	H3	H	0.408219	0.164091	0.283568
	H4	H	0.721091	0.400770	0.833366
	H5	H	0.720870	0.596800	0.163029
	H6	H	0.292819	0.599014	0.833035
	H7	H	0.293413	0.399432	0.162779
	H8	H	0.842603	0.716871	0.397125
	H9	H	0.171336	0.715021	0.597415
	H10	H	0.843682	0.284833	0.599223
	H11	H	0.170868	0.285878	0.399486
	H12	H	0.842524	0.402798	0.712083
	H13	H	0.171698	0.598427	0.711646
	H14	H	0.842352	0.600419	0.283236
	H15	H	0.172271	0.403858	0.286712
	H16	H	0.407405	0.714073	0.833458
	H17	H	0.609964	0.714230	0.161739
	H18	H	0.608430	0.283875	0.833831
	H19	H	0.408088	0.284938	0.162016
	H20	H	0.722844	0.837062	0.400069
	H21	H	0.719400	0.164606	0.596249
	H22	H	0.292277	0.836650	0.597481
	H23	H	0.292639	0.163834	0.398415
	H24	H	0.908603	0.336527	0.213911
	H25	H	0.106283	0.664799	0.212872
	H26	H	0.106703	0.337206	0.784267
	H27	H	0.907916	0.664236	0.784263
	H28	H	0.219861	0.902742	0.333075
	H29	H	0.220334	0.097849	0.663432
	H30	H	0.792536	0.100575	0.334239
	H31	H	0.794683	0.903446	0.663851
	H32	H	0.343413	0.215788	0.896468
	H33	H	0.671045	0.213883	0.098345
	H34	H	0.343293	0.783372	0.097814
	H35	H	0.672074	0.785286	0.899339
	H36	H	0.341560	0.900841	0.211087
	H37	H	0.671853	0.096082	0.210983
	H38	H	0.342030	0.096336	0.785390
	H39	H	0.671693	0.901142	0.784916
	H40	H	0.906209	0.215882	0.334179
	H41	H	0.106504	0.213837	0.662737
	H42	H	0.106243	0.786686	0.333855
	H43	H	0.907448	0.785772	0.662845
	H44	H	0.220226	0.336523	0.901349
	H45	H	0.223782	0.663682	0.097882
	H46	H	0.792375	0.336347	0.098934
	H47	H	0.790327	0.662804	0.897786
	H48	H	0.419291	0.118235	0.600506
	H49	H	0.597819	0.882854	0.594250
	H50	H	0.595304	0.117125	0.401083
	H51	H	0.422680	0.888907	0.415950
	H52	H	0.602028	0.397934	0.118865
	H53	H	0.601504	0.596081	0.878584
	H54	H	0.421371	0.594845	0.114580
	H55	H	0.416124	0.405682	0.879953
	H56	H	0.121390	0.592343	0.411394
	H57	H	0.888572	0.595483	0.590645
	H58	H	0.128142	0.395848	0.589822
	H59	H	0.893054	0.412320	0.411879
	H60	H	0.120262	0.413319	0.582711
	H61	H	0.889357	0.593128	0.590230
	H62	H	0.124133	0.591061	0.402420
	H63	H	0.888040	0.410820	0.399422
	H64	H	0.410250	0.594013	0.119135
	H65	H	0.601649	0.588741	0.880360
	H66	H	0.604868	0.411738	0.115550
	H67	H	0.412326	0.406456	0.879209
	H68	H	0.598588	0.115124	0.410144
	H69	H	0.601297	0.884150	0.588297
	H70	H	0.418071	0.113799	0.581972
	H71	H	0.398654	0.880712	0.409847
	H72	H	0.911102	0.619248	0.097373
	H73	H	0.087790	0.390158	0.086446
	H74	H	0.109608	0.622176	0.900839
	H75	H	0.921228	0.384557	0.905170
	H76	H	0.096333	0.912672	0.613582
	H77	H	0.103818	0.088401	0.380184
	H78	H	0.922197	0.089226	0.613353
	H79	H	0.910778	0.910054	0.380284
	H80	H	0.625964	0.091589	0.901387
	H81	H	0.389646	0.094110	0.087011
	H82	H	0.624352	0.910814	0.095997
	H83	H	0.391355	0.917467	0.900345
	H84	H	0.626877	0.900259	0.092083
	H85	H	0.388913	0.089837	0.091334
	H86	H	0.625429	0.097438	0.908428
	H87	H	0.384509	0.894844	0.897268
	H88	H	0.914883	0.102817	0.619618
	H89	H	0.092686	0.094569	0.382124
	H90	H	0.096242	0.901958	0.616642
	H91	H	0.917908	0.911560	0.381765
	H92	H	0.091383	0.617391	0.899287
	H93	H	0.114250	0.381538	0.084170
	H94	H	0.922887	0.613798	0.089535
	H95	H	0.911725	0.384080	0.911564
	H96	H	0.402611	0.120488	0.592039
	H97	H	0.604524	0.881312	0.593411
	H98	H	0.604812	0.118828	0.403347
	H99	H	0.417888	0.880015	0.391569
	H100	H	0.591346	0.407505	0.112670
	H101	H	0.594860	0.592469	0.881416
	H102	H	0.415271	0.585168	0.113456
	H103	H	0.413928	0.408382	0.880638
	H104	H	0.124996	0.599135	0.406242
	H105	H	0.888986	0.594437	0.592322
	H106	H	0.126536	0.411979	0.601307
	H107	H	0.887312	0.400297	0.407963
	H108	H	0.909287	0.615267	0.082897
	H109	H	0.100758	0.378888	0.107834
	H110	H	0.099854	0.614090	0.916034
	H111	H	0.911377	0.380918	0.900591
	H112	H	0.105732	0.907393	0.617800
	H113	H	0.102793	0.100420	0.378140
	H114	H	0.907167	0.088394	0.617691
	H115	H	0.915466	0.903415	0.379728
	H116	H	0.622792	0.088986	0.910238
	H117	H	0.387937	0.095715	0.092647
	H118	H	0.621914	0.908046	0.085175
	H119	H	0.392054	0.902088	0.918553
	C120	C	0.385118	0.008783	0.619649
	C121	C	0.629182	0.991333	0.620505
	C122	C	0.629218	0.008759	0.376353
	C123	C	0.384787	0.991492	0.376477
	C124	C	0.628788	0.377535	0.006629
	C125	C	0.628702	0.620567	0.989202
	C126	C	0.386470	0.620515	0.006613
	C127	C	0.385644	0.378126	0.989054
	C128	C	0.015106	0.623007	0.376755
	C129	C	0.997942	0.622824	0.619767
	C130	C	0.015936	0.378684	0.620106
	C131	C	0.998264	0.379445	0.377655
	C132	C	0.885249	0.508353	0.119950
	C133	C	0.129860	0.491917	0.120952
	C134	C	0.128887	0.509338	0.877006
	C135	C	0.885383	0.491220	0.876676
	C136	C	0.128161	0.878991	0.507109
	C137	C	0.128370	0.122294	0.489045
	C138	C	0.885564	0.122587	0.507771
	C139	C	0.886168	0.880116	0.489768
	C140	C	0.516021	0.121214	0.876973
	C141	C	0.498054	0.121024	0.119274
	C142	C	0.515582	0.877083	0.120154
	C143	C	0.498323	0.876967	0.877041
	C144	C	0.388450	0.885045	0.674185
	C145	C	0.626161	0.114459	0.675691
	C146	C	0.626486	0.884927	0.322490
	C147	C	0.387721	0.114973	0.321094
	C148	C	0.683757	0.380254	0.882755
	C149	C	0.683860	0.617592	0.113420
	C150	C	0.330667	0.619000	0.882506
	C151	C	0.331204	0.380254	0.113382
	C152	C	0.891482	0.678729	0.377632
	C153	C	0.122133	0.677472	0.617583
	C154	C	0.892587	0.323255	0.618891
	C155	C	0.121983	0.324125	0.379572
	C156	C	0.892029	0.381887	0.675089
	C157	C	0.122476	0.619489	0.674321
	C158	C	0.891430	0.620863	0.321020
	C159	C	0.122678	0.382659	0.323451
	C160	C	0.387630	0.676225	0.882697
	C161	C	0.628449	0.675775	0.113050
	C162	C	0.627500	0.322092	0.882954
	C163	C	0.387589	0.322688	0.112958
	C164	C	0.684487	0.885639	0.379800
	C165	C	0.682698	0.115171	0.617289
	C166	C	0.330097	0.885549	0.617521
	C167	C	0.330171	0.114986	0.378372
	C168	C	0.887836	0.385252	0.176017
	C169	C	0.127143	0.615584	0.175443
	C170	C	0.126571	0.385860	0.822061
	C171	C	0.887291	0.614944	0.821394
	C172	C	0.182697	0.882209	0.382521
	C173	C	0.183065	0.118674	0.613940
	C174	C	0.829983	0.120869	0.383557
	C175	C	0.831571	0.882654	0.614378
	C176	C	0.392181	0.176797	0.877636
	C177	C	0.621936	0.175857	0.117762
	C178	C	0.392334	0.821177	0.118245
	C179	C	0.622437	0.822316	0.879004
	C180	C	0.391297	0.880002	0.174203
	C181	C	0.622390	0.117269	0.173858
	C182	C	0.391665	0.117844	0.822125
	C183	C	0.622607	0.880246	0.822533
	C184	C	0.886772	0.178163	0.383553
	C185	C	0.126707	0.176684	0.613442
	C186	C	0.126175	0.824437	0.382807
	C187	C	0.887472	0.824140	0.613928
	C188	C	0.183222	0.385602	0.880074
	C189	C	0.185541	0.615023	0.118379
	C190	C	0.830126	0.385239	0.118753
	C191	C	0.829010	0.614215	0.878047
	C192	C	0.406981	0.095225	0.598016
	C193	C	0.607745	0.904924	0.598322
	C194	C	0.606387	0.094826	0.398203
	C195	C	0.406779	0.905405	0.398950
	C196	C	0.606224	0.399255	0.093384
	C197	C	0.606065	0.598801	0.902481
	C198	C	0.409060	0.598072	0.093219
	C199	C	0.407721	0.400261	0.902264
	C200	C	0.101235	0.600628	0.399782
	C201	C	0.911269	0.600863	0.597594
	C202	C	0.102702	0.400851	0.597857
	C203	C	0.911830	0.401497	0.399835
	C204	C	0.907795	0.593992	0.096744
	C205	C	0.107619	0.405764	0.099248
	C206	C	0.106813	0.595580	0.898962
	C207	C	0.908030	0.405534	0.899046
	C208	C	0.106015	0.900895	0.593601
	C209	C	0.106298	0.100840	0.402406
	C210	C	0.908022	0.100178	0.594326
	C211	C	0.908161	0.901941	0.402982
	C212	C	0.602379	0.099114	0.899930
	C213	C	0.411307	0.099537	0.096964
	C214	C	0.601934	0.899701	0.097803
	C215	C	0.411792	0.898390	0.898864
	Zn216	Zn	0.507171	-0.000798	0.748882
	Zn217	Zn	0.506556	-0.000567	0.248015
	Zn218	Zn	0.756332	0.499309	-0.001816
	Zn219	Zn	0.257891	0.499895	-0.001672
	Zn220	Zn	0.006624	0.750767	0.498541
	Zn221	Zn	0.006804	0.250459	0.498745
	Zn222	Zn	0.007460	0.500740	0.747862
	Zn223	Zn	0.006803	0.500839	0.249017
	Zn224	Zn	0.507817	0.748433	-0.001894
	Zn225	Zn	0.506886	0.249978	-0.002228
	Zn226	Zn	0.757778	0.001136	0.498828
	Zn227	Zn	0.256340	0.000686	0.498121
	N228	N	0.422128	0.962722	0.675605
	N229	N	0.593763	0.036320	0.678019
	N230	N	0.592661	0.962515	0.320394
	N231	N	0.420973	0.037170	0.319939
	N232	N	0.684376	0.414064	0.960589
	N233	N	0.684100	0.583824	0.035471
	N234	N	0.329911	0.584990	0.960654
	N235	N	0.329724	0.413937	0.035104
	N236	N	0.969475	0.680120	0.411594
	N237	N	0.043725	0.679318	0.584340
	N238	N	0.970774	0.321191	0.585639
	N239	N	0.043727	0.322156	0.412556
	N240	N	0.969975	0.415686	0.675947
	N241	N	0.044321	0.586127	0.675658
	N242	N	0.969237	0.586975	0.320304
	N243	N	0.044634	0.416509	0.322100
	N244	N	0.421847	0.677150	0.960796
	N245	N	0.594641	0.677616	0.034965
	N246	N	0.594041	0.320165	0.961258
	N247	N	0.420860	0.321270	0.034680
	N248	N	0.686234	0.963627	0.412626
	N249	N	0.684754	0.037451	0.583854
	N250	N	0.328082	0.963421	0.584214
	N251	N	0.328037	0.037212	0.411909
	N252	N	0.921399	0.462901	0.176928
	N253	N	0.093138	0.538030	0.177183
	N254	N	0.093552	0.463869	0.819790
	N255	N	0.921825	0.537451	0.820173
	N256	N	0.184228	0.915268	0.460792
	N257	N	0.184167	0.085441	0.535713
	N258	N	0.828935	0.087172	0.461579
	N259	N	0.830756	0.916781	0.536364
	N260	N	0.470338	0.179109	0.911127
	N261	N	0.543616	0.178241	0.084334
	N262	N	0.470553	0.819349	0.085146
	N263	N	0.544148	0.820259	0.912295
	N264	N	0.469066	0.914073	0.175730
	N265	N	0.544285	0.083914	0.174936
	N266	N	0.469606	0.083775	0.821715
	N267	N	0.544699	0.913880	0.821331
	N268	N	0.920719	0.179257	0.461808
	N269	N	0.093539	0.179113	0.534973
	N270	N	0.093098	0.822073	0.461149
	N271	N	0.920684	0.822359	0.535528
	N272	N	0.184571	0.463241	0.913539
	N273	N	0.187427	0.537129	0.085650
	N274	N	0.828621	0.462698	0.084597
	N275	N	0.827633	0.536552	0.911686
	O276	O	0.982555	1.009580	0.061604
	H277	H	0.988408	1.009069	0.057285
	H278	H	0.984942	1.013039	0.061480
	O279	O	-0.029743	-0.064542	-0.039940
	H280	H	-0.028102	-0.067271	-0.044657
	H281	H	-0.027852	-0.067337	-0.035194
	O282	O	-0.000650	0.026366	1.020806
	H283	H	-0.003177	0.036563	1.028099
	H284	H	-0.007568	0.025458	1.019547
	O285	O	0.436977	0.465749	0.420892
	H286	H	0.440958	0.466149	0.423095
	H287	H	0.442659	0.472522	0.418408
	O288	O	0.455843	0.506535	0.417556
	H289	H	0.448982	0.508242	0.409441
	H290	H	0.461030	0.506522	0.425625
	O291	O	0.478884	0.538626	0.428626
	H292	H	0.467638	0.541854	0.429563
	H293	H	0.484385	0.532549	0.435168
	O294	O	-0.561412	-0.517873	0.413733
	H295	H	-0.569324	-0.517931	0.407937
	H296	H	-0.565625	-0.509782	0.407377
	O297	O	0.515333	0.489924	0.415138
	H298	H	0.507579	0.487079	0.416885
	H299	H	0.499058	0.494885	0.408665
	O300	O	-0.027657	1.038862	1.043636
	H301	H	-0.033558	1.034508	1.047047
	H302	H	-0.035349	1.045643	1.043056
	O303	O	0.474873	0.489518	0.510807
	H304	H	0.471549	0.494518	0.495741
	H305	H	0.482438	0.489063	0.507174
	O306	O	-0.061829	-0.026597	1.020905
	H307	H	-0.064043	-0.023606	1.022221
	H308	H	-0.071225	-0.023123	1.017395
	O309	O	0.995410	1.023610	0.967890
	H310	H	0.986971	1.017566	0.963031
	H311	H	1.003543	1.017186	0.968633
	O312	O	0.444845	0.586913	0.459918
	H313	H	0.456047	0.589242	0.464673
	H314	H	0.451611	0.583072	0.465018
	O315	O	0.454179	0.512696	0.495484
	H316	H	0.446410	0.512866	0.503970
	H317	H	0.451721	0.512567	0.491044
	O318	O	0.014752	1.043914	0.031222
	H319	H	0.008837	1.039183	0.032168
	H320	H	0.021985	1.045238	0.040325
	O321	O	1.016066	1.008018	0.029725
	H322	H	1.015281	1.009733	0.030190
	H323	H	1.017882	1.009823	0.032188
