data_Molecule from HDF5

_cell_length_a		16.156149
_cell_length_b		16.193835
_cell_length_c		16.258360
_cell_angle_alpha	88.973619
_cell_angle_beta	89.373104
_cell_angle_gamma	91.372558
_symmetry_space_group_name_H-M	'P 1'
_symmetry_Int_Tables_number		1

loop_
	_symmetry_equiv_pos_as_xyz
	x,y,z

loop_
	_atom_site_label
	_atom_site_type_symbol
	_atom_site_fract_x
	_atom_site_fract_y
	_atom_site_fract_z
	H0	H	0.381679	0.846032	0.711986
	H1	H	0.592875	0.173373	0.699773
	H2	H	0.588041	0.844276	0.275866
	H3	H	0.390248	0.168991	0.268453
	H4	H	0.704737	0.418636	0.822585
	H5	H	0.710833	0.610196	0.151199
	H6	H	0.284370	0.609778	0.822981
	H7	H	0.268747	0.400963	0.148704
	H8	H	0.825782	0.719940	0.386876
	H9	H	0.153956	0.726893	0.582160
	H10	H	0.827641	0.286517	0.591723
	H11	H	0.156916	0.299212	0.387834
	H12	H	0.827782	0.400290	0.707820
	H13	H	0.156486	0.609406	0.695355
	H14	H	0.827302	0.606673	0.270315
	H15	H	0.155943	0.413971	0.270733
	H16	H	0.397985	0.726018	0.825672
	H17	H	0.593001	0.722505	0.152871
	H18	H	0.591244	0.299685	0.824296
	H19	H	0.385525	0.287287	0.150632
	H20	H	0.698121	0.842586	0.395137
	H21	H	0.710459	0.170507	0.587033
	H22	H	0.268679	0.845096	0.595729
	H23	H	0.283296	0.172951	0.391024
	H24	H	0.884326	0.345961	0.207650
	H25	H	0.097555	0.673805	0.198128
	H26	H	0.088353	0.343645	0.774507
	H27	H	0.897739	0.672095	0.768012
	H28	H	0.205893	0.913679	0.326789
	H29	H	0.205625	0.108495	0.652981
	H30	H	0.779314	0.107196	0.324745
	H31	H	0.770277	0.901483	0.652530
	H32	H	0.325962	0.223841	0.888523
	H33	H	0.655005	0.228680	0.085239
	H34	H	0.328247	0.785715	0.093456
	H35	H	0.656898	0.804534	0.891854
	H36	H	0.326477	0.900539	0.208444
	H37	H	0.655868	0.110815	0.201012
	H38	H	0.326144	0.109861	0.772363
	H39	H	0.653545	0.915808	0.772790
	H40	H	0.894462	0.224015	0.325213
	H41	H	0.092018	0.224151	0.652182
	H42	H	0.087657	0.802852	0.323703
	H43	H	0.883714	0.784176	0.650030
	H44	H	0.203606	0.344585	0.889269
	H45	H	0.208897	0.673909	0.078917
	H46	H	0.770847	0.346217	0.090737
	H47	H	0.786727	0.675070	0.886650
	H48	H	0.418320	0.116142	0.567569
	H49	H	0.573208	0.890318	0.590606
	H50	H	0.580265	0.121816	0.400898
	H51	H	0.397201	0.894608	0.414153
	H52	H	0.581408	0.412091	0.106799
	H53	H	0.594500	0.605204	0.870440
	H54	H	0.402211	0.597703	0.105146
	H55	H	0.392208	0.417905	0.868210
	H56	H	0.109899	0.600399	0.381476
	H57	H	0.869673	0.596362	0.587848
	H58	H	0.113153	0.402371	0.578148
	H59	H	0.872366	0.414656	0.390193
	H60	H	0.103378	0.425284	0.567808
	H61	H	0.872760	0.600843	0.573745
	H62	H	0.112751	0.618903	0.390009
	H63	H	0.873367	0.407895	0.402720
	H64	H	0.396644	0.595944	0.106165
	H65	H	0.583785	0.606548	0.874062
	H66	H	0.585283	0.422409	0.104379
	H67	H	0.402417	0.422480	0.873502
	H68	H	0.593329	0.127085	0.395746
	H69	H	0.571807	0.893250	0.579909
	H70	H	0.378637	0.129344	0.570676
	H71	H	0.381316	0.884141	0.397459
	H72	H	0.907323	0.624126	0.074829
	H73	H	0.077809	0.392385	0.081205
	H74	H	0.085343	0.626152	0.886867
	H75	H	0.895856	0.392588	0.903449
	H76	H	0.075457	0.911405	0.606205
	H77	H	0.087777	0.113025	0.369545
	H78	H	0.906101	0.089252	0.601116
	H79	H	0.896167	0.921199	0.374574
	H80	H	0.602871	0.100667	0.903611
	H81	H	0.373733	0.092094	0.086293
	H82	H	0.609969	0.915635	0.081983
	H83	H	0.372784	0.912599	0.899472
	H84	H	0.607964	0.920972	0.083753
	H85	H	0.372559	0.102141	0.080382
	H86	H	0.608811	0.099659	0.883227
	H87	H	0.373611	0.913602	0.904872
	H88	H	0.901329	0.104503	0.606730
	H89	H	0.094038	0.098284	0.372552
	H90	H	0.081265	0.914038	0.607756
	H91	H	0.898254	0.909873	0.369921
	H92	H	0.091078	0.625257	0.892002
	H93	H	0.076347	0.393652	0.080286
	H94	H	0.900336	0.627122	0.075982
	H95	H	0.891122	0.388282	0.894497
	H96	H	0.403356	0.132629	0.604326
	H97	H	0.582394	0.889850	0.583409
	H98	H	0.581770	0.126271	0.387292
	H99	H	0.405144	0.890175	0.391121
	H100	H	0.575520	0.419745	0.101942
	H101	H	0.590427	0.615836	0.869245
	H102	H	0.400140	0.593359	0.103561
	H103	H	0.402387	0.411861	0.869483
	H104	H	0.105619	0.603754	0.401723
	H105	H	0.875929	0.585573	0.578080
	H106	H	0.110966	0.424424	0.594475
	H107	H	0.878335	0.422022	0.401834
	H108	H	0.904800	0.627438	0.081481
	H109	H	0.078587	0.392509	0.079382
	H110	H	0.092179	0.628835	0.885963
	H111	H	0.901547	0.392903	0.894885
	H112	H	0.077008	0.917157	0.604952
	H113	H	0.078598	0.101173	0.376363
	H114	H	0.890433	0.091739	0.606530
	H115	H	0.886941	0.914069	0.369366
	H116	H	0.611353	0.117773	0.893403
	H117	H	0.377119	0.092308	0.075547
	H118	H	0.610134	0.917217	0.087331
	H119	H	0.372810	0.918100	0.901242
	C120	C	0.366903	0.017950	0.613096
	C121	C	0.609556	0.999244	0.611423
	C122	C	0.611694	0.016453	0.367866
	C123	C	0.368459	0.998209	0.369485
	C124	C	0.611217	0.391183	-0.003799
	C125	C	0.617665	0.635445	0.979607
	C126	C	0.373272	0.627711	-0.003281
	C127	C	0.367357	0.385241	0.978173
	C128	C	-0.000033	0.632753	0.363358
	C129	C	0.981718	0.627213	0.606613
	C130	C	0.000584	0.384669	0.611044
	C131	C	0.983375	0.388424	0.367527
	C132	C	0.870093	0.518398	0.109317
	C133	C	0.111564	0.501041	0.106993
	C134	C	0.115221	0.517612	0.862534
	C135	C	0.871506	0.500347	0.866550
	C136	C	0.108540	0.888788	0.497816
	C137	C	0.114921	0.132252	0.480774
	C138	C	0.870777	0.126739	0.497156
	C139	C	0.864129	0.882888	0.479365
	C140	C	0.498879	0.133299	0.865348
	C141	C	0.482524	0.128610	0.109311
	C142	C	0.500431	0.884990	0.113736
	C143	C	0.481863	0.889724	0.871112
	C144	C	0.363970	0.895046	0.672481
	C145	C	0.611702	0.123491	0.663584
	C146	C	0.607770	0.893054	0.313928
	C147	C	0.371602	0.120885	0.309644
	C148	C	0.666965	0.396596	0.872125
	C149	C	0.672925	0.631020	0.102466
	C150	C	0.321143	0.628522	0.872611
	C151	C	0.308033	0.382843	0.100519
	C152	C	0.875410	0.684225	0.366358
	C153	C	0.105356	0.687249	0.603148
	C154	C	0.876920	0.325299	0.611236
	C155	C	0.107371	0.335879	0.368045
	C156	C	0.876790	0.382353	0.668611
	C157	C	0.106423	0.628645	0.659512
	C158	C	0.876183	0.627609	0.308453
	C159	C	0.107096	0.392871	0.309870
	C160	C	0.377479	0.686641	0.873987
	C161	C	0.614614	0.687324	0.103286
	C162	C	0.610315	0.337472	0.872856
	C163	C	0.366381	0.326663	0.101515
	C164	C	0.663042	0.892381	0.372815
	C165	C	0.670185	0.122167	0.607211
	C166	C	0.307736	0.894415	0.614747
	C167	C	0.317958	0.122846	0.370491
	C168	C	0.866649	0.395145	0.168154
	C169	C	0.115012	0.624428	0.160602
	C170	C	0.109973	0.393285	0.810658
	C171	C	0.876632	0.623584	0.807489
	C172	C	0.166591	0.893473	0.375207
	C173	C	0.168947	0.129245	0.603793
	C174	C	0.816577	0.126724	0.373822
	C175	C	0.807793	0.882005	0.602840
	C176	C	0.374845	0.186445	0.868434
	C177	C	0.606040	0.188573	0.105972
	C178	C	0.377043	0.824908	0.112971
	C179	C	0.606878	0.839704	0.871960
	C180	C	0.376102	0.882571	0.169563
	C181	C	0.606358	0.129955	0.163565
	C182	C	0.375165	0.129752	0.810670
	C183	C	0.605081	0.895060	0.812723
	C184	C	0.873750	0.184976	0.374059
	C185	C	0.111940	0.186619	0.603437
	C186	C	0.107645	0.838087	0.373663
	C187	C	0.864302	0.823653	0.601805
	C188	C	0.167112	0.393748	0.868092
	C189	C	0.170881	0.624510	0.101590
	C190	C	0.809846	0.395279	0.110143
	C191	C	0.821436	0.625054	0.866473
	C192	C	0.392505	0.103992	0.588135
	C193	C	0.583534	0.913270	0.590628
	C194	C	0.591236	0.102714	0.388642
	C195	C	0.388513	0.911897	0.393688
	C196	C	0.587673	0.411902	0.081978
	C197	C	0.595972	0.615253	0.893386
	C198	C	0.393919	0.602944	0.082619
	C199	C	0.391826	0.410154	0.892698
	C200	C	0.086771	0.613481	0.384674
	C201	C	0.895248	0.601818	0.585779
	C202	C	0.086750	0.410030	0.587125
	C203	C	0.897011	0.408896	0.391258
	C204	C	0.896651	0.604136	0.084673
	C205	C	0.085261	0.415038	0.086249
	C206	C	0.095447	0.604306	0.882311
	C207	C	0.890514	0.413852	0.890745
	C208	C	0.084739	0.908301	0.584124
	C209	C	0.093252	0.110553	0.395057
	C210	C	0.892809	0.102275	0.582741
	C211	C	0.887151	0.907564	0.393427
	C212	C	0.585377	0.112390	0.887002
	C213	C	0.396743	0.103171	0.087335
	C214	C	0.586988	0.910590	0.091054
	C215	C	0.395575	0.909057	0.894875
	Zn216	Zn	0.488581	0.009842	0.739893
	Zn217	Zn	0.490387	0.007006	0.240392
	Zn218	Zn	0.742754	0.511307	-0.012752
	Zn219	Zn	0.241570	0.508679	-0.013594
	Zn220	Zn	-0.011358	0.757886	0.486889
	Zn221	Zn	-0.008066	0.258278	0.488417
	Zn222	Zn	-0.008274	0.507476	0.736576
	Zn223	Zn	-0.007953	0.509895	0.237233
	Zn224	Zn	0.492496	0.759301	-0.009285
	Zn225	Zn	0.489938	0.259622	-0.012148
	Zn226	Zn	0.738759	0.007050	0.489573
	Zn227	Zn	0.240469	0.008621	0.490996
	N228	N	0.400040	0.972959	0.671652
	N229	N	0.574636	0.046176	0.666215
	N230	N	0.576633	0.971381	0.310568
	N231	N	0.402095	0.042293	0.308725
	N232	N	0.667500	0.429322	0.949748
	N233	N	0.675439	0.599848	0.024313
	N234	N	0.318513	0.592172	0.949764
	N235	N	0.308791	0.418933	0.023112
	N236	N	0.953458	0.687720	0.399557
	N237	N	0.026818	0.686415	0.571088
	N238	N	0.954862	0.326667	0.576136
	N239	N	0.029374	0.333070	0.403200
	N240	N	0.954748	0.418579	0.668736
	N241	N	0.028634	0.591953	0.661671
	N242	N	0.954666	0.596665	0.306151
	N243	N	0.028790	0.424629	0.309220
	N244	N	0.409127	0.686266	0.952267
	N245	N	0.581120	0.690139	0.025940
	N246	N	0.576360	0.333818	0.950919
	N247	N	0.402337	0.327779	0.024434
	N248	N	0.665948	0.970120	0.405370
	N249	N	0.668907	0.043885	0.575448
	N250	N	0.309428	0.971918	0.578550
	N251	N	0.315721	0.045487	0.406970
	N252	N	0.903665	0.472772	0.167649
	N253	N	0.078769	0.546671	0.163886
	N254	N	0.078575	0.471434	0.806962
	N255	N	0.906749	0.544844	0.807330
	N256	N	0.167085	0.924552	0.453388
	N257	N	0.170923	0.096029	0.526518
	N258	N	0.814548	0.091449	0.451522
	N259	N	0.807650	0.918310	0.525837
	N260	N	0.452887	0.189016	0.901555
	N261	N	0.528154	0.187552	0.072809
	N262	N	0.455564	0.826094	0.079025
	N263	N	0.529262	0.835938	0.907606
	N264	N	0.453744	0.919266	0.170228
	N265	N	0.528480	0.093283	0.165833
	N266	N	0.453245	0.097496	0.808543
	N267	N	0.526223	0.925259	0.811980
	N268	N	0.906617	0.185302	0.451735
	N269	N	0.078998	0.188637	0.525942
	N270	N	0.071950	0.835212	0.450931
	N271	N	0.898537	0.823984	0.523886
	N272	N	0.170789	0.472124	0.899520
	N273	N	0.168851	0.546581	0.068901
	N274	N	0.811969	0.472998	0.074349
	N275	N	0.817968	0.547513	0.902536
	O276	O	1.146523	0.143902	1.033387
	H277	H	1.161551	0.146205	1.028125
	H278	H	1.145136	0.154956	1.031543
	O279	O	0.886977	0.869223	0.068593
	H280	H	0.866997	0.868885	0.066282
	H281	H	0.901446	0.854198	0.079378
	O282	O	0.540541	0.446438	0.348987
	H283	H	0.546307	0.448372	0.360558
	H284	H	0.545604	0.444685	0.345710
	O285	O	0.634598	0.504911	0.524935
	H286	H	0.636796	0.514680	0.523889
	H287	H	0.623097	0.500206	0.525538
	O288	O	0.506382	0.431856	0.395425
	H289	H	0.513410	0.419460	0.405763
	H290	H	0.520445	0.438410	0.382814
	O291	O	0.532039	-0.397678	1.573034
	H292	H	0.530028	-0.399790	1.580698
	H293	H	0.541561	-0.402352	1.570110
	O294	O	1.081941	0.902128	0.052506
	H295	H	1.095563	0.917868	0.032097
	H296	H	1.084699	0.902020	0.054343
	O297	O	1.021890	0.934604	0.020794
	H298	H	1.023004	0.945141	0.012326
	H299	H	1.019789	0.942414	0.007635
	O300	O	0.416523	0.357545	0.390892
	H301	H	0.422170	0.358071	0.402426
	H302	H	0.416955	0.352736	0.375215
	O303	O	0.471601	0.451407	0.523452
	H304	H	0.466082	0.454784	0.517925
	H305	H	0.459714	0.451415	0.523284
	O306	O	0.379419	0.514399	0.431391
	H307	H	0.373132	0.512840	0.441210
	H308	H	0.401749	0.510718	0.424136
	O309	O	0.586920	0.602734	0.449611
	H310	H	0.587228	0.607257	0.452179
	H311	H	0.603936	0.604864	0.453986
	O312	O	0.932293	0.918132	1.143446
	H313	H	0.947771	0.902896	1.153758
	H314	H	0.937813	0.931460	1.148400
	O315	O	0.973832	0.966235	-0.050246
	H316	H	0.960245	0.955772	-0.038445
	H317	H	0.975561	0.960880	-0.065652
	O318	O	-0.089452	0.052373	1.098640
	H319	H	-0.085238	0.050486	1.102834
	H320	H	-0.075465	0.068076	1.085065
	O321	O	0.608399	0.623813	0.565368
	H322	H	0.590954	0.628859	0.572619
	H323	H	0.615043	0.631375	0.566988
	O324	O	-0.025168	0.908221	1.131205
	H325	H	-0.029408	0.915468	1.144665
	H326	H	-0.030875	0.909606	1.136441
	O327	O	-0.043115	1.059555	0.854095
	H328	H	-0.043383	1.066670	0.848832
	H329	H	-0.041866	1.057559	0.852417
	O330	O	0.035619	-0.040616	-0.103562
	H331	H	0.023205	-0.046759	-0.101192
	H332	H	0.020699	-0.041143	-0.091433
	O333	O	0.510555	0.598449	0.553596
	H334	H	0.503801	0.604724	0.565463
	H335	H	0.509139	0.593238	0.559233
	O336	O	-0.145835	-0.037717	-0.054239
	H337	H	-0.168635	-0.047290	-0.043791
	H338	H	-0.139922	-0.044617	-0.028768
	O339	O	0.018071	0.008146	0.068886
	H340	H	-0.007329	0.000256	0.063741
	H341	H	0.036103	0.000174	0.077491
	O342	O	0.467556	0.458514	0.527283
	H343	H	0.466757	0.463729	0.535841
	H344	H	0.470054	0.469828	0.526871
	O345	O	-0.078114	1.163218	1.004009
	H346	H	-0.069942	1.169496	1.001362
	H347	H	-0.075940	1.162341	0.996942
	O348	O	-0.087630	0.058427	0.868247
	H349	H	-0.088515	0.067723	0.891032
	H350	H	-0.094621	0.050963	0.869612
	O351	O	0.398573	0.394869	0.642397
	H352	H	0.399198	0.384863	0.642594
	H353	H	0.388659	0.392947	0.648496
	O354	O	0.095569	1.030885	0.017992
	H355	H	0.105515	1.035482	0.011040
	H356	H	0.091723	1.023481	0.029830
	O357	O	0.572991	0.464865	0.516207
	H358	H	0.569112	0.455450	0.530185
	H359	H	0.574647	0.475309	0.500332
	O360	O	1.386940	-0.597784	1.589577
	H361	H	1.381113	-0.572879	1.590723
	H362	H	1.381166	-0.604280	1.583855
	O363	O	0.362183	0.580986	0.393454
	H364	H	0.357576	0.594473	0.378736
	H365	H	0.358209	0.583721	0.375853
	O366	O	0.364924	0.516647	0.525964
	H367	H	0.360095	0.520112	0.524056
	H368	H	0.345783	0.512152	0.528309
	O369	O	1.063612	-0.025610	-0.079937
	H370	H	1.049539	-0.027493	-0.086944
	H371	H	1.049768	-0.030798	-0.065728
	O372	O	0.449532	0.576917	0.454940
	H373	H	0.443197	0.563170	0.450595
	H374	H	0.455459	0.560499	0.452960
	O375	O	1.060941	-0.031909	0.970916
	H376	H	1.060106	-0.041057	0.974530
	H377	H	1.058590	-0.031151	0.966257
	O378	O	0.000676	1.139229	0.024663
	H379	H	-0.010638	1.139324	0.036446
	H380	H	-0.003716	1.133145	0.023160
	O381	O	0.448742	0.503254	0.511371
	H382	H	0.449657	0.496388	0.520386
	H383	H	0.447179	0.495859	0.502685
	O384	O	0.934774	1.044211	-0.115849
	H385	H	0.937538	1.050458	-0.113667
	H386	H	0.918649	1.038754	-0.122629
	O387	O	1.593429	0.473084	1.401633
	H388	H	1.581472	0.470206	1.402459
	H389	H	1.599068	0.471959	1.410956
	O390	O	0.924847	1.030810	0.055902
	H391	H	0.913072	1.032956	0.050507
	H392	H	0.936016	1.039522	0.037358
	O393	O	0.607806	0.469649	0.475636
	H394	H	0.613748	0.467816	0.486323
	H395	H	0.611948	0.471151	0.478173
