data_Molecule from HDF5

_cell_length_a		16.200187
_cell_length_b		15.904918
_cell_length_c		16.416471
_cell_angle_alpha	91.044856
_cell_angle_beta	88.873862
_cell_angle_gamma	89.067093
_symmetry_space_group_name_H-M	'P 1'
_symmetry_Int_Tables_number		1

loop_
	_symmetry_equiv_pos_as_xyz
	x,y,z

loop_
	_atom_site_label
	_atom_site_type_symbol
	_atom_site_fract_x
	_atom_site_fract_y
	_atom_site_fract_z
	H0	H	0.400802	0.831460	0.714482
	H1	H	0.600664	0.162175	0.721008
	H2	H	0.611890	0.832912	0.280791
	H3	H	0.401059	0.163578	0.292822
	H4	H	0.728760	0.387930	0.842074
	H5	H	0.712303	0.598308	0.166809
	H6	H	0.286803	0.598187	0.839687
	H7	H	0.282911	0.400825	0.163151
	H8	H	0.835462	0.713312	0.416688
	H9	H	0.168304	0.712867	0.598212
	H10	H	0.834534	0.299632	0.595297
	H11	H	0.166816	0.284758	0.400731
	H12	H	0.839870	0.401552	0.722011
	H13	H	0.165128	0.604404	0.720592
	H14	H	0.837994	0.605252	0.291226
	H15	H	0.164031	0.391831	0.278830
	H16	H	0.406409	0.709748	0.837416
	H17	H	0.591881	0.713977	0.165374
	H18	H	0.605122	0.278321	0.839362
	H19	H	0.407474	0.292556	0.166973
	H20	H	0.723329	0.833269	0.397732
	H21	H	0.704671	0.167691	0.598931
	H22	H	0.289768	0.832382	0.599678
	H23	H	0.291186	0.165353	0.408392
	H24	H	0.902257	0.333207	0.215919
	H25	H	0.099837	0.664513	0.218535
	H26	H	0.110952	0.334726	0.778262
	H27	H	0.899888	0.666016	0.796415
	H28	H	0.225039	0.893249	0.340486
	H29	H	0.215086	0.104471	0.664979
	H30	H	0.786056	0.102132	0.340097
	H31	H	0.783795	0.906038	0.663232
	H32	H	0.337940	0.210192	0.914036
	H33	H	0.669234	0.207311	0.096758
	H34	H	0.335214	0.794140	0.096795
	H35	H	0.667272	0.780975	0.900648
	H36	H	0.341342	0.895130	0.224205
	H37	H	0.666196	0.099553	0.218469
	H38	H	0.339064	0.100723	0.791816
	H39	H	0.663652	0.885628	0.776445
	H40	H	0.908540	0.211344	0.337298
	H41	H	0.091414	0.216958	0.664988
	H42	H	0.105092	0.780244	0.340722
	H43	H	0.903148	0.795210	0.666807
	H44	H	0.219858	0.331949	0.897615
	H45	H	0.208280	0.667005	0.100361
	H46	H	0.794074	0.330511	0.099589
	H47	H	0.788624	0.664238	0.911108
	H48	H	0.413729	0.115917	0.596129
	H49	H	0.600315	0.878034	0.584281
	H50	H	0.590645	0.113251	0.424180
	H51	H	0.415426	0.876254	0.407509
	H52	H	0.607161	0.406026	0.121505
	H53	H	0.603732	0.577747	0.888881
	H54	H	0.407524	0.600944	0.117712
	H55	H	0.409095	0.399762	0.884000
	H56	H	0.119397	0.581333	0.397808
	H57	H	0.884564	0.608313	0.595865
	H58	H	0.119225	0.418280	0.597541
	H59	H	0.880490	0.401136	0.410268
	H60	H	0.122844	0.400611	0.594823
	H61	H	0.888756	0.585853	0.598579
	H62	H	0.122073	0.598083	0.406442
	H63	H	0.887421	0.416299	0.413461
	H64	H	0.397389	0.597012	0.119323
	H65	H	0.591239	0.586161	0.888352
	H66	H	0.594294	0.411532	0.115464
	H67	H	0.411787	0.407500	0.886995
	H68	H	0.605628	0.124693	0.403902
	H69	H	0.594846	0.876361	0.593992
	H70	H	0.402875	0.119555	0.597606
	H71	H	0.418927	0.879346	0.410138
	H72	H	0.917247	0.614760	0.092554
	H73	H	0.091315	0.382085	0.084367
	H74	H	0.088406	0.621753	0.898334
	H75	H	0.906362	0.372554	0.902488
	H76	H	0.094156	0.899820	0.621320
	H77	H	0.102585	0.085959	0.386095
	H78	H	0.899122	0.101218	0.619767
	H79	H	0.914966	0.905291	0.386360
	H80	H	0.622703	0.088146	0.905679
	H81	H	0.385274	0.087798	0.104451
	H82	H	0.617980	0.907161	0.086617
	H83	H	0.385433	0.913549	0.904545
	H84	H	0.620448	0.909222	0.095210
	H85	H	0.382698	0.098128	0.105112
	H86	H	0.618624	0.080925	0.911281
	H87	H	0.380837	0.901052	0.900841
	H88	H	0.901054	0.099277	0.618149
	H89	H	0.095727	0.089616	0.387331
	H90	H	0.106864	0.913910	0.620679
	H91	H	0.911696	0.906651	0.385665
	H92	H	0.084481	0.612609	0.921063
	H93	H	0.100410	0.376742	0.090441
	H94	H	0.894974	0.621542	0.093796
	H95	H	0.929924	0.379978	0.900244
	H96	H	0.410058	0.119712	0.605577
	H97	H	0.590454	0.880446	0.586580
	H98	H	0.579473	0.117788	0.399221
	H99	H	0.415097	0.878575	0.411843
	H100	H	0.594488	0.396180	0.120832
	H101	H	0.604408	0.591541	0.883233
	H102	H	0.404979	0.589824	0.116039
	H103	H	0.418525	0.401475	0.886569
	H104	H	0.114678	0.583202	0.415859
	H105	H	0.880276	0.598862	0.615496
	H106	H	0.117628	0.409802	0.581253
	H107	H	0.881004	0.411652	0.398501
	H108	H	0.907654	0.622755	0.112371
	H109	H	0.090171	0.378661	0.095821
	H110	H	0.107040	0.621377	0.914415
	H111	H	0.917370	0.382065	0.921798
	H112	H	0.090216	0.916387	0.614810
	H113	H	0.101785	0.093870	0.385134
	H114	H	0.902099	0.103691	0.618686
	H115	H	0.914249	0.908738	0.386336
	H116	H	0.621642	0.079843	0.901062
	H117	H	0.387000	0.094265	0.096715
	H118	H	0.622918	0.899669	0.092176
	H119	H	0.385756	0.902997	0.913427
	C120	C	0.380203	0.007814	0.625701
	C121	C	0.621202	0.988895	0.619611
	C122	C	0.625148	0.008416	0.378443
	C123	C	0.385485	0.988465	0.383520
	C124	C	0.629113	0.372682	0.011762
	C125	C	0.624272	0.617319	0.994294
	C126	C	0.377545	0.622151	0.009891
	C127	C	0.382362	0.376654	0.993407
	C128	C	0.010123	0.619834	0.382346
	C129	C	0.993460	0.625253	0.628558
	C130	C	0.010664	0.382482	0.621344
	C131	C	0.992153	0.377731	0.377459
	C132	C	0.880186	0.508551	0.125514
	C133	C	0.121761	0.489504	0.121188
	C134	C	0.124970	0.508494	0.879145
	C135	C	0.885355	0.489058	0.883381
	C136	C	0.127569	0.877263	0.511513
	C137	C	0.124818	0.121743	0.493518
	C138	C	0.876268	0.126830	0.510588
	C139	C	0.882321	0.881407	0.493795
	C140	C	0.512084	0.115667	0.881515
	C141	C	0.494387	0.120489	0.127010
	C142	C	0.511403	0.878015	0.121637
	C143	C	0.492866	0.873732	0.876235
	C144	C	0.381498	0.881871	0.678062
	C145	C	0.618914	0.113432	0.679951
	C146	C	0.629437	0.882798	0.320008
	C147	C	0.383364	0.114079	0.330036
	C148	C	0.688022	0.370748	0.889851
	C149	C	0.675627	0.617930	0.117665
	C150	C	0.324514	0.618424	0.887834
	C151	C	0.323321	0.380734	0.115181
	C152	C	0.885299	0.676426	0.391844
	C153	C	0.118109	0.677481	0.621256
	C154	C	0.885460	0.332599	0.617923
	C155	C	0.116695	0.321234	0.379566
	C156	C	0.888087	0.383927	0.680614
	C157	C	0.116676	0.623488	0.682042
	C158	C	0.886634	0.622572	0.329674
	C159	C	0.115319	0.374407	0.318689
	C160	C	0.384160	0.673790	0.886582
	C161	C	0.615913	0.675457	0.116864
	C162	C	0.627147	0.315625	0.888766
	C163	C	0.385038	0.326606	0.117241
	C164	C	0.684987	0.883261	0.378086
	C165	C	0.670799	0.116557	0.619217
	C166	C	0.325971	0.882425	0.620923
	C167	C	0.328681	0.114977	0.387529
	C168	C	0.882541	0.382918	0.179030
	C169	C	0.119292	0.614798	0.179535
	C170	C	0.128487	0.384097	0.818261
	C171	C	0.882609	0.615512	0.832406
	C172	C	0.185243	0.875108	0.388959
	C173	C	0.177192	0.122662	0.616101
	C174	C	0.823795	0.122293	0.388238
	C175	C	0.823530	0.885546	0.615341
	C176	C	0.387586	0.172880	0.890311
	C177	C	0.619092	0.172052	0.119776
	C178	C	0.386123	0.827538	0.118886
	C179	C	0.617087	0.816913	0.878665
	C180	C	0.389165	0.878147	0.182296
	C181	C	0.617623	0.118164	0.180294
	C182	C	0.388226	0.118220	0.829528
	C183	C	0.615443	0.869277	0.816916
	C184	C	0.884850	0.176721	0.386812
	C185	C	0.115996	0.179094	0.616325
	C186	C	0.125784	0.818647	0.389296
	C187	C	0.883225	0.830593	0.617292
	C188	C	0.182530	0.382618	0.877636
	C189	C	0.173320	0.616133	0.120502
	C190	C	0.828759	0.381365	0.121017
	C191	C	0.827027	0.614698	0.889257
	C192	C	0.402300	0.095751	0.605802
	C193	C	0.601259	0.901105	0.595414
	C194	C	0.599454	0.095697	0.402143
	C195	C	0.409573	0.900711	0.403802
	C196	C	0.605611	0.397348	0.097074
	C197	C	0.605397	0.592459	0.909082
	C198	C	0.397259	0.601934	0.095315
	C199	C	0.406068	0.396796	0.907905
	C200	C	0.096298	0.594809	0.401203
	C201	C	0.906985	0.603919	0.609198
	C202	C	0.097517	0.403478	0.597985
	C203	C	0.905512	0.402452	0.400614
	C204	C	0.900588	0.596767	0.105596
	C205	C	0.100301	0.401678	0.097182
	C206	C	0.100648	0.595757	0.904049
	C207	C	0.910553	0.400912	0.902549
	C208	C	0.104066	0.902688	0.596801
	C209	C	0.105755	0.097246	0.408224
	C210	C	0.895007	0.107222	0.596611
	C211	C	0.906617	0.901225	0.408320
	C212	C	0.598584	0.090392	0.900311
	C213	C	0.407463	0.099679	0.107765
	C214	C	0.598094	0.899004	0.098033
	C215	C	0.406265	0.898542	0.899484
	Zn216	Zn	0.502524	-0.003948	0.749573
	Zn217	Zn	0.503363	-0.002592	0.253721
	Zn218	Zn	0.757279	0.496512	0.003717
	Zn219	Zn	0.250331	0.498914	0.001323
	Zn220	Zn	0.002824	0.750900	0.504231
	Zn221	Zn	0.000780	0.253120	0.500610
	Zn222	Zn	0.003245	0.500615	0.753805
	Zn223	Zn	0.001159	0.498975	0.250068
	Zn224	Zn	0.501069	0.749368	0.000150
	Zn225	Zn	0.504397	0.246228	0.003169
	Zn226	Zn	0.750534	0.001184	0.500961
	Zn227	Zn	0.256823	-0.000973	0.502544
	N228	N	0.414492	0.961001	0.681310
	N229	N	0.588766	0.033041	0.680228
	N230	N	0.592845	0.961460	0.320147
	N231	N	0.417883	0.034425	0.327240
	N232	N	0.689447	0.405443	0.967448
	N233	N	0.680871	0.582410	0.040629
	N234	N	0.320197	0.587172	0.965318
	N235	N	0.321711	0.411216	0.037159
	N236	N	0.963011	0.675000	0.423779
	N237	N	0.040445	0.678963	0.588796
	N238	N	0.962932	0.331507	0.581651
	N239	N	0.038847	0.322973	0.415180
	N240	N	0.967254	0.414211	0.682759
	N241	N	0.038166	0.591869	0.686957
	N242	N	0.965255	0.588064	0.323567
	N243	N	0.036951	0.408816	0.317416
	N244	N	0.416553	0.676521	0.963462
	N245	N	0.584994	0.675650	0.039231
	N246	N	0.591351	0.316639	0.965440
	N247	N	0.421227	0.323940	0.040674
	N248	N	0.682618	0.962321	0.413613
	N249	N	0.672453	0.038237	0.582180
	N250	N	0.325130	0.961854	0.588786
	N251	N	0.329767	0.035873	0.420077
	N252	N	0.913791	0.462888	0.182080
	N253	N	0.087838	0.534970	0.180062
	N254	N	0.093460	0.463468	0.818905
	N255	N	0.918527	0.536366	0.828761
	N256	N	0.186431	0.910841	0.465997
	N257	N	0.182939	0.088007	0.538708
	N258	N	0.818209	0.092022	0.466238
	N259	N	0.822980	0.916513	0.537557
	N260	N	0.465576	0.171112	0.922266
	N261	N	0.541341	0.173927	0.087550
	N262	N	0.463174	0.827206	0.081804
	N263	N	0.539688	0.819292	0.914610
	N264	N	0.468258	0.908835	0.184163
	N265	N	0.538940	0.086791	0.185026
	N266	N	0.466520	0.083274	0.824005
	N267	N	0.536942	0.903703	0.815248
	N268	N	0.916568	0.179825	0.463910
	N269	N	0.084376	0.178891	0.539170
	N270	N	0.090779	0.819755	0.466411
	N271	N	0.919224	0.827798	0.540739
	N272	N	0.180735	0.461022	0.914734
	N273	N	0.175051	0.537021	0.084906
	N274	N	0.827075	0.460512	0.088400
	N275	N	0.828573	0.534979	0.920236
	O276	O	0.571200	0.401443	0.433735
	H277	H	0.582995	0.401209	0.425201
	H278	H	0.551999	0.391118	0.437284
	O279	O	0.440196	0.454570	0.655173
	H280	H	0.444332	0.463443	0.661556
	H281	H	0.436935	0.452664	0.665845
	O282	O	1.048763	0.986896	0.003915
	H283	H	1.054081	0.984597	0.011320
	H284	H	1.044296	0.987092	0.002507
	O285	O	0.913831	0.101316	1.010589
	H286	H	0.914581	0.101487	1.002638
	H287	H	0.923226	0.103803	1.006145
	O288	O	0.536646	0.564021	0.496071
	H289	H	0.536380	0.549762	0.488770
	H290	H	0.533059	0.556702	0.492875
	O291	O	0.401520	0.485945	0.514302
	H292	H	0.399054	0.490899	0.523408
	H293	H	0.399235	0.491791	0.512816
	O294	O	0.546743	0.496629	0.391259
	H295	H	0.540041	0.492401	0.386048
	H296	H	0.554463	0.483793	0.396369
	O297	O	0.006678	-0.036662	1.153894
	H298	H	0.008238	-0.027722	1.130651
	H299	H	-0.000289	-0.035971	1.163625
	O300	O	0.637184	0.474262	0.528181
	H301	H	0.635289	0.461782	0.527634
	H302	H	0.629312	0.468344	0.522530
	O303	O	1.031600	0.925932	-0.010172
	H304	H	1.033787	0.911539	-0.003905
	H305	H	1.024458	0.926041	0.004292
	O306	O	-0.558296	1.449445	0.422103
	H307	H	-0.562987	1.454925	0.427937
	H308	H	-0.555617	1.461551	0.425445
	O309	O	0.455789	0.591958	0.512694
	H310	H	0.466929	0.587695	0.508123
	H311	H	0.463142	0.594740	0.498705
	O312	O	0.015917	0.002739	-0.114087
	H313	H	0.020746	-0.000649	-0.117977
	H314	H	0.005970	0.005802	-0.114317
	O315	O	1.047075	-0.003464	0.058350
	H316	H	1.059875	0.000138	0.046519
	H317	H	1.048415	0.004748	0.053818
	O318	O	1.000009	1.018886	0.992602
	H319	H	0.991086	1.018712	0.993245
	H320	H	0.996036	1.014480	0.986363
	O321	O	0.094248	0.036440	0.962685
	H322	H	0.087471	0.035278	0.965119
	H323	H	0.087379	0.029325	0.957634
	O324	O	0.501837	0.390519	0.539654
	H325	H	0.495543	0.404983	0.545781
	H326	H	0.502465	0.377863	0.536499
	O327	O	-0.021778	-0.034126	0.091509
	H328	H	-0.026193	-0.048180	0.095404
	H329	H	-0.026753	-0.037477	0.098588
	O330	O	0.479958	0.489376	0.555464
	H331	H	0.477920	0.478646	0.549102
	H332	H	0.481971	0.494078	0.560050
	O333	O	0.006949	0.936286	0.989945
	H334	H	0.014648	0.938327	0.998772
	H335	H	0.004983	0.941045	0.990519
	O336	O	0.078514	0.019891	0.016132
	H337	H	0.080383	0.016662	0.008388
	H338	H	0.096802	0.012623	0.013613
	O339	O	0.530054	0.600093	0.575606
	H340	H	0.536088	0.604468	0.583088
	H341	H	0.546439	0.606240	0.571938
	O342	O	1.030568	0.911934	0.982152
	H343	H	1.031755	0.917638	0.970044
	H344	H	1.031908	0.911229	0.985198
	O345	O	0.899786	0.985699	-0.012805
	H346	H	0.903758	0.975715	-0.011681
	H347	H	0.899641	0.990399	-0.019070
	O348	O	0.505376	0.543529	0.582509
	H349	H	0.524124	0.554178	0.587909
	H350	H	0.502413	0.548009	0.571812
	O351	O	0.483598	0.441740	0.510477
	H352	H	0.469463	0.438366	0.516388
	H353	H	0.479782	0.443160	0.510217
	O354	O	0.492533	0.415232	0.463610
	H355	H	0.491905	0.426575	0.455319
	H356	H	0.484576	0.420784	0.470950
	O357	O	0.967431	0.032391	1.052894
	H358	H	0.968828	0.037234	1.053536
	H359	H	0.975743	0.030208	1.045955
	O360	O	0.595432	0.542123	0.475795
	H361	H	0.598464	0.532339	0.470555
	H362	H	0.596255	0.532107	0.469702
	O363	O	0.388584	0.519326	0.414072
	H364	H	0.399719	0.514644	0.404879
	H365	H	0.374816	0.531193	0.406087
	O366	O	1.038980	0.978896	0.874125
	H367	H	1.050340	0.981326	0.881660
	H368	H	1.040587	0.975658	0.869034
	O369	O	1.040686	0.042076	1.004312
	H370	H	1.031878	0.040610	1.014926
	H371	H	1.033725	0.037981	1.000375
	O372	O	-0.083285	-0.054887	0.069413
	H373	H	-0.096573	-0.044930	0.067126
	H374	H	-0.078842	-0.059897	0.081570
	O375	O	1.047982	0.030004	-0.097836
	H376	H	1.061626	0.024504	-0.097765
	H377	H	1.061464	0.027092	-0.102003
	O378	O	0.490346	0.586626	0.466121
	H379	H	0.486189	0.589806	0.475083
	H380	H	0.498674	0.573779	0.459439
	O381	O	0.522878	0.440131	0.531594
	H382	H	0.537455	0.432109	0.535469
	H383	H	0.516971	0.433832	0.540513
