data_Molecule from HDF5

_cell_length_a		16.256670
_cell_length_b		16.284596
_cell_length_c		16.356367
_cell_angle_alpha	89.909516
_cell_angle_beta	90.082922
_cell_angle_gamma	90.084592
_symmetry_space_group_name_H-M	'P 1'
_symmetry_Int_Tables_number		1

loop_
	_symmetry_equiv_pos_as_xyz
	x,y,z

loop_
	_atom_site_label
	_atom_site_type_symbol
	_atom_site_fract_x
	_atom_site_fract_y
	_atom_site_fract_z
	H0	H	0.401093	0.841974	0.709974
	H1	H	0.600675	0.168807	0.708371
	H2	H	0.599176	0.841464	0.279489
	H3	H	0.401035	0.168934	0.278844
	H4	H	0.714230	0.409114	0.831264
	H5	H	0.715265	0.602991	0.158147
	H6	H	0.285157	0.604350	0.831485
	H7	H	0.286376	0.406725	0.158333
	H8	H	0.835798	0.719047	0.396958
	H9	H	0.163797	0.718104	0.592043
	H10	H	0.835483	0.291629	0.591698
	H11	H	0.164002	0.290493	0.397809
	H12	H	0.837057	0.405423	0.709998
	H13	H	0.163709	0.605638	0.709677
	H14	H	0.837124	0.605426	0.277639
	H15	H	0.164464	0.405600	0.280889
	H16	H	0.403323	0.719125	0.830434
	H17	H	0.599575	0.720603	0.157689
	H18	H	0.598682	0.292623	0.830914
	H19	H	0.402321	0.289487	0.157246
	H20	H	0.713395	0.840794	0.398118
	H21	H	0.714262	0.169146	0.590616
	H22	H	0.287497	0.840725	0.592167
	H23	H	0.285828	0.169056	0.396360
	H24	H	0.901900	0.341298	0.208714
	H25	H	0.100982	0.668063	0.210490
	H26	H	0.099526	0.342123	0.779450
	H27	H	0.902144	0.668403	0.779279
	H28	H	0.214189	0.907856	0.331649
	H29	H	0.214629	0.102787	0.658506
	H30	H	0.786351	0.102468	0.332074
	H31	H	0.785018	0.905901	0.657905
	H32	H	0.336264	0.220089	0.895390
	H33	H	0.665542	0.218396	0.091697
	H34	H	0.336569	0.790569	0.092339
	H35	H	0.665150	0.792870	0.897115
	H36	H	0.336123	0.906341	0.208616
	H37	H	0.663568	0.104565	0.209828
	H38	H	0.336547	0.103500	0.779311
	H39	H	0.664918	0.908191	0.780125
	H40	H	0.900407	0.220843	0.332401
	H41	H	0.098773	0.219922	0.659115
	H42	H	0.098999	0.789854	0.332144
	H43	H	0.901631	0.789535	0.658060
	H44	H	0.214197	0.341657	0.898032
	H45	H	0.214529	0.669635	0.092092
	H46	H	0.785888	0.341834	0.092778
	H47	H	0.788150	0.669258	0.897628
	H48	H	0.413435	0.121421	0.592103
	H49	H	0.589455	0.886065	0.600846
	H50	H	0.594110	0.120792	0.400794
	H51	H	0.398578	0.886034	0.398575
	H52	H	0.598011	0.414301	0.111256
	H53	H	0.596364	0.596364	0.878712
	H54	H	0.403145	0.599673	0.111616
	H55	H	0.404186	0.414215	0.879113
	H56	H	0.119837	0.611734	0.402984
	H57	H	0.880446	0.602373	0.589740
	H58	H	0.118431	0.412718	0.596021
	H59	H	0.883902	0.406729	0.407521
	H60	H	0.117778	0.404980	0.583962
	H61	H	0.885105	0.596001	0.582257
	H62	H	0.111240	0.591196	0.413812
	H63	H	0.886821	0.420834	0.401548
	H64	H	0.408972	0.594259	0.108959
	H65	H	0.590436	0.600804	0.879239
	H66	H	0.589727	0.413605	0.109190
	H67	H	0.409645	0.414206	0.880227
	H68	H	0.592295	0.121199	0.400719
	H69	H	0.584907	0.893635	0.580044
	H70	H	0.407582	0.119247	0.579689
	H71	H	0.414197	0.889903	0.393771
	H72	H	0.912007	0.619386	0.084025
	H73	H	0.107499	0.385397	0.086680
	H74	H	0.093933	0.622291	0.902397
	H75	H	0.911991	0.387972	0.896319
	H76	H	0.094926	0.912521	0.610911
	H77	H	0.094427	0.100872	0.378539
	H78	H	0.915517	0.108728	0.612325
	H79	H	0.910305	0.907668	0.379550
	H80	H	0.616878	0.100139	0.902489
	H81	H	0.385790	0.095702	0.083907
	H82	H	0.615644	0.913276	0.084106
	H83	H	0.382701	0.913321	0.895650
	H84	H	0.615835	0.917610	0.090389
	H85	H	0.383460	0.097087	0.090075
	H86	H	0.616505	0.096933	0.899760
	H87	H	0.384229	0.907772	0.903259
	H88	H	0.894818	0.100060	0.615636
	H89	H	0.093880	0.096043	0.380010
	H90	H	0.092168	0.911470	0.610560
	H91	H	0.902462	0.911404	0.378156
	H92	H	0.093015	0.621768	0.900561
	H93	H	0.087059	0.387159	0.101183
	H94	H	0.903673	0.622752	0.085883
	H95	H	0.908986	0.390997	0.907143
	H96	H	0.400665	0.124105	0.590167
	H97	H	0.605194	0.885612	0.584671
	H98	H	0.592596	0.120953	0.401683
	H99	H	0.409013	0.892592	0.409608
	H100	H	0.593954	0.407601	0.110806
	H101	H	0.597004	0.603129	0.876727
	H102	H	0.411381	0.602567	0.110642
	H103	H	0.406971	0.409594	0.877969
	H104	H	0.117924	0.590430	0.390290
	H105	H	0.883295	0.592362	0.591830
	H106	H	0.113649	0.418757	0.583829
	H107	H	0.880129	0.409413	0.393054
	H108	H	0.910799	0.622175	0.092073
	H109	H	0.085902	0.394651	0.076839
	H110	H	0.092289	0.620856	0.902119
	H111	H	0.901881	0.386287	0.899972
	H112	H	0.094545	0.909525	0.611093
	H113	H	0.089863	0.099887	0.381245
	H114	H	0.911592	0.087090	0.606403
	H115	H	0.908910	0.916787	0.380500
	H116	H	0.618237	0.100402	0.898290
	H117	H	0.383416	0.101728	0.084814
	H118	H	0.618356	0.910559	0.090540
	H119	H	0.386168	0.916726	0.903468
	C120	C	0.379096	0.013239	0.615652
	C121	C	0.621850	0.996856	0.615937
	C122	C	0.621449	0.013006	0.372965
	C123	C	0.378503	0.997401	0.372485
	C124	C	0.622153	0.384351	0.002401
	C125	C	0.623100	0.627958	0.986264
	C126	C	0.379217	0.627382	0.002556
	C127	C	0.378655	0.383818	0.986767
	C128	C	0.008298	0.626647	0.373065
	C129	C	0.991338	0.626136	0.616415
	C130	C	0.008536	0.383442	0.616397
	C131	C	0.992203	0.383588	0.373118
	C132	C	0.879606	0.513340	0.115734
	C133	C	0.122527	0.496866	0.116782
	C134	C	0.121726	0.513667	0.873151
	C135	C	0.879209	0.496696	0.872995
	C136	C	0.122215	0.882862	0.503261
	C137	C	0.121706	0.127239	0.487575
	C138	C	0.878403	0.127130	0.503609
	C139	C	0.878823	0.883286	0.486947
	C140	C	0.508868	0.127904	0.871677
	C141	C	0.492349	0.127018	0.115304
	C142	C	0.508182	0.884471	0.116074
	C143	C	0.492669	0.884789	0.872704
	C144	C	0.381446	0.890345	0.671259
	C145	C	0.620374	0.120187	0.670354
	C146	C	0.619202	0.890172	0.317728
	C147	C	0.381007	0.120336	0.317089
	C148	C	0.676567	0.388340	0.879815
	C149	C	0.677866	0.624590	0.109299
	C150	C	0.323750	0.624480	0.879849
	C151	C	0.323684	0.386074	0.109342
	C152	C	0.884904	0.681710	0.375588
	C153	C	0.114813	0.680885	0.613022
	C154	C	0.884726	0.329075	0.612999
	C155	C	0.115230	0.328275	0.376714
	C156	C	0.885616	0.385304	0.671789
	C157	C	0.114802	0.624716	0.671326
	C158	C	0.885618	0.625082	0.316680
	C159	C	0.115385	0.385581	0.318621
	C160	C	0.382316	0.681682	0.879345
	C161	C	0.620573	0.683025	0.108989
	C162	C	0.619359	0.330214	0.879721
	C163	C	0.381471	0.327896	0.108874
	C164	C	0.675951	0.889693	0.376415
	C165	C	0.677178	0.120129	0.612064
	C166	C	0.324597	0.889889	0.613035
	C167	C	0.323819	0.120527	0.375453
	C168	C	0.881734	0.390027	0.170741
	C169	C	0.120721	0.619566	0.172123
	C170	C	0.119834	0.390764	0.817906
	C171	C	0.881735	0.619953	0.817738
	C172	C	0.176610	0.886414	0.380309
	C173	C	0.176984	0.123982	0.610020
	C174	C	0.823606	0.123790	0.380823
	C175	C	0.823503	0.885793	0.609557
	C176	C	0.385389	0.182512	0.874753
	C177	C	0.616011	0.181420	0.112673
	C178	C	0.385336	0.828547	0.112919
	C179	C	0.616084	0.830375	0.875900
	C180	C	0.385229	0.885920	0.171037
	C181	C	0.615120	0.124799	0.171291
	C182	C	0.385494	0.124884	0.816850
	C183	C	0.616017	0.887690	0.818066
	C184	C	0.880769	0.182052	0.380886
	C185	C	0.119153	0.182027	0.610282
	C186	C	0.119330	0.828100	0.380616
	C187	C	0.881175	0.827835	0.609609
	C188	C	0.176713	0.390522	0.876548
	C189	C	0.177129	0.620407	0.113423
	C190	C	0.824311	0.390052	0.112819
	C191	C	0.825334	0.620285	0.876545
	C192	C	0.400945	0.099297	0.593806
	C193	C	0.599603	0.910797	0.594800
	C194	C	0.599473	0.098886	0.394739
	C195	C	0.400742	0.911515	0.394293
	C196	C	0.600336	0.405622	0.088420
	C197	C	0.601317	0.606366	0.900473
	C198	C	0.401205	0.605433	0.088246
	C199	C	0.400473	0.406200	0.901176
	C200	C	0.094115	0.604421	0.395764
	C201	C	0.905234	0.603593	0.594578
	C202	C	0.094452	0.405752	0.594511
	C203	C	0.905836	0.405604	0.394520
	C204	C	0.901948	0.599164	0.093784
	C205	C	0.100192	0.411171	0.094807
	C206	C	0.099552	0.599512	0.895062
	C207	C	0.901012	0.410708	0.894823
	C208	C	0.100305	0.904750	0.588537
	C209	C	0.099290	0.105413	0.402122
	C210	C	0.900610	0.105057	0.589346
	C211	C	0.900871	0.905139	0.401506
	C212	C	0.594926	0.105743	0.893778
	C213	C	0.406392	0.104707	0.092939
	C214	C	0.594421	0.907064	0.094325
	C215	C	0.406694	0.906437	0.894294
	Zn216	Zn	0.500581	0.005633	0.743692
	Zn217	Zn	0.500173	0.005599	0.244199
	Zn218	Zn	0.751181	0.505624	-0.005419
	Zn219	Zn	0.249988	0.505807	-0.005079
	Zn220	Zn	-0.000102	0.754243	0.495445
	Zn221	Zn	-0.000227	0.255748	0.495418
	Zn222	Zn	0.000305	0.505373	0.744185
	Zn223	Zn	0.000584	0.504733	0.244536
	Zn224	Zn	0.500948	0.755997	-0.005812
	Zn225	Zn	0.500818	0.255336	-0.005888
	Zn226	Zn	0.750092	0.004576	0.494961
	Zn227	Zn	0.250647	0.005147	0.494999
	N228	N	0.414642	0.968060	0.672998
	N229	N	0.586635	0.042647	0.672821
	N230	N	0.585965	0.967775	0.315557
	N231	N	0.414213	0.042772	0.315269
	N232	N	0.678191	0.421485	0.957119
	N233	N	0.679424	0.590996	0.032251
	N234	N	0.321730	0.591386	0.957372
	N235	N	0.321802	0.420131	0.032259
	N236	N	0.962174	0.682764	0.409983
	N237	N	0.037092	0.681890	0.579487
	N238	N	0.962205	0.327835	0.579331
	N239	N	0.037402	0.326824	0.409674
	N240	N	0.963344	0.418820	0.673636
	N241	N	0.036975	0.591481	0.673495
	N242	N	0.963435	0.591765	0.314862
	N243	N	0.037881	0.419422	0.316562
	N244	N	0.415912	0.683685	0.956678
	N245	N	0.587252	0.685156	0.031501
	N246	N	0.586139	0.327661	0.957017
	N247	N	0.414829	0.326440	0.031675
	N248	N	0.677641	0.967098	0.409929
	N249	N	0.677939	0.042569	0.578819
	N250	N	0.323299	0.967249	0.579029
	N251	N	0.322265	0.043093	0.409255
	N252	N	0.915425	0.467553	0.172489
	N253	N	0.087436	0.541883	0.174181
	N254	N	0.086366	0.468286	0.815748
	N255	N	0.914727	0.542227	0.815554
	N256	N	0.178735	0.919726	0.457597
	N257	N	0.178698	0.090587	0.532644
	N258	N	0.822253	0.090124	0.458139
	N259	N	0.821957	0.919689	0.532398
	N260	N	0.463263	0.184468	0.908069
	N261	N	0.538610	0.182785	0.078486
	N262	N	0.463040	0.827612	0.079512
	N263	N	0.538484	0.828307	0.909202
	N264	N	0.462710	0.919929	0.172923
	N265	N	0.537206	0.091632	0.172836
	N266	N	0.463299	0.091944	0.814590
	N267	N	0.538108	0.920902	0.815991
	N268	N	0.914035	0.184212	0.458230
	N269	N	0.085599	0.184171	0.533169
	N270	N	0.086236	0.825807	0.457912
	N271	N	0.914822	0.826229	0.532454
	N272	N	0.177970	0.467883	0.910057
	N273	N	0.178127	0.543144	0.079594
	N274	N	0.822887	0.467718	0.079374
	N275	N	0.823811	0.542860	0.910284
	O276	O	0.429835	-0.531272	1.530401
	H277	H	0.418513	-0.532475	1.530319
	H278	H	0.422978	-0.533190	1.528726
	O279	O	0.445481	0.546129	0.440385
	H280	H	0.451405	0.540810	0.438381
	H281	H	0.448715	0.544985	0.443151
	O282	O	0.424698	0.530007	0.495913
	H283	H	0.420559	0.529326	0.499221
	H284	H	0.426035	0.528416	0.505423
	O285	O	0.469378	0.449886	0.522736
	H286	H	0.455248	0.443458	0.517829
	H287	H	0.472229	0.439041	0.524171
	O288	O	0.371863	0.486712	0.462957
	H289	H	0.370202	0.492250	0.448804
	H290	H	0.369298	0.497995	0.466850
	O291	O	0.021402	0.988026	1.102862
	H292	H	0.017203	0.984830	1.100552
	H293	H	0.024321	0.988914	1.101635
	O294	O	0.414140	0.519459	0.459727
	H295	H	0.421578	0.520907	0.452339
	H296	H	0.417135	0.527811	0.451155
	O297	O	1.020591	0.012214	0.103900
	H298	H	1.021739	0.018306	0.110400
	H299	H	1.020078	0.007167	0.107910
