data_Molecule from HDF5

_cell_length_a		16.319480
_cell_length_b		16.296094
_cell_length_c		16.295397
_cell_angle_alpha	89.973706
_cell_angle_beta	89.966625
_cell_angle_gamma	90.020477
_symmetry_space_group_name_H-M	'P 1'
_symmetry_Int_Tables_number		1

loop_
	_symmetry_equiv_pos_as_xyz
	x,y,z

loop_
	_atom_site_label
	_atom_site_type_symbol
	_atom_site_fract_x
	_atom_site_fract_y
	_atom_site_fract_z
	H0	H	0.403147	0.836142	0.713173
	H1	H	0.597398	0.163814	0.714400
	H2	H	0.597884	0.836312	0.286307
	H3	H	0.401981	0.163761	0.285032
	H4	H	0.714590	0.402187	0.836003
	H5	H	0.713989	0.597541	0.163199
	H6	H	0.286060	0.597958	0.836038
	H7	H	0.286172	0.402672	0.163977
	H8	H	0.836629	0.713692	0.402379
	H9	H	0.164176	0.713512	0.597611
	H10	H	0.836871	0.284295	0.598576
	H11	H	0.164448	0.286964	0.403433
	H12	H	0.835985	0.402228	0.714411
	H13	H	0.163140	0.597465	0.714259
	H14	H	0.837082	0.597622	0.285716
	H15	H	0.163852	0.401685	0.285952
	H16	H	0.402660	0.714248	0.835786
	H17	H	0.597276	0.713560	0.163907
	H18	H	0.598087	0.285651	0.835807
	H19	H	0.402818	0.286212	0.163898
	H20	H	0.714175	0.836686	0.402393
	H21	H	0.715082	0.163466	0.598481
	H22	H	0.285947	0.835985	0.598249
	H23	H	0.284431	0.163618	0.400737
	H24	H	0.902674	0.335424	0.213455
	H25	H	0.097164	0.663839	0.213238
	H26	H	0.095808	0.335956	0.787465
	H27	H	0.902216	0.664252	0.785726
	H28	H	0.214659	0.901618	0.336719
	H29	H	0.213565	0.097740	0.664392
	H30	H	0.786830	0.097209	0.335855
	H31	H	0.785972	0.901904	0.664124
	H32	H	0.336708	0.214314	0.901449
	H33	H	0.663292	0.213828	0.097284
	H34	H	0.336471	0.786305	0.097701
	H35	H	0.664371	0.788083	0.902832
	H36	H	0.336726	0.902251	0.214705
	H37	H	0.663334	0.097832	0.213773
	H38	H	0.336002	0.097436	0.785658
	H39	H	0.663512	0.902893	0.785182
	H40	H	0.902789	0.214395	0.336195
	H41	H	0.099349	0.215598	0.663280
	H42	H	0.098150	0.786147	0.336267
	H43	H	0.901772	0.784784	0.664054
	H44	H	0.214240	0.336168	0.902299
	H45	H	0.214932	0.663529	0.098374
	H46	H	0.785853	0.335692	0.097041
	H47	H	0.786097	0.664101	0.901758
	H48	H	0.408931	0.113882	0.586954
	H49	H	0.595518	0.882418	0.595986
	H50	H	0.589278	0.117351	0.401825
	H51	H	0.409261	0.885771	0.409021
	H52	H	0.589802	0.403498	0.115687
	H53	H	0.601778	0.597631	0.879709
	H54	H	0.395165	0.586928	0.117959
	H55	H	0.408630	0.403987	0.883404
	H56	H	0.118865	0.590485	0.397630
	H57	H	0.885455	0.590465	0.591966
	H58	H	0.117877	0.404493	0.598340
	H59	H	0.878956	0.399323	0.395670
	H60	H	0.115537	0.403573	0.589475
	H61	H	0.883323	0.592738	0.595891
	H62	H	0.119137	0.602665	0.408175
	H63	H	0.885694	0.399589	0.418605
	H64	H	0.416273	0.586954	0.111310
	H65	H	0.592713	0.584345	0.885938
	H66	H	0.597501	0.405298	0.117358
	H67	H	0.404118	0.406888	0.882478
	H68	H	0.591739	0.113946	0.412889
	H69	H	0.589506	0.884418	0.593687
	H70	H	0.398689	0.118709	0.593657
	H71	H	0.403765	0.883706	0.409029
	H72	H	0.907026	0.615300	0.090523
	H73	H	0.089835	0.384843	0.091750
	H74	H	0.100381	0.620900	0.898842
	H75	H	0.902396	0.383577	0.908776
	H76	H	0.091520	0.905772	0.615705
	H77	H	0.095058	0.093866	0.382766
	H78	H	0.882837	0.091447	0.622307
	H79	H	0.897139	0.908019	0.381775
	H80	H	0.616180	0.093292	0.904497
	H81	H	0.382212	0.093658	0.096083
	H82	H	0.613760	0.914913	0.093325
	H83	H	0.384529	0.908109	0.908011
	H84	H	0.619789	0.903520	0.100672
	H85	H	0.383531	0.095714	0.090556
	H86	H	0.615624	0.094440	0.908933
	H87	H	0.382280	0.906841	0.902933
	H88	H	0.919231	0.073232	0.606491
	H89	H	0.093176	0.091475	0.384110
	H90	H	0.094841	0.904022	0.618139
	H91	H	0.912572	0.914122	0.387852
	H92	H	0.084293	0.614660	0.903864
	H93	H	0.097442	0.383765	0.090515
	H94	H	0.903329	0.616926	0.093967
	H95	H	0.906451	0.382897	0.902743
	H96	H	0.410366	0.117195	0.599605
	H97	H	0.594742	0.884447	0.589174
	H98	H	0.599780	0.118773	0.406123
	H99	H	0.406986	0.882892	0.404246
	H100	H	0.592623	0.411137	0.114305
	H101	H	0.585202	0.599748	0.883685
	H102	H	0.407524	0.605798	0.119501
	H103	H	0.408252	0.409012	0.885068
	H104	H	0.113135	0.588050	0.412855
	H105	H	0.883238	0.595588	0.591240
	H106	H	0.114093	0.412587	0.593742
	H107	H	0.887501	0.419159	0.405249
	H108	H	0.908246	0.616106	0.095210
	H109	H	0.095036	0.382092	0.097205
	H110	H	0.097760	0.615412	0.915938
	H111	H	0.909571	0.385521	0.908585
	H112	H	0.094876	0.908001	0.616433
	H113	H	0.091942	0.093740	0.384451
	H114	H	0.919824	0.114185	0.618889
	H115	H	0.910943	0.897297	0.382664
	H116	H	0.614659	0.089952	0.907683
	H117	H	0.384647	0.090190	0.091812
	H118	H	0.616195	0.901479	0.086362
	H119	H	0.383220	0.902881	0.906932
	C120	C	0.378038	0.008202	0.621746
	C121	C	0.621350	0.991969	0.621358
	C122	C	0.621726	0.008490	0.378603
	C123	C	0.378363	0.992253	0.378695
	C124	C	0.621643	0.378266	0.007917
	C125	C	0.621238	0.621889	0.991493
	C126	C	0.378609	0.621529	0.007992
	C127	C	0.378498	0.378259	0.991742
	C128	C	0.008685	0.621684	0.378408
	C129	C	0.991802	0.621639	0.621557
	C130	C	0.007954	0.378393	0.621892
	C131	C	0.992351	0.378216	0.378674
	C132	C	0.878082	0.507878	0.121449
	C133	C	0.121729	0.491883	0.121418
	C134	C	0.121679	0.508483	0.878408
	C135	C	0.878172	0.492160	0.878411
	C136	C	0.121915	0.878081	0.508549
	C137	C	0.121639	0.121479	0.492287
	C138	C	0.878903	0.121565	0.507774
	C139	C	0.878463	0.877798	0.492037
	C140	C	0.507647	0.121147	0.878371
	C141	C	0.491610	0.121714	0.121498
	C142	C	0.508338	0.878645	0.121696
	C143	C	0.491711	0.878314	0.877952
	C144	C	0.381611	0.884862	0.676221
	C145	C	0.618371	0.115198	0.676338
	C146	C	0.618892	0.885220	0.323775
	C147	C	0.381271	0.115144	0.323273
	C148	C	0.676408	0.381563	0.884580
	C149	C	0.675727	0.618486	0.114816
	C150	C	0.324429	0.618309	0.884596
	C151	C	0.323558	0.381318	0.115095
	C152	C	0.885694	0.676310	0.381328
	C153	C	0.115166	0.675876	0.618275
	C154	C	0.885254	0.322702	0.619235
	C155	C	0.115570	0.324152	0.382147
	C156	C	0.885002	0.380873	0.676993
	C157	C	0.114643	0.618735	0.676540
	C158	C	0.885535	0.618297	0.323822
	C159	C	0.115297	0.381417	0.324090
	C160	C	0.382249	0.676066	0.884620
	C161	C	0.618064	0.676150	0.114960
	C162	C	0.618859	0.323553	0.884693
	C163	C	0.381042	0.323277	0.115014
	C164	C	0.676611	0.885421	0.381274
	C165	C	0.676564	0.115114	0.618828
	C166	C	0.323513	0.884969	0.619100
	C167	C	0.323083	0.115019	0.380739
	C168	C	0.881978	0.384310	0.175426
	C169	C	0.118162	0.614883	0.175780
	C170	C	0.117687	0.384872	0.824444
	C171	C	0.881010	0.615385	0.823343
	C172	C	0.176691	0.881109	0.385429
	C173	C	0.176009	0.118525	0.615363
	C174	C	0.824510	0.118227	0.384611
	C175	C	0.823437	0.880540	0.615185
	C176	C	0.385157	0.176128	0.881098
	C177	C	0.614570	0.176365	0.118213
	C178	C	0.385111	0.824069	0.118744
	C179	C	0.615358	0.824901	0.881653
	C180	C	0.385404	0.881241	0.176988
	C181	C	0.614432	0.118885	0.176259
	C182	C	0.384769	0.118360	0.823474
	C183	C	0.614776	0.881963	0.823277
	C184	C	0.882120	0.176185	0.384760
	C185	C	0.118744	0.176678	0.615071
	C186	C	0.118607	0.823994	0.385039
	C187	C	0.881289	0.822720	0.615217
	C188	C	0.176329	0.385128	0.881308
	C189	C	0.176439	0.614999	0.118687
	C190	C	0.823732	0.384465	0.117933
	C191	C	0.823766	0.615507	0.881231
	C192	C	0.399709	0.094376	0.599880
	C193	C	0.599479	0.906117	0.599417
	C194	C	0.600027	0.094371	0.400278
	C195	C	0.400206	0.906264	0.400851
	C196	C	0.599775	0.400127	0.093602
	C197	C	0.599791	0.600271	0.905436
	C198	C	0.399937	0.599674	0.094173
	C199	C	0.400383	0.400150	0.905877
	C200	C	0.094739	0.599982	0.399927
	C201	C	0.906011	0.599625	0.599611
	C202	C	0.093657	0.400351	0.600136
	C203	C	0.906205	0.399664	0.400122
	C204	C	0.899653	0.593968	0.099628
	C205	C	0.100394	0.405726	0.099665
	C206	C	0.100406	0.594669	0.899856
	C207	C	0.899923	0.406276	0.900151
	C208	C	0.100180	0.899532	0.594624
	C209	C	0.099878	0.099539	0.406007
	C210	C	0.900778	0.099423	0.593759
	C211	C	0.900259	0.899975	0.406272
	C212	C	0.593422	0.098844	0.900423
	C213	C	0.405460	0.099645	0.099515
	C214	C	0.594204	0.900214	0.099953
	C215	C	0.405806	0.899531	0.899678
	Zn216	Zn	0.499523	0.000115	0.749940
	Zn217	Zn	0.500222	0.000096	0.250044
	Zn218	Zn	0.749568	0.500424	-0.000508
	Zn219	Zn	0.250149	0.500277	-0.000211
	Zn220	Zn	0.000491	0.749889	0.500228
	Zn221	Zn	0.000519	0.249852	0.499659
	Zn222	Zn	-0.000802	0.500302	0.750581
	Zn223	Zn	-0.000090	0.499580	0.250338
	Zn224	Zn	0.500239	0.750405	0.000110
	Zn225	Zn	0.499705	0.249927	-0.000120
	Zn226	Zn	0.750057	0.000129	0.500146
	Zn227	Zn	0.249789	0.000001	0.500420
	N228	N	0.414650	0.962545	0.677953
	N229	N	0.584704	0.037763	0.678063
	N230	N	0.585308	0.962710	0.322066
	N231	N	0.414745	0.037564	0.321787
	N232	N	0.678314	0.414864	0.962154
	N233	N	0.677636	0.585374	0.037105
	N234	N	0.321979	0.585221	0.962323
	N235	N	0.321794	0.414879	0.037419
	N236	N	0.963192	0.678281	0.414639
	N237	N	0.037807	0.677857	0.584966
	N238	N	0.962524	0.321210	0.585562
	N239	N	0.038118	0.322332	0.415449
	N240	N	0.962155	0.414953	0.678641
	N241	N	0.037056	0.585479	0.678433
	N242	N	0.963063	0.585015	0.321893
	N243	N	0.037616	0.414392	0.321975
	N244	N	0.415206	0.678166	0.962365
	N245	N	0.584888	0.678362	0.037351
	N246	N	0.585486	0.321479	0.962192
	N247	N	0.414537	0.321568	0.037619
	N248	N	0.678317	0.962864	0.414708
	N249	N	0.678607	0.037477	0.585619
	N250	N	0.321254	0.962645	0.585858
	N251	N	0.321136	0.037581	0.414330
	N252	N	0.915019	0.462088	0.177896
	N253	N	0.084870	0.537326	0.177603
	N254	N	0.084370	0.462511	0.822613
	N255	N	0.914081	0.537798	0.821531
	N256	N	0.178561	0.914347	0.462973
	N257	N	0.177971	0.085192	0.537797
	N258	N	0.822450	0.084832	0.462205
	N259	N	0.821617	0.914401	0.537741
	N260	N	0.462659	0.177853	0.914408
	N261	N	0.537092	0.177922	0.084902
	N262	N	0.462515	0.822329	0.085199
	N263	N	0.537815	0.822526	0.914830
	N264	N	0.462903	0.915014	0.178417
	N265	N	0.536890	0.085546	0.178273
	N266	N	0.462028	0.084658	0.821900
	N267	N	0.537021	0.914650	0.821091
	N268	N	0.915329	0.178139	0.462301
	N269	N	0.085529	0.178412	0.537415
	N270	N	0.085300	0.821908	0.462628
	N271	N	0.914789	0.820966	0.537742
	N272	N	0.178781	0.462900	0.914262
	N273	N	0.178644	0.537305	0.085566
	N274	N	0.821470	0.462233	0.084901
	N275	N	0.821933	0.537972	0.914887
