data_Molecule from HDF5

_cell_length_a		16.330529
_cell_length_b		16.483045
_cell_length_c		16.431491
_cell_angle_alpha	90.016139
_cell_angle_beta	90.018626
_cell_angle_gamma	90.059172
_symmetry_space_group_name_H-M	'P 1'
_symmetry_Int_Tables_number		1

loop_
	_symmetry_equiv_pos_as_xyz
	x,y,z

loop_
	_atom_site_label
	_atom_site_type_symbol
	_atom_site_fract_x
	_atom_site_fract_y
	_atom_site_fract_z
	H0	H	0.396004	0.838286	0.725053
	H1	H	0.608842	0.154922	0.728095
	H2	H	0.605316	0.839954	0.283210
	H3	H	0.394954	0.155007	0.283490
	H4	H	0.723522	0.391380	0.844482
	H5	H	0.721700	0.597983	0.162601
	H6	H	0.283542	0.602151	0.844258
	H7	H	0.285169	0.396784	0.163734
	H8	H	0.841017	0.713893	0.399770
	H9	H	0.161408	0.716594	0.606313
	H10	H	0.843606	0.274636	0.610270
	H11	H	0.161501	0.276244	0.397942
	H12	H	0.843375	0.390918	0.725256
	H13	H	0.161482	0.603773	0.724294
	H14	H	0.841639	0.596416	0.284900
	H15	H	0.163194	0.394731	0.285790
	H16	H	0.398150	0.718615	0.845975
	H17	H	0.605559	0.714368	0.164259
	H18	H	0.610539	0.272431	0.847423
	H19	H	0.397478	0.277276	0.161992
	H20	H	0.719558	0.838528	0.402142
	H21	H	0.723307	0.155537	0.609685
	H22	H	0.283149	0.836719	0.605425
	H23	H	0.279826	0.154165	0.399746
	H24	H	0.895863	0.339102	0.225048
	H25	H	0.109587	0.653853	0.226322
	H26	H	0.110631	0.339229	0.780190
	H27	H	0.894744	0.653540	0.778140
	H28	H	0.221317	0.893488	0.344494
	H29	H	0.223029	0.101685	0.663004
	H30	H	0.779096	0.102938	0.346461
	H31	H	0.782111	0.892235	0.664360
	H32	H	0.343494	0.220826	0.896584
	H33	H	0.660801	0.219602	0.110919
	H34	H	0.343277	0.776780	0.110709
	H35	H	0.661784	0.777164	0.899859
	H36	H	0.341955	0.894905	0.223077
	H37	H	0.660312	0.105166	0.226680
	H38	H	0.342175	0.102229	0.782716
	H39	H	0.661256	0.891538	0.783006
	H40	H	0.892005	0.220921	0.347077
	H41	H	0.109186	0.219572	0.661039
	H42	H	0.106780	0.776447	0.344963
	H43	H	0.894163	0.772537	0.661268
	H44	H	0.225247	0.339108	0.898491
	H45	H	0.221401	0.656237	0.106056
	H46	H	0.780791	0.338671	0.107597
	H47	H	0.781176	0.655131	0.897227
	H48	H	0.407142	0.109432	0.589150
	H49	H	0.599804	0.880519	0.598904
	H50	H	0.596099	0.112307	0.418188
	H51	H	0.406640	0.882409	0.415412
	H52	H	0.600611	0.412969	0.118695
	H53	H	0.590455	0.586751	0.890952
	H54	H	0.415551	0.598638	0.119974
	H55	H	0.417818	0.408484	0.890953
	H56	H	0.115300	0.583212	0.415004
	H57	H	0.885372	0.588637	0.594947
	H58	H	0.117412	0.405511	0.590878
	H59	H	0.887831	0.407671	0.411849
	H60	H	0.113890	0.409483	0.587190
	H61	H	0.890492	0.585820	0.584196
	H62	H	0.118523	0.588015	0.408477
	H63	H	0.887107	0.405522	0.414682
	H64	H	0.401846	0.584768	0.120438
	H65	H	0.590753	0.590642	0.888861
	H66	H	0.583397	0.414408	0.112431
	H67	H	0.414376	0.407136	0.889333
	H68	H	0.588473	0.112309	0.410125
	H69	H	0.581687	0.885482	0.601108
	H70	H	0.411995	0.112509	0.600652
	H71	H	0.413671	0.882501	0.407702
	H72	H	0.914054	0.610242	0.094078
	H73	H	0.092004	0.383537	0.094708
	H74	H	0.090813	0.608570	0.914456
	H75	H	0.918826	0.386181	0.913950
	H76	H	0.090695	0.908795	0.616537
	H77	H	0.089384	0.087007	0.390527
	H78	H	0.914905	0.081399	0.615129
	H79	H	0.911470	0.909130	0.392047
	H80	H	0.616036	0.091652	0.918608
	H81	H	0.390260	0.085397	0.087157
	H82	H	0.618817	0.900704	0.092056
	H83	H	0.388114	0.910211	0.913760
	H84	H	0.614172	0.912421	0.090323
	H85	H	0.387971	0.082776	0.097950
	H86	H	0.610077	0.081139	0.923497
	H87	H	0.386794	0.904586	0.915093
	H88	H	0.917675	0.088894	0.616627
	H89	H	0.091035	0.084413	0.390962
	H90	H	0.087688	0.904548	0.617154
	H91	H	0.913132	0.902566	0.391024
	H92	H	0.092233	0.609863	0.913958
	H93	H	0.095378	0.382846	0.093207
	H94	H	0.914660	0.609060	0.093789
	H95	H	0.912965	0.385828	0.917965
	H96	H	0.419538	0.106968	0.591928
	H97	H	0.590208	0.887951	0.584123
	H98	H	0.586178	0.107772	0.419745
	H99	H	0.415989	0.885619	0.417609
	H100	H	0.588964	0.398991	0.118973
	H101	H	0.594262	0.588217	0.889028
	H102	H	0.419798	0.580523	0.112950
	H103	H	0.414456	0.410698	0.890747
	H104	H	0.117561	0.592332	0.416435
	H105	H	0.890316	0.577580	0.593196
	H106	H	0.115297	0.411019	0.592864
	H107	H	0.888289	0.408900	0.415425
	H108	H	0.913909	0.609345	0.093286
	H109	H	0.094697	0.381540	0.096177
	H110	H	0.090687	0.609322	0.912653
	H111	H	0.912662	0.383511	0.910998
	H112	H	0.092864	0.904874	0.618188
	H113	H	0.087764	0.084843	0.392456
	H114	H	0.910505	0.086965	0.619119
	H115	H	0.906981	0.904624	0.389672
	H116	H	0.615706	0.080549	0.910999
	H117	H	0.385278	0.093388	0.094164
	H118	H	0.618852	0.908924	0.101340
	H119	H	0.389988	0.907879	0.919500
	C120	C	0.380517	0.004720	0.625460
	C121	C	0.623471	0.988808	0.627154
	C122	C	0.622485	0.006232	0.383542
	C123	C	0.380089	0.988136	0.382243
	C124	C	0.623932	0.375815	0.012369
	C125	C	0.623679	0.618783	0.995021
	C126	C	0.380920	0.619969	0.012717
	C127	C	0.382343	0.376849	0.995080
	C128	C	0.010735	0.618025	0.381752
	C129	C	0.993584	0.617238	0.623581
	C130	C	0.010762	0.375898	0.624067
	C131	C	0.993602	0.375349	0.382343
	C132	C	0.881686	0.504818	0.124710
	C133	C	0.124722	0.488089	0.125291
	C134	C	0.124752	0.505329	0.881056
	C135	C	0.881396	0.488806	0.881391
	C136	C	0.122289	0.875303	0.511817
	C137	C	0.123211	0.117819	0.495499
	C138	C	0.880640	0.118507	0.512512
	C139	C	0.878926	0.873688	0.495719
	C140	C	0.509812	0.118030	0.883526
	C141	C	0.493035	0.119297	0.125789
	C142	C	0.510864	0.876557	0.126013
	C143	C	0.493684	0.875534	0.883458
	C144	C	0.378434	0.885524	0.684720
	C145	C	0.626409	0.107539	0.687505
	C146	C	0.624129	0.887179	0.323540
	C147	C	0.377469	0.107452	0.323604
	C148	C	0.683873	0.373564	0.892504
	C149	C	0.682656	0.618229	0.114884
	C150	C	0.322703	0.620772	0.892459
	C151	C	0.323648	0.377230	0.115390
	C152	C	0.889485	0.674908	0.381016
	C153	C	0.113698	0.677200	0.625396
	C154	C	0.891125	0.315063	0.627802
	C155	C	0.113764	0.315946	0.379925
	C156	C	0.891342	0.372910	0.685121
	C157	C	0.113466	0.620943	0.683928
	C158	C	0.889843	0.616925	0.323563
	C159	C	0.114598	0.374943	0.324110
	C160	C	0.379804	0.679004	0.893197
	C161	C	0.624928	0.675994	0.115773
	C162	C	0.628033	0.313838	0.893987
	C163	C	0.379326	0.317582	0.114726
	C164	C	0.680804	0.886492	0.382700
	C165	C	0.683579	0.108091	0.628797
	C166	C	0.321684	0.884946	0.625576
	C167	C	0.319696	0.106979	0.381065
	C168	C	0.878635	0.386060	0.184578
	C169	C	0.126557	0.606952	0.185212
	C170	C	0.128420	0.386842	0.820168
	C171	C	0.877565	0.606692	0.819467
	C172	C	0.181538	0.874617	0.392247
	C173	C	0.183408	0.119958	0.614994
	C174	C	0.819185	0.121127	0.393996
	C175	C	0.820779	0.873125	0.616002
	C176	C	0.390716	0.179893	0.879445
	C177	C	0.613061	0.179657	0.128825
	C178	C	0.390901	0.817049	0.128210
	C179	C	0.613858	0.816390	0.881098
	C180	C	0.390358	0.875833	0.184334
	C181	C	0.612736	0.122392	0.186305
	C182	C	0.390077	0.121262	0.822612
	C183	C	0.613280	0.873422	0.822926
	C184	C	0.875543	0.180076	0.394300
	C185	C	0.126844	0.178934	0.614081
	C186	C	0.124291	0.816345	0.392470
	C187	C	0.876750	0.813554	0.614494
	C188	C	0.185663	0.386648	0.879062
	C189	C	0.182659	0.608049	0.125683
	C190	C	0.820951	0.386103	0.126219
	C191	C	0.820962	0.607676	0.878830
	C192	C	0.405562	0.088094	0.600967
	C193	C	0.598045	0.906206	0.601923
	C194	C	0.597425	0.089052	0.408696
	C195	C	0.404995	0.905068	0.406425
	C196	C	0.598338	0.401309	0.095012
	C197	C	0.598981	0.595387	0.911469
	C198	C	0.405386	0.595122	0.096229
	C199	C	0.408226	0.401581	0.911961
	C200	C	0.095159	0.594691	0.406043
	C201	C	0.910328	0.591485	0.598137
	C202	C	0.093702	0.401238	0.597913
	C203	C	0.909748	0.400058	0.406874
	C204	C	0.906998	0.587932	0.100401
	C205	C	0.100856	0.404340	0.101441
	C206	C	0.098678	0.587882	0.906385
	C207	C	0.907250	0.406618	0.907089
	C208	C	0.097450	0.899382	0.595601
	C209	C	0.096989	0.092628	0.412754
	C210	C	0.906961	0.093163	0.595328
	C211	C	0.903434	0.898430	0.412417
	C212	C	0.592289	0.091923	0.909958
	C213	C	0.409744	0.094307	0.100389
	C214	C	0.595286	0.900391	0.101455
	C215	C	0.410187	0.900432	0.908978
	Zn216	Zn	0.500914	-0.003027	0.755324
	Zn217	Zn	0.501512	-0.001747	0.253936
	Zn218	Zn	0.752274	0.497145	0.003211
	Zn219	Zn	0.253170	0.497505	0.003311
	Zn220	Zn	0.001248	0.746010	0.503551
	Zn221	Zn	0.002073	0.247165	0.503201
	Zn222	Zn	0.003008	0.497130	0.752192
	Zn223	Zn	0.003011	0.496145	0.254163
	Zn224	Zn	0.502828	0.747954	0.005002
	Zn225	Zn	0.502502	0.247022	0.004468
	Zn226	Zn	0.752165	-0.002802	0.504899
	Zn227	Zn	0.251710	-0.003754	0.503946
	N228	N	0.413919	0.961234	0.684982
	N229	N	0.590084	0.032363	0.686746
	N230	N	0.589039	0.962833	0.323587
	N231	N	0.414261	0.032598	0.324078
	N232	N	0.681622	0.411194	0.967240
	N233	N	0.682511	0.583933	0.038706
	N234	N	0.323319	0.584754	0.967780
	N235	N	0.325338	0.413269	0.039843
	N236	N	0.965844	0.675869	0.416042
	N237	N	0.038026	0.675222	0.588794
	N238	N	0.966406	0.316844	0.590421
	N239	N	0.037475	0.315912	0.415402
	N240	N	0.966757	0.409800	0.683147
	N241	N	0.037812	0.584164	0.682787
	N242	N	0.966457	0.582482	0.323783
	N243	N	0.038830	0.410975	0.325358
	N244	N	0.415040	0.678812	0.969108
	N245	N	0.589160	0.676548	0.040164
	N246	N	0.591331	0.315198	0.969108
	N247	N	0.415120	0.317304	0.039026
	N248	N	0.680090	0.961533	0.419146
	N249	N	0.682122	0.033341	0.591988
	N250	N	0.323047	0.960214	0.589528
	N251	N	0.321185	0.031806	0.416948
	N252	N	0.915893	0.460926	0.183689
	N253	N	0.091321	0.531193	0.185245
	N254	N	0.091262	0.461662	0.821307
	N255	N	0.914349	0.531758	0.820907
	N256	N	0.180322	0.910502	0.467632
	N257	N	0.181437	0.082848	0.540154
	N258	N	0.822248	0.083474	0.468533
	N259	N	0.821901	0.909928	0.540997
	N260	N	0.466320	0.178280	0.916456
	N261	N	0.537701	0.177971	0.091751
	N262	N	0.467088	0.817367	0.092477
	N263	N	0.538478	0.817786	0.918044
	N264	N	0.466043	0.912405	0.182818
	N265	N	0.537176	0.085792	0.184770
	N266	N	0.464915	0.083604	0.825094
	N267	N	0.537353	0.909504	0.824196
	N268	N	0.913240	0.178392	0.469018
	N269	N	0.090263	0.178082	0.538795
	N270	N	0.087747	0.816885	0.467933
	N271	N	0.911946	0.813751	0.538737
	N272	N	0.183893	0.461447	0.915842
	N273	N	0.181524	0.533199	0.089020
	N274	N	0.822993	0.460969	0.089606
	N275	N	0.823302	0.533485	0.916691
	O276	O	0.350555	0.414498	0.520872
	H277	H	0.358717	0.408589	0.526685
	H278	H	0.345564	0.406498	0.529824
	O279	O	0.325979	0.433521	0.662276
	H280	H	0.345692	0.428760	0.669189
	H281	H	0.328722	0.436701	0.667773
	O282	O	0.447757	0.566573	0.431746
	H283	H	0.450932	0.545651	0.445062
	H284	H	0.454208	0.570351	0.429690
	O285	O	0.432844	0.531536	0.310558
	H286	H	0.420954	0.527737	0.307973
	H287	H	0.423126	0.514059	0.312576
	O288	O	0.528558	0.593112	0.460039
	H289	H	0.512507	0.590719	0.460443
	H290	H	0.527798	0.587577	0.462272
	O291	O	0.382166	0.535764	0.536836
	H292	H	0.364584	0.541579	0.533681
	H293	H	0.385139	0.540844	0.543071
	O294	O	0.855077	1.089795	0.953193
	H295	H	0.849542	1.092206	0.951628
	H296	H	0.850171	1.087292	0.967817
	O297	O	0.999138	-0.189555	0.133347
	H298	H	0.994060	-0.192951	0.127310
	H299	H	0.993126	-0.190387	0.141085
	O300	O	0.444479	0.456953	0.578237
	H301	H	0.441763	0.451705	0.597677
	H302	H	0.463628	0.447655	0.568460
	O303	O	0.684703	0.336022	0.334118
	H304	H	0.666760	0.352371	0.333265
	H305	H	0.693752	0.343913	0.346035
	O306	O	0.067930	0.010056	0.830665
	H307	H	0.064317	0.017363	0.846020
	H308	H	0.078265	0.029144	0.813670
	O309	O	1.051257	0.005864	-0.022942
	H310	H	1.051577	0.021332	-0.034191
	H311	H	1.054176	0.011039	-0.030311
	O312	O	0.601109	0.382260	0.615544
	H313	H	0.592649	0.394359	0.623305
	H314	H	0.597158	0.387049	0.617259
	O315	O	0.476999	0.535146	0.573070
	H316	H	0.468748	0.535409	0.571268
	H317	H	0.477246	0.532990	0.562830
	O318	O	-0.132860	0.157852	-0.043662
	H319	H	-0.133170	0.157001	-0.047754
	H320	H	-0.137661	0.152817	-0.039137
	O321	O	0.495058	0.462240	0.674516
	H322	H	0.511117	0.444541	0.684153
	H323	H	0.516624	0.485401	0.683797
	O324	O	0.999969	0.211018	0.830556
	H325	H	0.998787	0.226208	0.831061
	H326	H	0.982864	0.220113	0.828720
	O327	O	0.614754	0.677393	0.548223
	H328	H	0.615048	0.680051	0.550909
	H329	H	0.590772	0.683600	0.541725
	O330	O	0.163828	1.197678	1.191535
	H331	H	0.158548	1.214301	1.213979
	H332	H	0.173222	1.159378	1.194770
	O333	O	0.044473	0.837404	0.115630
	H334	H	0.062624	0.845100	0.097446
	H335	H	0.033145	0.829928	0.122451
	O336	O	1.064247	1.119261	0.068977
	H337	H	1.075209	1.121020	0.084824
	H338	H	1.062739	1.117804	0.067562
	O339	O	0.523498	1.341239	0.695432
	H340	H	0.535969	1.344832	0.706685
	H341	H	0.535731	1.343741	0.688099
	O342	O	0.336797	0.601333	0.415915
	H343	H	0.332109	0.594307	0.415027
	H344	H	0.336942	0.607276	0.412910
	O345	O	0.196260	0.008359	0.974154
	H346	H	0.202284	0.020306	0.953994
	H347	H	0.197512	0.009968	0.967771
	O348	O	0.694900	0.298964	0.479803
	H349	H	0.719047	0.287468	0.482436
	H350	H	0.699282	0.312326	0.475657
	O351	O	0.804675	0.983041	0.211540
	H352	H	0.777322	0.985647	0.229871
	H353	H	0.830178	1.002811	0.216754
	O354	O	0.811405	0.782328	1.019835
	H355	H	0.833478	0.767804	1.009641
	H356	H	0.802976	0.766776	1.021201
	O357	O	-0.814905	0.809704	0.818064
	H358	H	-0.818821	0.822435	0.831658
	H359	H	-0.822145	0.818206	0.833250
	O360	O	0.399918	0.702606	0.492118
	H361	H	0.393573	0.715573	0.500849
	H362	H	0.412703	0.698741	0.490492
	O363	O	1.166343	0.177066	0.018328
	H364	H	1.157671	0.172287	0.046700
	H365	H	1.182039	0.197097	0.037891
	O366	O	-0.349474	-0.379351	1.422401
	H367	H	-0.357862	-0.371872	1.449625
	H368	H	-0.329615	-0.358536	1.414775
	O369	O	0.427209	-0.603888	0.515513
	H370	H	0.424084	-0.595638	0.543002
	H371	H	0.410339	-0.612038	0.527960
	O372	O	0.631097	0.517702	0.641620
	H373	H	0.613956	0.535905	0.642623
	H374	H	0.633584	0.536387	0.628493
	O375	O	0.187724	0.051750	0.832161
	H376	H	0.181848	0.054968	0.815814
	H377	H	0.178037	0.056465	0.834601
	O378	O	0.202624	0.049957	0.139038
	H379	H	0.200196	0.044465	0.126054
	H380	H	0.205556	0.042115	0.134913
	O381	O	-0.135445	1.207275	-0.163629
	H382	H	-0.132811	1.190485	-0.163847
	H383	H	-0.142311	1.200255	-0.166666
	O384	O	-0.057705	0.948147	-0.081713
	H385	H	-0.052507	0.954900	-0.083076
	H386	H	-0.070582	0.961283	-0.082071
	O387	O	0.916795	0.067950	1.193761
	H388	H	0.923413	0.074590	1.179276
	H389	H	0.934257	0.058139	1.198044
	O390	O	1.804751	-0.201692	0.184210
	H391	H	1.786409	-0.208684	0.174766
	H392	H	1.800630	-0.172971	0.174969
	O393	O	0.863919	-0.018659	0.960904
	H394	H	0.865005	-0.037242	0.958696
	H395	H	0.854490	-0.008575	0.973829
	O396	O	0.982975	1.157157	0.197765
	H397	H	0.980933	1.150723	0.191933
	H398	H	0.989536	1.177220	0.206858
	O399	O	-0.060634	0.827270	0.882797
	H400	H	-0.060026	0.808008	0.888404
	H401	H	-0.047095	0.831180	0.888272
	O402	O	0.990708	1.149876	0.010804
	H403	H	0.993114	1.154251	0.020312
	H404	H	0.984790	1.146403	0.015985
	O405	O	0.364313	0.614214	0.513774
	H406	H	0.359298	0.598480	0.519369
	H407	H	0.349833	0.614919	0.498516
	O408	O	0.408940	0.353294	0.496868
	H409	H	0.424327	0.346850	0.505263
	H410	H	0.396660	0.345222	0.507970
	O411	O	0.927510	1.034769	1.080264
	H412	H	0.937729	1.035868	1.084502
	H413	H	0.927036	1.036647	1.069666
	O414	O	0.443055	0.355983	0.462319
	H415	H	0.445159	0.344896	0.473212
	H416	H	0.451999	0.370420	0.456042
	O417	O	-0.155941	1.054675	0.794808
	H418	H	-0.145873	1.028121	0.805353
	H419	H	-0.172231	1.048246	0.771840
	O420	O	0.573756	1.635432	0.419492
	H421	H	0.551126	1.651521	0.423253
	H422	H	0.572426	1.624009	0.409153
	O423	O	0.209863	0.795580	-0.021273
	H424	H	0.228807	0.792589	-0.011200
	H425	H	0.199221	0.796577	-0.015518
	O426	O	0.037453	0.819683	0.190389
	H427	H	0.012038	0.836413	0.173924
	H428	H	0.019479	0.791847	0.213115
	O429	O	0.638853	0.590659	0.662293
	H430	H	0.638445	0.601713	0.656680
	H431	H	0.657563	0.582459	0.665586
	O432	O	0.675955	0.531765	0.369244
	H433	H	0.660824	0.539309	0.368694
	H434	H	0.669371	0.547886	0.390314
	O435	O	0.035404	-0.091782	0.023168
	H436	H	0.051080	-0.086667	0.020493
	H437	H	0.033297	-0.100854	0.037804
	O438	O	-0.051572	0.879075	0.822455
	H439	H	-0.043232	0.877409	0.820995
	H440	H	-0.055301	0.876963	0.825009
	O441	O	0.525347	0.292192	0.298414
	H442	H	0.533876	0.294840	0.308989
	H443	H	0.524284	0.267286	0.281125
