data_Molecule from HDF5

_cell_length_a		16.510423
_cell_length_b		16.529191
_cell_length_c		16.440810
_cell_angle_alpha	89.861261
_cell_angle_beta	90.111436
_cell_angle_gamma	90.007706
_symmetry_space_group_name_H-M	'P 1'
_symmetry_Int_Tables_number		1

loop_
	_symmetry_equiv_pos_as_xyz
	x,y,z

loop_
	_atom_site_label
	_atom_site_type_symbol
	_atom_site_fract_x
	_atom_site_fract_y
	_atom_site_fract_z
	H0	H	0.388846	0.844578	0.719515
	H1	H	0.600522	0.159885	0.716397
	H2	H	0.598973	0.844021	0.275886
	H3	H	0.391695	0.157646	0.273975
	H4	H	0.715850	0.395366	0.835998
	H5	H	0.715204	0.603801	0.151645
	H6	H	0.270618	0.611685	0.835992
	H7	H	0.274996	0.398799	0.151257
	H8	H	0.838503	0.724324	0.389297
	H9	H	0.151649	0.726316	0.605146
	H10	H	0.838141	0.277403	0.603523
	H11	H	0.151722	0.280771	0.391897
	H12	H	0.836629	0.396475	0.715772
	H13	H	0.150696	0.610781	0.721086
	H14	H	0.836880	0.606362	0.273676
	H15	H	0.152158	0.397958	0.274645
	H16	H	0.389766	0.723951	0.835579
	H17	H	0.600496	0.722031	0.151005
	H18	H	0.601740	0.278877	0.836596
	H19	H	0.392150	0.282199	0.151569
	H20	H	0.716143	0.844707	0.391991
	H21	H	0.717470	0.158819	0.601908
	H22	H	0.272018	0.843869	0.604218
	H23	H	0.273533	0.157859	0.390011
	H24	H	0.889200	0.343605	0.217296
	H25	H	0.096946	0.658854	0.214347
	H26	H	0.099512	0.343262	0.773633
	H27	H	0.890585	0.658136	0.772321
	H28	H	0.213738	0.899213	0.337882
	H29	H	0.218434	0.107757	0.654223
	H30	H	0.774321	0.107629	0.338219
	H31	H	0.775983	0.897839	0.654447
	H32	H	0.338119	0.225407	0.886417
	H33	H	0.651120	0.224764	0.101579
	H34	H	0.338335	0.778380	0.100986
	H35	H	0.650448	0.778391	0.887334
	H36	H	0.336614	0.897673	0.214945
	H37	H	0.651779	0.106543	0.216688
	H38	H	0.337246	0.109582	0.771090
	H39	H	0.651536	0.896504	0.773305
	H40	H	0.889307	0.224027	0.339652
	H41	H	0.102883	0.223568	0.654244
	H42	H	0.098574	0.783198	0.337713
	H43	H	0.891157	0.779534	0.652817
	H44	H	0.218468	0.344893	0.886022
	H45	H	0.214191	0.659494	0.097894
	H46	H	0.772961	0.342789	0.099746
	H47	H	0.773608	0.658591	0.888244
	H48	H	0.408998	0.109719	0.577540
	H49	H	0.578381	0.889479	0.590516
	H50	H	0.582362	0.114418	0.404353
	H51	H	0.403329	0.888649	0.408448
	H52	H	0.583825	0.411641	0.106710
	H53	H	0.584312	0.592701	0.878822
	H54	H	0.401419	0.586502	0.106607
	H55	H	0.406045	0.409490	0.878746
	H56	H	0.107138	0.588561	0.404577
	H57	H	0.884797	0.591792	0.580322
	H58	H	0.108608	0.415338	0.592058
	H59	H	0.882252	0.415680	0.403918
	H60	H	0.108729	0.403484	0.581564
	H61	H	0.885994	0.587426	0.579625
	H62	H	0.108950	0.594278	0.403085
	H63	H	0.880507	0.407550	0.405197
	H64	H	0.410259	0.588747	0.103839
	H65	H	0.585210	0.588341	0.880515
	H66	H	0.583761	0.413554	0.106780
	H67	H	0.402799	0.416640	0.879545
	H68	H	0.584036	0.113282	0.409223
	H69	H	0.582928	0.892389	0.577565
	H70	H	0.401336	0.114335	0.582303
	H71	H	0.403215	0.886922	0.405330
	H72	H	0.903620	0.613348	0.084101
	H73	H	0.082917	0.385930	0.093919
	H74	H	0.077644	0.612827	0.901446
	H75	H	0.896710	0.387758	0.913495
	H76	H	0.080313	0.919955	0.606494
	H77	H	0.076071	0.090162	0.387144
	H78	H	0.908520	0.085808	0.607613
	H79	H	0.905955	0.917668	0.383550
	H80	H	0.606663	0.090869	0.905113
	H81	H	0.382283	0.087324	0.087439
	H82	H	0.605817	0.911397	0.081657
	H83	H	0.381677	0.908069	0.912011
	H84	H	0.607910	0.913359	0.087801
	H85	H	0.380759	0.096418	0.082654
	H86	H	0.605884	0.092027	0.907516
	H87	H	0.386025	0.920699	0.912025
	H88	H	0.910404	0.091678	0.609506
	H89	H	0.086030	0.099330	0.380096
	H90	H	0.078623	0.906501	0.610198
	H91	H	0.908606	0.910003	0.382506
	H92	H	0.080309	0.610023	0.911940
	H93	H	0.077504	0.393222	0.078151
	H94	H	0.903751	0.613254	0.084342
	H95	H	0.903766	0.384087	0.895443
	H96	H	0.409817	0.113045	0.587030
	H97	H	0.591336	0.886882	0.586871
	H98	H	0.587107	0.116068	0.405914
	H99	H	0.406223	0.888475	0.406162
	H100	H	0.582480	0.412410	0.105762
	H101	H	0.580620	0.590103	0.881393
	H102	H	0.404883	0.594917	0.107660
	H103	H	0.409829	0.416020	0.881821
	H104	H	0.106849	0.593522	0.408687
	H105	H	0.884453	0.588661	0.584012
	H106	H	0.102769	0.417498	0.577490
	H107	H	0.883026	0.411985	0.411275
	H108	H	0.903910	0.613627	0.084120
	H109	H	0.094097	0.386681	0.079896
	H110	H	0.088376	0.614724	0.905691
	H111	H	0.915371	0.393630	0.908472
	H112	H	0.090962	0.913043	0.611904
	H113	H	0.089899	0.085252	0.383511
	H114	H	0.903551	0.089536	0.609960
	H115	H	0.901269	0.911790	0.381148
	H116	H	0.605702	0.089120	0.907069
	H117	H	0.385287	0.088383	0.077699
	H118	H	0.609485	0.906923	0.086130
	H119	H	0.381579	0.915291	0.901094
	C120	C	0.373242	0.009362	0.617015
	C121	C	0.616952	0.993409	0.617379
	C122	C	0.616258	0.010402	0.374618
	C123	C	0.373066	0.992180	0.374132
	C124	C	0.616330	0.379633	0.002435
	C125	C	0.616147	0.622595	0.984870
	C126	C	0.372785	0.623300	0.001751
	C127	C	0.373943	0.381230	0.984539
	C128	C	0.003180	0.623641	0.373222
	C129	C	0.987658	0.622751	0.616164
	C130	C	0.002899	0.379405	0.616644
	C131	C	0.986144	0.380290	0.374820
	C132	C	0.872310	0.509010	0.116142
	C133	C	0.115853	0.493193	0.115411
	C134	C	0.115602	0.509196	0.872447
	C135	C	0.873295	0.492290	0.873152
	C136	C	0.115583	0.881114	0.504935
	C137	C	0.117121	0.123523	0.488061
	C138	C	0.874586	0.122209	0.504880
	C139	C	0.873460	0.880344	0.486924
	C140	C	0.503017	0.123931	0.872386
	C141	C	0.486679	0.122727	0.115304
	C142	C	0.503470	0.878925	0.116720
	C143	C	0.486457	0.881956	0.875010
	C144	C	0.369868	0.891686	0.679542
	C145	C	0.618748	0.112094	0.676780
	C146	C	0.618019	0.891611	0.315547
	C147	C	0.371894	0.110590	0.313747
	C148	C	0.676396	0.376989	0.883643
	C149	C	0.675826	0.623545	0.104082
	C150	C	0.311782	0.627963	0.883229
	C151	C	0.314672	0.379428	0.103909
	C152	C	0.885318	0.683920	0.371090
	C153	C	0.104677	0.685029	0.621704
	C154	C	0.885094	0.318073	0.620659
	C155	C	0.104774	0.320658	0.372933
	C156	C	0.884214	0.377600	0.676452
	C157	C	0.104356	0.627121	0.679537
	C158	C	0.884713	0.625326	0.313487
	C159	C	0.104830	0.378643	0.314765
	C160	C	0.370564	0.684309	0.883211
	C161	C	0.618772	0.682122	0.103802
	C162	C	0.619609	0.318946	0.883888
	C163	C	0.372657	0.321666	0.104129
	C164	C	0.676264	0.891860	0.373310
	C165	C	0.677245	0.111672	0.619682
	C166	C	0.312129	0.891377	0.621700
	C167	C	0.313614	0.110595	0.371574
	C168	C	0.870694	0.390519	0.176633
	C169	C	0.116347	0.611786	0.174529
	C170	C	0.118334	0.390999	0.812239
	C171	C	0.871738	0.610911	0.812534
	C172	C	0.174417	0.880156	0.385463
	C173	C	0.177966	0.125583	0.606702
	C174	C	0.814246	0.125614	0.385963
	C175	C	0.814863	0.878390	0.606440
	C176	C	0.385426	0.185390	0.868588
	C177	C	0.604491	0.183599	0.118695
	C178	C	0.385095	0.818931	0.119096
	C179	C	0.603895	0.820050	0.870659
	C180	C	0.384434	0.878119	0.175835
	C181	C	0.604737	0.124805	0.176035
	C182	C	0.384929	0.127318	0.811032
	C183	C	0.604436	0.878711	0.813673
	C184	C	0.871432	0.183327	0.386274
	C185	C	0.120364	0.183485	0.606810
	C186	C	0.117139	0.822597	0.385359
	C187	C	0.872138	0.820015	0.605757
	C188	C	0.177396	0.391808	0.868793
	C189	C	0.174399	0.612105	0.116551
	C190	C	0.812746	0.390435	0.118313
	C191	C	0.813704	0.611163	0.870322
	C192	C	0.399258	0.090999	0.590027
	C193	C	0.591630	0.911037	0.592210
	C194	C	0.591652	0.092975	0.399296
	C195	C	0.397416	0.909521	0.399414
	C196	C	0.590624	0.405122	0.084771
	C197	C	0.590708	0.597741	0.901816
	C198	C	0.398128	0.597229	0.084493
	C199	C	0.399150	0.406539	0.901949
	C200	C	0.086075	0.598981	0.398333
	C201	C	0.906155	0.596582	0.588934
	C202	C	0.085233	0.404720	0.591023
	C203	C	0.903536	0.404777	0.399741
	C204	C	0.896764	0.591890	0.091236
	C205	C	0.091758	0.410214	0.090914
	C206	C	0.089534	0.591161	0.898665
	C207	C	0.898026	0.410010	0.898670
	C208	C	0.090518	0.905833	0.587840
	C209	C	0.091490	0.098715	0.405157
	C210	C	0.900213	0.096443	0.587317
	C211	C	0.898074	0.905729	0.404007
	C212	C	0.584876	0.097800	0.898965
	C213	C	0.404366	0.097738	0.089893
	C214	C	0.586270	0.903528	0.092175
	C215	C	0.404494	0.907516	0.901030
	Zn216	Zn	0.494308	0.002081	0.744754
	Zn217	Zn	0.495048	0.000983	0.245101
	Zn218	Zn	0.743902	0.500960	-0.006318
	Zn219	Zn	0.244764	0.502340	-0.006897
	Zn220	Zn	-0.004195	0.752341	0.495548
	Zn221	Zn	-0.005166	0.250752	0.496393
	Zn222	Zn	-0.005194	0.500954	0.744407
	Zn223	Zn	-0.005719	0.500968	0.244834
	Zn224	Zn	0.494338	0.751025	-0.006073
	Zn225	Zn	0.494784	0.252401	-0.006189
	Zn226	Zn	0.745564	0.002378	0.496300
	Zn227	Zn	0.244242	0.000729	0.496398
	N228	N	0.406997	0.966063	0.676723
	N229	N	0.581758	0.037493	0.675541
	N230	N	0.581558	0.966320	0.316183
	N231	N	0.408098	0.035881	0.315332
	N232	N	0.674291	0.414235	0.958116
	N233	N	0.674318	0.587529	0.028967
	N234	N	0.313089	0.590886	0.958166
	N235	N	0.315008	0.415492	0.028562
	N236	N	0.960151	0.683028	0.407373
	N237	N	0.031101	0.682449	0.582722
	N238	N	0.960013	0.319109	0.584472
	N239	N	0.029931	0.321456	0.409347
	N240	N	0.958699	0.414625	0.674588
	N241	N	0.030721	0.588586	0.675690
	N242	N	0.959321	0.588699	0.314563
	N243	N	0.030161	0.415141	0.315862
	N244	N	0.407772	0.681639	0.958072
	N245	N	0.582550	0.681747	0.028492
	N246	N	0.582985	0.320185	0.958944
	N247	N	0.408362	0.322471	0.028747
	N248	N	0.675392	0.966785	0.409348
	N249	N	0.676282	0.036831	0.583681
	N250	N	0.314041	0.965536	0.583622
	N251	N	0.314029	0.035926	0.408346
	N252	N	0.906761	0.465478	0.175515
	N253	N	0.080793	0.536626	0.174122
	N254	N	0.080808	0.465202	0.814398
	N255	N	0.907750	0.536099	0.813907
	N256	N	0.173579	0.915696	0.460846
	N257	N	0.176049	0.089081	0.531726
	N258	N	0.816021	0.088334	0.460626
	N259	N	0.815473	0.915070	0.531502
	N260	N	0.459989	0.183595	0.905861
	N261	N	0.530113	0.182297	0.081374
	N262	N	0.460089	0.819295	0.083188
	N263	N	0.529720	0.822267	0.908364
	N264	N	0.459291	0.914495	0.174731
	N265	N	0.530551	0.087372	0.173820
	N266	N	0.459194	0.089940	0.813280
	N267	N	0.530547	0.916788	0.816274
	N268	N	0.908252	0.181428	0.461302
	N269	N	0.083289	0.182386	0.531826
	N270	N	0.081516	0.822930	0.460774
	N271	N	0.907660	0.821030	0.530305
	N272	N	0.175759	0.466391	0.905563
	N273	N	0.174147	0.537240	0.080440
	N274	N	0.813575	0.465215	0.081578
	N275	N	0.814386	0.536396	0.907129
	O276	O	0.460641	0.455888	0.282132
	H277	H	0.469962	0.425574	0.280619
	H278	H	0.459322	0.452999	0.280370
	O279	O	0.590725	0.613603	0.417660
	H280	H	0.600945	0.610739	0.421025
	H281	H	0.595494	0.613283	0.421092
	O282	O	1.229180	1.230235	0.228542
	H283	H	1.248490	1.235678	0.246151
	H284	H	1.234650	1.237606	0.195453
	O285	O	0.448117	0.288039	0.459215
	H286	H	0.447666	0.279501	0.462345
	H287	H	0.430083	0.300144	0.462955
	O288	O	-0.185668	0.118211	-0.214789
	H289	H	-0.189010	0.124481	-0.203193
	H290	H	-0.152835	0.132225	-0.217613
	O291	O	1.454604	0.712724	0.289903
	H292	H	1.445124	0.704723	0.290244
	H293	H	1.462905	0.725457	0.275087
	O294	O	-0.071701	1.134405	0.153309
	H295	H	-0.063448	1.124680	0.140328
	H296	H	-0.063379	1.122706	0.144342
	O297	O	0.283601	0.537370	0.294709
	H298	H	0.266119	0.532097	0.291285
	H299	H	0.290562	0.513861	0.301879
	O300	O	0.547133	0.606215	0.341495
	H301	H	0.528755	0.584843	0.333838
	H302	H	0.518418	0.628435	0.343642
	O303	O	0.324065	0.312187	0.682430
	H304	H	0.334607	0.339044	0.695917
	H305	H	0.354717	0.324670	0.692930
	O306	O	0.209799	0.809706	0.958302
	H307	H	0.213008	0.804613	0.937241
	H308	H	0.217541	0.791774	0.958026
	O309	O	0.711574	0.529690	0.711720
	H310	H	0.716860	0.557123	0.722155
	H311	H	0.727689	0.551246	0.727534
	O312	O	0.421628	0.561298	0.647570
	H313	H	0.415548	0.556292	0.628350
	H314	H	0.432336	0.563548	0.639827
	O315	O	-0.008505	-0.066803	1.126958
	H316	H	0.004943	-0.071744	1.131360
	H317	H	-0.008300	-0.043647	1.126973
	O318	O	0.068308	1.077989	-0.040547
	H319	H	0.075808	1.093824	-0.046391
	H320	H	0.062189	1.077881	-0.030800
	O321	O	0.711924	0.692966	0.515141
	H322	H	0.703724	0.679788	0.515380
	H323	H	0.731782	0.712620	0.519879
	O324	O	0.790479	0.116773	0.791944
	H325	H	0.769597	0.110518	0.776036
	H326	H	0.795594	0.137054	0.807964
	O327	O	0.887564	-0.005685	0.962046
	H328	H	0.892018	0.006477	0.959480
	H329	H	0.902069	-0.026558	0.965983
	O330	O	0.978015	-0.184572	0.206069
	H331	H	0.964458	-0.200313	0.218668
	H332	H	0.944997	-0.180986	0.215588
	O333	O	0.806888	0.798053	0.814127
	H334	H	0.828549	0.804142	0.822318
	H335	H	0.816980	0.822467	0.818178
	O336	O	0.975386	0.210189	0.781568
	H337	H	0.963660	0.198681	0.774511
	H338	H	0.984319	0.223219	0.757262
	O339	O	0.279133	0.284412	0.517425
	H340	H	0.255394	0.261611	0.540336
	H341	H	0.290091	0.284603	0.542070
	O342	O	0.300429	0.351165	0.346815
	H343	H	0.307901	0.352471	0.372863
	H344	H	0.310712	0.342598	0.340377
	O345	O	0.157526	0.058838	-0.067432
	H346	H	0.148333	0.051573	-0.041962
	H347	H	0.162059	0.077834	-0.044526
	O348	O	0.953193	-0.169669	1.008564
	H349	H	0.955428	-0.166553	1.012822
	H350	H	0.956761	-0.174940	1.020752
	O351	O	1.155711	0.824207	0.153993
	H352	H	1.148619	0.819990	0.150703
	H353	H	1.138740	0.823754	0.153673
	O354	O	0.571741	0.355368	0.631850
	H355	H	0.578506	0.345541	0.640065
	H356	H	0.585176	0.370773	0.643235
	O357	O	1.064743	1.052142	1.113272
	H358	H	1.052277	1.048316	1.112711
	H359	H	1.068684	1.062583	1.101055
	O360	O	0.559291	0.312116	0.642756
	H361	H	0.566466	0.334197	0.645225
	H362	H	0.556638	0.294541	0.634635
	O363	O	0.436087	0.497952	0.544722
	H364	H	0.438400	0.517676	0.548044
	H365	H	0.432631	0.487464	0.549224
	O366	O	0.974368	-0.004652	0.828811
	H367	H	0.963728	0.011854	0.828662
	H368	H	0.985909	0.002786	0.834753
	O369	O	0.294143	0.692153	0.299081
	H370	H	0.319487	0.670770	0.292790
	H371	H	0.275741	0.682481	0.286877
	O372	O	0.503619	0.473470	0.671923
	H373	H	0.490277	0.474361	0.679793
	H374	H	0.505603	0.488990	0.658883
	O375	O	0.193475	0.983395	0.780555
	H376	H	0.217576	0.993783	0.780584
	H377	H	0.213394	1.000391	0.788451
	O378	O	0.508486	0.294903	0.295546
	H379	H	0.545698	0.292471	0.298432
	H380	H	0.516904	0.277334	0.298950
	O381	O	0.820658	-0.049353	-0.055892
	H382	H	0.828378	-0.029060	-0.055204
	H383	H	0.813829	-0.040883	-0.058721
	O384	O	-0.146008	0.025123	1.097108
	H385	H	-0.151245	0.004719	1.110058
	H386	H	-0.138529	0.016007	1.090391
	O387	O	-0.027054	0.809474	0.815789
	H388	H	-0.017789	0.817637	0.834950
	H389	H	-0.021786	0.815320	0.813770
	O390	O	0.214959	-0.040146	1.030819
	H391	H	0.217464	-0.057790	1.049331
	H392	H	0.214074	-0.054280	1.039921
	O393	O	0.782863	0.792470	0.030847
	H394	H	0.792600	0.800764	0.007097
	H395	H	0.757667	0.780513	0.014802
	O396	O	0.319805	0.472517	0.426395
	H397	H	0.327719	0.457794	0.434806
	H398	H	0.316978	0.472589	0.442778
	O399	O	0.698892	0.295859	0.471590
	H400	H	0.716463	0.281158	0.453045
	H401	H	0.689183	0.297170	0.482021
	O402	O	-0.109510	0.170780	1.081558
	H403	H	-0.101226	0.167167	1.099274
	H404	H	-0.124309	0.164079	1.079256
	O405	O	0.216270	0.216935	0.021972
	H406	H	0.223765	0.236015	0.026761
	H407	H	0.204659	0.230349	0.009260
	O408	O	0.772478	1.144250	0.983522
	H409	H	0.746585	1.158902	0.986060
	H410	H	0.773515	1.128697	0.983610
	O411	O	0.297708	0.587045	0.553600
	H412	H	0.294210	0.594033	0.545415
	H413	H	0.303930	0.600914	0.536474
	O414	O	0.664289	0.690661	0.319163
	H415	H	0.657304	0.683980	0.333581
	H416	H	0.657470	0.677554	0.332509
	O417	O	0.522828	0.666606	0.676820
	H418	H	0.526269	0.677271	0.675326
	H419	H	0.512754	0.672437	0.670463
	O420	O	0.677107	0.305344	0.303066
	H421	H	0.701298	0.315220	0.280243
	H422	H	0.692534	0.319998	0.321861
	O423	O	-0.207656	0.801097	0.198870
	H424	H	-0.229842	0.797355	0.210513
	H425	H	-0.212180	0.798951	0.152793
	O426	O	1.182848	1.058703	1.188571
	H427	H	1.186944	1.074071	1.194983
	H428	H	1.194979	1.058335	1.198468
	O429	O	0.634885	0.509564	0.546963
	H430	H	0.625728	0.503962	0.543547
	H431	H	0.641576	0.524331	0.564204
	O432	O	0.465086	0.678770	0.542035
	H433	H	0.473993	0.667304	0.542953
	H434	H	0.452422	0.683903	0.525819
	O435	O	0.063618	0.023498	-0.091005
	H436	H	0.059280	0.006540	-0.099930
	H437	H	0.073299	0.019104	-0.071979
	O438	O	1.022807	0.204270	0.205251
	H439	H	1.054098	0.202355	0.205606
	H440	H	1.041432	0.210131	0.216773
	O441	O	0.284952	0.481815	0.703289
	H442	H	0.256021	0.488146	0.723045
	H443	H	0.286023	0.494212	0.681103
	O444	O	0.140052	0.822501	0.821134
	H445	H	0.154358	0.850534	0.815443
	H446	H	0.116615	0.836341	0.819950
	O447	O	0.678726	0.683805	0.683238
	H448	H	0.695307	0.702335	0.665151
	H449	H	0.659484	0.697707	0.696307
	O450	O	0.539885	0.547187	0.440462
	H451	H	0.546034	0.546515	0.442275
	H452	H	0.537863	0.535420	0.431774
	O453	O	0.706336	0.467595	0.286252
	H454	H	0.716073	0.476256	0.294486
	H455	H	0.704182	0.485515	0.271698
	O456	O	0.979446	0.191099	-0.066398
	H457	H	0.957187	0.188030	-0.073211
	H458	H	0.958723	0.193356	-0.058153
	O459	O	0.656075	0.421069	0.514264
	H460	H	0.657183	0.425619	0.514675
	H461	H	0.657507	0.427124	0.527736
	O462	O	0.275084	0.719745	0.467988
	H463	H	0.248709	0.743173	0.458301
	H464	H	0.279442	0.715940	0.434842
	O465	O	0.784303	-0.031931	0.208815
	H466	H	0.786580	-0.041978	0.213207
	H467	H	0.777281	-0.037712	0.227378
