data_Molecule from HDF5

_cell_length_a		16.480104
_cell_length_b		16.089755
_cell_length_c		16.281368
_cell_angle_alpha	89.685527
_cell_angle_beta	89.768338
_cell_angle_gamma	90.407886
_symmetry_space_group_name_H-M	'P 1'
_symmetry_Int_Tables_number		1

loop_
	_symmetry_equiv_pos_as_xyz
	x,y,z

loop_
	_atom_site_label
	_atom_site_type_symbol
	_atom_site_fract_x
	_atom_site_fract_y
	_atom_site_fract_z
	H0	H	0.386780	0.841044	0.714568
	H1	H	0.584538	0.171569	0.709456
	H2	H	0.588015	0.840974	0.284012
	H3	H	0.390273	0.170463	0.282701
	H4	H	0.707362	0.399372	0.836476
	H5	H	0.709695	0.609160	0.157332
	H6	H	0.270366	0.610784	0.836817
	H7	H	0.264837	0.397586	0.158717
	H8	H	0.825492	0.722493	0.395093
	H9	H	0.148597	0.722817	0.592449
	H10	H	0.826805	0.286947	0.597557
	H11	H	0.149357	0.290678	0.396504
	H12	H	0.829124	0.397559	0.718436
	H13	H	0.148280	0.608842	0.713102
	H14	H	0.827619	0.607522	0.276614
	H15	H	0.148245	0.404236	0.277574
	H16	H	0.392996	0.720283	0.834929
	H17	H	0.588635	0.719218	0.161136
	H18	H	0.582686	0.294309	0.833231
	H19	H	0.387003	0.288490	0.161406
	H20	H	0.703774	0.841729	0.396835
	H21	H	0.704715	0.169316	0.599431
	H22	H	0.268589	0.841817	0.601794
	H23	H	0.273251	0.169961	0.395866
	H24	H	0.886415	0.340686	0.214493
	H25	H	0.087899	0.669347	0.209802
	H26	H	0.087121	0.339825	0.782380
	H27	H	0.891288	0.668840	0.782283
	H28	H	0.207528	0.903051	0.336245
	H29	H	0.204770	0.107919	0.660169
	H30	H	0.769921	0.109931	0.336098
	H31	H	0.769431	0.901145	0.660278
	H32	H	0.324810	0.219194	0.901658
	H33	H	0.650025	0.222679	0.095551
	H34	H	0.327000	0.785977	0.099915
	H35	H	0.650369	0.793986	0.901691
	H36	H	0.326715	0.902261	0.217394
	H37	H	0.649009	0.107557	0.214567
	H38	H	0.326367	0.106593	0.780778
	H39	H	0.648672	0.906927	0.781296
	H40	H	0.892186	0.219554	0.333122
	H41	H	0.083848	0.218463	0.662236
	H42	H	0.081801	0.798315	0.330934
	H43	H	0.887990	0.788773	0.660081
	H44	H	0.204293	0.340733	0.896240
	H45	H	0.205840	0.667413	0.099656
	H46	H	0.769658	0.340912	0.100203
	H47	H	0.771988	0.666770	0.892301
	H48	H	0.400340	0.121277	0.590428
	H49	H	0.576325	0.886450	0.597578
	H50	H	0.570411	0.121994	0.400742
	H51	H	0.394556	0.886042	0.405975
	H52	H	0.591307	0.422078	0.115142
	H53	H	0.583884	0.603367	0.878907
	H54	H	0.397151	0.592353	0.113269
	H55	H	0.399612	0.416312	0.884766
	H56	H	0.100910	0.598945	0.401947
	H57	H	0.873137	0.594459	0.590012
	H58	H	0.098889	0.422835	0.587280
	H59	H	0.873721	0.415976	0.403092
	H60	H	0.105240	0.412065	0.596805
	H61	H	0.873670	0.595488	0.590105
	H62	H	0.102955	0.600932	0.399440
	H63	H	0.873538	0.411417	0.405876
	H64	H	0.395663	0.592810	0.113793
	H65	H	0.586822	0.593294	0.882048
	H66	H	0.570122	0.421976	0.107920
	H67	H	0.393119	0.410235	0.880815
	H68	H	0.578915	0.117965	0.419707
	H69	H	0.574136	0.890907	0.585226
	H70	H	0.393557	0.122779	0.584459
	H71	H	0.399486	0.890537	0.410693
	H72	H	0.899166	0.620449	0.086286
	H73	H	0.075135	0.386967	0.089787
	H74	H	0.087708	0.624381	0.903409
	H75	H	0.903272	0.389343	0.911892
	H76	H	0.078541	0.907322	0.614407
	H77	H	0.081358	0.105693	0.379670
	H78	H	0.891182	0.100122	0.615787
	H79	H	0.885429	0.919101	0.380106
	H80	H	0.603035	0.100250	0.898734
	H81	H	0.373747	0.099846	0.090165
	H82	H	0.602376	0.914661	0.092139
	H83	H	0.374838	0.914167	0.910087
	H84	H	0.602918	0.913636	0.095536
	H85	H	0.375535	0.092935	0.088535
	H86	H	0.602612	0.102845	0.906403
	H87	H	0.373484	0.915156	0.904866
	H88	H	0.890847	0.089479	0.611732
	H89	H	0.089304	0.093031	0.380757
	H90	H	0.085108	0.918723	0.613901
	H91	H	0.898037	0.921391	0.384638
	H92	H	0.075839	0.622206	0.899995
	H93	H	0.075336	0.389025	0.084632
	H94	H	0.896728	0.621518	0.083685
	H95	H	0.889799	0.386058	0.911809
	H96	H	0.392471	0.124825	0.592712
	H97	H	0.585898	0.886183	0.588541
	H98	H	0.590326	0.126846	0.403398
	H99	H	0.392134	0.889912	0.413310
	H100	H	0.578518	0.402916	0.116653
	H101	H	0.576787	0.597489	0.882925
	H102	H	0.395024	0.591686	0.113054
	H103	H	0.391072	0.419340	0.883045
	H104	H	0.102223	0.603298	0.403302
	H105	H	0.873311	0.594534	0.589663
	H106	H	0.102079	0.408249	0.582309
	H107	H	0.875033	0.415317	0.407322
	H108	H	0.896105	0.621850	0.087358
	H109	H	0.079929	0.386682	0.086715
	H110	H	0.079351	0.618524	0.911744
	H111	H	0.896704	0.385130	0.900021
	H112	H	0.072348	0.918079	0.610619
	H113	H	0.074732	0.092439	0.385414
	H114	H	0.900932	0.095481	0.612561
	H115	H	0.894671	0.909639	0.379705
	H116	H	0.601028	0.095208	0.905010
	H117	H	0.372734	0.094692	0.095471
	H118	H	0.603661	0.911861	0.092836
	H119	H	0.372088	0.910205	0.907178
	C120	C	0.365588	0.014225	0.619567
	C121	C	0.608051	0.996642	0.619267
	C122	C	0.609097	0.013822	0.378067
	C123	C	0.367062	0.997390	0.378454
	C124	C	0.608695	0.385048	0.005714
	C125	C	0.611689	0.627232	0.988728
	C126	C	0.367004	0.624889	0.006439
	C127	C	0.364140	0.383207	0.989793
	C128	C	-0.004316	0.629451	0.372262
	C129	C	0.979284	0.626558	0.618203
	C130	C	-0.003543	0.382450	0.619638
	C131	C	0.979809	0.384138	0.375032
	C132	C	0.866693	0.513265	0.117774
	C133	C	0.107679	0.495931	0.117102
	C134	C	0.110033	0.512919	0.875301
	C135	C	0.867558	0.495016	0.876432
	C136	C	0.107956	0.885928	0.505230
	C137	C	0.110228	0.127333	0.489509
	C138	C	0.866049	0.126356	0.506034
	C139	C	0.863823	0.884352	0.488680
	C140	C	0.495550	0.128419	0.875103
	C141	C	0.480229	0.126658	0.120120
	C142	C	0.496598	0.882130	0.123077
	C143	C	0.479552	0.884469	0.877744
	C144	C	0.366423	0.890290	0.676525
	C145	C	0.605553	0.121612	0.673177
	C146	C	0.607621	0.890333	0.321797
	C147	C	0.369775	0.121095	0.320909
	C148	C	0.666811	0.382649	0.884326
	C149	C	0.669924	0.627554	0.109632
	C150	C	0.309879	0.627916	0.884870
	C151	C	0.305190	0.380220	0.110729
	C152	C	0.873992	0.684756	0.374502
	C153	C	0.100241	0.684329	0.614406
	C154	C	0.875368	0.324804	0.618375
	C155	C	0.101080	0.328370	0.376236
	C156	C	0.876594	0.380164	0.678469
	C157	C	0.100223	0.627436	0.674125
	C158	C	0.875326	0.627946	0.315253
	C159	C	0.100383	0.385046	0.317189
	C160	C	0.370987	0.682513	0.883883
	C161	C	0.609508	0.682159	0.111806
	C162	C	0.604953	0.329964	0.882754
	C163	C	0.365902	0.325741	0.112201
	C164	C	0.665511	0.890705	0.378078
	C165	C	0.665105	0.120496	0.618273
	C166	C	0.307680	0.890770	0.620610
	C167	C	0.311263	0.120876	0.377162
	C168	C	0.866669	0.389863	0.176084
	C169	C	0.107682	0.619804	0.172629
	C170	C	0.107468	0.388975	0.820352
	C171	C	0.870119	0.619078	0.819641
	C172	C	0.166472	0.885778	0.383533
	C173	C	0.166021	0.127046	0.611677
	C174	C	0.809569	0.127754	0.384077
	C175	C	0.807782	0.882631	0.611389
	C176	C	0.373496	0.182396	0.879611
	C177	C	0.601527	0.184357	0.116951
	C178	C	0.375206	0.824773	0.120563
	C179	C	0.601726	0.830676	0.880239
	C180	C	0.375223	0.882510	0.178986
	C181	C	0.601052	0.127313	0.176298
	C182	C	0.374331	0.126315	0.819499
	C183	C	0.600699	0.887119	0.820554
	C184	C	0.870526	0.182047	0.382420
	C185	C	0.105855	0.181956	0.612767
	C186	C	0.104222	0.832985	0.381061
	C187	C	0.866733	0.826572	0.611285
	C188	C	0.165988	0.389661	0.876706
	C189	C	0.166382	0.618758	0.117814
	C190	C	0.808563	0.389939	0.119128
	C191	C	0.811010	0.618200	0.874441
	C192	C	0.388504	0.100622	0.595898
	C193	C	0.585489	0.910309	0.597046
	C194	C	0.586320	0.099912	0.401172
	C195	C	0.389204	0.911260	0.402858
	C196	C	0.586580	0.408959	0.091166
	C197	C	0.589008	0.604686	0.903408
	C198	C	0.389370	0.599645	0.091351
	C199	C	0.387894	0.408045	0.904752
	C200	C	0.080052	0.607410	0.394830
	C201	C	0.895068	0.601986	0.596435
	C202	C	0.080279	0.407139	0.595641
	C203	C	0.896037	0.407487	0.398659
	C204	C	0.890301	0.599025	0.093192
	C205	C	0.083609	0.409747	0.093861
	C206	C	0.087415	0.599396	0.898073
	C207	C	0.890036	0.409042	0.900755
	C208	C	0.085091	0.908326	0.590655
	C209	C	0.088385	0.104064	0.404092
	C210	C	0.888144	0.102202	0.591267
	C211	C	0.886212	0.909347	0.403656
	C212	C	0.580015	0.106056	0.897048
	C213	C	0.395867	0.102726	0.097991
	C214	C	0.580977	0.906135	0.100310
	C215	C	0.395213	0.906501	0.900699
	Zn216	Zn	0.486856	0.005444	0.746602
	Zn217	Zn	0.488353	0.005424	0.251043
	Zn218	Zn	0.738677	0.504220	-0.003855
	Zn219	Zn	0.236157	0.504616	-0.002011
	Zn220	Zn	-0.013463	0.757081	0.495589
	Zn221	Zn	-0.011909	0.254795	0.496836
	Zn222	Zn	-0.011827	0.504309	0.748348
	Zn223	Zn	-0.011830	0.505500	0.244949
	Zn224	Zn	0.488685	0.753844	-0.000842
	Zn225	Zn	0.487405	0.257038	-0.001937
	Zn226	Zn	0.736154	0.005910	0.498254
	Zn227	Zn	0.238199	0.005725	0.498320
	N228	N	0.401859	0.967940	0.675860
	N229	N	0.570881	0.043647	0.673858
	N230	N	0.573131	0.967911	0.321751
	N231	N	0.403364	0.043073	0.321381
	N232	N	0.669147	0.416167	0.961957
	N233	N	0.671354	0.593995	0.032119
	N234	N	0.307305	0.592748	0.962004
	N235	N	0.304016	0.415090	0.033522
	N236	N	0.949807	0.685850	0.409307
	N237	N	0.024151	0.683804	0.580266
	N238	N	0.950842	0.326178	0.582279
	N239	N	0.025182	0.327512	0.411605
	N240	N	0.952896	0.415290	0.679335
	N241	N	0.023871	0.592187	0.676638
	N242	N	0.951887	0.594375	0.313787
	N243	N	0.024065	0.418900	0.316277
	N244	N	0.405716	0.680712	0.960559
	N245	N	0.574185	0.682314	0.035507
	N246	N	0.569315	0.331505	0.959203
	N247	N	0.401960	0.327630	0.035836
	N248	N	0.666484	0.968581	0.412354
	N249	N	0.666928	0.041878	0.585476
	N250	N	0.307025	0.968974	0.586041
	N251	N	0.309427	0.042997	0.412281
	N252	N	0.902123	0.467438	0.175226
	N253	N	0.072059	0.542359	0.172472
	N254	N	0.073770	0.466897	0.819189
	N255	N	0.904453	0.541479	0.820521
	N256	N	0.168994	0.917691	0.461742
	N257	N	0.168795	0.093954	0.534118
	N258	N	0.806531	0.094062	0.461955
	N259	N	0.805443	0.917523	0.534111
	N260	N	0.449820	0.184019	0.913210
	N261	N	0.525440	0.184203	0.082744
	N262	N	0.451801	0.824102	0.086640
	N263	N	0.525681	0.828853	0.915127
	N264	N	0.451711	0.917108	0.180855
	N265	N	0.524703	0.092275	0.178269
	N266	N	0.451176	0.093508	0.816566
	N267	N	0.523765	0.919789	0.818766
	N268	N	0.904953	0.181351	0.459327
	N269	N	0.071961	0.182484	0.535599
	N270	N	0.068272	0.833053	0.457613
	N271	N	0.900850	0.827505	0.534037
	N272	N	0.167565	0.468051	0.909977
	N273	N	0.166222	0.540689	0.083992
	N274	N	0.808393	0.467715	0.083606
	N275	N	0.809251	0.540061	0.909043
	O276	O	0.902647	0.031325	0.964768
	H277	H	0.892229	0.035819	0.963047
	H278	H	0.901936	0.039919	0.965865
	O279	O	0.476753	0.449519	0.418355
	H280	H	0.471991	0.442373	0.425073
	H281	H	0.477696	0.451883	0.401047
	O282	O	0.487703	0.553375	0.478049
	H283	H	0.478467	0.559053	0.459079
	H284	H	0.488322	0.549115	0.483241
	O285	O	0.567060	0.385155	0.475424
	H286	H	0.573995	0.384453	0.478108
	H287	H	0.576847	0.383594	0.490370
	O288	O	0.491857	0.597052	0.368531
	H289	H	0.473311	0.591638	0.351423
	H290	H	0.464705	0.613292	0.370890
	O291	O	0.130601	0.059049	1.029764
	H292	H	0.138678	0.053343	1.039461
	H293	H	0.132609	0.061153	1.031931
	O294	O	1.041891	0.966127	-0.087454
	H295	H	1.048580	0.962705	-0.088815
	H296	H	1.054582	0.962834	-0.091262
	O297	O	1.057836	1.007500	-0.026120
	H298	H	1.069865	1.012126	-0.020831
	H299	H	1.052930	0.999373	-0.035755
	O300	O	0.391037	0.530069	0.639116
	H301	H	0.401428	0.522402	0.634612
	H302	H	0.364946	0.518179	0.650234
	O303	O	0.439103	0.419237	0.595566
	H304	H	0.443477	0.419776	0.585143
	H305	H	0.442939	0.424310	0.595802
	O306	O	0.541831	0.395725	0.510680
	H307	H	0.533090	0.406041	0.516828
	H308	H	0.541571	0.405465	0.527867
	O309	O	0.506467	0.471226	0.522620
	H310	H	0.511292	0.480136	0.530380
	H311	H	0.518680	0.465312	0.503958
	O312	O	0.915582	1.024583	1.075871
	H313	H	0.908990	1.028148	1.078547
	H314	H	0.922016	1.011044	1.070516
	O315	O	1.011030	0.992596	-0.036756
	H316	H	1.009934	1.007103	-0.033906
	H317	H	1.010401	0.990506	-0.027269
	O318	O	0.669015	0.419134	0.396122
	H319	H	0.681589	0.417301	0.393205
	H320	H	0.673186	0.425395	0.400390
	O321	O	0.384503	0.458017	0.595929
	H322	H	0.386471	0.453694	0.597288
	H323	H	0.385491	0.443612	0.598243
	O324	O	-0.011146	0.931291	0.971560
	H325	H	-0.018890	0.925180	0.959652
	H326	H	-0.005361	0.940926	0.966590
	O327	O	0.002769	0.980610	0.962244
	H328	H	-0.007353	0.976303	0.974493
	H329	H	0.003305	0.979547	0.959813
	O330	O	-0.057802	0.078590	-0.060815
	H331	H	-0.053947	0.077953	-0.052934
	H332	H	-0.048639	0.072621	-0.052889
	O333	O	0.447101	0.453873	0.348289
	H334	H	0.461377	0.442538	0.340309
	H335	H	0.437396	0.461493	0.350178
	O336	O	-0.042408	-0.040565	-0.015793
	H337	H	-0.038971	-0.025854	-0.025433
	H338	H	-0.049254	-0.042095	-0.012125
	O339	O	0.476496	0.461047	-0.324138
	H340	H	0.490634	0.459759	-0.325179
	H341	H	0.476993	0.455802	-0.346544
	O342	O	0.311843	0.537757	0.512169
	H343	H	0.294141	0.530339	0.536528
	H344	H	0.320512	0.513178	0.508905
	O345	O	-0.080517	0.993805	1.029154
	H346	H	-0.088659	0.998797	1.029581
	H347	H	-0.071383	0.999170	1.023831
	O348	O	0.489625	0.599089	0.430655
	H349	H	0.480807	0.589884	0.434117
	H350	H	0.498144	0.592437	0.430478
	O351	O	0.453916	0.612663	0.385305
	H352	H	0.448907	0.617127	0.394916
	H353	H	0.455273	0.615224	0.382066
	O354	O	-0.033725	1.012032	-0.004221
	H355	H	-0.037973	0.999377	0.000782
	H356	H	-0.032044	1.015146	0.003337
	O357	O	0.344018	0.478538	0.524483
	H358	H	0.357766	0.480796	0.532286
	H359	H	0.337555	0.469609	0.541316
	O360	O	1.055278	0.066988	1.039748
	H361	H	1.051919	0.052210	1.035521
	H362	H	1.055690	0.068253	1.047349
	O363	O	0.639178	0.539955	0.506206
	H364	H	0.634932	0.546357	0.486751
	H365	H	0.629704	0.553060	0.499336
	O366	O	0.431610	0.428861	0.392793
	H367	H	0.435440	0.433300	0.403789
	H368	H	0.424799	0.426444	0.392985
	O369	O	0.946079	0.031714	-0.014845
	H370	H	0.944954	0.022325	-0.008782
	H371	H	0.940605	0.034959	-0.006158
	O372	O	0.605714	0.573103	0.665218
	H373	H	0.599621	0.583435	0.667074
	H374	H	0.611065	0.590445	0.660203
	O375	O	0.978492	-0.046050	1.018882
	H376	H	0.973131	-0.039411	1.014411
	H377	H	0.973657	-0.046268	1.008855
	O378	O	0.372312	0.584570	0.434076
	H379	H	0.377747	0.574414	0.421805
	H380	H	0.372913	0.571677	0.444379
	O381	O	0.575560	0.590644	0.587433
	H382	H	0.564191	0.586125	0.582633
	H383	H	0.573419	0.599841	0.580519
	O384	O	1.632927	0.368516	0.420634
	H385	H	1.636876	0.382545	0.441322
	H386	H	1.644534	0.369402	0.420735
	O387	O	0.988131	-0.091766	1.031746
	H388	H	0.985954	-0.087516	1.027823
	H389	H	0.980484	-0.097677	1.027135
	O390	O	0.999390	1.017829	0.058835
	H391	H	0.998514	1.009094	0.057504
	H392	H	0.993744	1.007655	0.073056
	O393	O	0.492751	0.666152	0.584729
	H394	H	0.500017	0.668139	0.587775
	H395	H	0.487026	0.643551	0.597201
