data_Molecule from HDF5

_cell_length_a		16.176030
_cell_length_b		16.163527
_cell_length_c		16.362290
_cell_angle_alpha	90.497233
_cell_angle_beta	89.824300
_cell_angle_gamma	90.010416
_symmetry_space_group_name_H-M	'P 1'
_symmetry_Int_Tables_number		1

loop_
	_symmetry_equiv_pos_as_xyz
	x,y,z

loop_
	_atom_site_label
	_atom_site_type_symbol
	_atom_site_fract_x
	_atom_site_fract_y
	_atom_site_fract_z
	H0	H	0.402704	0.836576	0.714859
	H1	H	0.602435	0.165055	0.719566
	H2	H	0.604315	0.839140	0.282499
	H3	H	0.401873	0.166455	0.288973
	H4	H	0.717283	0.399727	0.839138
	H5	H	0.713742	0.601177	0.164845
	H6	H	0.284936	0.599605	0.838195
	H7	H	0.283026	0.403072	0.164387
	H8	H	0.835982	0.712126	0.407972
	H9	H	0.167183	0.715146	0.601407
	H10	H	0.836778	0.288358	0.598547
	H11	H	0.167105	0.286752	0.403793
	H12	H	0.836521	0.401148	0.716817
	H13	H	0.165625	0.600956	0.718163
	H14	H	0.836810	0.599898	0.289903
	H15	H	0.164428	0.396994	0.283368
	H16	H	0.403214	0.715012	0.837581
	H17	H	0.599730	0.718438	0.164277
	H18	H	0.599207	0.285659	0.837554
	H19	H	0.399973	0.287062	0.164624
	H20	H	0.714223	0.836355	0.401819
	H21	H	0.715255	0.166256	0.600974
	H22	H	0.289078	0.836191	0.598423
	H23	H	0.288144	0.166495	0.406609
	H24	H	0.899216	0.336075	0.216231
	H25	H	0.101487	0.664973	0.219945
	H26	H	0.100850	0.337596	0.785030
	H27	H	0.900489	0.666036	0.789411
	H28	H	0.216492	0.900199	0.338817
	H29	H	0.215695	0.100455	0.666202
	H30	H	0.787816	0.099668	0.339214
	H31	H	0.786266	0.904357	0.665403
	H32	H	0.336177	0.212203	0.905402
	H33	H	0.665936	0.217759	0.100102
	H34	H	0.336031	0.789772	0.098559
	H35	H	0.667522	0.788281	0.903758
	H36	H	0.338556	0.901349	0.218890
	H37	H	0.665785	0.105445	0.218085
	H38	H	0.338435	0.100263	0.787253
	H39	H	0.665859	0.899154	0.784652
	H40	H	0.905385	0.213872	0.338994
	H41	H	0.100655	0.217911	0.665928
	H42	H	0.101012	0.783334	0.339692
	H43	H	0.903613	0.789328	0.666649
	H44	H	0.212740	0.336311	0.902788
	H45	H	0.213886	0.666197	0.101689
	H46	H	0.786097	0.336104	0.098067
	H47	H	0.789090	0.666880	0.908742
	H48	H	0.420308	0.116246	0.597908
	H49	H	0.597926	0.880001	0.601191
	H50	H	0.592463	0.117158	0.416203
	H51	H	0.408307	0.882000	0.401081
	H52	H	0.589746	0.410720	0.116720
	H53	H	0.593498	0.598668	0.884595
	H54	H	0.419266	0.596693	0.113560
	H55	H	0.408360	0.400954	0.884972
	H56	H	0.115479	0.591633	0.419977
	H57	H	0.879619	0.601738	0.603046
	H58	H	0.113042	0.423239	0.590168
	H59	H	0.881206	0.398739	0.409243
	H60	H	0.124012	0.408986	0.609609
	H61	H	0.886417	0.596460	0.588941
	H62	H	0.118516	0.581159	0.404756
	H63	H	0.887622	0.412234	0.416045
	H64	H	0.401372	0.605563	0.121449
	H65	H	0.600131	0.593796	0.882999
	H66	H	0.592791	0.407052	0.117333
	H67	H	0.401933	0.409220	0.884734
	H68	H	0.601913	0.121791	0.408952
	H69	H	0.586240	0.886368	0.594795
	H70	H	0.405578	0.117284	0.588172
	H71	H	0.418245	0.886057	0.407936
	H72	H	0.903465	0.619962	0.099904
	H73	H	0.086683	0.387356	0.087235
	H74	H	0.085470	0.618446	0.905829
	H75	H	0.903168	0.382298	0.909007
	H76	H	0.100606	0.907031	0.620316
	H77	H	0.089415	0.088100	0.390588
	H78	H	0.897091	0.094970	0.622040
	H79	H	0.910029	0.900657	0.385440
	H80	H	0.619425	0.096484	0.913070
	H81	H	0.386358	0.091646	0.091311
	H82	H	0.619696	0.911753	0.096266
	H83	H	0.387534	0.918735	0.908387
	H84	H	0.620081	0.907281	0.093280
	H85	H	0.383738	0.090687	0.100805
	H86	H	0.617901	0.088063	0.909497
	H87	H	0.380802	0.904382	0.897633
	H88	H	0.912813	0.085116	0.614066
	H89	H	0.094955	0.100946	0.384423
	H90	H	0.094913	0.913472	0.617110
	H91	H	0.904313	0.907602	0.386166
	H92	H	0.093177	0.617454	0.917472
	H93	H	0.099279	0.382201	0.092037
	H94	H	0.911787	0.618713	0.102237
	H95	H	0.910979	0.383547	0.902321
	H96	H	0.404626	0.122251	0.604304
	H97	H	0.598012	0.885041	0.587047
	H98	H	0.590137	0.120063	0.404797
	H99	H	0.407292	0.885186	0.413356
	H100	H	0.594446	0.411715	0.116362
	H101	H	0.593220	0.590608	0.886402
	H102	H	0.401236	0.584727	0.114652
	H103	H	0.411591	0.410618	0.887875
	H104	H	0.122700	0.599639	0.405196
	H105	H	0.885106	0.585883	0.600935
	H106	H	0.119562	0.398203	0.585882
	H107	H	0.883088	0.411581	0.400518
	H108	H	0.908986	0.616415	0.094064
	H109	H	0.087555	0.383780	0.100266
	H110	H	0.099157	0.622320	0.905667
	H111	H	0.912643	0.386121	0.912235
	H112	H	0.091823	0.905547	0.617560
	H113	H	0.103783	0.089316	0.385263
	H114	H	0.914456	0.104444	0.619573
	H115	H	0.913289	0.908821	0.388297
	H116	H	0.621370	0.095087	0.904525
	H117	H	0.382562	0.099375	0.096554
	H118	H	0.617810	0.911661	0.091235
	H119	H	0.383967	0.901496	0.915369
	C120	C	0.381010	0.009797	0.624187
	C121	C	0.623332	0.992559	0.623739
	C122	C	0.623758	0.010824	0.380017
	C123	C	0.381257	0.993326	0.380523
	C124	C	0.621861	0.379901	0.009237
	C125	C	0.623428	0.623595	0.992820
	C126	C	0.378653	0.623754	0.009331
	C127	C	0.377550	0.378798	0.993168
	C128	C	0.009893	0.620224	0.382132
	C129	C	0.992919	0.623221	0.625295
	C130	C	0.010156	0.380730	0.623452
	C131	C	0.993294	0.378117	0.379973
	C132	C	0.878515	0.509480	0.125433
	C133	C	0.121094	0.492809	0.123101
	C134	C	0.121461	0.510283	0.880330
	C135	C	0.880051	0.492898	0.881121
	C136	C	0.124547	0.878247	0.510821
	C137	C	0.124342	0.122373	0.494446
	C138	C	0.880304	0.122579	0.510615
	C139	C	0.879873	0.878419	0.494215
	C140	C	0.510620	0.121447	0.880806
	C141	C	0.492956	0.123842	0.124371
	C142	C	0.510282	0.881260	0.122463
	C143	C	0.493406	0.879040	0.878759
	C144	C	0.382533	0.885850	0.678020
	C145	C	0.622527	0.116157	0.680709
	C146	C	0.622724	0.887555	0.322247
	C147	C	0.382279	0.117259	0.326672
	C148	C	0.678723	0.380318	0.887421
	C149	C	0.677010	0.621782	0.115869
	C150	C	0.323167	0.620452	0.886741
	C151	C	0.321583	0.382423	0.115723
	C152	C	0.885495	0.675145	0.386475
	C153	C	0.117493	0.677855	0.621963
	C154	C	0.885938	0.325401	0.619947
	C155	C	0.117282	0.323245	0.382716
	C156	C	0.885925	0.381428	0.678786
	C157	C	0.116866	0.621203	0.680123
	C158	C	0.886006	0.619382	0.327661
	C159	C	0.115963	0.378272	0.322715
	C160	C	0.382133	0.677626	0.886222
	C161	C	0.620129	0.679821	0.115527
	C162	C	0.619746	0.323631	0.886595
	C163	C	0.379784	0.324771	0.116018
	C164	C	0.677682	0.886149	0.381516
	C165	C	0.678393	0.116610	0.621775
	C166	C	0.326273	0.885456	0.619918
	C167	C	0.325740	0.117091	0.385015
	C168	C	0.879628	0.385440	0.178692
	C169	C	0.120938	0.616055	0.181020
	C170	C	0.120237	0.386508	0.823782
	C171	C	0.880889	0.616809	0.826994
	C172	C	0.179575	0.879804	0.387905
	C173	C	0.178591	0.120643	0.617520
	C174	C	0.825495	0.119910	0.388024
	C175	C	0.824384	0.883082	0.616837
	C176	C	0.385913	0.175393	0.884178
	C177	C	0.616779	0.179861	0.120750
	C178	C	0.385947	0.826541	0.119674
	C179	C	0.617738	0.824647	0.882399
	C180	C	0.387078	0.882489	0.179089
	C181	C	0.616763	0.123928	0.179396
	C182	C	0.386865	0.119373	0.825867
	C183	C	0.616834	0.880216	0.823315
	C184	C	0.883994	0.176561	0.387644
	C185	C	0.121174	0.178880	0.617457
	C186	C	0.121494	0.822019	0.388124
	C187	C	0.882800	0.825812	0.617463
	C188	C	0.176014	0.385915	0.882266
	C189	C	0.176648	0.616796	0.121971
	C190	C	0.823393	0.385343	0.120038
	C191	C	0.825654	0.617340	0.886361
	C192	C	0.403480	0.096052	0.602969
	C193	C	0.600735	0.906075	0.600946
	C194	C	0.601314	0.097153	0.403188
	C195	C	0.404428	0.906900	0.401299
	C196	C	0.598900	0.403032	0.094821
	C197	C	0.602132	0.600907	0.906942
	C198	C	0.400793	0.602180	0.094436
	C199	C	0.400453	0.400495	0.908049
	C200	C	0.096415	0.597480	0.403627
	C201	C	0.906230	0.601252	0.603954
	C202	C	0.096398	0.403494	0.601621
	C203	C	0.906311	0.400827	0.402229
	C204	C	0.901355	0.595866	0.104935
	C205	C	0.097992	0.406636	0.099916
	C206	C	0.099112	0.597001	0.902856
	C207	C	0.902392	0.406508	0.901776
	C208	C	0.102195	0.901662	0.596203
	C209	C	0.102604	0.099471	0.408902
	C210	C	0.901931	0.101262	0.596244
	C211	C	0.902592	0.899549	0.408649
	C212	C	0.597131	0.099766	0.902640
	C213	C	0.406711	0.100688	0.102787
	C214	C	0.596781	0.903775	0.100230
	C215	C	0.406519	0.901474	0.900730
	Zn216	Zn	0.502159	0.001137	0.752325
	Zn217	Zn	0.502393	0.002851	0.251812
	Zn218	Zn	0.751667	0.501480	0.002242
	Zn219	Zn	0.249085	0.501655	0.001171
	Zn220	Zn	0.002015	0.749282	0.502918
	Zn221	Zn	0.002372	0.251402	0.502818
	Zn222	Zn	0.000967	0.501697	0.752561
	Zn223	Zn	0.000923	0.500292	0.252711
	Zn224	Zn	0.501733	0.752496	0.000820
	Zn225	Zn	0.500575	0.250104	0.001452
	Zn226	Zn	0.750921	0.001107	0.501567
	Zn227	Zn	0.253273	0.000656	0.502450
	N228	N	0.416057	0.964128	0.680702
	N229	N	0.589142	0.037968	0.682109
	N230	N	0.590065	0.966285	0.320993
	N231	N	0.416198	0.039261	0.323823
	N232	N	0.680000	0.414640	0.964659
	N233	N	0.679135	0.587401	0.038527
	N234	N	0.320827	0.587754	0.964094
	N235	N	0.320347	0.415478	0.038535
	N236	N	0.963587	0.675902	0.419574
	N237	N	0.039453	0.679063	0.588575
	N238	N	0.963989	0.324687	0.586305
	N239	N	0.039653	0.323053	0.417575
	N240	N	0.964201	0.415102	0.681169
	N241	N	0.038516	0.588016	0.682384
	N242	N	0.964252	0.585730	0.324972
	N243	N	0.037633	0.411347	0.320908
	N244	N	0.415867	0.679971	0.963316
	N245	N	0.587480	0.680881	0.038078
	N246	N	0.585024	0.323359	0.963544
	N247	N	0.413764	0.322036	0.038840
	N248	N	0.678600	0.963757	0.416674
	N249	N	0.678916	0.038757	0.586920
	N250	N	0.325073	0.963373	0.587145
	N251	N	0.324741	0.038888	0.417593
	N252	N	0.912977	0.463552	0.182217
	N253	N	0.087213	0.537954	0.181841
	N254	N	0.087268	0.464936	0.822427
	N255	N	0.913972	0.538469	0.823504
	N256	N	0.181475	0.914000	0.465247
	N257	N	0.180691	0.086269	0.540130
	N258	N	0.823182	0.087048	0.465319
	N259	N	0.822374	0.915188	0.539150
	N260	N	0.463736	0.176843	0.917638
	N261	N	0.538724	0.180194	0.087329
	N262	N	0.463622	0.825749	0.085061
	N263	N	0.539742	0.823908	0.916229
	N264	N	0.465388	0.915797	0.180945
	N265	N	0.538717	0.090053	0.181995
	N266	N	0.465422	0.086625	0.823686
	N267	N	0.538564	0.913235	0.821109
	N268	N	0.917260	0.178591	0.464990
	N269	N	0.088661	0.180352	0.539929
	N270	N	0.088228	0.820846	0.465537
	N271	N	0.916385	0.822573	0.540161
	N272	N	0.176778	0.463745	0.916804
	N273	N	0.177039	0.539115	0.086845
	N274	N	0.822585	0.463506	0.087396
	N275	N	0.824961	0.539392	0.919401
	O276	O	-0.008218	-0.009359	0.034536
	H277	H	-0.012546	-0.016282	0.037626
	H278	H	-0.011954	-0.012395	0.041863
	O279	O	0.407658	0.466251	0.482754
	H280	H	0.397555	0.459619	0.486408
	H281	H	0.414310	0.479080	0.493500
	O282	O	0.542644	0.428995	0.555109
	H283	H	0.545025	0.425109	0.561537
	H284	H	0.549613	0.423987	0.538022
	O285	O	0.048462	0.001303	1.008272
	H286	H	0.051834	0.018312	1.013722
	H287	H	0.048127	-0.003906	1.005685
	O288	O	1.014660	0.065517	-0.016723
	H289	H	1.023397	0.070387	-0.008147
	H290	H	1.018817	0.066729	-0.009747
	O291	O	1.053691	1.055342	1.047656
	H292	H	1.053027	1.049863	1.043797
	H293	H	1.049236	1.042683	1.047209
	O294	O	0.555764	1.452425	0.411888
	H295	H	0.561339	1.452659	0.417263
	H296	H	0.560551	1.453473	0.413531
	O297	O	1.148578	0.070321	1.010840
	H298	H	1.152615	0.064852	1.006603
	H299	H	1.154619	0.077639	1.019020
	O300	O	0.505409	0.611519	0.570302
	H301	H	0.500604	0.613405	0.580668
	H302	H	0.499883	0.608304	0.565567
	O303	O	1.592611	0.563362	-0.375723
	H304	H	1.595540	0.579493	-0.372329
	H305	H	1.593738	0.560540	-0.365307
	O306	O	0.002228	0.970122	1.058603
	H307	H	0.005565	0.969808	1.047098
	H308	H	-0.000463	0.972260	1.054144
	O309	O	0.528948	0.513614	0.435013
	H310	H	0.539413	0.516053	0.441634
	H311	H	0.529659	0.510014	0.424912
	O312	O	0.957166	-0.013029	0.917344
	H313	H	0.946103	-0.011163	0.913753
	H314	H	0.954677	-0.017698	0.915035
	O315	O	0.556523	0.440908	0.580608
	H316	H	0.562196	0.443512	0.584549
	H317	H	0.550275	0.437845	0.567024
	O318	O	0.085294	1.061691	1.068161
	H319	H	0.088962	1.067367	1.075063
	H320	H	0.084060	1.059619	1.071232
	O321	O	0.946513	0.986496	1.080748
	H322	H	0.944082	0.988418	1.086224
	H323	H	0.947838	0.984797	1.074952
	O324	O	0.486647	0.506490	0.422702
	H325	H	0.478619	0.503532	0.422470
	H326	H	0.497900	0.493662	0.425567
	O327	O	0.485052	0.516968	0.456590
	H328	H	0.477860	0.512428	0.450867
	H329	H	0.474785	0.512579	0.448832
	O330	O	1.061130	-0.030047	1.056032
	H331	H	1.051809	-0.027159	1.057428
	H332	H	1.057003	-0.032089	1.046692
	O333	O	0.960249	1.002394	-0.063760
	H334	H	0.969470	1.010498	-0.074879
	H335	H	0.959210	1.011696	-0.072675
	O336	O	0.606086	0.548592	0.448309
	H337	H	0.597567	0.550615	0.454770
	H338	H	0.603019	0.547801	0.449161
	O339	O	0.488925	0.470231	0.450329
	H340	H	0.487015	0.466976	0.445327
	H341	H	0.492190	0.472571	0.447137
	O342	O	-0.035459	0.991037	-0.022679
	H343	H	-0.028652	0.991808	-0.019604
	H344	H	-0.037433	0.997349	-0.021761
	O345	O	-0.010055	-0.099380	0.056287
	H346	H	-0.002312	-0.107693	0.047577
	H347	H	-0.007778	-0.105653	0.056040
	O348	O	0.461294	0.521791	0.471030
	H349	H	0.455521	0.523424	0.456396
	H350	H	0.455947	0.527695	0.461002
	O351	O	0.437572	0.535560	0.425684
	H352	H	0.426838	0.533369	0.435527
	H353	H	0.449345	0.539385	0.414642
	O354	O	0.540506	0.542448	0.508627
	H355	H	0.548530	0.540394	0.504362
	H356	H	0.528494	0.546662	0.505021
	O357	O	0.504217	0.493200	0.432624
	H358	H	0.513171	0.496184	0.435138
	H359	H	0.504233	0.487584	0.431809
	O360	O	-0.569344	-0.528531	-0.454629
	H361	H	-0.572772	-0.528999	-0.456310
	H362	H	-0.565755	-0.531710	-0.452595
	O363	O	0.011066	0.987819	0.966834
	H364	H	0.018629	0.986700	0.972528
	H365	H	0.005906	1.005916	0.967260
	O366	O	-0.063983	0.056815	0.999877
	H367	H	-0.068895	0.045561	1.010508
	H368	H	-0.071433	0.053379	1.002650
	O369	O	0.456740	0.476392	0.530983
	H370	H	0.449648	0.477545	0.536913
	H371	H	0.456966	0.467595	0.534426
