data_Molecule from HDF5

_cell_length_a		16.253592
_cell_length_b		16.292380
_cell_length_c		16.335312
_cell_angle_alpha	90.044174
_cell_angle_beta	89.870471
_cell_angle_gamma	90.096912
_symmetry_space_group_name_H-M	'P 1'
_symmetry_Int_Tables_number		1

loop_
	_symmetry_equiv_pos_as_xyz
	x,y,z

loop_
	_atom_site_label
	_atom_site_type_symbol
	_atom_site_fract_x
	_atom_site_fract_y
	_atom_site_fract_z
	H0	H	0.408913	0.842329	0.717481
	H1	H	0.607782	0.169205	0.718272
	H2	H	0.605624	0.841656	0.288671
	H3	H	0.409191	0.169056	0.288484
	H4	H	0.723589	0.407564	0.841321
	H5	H	0.723436	0.605013	0.167689
	H6	H	0.294363	0.604347	0.841210
	H7	H	0.294502	0.407695	0.167094
	H8	H	0.844330	0.719604	0.406852
	H9	H	0.172339	0.721306	0.602155
	H10	H	0.844903	0.292061	0.602544
	H11	H	0.172810	0.291498	0.405115
	H12	H	0.846663	0.405591	0.720253
	H13	H	0.172455	0.605901	0.717551
	H14	H	0.845212	0.604596	0.288275
	H15	H	0.173828	0.408000	0.289619
	H16	H	0.410824	0.720067	0.840307
	H17	H	0.607845	0.722400	0.166686
	H18	H	0.608470	0.290974	0.840951
	H19	H	0.408888	0.290635	0.166066
	H20	H	0.722218	0.842129	0.404376
	H21	H	0.721473	0.170057	0.600229
	H22	H	0.294446	0.842287	0.599087
	H23	H	0.294437	0.170069	0.404766
	H24	H	0.909917	0.342161	0.219741
	H25	H	0.108153	0.668964	0.218603
	H26	H	0.109915	0.343105	0.787430
	H27	H	0.910215	0.669634	0.789266
	H28	H	0.221552	0.908589	0.340407
	H29	H	0.222393	0.104181	0.666295
	H30	H	0.794368	0.104200	0.339591
	H31	H	0.792300	0.909071	0.666856
	H32	H	0.344360	0.220454	0.905079
	H33	H	0.672533	0.219875	0.100830
	H34	H	0.344461	0.791797	0.099998
	H35	H	0.672490	0.791533	0.902929
	H36	H	0.343585	0.906439	0.217246
	H37	H	0.670902	0.105209	0.218271
	H38	H	0.344248	0.104167	0.789316
	H39	H	0.671642	0.907570	0.786735
	H40	H	0.910958	0.220621	0.340138
	H41	H	0.106071	0.220567	0.666947
	H42	H	0.106461	0.791447	0.340947
	H43	H	0.907667	0.792122	0.667378
	H44	H	0.222737	0.342454	0.906519
	H45	H	0.222501	0.669580	0.101665
	H46	H	0.794128	0.341413	0.102281
	H47	H	0.795418	0.669726	0.907122
	H48	H	0.400306	0.122985	0.585617
	H49	H	0.599781	0.887863	0.603824
	H50	H	0.600885	0.122389	0.409968
	H51	H	0.419352	0.890304	0.407648
	H52	H	0.596593	0.405239	0.120856
	H53	H	0.600011	0.603305	0.887689
	H54	H	0.415165	0.598973	0.119896
	H55	H	0.407916	0.418706	0.886892
	H56	H	0.124907	0.603050	0.412297
	H57	H	0.894543	0.598014	0.589997
	H58	H	0.125181	0.413975	0.592776
	H59	H	0.895332	0.413724	0.420511
	H60	H	0.125458	0.416277	0.598239
	H61	H	0.891653	0.593938	0.603248
	H62	H	0.124671	0.597914	0.411610
	H63	H	0.894133	0.422992	0.407111
	H64	H	0.417427	0.598798	0.119538
	H65	H	0.607270	0.598616	0.886463
	H66	H	0.609353	0.413475	0.122209
	H67	H	0.424075	0.416116	0.890844
	H68	H	0.601656	0.122261	0.409155
	H69	H	0.593054	0.893251	0.591988
	H70	H	0.413773	0.128530	0.615140
	H71	H	0.413325	0.890476	0.414281
	H72	H	0.927849	0.619731	0.104671
	H73	H	0.101509	0.388419	0.097737
	H74	H	0.091068	0.622341	0.897116
	H75	H	0.922893	0.393437	0.914591
	H76	H	0.098914	0.909765	0.620941
	H77	H	0.108292	0.095512	0.386875
	H78	H	0.919819	0.096849	0.616863
	H79	H	0.904081	0.912611	0.384633
	H80	H	0.625822	0.102731	0.911276
	H81	H	0.388870	0.098885	0.105903
	H82	H	0.626152	0.912336	0.100059
	H83	H	0.393574	0.915063	0.915739
	H84	H	0.624096	0.912263	0.091107
	H85	H	0.390782	0.107142	0.091153
	H86	H	0.623154	0.096033	0.911581
	H87	H	0.390709	0.916021	0.903914
	H88	H	0.914281	0.107377	0.621373
	H89	H	0.094874	0.096468	0.389631
	H90	H	0.105261	0.915433	0.620882
	H91	H	0.920367	0.923123	0.392516
	H92	H	0.096735	0.616435	0.925926
	H93	H	0.103795	0.388762	0.097198
	H94	H	0.919091	0.617348	0.083716
	H95	H	0.908680	0.388287	0.913595
	H96	H	0.431770	0.116343	0.590065
	H97	H	0.607094	0.889336	0.591180
	H98	H	0.600950	0.121657	0.408937
	H99	H	0.410409	0.887635	0.406487
	H100	H	0.597306	0.419761	0.116939
	H101	H	0.600386	0.595213	0.890752
	H102	H	0.416409	0.601228	0.120104
	H103	H	0.415283	0.403604	0.884391
	H104	H	0.126986	0.599903	0.407655
	H105	H	0.888603	0.606650	0.599758
	H106	H	0.126760	0.410454	0.596669
	H107	H	0.889496	0.406813	0.406314
	H108	H	0.905686	0.625792	0.100334
	H109	H	0.102840	0.387838	0.098983
	H110	H	0.118175	0.627975	0.908436
	H111	H	0.918335	0.387979	0.901637
	H112	H	0.097515	0.916976	0.618151
	H113	H	0.101470	0.107462	0.384615
	H114	H	0.908288	0.096444	0.620672
	H115	H	0.922396	0.903022	0.387779
	H116	H	0.626174	0.098604	0.905484
	H117	H	0.394512	0.091042	0.092270
	H118	H	0.622272	0.919859	0.095087
	H119	H	0.390229	0.905633	0.909611
	C120	C	0.386499	0.014436	0.624845
	C121	C	0.628762	0.998011	0.623808
	C122	C	0.629758	0.014004	0.380724
	C123	C	0.386399	0.997603	0.381267
	C124	C	0.629953	0.384443	0.012476
	C125	C	0.631216	0.628148	0.996014
	C126	C	0.387675	0.627760	0.012054
	C127	C	0.387012	0.384250	0.995147
	C128	C	0.017244	0.628289	0.382153
	C129	C	1.000050	0.628186	0.625710
	C130	C	0.017555	0.384419	0.625105
	C131	C	1.000939	0.385147	0.382527
	C132	C	0.887743	0.513351	0.125588
	C133	C	0.130665	0.496994	0.125800
	C134	C	0.130973	0.514393	0.881890
	C135	C	0.887921	0.497947	0.882068
	C136	C	0.129200	0.885165	0.512055
	C137	C	0.130036	0.128268	0.494893
	C138	C	0.886120	0.128469	0.511696
	C139	C	0.886026	0.884521	0.495661
	C140	C	0.516832	0.127794	0.881480
	C141	C	0.499762	0.127507	0.124777
	C142	C	0.516072	0.885282	0.124016
	C143	C	0.500038	0.884241	0.880891
	C144	C	0.388324	0.891318	0.679657
	C145	C	0.626969	0.120872	0.679377
	C146	C	0.626806	0.890890	0.325823
	C147	C	0.389010	0.120548	0.326340
	C148	C	0.685857	0.386699	0.889919
	C149	C	0.685806	0.625600	0.118632
	C150	C	0.332247	0.624883	0.889672
	C151	C	0.331934	0.387100	0.118074
	C152	C	0.893349	0.682064	0.385642
	C153	C	0.123248	0.683920	0.622826
	C154	C	0.894168	0.329736	0.622951
	C155	C	0.123983	0.329268	0.384457
	C156	C	0.895019	0.386331	0.681353
	C157	C	0.123379	0.626253	0.680007
	C158	C	0.893922	0.624870	0.327021
	C159	C	0.124596	0.387244	0.327344
	C160	C	0.390126	0.682290	0.889099
	C161	C	0.628634	0.684208	0.118235
	C162	C	0.628297	0.329131	0.889596
	C163	C	0.389048	0.329174	0.117838
	C164	C	0.684418	0.890898	0.383618
	C165	C	0.683613	0.121280	0.620893
	C166	C	0.331828	0.891080	0.620750
	C167	C	0.332369	0.121155	0.384568
	C168	C	0.889648	0.390503	0.181043
	C169	C	0.128261	0.620231	0.180645
	C170	C	0.129493	0.391756	0.825981
	C171	C	0.890470	0.620975	0.827661
	C172	C	0.183969	0.887855	0.389213
	C173	C	0.185163	0.125810	0.617602
	C174	C	0.831903	0.125045	0.388512
	C175	C	0.830295	0.887986	0.618354
	C176	C	0.393353	0.182509	0.884451
	C177	C	0.623276	0.182320	0.121702
	C178	C	0.393144	0.829396	0.121318
	C179	C	0.623429	0.829498	0.882949
	C180	C	0.392690	0.886578	0.179177
	C181	C	0.622356	0.125593	0.180322
	C182	C	0.393220	0.124721	0.827137
	C183	C	0.623256	0.887153	0.825402
	C184	C	0.889887	0.182633	0.388571
	C185	C	0.126845	0.182832	0.617953
	C186	C	0.126823	0.829672	0.389499
	C187	C	0.887566	0.829899	0.618460
	C188	C	0.185644	0.391252	0.885039
	C189	C	0.185216	0.620535	0.122544
	C190	C	0.831932	0.390463	0.123099
	C191	C	0.832944	0.620852	0.885852
	C192	C	0.408755	0.100439	0.603478
	C193	C	0.606620	0.912119	0.601938
	C194	C	0.607847	0.099882	0.402711
	C195	C	0.407924	0.911680	0.403000
	C196	C	0.607501	0.406329	0.097971
	C197	C	0.609120	0.605584	0.910443
	C198	C	0.409863	0.606114	0.097718
	C199	C	0.409276	0.406346	0.909671
	C200	C	0.103253	0.606777	0.404009
	C201	C	0.913864	0.606060	0.604053
	C202	C	0.103631	0.406880	0.602349
	C203	C	0.915222	0.407865	0.404725
	C204	C	0.910821	0.598879	0.103060
	C205	C	0.109109	0.410654	0.104353
	C206	C	0.108561	0.600040	0.903875
	C207	C	0.909941	0.412047	0.903732
	C208	C	0.107135	0.907540	0.597792
	C209	C	0.108121	0.106243	0.409210
	C210	C	0.907629	0.106649	0.597497
	C211	C	0.908884	0.906421	0.410312
	C212	C	0.602893	0.105584	0.903084
	C213	C	0.413603	0.105402	0.102853
	C214	C	0.601989	0.908268	0.101828
	C215	C	0.413837	0.905766	0.903228
	Zn216	Zn	0.508180	0.005980	0.753075
	Zn217	Zn	0.507613	0.005270	0.253196
	Zn218	Zn	0.759155	0.505181	0.004284
	Zn219	Zn	0.258981	0.506006	0.004229
	Zn220	Zn	0.008171	0.756535	0.504483
	Zn221	Zn	0.008731	0.256694	0.503358
	Zn222	Zn	0.009566	0.505967	0.752956
	Zn223	Zn	0.009363	0.505754	0.253821
	Zn224	Zn	0.509091	0.756773	0.003039
	Zn225	Zn	0.508465	0.255733	0.003230
	Zn226	Zn	0.757643	0.006379	0.503209
	Zn227	Zn	0.258536	0.006743	0.503236
	N228	N	0.421724	0.968913	0.682055
	N229	N	0.593567	0.043162	0.681182
	N230	N	0.593697	0.968529	0.323941
	N231	N	0.421981	0.042910	0.324266
	N232	N	0.687047	0.420470	0.967068
	N233	N	0.687865	0.591897	0.041473
	N234	N	0.330417	0.591932	0.967217
	N235	N	0.330715	0.420861	0.040902
	N236	N	0.970928	0.684331	0.419045
	N237	N	0.045475	0.685221	0.589702
	N238	N	0.971437	0.328527	0.588692
	N239	N	0.046319	0.328078	0.418132
	N240	N	0.972857	0.419827	0.682570
	N241	N	0.045874	0.592196	0.681868
	N242	N	0.971956	0.592277	0.324595
	N243	N	0.047123	0.421375	0.325942
	N244	N	0.424115	0.684078	0.966095
	N245	N	0.595260	0.685876	0.040828
	N246	N	0.594501	0.327470	0.966822
	N247	N	0.422518	0.327192	0.040399
	N248	N	0.686456	0.968463	0.417146
	N249	N	0.684908	0.043980	0.587091
	N250	N	0.330734	0.968543	0.587311
	N251	N	0.330612	0.043768	0.418149
	N252	N	0.923626	0.467889	0.182666
	N253	N	0.095121	0.542496	0.182792
	N254	N	0.096057	0.469348	0.823770
	N255	N	0.923730	0.543507	0.825064
	N256	N	0.185514	0.921667	0.466391
	N257	N	0.187078	0.092414	0.540299
	N258	N	0.829558	0.092050	0.466081
	N259	N	0.829181	0.921201	0.540949
	N260	N	0.471118	0.184766	0.917376
	N261	N	0.545873	0.183698	0.087919
	N262	N	0.470838	0.828539	0.087815
	N263	N	0.545740	0.827620	0.916645
	N264	N	0.470317	0.920618	0.180967
	N265	N	0.544629	0.092254	0.182291
	N266	N	0.471004	0.091187	0.825290
	N267	N	0.545556	0.920231	0.823801
	N268	N	0.922512	0.185116	0.466129
	N269	N	0.093481	0.184633	0.540589
	N270	N	0.093363	0.828059	0.466899
	N271	N	0.921492	0.827657	0.541195
	N272	N	0.186702	0.468345	0.919119
	N273	N	0.186734	0.542889	0.089277
	N274	N	0.830713	0.467873	0.089459
	N275	N	0.831389	0.543237	0.919035
	O276	O	0.594086	0.553251	0.544776
	H277	H	0.589251	0.555561	0.538868
	H278	H	0.589966	0.550330	0.544267
	O279	O	-0.073474	-0.085742	0.031470
	H280	H	-0.072648	-0.085169	0.026348
	H281	H	-0.076732	-0.079782	0.029755
	O282	O	0.540823	0.431999	0.536934
	H283	H	0.551550	0.434700	0.542716
	H284	H	0.551459	0.436068	0.538353
	O285	O	0.421425	0.464306	0.536290
	H286	H	0.419242	0.462593	0.531595
	H287	H	0.424205	0.467573	0.533859
	O288	O	1.498012	0.456121	-0.510976
	H289	H	1.496058	0.449197	-0.510896
	H290	H	1.496402	0.445667	-0.507731
	O291	O	-0.417497	0.453033	-0.489338
	H292	H	-0.411303	0.454487	-0.481414
	H293	H	-0.422439	0.453732	-0.501174
	O294	O	0.598469	0.486415	0.515674
	H295	H	0.614150	0.482747	0.520048
	H296	H	0.598467	0.494947	0.508953
	O297	O	-0.072216	0.907427	0.073386
	H298	H	-0.068558	0.905314	0.071476
	H299	H	-0.071601	0.893008	0.072484
	O300	O	0.593897	0.499299	0.521607
	H301	H	0.596546	0.504116	0.526952
	H302	H	0.592719	0.506425	0.517496
	O303	O	0.579822	0.523980	0.540729
	H304	H	0.570825	0.517017	0.545778
	H305	H	0.573445	0.516600	0.540928
	O306	O	-0.112573	0.891579	1.080508
	H307	H	-0.114904	0.896447	1.082483
	H308	H	-0.111045	0.898240	1.081729
	O309	O	-0.086133	-0.139574	1.050014
	H310	H	-0.086667	-0.136949	1.061506
	H311	H	-0.097436	-0.157848	1.047086
