data_Molecule from HDF5

_cell_length_a		16.256880
_cell_length_b		16.341881
_cell_length_c		16.327109
_cell_angle_alpha	90.221517
_cell_angle_beta	89.957331
_cell_angle_gamma	90.085622
_symmetry_space_group_name_H-M	'P 1'
_symmetry_Int_Tables_number		1

loop_
	_symmetry_equiv_pos_as_xyz
	x,y,z

loop_
	_atom_site_label
	_atom_site_type_symbol
	_atom_site_fract_x
	_atom_site_fract_y
	_atom_site_fract_z
	H0	H	0.394629	0.836033	0.720828
	H1	H	0.594192	0.161490	0.722373
	H2	H	0.593162	0.835876	0.290748
	H3	H	0.395498	0.161407	0.290679
	H4	H	0.708521	0.400111	0.842128
	H5	H	0.708460	0.595522	0.169708
	H6	H	0.280867	0.594850	0.842712
	H7	H	0.280560	0.400924	0.169923
	H8	H	0.831786	0.711920	0.407993
	H9	H	0.158493	0.713570	0.605055
	H10	H	0.831263	0.284978	0.603270
	H11	H	0.158714	0.283275	0.405853
	H12	H	0.831509	0.400053	0.719648
	H13	H	0.159136	0.597585	0.720626
	H14	H	0.831358	0.596059	0.292567
	H15	H	0.158185	0.399780	0.290333
	H16	H	0.395917	0.711930	0.842357
	H17	H	0.594147	0.714113	0.169062
	H18	H	0.593556	0.282276	0.843201
	H19	H	0.395748	0.283996	0.168959
	H20	H	0.708357	0.835534	0.407645
	H21	H	0.708841	0.162485	0.604232
	H22	H	0.280425	0.835176	0.602577
	H23	H	0.281810	0.162343	0.409855
	H24	H	0.896187	0.335450	0.220098
	H25	H	0.094846	0.661163	0.221323
	H26	H	0.092879	0.335779	0.790679
	H27	H	0.898204	0.662295	0.792902
	H28	H	0.208156	0.901360	0.342154
	H29	H	0.208989	0.097066	0.668850
	H30	H	0.781826	0.094982	0.341909
	H31	H	0.779584	0.901179	0.669049
	H32	H	0.331197	0.211562	0.908572
	H33	H	0.658340	0.213047	0.104662
	H34	H	0.331121	0.783628	0.103934
	H35	H	0.658748	0.783446	0.906610
	H36	H	0.330738	0.900349	0.219459
	H37	H	0.658214	0.096520	0.219588
	H38	H	0.330851	0.095329	0.792765
	H39	H	0.658620	0.899525	0.790107
	H40	H	0.897071	0.212512	0.342862
	H41	H	0.094055	0.214869	0.668345
	H42	H	0.094139	0.782907	0.343728
	H43	H	0.895249	0.783548	0.669088
	H44	H	0.208544	0.335140	0.907436
	H45	H	0.209294	0.661044	0.103584
	H46	H	0.782305	0.334458	0.100941
	H47	H	0.781064	0.661917	0.909396
	H48	H	0.404230	0.112996	0.596136
	H49	H	0.583466	0.883470	0.601690
	H50	H	0.594819	0.118327	0.406250
	H51	H	0.401784	0.883254	0.412715
	H52	H	0.599733	0.408121	0.124671
	H53	H	0.585760	0.596283	0.889263
	H54	H	0.405325	0.588908	0.120115
	H55	H	0.394228	0.406797	0.888495
	H56	H	0.111757	0.587618	0.409405
	H57	H	0.876335	0.594429	0.602975
	H58	H	0.114678	0.401269	0.603378
	H59	H	0.877385	0.405268	0.408288
	H60	H	0.110053	0.404211	0.590456
	H61	H	0.879872	0.592425	0.593737
	H62	H	0.112691	0.595562	0.412311
	H63	H	0.877956	0.401491	0.415245
	H64	H	0.403954	0.596458	0.122579
	H65	H	0.592937	0.589319	0.888687
	H66	H	0.580791	0.411645	0.118356
	H67	H	0.407768	0.408034	0.892976
	H68	H	0.580224	0.113739	0.408200
	H69	H	0.585308	0.885363	0.592827
	H70	H	0.397512	0.115844	0.598878
	H71	H	0.399567	0.881310	0.411670
	H72	H	0.899216	0.617869	0.109467
	H73	H	0.082496	0.383253	0.099667
	H74	H	0.087253	0.616094	0.907626
	H75	H	0.904575	0.381199	0.905375
	H76	H	0.085361	0.900188	0.623514
	H77	H	0.091503	0.098689	0.386120
	H78	H	0.896419	0.090163	0.623234
	H79	H	0.899918	0.899702	0.388103
	H80	H	0.614636	0.096176	0.906888
	H81	H	0.378171	0.091512	0.097743
	H82	H	0.614100	0.902525	0.104945
	H83	H	0.385501	0.917266	0.921767
	H84	H	0.610589	0.901141	0.091642
	H85	H	0.378211	0.089843	0.099595
	H86	H	0.609550	0.094455	0.921440
	H87	H	0.374088	0.907151	0.896024
	H88	H	0.906556	0.089022	0.619616
	H89	H	0.092470	0.085308	0.390186
	H90	H	0.094153	0.907081	0.623834
	H91	H	0.898566	0.908432	0.390559
	H92	H	0.084504	0.612302	0.916720
	H93	H	0.089060	0.383873	0.094121
	H94	H	0.910058	0.611378	0.097866
	H95	H	0.904459	0.384996	0.916928
	H96	H	0.403815	0.114904	0.603673
	H97	H	0.591772	0.882163	0.598271
	H98	H	0.590268	0.113435	0.420533
	H99	H	0.401956	0.882907	0.409835
	H100	H	0.586144	0.392476	0.124599
	H101	H	0.583844	0.586594	0.893108
	H102	H	0.397862	0.591179	0.123449
	H103	H	0.402446	0.395746	0.888242
	H104	H	0.110970	0.589591	0.417585
	H105	H	0.880031	0.585870	0.601166
	H106	H	0.109977	0.414456	0.600113
	H107	H	0.880146	0.409135	0.414943
	H108	H	0.893996	0.614878	0.093815
	H109	H	0.090261	0.379880	0.102230
	H110	H	0.093544	0.616112	0.915667
	H111	H	0.894427	0.380784	0.912101
	H112	H	0.084326	0.911228	0.619565
	H113	H	0.080390	0.091859	0.391493
	H114	H	0.903051	0.098415	0.623357
	H115	H	0.907119	0.904346	0.391581
	H116	H	0.609773	0.082122	0.911614
	H117	H	0.377257	0.092539	0.099883
	H118	H	0.608892	0.913533	0.097994
	H119	H	0.375640	0.889739	0.919860
	C120	C	0.373303	0.006741	0.627141
	C121	C	0.615957	0.991085	0.627161
	C122	C	0.616412	0.007235	0.383511
	C123	C	0.372912	0.990233	0.383660
	C124	C	0.616483	0.376201	0.014330
	C125	C	0.616218	0.619569	0.997929
	C126	C	0.373458	0.619796	0.014109
	C127	C	0.373285	0.376351	0.998163
	C128	C	0.003676	0.619325	0.384690
	C129	C	0.986708	0.619984	0.628034
	C130	C	0.003524	0.377688	0.626619
	C131	C	0.986507	0.376464	0.383750
	C132	C	0.873057	0.506573	0.127578
	C133	C	0.116388	0.489923	0.127418
	C134	C	0.117019	0.507124	0.884237
	C135	C	0.873053	0.490066	0.883713
	C136	C	0.116430	0.877214	0.514513
	C137	C	0.116295	0.120551	0.497086
	C138	C	0.873501	0.120341	0.514135
	C139	C	0.872793	0.876015	0.497915
	C140	C	0.503167	0.119127	0.884833
	C141	C	0.486236	0.119839	0.127603
	C142	C	0.502927	0.877088	0.126818
	C143	C	0.486546	0.876173	0.883503
	C144	C	0.375112	0.884363	0.682300
	C145	C	0.614367	0.113184	0.683759
	C146	C	0.613878	0.884501	0.328444
	C147	C	0.375373	0.112840	0.328663
	C148	C	0.670839	0.379362	0.891015
	C149	C	0.670747	0.616834	0.121163
	C150	C	0.318463	0.616149	0.891323
	C151	C	0.318376	0.380159	0.121012
	C152	C	0.880650	0.674214	0.387424
	C153	C	0.109803	0.675539	0.625578
	C154	C	0.880024	0.322853	0.623879
	C155	C	0.109686	0.321215	0.385729
	C156	C	0.880418	0.380060	0.681630
	C157	C	0.110123	0.617717	0.682831
	C158	C	0.880384	0.616728	0.330042
	C159	C	0.109502	0.378922	0.328335
	C160	C	0.375600	0.674368	0.891377
	C161	C	0.614196	0.675670	0.120506
	C162	C	0.613415	0.321033	0.891473
	C163	C	0.375301	0.321774	0.120511
	C164	C	0.671153	0.884415	0.386480
	C165	C	0.671352	0.113521	0.624998
	C166	C	0.318054	0.883885	0.623804
	C167	C	0.318581	0.113365	0.387338
	C168	C	0.875774	0.384026	0.182004
	C169	C	0.114438	0.612476	0.182927
	C170	C	0.113579	0.384244	0.828990
	C171	C	0.876687	0.613350	0.829986
	C172	C	0.171388	0.879905	0.391356
	C173	C	0.171247	0.118015	0.620255
	C174	C	0.818949	0.116710	0.391043
	C175	C	0.817562	0.880164	0.620405
	C176	C	0.379914	0.173866	0.887706
	C177	C	0.609435	0.175123	0.124973
	C178	C	0.379913	0.821790	0.124193
	C179	C	0.609816	0.821338	0.885988
	C180	C	0.379832	0.879591	0.181745
	C181	C	0.609419	0.117448	0.182132
	C182	C	0.379698	0.115928	0.830421
	C183	C	0.609738	0.878985	0.828192
	C184	C	0.876351	0.174902	0.391343
	C185	C	0.114256	0.176457	0.619930
	C186	C	0.114310	0.821462	0.392036
	C187	C	0.875071	0.821682	0.620423
	C188	C	0.171079	0.383938	0.886932
	C189	C	0.171795	0.612435	0.125028
	C190	C	0.819286	0.383373	0.123035
	C191	C	0.818297	0.613057	0.887379
	C192	C	0.395319	0.092479	0.605829
	C193	C	0.593379	0.905633	0.604355
	C194	C	0.594780	0.093051	0.405249
	C195	C	0.394565	0.904626	0.405207
	C196	C	0.595260	0.397886	0.100367
	C197	C	0.594140	0.597229	0.912631
	C198	C	0.395719	0.598410	0.099812
	C199	C	0.394947	0.397474	0.912049
	C200	C	0.089632	0.597432	0.406666
	C201	C	0.900902	0.597547	0.605890
	C202	C	0.089496	0.399901	0.604514
	C203	C	0.900545	0.398724	0.406408
	C204	C	0.894736	0.592547	0.106414
	C205	C	0.093896	0.404217	0.105188
	C206	C	0.095139	0.592753	0.906654
	C207	C	0.894723	0.404471	0.905099
	C208	C	0.094385	0.899518	0.600132
	C209	C	0.094476	0.098522	0.411560
	C210	C	0.895486	0.098955	0.599899
	C211	C	0.895353	0.897687	0.412049
	C212	C	0.589159	0.097306	0.906796
	C213	C	0.400147	0.097742	0.105555
	C214	C	0.589104	0.899174	0.104623
	C215	C	0.400605	0.898085	0.905922
	Zn216	Zn	0.494729	-0.001403	0.755877
	Zn217	Zn	0.494691	-0.001596	0.255378
	Zn218	Zn	0.744983	0.498226	0.006049
	Zn219	Zn	0.244964	0.497895	0.006321
	Zn220	Zn	-0.004585	0.747944	0.506210
	Zn221	Zn	-0.005173	0.249364	0.505750
	Zn222	Zn	-0.004659	0.498826	0.755545
	Zn223	Zn	-0.005074	0.498583	0.256043
	Zn224	Zn	0.494775	0.748397	0.005498
	Zn225	Zn	0.494230	0.247311	0.006339
	Zn226	Zn	0.744591	-0.001047	0.505344
	Zn227	Zn	0.244522	-0.001165	0.505954
	N228	N	0.408532	0.961630	0.684507
	N229	N	0.580535	0.035975	0.685019
	N230	N	0.580427	0.961690	0.326673
	N231	N	0.408332	0.035315	0.326218
	N232	N	0.672586	0.413161	0.968248
	N233	N	0.672158	0.582502	0.044185
	N234	N	0.317048	0.582791	0.968746
	N235	N	0.316909	0.413111	0.043718
	N236	N	0.958378	0.675891	0.420857
	N237	N	0.032278	0.676930	0.592126
	N238	N	0.957564	0.321322	0.590253
	N239	N	0.032108	0.319703	0.419677
	N240	N	0.958107	0.413652	0.683227
	N241	N	0.032564	0.583916	0.684373
	N242	N	0.957844	0.583284	0.328238
	N243	N	0.031996	0.412472	0.327025
	N244	N	0.408979	0.676676	0.968602
	N245	N	0.581235	0.677642	0.042907
	N246	N	0.580294	0.319002	0.969036
	N247	N	0.408796	0.319457	0.043188
	N248	N	0.672677	0.961690	0.420144
	N249	N	0.672355	0.036630	0.590625
	N250	N	0.316986	0.960960	0.590052
	N251	N	0.316901	0.036372	0.420875
	N252	N	0.908500	0.461636	0.184791
	N253	N	0.080549	0.535207	0.184320
	N254	N	0.080731	0.461683	0.827144
	N255	N	0.909727	0.535868	0.827368
	N256	N	0.172719	0.913878	0.468502
	N257	N	0.172820	0.084096	0.543145
	N258	N	0.817073	0.083648	0.468396
	N259	N	0.816107	0.913129	0.543041
	N260	N	0.457619	0.175797	0.920809
	N261	N	0.531782	0.176624	0.091642
	N262	N	0.457564	0.820232	0.090780
	N263	N	0.532280	0.819617	0.919591
	N264	N	0.457296	0.913654	0.183156
	N265	N	0.531935	0.083638	0.183702
	N266	N	0.457216	0.082447	0.828675
	N267	N	0.532089	0.912388	0.826482
	N268	N	0.909532	0.177186	0.468843
	N269	N	0.080618	0.178019	0.542552
	N270	N	0.080716	0.819969	0.469329
	N271	N	0.908604	0.819085	0.543037
	N272	N	0.173186	0.461276	0.920637
	N273	N	0.172968	0.535320	0.091065
	N274	N	0.817532	0.460585	0.089994
	N275	N	0.816003	0.535606	0.920168
	O276	O	0.582261	0.511841	0.548053
	H277	H	0.583441	0.511656	0.540242
	H278	H	0.583035	0.511461	0.545831
	O279	O	0.555956	0.564610	0.583082
	H280	H	0.556358	0.562720	0.586295
	H281	H	0.566497	0.567226	0.590090
	O282	O	1.570456	0.571584	-0.416934
	H283	H	1.569604	0.569709	-0.416551
	H284	H	1.580598	0.569091	-0.414815
	O285	O	0.585157	0.543630	0.552664
	H286	H	0.575189	0.548649	0.558638
	H287	H	0.586271	0.550080	0.554144
