data_Molecule from HDF5

_cell_length_a		16.402885
_cell_length_b		16.193342
_cell_length_c		16.247363
_cell_angle_alpha	90.042944
_cell_angle_beta	89.950543
_cell_angle_gamma	90.240328
_symmetry_space_group_name_H-M	'P 1'
_symmetry_Int_Tables_number		1

loop_
	_symmetry_equiv_pos_as_xyz
	x,y,z

loop_
	_atom_site_label
	_atom_site_type_symbol
	_atom_site_fract_x
	_atom_site_fract_y
	_atom_site_fract_z
	H0	H	0.404461	0.832359	0.710732
	H1	H	0.601364	0.161164	0.712030
	H2	H	0.599532	0.832741	0.284873
	H3	H	0.406408	0.161912	0.285863
	H4	H	0.718779	0.397984	0.834594
	H5	H	0.718632	0.596041	0.161895
	H6	H	0.289139	0.595739	0.835001
	H7	H	0.286762	0.395862	0.161777
	H8	H	0.839155	0.710393	0.401473
	H9	H	0.165344	0.712581	0.596866
	H10	H	0.840146	0.281923	0.597267
	H11	H	0.165881	0.282322	0.400173
	H12	H	0.840491	0.396957	0.714205
	H13	H	0.166032	0.595545	0.713084
	H14	H	0.840230	0.594962	0.283281
	H15	H	0.165983	0.398240	0.282921
	H16	H	0.407663	0.708660	0.833266
	H17	H	0.601030	0.709818	0.163070
	H18	H	0.599159	0.285208	0.832654
	H19	H	0.406713	0.284854	0.163278
	H20	H	0.716785	0.832945	0.398111
	H21	H	0.719845	0.159860	0.599391
	H22	H	0.285504	0.834252	0.599925
	H23	H	0.288030	0.160935	0.398166
	H24	H	0.905579	0.331825	0.211359
	H25	H	0.102082	0.661779	0.212549
	H26	H	0.099801	0.332649	0.784741
	H27	H	0.906992	0.661170	0.785472
	H28	H	0.218679	0.897142	0.336041
	H29	H	0.220155	0.100044	0.661540
	H30	H	0.787579	0.097554	0.336012
	H31	H	0.786165	0.896087	0.661429
	H32	H	0.340056	0.211179	0.900210
	H33	H	0.665313	0.213010	0.096518
	H34	H	0.340576	0.781043	0.096801
	H35	H	0.666401	0.783876	0.899699
	H36	H	0.340150	0.896761	0.214225
	H37	H	0.664881	0.096813	0.213502
	H38	H	0.339641	0.093976	0.784033
	H39	H	0.664438	0.897386	0.780547
	H40	H	0.905779	0.209834	0.334835
	H41	H	0.099923	0.210726	0.663454
	H42	H	0.099543	0.784357	0.334494
	H43	H	0.905430	0.784252	0.663256
	H44	H	0.216908	0.332657	0.898509
	H45	H	0.218422	0.661359	0.097290
	H46	H	0.786577	0.333598	0.099936
	H47	H	0.790445	0.660512	0.898977
	H48	H	0.415256	0.112225	0.588321
	H49	H	0.601564	0.877994	0.589543
	H50	H	0.596242	0.115619	0.400370
	H51	H	0.412510	0.879935	0.404133
	H52	H	0.595954	0.413116	0.112434
	H53	H	0.590564	0.586857	0.884535
	H54	H	0.421479	0.589556	0.112028
	H55	H	0.412624	0.403247	0.882638
	H56	H	0.117383	0.586125	0.403094
	H57	H	0.885968	0.586267	0.599865
	H58	H	0.116232	0.409798	0.590259
	H59	H	0.886702	0.395596	0.409420
	H60	H	0.120890	0.403627	0.598332
	H61	H	0.885239	0.596719	0.591726
	H62	H	0.119892	0.595600	0.403050
	H63	H	0.890711	0.409931	0.409242
	H64	H	0.405839	0.597589	0.119166
	H65	H	0.599096	0.600075	0.877829
	H66	H	0.590228	0.400329	0.114616
	H67	H	0.407339	0.402378	0.880454
	H68	H	0.592947	0.112775	0.408805
	H69	H	0.590984	0.879027	0.595191
	H70	H	0.406226	0.115011	0.587173
	H71	H	0.409289	0.881651	0.410519
	H72	H	0.907997	0.614270	0.087911
	H73	H	0.093823	0.381152	0.089590
	H74	H	0.096878	0.614235	0.906181
	H75	H	0.913126	0.379884	0.904489
	H76	H	0.107012	0.907344	0.619176
	H77	H	0.097939	0.088840	0.381781
	H78	H	0.910963	0.095485	0.617511
	H79	H	0.907419	0.904449	0.381547
	H80	H	0.616994	0.090317	0.909539
	H81	H	0.388844	0.085918	0.089275
	H82	H	0.615430	0.913623	0.091779
	H83	H	0.389074	0.900708	0.911194
	H84	H	0.621159	0.901184	0.098943
	H85	H	0.385390	0.089583	0.098941
	H86	H	0.618394	0.087604	0.902116
	H87	H	0.389015	0.909354	0.903693
	H88	H	0.902854	0.085908	0.616706
	H89	H	0.095841	0.087020	0.383228
	H90	H	0.089983	0.915026	0.610677
	H91	H	0.909091	0.904728	0.382276
	H92	H	0.098076	0.614247	0.907158
	H93	H	0.099139	0.379137	0.089153
	H94	H	0.909723	0.615588	0.095162
	H95	H	0.910246	0.380530	0.910426
	H96	H	0.410802	0.116363	0.595819
	H97	H	0.592693	0.882261	0.583181
	H98	H	0.602870	0.115484	0.408058
	H99	H	0.405675	0.878408	0.405631
	H100	H	0.603775	0.402783	0.117127
	H101	H	0.606914	0.584919	0.880340
	H102	H	0.405240	0.578860	0.113267
	H103	H	0.408465	0.407404	0.882394
	H104	H	0.116547	0.591423	0.411659
	H105	H	0.890158	0.585518	0.587128
	H106	H	0.118744	0.399138	0.587866
	H107	H	0.886145	0.403353	0.397078
	H108	H	0.915383	0.612538	0.090025
	H109	H	0.096010	0.379083	0.094040
	H110	H	0.098768	0.614742	0.905711
	H111	H	0.906812	0.378050	0.905052
	H112	H	0.090307	0.894939	0.616685
	H113	H	0.094671	0.089835	0.383033
	H114	H	0.914835	0.084361	0.612674
	H115	H	0.909146	0.903408	0.381523
	H116	H	0.619387	0.095476	0.903938
	H117	H	0.385658	0.095934	0.090544
	H118	H	0.617152	0.900688	0.084592
	H119	H	0.384971	0.898764	0.901053
	C120	C	0.381623	0.005773	0.619466
	C121	C	0.623926	0.988061	0.619131
	C122	C	0.624737	0.005859	0.376995
	C123	C	0.381206	0.988717	0.377757
	C124	C	0.624658	0.376424	0.006009
	C125	C	0.626711	0.619240	0.989756
	C126	C	0.382760	0.617294	0.006513
	C127	C	0.381164	0.375381	0.990021
	C128	C	0.010726	0.619192	0.377335
	C129	C	0.994690	0.618568	0.621072
	C130	C	0.011057	0.374916	0.620911
	C131	C	0.995284	0.374823	0.376932
	C132	C	0.881842	0.505515	0.120020
	C133	C	0.125309	0.488481	0.120254
	C134	C	0.125259	0.505514	0.877158
	C135	C	0.882384	0.487905	0.877691
	C136	C	0.123986	0.876558	0.507302
	C137	C	0.124808	0.118235	0.490538
	C138	C	0.881629	0.117621	0.507525
	C139	C	0.880356	0.875619	0.489950
	C140	C	0.510866	0.119131	0.876333
	C141	C	0.494289	0.118934	0.120594
	C142	C	0.510935	0.875442	0.120761
	C143	C	0.495056	0.874930	0.876337
	C144	C	0.383320	0.881899	0.674285
	C145	C	0.621825	0.111862	0.674767
	C146	C	0.620742	0.881978	0.322071
	C147	C	0.385178	0.112697	0.323388
	C148	C	0.680218	0.377837	0.883114
	C149	C	0.681055	0.616825	0.112999
	C150	C	0.327448	0.615500	0.883421
	C151	C	0.325924	0.377043	0.113406
	C152	C	0.888083	0.673162	0.380377
	C153	C	0.116853	0.674481	0.617981
	C154	C	0.888828	0.319511	0.618059
	C155	C	0.117604	0.320394	0.379791
	C156	C	0.889042	0.376898	0.676249
	C157	C	0.117328	0.616273	0.675489
	C158	C	0.888359	0.615662	0.321969
	C159	C	0.117476	0.377893	0.321487
	C160	C	0.386316	0.671744	0.882751
	C161	C	0.622621	0.673443	0.113333
	C162	C	0.620524	0.322098	0.882297
	C163	C	0.384915	0.321331	0.113967
	C164	C	0.679166	0.882061	0.378270
	C165	C	0.680200	0.111525	0.618159
	C166	C	0.324616	0.882894	0.618722
	C167	C	0.326256	0.111963	0.378971
	C168	C	0.884606	0.381249	0.174486
	C169	C	0.122673	0.612556	0.174948
	C170	C	0.120946	0.381717	0.822245
	C171	C	0.886033	0.611935	0.822718
	C172	C	0.179487	0.878174	0.384307
	C173	C	0.181012	0.118586	0.613142
	C174	C	0.825995	0.116728	0.384617
	C175	C	0.824936	0.876810	0.613130
	C176	C	0.388438	0.173218	0.879577
	C177	C	0.616630	0.174588	0.117447
	C178	C	0.388936	0.819132	0.117944
	C179	C	0.617512	0.820927	0.878704
	C180	C	0.388805	0.876648	0.176286
	C181	C	0.616595	0.116775	0.175538
	C182	C	0.388344	0.115000	0.821804
	C183	C	0.616687	0.877631	0.819905
	C184	C	0.884809	0.172496	0.383914
	C185	C	0.121604	0.173664	0.614137
	C186	C	0.120557	0.821697	0.383790
	C187	C	0.883908	0.821039	0.613921
	C188	C	0.178998	0.381610	0.878896
	C189	C	0.180887	0.612189	0.118167
	C190	C	0.825417	0.382264	0.119091
	C191	C	0.828506	0.611812	0.879529
	C192	C	0.404275	0.092258	0.597327
	C193	C	0.601515	0.902052	0.596046
	C194	C	0.603548	0.092278	0.399228
	C195	C	0.402700	0.902193	0.400099
	C196	C	0.603056	0.398893	0.092447
	C197	C	0.605557	0.597013	0.903263
	C198	C	0.404450	0.595039	0.092649
	C199	C	0.402988	0.397723	0.904010
	C200	C	0.095832	0.597436	0.399426
	C201	C	0.909252	0.596077	0.599320
	C202	C	0.096693	0.397577	0.598776
	C203	C	0.909929	0.396520	0.398838
	C204	C	0.904408	0.591737	0.097577
	C205	C	0.102961	0.402231	0.097694
	C206	C	0.104239	0.592147	0.899760
	C207	C	0.903765	0.401809	0.900151
	C208	C	0.102177	0.899252	0.593354
	C209	C	0.102594	0.095391	0.404818
	C210	C	0.903236	0.095302	0.593286
	C211	C	0.901947	0.897764	0.403969
	C212	C	0.596269	0.097434	0.898424
	C213	C	0.408911	0.096971	0.099269
	C214	C	0.595892	0.898424	0.098226
	C215	C	0.409711	0.896604	0.898659
	Zn216	Zn	0.502419	-0.003198	0.747185
	Zn217	Zn	0.502155	-0.002772	0.250246
	Zn218	Zn	0.754230	0.497073	-0.001378
	Zn219	Zn	0.253223	0.496695	-0.001574
	Zn220	Zn	0.002164	0.748121	0.499552
	Zn221	Zn	0.003221	0.245558	0.499086
	Zn222	Zn	0.003267	0.496647	0.749901
	Zn223	Zn	0.003160	0.497072	0.247505
	Zn224	Zn	0.503596	0.746277	-0.001798
	Zn225	Zn	0.502667	0.247990	-0.001464
	Zn226	Zn	0.752390	-0.003412	0.498451
	Zn227	Zn	0.253304	-0.002169	0.499299
	N228	N	0.417946	0.959329	0.674917
	N229	N	0.587298	0.034218	0.675176
	N230	N	0.587586	0.959890	0.321287
	N231	N	0.418573	0.034826	0.322457
	N232	N	0.682613	0.411064	0.960922
	N233	N	0.683704	0.583974	0.035021
	N234	N	0.325165	0.582249	0.961403
	N235	N	0.323282	0.409760	0.035279
	N236	N	0.964926	0.675495	0.413999
	N237	N	0.039746	0.675917	0.584826
	N238	N	0.965838	0.317972	0.584400
	N239	N	0.040700	0.318160	0.413344
	N240	N	0.966239	0.410634	0.677923
	N241	N	0.040345	0.582273	0.677762
	N242	N	0.965725	0.582929	0.319686
	N243	N	0.040328	0.411052	0.319404
	N244	N	0.420148	0.672802	0.960213
	N245	N	0.589496	0.674974	0.035553
	N246	N	0.586915	0.320928	0.959975
	N247	N	0.418572	0.320267	0.036432
	N248	N	0.681718	0.960014	0.411778
	N249	N	0.681804	0.033557	0.584584
	N250	N	0.323872	0.960910	0.585102
	N251	N	0.323879	0.033869	0.412166
	N252	N	0.918897	0.458898	0.175325
	N253	N	0.088737	0.534640	0.176248
	N254	N	0.088342	0.459836	0.821120
	N255	N	0.919223	0.534075	0.821767
	N256	N	0.181740	0.911469	0.462251
	N257	N	0.183052	0.084999	0.535410
	N258	N	0.823641	0.083275	0.462453
	N259	N	0.822628	0.909998	0.535277
	N260	N	0.465547	0.175837	0.912839
	N261	N	0.539776	0.176112	0.084118
	N262	N	0.465798	0.818095	0.084316
	N263	N	0.541002	0.819343	0.913473
	N264	N	0.465786	0.910895	0.178270
	N265	N	0.539503	0.083007	0.177879
	N266	N	0.465709	0.082304	0.819605
	N267	N	0.539522	0.910027	0.818060
	N268	N	0.918747	0.173145	0.461228
	N269	N	0.087294	0.173864	0.536798
	N270	N	0.086751	0.820554	0.461227
	N271	N	0.917794	0.820217	0.536492
	N272	N	0.181689	0.459624	0.912562
	N273	N	0.182668	0.534113	0.084904
	N274	N	0.823690	0.460440	0.085850
	N275	N	0.825856	0.533810	0.912840
	O276	O	0.995501	0.928042	0.079763
	H277	H	1.004896	0.924883	0.084061
	H278	H	0.980381	0.924649	0.071055
	O279	O	0.022573	0.053533	0.065251
	H280	H	0.011323	0.061125	0.064464
	H281	H	0.029315	0.061903	0.077670
	O282	O	0.003138	0.028098	1.028945
	H283	H	0.004809	0.028732	1.028070
	H284	H	0.002296	0.014056	1.035768
	O285	O	0.466800	0.549818	0.483452
	H286	H	0.462966	0.530376	0.487239
	H287	H	0.464230	0.550328	0.487148
	O288	O	0.469656	0.503557	0.492522
	H289	H	0.467122	0.491899	0.491502
	H290	H	0.478172	0.505779	0.481050
	O291	O	0.497535	0.497595	0.426141
	H292	H	0.494828	0.496081	0.419153
	H293	H	0.492821	0.496321	0.417997
	O294	O	-0.049939	-0.047492	0.048981
	H295	H	-0.047029	-0.051540	0.042971
	H296	H	-0.052824	-0.051496	0.058539
	O297	O	0.482395	0.526368	0.460366
	H298	H	0.486048	0.536845	0.460357
	H299	H	0.473900	0.523857	0.472574
	O300	O	-0.075402	0.956770	1.079668
	H301	H	-0.070155	0.951356	1.084304
	H302	H	-0.076872	0.966282	1.098163
	O303	O	0.517880	0.478682	0.483260
	H304	H	0.512564	0.500369	0.480785
	H305	H	0.520471	0.475600	0.484036
	O306	O	-0.001452	0.066732	1.049024
	H307	H	-0.007293	0.063623	1.045993
	H308	H	-0.010468	0.060542	1.051578
	O309	O	0.984215	1.023150	0.945185
	H310	H	0.982010	1.027184	0.942664
	H311	H	0.984848	1.022646	0.945412
	O312	O	0.443822	0.480933	0.482204
	H313	H	0.446639	0.489868	0.486874
	H314	H	0.437670	0.481387	0.488344
	O315	O	0.483640	0.507167	0.463923
	H316	H	0.489904	0.500834	0.459733
	H317	H	0.483922	0.511285	0.462223
	O318	O	-0.014264	1.029080	0.028277
	H319	H	-0.012046	1.028129	0.026408
	H320	H	-0.014883	1.033341	0.033097
	O321	O	0.971950	1.016415	0.036290
	H322	H	0.972303	1.025580	0.030150
	H323	H	0.972475	1.020301	0.035028
