data_Molecule from HDF5

_cell_length_a		16.356191
_cell_length_b		16.332274
_cell_length_c		16.326502
_cell_angle_alpha	90.300771
_cell_angle_beta	89.987528
_cell_angle_gamma	89.768899
_symmetry_space_group_name_H-M	'P 1'
_symmetry_Int_Tables_number		1

loop_
	_symmetry_equiv_pos_as_xyz
	x,y,z

loop_
	_atom_site_label
	_atom_site_type_symbol
	_atom_site_fract_x
	_atom_site_fract_y
	_atom_site_fract_z
	H0	H	0.383791	0.843858	0.716708
	H1	H	0.590278	0.165203	0.718962
	H2	H	0.592680	0.843115	0.277947
	H3	H	0.383911	0.164624	0.279966
	H4	H	0.706354	0.397138	0.837683
	H5	H	0.705504	0.608509	0.158512
	H6	H	0.265758	0.606492	0.837754
	H7	H	0.266761	0.400551	0.158076
	H8	H	0.827128	0.724660	0.396033
	H9	H	0.147164	0.723468	0.604461
	H10	H	0.826053	0.286643	0.601771
	H11	H	0.147460	0.284559	0.394920
	H12	H	0.825992	0.402780	0.717344
	H13	H	0.146583	0.608961	0.720018
	H14	H	0.826780	0.609016	0.280100
	H15	H	0.147673	0.400786	0.278599
	H16	H	0.380972	0.723084	0.836950
	H17	H	0.591473	0.725845	0.157581
	H18	H	0.588476	0.284868	0.836581
	H19	H	0.380688	0.284542	0.157591
	H20	H	0.709433	0.844570	0.393088
	H21	H	0.706241	0.165709	0.603700
	H22	H	0.267149	0.844907	0.602618
	H23	H	0.266671	0.164389	0.394455
	H24	H	0.886575	0.343270	0.215402
	H25	H	0.086643	0.666715	0.215262
	H26	H	0.087683	0.342679	0.780469
	H27	H	0.884095	0.666762	0.783288
	H28	H	0.205074	0.900384	0.337298
	H29	H	0.204741	0.106231	0.659796
	H30	H	0.771165	0.105223	0.337051
	H31	H	0.769690	0.903614	0.659638
	H32	H	0.324783	0.220817	0.897028
	H33	H	0.648519	0.221736	0.099143
	H34	H	0.325019	0.788673	0.097974
	H35	H	0.647557	0.782921	0.894619
	H36	H	0.325839	0.902886	0.215245
	H37	H	0.649032	0.105255	0.215421
	H38	H	0.324889	0.104520	0.781757
	H39	H	0.648781	0.901188	0.779932
	H40	H	0.886719	0.220062	0.337155
	H41	H	0.088199	0.222304	0.660647
	H42	H	0.091207	0.783972	0.338839
	H43	H	0.886549	0.789629	0.661028
	H44	H	0.204600	0.342506	0.896051
	H45	H	0.204694	0.665122	0.102888
	H46	H	0.768720	0.342944	0.100457
	H47	H	0.767398	0.665173	0.898142
	H48	H	0.399345	0.118612	0.590008
	H49	H	0.581663	0.892738	0.578446
	H50	H	0.576331	0.118829	0.406019
	H51	H	0.391394	0.886757	0.403993
	H52	H	0.578616	0.417193	0.111803
	H53	H	0.580606	0.586616	0.884315
	H54	H	0.392732	0.594926	0.113514
	H55	H	0.385628	0.416380	0.880616
	H56	H	0.103324	0.601120	0.407416
	H57	H	0.873353	0.594319	0.588330
	H58	H	0.102596	0.410522	0.589382
	H59	H	0.873284	0.417307	0.406291
	H60	H	0.099253	0.415141	0.585000
	H61	H	0.872211	0.596625	0.592206
	H62	H	0.098641	0.591368	0.415656
	H63	H	0.870767	0.412088	0.404233
	H64	H	0.397850	0.592382	0.111427
	H65	H	0.568797	0.590032	0.886640
	H66	H	0.573457	0.413183	0.111493
	H67	H	0.402555	0.422136	0.887811
	H68	H	0.577073	0.117555	0.410235
	H69	H	0.584687	0.886429	0.594316
	H70	H	0.395497	0.118524	0.586044
	H71	H	0.404155	0.889848	0.402976
	H72	H	0.895913	0.619347	0.090267
	H73	H	0.077010	0.389893	0.090117
	H74	H	0.077465	0.618463	0.911900
	H75	H	0.894596	0.390468	0.913439
	H76	H	0.073673	0.914123	0.612852
	H77	H	0.077692	0.090244	0.385256
	H78	H	0.891638	0.100177	0.616862
	H79	H	0.897662	0.917152	0.384866
	H80	H	0.603703	0.101899	0.906825
	H81	H	0.371515	0.097670	0.088772
	H82	H	0.601574	0.918467	0.092081
	H83	H	0.370535	0.913636	0.901304
	H84	H	0.605108	0.906563	0.089799
	H85	H	0.373507	0.093719	0.087672
	H86	H	0.598641	0.092479	0.914780
	H87	H	0.371306	0.908822	0.909482
	H88	H	0.895965	0.090732	0.613365
	H89	H	0.074012	0.098657	0.383431
	H90	H	0.081359	0.910221	0.615820
	H91	H	0.901461	0.914135	0.385362
	H92	H	0.077846	0.620213	0.907036
	H93	H	0.076248	0.390421	0.087394
	H94	H	0.894063	0.619306	0.087755
	H95	H	0.893232	0.386754	0.903350
	H96	H	0.394747	0.120293	0.590912
	H97	H	0.568984	0.892642	0.590073
	H98	H	0.580539	0.119636	0.407911
	H99	H	0.397978	0.891598	0.414340
	H100	H	0.578602	0.411327	0.114307
	H101	H	0.577214	0.598046	0.881160
	H102	H	0.397576	0.599175	0.112015
	H103	H	0.400529	0.403757	0.881897
	H104	H	0.102095	0.588160	0.403587
	H105	H	0.871945	0.599229	0.588243
	H106	H	0.100736	0.417201	0.591496
	H107	H	0.872690	0.412213	0.410019
	H108	H	0.892735	0.619927	0.090913
	H109	H	0.078020	0.389227	0.088027
	H110	H	0.073553	0.618246	0.909322
	H111	H	0.901927	0.391214	0.906552
	H112	H	0.081731	0.918447	0.613850
	H113	H	0.082001	0.096974	0.381228
	H114	H	0.902011	0.099681	0.613071
	H115	H	0.897640	0.912768	0.383966
	H116	H	0.601969	0.089611	0.902339
	H117	H	0.372639	0.095049	0.091746
	H118	H	0.599170	0.913679	0.081215
	H119	H	0.374000	0.917917	0.909135
	C120	C	0.365656	0.013032	0.619655
	C121	C	0.609104	0.996650	0.619808
	C122	C	0.609791	0.012675	0.376524
	C123	C	0.366251	0.995706	0.376662
	C124	C	0.608018	0.381869	0.006509
	C125	C	0.607077	0.624442	0.989680
	C126	C	0.364138	0.626277	0.006439
	C127	C	0.365006	0.383293	0.989559
	C128	C	-0.004382	0.625834	0.377883
	C129	C	0.978063	0.627396	0.621191
	C130	C	-0.005079	0.383762	0.619739
	C131	C	0.978548	0.382751	0.376288
	C132	C	0.864277	0.513234	0.120110
	C133	C	0.107645	0.496266	0.119912
	C134	C	0.107571	0.512417	0.877586
	C135	C	0.865075	0.495976	0.877386
	C136	C	0.109552	0.882644	0.507592
	C137	C	0.108540	0.126302	0.490036
	C138	C	0.865990	0.126547	0.507727
	C139	C	0.867653	0.884370	0.490919
	C140	C	0.495149	0.125278	0.877335
	C141	C	0.479006	0.126084	0.119818
	C142	C	0.495381	0.882944	0.118439
	C143	C	0.478397	0.881974	0.875486
	C144	C	0.365029	0.892187	0.677661
	C145	C	0.609276	0.117307	0.679167
	C146	C	0.611181	0.891639	0.317348
	C147	C	0.364815	0.116647	0.318752
	C148	C	0.667006	0.379347	0.885806
	C149	C	0.666082	0.626651	0.110435
	C150	C	0.304974	0.626082	0.885860
	C151	C	0.305987	0.381812	0.110151
	C152	C	0.875269	0.685302	0.376968
	C153	C	0.098947	0.684876	0.622641
	C154	C	0.874076	0.325980	0.620413
	C155	C	0.099368	0.324114	0.375865
	C156	C	0.874049	0.383589	0.678215
	C157	C	0.098710	0.627701	0.680343
	C158	C	0.875084	0.627630	0.319194
	C159	C	0.099514	0.381869	0.317818
	C160	C	0.362442	0.684180	0.885406
	C161	C	0.609114	0.684936	0.109996
	C162	C	0.608026	0.323546	0.885188
	C163	C	0.362943	0.324185	0.109771
	C164	C	0.669332	0.892114	0.374806
	C165	C	0.666962	0.117687	0.621458
	C166	C	0.306927	0.892785	0.620710
	C167	C	0.306919	0.116520	0.376198
	C168	C	0.865946	0.391636	0.177065
	C169	C	0.106877	0.617932	0.177131
	C170	C	0.107812	0.391244	0.819210
	C171	C	0.864673	0.618016	0.821359
	C172	C	0.166502	0.881798	0.385821
	C173	C	0.165923	0.126074	0.611704
	C174	C	0.809036	0.125442	0.385822
	C175	C	0.808919	0.884236	0.611724
	C176	C	0.373162	0.182153	0.877545
	C177	C	0.600006	0.183546	0.119183
	C178	C	0.373616	0.826843	0.117754
	C179	C	0.599539	0.822694	0.875058
	C180	C	0.374095	0.883701	0.176220
	C181	C	0.600440	0.125443	0.176874
	C182	C	0.373513	0.124556	0.819825
	C183	C	0.600055	0.881417	0.818005
	C184	C	0.866614	0.182524	0.385711
	C185	C	0.108099	0.183889	0.611936
	C186	C	0.110269	0.823261	0.386892
	C187	C	0.866927	0.827420	0.612357
	C188	C	0.165610	0.390937	0.877028
	C189	C	0.165600	0.617099	0.120984
	C190	C	0.807766	0.391470	0.119615
	C191	C	0.806458	0.617219	0.878228
	C192	C	0.389656	0.097462	0.595856
	C193	C	0.585343	0.912476	0.594738
	C194	C	0.585054	0.096666	0.400856
	C195	C	0.390668	0.911403	0.400380
	C196	C	0.583928	0.406791	0.090551
	C197	C	0.582420	0.598956	0.905769
	C198	C	0.388855	0.602559	0.090502
	C199	C	0.389218	0.407187	0.905476
	C200	C	0.079649	0.600733	0.402003
	C201	C	0.894095	0.603569	0.596814
	C202	C	0.079059	0.407517	0.595555
	C203	C	0.894131	0.407058	0.400069
	C204	C	0.887385	0.597620	0.096745
	C205	C	0.083967	0.411665	0.095635
	C206	C	0.083297	0.597090	0.902259
	C207	C	0.889495	0.411554	0.900991
	C208	C	0.085939	0.907123	0.592155
	C209	C	0.084972	0.102241	0.405307
	C210	C	0.889511	0.103432	0.592555
	C211	C	0.891913	0.907793	0.406594
	C212	C	0.579472	0.101418	0.901068
	C213	C	0.394443	0.102330	0.096325
	C214	C	0.579867	0.906184	0.094674
	C215	C	0.394198	0.906217	0.899378
	Zn216	Zn	0.487579	0.004513	0.747760
	Zn217	Zn	0.487725	0.003688	0.248180
	Zn218	Zn	0.735434	0.503333	-0.002057
	Zn219	Zn	0.236054	0.504229	-0.000887
	Zn220	Zn	-0.012523	0.754835	0.499705
	Zn221	Zn	-0.013320	0.254496	0.498719
	Zn222	Zn	-0.013688	0.505219	0.748714
	Zn223	Zn	-0.012956	0.505076	0.248277
	Zn224	Zn	0.486613	0.753614	-0.002652
	Zn225	Zn	0.485947	0.255118	-0.002370
	Zn226	Zn	0.738357	0.004939	0.498909
	Zn227	Zn	0.237207	0.004229	0.498215
	N228	N	0.401127	0.967934	0.676895
	N229	N	0.573991	0.041203	0.678091
	N230	N	0.574535	0.967620	0.318378
	N231	N	0.401047	0.040615	0.319126
	N232	N	0.666967	0.415272	0.962221
	N233	N	0.664685	0.589393	0.034767
	N234	N	0.305811	0.590819	0.962035
	N235	N	0.307069	0.418100	0.034489
	N236	N	0.951195	0.684226	0.412891
	N237	N	0.023129	0.684654	0.586506
	N238	N	0.950194	0.325866	0.584638
	N239	N	0.023291	0.324504	0.411494
	N240	N	0.950182	0.418836	0.677888
	N241	N	0.022549	0.592448	0.679650
	N242	N	0.951032	0.591239	0.319648
	N243	N	0.023310	0.417723	0.318002
	N244	N	0.398679	0.684340	0.961470
	N245	N	0.572920	0.683453	0.033957
	N246	N	0.572024	0.325004	0.961179
	N247	N	0.399055	0.325131	0.033922
	N248	N	0.668465	0.968156	0.411165
	N249	N	0.667004	0.041565	0.585067
	N250	N	0.307182	0.968995	0.585158
	N251	N	0.307594	0.040240	0.411534
	N252	N	0.900361	0.468356	0.177532
	N253	N	0.071827	0.541613	0.176461
	N254	N	0.072573	0.467807	0.819542
	N255	N	0.900305	0.541626	0.820587
	N256	N	0.166612	0.917674	0.462075
	N257	N	0.166447	0.091123	0.534971
	N258	N	0.808647	0.091401	0.462723
	N259	N	0.809142	0.918867	0.535240
	N260	N	0.449601	0.182860	0.912445
	N261	N	0.523128	0.184371	0.084804
	N262	N	0.450094	0.826048	0.082743
	N263	N	0.522996	0.822767	0.909949
	N264	N	0.450826	0.917828	0.176767
	N265	N	0.524059	0.090741	0.177701
	N266	N	0.450205	0.089714	0.819742
	N267	N	0.523687	0.917008	0.817770
	N268	N	0.901129	0.183488	0.462557
	N269	N	0.073306	0.184200	0.535158
	N270	N	0.075551	0.823635	0.463579
	N271	N	0.902938	0.827492	0.536228
	N272	N	0.165821	0.467635	0.912274
	N273	N	0.166227	0.540240	0.086095
	N274	N	0.806248	0.468058	0.085320
	N275	N	0.806400	0.540251	0.912072
	O276	O	1.029980	-0.033779	0.986994
	H277	H	1.034612	-0.035883	0.978735
	H278	H	1.023161	-0.041575	0.979186
	O279	O	0.282282	0.509542	0.610573
	H280	H	0.262933	0.492466	0.626289
	H281	H	0.285596	0.474509	0.612718
	O282	O	0.311848	0.444549	0.402425
	H283	H	0.325310	0.424181	0.391749
	H284	H	0.315226	0.443141	0.399555
	O285	O	0.690659	0.488638	0.325752
	H286	H	0.679477	0.511077	0.324754
	H287	H	0.698476	0.497622	0.322429
	O288	O	0.699015	0.286287	0.287183
	H289	H	0.711771	0.292282	0.310400
	H290	H	0.706788	0.309150	0.299593
	O291	O	0.005154	0.114949	1.027901
	H292	H	-0.007311	0.126444	1.032240
	H293	H	0.010834	0.124248	1.032428
	O294	O	1.052107	1.076025	-0.014061
	H295	H	1.044732	1.087373	-0.017449
	H296	H	1.052010	1.083431	-0.004280
	O297	O	0.895274	0.967318	0.009479
	H298	H	0.887898	0.968134	0.016654
	H299	H	0.901701	0.961202	0.006904
	O300	O	0.407454	0.509864	0.517335
	H301	H	0.408689	0.489255	0.514202
	H302	H	0.391457	0.500630	0.516439
	O303	O	0.532723	0.290893	0.308431
	H304	H	0.558672	0.291950	0.298899
	H305	H	0.553437	0.274735	0.301010
	O306	O	0.497286	0.405012	0.561262
	H307	H	0.501040	0.404294	0.547823
	H308	H	0.493707	0.431333	0.575112
	O309	O	0.665287	0.586914	0.683504
	H310	H	0.662884	0.604691	0.687156
	H311	H	0.660159	0.605153	0.675946
	O312	O	1.568940	1.453443	0.607609
	H313	H	1.556379	1.442971	0.601275
	H314	H	1.562619	1.471376	0.619089
	O315	O	0.990118	1.024176	-0.031215
	H316	H	0.994323	1.019732	-0.022034
	H317	H	0.981570	1.030288	-0.033727
	O318	O	0.655992	0.604457	0.690543
	H319	H	0.674100	0.623008	0.678088
	H320	H	0.640155	0.619608	0.702617
	O321	O	0.557407	0.397698	0.436891
	H322	H	0.568298	0.387836	0.454346
	H323	H	0.570995	0.392527	0.443778
	O324	O	-0.040275	1.017419	0.975968
	H325	H	-0.038695	1.015573	0.991591
	H326	H	-0.048709	1.006364	0.968928
	O327	O	-0.403623	0.345010	1.572223
	H328	H	-0.406261	0.359837	1.581784
	H329	H	-0.390752	0.364503	1.580838
	O330	O	-0.553559	0.662695	0.589413
	H331	H	-0.580013	0.662680	0.570463
	H332	H	-0.552184	0.643460	0.569798
	O333	O	0.516801	0.677556	0.708311
	H334	H	0.515674	0.702755	0.720239
	H335	H	0.500382	0.677596	0.705985
	O336	O	0.017628	-0.056019	-0.031491
	H337	H	0.024082	-0.057675	-0.023991
	H338	H	0.018852	-0.043122	-0.026212
	O339	O	0.578683	0.348413	-0.457889
	H340	H	0.573296	0.365157	-0.449975
	H341	H	0.574759	0.338020	-0.451022
	O342	O	0.341165	0.695658	0.342959
	H343	H	0.323003	0.696595	0.364587
	H344	H	0.324657	0.674444	0.331719
	O345	O	0.541274	0.658560	0.479589
	H346	H	0.526976	0.649502	0.479376
	H347	H	0.526854	0.666516	0.476250
	O348	O	0.669719	0.692791	0.529539
	H349	H	0.677322	0.689743	0.526927
	H350	H	0.648669	0.707142	0.513054
	O351	O	0.482245	0.662779	0.296422
	H352	H	0.453241	0.647930	0.302933
	H353	H	0.475124	0.682826	0.276130
	O354	O	0.006280	1.076683	0.014337
	H355	H	-0.002304	1.079708	0.019752
	H356	H	0.023418	1.078272	0.019765
	O357	O	0.334518	0.363601	0.542513
	H358	H	0.324124	0.347711	0.537412
	H359	H	0.354731	0.357920	0.547124
	O360	O	1.025564	0.074866	1.051554
	H361	H	1.027240	0.069252	1.044518
	H362	H	1.022149	0.079061	1.055618
	O363	O	0.311405	0.389361	0.684507
	H364	H	0.346319	0.375447	0.691986
	H365	H	0.310093	0.372913	0.665859
	O366	O	0.441881	0.463442	0.681052
	H367	H	0.439786	0.462521	0.685873
	H368	H	0.456070	0.475081	0.675017
	O369	O	1.004498	0.019414	0.027476
	H370	H	1.002134	0.013628	0.026311
	H371	H	1.011408	0.012644	0.016181
	O372	O	0.477800	0.378221	0.357522
	H373	H	0.503346	0.364052	0.356008
	H374	H	0.491523	0.380475	0.347608
	O375	O	0.975058	0.029960	1.017891
	H376	H	0.979882	0.023759	1.020198
	H377	H	0.968643	0.031239	1.012279
	O378	O	0.292279	0.674970	0.463406
	H379	H	0.271946	0.665555	0.466302
	H380	H	0.276566	0.666095	0.488705
	O381	O	0.540222	0.560563	0.305097
	H382	H	0.530057	0.573102	0.297982
	H383	H	0.539772	0.558334	0.330279
	O384	O	1.428003	0.482414	0.387103
	H385	H	1.444537	0.469238	0.382355
	H386	H	1.438239	0.489744	0.379998
	O387	O	0.957081	-0.037620	1.011498
	H388	H	0.967868	-0.038163	1.011284
	H389	H	0.961327	-0.033929	1.010257
	O390	O	1.014632	0.910625	-0.061685
	H391	H	1.023052	0.909060	-0.066615
	H392	H	1.014033	0.914195	-0.063011
	O393	O	0.349132	0.505599	0.387352
	H394	H	0.360897	0.502596	0.377495
	H395	H	0.344363	0.497390	0.371659
