data_Molecule from HDF5

_cell_length_a		16.628424
_cell_length_b		16.671853
_cell_length_c		16.630350
_cell_angle_alpha	89.972716
_cell_angle_beta	90.150300
_cell_angle_gamma	89.907780
_symmetry_space_group_name_H-M	'P 1'
_symmetry_Int_Tables_number		1

loop_
	_symmetry_equiv_pos_as_xyz
	x,y,z

loop_
	_atom_site_label
	_atom_site_type_symbol
	_atom_site_fract_x
	_atom_site_fract_y
	_atom_site_fract_z
	H0	H	0.365164	0.849659	0.717355
	H1	H	0.580665	0.155877	0.716436
	H2	H	0.580201	0.845714	0.272944
	H3	H	0.371177	0.155998	0.271227
	H4	H	0.695387	0.395877	0.837120
	H5	H	0.699792	0.607335	0.148420
	H6	H	0.258762	0.600799	0.836585
	H7	H	0.253980	0.393979	0.148775
	H8	H	0.821274	0.724693	0.386078
	H9	H	0.131789	0.720944	0.597426
	H10	H	0.818032	0.283461	0.596202
	H11	H	0.130019	0.279319	0.388534
	H12	H	0.818505	0.398057	0.713130
	H13	H	0.133293	0.602552	0.711264
	H14	H	0.821234	0.607967	0.270824
	H15	H	0.129441	0.394453	0.271928
	H16	H	0.373455	0.718527	0.838366
	H17	H	0.585178	0.724824	0.147741
	H18	H	0.580736	0.278629	0.837838
	H19	H	0.372612	0.279997	0.150014
	H20	H	0.696417	0.845933	0.389039
	H21	H	0.696327	0.156039	0.600645
	H22	H	0.250270	0.849021	0.600574
	H23	H	0.254001	0.157005	0.386941
	H24	H	0.868913	0.347290	0.217581
	H25	H	0.083073	0.654534	0.216349
	H26	H	0.076419	0.344137	0.775476
	H27	H	0.871755	0.657624	0.774481
	H28	H	0.195860	0.896953	0.337009
	H29	H	0.197992	0.108221	0.646746
	H30	H	0.752392	0.108028	0.338069
	H31	H	0.754739	0.898075	0.648373
	H32	H	0.319061	0.221259	0.889446
	H33	H	0.629425	0.223408	0.101763
	H34	H	0.320683	0.777343	0.101034
	H35	H	0.627442	0.775877	0.884639
	H36	H	0.320183	0.894773	0.215443
	H37	H	0.629901	0.106205	0.216155
	H38	H	0.318947	0.106276	0.772369
	H39	H	0.627435	0.893353	0.769532
	H40	H	0.866794	0.225508	0.339365
	H41	H	0.080377	0.222376	0.648050
	H42	H	0.081470	0.779505	0.338552
	H43	H	0.871963	0.781445	0.648648
	H44	H	0.191978	0.342910	0.892842
	H45	H	0.199171	0.654191	0.100901
	H46	H	0.751613	0.347334	0.103342
	H47	H	0.754820	0.656901	0.890029
	H48	H	0.385223	0.113828	0.580105
	H49	H	0.558419	0.893038	0.581671
	H50	H	0.562788	0.112869	0.403774
	H51	H	0.388963	0.891605	0.405267
	H52	H	0.558644	0.410494	0.102300
	H53	H	0.565925	0.592251	0.880951
	H54	H	0.384069	0.581421	0.105282
	H55	H	0.385016	0.413926	0.883221
	H56	H	0.089344	0.591128	0.400761
	H57	H	0.863011	0.593113	0.584223
	H58	H	0.085074	0.412848	0.581229
	H59	H	0.865812	0.417217	0.403729
	H60	H	0.087739	0.413264	0.587948
	H61	H	0.863434	0.593266	0.582449
	H62	H	0.087363	0.594408	0.407422
	H63	H	0.863154	0.412088	0.406421
	H64	H	0.394068	0.590340	0.104610
	H65	H	0.565639	0.585023	0.884468
	H66	H	0.566871	0.410111	0.106770
	H67	H	0.388276	0.405805	0.881666
	H68	H	0.562508	0.112247	0.404142
	H69	H	0.566135	0.891723	0.576948
	H70	H	0.387546	0.113344	0.582527
	H71	H	0.383225	0.889935	0.407066
	H72	H	0.889451	0.610866	0.083156
	H73	H	0.063661	0.392104	0.075697
	H74	H	0.071426	0.615889	0.896905
	H75	H	0.886345	0.388471	0.898762
	H76	H	0.060024	0.912048	0.602205
	H77	H	0.070488	0.089958	0.378683
	H78	H	0.879595	0.089407	0.606879
	H79	H	0.887632	0.907808	0.380336
	H80	H	0.587455	0.088749	0.901608
	H81	H	0.363826	0.091176	0.081654
	H82	H	0.586877	0.909665	0.081159
	H83	H	0.363904	0.912663	0.905162
	H84	H	0.585066	0.913321	0.079498
	H85	H	0.365691	0.089177	0.078464
	H86	H	0.586413	0.091639	0.906893
	H87	H	0.362940	0.911302	0.904172
	H88	H	0.889799	0.089904	0.602413
	H89	H	0.058863	0.085018	0.385207
	H90	H	0.066605	0.912185	0.605046
	H91	H	0.880388	0.914735	0.379846
	H92	H	0.063073	0.612708	0.901061
	H93	H	0.071052	0.387150	0.084613
	H94	H	0.889834	0.608249	0.078775
	H95	H	0.888883	0.391209	0.906492
	H96	H	0.387580	0.112373	0.579300
	H97	H	0.565486	0.888975	0.585295
	H98	H	0.563130	0.112228	0.404430
	H99	H	0.384977	0.888725	0.401342
	H100	H	0.564386	0.417912	0.101761
	H101	H	0.559261	0.589563	0.884322
	H102	H	0.381823	0.593519	0.109299
	H103	H	0.380076	0.407773	0.879217
	H104	H	0.085496	0.586906	0.406775
	H105	H	0.863123	0.591282	0.583168
	H106	H	0.088733	0.407432	0.584376
	H107	H	0.866340	0.415910	0.409780
	H108	H	0.886353	0.611708	0.079512
	H109	H	0.059239	0.389439	0.087467
	H110	H	0.070809	0.612651	0.905858
	H111	H	0.880987	0.389150	0.904751
	H112	H	0.063266	0.918571	0.603069
	H113	H	0.059068	0.098372	0.380006
	H114	H	0.885077	0.099088	0.606244
	H115	H	0.889266	0.917090	0.384267
	H116	H	0.584031	0.086241	0.906064
	H117	H	0.364549	0.086808	0.081871
	H118	H	0.585453	0.913438	0.083440
	H119	H	0.362960	0.911444	0.906498
	C120	C	0.352926	0.011213	0.613760
	C121	C	0.595782	0.993340	0.614520
	C122	C	0.596007	0.009671	0.372062
	C123	C	0.353571	0.992551	0.371537
	C124	C	0.596373	0.379682	0.001526
	C125	C	0.597212	0.622125	0.985576
	C126	C	0.355308	0.620134	0.002909
	C127	C	0.353763	0.378051	0.985131
	C128	C	-0.015315	0.623377	0.371974
	C129	C	0.967212	0.622736	0.614505
	C130	C	-0.016319	0.380067	0.615668
	C131	C	0.967222	0.381377	0.373515
	C132	C	0.854885	0.509013	0.114523
	C133	C	0.097273	0.492039	0.115014
	C134	C	0.097352	0.509397	0.872042
	C135	C	0.854316	0.493077	0.872156
	C136	C	0.096132	0.881498	0.501138
	C137	C	0.095605	0.123400	0.483841
	C138	C	0.852644	0.124223	0.502253
	C139	C	0.854829	0.881473	0.484797
	C140	C	0.483483	0.121822	0.872342
	C141	C	0.466963	0.121442	0.114203
	C142	C	0.483515	0.879391	0.114394
	C143	C	0.465229	0.878843	0.871616
	C144	C	0.348035	0.895687	0.676116
	C145	C	0.598423	0.109482	0.675686
	C146	C	0.598637	0.892417	0.312790
	C147	C	0.352208	0.109654	0.311302
	C148	C	0.656205	0.376961	0.884242
	C149	C	0.658887	0.625010	0.101909
	C150	C	0.297531	0.620472	0.884218
	C151	C	0.294422	0.375989	0.102434
	C152	C	0.868016	0.684488	0.368067
	C153	C	0.085195	0.680974	0.615735
	C154	C	0.865501	0.322052	0.616011
	C155	C	0.083327	0.319920	0.370474
	C156	C	0.865731	0.379184	0.674167
	C157	C	0.085662	0.622449	0.672596
	C158	C	0.867978	0.626372	0.310803
	C159	C	0.083377	0.377183	0.312657
	C160	C	0.354643	0.678614	0.884904
	C161	C	0.601938	0.683522	0.101497
	C162	C	0.598762	0.319079	0.884475
	C163	C	0.353017	0.319090	0.102798
	C164	C	0.656734	0.892938	0.370123
	C165	C	0.656148	0.109695	0.618180
	C166	C	0.290714	0.895523	0.618151
	C167	C	0.294218	0.110153	0.368739
	C168	C	0.850965	0.393604	0.177062
	C169	C	0.100849	0.608199	0.175876
	C170	C	0.096084	0.391050	0.814942
	C171	C	0.853132	0.610900	0.813952
	C172	C	0.155829	0.878924	0.383953
	C173	C	0.156980	0.126021	0.600249
	C174	C	0.792474	0.126261	0.385118
	C175	C	0.795188	0.879525	0.602158
	C176	C	0.366033	0.181538	0.870615
	C177	C	0.583241	0.182555	0.118890
	C178	C	0.367136	0.818046	0.118474
	C179	C	0.581299	0.817355	0.867496
	C180	C	0.366812	0.876536	0.175204
	C181	C	0.583052	0.124575	0.176100
	C182	C	0.365919	0.124281	0.812558
	C183	C	0.581068	0.875277	0.809921
	C184	C	0.849451	0.184658	0.385555
	C185	C	0.098464	0.182765	0.601230
	C186	C	0.098919	0.820617	0.384500
	C187	C	0.853175	0.821721	0.602186
	C188	C	0.153449	0.390437	0.873270
	C189	C	0.158638	0.607747	0.118518
	C190	C	0.792886	0.393546	0.119697
	C191	C	0.795054	0.610361	0.871335
	C192	C	0.379268	0.091994	0.587794
	C193	C	0.570521	0.912186	0.588713
	C194	C	0.570096	0.091135	0.396797
	C195	C	0.378437	0.911394	0.397257
	C196	C	0.570835	0.405441	0.082448
	C197	C	0.571128	0.596281	0.904421
	C198	C	0.379725	0.595525	0.084975
	C199	C	0.377604	0.402283	0.902950
	C200	C	0.066155	0.598109	0.397601
	C201	C	0.884872	0.599124	0.590481
	C202	C	0.065819	0.404189	0.591415
	C203	C	0.886135	0.407670	0.399203
	C204	C	0.881194	0.589288	0.088005
	C205	C	0.071671	0.410814	0.089850
	C206	C	0.074945	0.592205	0.894806
	C207	C	0.878564	0.411090	0.896190
	C208	C	0.070449	0.907069	0.582375
	C209	C	0.069875	0.098338	0.402614
	C210	C	0.877740	0.099707	0.583974
	C211	C	0.879062	0.906021	0.402740
	C212	C	0.564818	0.096208	0.897586
	C213	C	0.385714	0.096242	0.087943
	C214	C	0.564632	0.904971	0.088753
	C215	C	0.384131	0.904485	0.897940
	Zn216	Zn	0.474405	0.001161	0.742927
	Zn217	Zn	0.475017	0.000508	0.242934
	Zn218	Zn	0.725515	0.500455	-0.006703
	Zn219	Zn	0.226112	0.499832	-0.006062
	Zn220	Zn	-0.024318	0.751868	0.493143
	Zn221	Zn	-0.025535	0.252141	0.493465
	Zn222	Zn	-0.024551	0.501533	0.743225
	Zn223	Zn	-0.023731	0.501420	0.243963
	Zn224	Zn	0.475272	0.750315	-0.005953
	Zn225	Zn	0.476097	0.250451	-0.006343
	Zn226	Zn	0.725044	0.002039	0.493671
	Zn227	Zn	0.225089	0.002287	0.492238
	N228	N	0.386105	0.968583	0.673670
	N229	N	0.561571	0.035907	0.673734
	N230	N	0.561872	0.966175	0.313521
	N231	N	0.388081	0.035445	0.312516
	N232	N	0.655076	0.413841	0.957943
	N233	N	0.656071	0.587475	0.028693
	N234	N	0.297401	0.585024	0.958819
	N235	N	0.294650	0.411893	0.028218
	N236	N	0.941659	0.682893	0.405415
	N237	N	0.010460	0.681532	0.580100
	N238	N	0.940090	0.322040	0.580595
	N239	N	0.009875	0.322329	0.407447
	N240	N	0.940401	0.414308	0.674336
	N241	N	0.011164	0.587339	0.672319
	N242	N	0.941562	0.588902	0.313179
	N243	N	0.010034	0.414822	0.314316
	N244	N	0.389652	0.678720	0.959805
	N245	N	0.564273	0.682013	0.028018
	N246	N	0.562548	0.320091	0.958657
	N247	N	0.388890	0.320002	0.028642
	N248	N	0.655672	0.967151	0.405979
	N249	N	0.654742	0.036343	0.580766
	N250	N	0.293608	0.968526	0.580075
	N251	N	0.294584	0.036207	0.405176
	N252	N	0.888947	0.466459	0.174173
	N253	N	0.063350	0.535064	0.173974
	N254	N	0.062195	0.466190	0.813605
	N255	N	0.889214	0.536849	0.814163
	N256	N	0.154414	0.916211	0.457481
	N257	N	0.155581	0.089855	0.526254
	N258	N	0.794335	0.089301	0.458659
	N259	N	0.796031	0.915902	0.528122
	N260	N	0.440145	0.180340	0.906960
	N261	N	0.509923	0.180709	0.080941
	N262	N	0.440752	0.819519	0.081251
	N263	N	0.508077	0.819341	0.905251
	N264	N	0.440193	0.913974	0.172825
	N265	N	0.509797	0.087056	0.173128
	N266	N	0.439978	0.087736	0.813252
	N267	N	0.507852	0.912958	0.812370
	N268	N	0.886173	0.183733	0.459507
	N269	N	0.061110	0.181526	0.527621
	N270	N	0.062713	0.821870	0.458562
	N271	N	0.889470	0.822635	0.528088
	N272	N	0.154601	0.465233	0.907879
	N273	N	0.156644	0.534526	0.081254
	N274	N	0.795192	0.466274	0.081216
	N275	N	0.795500	0.536050	0.906672
	O276	O	-0.246895	0.964884	0.211899
	H277	H	-0.263270	0.978120	0.229285
	H278	H	-0.231203	0.981785	0.218132
	O279	O	0.502035	0.722564	0.706991
	H280	H	0.509717	0.733652	0.716123
	H281	H	0.510908	0.726363	0.714705
	O282	O	1.042552	0.060447	0.761065
	H283	H	1.032606	0.055550	0.761087
	H284	H	1.019476	0.060525	0.761116
	O285	O	0.337787	0.296672	0.350300
	H286	H	0.351225	0.311835	0.357626
	H287	H	0.362876	0.299050	0.374018
	O288	O	0.039204	-0.076624	-0.090540
	H289	H	0.060594	-0.068000	-0.093741
	H290	H	0.041091	-0.079416	-0.071528
	O291	O	0.261034	0.518325	0.278180
	H292	H	0.256860	0.515951	0.271902
	H293	H	0.267493	0.518720	0.275034
	O294	O	1.481214	0.619140	0.442697
	H295	H	1.480841	0.622449	0.447194
	H296	H	1.478600	0.617767	0.450045
	O297	O	0.489289	0.288111	0.511111
	H298	H	0.501945	0.278877	0.532281
	H299	H	0.496360	0.283956	0.513093
	O300	O	-0.135513	-0.132085	0.939023
	H301	H	-0.128601	-0.133802	0.939132
	H302	H	-0.124574	-0.125520	0.940571
	O303	O	0.688491	0.712922	0.699327
	H304	H	0.674339	0.710308	0.676401
	H305	H	0.718866	0.747311	0.731068
	O306	O	0.272794	0.556559	0.538112
	H307	H	0.271336	0.566025	0.544872
	H308	H	0.271894	0.538942	0.525373
	O309	O	0.699008	0.488030	0.295265
	H310	H	0.717127	0.489230	0.282078
	H311	H	0.705029	0.471873	0.311864
	O312	O	0.741355	1.055242	0.058787
	H313	H	0.738464	1.062436	0.057730
	H314	H	0.746091	1.051176	0.053028
	O315	O	0.751222	-0.004903	0.922343
	H316	H	0.747987	-0.017679	0.939219
	H317	H	0.765676	-0.004235	0.945515
	O318	O	0.259922	0.723284	0.461788
	H319	H	0.253736	0.733390	0.472206
	H320	H	0.255466	0.727307	0.470248
	O321	O	-0.239900	1.024697	0.777355
	H322	H	-0.245060	1.019069	0.778656
	H323	H	-0.252844	1.022645	0.787563
	O324	O	0.925637	1.166682	-0.176521
	H325	H	0.932592	1.174590	-0.186913
	H326	H	0.922897	1.179729	-0.163504
	O327	O	0.453275	-0.281404	0.272120
	H328	H	0.447955	-0.288689	0.266342
	H329	H	0.447193	-0.271357	0.258328
	O330	O	0.667033	0.720342	0.514171
	H331	H	0.664854	0.731711	0.523547
	H332	H	0.673993	0.726332	0.507452
	O333	O	0.821974	0.233391	0.754977
	H334	H	0.810399	0.231463	0.753126
	H335	H	0.823554	0.232471	0.753289
	O336	O	1.110112	0.187116	-0.115911
	H337	H	1.116572	0.187023	-0.096503
	H338	H	1.092748	0.170576	-0.105931
	O339	O	1.198243	0.033290	1.216918
	H340	H	1.213671	0.051854	1.231680
	H341	H	1.201044	0.045812	1.228092
	O342	O	0.685958	-0.593129	0.397465
	H343	H	0.694322	-0.605422	0.389223
	H344	H	0.674502	-0.576376	0.403174
	O345	O	0.477416	1.456293	1.305508
	H346	H	0.492860	1.456007	1.293423
	H347	H	0.497594	1.454399	1.313834
	O348	O	0.423017	0.577243	0.643172
	H349	H	0.411842	0.550012	0.631100
	H350	H	0.422712	0.583804	0.657595
	O351	O	0.502622	0.518980	0.352938
	H352	H	0.502831	0.512522	0.359047
	H353	H	0.511340	0.519425	0.354858
	O354	O	-0.248355	-0.218138	1.014998
	H355	H	-0.268585	-0.244893	1.026489
	H356	H	-0.240865	-0.216559	1.056595
	O357	O	0.084560	1.043178	-0.032534
	H358	H	0.086649	1.052561	-0.019768
	H359	H	0.079215	1.030227	-0.022711
	O360	O	0.446964	0.485815	0.376036
	H361	H	0.443907	0.497927	0.373108
	H362	H	0.447961	0.476717	0.381166
	O363	O	0.014610	-0.157905	0.165647
	H364	H	0.020155	-0.162990	0.173469
	H365	H	0.006993	-0.153238	0.159633
	O366	O	0.253751	0.455294	0.714284
	H367	H	0.242955	0.459992	0.715967
	H368	H	0.243004	0.448290	0.723787
	O369	O	1.161250	-0.187204	0.177297
	H370	H	1.156635	-0.187815	0.178106
	H371	H	1.172815	-0.212779	0.200460
	O372	O	1.163007	0.943170	0.103370
	H373	H	1.169508	0.931351	0.112408
	H374	H	1.179580	0.937114	0.114334
	O375	O	1.197410	0.011523	-0.032598
	H376	H	1.201805	-0.007097	-0.013181
	H377	H	1.203088	0.006872	-0.041293
	O378	O	0.499653	0.364703	0.508315
	H379	H	0.511710	0.365872	0.519348
	H380	H	0.504929	0.373096	0.498505
	O381	O	0.509143	0.574467	0.611186
	H382	H	0.508550	0.578524	0.624027
	H383	H	0.530888	0.568347	0.622619
	O384	O	0.996535	-0.213999	0.777165
	H385	H	1.031268	-0.211232	0.787789
	H386	H	1.010226	-0.236968	0.758115
	O387	O	1.200776	0.776460	-0.039267
	H388	H	1.191838	0.762953	-0.033518
	H389	H	1.216360	0.756532	-0.041651
	O390	O	0.408279	0.313616	0.289766
	H391	H	0.424294	0.312378	0.304678
	H392	H	0.427361	0.315279	0.297248
	O393	O	0.514273	0.354891	0.538215
	H394	H	0.519818	0.357800	0.543026
	H395	H	0.533563	0.350428	0.530658
	O396	O	-0.106280	0.919249	1.098790
	H397	H	-0.090592	0.934102	1.077023
	H398	H	-0.117979	0.918815	1.108915
	O399	O	-0.060064	-0.216748	1.171992
	H400	H	-0.072636	-0.198705	1.168920
	H401	H	-0.053087	-0.231460	1.179511
	O402	O	0.655761	0.544876	0.378172
	H403	H	0.657546	0.539570	0.374342
	H404	H	0.657281	0.566994	0.397361
	O405	O	1.184526	0.206190	1.204122
	H406	H	1.189824	0.220633	1.198975
	H407	H	1.207439	0.215761	1.213932
	O408	O	-0.082899	-0.044744	-0.239591
	H409	H	-0.087666	-0.052530	-0.237321
	H410	H	-0.083348	-0.060972	-0.244090
	O411	O	0.004626	1.218280	1.213650
	H412	H	0.013010	1.228359	1.230430
	H413	H	0.031887	1.221798	1.212398
	O414	O	1.693068	0.274393	1.467667
	H415	H	1.716490	0.255276	1.448614
	H416	H	1.698894	0.284654	1.443896
	O417	O	0.253967	0.438224	0.454949
	H418	H	0.250699	0.413847	0.454766
	H419	H	0.254446	0.437660	0.454974
	O420	O	-0.232895	-0.208038	0.206753
	H421	H	-0.228121	-0.168599	0.203320
	H422	H	-0.223894	-0.210204	0.218527
	O423	O	0.210195	0.239162	0.753111
	H424	H	0.184549	0.209662	0.773597
	H425	H	0.227164	0.227607	0.764479
	O426	O	0.457833	0.468790	0.687927
	H427	H	0.465140	0.444179	0.687925
	H428	H	0.453968	0.455656	0.692620
	O429	O	1.659728	1.688864	1.305658
	H430	H	1.643820	1.688644	1.313481
	H431	H	1.678410	1.683413	1.306630
	O432	O	0.287937	0.697322	0.682619
	H433	H	0.316992	0.679960	0.677607
	H434	H	0.283170	0.694767	0.683416
	O435	O	0.428774	0.736781	0.548977
	H436	H	0.453665	0.738024	0.550607
	H437	H	0.415934	0.729811	0.548897
	O438	O	-0.216228	0.191885	0.183754
	H439	H	-0.203228	0.180940	0.155227
	H440	H	-0.190962	0.169235	0.175763
	O441	O	0.958643	0.011561	0.191507
	H442	H	0.953609	0.012658	0.184539
	H443	H	0.981313	-0.003729	0.187554
	O444	O	-0.004855	1.042462	-0.004161
	H445	H	-0.007445	1.038669	-0.014630
	H446	H	0.009793	1.042425	0.006155
	O447	O	-0.249585	1.228286	0.976141
	H448	H	-0.259966	1.247130	0.966251
	H449	H	-0.259360	1.231203	0.948395
	O450	O	0.186190	0.787842	0.787152
	H451	H	0.198140	0.780113	0.771975
	H452	H	0.193091	0.814090	0.809738
	O453	O	0.952242	0.236036	1.003914
	H454	H	0.951228	0.224644	1.014930
	H455	H	0.944485	0.240490	1.007945
	O456	O	-0.161472	0.189663	0.837980
	H457	H	-0.171246	0.200089	0.826002
	H458	H	-0.157647	0.158954	0.828674
	O459	O	1.259324	0.717030	0.282855
	H460	H	1.263303	0.698604	0.309519
	H461	H	1.286278	0.700408	0.293252
	O462	O	0.253021	0.283566	0.521399
	H463	H	0.242748	0.266248	0.547996
	H464	H	0.253624	0.268894	0.535769
	O465	O	1.485939	0.678434	-0.591354
	H466	H	1.484756	0.675875	-0.599754
	H467	H	1.489847	0.675965	-0.593793
	O468	O	0.701186	0.538364	0.717201
	H469	H	0.717338	0.553393	0.733102
	H470	H	0.705147	0.566028	0.730679
	O471	O	0.612226	0.493774	0.583692
	H472	H	0.613103	0.500884	0.599048
	H473	H	0.607305	0.494121	0.579568
	O474	O	0.519263	0.306593	0.676474
	H475	H	0.505726	0.318202	0.669799
	H476	H	0.501785	0.315125	0.679592
	O477	O	0.341691	0.364525	1.615225
	H478	H	0.323139	0.349043	1.626296
	H479	H	0.339045	0.393830	1.609364
	O480	O	0.538282	0.353341	0.650680
	H481	H	0.540004	0.355094	0.659936
	H482	H	0.540323	0.354520	0.649046
	O483	O	0.186801	0.967238	0.782749
	H484	H	0.199990	0.966769	0.778882
	H485	H	0.178031	0.987750	0.774845
	O486	O	0.980788	-0.237650	0.991339
	H487	H	0.975713	-0.230520	0.988325
	H488	H	0.977147	-0.245557	0.998550
	O489	O	0.903662	1.122585	0.125109
	H490	H	0.920545	1.124336	0.114277
	H491	H	0.915969	1.130691	0.125637
	O492	O	0.066335	0.084416	0.067403
	H493	H	0.066680	0.069619	0.065630
	H494	H	0.081804	0.096246	0.062190
	O495	O	0.156350	1.178527	1.015104
	H496	H	0.150804	1.162979	1.014968
	H497	H	0.183018	1.194054	1.013644
	O498	O	0.781971	0.813243	0.803434
	H499	H	0.793810	0.831314	0.825735
	H500	H	0.804474	0.828373	0.822263
	O501	O	0.599173	0.286297	0.279704
	H502	H	0.600493	0.301075	0.289032
	H503	H	0.617676	0.263318	0.251966
