data_Molecule from HDF5

_cell_length_a		16.269877
_cell_length_b		16.328908
_cell_length_c		16.291189
_cell_angle_alpha	89.944235
_cell_angle_beta	89.887782
_cell_angle_gamma	90.103859
_symmetry_space_group_name_H-M	'P 1'
_symmetry_Int_Tables_number		1

loop_
	_symmetry_equiv_pos_as_xyz
	x,y,z

loop_
	_atom_site_label
	_atom_site_type_symbol
	_atom_site_fract_x
	_atom_site_fract_y
	_atom_site_fract_z
	H0	H	0.399479	0.846803	0.705062
	H1	H	0.598983	0.173353	0.701722
	H2	H	0.599464	0.846759	0.272311
	H3	H	0.402267	0.173478	0.273978
	H4	H	0.714121	0.411341	0.823806
	H5	H	0.715558	0.608600	0.150813
	H6	H	0.287116	0.607143	0.823073
	H7	H	0.285283	0.412128	0.151222
	H8	H	0.837218	0.725188	0.387009
	H9	H	0.164489	0.724479	0.586212
	H10	H	0.837336	0.294040	0.586439
	H11	H	0.164805	0.295258	0.388621
	H12	H	0.836972	0.408989	0.702016
	H13	H	0.164794	0.607270	0.701894
	H14	H	0.836873	0.607202	0.273611
	H15	H	0.164899	0.412393	0.273343
	H16	H	0.400205	0.726159	0.824674
	H17	H	0.600072	0.724429	0.151803
	H18	H	0.599051	0.294731	0.824652
	H19	H	0.400701	0.294590	0.151485
	H20	H	0.714339	0.846572	0.389115
	H21	H	0.715657	0.172608	0.586470
	H22	H	0.284290	0.846241	0.587884
	H23	H	0.286706	0.172901	0.391050
	H24	H	0.902036	0.346197	0.201735
	H25	H	0.099072	0.672811	0.201994
	H26	H	0.097432	0.345024	0.774457
	H27	H	0.901661	0.672226	0.771235
	H28	H	0.214623	0.912455	0.325037
	H29	H	0.213270	0.106392	0.651792
	H30	H	0.787291	0.105456	0.324350
	H31	H	0.784608	0.909168	0.651389
	H32	H	0.336501	0.223799	0.890670
	H33	H	0.664403	0.225047	0.086908
	H34	H	0.337128	0.794790	0.086790
	H35	H	0.664857	0.796187	0.889555
	H36	H	0.336983	0.911085	0.202809
	H37	H	0.664883	0.108539	0.201467
	H38	H	0.336293	0.107436	0.774952
	H39	H	0.664644	0.912230	0.773867
	H40	H	0.902037	0.222928	0.324362
	H41	H	0.099363	0.223302	0.651325
	H42	H	0.099211	0.796495	0.323666
	H43	H	0.899920	0.792032	0.650840
	H44	H	0.215104	0.346033	0.889233
	H45	H	0.214527	0.673211	0.084896
	H46	H	0.785685	0.346277	0.084447
	H47	H	0.785880	0.673294	0.888139
	H48	H	0.404183	0.127293	0.586768
	H49	H	0.586152	0.895210	0.581761
	H50	H	0.589273	0.124721	0.391934
	H51	H	0.410465	0.895255	0.396488
	H52	H	0.584146	0.416467	0.102018
	H53	H	0.595051	0.603093	0.870860
	H54	H	0.396687	0.604796	0.107735
	H55	H	0.401424	0.416888	0.869796
	H56	H	0.117698	0.605710	0.394413
	H57	H	0.884306	0.604890	0.580427
	H58	H	0.113947	0.421336	0.574459
	H59	H	0.883998	0.415238	0.393584
	H60	H	0.118579	0.418046	0.588221
	H61	H	0.886708	0.599327	0.574145
	H62	H	0.115825	0.601602	0.395226
	H63	H	0.884138	0.414503	0.394632
	H64	H	0.410000	0.591432	0.099667
	H65	H	0.591044	0.600519	0.873243
	H66	H	0.596580	0.410288	0.107254
	H67	H	0.411844	0.421098	0.874531
	H68	H	0.594005	0.125068	0.399752
	H69	H	0.594963	0.895084	0.576102
	H70	H	0.413239	0.123997	0.580765
	H71	H	0.403275	0.893004	0.397133
	H72	H	0.913967	0.623604	0.081877
	H73	H	0.081042	0.397537	0.078416
	H74	H	0.089219	0.625700	0.886430
	H75	H	0.904974	0.391220	0.886727
	H76	H	0.091795	0.910628	0.605182
	H77	H	0.086805	0.102762	0.373794
	H78	H	0.910670	0.109424	0.606543
	H79	H	0.903346	0.918243	0.372006
	H80	H	0.617099	0.108194	0.899243
	H81	H	0.389616	0.095273	0.072667
	H82	H	0.617162	0.918910	0.081521
	H83	H	0.386372	0.912948	0.905889
	H84	H	0.617715	0.915140	0.082312
	H85	H	0.381962	0.098254	0.093930
	H86	H	0.614324	0.097138	0.897049
	H87	H	0.386398	0.926841	0.894385
	H88	H	0.899863	0.101388	0.606375
	H89	H	0.096524	0.108542	0.368620
	H90	H	0.096733	0.918349	0.605536
	H91	H	0.910422	0.918017	0.373500
	H92	H	0.090558	0.622183	0.899994
	H93	H	0.102707	0.393575	0.070557
	H94	H	0.904710	0.624665	0.074506
	H95	H	0.913342	0.396119	0.896457
	H96	H	0.403257	0.124357	0.576328
	H97	H	0.595043	0.891689	0.585870
	H98	H	0.598357	0.128190	0.391693
	H99	H	0.406688	0.891938	0.390386
	H100	H	0.596466	0.424545	0.102632
	H101	H	0.590302	0.605608	0.872174
	H102	H	0.415692	0.611263	0.103372
	H103	H	0.410749	0.409795	0.870760
	H104	H	0.117727	0.602280	0.391209
	H105	H	0.885485	0.596627	0.581972
	H106	H	0.119032	0.407751	0.577911
	H107	H	0.884566	0.415567	0.394759
	H108	H	0.903745	0.628246	0.085787
	H109	H	0.097377	0.388638	0.092732
	H110	H	0.101186	0.627368	0.893213
	H111	H	0.901315	0.393627	0.899608
	H112	H	0.088066	0.918439	0.602414
	H113	H	0.097344	0.096511	0.372136
	H114	H	0.911311	0.097032	0.601615
	H115	H	0.907435	0.912225	0.370353
	H116	H	0.619173	0.103941	0.888410
	H117	H	0.381019	0.115460	0.078656
	H118	H	0.617361	0.915908	0.078886
	H119	H	0.380456	0.910928	0.888719
	C120	C	0.378050	0.017588	0.610351
	C121	C	0.621430	1.001518	0.609668
	C122	C	0.621891	0.018107	0.366329
	C123	C	0.378796	1.001508	0.366518
	C124	C	0.621277	0.388380	-0.003840
	C125	C	0.621351	0.631488	0.979877
	C126	C	0.378857	0.631476	-0.004248
	C127	C	0.378754	0.387747	0.979499
	C128	C	0.008669	0.630999	0.365581
	C129	C	0.993076	0.629759	0.608133
	C130	C	0.009116	0.387109	0.608951
	C131	C	0.992580	0.387466	0.365829
	C132	C	0.878696	0.517762	0.109127
	C133	C	0.122240	0.501408	0.108881
	C134	C	0.121941	0.517081	0.865446
	C135	C	0.878111	0.501512	0.865321
	C136	C	0.121344	0.887839	0.496413
	C137	C	0.121808	0.130636	0.479984
	C138	C	0.878916	0.130501	0.496553
	C139	C	0.878132	0.886947	0.479613
	C140	C	0.508630	0.131480	0.866753
	C141	C	0.492422	0.131623	0.110070
	C142	C	0.509083	0.888212	0.109639
	C143	C	0.492658	0.888552	0.867125
	C144	C	0.379861	0.895045	0.666244
	C145	C	0.619364	0.124495	0.664411
	C146	C	0.619580	0.895354	0.310789
	C147	C	0.381781	0.124572	0.311795
	C148	C	0.676207	0.391244	0.872783
	C149	C	0.677270	0.629195	0.102468
	C150	C	0.324462	0.628252	0.872228
	C151	C	0.323440	0.391124	0.102717
	C152	C	0.885902	0.686473	0.367562
	C153	C	0.115732	0.686082	0.606502
	C154	C	0.886152	0.331930	0.606712
	C155	C	0.115876	0.332810	0.368242
	C156	C	0.886120	0.389152	0.664324
	C157	C	0.115903	0.627799	0.663920
	C158	C	0.885563	0.627823	0.311070
	C159	C	0.115899	0.390608	0.310479
	C160	C	0.380551	0.687443	0.873114
	C161	C	0.619817	0.686634	0.102797
	C162	C	0.619281	0.333059	0.873211
	C163	C	0.380384	0.332640	0.102794
	C164	C	0.676994	0.895336	0.368528
	C165	C	0.677495	0.124185	0.607108
	C166	C	0.322479	0.894801	0.608155
	C167	C	0.324203	0.124323	0.370045
	C168	C	0.881540	0.394773	0.163465
	C169	C	0.119501	0.624126	0.163862
	C170	C	0.119046	0.394046	0.811443
	C171	C	0.881182	0.623829	0.809496
	C172	C	0.176619	0.891448	0.373395
	C173	C	0.176112	0.127403	0.602899
	C174	C	0.824593	0.126886	0.373250
	C175	C	0.822618	0.888984	0.602728
	C176	C	0.385321	0.186080	0.869988
	C177	C	0.615533	0.187002	0.107359
	C178	C	0.385913	0.832998	0.107066
	C179	C	0.615918	0.833838	0.869222
	C180	C	0.385693	0.890902	0.164509
	C181	C	0.615719	0.128988	0.164227
	C182	C	0.385469	0.128630	0.812124
	C183	C	0.615744	0.891251	0.811523
	C184	C	0.881716	0.185009	0.373311
	C185	C	0.119386	0.185446	0.602708
	C186	C	0.119222	0.833865	0.372838
	C187	C	0.879878	0.830627	0.602216
	C188	C	0.177363	0.394633	0.868417
	C189	C	0.176761	0.624390	0.105749
	C190	C	0.823681	0.394894	0.105444
	C191	C	0.823694	0.624411	0.867794
	C192	C	0.400311	0.103115	0.587960
	C193	C	0.598685	0.916155	0.587766
	C194	C	0.600399	0.103852	0.388128
	C195	C	0.400264	0.915503	0.388219
	C196	C	0.598976	0.410467	0.081854
	C197	C	0.598888	0.609341	0.894269
	C198	C	0.400933	0.609069	0.081425
	C199	C	0.401346	0.409369	0.893896
	C200	C	0.094919	0.609406	0.387330
	C201	C	0.907581	0.606849	0.585404
	C202	C	0.095158	0.409162	0.586670
	C203	C	0.906470	0.408898	0.387879
	C204	C	0.901017	0.603468	0.087113
	C205	C	0.100106	0.415376	0.087033
	C206	C	0.100113	0.603072	0.886863
	C207	C	0.899888	0.415758	0.887758
	C208	C	0.098853	0.909261	0.582189
	C209	C	0.100086	0.108857	0.393617
	C210	C	0.900829	0.108898	0.582575
	C211	C	0.900402	0.909601	0.394112
	C212	C	0.594639	0.109631	0.888535
	C213	C	0.406308	0.109584	0.088099
	C214	C	0.595275	0.910197	0.087463
	C215	C	0.406660	0.910566	0.889469
	Zn216	Zn	0.499891	0.009989	0.738465
	Zn217	Zn	0.500705	0.009752	0.237967
	Zn218	Zn	0.749302	0.510295	-0.012880
	Zn219	Zn	0.250683	0.509637	-0.012827
	Zn220	Zn	0.000496	0.758956	0.487094
	Zn221	Zn	0.000986	0.258814	0.487552
	Zn222	Zn	0.000818	0.508304	0.736984
	Zn223	Zn	0.000638	0.509277	0.237586
	Zn224	Zn	0.500625	0.759961	-0.011918
	Zn225	Zn	0.500323	0.259424	-0.011662
	Zn226	Zn	0.750058	0.009330	0.488398
	Zn227	Zn	0.250028	0.009248	0.488512
	N228	N	0.413674	0.972275	0.667608
	N229	N	0.585189	0.047292	0.666063
	N230	N	0.585955	0.972531	0.309409
	N231	N	0.415115	0.047243	0.309699
	N232	N	0.677601	0.424976	0.950073
	N233	N	0.678372	0.595586	0.025043
	N234	N	0.323199	0.594219	0.949539
	N235	N	0.322259	0.424523	0.025254
	N236	N	0.963552	0.688489	0.400726
	N237	N	0.038400	0.687349	0.572456
	N238	N	0.963573	0.330659	0.572746
	N239	N	0.038198	0.330711	0.401815
	N240	N	0.963587	0.422867	0.665797
	N241	N	0.038507	0.593490	0.664859
	N242	N	0.962920	0.593973	0.309884
	N243	N	0.038267	0.423995	0.309053
	N244	N	0.413595	0.689635	0.950861
	N245	N	0.585397	0.687750	0.025641
	N246	N	0.585898	0.330992	0.950962
	N247	N	0.414354	0.330725	0.025404
	N248	N	0.678479	0.972496	0.402520
	N249	N	0.678920	0.046813	0.573843
	N250	N	0.321419	0.971911	0.573939
	N251	N	0.322333	0.046898	0.403433
	N252	N	0.914619	0.472251	0.166076
	N253	N	0.086167	0.546520	0.165671
	N254	N	0.085028	0.471022	0.809895
	N255	N	0.914222	0.546237	0.807872
	N256	N	0.178164	0.924289	0.451102
	N257	N	0.177554	0.093943	0.525517
	N258	N	0.822914	0.093527	0.450893
	N259	N	0.821458	0.923480	0.525635
	N260	N	0.463029	0.188030	0.903166
	N261	N	0.537869	0.188589	0.074190
	N262	N	0.463625	0.831429	0.073841
	N263	N	0.538407	0.832081	0.903095
	N264	N	0.463261	0.924719	0.166050
	N265	N	0.538078	0.095275	0.166075
	N266	N	0.463006	0.095154	0.810385
	N267	N	0.538037	0.924589	0.810192
	N268	N	0.914878	0.187353	0.450853
	N269	N	0.086442	0.187579	0.525033
	N270	N	0.085416	0.831735	0.450201
	N271	N	0.913621	0.829334	0.524748
	N272	N	0.179396	0.472343	0.901139
	N273	N	0.178350	0.547125	0.072210
	N274	N	0.821879	0.472394	0.072277
	N275	N	0.821580	0.547277	0.901578
	O276	O	0.623148	-0.457366	1.562951
	H277	H	0.614577	-0.450472	1.563945
	H278	H	0.630972	-0.453257	1.562099
	O279	O	0.568540	0.574217	0.523172
	H280	H	0.562461	0.583978	0.515386
	H281	H	0.571819	0.568443	0.515407
	O282	O	-0.472010	0.558833	1.522199
	H283	H	-0.477181	0.557697	1.513429
	H284	H	-0.471850	0.560548	1.530613
	O285	O	0.556983	0.489576	0.507660
	H286	H	0.548374	0.490468	0.510119
	H287	H	0.554018	0.489245	0.514399
	O288	O	0.575296	0.523297	0.482875
	H289	H	0.573526	0.513253	0.487226
	H290	H	0.584448	0.522710	0.495440
	O291	O	0.572381	0.565025	0.500816
	H292	H	0.574405	0.561612	0.494368
	H293	H	0.573880	0.564837	0.506307
	O294	O	0.630329	0.568631	0.503184
	H295	H	0.637511	0.565996	0.501204
	H296	H	0.635204	0.564459	0.490271
	O297	O	0.554398	-0.442140	0.546340
	H298	H	0.564590	-0.435175	0.540911
	H299	H	0.557900	-0.432933	0.551909
