data_Molecule from HDF5

_cell_length_a		16.518945
_cell_length_b		16.463575
_cell_length_c		16.514555
_cell_angle_alpha	89.950747
_cell_angle_beta	89.883923
_cell_angle_gamma	89.996677
_symmetry_space_group_name_H-M	'P 1'
_symmetry_Int_Tables_number		1

loop_
	_symmetry_equiv_pos_as_xyz
	x,y,z

loop_
	_atom_site_label
	_atom_site_type_symbol
	_atom_site_fract_x
	_atom_site_fract_y
	_atom_site_fract_z
	H0	H	0.399443	0.836960	0.697900
	H1	H	0.608887	0.152545	0.697816
	H2	H	0.612624	0.839654	0.253468
	H3	H	0.395752	0.152639	0.252383
	H4	H	0.730112	0.387573	0.821791
	H5	H	0.726994	0.598155	0.134797
	H6	H	0.289344	0.595181	0.819635
	H7	H	0.282445	0.385389	0.135632
	H8	H	0.847457	0.714298	0.373910
	H9	H	0.161793	0.716352	0.581505
	H10	H	0.848092	0.272571	0.584225
	H11	H	0.162180	0.271090	0.370459
	H12	H	0.850073	0.388154	0.702245
	H13	H	0.163235	0.599689	0.697409
	H14	H	0.849347	0.599075	0.254784
	H15	H	0.163114	0.388100	0.255313
	H16	H	0.402908	0.714262	0.820764
	H17	H	0.611971	0.716628	0.134200
	H18	H	0.610826	0.274615	0.819896
	H19	H	0.401361	0.271737	0.136240
	H20	H	0.729629	0.839499	0.369373
	H21	H	0.728137	0.151280	0.585404
	H22	H	0.283978	0.837405	0.581186
	H23	H	0.280630	0.152520	0.369185
	H24	H	0.898729	0.336966	0.201188
	H25	H	0.107689	0.653541	0.195181
	H26	H	0.107469	0.335533	0.759399
	H27	H	0.899966	0.653009	0.756135
	H28	H	0.227451	0.887626	0.320775
	H29	H	0.225617	0.099683	0.633185
	H30	H	0.779959	0.103756	0.321610
	H31	H	0.782193	0.887982	0.635370
	H32	H	0.348666	0.213459	0.877954
	H33	H	0.664173	0.216015	0.084445
	H34	H	0.348644	0.773860	0.082419
	H35	H	0.664954	0.774650	0.873681
	H36	H	0.348761	0.889772	0.199614
	H37	H	0.661587	0.103542	0.202585
	H38	H	0.347670	0.097445	0.759751
	H39	H	0.664105	0.890194	0.756255
	H40	H	0.896644	0.219319	0.320754
	H41	H	0.108404	0.215399	0.633557
	H42	H	0.108177	0.774707	0.319534
	H43	H	0.897794	0.771302	0.634929
	H44	H	0.222897	0.334532	0.877353
	H45	H	0.224816	0.652351	0.079914
	H46	H	0.783188	0.336685	0.084794
	H47	H	0.783608	0.652749	0.871757
	H48	H	0.418351	0.108109	0.570659
	H49	H	0.592174	0.881305	0.568364
	H50	H	0.594731	0.110859	0.384583
	H51	H	0.409051	0.881196	0.388447
	H52	H	0.595038	0.411667	0.088476
	H53	H	0.600472	0.583760	0.862905
	H54	H	0.414750	0.581848	0.091574
	H55	H	0.416705	0.399947	0.865673
	H56	H	0.114782	0.578298	0.389418
	H57	H	0.892864	0.578627	0.568419
	H58	H	0.122000	0.405954	0.577475
	H59	H	0.891998	0.406496	0.384323
	H60	H	0.119367	0.395242	0.560193
	H61	H	0.891130	0.586093	0.571530
	H62	H	0.121151	0.585854	0.381311
	H63	H	0.894212	0.403715	0.392058
	H64	H	0.418987	0.583337	0.090441
	H65	H	0.593905	0.578085	0.868023
	H66	H	0.589535	0.402238	0.089630
	H67	H	0.411958	0.405658	0.865509
	H68	H	0.584205	0.103547	0.391311
	H69	H	0.593459	0.882890	0.563978
	H70	H	0.413942	0.107361	0.563869
	H71	H	0.423549	0.883829	0.383268
	H72	H	0.915893	0.604680	0.060348
	H73	H	0.093573	0.381108	0.065755
	H74	H	0.094778	0.607766	0.886768
	H75	H	0.917468	0.379139	0.880212
	H76	H	0.098208	0.906463	0.590827
	H77	H	0.089960	0.084576	0.364870
	H78	H	0.917969	0.084146	0.589207
	H79	H	0.917615	0.906492	0.366993
	H80	H	0.620298	0.081811	0.882423
	H81	H	0.398855	0.076680	0.058769
	H82	H	0.619088	0.905309	0.069083
	H83	H	0.391030	0.900315	0.884572
	H84	H	0.617762	0.905079	0.063752
	H85	H	0.392523	0.079489	0.074128
	H86	H	0.621130	0.088496	0.886780
	H87	H	0.394535	0.903460	0.893111
	H88	H	0.915065	0.082956	0.589067
	H89	H	0.095030	0.082830	0.362771
	H90	H	0.091982	0.909140	0.588412
	H91	H	0.916858	0.904591	0.365348
	H92	H	0.101172	0.608158	0.889179
	H93	H	0.098902	0.379272	0.066927
	H94	H	0.914498	0.608571	0.069514
	H95	H	0.929906	0.388755	0.893688
	H96	H	0.410691	0.111331	0.570187
	H97	H	0.596325	0.880322	0.566747
	H98	H	0.596531	0.106746	0.398228
	H99	H	0.419858	0.888726	0.397428
	H100	H	0.599646	0.403137	0.093548
	H101	H	0.591452	0.587366	0.865534
	H102	H	0.415875	0.586117	0.092602
	H103	H	0.418330	0.406396	0.867627
	H104	H	0.118412	0.589802	0.392758
	H105	H	0.893138	0.585322	0.563431
	H106	H	0.112473	0.414731	0.561328
	H107	H	0.896054	0.411662	0.389324
	H108	H	0.923552	0.603963	0.067164
	H109	H	0.095004	0.379199	0.070803
	H110	H	0.099375	0.610754	0.882762
	H111	H	0.910902	0.383435	0.899579
	H112	H	0.092208	0.902170	0.591008
	H113	H	0.091628	0.079310	0.366039
	H114	H	0.917255	0.081439	0.587535
	H115	H	0.915103	0.906764	0.365805
	H116	H	0.617534	0.081800	0.890388
	H117	H	0.392338	0.092365	0.062281
	H118	H	0.617690	0.910218	0.066523
	H119	H	0.394259	0.909441	0.885604
	C120	C	0.382785	0.004043	0.599109
	C121	C	0.626344	0.985653	0.598953
	C122	C	0.625815	0.003788	0.357185
	C123	C	0.383676	0.987909	0.355919
	C124	C	0.627798	0.372889	-0.013313
	C125	C	0.627502	0.615583	0.969187
	C126	C	0.385117	0.615168	-0.012813
	C127	C	0.384145	0.371723	0.970456
	C128	C	0.014084	0.616328	0.355712
	C129	C	0.996396	0.616014	0.599240
	C130	C	0.013829	0.373448	0.598785
	C131	C	0.997403	0.373347	0.355812
	C132	C	0.884913	0.502121	0.099090
	C133	C	0.126889	0.485202	0.098625
	C134	C	0.128493	0.503572	0.855585
	C135	C	0.885837	0.487464	0.857480
	C136	C	0.126231	0.873353	0.485953
	C137	C	0.125069	0.115329	0.467931
	C138	C	0.882713	0.117143	0.485727
	C139	C	0.883578	0.873429	0.469830
	C140	C	0.514876	0.115554	0.856294
	C141	C	0.498126	0.115621	0.098634
	C142	C	0.514231	0.874074	0.099157
	C143	C	0.497922	0.872940	0.855877
	C144	C	0.380897	0.884817	0.658066
	C145	C	0.628133	0.104573	0.658809
	C146	C	0.630196	0.886595	0.294497
	C147	C	0.378984	0.105657	0.293554
	C148	C	0.688961	0.369945	0.868515
	C149	C	0.687001	0.617259	0.087706
	C150	C	0.327225	0.615329	0.867587
	C151	C	0.323422	0.368340	0.088728
	C152	C	0.894933	0.675175	0.354444
	C153	C	0.114879	0.676452	0.600524
	C154	C	0.895569	0.313037	0.602004
	C155	C	0.115117	0.311612	0.352665
	C156	C	0.896508	0.370210	0.660870
	C157	C	0.115501	0.618301	0.657946
	C158	C	0.895882	0.618078	0.295380
	C159	C	0.115740	0.370059	0.295449
	C160	C	0.384103	0.674157	0.867981
	C161	C	0.629986	0.676055	0.087429
	C162	C	0.629683	0.313619	0.867849
	C163	C	0.382615	0.311797	0.089124
	C164	C	0.688313	0.886267	0.352127
	C165	C	0.687346	0.104042	0.602684
	C166	C	0.323191	0.884994	0.600215
	C167	C	0.321254	0.105498	0.351465
	C168	C	0.881408	0.384058	0.160505
	C169	C	0.127059	0.605423	0.156377
	C170	C	0.127403	0.383313	0.798396
	C171	C	0.882289	0.605716	0.796452
	C172	C	0.186495	0.870518	0.367671
	C173	C	0.185369	0.117996	0.586203
	C174	C	0.820608	0.121167	0.368582
	C175	C	0.822524	0.870236	0.588193
	C176	C	0.395728	0.174410	0.857229
	C177	C	0.616598	0.176190	0.101939
	C178	C	0.395839	0.814152	0.100718
	C179	C	0.617215	0.814221	0.854759
	C180	C	0.395894	0.871631	0.159213
	C181	C	0.615180	0.120423	0.161190
	C182	C	0.395346	0.116574	0.798918
	C183	C	0.616796	0.871608	0.796151
	C184	C	0.878916	0.178649	0.367861
	C185	C	0.127254	0.175515	0.586463
	C186	C	0.127278	0.814004	0.367173
	C187	C	0.880292	0.812355	0.588096
	C188	C	0.184623	0.382844	0.856980
	C189	C	0.185249	0.604944	0.099065
	C190	C	0.823876	0.383951	0.102472
	C191	C	0.824421	0.605569	0.854308
	C192	C	0.407364	0.087171	0.575020
	C193	C	0.601085	0.903093	0.573565
	C194	C	0.599531	0.085663	0.383703
	C195	C	0.410127	0.906073	0.382200
	C196	C	0.602369	0.398424	0.069175
	C197	C	0.602361	0.590224	0.886898
	C198	C	0.409481	0.590869	0.069965
	C199	C	0.408708	0.396904	0.887796
	C200	C	0.096512	0.591686	0.380595
	C201	C	0.913889	0.590657	0.574741
	C202	C	0.096409	0.398324	0.573539
	C203	C	0.915324	0.399642	0.381363
	C204	C	0.910661	0.584416	0.073098
	C205	C	0.102847	0.401672	0.074648
	C206	C	0.105130	0.587208	0.879291
	C207	C	0.911937	0.405319	0.883693
	C208	C	0.101182	0.898629	0.568543
	C209	C	0.099602	0.089585	0.386026
	C210	C	0.909316	0.090639	0.567249
	C211	C	0.908944	0.898811	0.387681
	C212	C	0.598013	0.091137	0.879743
	C213	C	0.416033	0.089985	0.072460
	C214	C	0.596823	0.899703	0.073808
	C215	C	0.415048	0.897322	0.880446
	Zn216	Zn	0.504988	-0.005837	0.727119
	Zn217	Zn	0.505020	-0.003581	0.227701
	Zn218	Zn	0.756469	0.494069	-0.021932
	Zn219	Zn	0.256335	0.493489	-0.021546
	Zn220	Zn	0.004403	0.744533	0.477773
	Zn221	Zn	0.004490	0.245012	0.477031
	Zn222	Zn	0.006172	0.495207	0.727826
	Zn223	Zn	0.006382	0.494191	0.227011
	Zn224	Zn	0.506283	0.744347	-0.021893
	Zn225	Zn	0.506755	0.244066	-0.021232
	Zn226	Zn	0.754836	-0.005225	0.478054
	Zn227	Zn	0.254890	-0.004517	0.476302
	N228	N	0.417205	0.959856	0.657725
	N229	N	0.591031	0.029890	0.656654
	N230	N	0.592247	0.960711	0.297452
	N231	N	0.417059	0.031429	0.296126
	N232	N	0.687839	0.405976	0.943527
	N233	N	0.685821	0.580656	0.013043
	N234	N	0.327653	0.579259	0.942648
	N235	N	0.324356	0.405158	0.013933
	N236	N	0.969293	0.674113	0.391239
	N237	N	0.039805	0.675333	0.564800
	N238	N	0.969648	0.314776	0.564250
	N239	N	0.040401	0.313597	0.389491
	N240	N	0.971031	0.407025	0.658982
	N241	N	0.040789	0.581790	0.657503
	N242	N	0.971009	0.582489	0.295806
	N243	N	0.041455	0.407501	0.297067
	N244	N	0.419088	0.674488	0.943407
	N245	N	0.593866	0.675323	0.012595
	N246	N	0.592665	0.315039	0.942476
	N247	N	0.419935	0.313914	0.014711
	N248	N	0.685732	0.960298	0.390319
	N249	N	0.686602	0.028943	0.566281
	N250	N	0.323772	0.960372	0.564535
	N251	N	0.324086	0.031344	0.389518
	N252	N	0.918773	0.458571	0.158373
	N253	N	0.091883	0.529720	0.156469
	N254	N	0.093606	0.459484	0.797176
	N255	N	0.920099	0.531353	0.798521
	N256	N	0.186135	0.906732	0.442716
	N257	N	0.184317	0.081522	0.511505
	N258	N	0.822669	0.083667	0.442970
	N259	N	0.824394	0.907656	0.513642
	N260	N	0.471368	0.174507	0.891652
	N261	N	0.542830	0.173259	0.063583
	N262	N	0.470727	0.815495	0.064253
	N263	N	0.542302	0.814791	0.891059
	N264	N	0.470710	0.908105	0.158409
	N265	N	0.540583	0.083594	0.159309
	N266	N	0.470531	0.080945	0.798164
	N267	N	0.541356	0.906988	0.796457
	N268	N	0.916608	0.176320	0.441873
	N269	N	0.090427	0.173918	0.512075
	N270	N	0.090716	0.815579	0.441820
	N271	N	0.917267	0.813983	0.513588
	N272	N	0.185856	0.458764	0.891539
	N273	N	0.185224	0.529272	0.064019
	N274	N	0.825883	0.458421	0.065022
	N275	N	0.826447	0.530953	0.891693
	O276	O	-0.316709	0.316354	0.292154
	H277	H	-0.336833	0.316819	0.286649
	H278	H	-0.337329	0.319007	0.302852
	O279	O	0.721882	0.667859	0.507082
	H280	H	0.724061	0.669347	0.494602
	H281	H	0.721963	0.685462	0.491139
	O282	O	1.017971	0.992779	-0.010881
	H283	H	1.003767	1.001172	-0.031675
	H284	H	1.013727	0.985112	0.001172
	O285	O	0.710219	0.576045	0.383508
	H286	H	0.705118	0.557225	0.387690
	H287	H	0.697943	0.576886	0.384349
	O288	O	-0.659537	0.529727	0.565221
	H289	H	-0.679952	0.504685	0.570914
	H290	H	-0.672114	0.531027	0.565191
	O291	O	1.520054	1.520812	1.664397
	H292	H	1.523167	1.536345	1.669323
	H293	H	1.526614	1.520966	1.667746
	O294	O	-0.186564	0.798730	0.180485
	H295	H	-0.184517	0.783599	0.169388
	H296	H	-0.206868	0.775135	0.172358
	O297	O	0.502100	0.303208	1.340366
	H298	H	0.484084	0.297141	1.375593
	H299	H	0.495773	0.296807	1.330780
	O300	O	0.449286	0.323145	0.414316
	H301	H	0.437874	0.317781	0.434393
	H302	H	0.434996	0.335213	0.431366
	O303	O	0.574563	0.515133	0.552226
	H304	H	0.562908	0.504856	0.542457
	H305	H	0.572801	0.515412	0.562076
	O306	O	0.205794	1.191492	0.993181
	H307	H	0.202284	1.197038	0.981054
	H308	H	0.199080	1.181435	0.975564
	O309	O	0.285945	0.531598	0.255647
	H310	H	0.258150	0.521430	0.225396
	H311	H	0.302797	0.499216	0.268090
	O312	O	0.689003	0.586080	0.615811
	H313	H	0.683507	0.562824	0.599128
	H314	H	0.700971	0.587909	0.582519
	O315	O	0.213049	-0.136779	0.894742
	H316	H	0.208717	-0.139963	0.863539
	H317	H	0.231126	-0.160055	0.892925
	O318	O	0.049328	0.807480	-0.078232
	H319	H	0.053017	0.804715	-0.079819
	H320	H	0.053417	0.798482	-0.079902
	O321	O	-0.470530	1.502925	1.449255
	H322	H	-0.484588	1.509552	1.443004
	H323	H	-0.466551	1.497320	1.442861
	O324	O	1.133010	-0.062047	0.788197
	H325	H	1.123162	-0.045983	0.787700
	H326	H	1.109202	-0.066571	0.777718
	O327	O	1.111102	-0.206681	0.786214
	H328	H	1.100771	-0.202441	0.771792
	H329	H	1.097479	-0.224966	0.784568
	O330	O	1.076656	0.010503	0.196581
	H331	H	1.057359	0.027641	0.189192
	H332	H	1.094031	0.007530	0.211130
	O333	O	0.291630	0.705538	0.451118
	H334	H	0.290818	0.709075	0.417426
	H335	H	0.281891	0.726522	0.434803
	O336	O	0.994860	0.134228	1.190934
	H337	H	0.991306	0.125712	1.197770
	H338	H	1.009543	0.121797	1.195661
	O339	O	-0.204485	-0.212359	1.010472
	H340	H	-0.216116	-0.195681	0.995084
	H341	H	-0.208835	-0.225268	0.999966
	O342	O	0.598099	0.646678	0.479698
	H343	H	0.578444	0.641263	0.487442
	H344	H	0.591878	0.649123	0.485207
	O345	O	0.194380	0.180493	-0.209233
	H346	H	0.179882	0.156743	-0.191451
	H347	H	0.170446	0.166686	-0.190021
	O348	O	0.488293	0.710575	0.498930
	H349	H	0.464546	0.710036	0.495121
	H350	H	0.484100	0.705991	0.534429
	O351	O	0.983244	1.064671	-0.099011
	H352	H	0.989010	1.068633	-0.094020
	H353	H	0.967173	1.070398	-0.097496
	O354	O	0.306557	0.695156	0.282749
	H355	H	0.296501	0.640763	0.272264
	H356	H	0.302851	0.716464	0.256334
	O357	O	0.841947	1.195819	0.979298
	H358	H	0.843144	1.199309	0.976756
	H359	H	0.842783	1.199229	0.987876
	O360	O	0.347378	0.522724	0.678118
	H361	H	0.315526	0.525198	0.692492
	H362	H	0.348612	0.536585	0.666982
	O363	O	0.296383	0.282319	0.682703
	H364	H	0.267302	0.250031	0.717686
	H365	H	0.327074	0.300484	0.689179
	O366	O	0.992564	0.073637	0.819545
	H367	H	0.982617	0.075286	0.827475
	H368	H	0.992727	0.082607	0.816871
	O369	O	0.684559	0.371293	0.549244
	H370	H	0.682077	0.359847	0.537371
	H371	H	0.677791	0.374923	0.546006
	O372	O	0.532324	0.334260	0.525809
	H373	H	0.521341	0.338171	0.537788
	H374	H	0.530023	0.340291	0.521416
	O375	O	-0.356749	1.632332	1.285254
	H376	H	-0.381139	1.626652	1.305560
	H377	H	-0.373265	1.620870	1.291611
	O378	O	0.465535	0.281333	0.691198
	H379	H	0.481975	0.281999	0.701792
	H380	H	0.456795	0.271969	0.692679
	O381	O	1.292556	-0.721556	-0.495342
	H382	H	1.280335	-0.724949	-0.471779
	H383	H	1.275006	-0.731655	-0.469121
	O384	O	-0.097865	0.132674	0.831157
	H385	H	-0.100372	0.123441	0.841845
	H386	H	-0.123910	0.139132	0.826347
	O387	O	-0.025379	0.893517	1.022400
	H388	H	-0.038395	0.892661	1.030964
	H389	H	-0.025562	0.885700	1.039679
	O390	O	-0.023843	-0.205995	1.194391
	H391	H	-0.038396	-0.210674	1.201867
	H392	H	-0.027950	-0.223587	1.204055
	O393	O	1.201929	0.959030	0.018170
	H394	H	1.203593	0.934145	0.014027
	H395	H	1.202439	0.965960	0.031607
	O396	O	0.348559	0.651237	-0.344984
	H397	H	0.357285	0.641369	-0.349470
	H398	H	0.364253	0.655297	-0.351519
	O399	O	0.798869	0.966242	1.177703
	H400	H	0.793123	0.935379	1.183395
	H401	H	0.782610	0.948831	1.190678
	O402	O	0.190707	0.056143	1.159917
	H403	H	0.173887	0.069547	1.171741
	H404	H	0.196295	0.058885	1.133326
	O405	O	-0.140517	0.100859	0.041517
	H406	H	-0.142423	0.100241	0.049462
	H407	H	-0.142722	0.103113	0.062879
	O408	O	1.143118	0.976012	0.858163
	H409	H	1.116790	0.983891	0.858252
	H410	H	1.161796	0.976087	0.833969
	O411	O	1.436784	0.380530	0.296992
	H412	H	1.438456	0.383028	0.300041
	H413	H	1.441571	0.364143	0.308134
	O414	O	0.710229	0.478323	0.269735
	H415	H	0.703094	0.485673	0.263720
	H416	H	0.713216	0.450498	0.257597
	O417	O	0.056703	-0.191378	0.962678
	H418	H	0.059557	-0.183747	0.954579
	H419	H	0.051769	-0.205765	0.973756
	O420	O	0.331446	0.488576	0.507443
	H421	H	0.329473	0.488068	0.515617
	H422	H	0.326049	0.502094	0.512480
	O423	O	-0.163933	0.089993	0.848611
	H424	H	-0.156911	0.081030	0.862252
	H425	H	-0.180502	0.105144	0.848395
	O426	O	1.014162	0.998258	0.767804
	H427	H	1.012040	1.005619	0.781395
	H428	H	1.021449	0.992465	0.768377
	O429	O	0.129731	0.169140	0.172972
	H430	H	0.129551	0.180367	0.152351
	H431	H	0.126289	0.152965	0.182725
	O432	O	0.618960	0.354901	0.666649
	H433	H	0.602547	0.371847	0.668049
	H434	H	0.612790	0.338946	0.660566
	O435	O	0.532184	-0.288563	-0.303792
	H436	H	0.545009	-0.260852	-0.275536
	H437	H	0.573223	-0.295811	-0.308375
	O438	O	0.718999	-0.715473	-0.548566
	H439	H	0.731447	-0.735211	-0.568525
	H440	H	0.716262	-0.719643	-0.546446
	O441	O	0.804620	1.040550	0.843975
	H442	H	0.792928	1.050883	0.850063
	H443	H	0.809214	1.042408	0.841541
	O444	O	0.707595	1.602958	0.654322
	H445	H	0.718350	1.591745	0.643152
	H446	H	0.714745	1.596690	0.641566
	O447	O	0.324877	0.519880	0.505076
	H448	H	0.312916	0.521132	0.506902
	H449	H	0.325095	0.536954	0.502832
	O450	O	0.093316	1.116559	0.988150
	H451	H	0.084242	1.091314	0.984693
	H452	H	0.094168	1.111222	1.004568
	O453	O	0.882738	-0.056749	0.770718
	H454	H	0.885295	-0.053826	0.767984
	H455	H	0.880977	-0.052455	0.767533
	O456	O	1.461961	0.486869	0.289935
	H457	H	1.463598	0.491944	0.295365
	H458	H	1.466704	0.486407	0.298583
	O459	O	0.490924	0.678396	0.270659
	H460	H	0.482240	0.690035	0.279208
	H461	H	0.484593	0.704181	0.258966
	O462	O	0.137444	0.859853	0.174416
	H463	H	0.134319	0.868002	0.155533
	H464	H	0.128532	0.872737	0.171354
	O465	O	0.856634	0.098342	-0.004761
	H466	H	0.862406	0.096984	0.007692
	H467	H	0.840782	0.116856	-0.000652
