data_Molecule from HDF5

_cell_length_a		16.611482
_cell_length_b		16.606053
_cell_length_c		16.571288
_cell_angle_alpha	89.989071
_cell_angle_beta	90.028237
_cell_angle_gamma	89.822241
_symmetry_space_group_name_H-M	'P 1'
_symmetry_Int_Tables_number		1

loop_
	_symmetry_equiv_pos_as_xyz
	x,y,z

loop_
	_atom_site_label
	_atom_site_type_symbol
	_atom_site_fract_x
	_atom_site_fract_y
	_atom_site_fract_z
	H0	H	0.387949	0.840550	0.721521
	H1	H	0.602426	0.150628	0.719403
	H2	H	0.599521	0.839242	0.276677
	H3	H	0.388088	0.148932	0.272724
	H4	H	0.720959	0.385491	0.842423
	H5	H	0.717716	0.600956	0.152307
	H6	H	0.274069	0.600102	0.840686
	H7	H	0.276292	0.391557	0.153690
	H8	H	0.840866	0.716974	0.392311
	H9	H	0.151988	0.717465	0.604445
	H10	H	0.842915	0.269896	0.605076
	H11	H	0.150029	0.269020	0.386883
	H12	H	0.843073	0.384977	0.721770
	H13	H	0.151851	0.600772	0.720152
	H14	H	0.840290	0.600665	0.276022
	H15	H	0.151289	0.388030	0.273504
	H16	H	0.389856	0.716673	0.840974
	H17	H	0.601296	0.716558	0.151806
	H18	H	0.604686	0.270191	0.842347
	H19	H	0.393036	0.275289	0.154011
	H20	H	0.716802	0.838946	0.393130
	H21	H	0.718523	0.150619	0.602691
	H22	H	0.271294	0.841176	0.605865
	H23	H	0.269643	0.147991	0.386205
	H24	H	0.889482	0.340694	0.219809
	H25	H	0.100984	0.650297	0.217328
	H26	H	0.102550	0.338261	0.774421
	H27	H	0.891608	0.649621	0.775375
	H28	H	0.217717	0.889084	0.341439
	H29	H	0.222882	0.104603	0.651221
	H30	H	0.775380	0.101434	0.340218
	H31	H	0.775698	0.890484	0.652827
	H32	H	0.339594	0.217647	0.888751
	H33	H	0.651212	0.216865	0.102384
	H34	H	0.341302	0.771766	0.104170
	H35	H	0.651567	0.772503	0.890906
	H36	H	0.341876	0.887418	0.220274
	H37	H	0.650647	0.102736	0.219978
	H38	H	0.340400	0.100814	0.773374
	H39	H	0.652469	0.890216	0.776324
	H40	H	0.889876	0.217182	0.341411
	H41	H	0.105830	0.220658	0.651099
	H42	H	0.102667	0.772428	0.341861
	H43	H	0.892684	0.775042	0.653868
	H44	H	0.219155	0.338401	0.890300
	H45	H	0.216632	0.650341	0.101448
	H46	H	0.774231	0.339813	0.103054
	H47	H	0.774130	0.649633	0.890355
	H48	H	0.405444	0.105935	0.582358
	H49	H	0.583459	0.884319	0.587302
	H50	H	0.584105	0.107437	0.407436
	H51	H	0.410353	0.884618	0.412063
	H52	H	0.585217	0.407371	0.108325
	H53	H	0.587896	0.581707	0.883821
	H54	H	0.405216	0.581944	0.108643
	H55	H	0.408108	0.410255	0.886029
	H56	H	0.107204	0.581271	0.408141
	H57	H	0.886993	0.582929	0.583249
	H58	H	0.104555	0.408771	0.578664
	H59	H	0.885839	0.407133	0.411154
	H60	H	0.106942	0.411201	0.586787
	H61	H	0.885548	0.582918	0.587867
	H62	H	0.108712	0.584288	0.404630
	H63	H	0.885720	0.409180	0.407390
	H64	H	0.408841	0.584676	0.107807
	H65	H	0.582875	0.580748	0.886263
	H66	H	0.582523	0.408528	0.105977
	H67	H	0.410152	0.402286	0.884831
	H68	H	0.585333	0.106641	0.409321
	H69	H	0.588014	0.883538	0.583564
	H70	H	0.414146	0.104075	0.585969
	H71	H	0.404911	0.882590	0.409837
	H72	H	0.907629	0.603650	0.077049
	H73	H	0.088915	0.381400	0.084919
	H74	H	0.088091	0.606662	0.905642
	H75	H	0.903113	0.378024	0.901649
	H76	H	0.086845	0.905471	0.609230
	H77	H	0.087441	0.082734	0.384279
	H78	H	0.907342	0.083311	0.608530
	H79	H	0.906116	0.908943	0.386504
	H80	H	0.607556	0.083968	0.906027
	H81	H	0.381326	0.088216	0.089674
	H82	H	0.608178	0.906333	0.087423
	H83	H	0.385948	0.906430	0.911690
	H84	H	0.606988	0.904066	0.082353
	H85	H	0.386177	0.086255	0.078040
	H86	H	0.606412	0.085518	0.910191
	H87	H	0.384871	0.909637	0.905956
	H88	H	0.907720	0.081653	0.608201
	H89	H	0.082011	0.073641	0.390211
	H90	H	0.085171	0.909094	0.608348
	H91	H	0.909530	0.902661	0.383899
	H92	H	0.081113	0.604743	0.905886
	H93	H	0.082731	0.382321	0.088189
	H94	H	0.899545	0.609892	0.086999
	H95	H	0.916970	0.384814	0.907875
	H96	H	0.412202	0.101258	0.577669
	H97	H	0.588841	0.881666	0.589029
	H98	H	0.586311	0.107691	0.407450
	H99	H	0.410052	0.883446	0.405849
	H100	H	0.582326	0.405369	0.107808
	H101	H	0.583859	0.585781	0.883821
	H102	H	0.404696	0.586813	0.109308
	H103	H	0.402814	0.405024	0.882752
	H104	H	0.108910	0.585483	0.409229
	H105	H	0.884694	0.587435	0.584934
	H106	H	0.108818	0.402845	0.583687
	H107	H	0.884349	0.405605	0.408137
	H108	H	0.913267	0.606384	0.089718
	H109	H	0.083825	0.384702	0.081833
	H110	H	0.085413	0.604395	0.911955
	H111	H	0.903153	0.383611	0.917486
	H112	H	0.082451	0.905957	0.608738
	H113	H	0.076108	0.084478	0.388834
	H114	H	0.908658	0.082587	0.608189
	H115	H	0.902483	0.903403	0.382815
	H116	H	0.605805	0.080758	0.909258
	H117	H	0.386273	0.077165	0.086467
	H118	H	0.605186	0.909355	0.083444
	H119	H	0.382684	0.903631	0.906590
	C120	C	0.376025	0.002476	0.616866
	C121	C	0.618732	0.986469	0.618883
	C122	C	0.617335	0.003968	0.375901
	C123	C	0.374868	0.985865	0.375339
	C124	C	0.617124	0.373470	0.005034
	C125	C	0.616995	0.615554	0.987972
	C126	C	0.374048	0.616612	0.005339
	C127	C	0.375220	0.374166	0.988188
	C128	C	0.005135	0.616531	0.375413
	C129	C	0.988549	0.616313	0.618370
	C130	C	0.004909	0.373609	0.617170
	C131	C	0.987493	0.373328	0.374994
	C132	C	0.874354	0.503894	0.117916
	C133	C	0.117155	0.485977	0.117742
	C134	C	0.117959	0.502491	0.874906
	C135	C	0.874725	0.485043	0.875555
	C136	C	0.117639	0.873738	0.505802
	C137	C	0.117328	0.115620	0.488996
	C138	C	0.875287	0.115749	0.505267
	C139	C	0.874895	0.873673	0.488252
	C140	C	0.504072	0.116711	0.874770
	C141	C	0.487427	0.116344	0.117593
	C142	C	0.504546	0.873631	0.117815
	C143	C	0.487416	0.873983	0.875654
	C144	C	0.370688	0.886843	0.680308
	C145	C	0.620478	0.103798	0.678944
	C146	C	0.618637	0.886056	0.316647
	C147	C	0.370608	0.102502	0.313518
	C148	C	0.679545	0.368640	0.888810
	C149	C	0.677381	0.618520	0.105317
	C150	C	0.314058	0.618697	0.887614
	C151	C	0.316327	0.372840	0.106648
	C152	C	0.887734	0.676743	0.373868
	C153	C	0.105343	0.676844	0.622065
	C154	C	0.889039	0.311184	0.622032
	C155	C	0.103934	0.310841	0.370287
	C156	C	0.889242	0.368368	0.680286
	C157	C	0.105240	0.618622	0.679556
	C158	C	0.887430	0.618900	0.315967
	C159	C	0.104456	0.369929	0.313715
	C160	C	0.371539	0.676578	0.887740
	C161	C	0.619338	0.676027	0.105178
	C162	C	0.621887	0.311276	0.888750
	C163	C	0.374225	0.315036	0.106696
	C164	C	0.676667	0.885832	0.374425
	C165	C	0.678343	0.103727	0.621088
	C166	C	0.312917	0.887014	0.622608
	C167	C	0.311484	0.101800	0.369897
	C168	C	0.871308	0.387238	0.179445
	C169	C	0.119535	0.603155	0.177845
	C170	C	0.120873	0.385128	0.814521
	C171	C	0.872327	0.602615	0.815017
	C172	C	0.177839	0.871009	0.388456
	C173	C	0.181059	0.121398	0.604836
	C174	C	0.814832	0.119288	0.387814
	C175	C	0.815691	0.872229	0.606053
	C176	C	0.386964	0.177691	0.870953
	C177	C	0.604278	0.176931	0.120543
	C178	C	0.388074	0.812301	0.121697
	C179	C	0.604782	0.813139	0.872974
	C180	C	0.388300	0.869908	0.179572
	C181	C	0.604136	0.119976	0.179021
	C182	C	0.387113	0.119437	0.813599
	C183	C	0.605145	0.871709	0.815900
	C184	C	0.872035	0.176939	0.388198
	C185	C	0.123129	0.179285	0.604692
	C186	C	0.120740	0.812930	0.388674
	C187	C	0.873765	0.814714	0.606477
	C188	C	0.179095	0.385377	0.871921
	C189	C	0.176662	0.603430	0.119668
	C190	C	0.814166	0.386734	0.121232
	C191	C	0.814155	0.602526	0.872289
	C192	C	0.403115	0.082903	0.589720
	C193	C	0.593800	0.904465	0.593804
	C194	C	0.592387	0.085907	0.400760
	C195	C	0.401125	0.904774	0.401740
	C196	C	0.590946	0.399736	0.086195
	C197	C	0.591801	0.590118	0.905934
	C198	C	0.399100	0.591556	0.087337
	C199	C	0.399893	0.398787	0.906027
	C200	C	0.086947	0.591018	0.400173
	C201	C	0.906883	0.591541	0.592554
	C202	C	0.085686	0.400088	0.590563
	C203	C	0.906501	0.399826	0.401452
	C204	C	0.899770	0.585343	0.091968
	C205	C	0.092278	0.404054	0.092228
	C206	C	0.092217	0.584100	0.900451
	C207	C	0.900531	0.403507	0.901308
	C208	C	0.091988	0.899434	0.587602
	C209	C	0.089711	0.087987	0.408705
	C210	C	0.900859	0.089936	0.586983
	C211	C	0.899108	0.897941	0.405896
	C212	C	0.585394	0.090857	0.900988
	C213	C	0.405776	0.090869	0.092054
	C214	C	0.585750	0.899327	0.091717
	C215	C	0.405778	0.899318	0.901014
	Zn216	Zn	0.496018	-0.004895	0.746552
	Zn217	Zn	0.496135	-0.004906	0.246407
	Zn218	Zn	0.745900	0.494308	-0.003439
	Zn219	Zn	0.246029	0.494764	-0.003186
	Zn220	Zn	-0.003104	0.745177	0.497434
	Zn221	Zn	-0.003708	0.244468	0.496568
	Zn222	Zn	-0.003629	0.493930	0.746886
	Zn223	Zn	-0.004132	0.495090	0.246005
	Zn224	Zn	0.495686	0.744522	-0.003544
	Zn225	Zn	0.495651	0.244910	-0.003628
	Zn226	Zn	0.746601	-0.004560	0.496513
	Zn227	Zn	0.246593	-0.005221	0.496908
	N228	N	0.409642	0.959508	0.676597
	N229	N	0.583972	0.029717	0.677604
	N230	N	0.582758	0.960510	0.317242
	N231	N	0.409116	0.029219	0.316445
	N232	N	0.676539	0.406857	0.962106
	N233	N	0.676169	0.581571	0.031222
	N234	N	0.315292	0.582181	0.961863
	N235	N	0.316560	0.408610	0.031831
	N236	N	0.962007	0.675466	0.410058
	N237	N	0.031641	0.675531	0.584681
	N238	N	0.962029	0.314214	0.583442
	N239	N	0.030271	0.312918	0.407878
	N240	N	0.962208	0.406672	0.677297
	N241	N	0.031470	0.581580	0.677498
	N242	N	0.961458	0.582076	0.316706
	N243	N	0.031055	0.408119	0.316394
	N244	N	0.408069	0.675571	0.961984
	N245	N	0.582441	0.674197	0.031080
	N246	N	0.583163	0.314269	0.961803
	N247	N	0.409964	0.315722	0.031974
	N248	N	0.676204	0.960349	0.410379
	N249	N	0.677379	0.029639	0.584546
	N250	N	0.316108	0.959968	0.583685
	N251	N	0.314174	0.028413	0.407758
	N252	N	0.907872	0.461217	0.177593
	N253	N	0.083243	0.529093	0.176642
	N254	N	0.083850	0.459107	0.816122
	N255	N	0.908984	0.528339	0.816460
	N256	N	0.176115	0.908147	0.462421
	N257	N	0.177616	0.082681	0.531783
	N258	N	0.816445	0.082141	0.461782
	N259	N	0.816050	0.907973	0.531334
	N260	N	0.460767	0.176177	0.908324
	N261	N	0.530555	0.174830	0.083247
	N262	N	0.461613	0.814128	0.084133
	N263	N	0.530443	0.814155	0.909195
	N264	N	0.461914	0.907310	0.177442
	N265	N	0.530314	0.082764	0.177448
	N266	N	0.461115	0.082461	0.815637
	N267	N	0.531035	0.908641	0.817085
	N268	N	0.908806	0.175242	0.462485
	N269	N	0.084232	0.175813	0.531569
	N270	N	0.083917	0.814500	0.462850
	N271	N	0.909645	0.815092	0.531976
	N272	N	0.177505	0.459442	0.908824
	N273	N	0.175356	0.529436	0.082754
	N274	N	0.815745	0.460397	0.083733
	N275	N	0.815354	0.528357	0.908997
	O276	O	0.213146	0.778802	-0.034220
	H277	H	0.227624	0.759058	-0.046997
	H278	H	0.211119	0.774538	-0.055142
	O279	O	0.264764	0.468349	0.455465
	H280	H	0.269001	0.462260	0.464367
	H281	H	0.270397	0.467590	0.476844
	O282	O	0.853565	0.188914	1.004046
	H283	H	0.865686	0.186419	1.010918
	H284	H	0.848214	0.204230	1.001676
	O285	O	0.641208	0.377515	0.615321
	H286	H	0.650728	0.387561	0.587584
	H287	H	0.655582	0.364030	0.621109
	O288	O	0.446305	0.729438	0.548781
	H289	H	0.447190	0.733944	0.553800
	H290	H	0.459604	0.733461	0.565497
	O291	O	0.273806	0.270865	0.512891
	H292	H	0.267878	0.270411	0.542841
	H293	H	0.257107	0.255552	0.541234
	O294	O	0.899745	0.048426	1.186101
	H295	H	0.876113	0.036942	1.196359
	H296	H	0.915520	0.055628	1.188967
	O297	O	0.468741	0.706302	0.285711
	H298	H	0.456369	0.702474	0.272723
	H299	H	0.465880	0.716626	0.278509
	O300	O	-0.009432	0.212073	0.971666
	H301	H	0.024976	0.209389	0.969363
	H302	H	-0.009769	0.200229	0.975575
	O303	O	0.684731	0.705703	0.461434
	H304	H	0.675134	0.703246	0.464484
	H305	H	0.691717	0.715869	0.450394
	O306	O	0.716684	0.280246	0.473686
	H307	H	0.712797	0.270627	0.478742
	H308	H	0.731455	0.272061	0.457319
	O309	O	0.435633	0.548986	0.725733
	H310	H	0.453165	0.546548	0.724673
	H311	H	0.448899	0.548995	0.732375
	O312	O	0.520006	0.716100	0.714397
	H313	H	0.533325	0.718437	0.724421
	H314	H	0.550468	0.727715	0.731034
	O315	O	0.819787	0.809566	0.812582
	H316	H	0.824417	0.813660	0.831180
	H317	H	0.840091	0.809642	0.817777
	O318	O	0.597833	0.592921	0.583849
	H319	H	0.613280	0.603798	0.561953
	H320	H	0.594468	0.569549	0.579555
	O321	O	0.200587	0.792568	0.793999
	H322	H	0.211636	0.778380	0.773842
	H323	H	0.194211	0.822884	0.794714
	O324	O	0.784188	0.951118	-0.020478
	H325	H	0.789886	0.948854	-0.014628
	H326	H	0.781828	0.941709	-0.023698
	O327	O	0.029116	0.211131	1.209418
	H328	H	0.039328	0.212481	1.203456
	H329	H	0.027978	0.223889	1.223126
	O330	O	0.682038	0.538382	0.490988
	H331	H	0.683114	0.531626	0.473451
	H332	H	0.686599	0.539442	0.485322
	O333	O	0.472544	0.274849	0.695607
	H334	H	0.490784	0.269042	0.701788
	H335	H	0.481026	0.268162	0.703296
	O336	O	0.719419	0.268841	0.270723
	H337	H	0.677895	0.262203	0.259864
	H338	H	0.724168	0.260007	0.273704
	O339	O	0.870020	-0.019600	0.771910
	H340	H	0.873433	-0.000950	0.771294
	H341	H	0.858500	-0.025130	0.764266
	O342	O	-0.054163	0.154587	0.136625
	H343	H	-0.058068	0.161821	0.118399
	H344	H	-0.063233	0.154214	0.144279
	O345	O	-0.000019	1.036868	0.917459
	H346	H	0.010926	1.031746	0.911197
	H347	H	-0.000033	1.044109	0.921020
	O348	O	0.409682	0.329586	0.295216
	H349	H	0.406103	0.340996	0.314060
	H350	H	0.413982	0.334517	0.299837
	O351	O	0.757496	0.764232	0.239869
	H352	H	0.735918	0.745375	0.229949
	H353	H	0.755042	0.778333	0.238901
	O354	O	0.225748	-0.021821	1.018909
	H355	H	0.222193	-0.038231	1.027899
	H356	H	0.228809	-0.026727	1.027271
	O357	O	0.685611	0.418514	0.475874
	H358	H	0.677385	0.416972	0.480974
	H359	H	0.690076	0.416455	0.478734
	O360	O	0.302920	0.298118	0.686819
	H361	H	0.310198	0.333562	0.694552
	H362	H	0.337979	0.303289	0.694525
	O363	O	0.041732	0.016346	0.137300
	H364	H	0.041989	0.029687	0.136605
	H365	H	0.053251	0.024740	0.127042
	O366	O	0.719304	0.520604	0.716619
	H367	H	0.722124	0.506929	0.699898
	H368	H	0.747332	0.526476	0.737896
	O369	O	0.781062	0.106355	0.110380
	H370	H	0.784491	0.109830	0.100643
	H371	H	0.792387	0.084190	0.099231
	O372	O	0.830118	0.783557	0.006923
	H373	H	0.849820	0.774787	0.003402
	H374	H	0.826758	0.792390	0.022649
	O375	O	0.768110	-0.033516	0.220759
	H376	H	0.753521	-0.034274	0.224661
	H377	H	0.755675	-0.062145	0.230986
	O378	O	0.344292	0.496799	0.392183
	H379	H	0.347922	0.497448	0.390781
	H380	H	0.345330	0.514447	0.386799
	O381	O	0.022001	0.782233	0.786497
	H382	H	0.032290	0.780491	0.779911
	H383	H	0.023889	0.781367	0.777011
	O384	O	0.783963	0.078204	0.849819
	H385	H	0.768779	0.071913	0.838515
	H386	H	0.800895	0.090746	0.862369
	O387	O	1.006899	0.895270	-0.012353
	H388	H	1.017326	0.888562	-0.028654
	H389	H	1.000063	0.886322	-0.010337
	O390	O	0.518190	0.302802	0.332051
	H391	H	0.501512	0.289981	0.323320
	H392	H	0.496193	0.307670	0.336552
	O393	O	0.511173	0.530962	0.336301
	H394	H	0.508572	0.548848	0.334872
	H395	H	0.510510	0.523507	0.334041
	O396	O	0.132382	1.049587	0.949078
	H397	H	0.139530	1.046532	0.936407
	H398	H	0.128839	1.037988	0.965091
	O399	O	-0.123156	0.105519	0.828838
	H400	H	-0.121708	0.107188	0.849363
	H401	H	-0.117395	0.101668	0.835006
	O402	O	0.275976	0.653524	0.498458
	H403	H	0.268995	0.662197	0.493529
	H404	H	0.280227	0.662623	0.499381
	O405	O	0.968578	0.186001	0.811935
	H406	H	0.978528	0.181981	0.824480
	H407	H	0.981196	0.201177	0.808110
	O408	O	0.221340	0.222422	0.028147
	H409	H	0.241739	0.243445	0.050946
	H410	H	0.230499	0.224483	0.049889
	O411	O	0.710240	0.707651	0.631812
	H412	H	0.729043	0.722880	0.637438
	H413	H	0.712683	0.702465	0.618621
	O414	O	0.548266	0.541574	0.508002
	H415	H	0.548557	0.535197	0.491850
	H416	H	0.551284	0.539772	0.506392
	O417	O	0.574804	0.377215	0.538250
	H418	H	0.583775	0.374272	0.547627
	H419	H	0.560290	0.374026	0.531359
	O420	O	0.323353	0.669252	0.672583
	H421	H	0.335212	0.659112	0.649431
	H422	H	0.347924	0.663299	0.674599
	O423	O	0.043396	0.077317	0.762605
	H424	H	0.054701	0.086068	0.766045
	H425	H	0.040622	0.087086	0.759571
	O426	O	0.387246	0.601251	0.490481
	H427	H	0.384768	0.615345	0.497453
	H428	H	0.397478	0.594854	0.490301
	O429	O	0.971897	0.814129	0.990083
	H430	H	0.966082	0.821333	1.003945
	H431	H	0.972104	0.813485	0.994184
	O432	O	0.561118	0.643826	0.375991
	H433	H	0.560977	0.641223	0.379460
	H434	H	0.542964	0.632328	0.387481
	O435	O	0.184097	0.809078	0.177018
	H436	H	0.171732	0.813011	0.178746
	H437	H	0.178094	0.806357	0.170776
	O438	O	0.212378	0.027041	0.206833
	H439	H	0.199104	0.008259	0.218743
	H440	H	0.223631	0.016277	0.210594
	O441	O	0.201539	0.197405	0.195204
	H442	H	0.194210	0.214805	0.212046
	H443	H	0.206035	0.147513	0.200985
	O444	O	0.441538	0.319238	0.470846
	H445	H	0.442178	0.320075	0.486323
	H446	H	0.418733	0.322455	0.483597
	O447	O	0.184024	0.953322	0.807339
	H448	H	0.195791	0.965714	0.812191
	H449	H	0.164584	0.963505	0.802307
	O450	O	0.114433	0.919437	1.158538
	H451	H	0.102396	0.914845	1.157528
	H452	H	0.093186	0.910433	1.160400
	O453	O	0.279013	0.463346	0.707343
	H454	H	0.256932	0.472543	0.726581
	H455	H	0.293258	0.482637	0.704568
	O456	O	0.180896	0.122997	0.855223
	H457	H	0.194840	0.109070	0.868730
	H458	H	0.196534	0.128336	0.863897
	O459	O	0.878762	0.891131	0.128411
	H460	H	0.896807	0.888736	0.127709
	H461	H	0.872465	0.889389	0.136553
	O462	O	0.732829	0.647168	0.191465
	H463	H	0.737088	0.628326	0.184747
	H464	H	0.729458	0.626069	0.182617
	O465	O	0.986752	-0.157591	-0.057032
	H466	H	0.998836	-0.155378	-0.059146
	H467	H	0.993530	-0.154320	-0.057187
	O468	O	0.315978	0.421693	0.352355
	H469	H	0.302351	0.435661	0.368272
	H470	H	0.300221	0.406987	0.364460
	O471	O	0.335781	0.470202	0.408932
	H472	H	0.330259	0.473117	0.403174
	H473	H	0.329106	0.469381	0.424083
	O474	O	0.289504	0.700315	0.296460
	H475	H	0.295788	0.703423	0.306704
	H476	H	0.283612	0.670771	0.288650
	O477	O	0.664571	0.466687	1.301670
	H478	H	0.678619	0.451218	1.298976
	H479	H	0.666202	0.457602	1.291843
	O480	O	0.542779	0.337389	0.653207
	H481	H	0.545808	0.345917	0.652157
	H482	H	0.568316	0.337496	0.646595
	O483	O	0.526048	0.468791	0.551562
	H484	H	0.530338	0.450768	0.560360
	H485	H	0.543526	0.463578	0.546793
	O486	O	0.760681	0.343937	0.657499
	H487	H	0.754938	0.344180	0.665737
	H488	H	0.785108	0.339867	0.652349
	O489	O	0.958215	0.779974	0.216079
	H490	H	0.956802	0.757035	0.240504
	H491	H	0.942316	0.797915	0.217651
