data_Molecule from HDF5

_cell_length_a		16.207842
_cell_length_b		16.158941
_cell_length_c		16.368473
_cell_angle_alpha	90.297100
_cell_angle_beta	89.792705
_cell_angle_gamma	90.130071
_symmetry_space_group_name_H-M	'P 1'
_symmetry_Int_Tables_number		1

loop_
	_symmetry_equiv_pos_as_xyz
	x,y,z

loop_
	_atom_site_label
	_atom_site_type_symbol
	_atom_site_fract_x
	_atom_site_fract_y
	_atom_site_fract_z
	H0	H	0.400023	0.835426	0.712141
	H1	H	0.602319	0.164196	0.715209
	H2	H	0.601203	0.837149	0.280587
	H3	H	0.401656	0.165262	0.286216
	H4	H	0.718309	0.400133	0.836604
	H5	H	0.713764	0.599967	0.162901
	H6	H	0.285623	0.598600	0.835973
	H7	H	0.284519	0.401025	0.161434
	H8	H	0.836207	0.713554	0.403416
	H9	H	0.165674	0.716186	0.597848
	H10	H	0.837834	0.285680	0.599123
	H11	H	0.165650	0.287972	0.400541
	H12	H	0.838840	0.399790	0.715980
	H13	H	0.164576	0.603425	0.716268
	H14	H	0.837440	0.602223	0.284107
	H15	H	0.163760	0.399577	0.282026
	H16	H	0.403869	0.712721	0.834749
	H17	H	0.599160	0.717617	0.161205
	H18	H	0.600706	0.284274	0.835580
	H19	H	0.400641	0.285796	0.161276
	H20	H	0.714160	0.835709	0.399279
	H21	H	0.713273	0.165757	0.596239
	H22	H	0.286802	0.835334	0.595107
	H23	H	0.287994	0.164988	0.401948
	H24	H	0.899482	0.336908	0.215283
	H25	H	0.101573	0.664315	0.216488
	H26	H	0.102594	0.337290	0.782304
	H27	H	0.901372	0.664334	0.785024
	H28	H	0.216206	0.900260	0.336408
	H29	H	0.216693	0.100215	0.661553
	H30	H	0.787001	0.100122	0.335518
	H31	H	0.782624	0.901134	0.661358
	H32	H	0.335842	0.212593	0.901728
	H33	H	0.664491	0.215011	0.095719
	H34	H	0.335361	0.788062	0.093547
	H35	H	0.666086	0.787390	0.899073
	H36	H	0.337100	0.899360	0.214651
	H37	H	0.663524	0.102590	0.213976
	H38	H	0.336777	0.098960	0.783929
	H39	H	0.664316	0.898021	0.779749
	H40	H	0.903497	0.216130	0.336522
	H41	H	0.101197	0.217172	0.661910
	H42	H	0.099263	0.785595	0.336691
	H43	H	0.902505	0.788728	0.662981
	H44	H	0.212890	0.335230	0.900772
	H45	H	0.213543	0.665379	0.097374
	H46	H	0.787321	0.334907	0.097043
	H47	H	0.788312	0.665776	0.902623
	H48	H	0.411151	0.116832	0.590644
	H49	H	0.588744	0.884262	0.588770
	H50	H	0.600580	0.119263	0.409396
	H51	H	0.409586	0.883240	0.405386
	H52	H	0.593166	0.408538	0.115147
	H53	H	0.591570	0.598074	0.882811
	H54	H	0.402600	0.594630	0.116407
	H55	H	0.413323	0.415859	0.887619
	H56	H	0.115057	0.581471	0.402512
	H57	H	0.883751	0.604015	0.584900
	H58	H	0.120096	0.405631	0.590297
	H59	H	0.885587	0.411926	0.410321
	H60	H	0.117202	0.412715	0.589657
	H61	H	0.889396	0.579961	0.589683
	H62	H	0.121712	0.600258	0.399034
	H63	H	0.882727	0.409057	0.402683
	H64	H	0.409933	0.589646	0.112164
	H65	H	0.602293	0.594325	0.880164
	H66	H	0.592949	0.407082	0.114776
	H67	H	0.413156	0.395877	0.880727
	H68	H	0.594824	0.119977	0.398182
	H69	H	0.592879	0.884413	0.587404
	H70	H	0.405853	0.118514	0.592270
	H71	H	0.407985	0.882159	0.404769
	H72	H	0.906681	0.618405	0.093038
	H73	H	0.086490	0.380648	0.105500
	H74	H	0.097461	0.621182	0.901835
	H75	H	0.910371	0.382450	0.901540
	H76	H	0.099279	0.911629	0.616473
	H77	H	0.094981	0.091701	0.384059
	H78	H	0.908531	0.090238	0.614144
	H79	H	0.905315	0.901643	0.380710
	H80	H	0.617068	0.089547	0.904236
	H81	H	0.381835	0.096563	0.091442
	H82	H	0.614783	0.916880	0.090634
	H83	H	0.383344	0.909504	0.898890
	H84	H	0.620359	0.906536	0.096814
	H85	H	0.384131	0.089031	0.090662
	H86	H	0.618550	0.093363	0.905109
	H87	H	0.381990	0.901055	0.902858
	H88	H	0.909336	0.095711	0.613525
	H89	H	0.092777	0.094517	0.384093
	H90	H	0.090025	0.910935	0.613181
	H91	H	0.905060	0.912366	0.384763
	H92	H	0.085495	0.616642	0.906271
	H93	H	0.083960	0.388212	0.081582
	H94	H	0.909010	0.619232	0.096382
	H95	H	0.913435	0.385768	0.909618
	H96	H	0.410115	0.118415	0.595008
	H97	H	0.592030	0.883097	0.591003
	H98	H	0.587979	0.116552	0.407783
	H99	H	0.409437	0.882845	0.404142
	H100	H	0.594908	0.406994	0.115367
	H101	H	0.594648	0.586311	0.885568
	H102	H	0.410344	0.598480	0.114264
	H103	H	0.395291	0.407041	0.879586
	H104	H	0.115945	0.594515	0.417923
	H105	H	0.879954	0.594867	0.607479
	H106	H	0.119262	0.410335	0.596100
	H107	H	0.883146	0.405204	0.409431
	H108	H	0.910750	0.616958	0.092693
	H109	H	0.106417	0.378562	0.090166
	H110	H	0.096779	0.617159	0.914392
	H111	H	0.905028	0.382619	0.909166
	H112	H	0.094724	0.902480	0.617648
	H113	H	0.096316	0.094529	0.381535
	H114	H	0.904484	0.093916	0.615206
	H115	H	0.915192	0.906511	0.385741
	H116	H	0.616371	0.090337	0.907278
	H117	H	0.382814	0.092179	0.098119
	H118	H	0.616828	0.905656	0.083377
	H119	H	0.385051	0.908280	0.908755
	C120	C	0.379694	0.008761	0.620288
	C121	C	0.621254	0.992135	0.619060
	C122	C	0.623130	0.009831	0.375627
	C123	C	0.380272	0.991711	0.377623
	C124	C	0.622890	0.378098	0.007192
	C125	C	0.623937	0.622632	0.990543
	C126	C	0.378894	0.622220	0.006807
	C127	C	0.378595	0.378197	0.990316
	C128	C	0.009448	0.621825	0.378343
	C129	C	0.992549	0.622733	0.622194
	C130	C	0.010834	0.379560	0.621411
	C131	C	0.992322	0.379428	0.378008
	C132	C	0.879630	0.509174	0.121708
	C133	C	0.121682	0.491546	0.121286
	C134	C	0.122341	0.509533	0.877972
	C135	C	0.880499	0.492188	0.878324
	C136	C	0.123329	0.878632	0.508169
	C137	C	0.123434	0.122901	0.490650
	C138	C	0.879380	0.122649	0.506932
	C139	C	0.878654	0.878433	0.490920
	C140	C	0.508777	0.120093	0.877233
	C141	C	0.491223	0.122401	0.120765
	C142	C	0.508898	0.880165	0.118790
	C143	C	0.492394	0.877955	0.875192
	C144	C	0.380549	0.884798	0.674540
	C145	C	0.621007	0.115451	0.675921
	C146	C	0.621454	0.886093	0.319074
	C147	C	0.382032	0.115807	0.323567
	C148	C	0.679453	0.379971	0.885057
	C149	C	0.676964	0.620545	0.113719
	C150	C	0.323489	0.619005	0.884513
	C151	C	0.322969	0.381007	0.112851
	C152	C	0.885596	0.676648	0.381891
	C153	C	0.116235	0.678870	0.619414
	C154	C	0.886984	0.323708	0.619090
	C155	C	0.116216	0.324988	0.380103
	C156	C	0.887546	0.380243	0.677330
	C157	C	0.115677	0.622443	0.677908
	C158	C	0.886139	0.621181	0.322651
	C159	C	0.115144	0.380275	0.320877
	C160	C	0.382427	0.675703	0.883809
	C161	C	0.619977	0.679027	0.112820
	C162	C	0.621110	0.322192	0.884730
	C163	C	0.380623	0.323505	0.112698
	C164	C	0.677596	0.885442	0.378011
	C165	C	0.676122	0.116250	0.616741
	C166	C	0.324393	0.884563	0.616126
	C167	C	0.325325	0.115782	0.381067
	C168	C	0.880303	0.385600	0.176995
	C169	C	0.121016	0.615402	0.177536
	C170	C	0.121293	0.386049	0.821385
	C171	C	0.881794	0.615591	0.823144
	C172	C	0.178446	0.880259	0.385196
	C173	C	0.178883	0.121040	0.612916
	C174	C	0.824732	0.120231	0.384514
	C175	C	0.822004	0.881295	0.613167
	C176	C	0.385225	0.175417	0.880504
	C177	C	0.615027	0.177875	0.117197
	C178	C	0.384752	0.824848	0.115446
	C179	C	0.616554	0.823739	0.877980
	C180	C	0.385530	0.880300	0.175234
	C181	C	0.614616	0.121761	0.175792
	C182	C	0.385514	0.118759	0.822263
	C183	C	0.615699	0.879285	0.818820
	C184	C	0.882835	0.178065	0.384845
	C185	C	0.121441	0.179034	0.613075
	C186	C	0.120469	0.823016	0.385410
	C187	C	0.880948	0.824853	0.613820
	C188	C	0.176390	0.385062	0.880289
	C189	C	0.176789	0.615767	0.118451
	C190	C	0.824255	0.384846	0.118311
	C191	C	0.825583	0.616308	0.881629
	C192	C	0.402431	0.095515	0.599067
	C193	C	0.598094	0.906040	0.595739
	C194	C	0.600970	0.096130	0.398272
	C195	C	0.402530	0.905177	0.398564
	C196	C	0.600267	0.401009	0.093066
	C197	C	0.602561	0.599566	0.904995
	C198	C	0.401036	0.600604	0.092291
	C199	C	0.400844	0.399765	0.904643
	C200	C	0.095316	0.598922	0.400134
	C201	C	0.906695	0.599736	0.600255
	C202	C	0.096661	0.402791	0.598717
	C203	C	0.906077	0.402038	0.400862
	C204	C	0.902244	0.595695	0.100271
	C205	C	0.098943	0.404994	0.099123
	C206	C	0.099938	0.596025	0.900713
	C207	C	0.903081	0.405991	0.900097
	C208	C	0.101122	0.901547	0.593691
	C209	C	0.101301	0.100294	0.405200
	C210	C	0.901186	0.100064	0.592411
	C211	C	0.901809	0.900441	0.405707
	C212	C	0.595069	0.097643	0.898978
	C213	C	0.405002	0.099433	0.099591
	C214	C	0.594853	0.903071	0.096889
	C215	C	0.405832	0.899803	0.897040
	Zn216	Zn	0.500932	-0.000241	0.747827
	Zn217	Zn	0.500136	0.000718	0.248567
	Zn218	Zn	0.752434	0.500499	0.000035
	Zn219	Zn	0.249450	0.500041	-0.000769
	Zn220	Zn	0.001066	0.750154	0.500067
	Zn221	Zn	0.001863	0.252008	0.499621
	Zn222	Zn	0.001650	0.500620	0.749949
	Zn223	Zn	0.000481	0.500710	0.250047
	Zn224	Zn	0.501431	0.751035	-0.002445
	Zn225	Zn	0.500337	0.249390	-0.001583
	Zn226	Zn	0.749808	0.000680	0.498542
	Zn227	Zn	0.252216	0.000521	0.498938
	N228	N	0.414317	0.963099	0.677100
	N229	N	0.587403	0.037157	0.677307
	N230	N	0.588432	0.964467	0.317312
	N231	N	0.415509	0.037575	0.321157
	N232	N	0.680592	0.413959	0.962363
	N233	N	0.679649	0.586373	0.036592
	N234	N	0.321419	0.586213	0.962038
	N235	N	0.321519	0.414388	0.035741
	N236	N	0.963175	0.677196	0.415830
	N237	N	0.038798	0.679182	0.585258
	N238	N	0.964707	0.323311	0.585098
	N239	N	0.038713	0.324283	0.414818
	N240	N	0.965398	0.413987	0.679060
	N241	N	0.037894	0.588202	0.679726
	N242	N	0.964131	0.587695	0.320273
	N243	N	0.037129	0.413715	0.319720
	N244	N	0.416246	0.677821	0.960705
	N245	N	0.587723	0.680462	0.035160
	N246	N	0.586820	0.321091	0.961779
	N247	N	0.414478	0.321738	0.035478
	N248	N	0.678581	0.963202	0.412545
	N249	N	0.676347	0.038513	0.581938
	N250	N	0.323702	0.962711	0.583223
	N251	N	0.324170	0.037742	0.414010
	N252	N	0.914337	0.463835	0.179118
	N253	N	0.087295	0.537212	0.179261
	N254	N	0.088458	0.464516	0.819709
	N255	N	0.915114	0.537356	0.820928
	N256	N	0.180349	0.914046	0.462481
	N257	N	0.180318	0.086771	0.535830
	N258	N	0.822438	0.086717	0.461516
	N259	N	0.820063	0.913551	0.535510
	N260	N	0.462960	0.176325	0.914203
	N261	N	0.537368	0.178271	0.083664
	N262	N	0.462500	0.824404	0.081159
	N263	N	0.539007	0.822777	0.912263
	N264	N	0.463646	0.913703	0.177765
	N265	N	0.536648	0.087904	0.178272
	N266	N	0.463337	0.085137	0.820195
	N267	N	0.537370	0.912079	0.816950
	N268	N	0.916165	0.179641	0.462145
	N269	N	0.087543	0.180093	0.536108
	N270	N	0.086867	0.821982	0.462764
	N271	N	0.915778	0.823220	0.537000
	N272	N	0.177203	0.462916	0.914843
	N273	N	0.177266	0.537841	0.084191
	N274	N	0.823627	0.462775	0.084890
	N275	N	0.824660	0.538575	0.915312
	O276	O	-0.036105	0.028084	0.080187
	H277	H	-0.029224	0.034032	0.067586
	H278	H	-0.051672	0.024730	0.075761
	O279	O	0.416996	0.524638	0.438751
	H280	H	0.418359	0.532881	0.429652
	H281	H	0.424998	0.514845	0.433502
	O282	O	0.439613	0.501834	0.489741
	H283	H	0.428329	0.494262	0.480426
	H284	H	0.448492	0.505252	0.478239
	O285	O	0.071843	-0.025629	0.927990
	H286	H	0.074912	-0.029121	0.935382
	H287	H	0.078792	-0.019771	0.918504
	O288	O	0.980816	-0.057327	0.067825
	H289	H	0.974812	-0.067411	0.066045
	H290	H	0.970761	-0.045390	0.073300
	O291	O	0.929342	1.025929	0.904250
	H292	H	0.924390	1.011187	0.914407
	H293	H	0.934475	1.034660	0.910881
	O294	O	0.639790	1.333297	0.673871
	H295	H	0.635269	1.343263	0.666827
	H296	H	0.643958	1.325863	0.669321
	O297	O	0.940818	0.039852	1.057074
	H298	H	0.943720	0.037905	1.045347
	H299	H	0.950152	0.037142	1.060156
	O300	O	0.504997	0.526776	0.504421
	H301	H	0.507500	0.530789	0.513117
	H302	H	0.502654	0.517360	0.514129
	O303	O	1.616133	0.544499	-0.472064
	H304	H	1.611462	0.546631	-0.477435
	H305	H	1.610694	0.544106	-0.473198
	O306	O	-0.011072	1.089782	0.922183
	H307	H	-0.002084	1.102588	0.921647
	H308	H	-0.026721	1.090263	0.923349
	O309	O	0.553597	0.534554	0.459485
	H310	H	0.563400	0.536714	0.458950
	H311	H	0.539907	0.536750	0.458825
	O312	O	0.959684	-0.011108	0.896340
	H313	H	0.952191	-0.004085	0.900127
	H314	H	0.952344	-0.006907	0.899586
	O315	O	0.510969	0.502303	0.585617
	H316	H	0.521841	0.508339	0.584144
	H317	H	0.507600	0.501205	0.583146
	O318	O	0.053421	1.001619	1.098423
	H319	H	0.054988	0.994556	1.094080
	H320	H	0.055342	0.988865	1.101301
	O321	O	0.970772	1.058809	1.046906
	H322	H	0.972306	1.047677	1.045007
	H323	H	0.961955	1.057186	1.055414
	O324	O	0.419570	0.479673	0.518303
	H325	H	0.411234	0.479616	0.517752
	H326	H	0.409310	0.474553	0.526324
	O327	O	0.479672	0.435302	0.490720
	H328	H	0.486174	0.425045	0.495936
	H329	H	0.477971	0.440602	0.490122
	O330	O	0.948932	0.043779	1.032488
	H331	H	0.948076	0.050501	1.029033
	H332	H	0.957111	0.034646	1.040520
	O333	O	1.027350	0.979192	-0.044070
	H334	H	1.031609	0.984716	-0.043431
	H335	H	1.025471	0.974830	-0.052308
	O336	O	0.552433	0.543341	0.528182
	H337	H	0.554200	0.546049	0.543054
	H338	H	0.568684	0.536242	0.524367
	O339	O	0.576201	0.439567	0.453341
	H340	H	0.565784	0.440408	0.459572
	H341	H	0.572215	0.440012	0.459322
	O342	O	-0.003157	0.957692	0.004456
	H343	H	-0.001604	0.968918	-0.001711
	H344	H	-0.002008	0.971521	0.018200
	O345	O	-0.019440	-0.053066	0.002041
	H346	H	-0.019364	-0.058996	-0.005460
	H347	H	-0.017959	-0.063815	0.007169
	O348	O	0.510850	0.435887	0.488295
	H349	H	0.499935	0.443012	0.481681
	H350	H	0.516326	0.439078	0.489688
	O351	O	0.392379	0.505689	0.475449
	H352	H	0.391069	0.498692	0.477557
	H353	H	0.392468	0.507525	0.474349
	O354	O	0.556523	0.569594	0.524928
	H355	H	0.550095	0.568951	0.534303
	H356	H	0.564526	0.577963	0.530757
	O357	O	0.587580	0.538060	0.543314
	H358	H	0.587122	0.538177	0.548649
	H359	H	0.588525	0.542108	0.543584
	O360	O	-0.235254	-0.196887	-0.166427
	H361	H	-0.227836	-0.199352	-0.158998
	H362	H	-0.234910	-0.195471	-0.181405
	O363	O	-0.014009	0.851667	0.964107
	H364	H	-0.010638	0.844509	0.968746
	H365	H	-0.015883	0.854025	0.959975
	O366	O	-0.009204	0.070892	1.007074
	H367	H	-0.015482	0.069694	1.018105
	H368	H	-0.014609	0.072268	1.011032
	O369	O	0.516918	0.533971	0.521293
	H370	H	0.524861	0.531394	0.517609
	H371	H	0.521389	0.535656	0.512724
