data_Molecule from HDF5

_cell_length_a		16.624798
_cell_length_b		16.584658
_cell_length_c		16.557514
_cell_angle_alpha	90.017961
_cell_angle_beta	89.877504
_cell_angle_gamma	90.011007
_symmetry_space_group_name_H-M	'P 1'
_symmetry_Int_Tables_number		1

loop_
	_symmetry_equiv_pos_as_xyz
	x,y,z

loop_
	_atom_site_label
	_atom_site_type_symbol
	_atom_site_fract_x
	_atom_site_fract_y
	_atom_site_fract_z
	H0	H	0.377532	0.849448	0.706485
	H1	H	0.588062	0.161487	0.703883
	H2	H	0.586436	0.845166	0.267468
	H3	H	0.386086	0.162998	0.266707
	H4	H	0.707060	0.399466	0.827035
	H5	H	0.707864	0.611435	0.138225
	H6	H	0.264291	0.609090	0.826750
	H7	H	0.265204	0.400560	0.140897
	H8	H	0.830942	0.726719	0.377520
	H9	H	0.141123	0.727297	0.588848
	H10	H	0.826495	0.287818	0.584644
	H11	H	0.139747	0.282450	0.378316
	H12	H	0.827381	0.403792	0.702081
	H13	H	0.142352	0.609245	0.703582
	H14	H	0.830668	0.609375	0.262075
	H15	H	0.141082	0.401125	0.262617
	H16	H	0.378216	0.727008	0.827905
	H17	H	0.590821	0.725697	0.139262
	H18	H	0.590061	0.283887	0.827249
	H19	H	0.383796	0.286567	0.142646
	H20	H	0.702542	0.845692	0.383659
	H21	H	0.705830	0.161025	0.589444
	H22	H	0.260824	0.850709	0.590622
	H23	H	0.269333	0.163989	0.382807
	H24	H	0.880022	0.348849	0.204113
	H25	H	0.090871	0.659139	0.205847
	H26	H	0.087179	0.346272	0.764503
	H27	H	0.879923	0.660623	0.760302
	H28	H	0.206071	0.900903	0.326735
	H29	H	0.206687	0.111502	0.639641
	H30	H	0.766543	0.106076	0.326201
	H31	H	0.764376	0.898950	0.641422
	H32	H	0.329096	0.223729	0.881365
	H33	H	0.645096	0.220199	0.083604
	H34	H	0.328825	0.783170	0.087790
	H35	H	0.640015	0.779500	0.874890
	H36	H	0.328788	0.899789	0.204760
	H37	H	0.645664	0.101313	0.198259
	H38	H	0.329590	0.108658	0.763939
	H39	H	0.640348	0.897609	0.760440
	H40	H	0.883352	0.221591	0.325929
	H41	H	0.086876	0.223675	0.641618
	H42	H	0.091063	0.783211	0.327475
	H43	H	0.881110	0.782883	0.640307
	H44	H	0.202672	0.345484	0.880661
	H45	H	0.208206	0.658847	0.089923
	H46	H	0.763642	0.349472	0.087794
	H47	H	0.761583	0.659983	0.874776
	H48	H	0.401608	0.114114	0.570710
	H49	H	0.584394	0.890171	0.569481
	H50	H	0.577803	0.116940	0.394355
	H51	H	0.394575	0.892294	0.395277
	H52	H	0.576257	0.417048	0.095780
	H53	H	0.567834	0.592233	0.873380
	H54	H	0.395555	0.593053	0.095686
	H55	H	0.391682	0.420629	0.873011
	H56	H	0.092676	0.586987	0.403363
	H57	H	0.876188	0.594751	0.564883
	H58	H	0.096332	0.415050	0.573689
	H59	H	0.873671	0.414513	0.395184
	H60	H	0.097887	0.412261	0.575298
	H61	H	0.875952	0.586521	0.574850
	H62	H	0.097977	0.587920	0.385703
	H63	H	0.872162	0.415459	0.391541
	H64	H	0.395795	0.590440	0.094798
	H65	H	0.575833	0.593815	0.870860
	H66	H	0.574236	0.413203	0.096055
	H67	H	0.402415	0.410127	0.872553
	H68	H	0.579237	0.118369	0.390594
	H69	H	0.570896	0.890312	0.583740
	H70	H	0.393196	0.116366	0.568665
	H71	H	0.392700	0.892099	0.395001
	H72	H	0.900049	0.614754	0.070586
	H73	H	0.075793	0.391950	0.070523
	H74	H	0.074861	0.616962	0.891047
	H75	H	0.895888	0.395228	0.900270
	H76	H	0.069937	0.921517	0.592706
	H77	H	0.074553	0.095887	0.370953
	H78	H	0.891487	0.095549	0.597699
	H79	H	0.893378	0.919507	0.373026
	H80	H	0.597984	0.095659	0.896546
	H81	H	0.373818	0.100686	0.071566
	H82	H	0.599685	0.911046	0.077216
	H83	H	0.371065	0.907183	0.894222
	H84	H	0.596981	0.911689	0.069288
	H85	H	0.374667	0.090300	0.076456
	H86	H	0.596034	0.091059	0.895269
	H87	H	0.378046	0.916990	0.904751
	H88	H	0.893159	0.094052	0.596250
	H89	H	0.077130	0.094864	0.370781
	H90	H	0.069562	0.914607	0.594769
	H91	H	0.898656	0.914282	0.372462
	H92	H	0.075733	0.614926	0.895192
	H93	H	0.075466	0.391103	0.074205
	H94	H	0.896028	0.616607	0.068986
	H95	H	0.891828	0.391057	0.890812
	H96	H	0.395818	0.117761	0.576860
	H97	H	0.566251	0.897491	0.566052
	H98	H	0.575523	0.116844	0.390449
	H99	H	0.393913	0.891788	0.393734
	H100	H	0.578495	0.414091	0.097918
	H101	H	0.573611	0.585916	0.873409
	H102	H	0.398057	0.592246	0.093674
	H103	H	0.388644	0.406986	0.867501
	H104	H	0.099379	0.603102	0.396459
	H105	H	0.871435	0.598503	0.576486
	H106	H	0.097339	0.411846	0.571868
	H107	H	0.871170	0.412089	0.392965
	H108	H	0.897721	0.616767	0.073433
	H109	H	0.072488	0.392466	0.072292
	H110	H	0.078964	0.616943	0.892744
	H111	H	0.902644	0.395153	0.891348
	H112	H	0.076434	0.917900	0.594972
	H113	H	0.075477	0.093039	0.371588
	H114	H	0.894336	0.096597	0.597821
	H115	H	0.891397	0.912446	0.370010
	H116	H	0.598727	0.094072	0.891934
	H117	H	0.369575	0.098868	0.082658
	H118	H	0.595566	0.918321	0.074583
	H119	H	0.375815	0.922192	0.889625
	C120	C	0.363141	0.013500	0.605444
	C121	C	0.605636	0.996062	0.605017
	C122	C	0.607322	0.012409	0.362471
	C123	C	0.364183	0.996496	0.363509
	C124	C	0.607736	0.383005	-0.007474
	C125	C	0.605600	0.624631	0.975104
	C126	C	0.363816	0.624792	-0.008287
	C127	C	0.363763	0.381983	0.975460
	C128	C	-0.005962	0.625365	0.362215
	C129	C	0.977553	0.625982	0.604485
	C130	C	-0.006797	0.382902	0.604765
	C131	C	0.975990	0.382449	0.361468
	C132	C	0.864921	0.513324	0.103966
	C133	C	0.106620	0.495137	0.104523
	C134	C	0.107189	0.512275	0.861883
	C135	C	0.864149	0.496766	0.861437
	C136	C	0.105251	0.885170	0.491054
	C137	C	0.106420	0.126629	0.475089
	C138	C	0.862841	0.125609	0.492615
	C139	C	0.862891	0.882692	0.475507
	C140	C	0.493942	0.125271	0.863182
	C141	C	0.478097	0.125467	0.105946
	C142	C	0.493670	0.882245	0.105271
	C143	C	0.477207	0.882369	0.862387
	C144	C	0.359359	0.896533	0.666371
	C145	C	0.606834	0.114498	0.664105
	C146	C	0.605950	0.892864	0.306177
	C147	C	0.366175	0.115664	0.305994
	C148	C	0.667103	0.381025	0.874210
	C149	C	0.666924	0.628611	0.091677
	C150	C	0.303997	0.627459	0.874024
	C151	C	0.305141	0.381654	0.093905
	C152	C	0.877410	0.686253	0.359297
	C153	C	0.094760	0.686403	0.606695
	C154	C	0.874003	0.326189	0.604630
	C155	C	0.093528	0.322835	0.359726
	C156	C	0.874504	0.383797	0.662840
	C157	C	0.095210	0.627825	0.663841
	C158	C	0.877275	0.627874	0.302080
	C159	C	0.093930	0.381344	0.302233
	C160	C	0.360721	0.686154	0.874522
	C161	C	0.608586	0.685574	0.092295
	C162	C	0.608944	0.323618	0.874280
	C163	C	0.364169	0.325067	0.094776
	C164	C	0.663660	0.893085	0.364005
	C165	C	0.665396	0.114055	0.607193
	C166	C	0.301569	0.896868	0.608636
	C167	C	0.308113	0.116297	0.363571
	C168	C	0.861931	0.395794	0.164069
	C169	C	0.109396	0.612411	0.165459
	C170	C	0.106994	0.393675	0.803482
	C171	C	0.862023	0.614194	0.801020
	C172	C	0.165636	0.882865	0.373741
	C173	C	0.165979	0.128996	0.593055
	C174	C	0.805417	0.125327	0.373615
	C175	C	0.803993	0.880483	0.593930
	C176	C	0.376035	0.184093	0.862618
	C177	C	0.597680	0.181170	0.103485
	C178	C	0.375660	0.823284	0.106632
	C179	C	0.593611	0.820846	0.858274
	C180	C	0.375808	0.881044	0.164803
	C181	C	0.597955	0.122383	0.160678
	C182	C	0.376135	0.126780	0.804218
	C183	C	0.593879	0.879480	0.801088
	C184	C	0.863365	0.182818	0.373404
	C185	C	0.106546	0.185033	0.593773
	C186	C	0.108532	0.824424	0.373801
	C187	C	0.862030	0.822902	0.593411
	C188	C	0.164419	0.393441	0.861472
	C189	C	0.167512	0.612082	0.107867
	C190	C	0.804183	0.396203	0.106263
	C191	C	0.803355	0.613881	0.858199
	C192	C	0.389346	0.094894	0.579553
	C193	C	0.580937	0.914073	0.580268
	C194	C	0.584249	0.095784	0.385239
	C195	C	0.387007	0.913545	0.387667
	C196	C	0.583291	0.407603	0.075030
	C197	C	0.579701	0.598203	0.893739
	C198	C	0.389281	0.599259	0.073404
	C199	C	0.387609	0.405805	0.892557
	C200	C	0.075603	0.600034	0.387855
	C201	C	0.895851	0.600674	0.579323
	C202	C	0.075768	0.406472	0.580448
	C203	C	0.893643	0.406914	0.386143
	C204	C	0.890780	0.594873	0.078401
	C205	C	0.081680	0.413185	0.079302
	C206	C	0.083177	0.594962	0.886046
	C207	C	0.889721	0.415054	0.886786
	C208	C	0.079290	0.910724	0.573011
	C209	C	0.082501	0.101769	0.392672
	C210	C	0.886336	0.102149	0.575616
	C211	C	0.887606	0.908102	0.393217
	C212	C	0.576092	0.100547	0.887433
	C213	C	0.394589	0.103112	0.083523
	C214	C	0.575929	0.906566	0.080536
	C215	C	0.395986	0.908336	0.888588
	Zn216	Zn	0.484830	0.004241	0.733753
	Zn217	Zn	0.485623	0.003507	0.234484
	Zn218	Zn	0.735702	0.505197	-0.017255
	Zn219	Zn	0.235850	0.503263	-0.016783
	Zn220	Zn	-0.014371	0.754975	0.483428
	Zn221	Zn	-0.015985	0.254409	0.483623
	Zn222	Zn	-0.014088	0.504457	0.733100
	Zn223	Zn	-0.014748	0.504249	0.233222
	Zn224	Zn	0.484972	0.753136	-0.016722
	Zn225	Zn	0.486017	0.254313	-0.015609
	Zn226	Zn	0.734808	0.004199	0.484578
	Zn227	Zn	0.234938	0.005445	0.483859
	N228	N	0.396992	0.970159	0.664542
	N229	N	0.570474	0.040195	0.663080
	N230	N	0.571760	0.968287	0.304997
	N231	N	0.399869	0.039952	0.305309
	N232	N	0.666576	0.417148	0.948771
	N233	N	0.665315	0.591607	0.017622
	N234	N	0.305659	0.590054	0.947935
	N235	N	0.304922	0.416243	0.018618
	N236	N	0.951073	0.684882	0.396202
	N237	N	0.020528	0.685418	0.570463
	N238	N	0.948783	0.325338	0.569380
	N239	N	0.018863	0.323060	0.395505
	N240	N	0.949678	0.418022	0.663156
	N241	N	0.021280	0.591121	0.662781
	N242	N	0.950898	0.590789	0.303787
	N243	N	0.019774	0.417438	0.303222
	N244	N	0.397087	0.684867	0.948862
	N245	N	0.571305	0.683359	0.018567
	N246	N	0.572848	0.324457	0.948953
	N247	N	0.399882	0.324922	0.019969
	N248	N	0.664871	0.968518	0.397926
	N249	N	0.664944	0.039329	0.571297
	N250	N	0.303884	0.970731	0.571564
	N251	N	0.306459	0.041084	0.398332
	N252	N	0.898817	0.469840	0.162930
	N253	N	0.072233	0.538621	0.163521
	N254	N	0.072185	0.468746	0.803334
	N255	N	0.899318	0.540385	0.803061
	N256	N	0.163682	0.920017	0.447772
	N257	N	0.166299	0.093559	0.518162
	N258	N	0.804712	0.090665	0.448840
	N259	N	0.804299	0.916786	0.519368
	N260	N	0.450438	0.183495	0.898337
	N261	N	0.521853	0.183629	0.070659
	N262	N	0.450094	0.823766	0.070523
	N263	N	0.520035	0.822757	0.895834
	N264	N	0.450227	0.916921	0.164229
	N265	N	0.522365	0.088813	0.162590
	N266	N	0.450616	0.091168	0.804159
	N267	N	0.520335	0.916917	0.803341
	N268	N	0.898204	0.183278	0.448472
	N269	N	0.070419	0.183917	0.519258
	N270	N	0.071495	0.825893	0.447904
	N271	N	0.897701	0.823825	0.518607
	N272	N	0.164896	0.468394	0.896735
	N273	N	0.165995	0.538142	0.070721
	N274	N	0.805803	0.470378	0.069687
	N275	N	0.804525	0.539755	0.894914
	O276	O	0.217084	1.033882	-0.049181
	H277	H	0.226960	1.029810	-0.068315
	H278	H	0.213167	1.052329	-0.046239
	O279	O	0.565863	0.484485	-0.563826
	H280	H	0.565975	0.490938	-0.557261
	H281	H	0.567279	0.487843	-0.558515
	O282	O	1.197637	-0.207395	0.952684
	H283	H	1.192391	-0.202498	0.968365
	H284	H	1.212821	-0.220663	0.958513
	O285	O	0.481176	0.715905	0.449299
	H286	H	0.476845	0.715090	0.432862
	H287	H	0.470486	0.700767	0.448930
	O288	O	-0.115468	1.160494	0.821343
	H289	H	-0.115381	1.132825	0.810621
	H290	H	-0.134638	1.173850	0.804292
	O291	O	0.386153	0.552827	0.455998
	H292	H	0.383601	0.558601	0.448138
	H293	H	0.380410	0.549371	0.462911
	O294	O	0.303410	-0.471893	1.549135
	H295	H	0.312512	-0.464184	1.563042
	H296	H	0.299572	-0.472514	1.570076
	O297	O	-0.091805	1.058195	1.184607
	H298	H	-0.074060	1.045902	1.173351
	H299	H	-0.108304	1.032752	1.189660
	O300	O	0.175232	0.190214	0.797065
	H301	H	0.145623	0.180131	0.812201
	H302	H	0.165156	0.162676	0.814924
	O303	O	0.797872	-0.174437	0.171060
	H304	H	0.767912	-0.195599	0.199925
	H305	H	0.825563	-0.190789	0.162467
	O306	O	1.133960	0.891147	1.032371
	H307	H	1.128251	0.889853	1.016034
	H308	H	1.135922	0.910104	1.040686
	O309	O	0.205374	0.125504	0.203554
	H310	H	0.221766	0.152725	0.221084
	H311	H	0.198894	0.141672	0.209525
	O312	O	0.305456	0.547195	0.396710
	H313	H	0.299492	0.546922	0.402049
	H314	H	0.292971	0.555703	0.403390
	O315	O	1.498531	0.718583	1.276508
	H316	H	1.463082	0.706289	1.272174
	H317	H	1.489817	0.734768	1.263279
	O318	O	0.054353	0.120452	1.159373
	H319	H	0.042196	0.108234	1.166403
	H320	H	0.052096	0.134583	1.157116
	O321	O	0.198809	0.215550	0.108044
	H322	H	0.216162	0.239029	0.135106
	H323	H	0.177818	0.226637	0.107123
	O324	O	1.036386	1.018732	-0.088196
	H325	H	1.027367	1.021570	-0.080964
	H326	H	1.030521	1.026712	-0.103730
	O327	O	-0.229944	0.038021	0.769072
	H328	H	-0.228749	0.046115	0.763980
	H329	H	-0.242289	0.029757	0.767354
	O330	O	1.176589	0.809361	1.170805
	H331	H	1.160006	0.830342	1.152895
	H332	H	1.156943	0.821793	1.149131
	O333	O	0.009373	-0.226721	-0.006057
	H334	H	-0.008721	-0.228201	-0.010678
	H335	H	0.011612	-0.227526	-0.008726
	O336	O	0.705877	-0.269492	0.264554
	H337	H	0.703556	-0.275026	0.277721
	H338	H	0.680585	-0.289613	0.287282
	O339	O	1.702647	-0.282376	0.516168
	H340	H	1.686728	-0.282740	0.496392
	H341	H	1.727006	-0.273795	0.510255
	O342	O	0.343298	0.491869	-0.715795
	H343	H	0.335925	0.479661	-0.720904
	H344	H	0.341339	0.474433	-0.707047
	O345	O	-0.220990	1.139047	0.977221
	H346	H	-0.220824	1.147975	0.969829
	H347	H	-0.224309	1.148466	0.969822
	O348	O	0.324266	0.727663	0.497773
	H349	H	0.316950	0.722579	0.473831
	H350	H	0.314852	0.738390	0.480905
	O351	O	0.828516	0.847837	-0.137859
	H352	H	0.818852	0.862717	-0.119967
	H353	H	0.817557	0.839452	-0.131894
	O354	O	0.023526	0.077355	0.764225
	H355	H	0.027879	0.085803	0.751364
	H356	H	0.019923	0.057860	0.769258
	O357	O	0.001638	1.174676	0.997497
	H358	H	0.012443	1.178705	1.007702
	H359	H	0.003165	1.167053	0.995304
	O360	O	0.880092	-0.055560	0.798101
	H361	H	0.859599	-0.045826	0.794329
	H362	H	0.881072	-0.049995	0.804352
	O363	O	-0.772983	-0.237125	-0.258194
	H364	H	-0.776039	-0.238240	-0.218001
	H365	H	-0.786352	-0.239625	-0.272673
	O366	O	0.263114	0.287789	0.516801
	H367	H	0.266837	0.282656	0.546166
	H368	H	0.246585	0.264727	0.532869
	O369	O	1.277883	-0.287177	0.281294
	H370	H	1.269928	-0.304776	0.278416
	H371	H	1.256159	-0.275202	0.254434
	O372	O	1.518056	1.443562	0.631972
	H373	H	1.511286	1.455492	0.639223
	H374	H	1.506742	1.451489	0.639074
	O375	O	0.830329	0.179952	-0.124500
	H376	H	0.825384	0.190618	-0.131522
	H377	H	0.831880	0.179278	-0.133509
	O378	O	-0.014838	-0.141239	0.878827
	H379	H	-0.032168	-0.157202	0.865253
	H380	H	-0.029001	-0.138932	0.889833
	O381	O	-0.182588	0.958630	1.105565
	H382	H	-0.197035	0.961151	1.116446
	H383	H	-0.184903	0.919473	1.111221
	O384	O	1.022499	-0.015709	0.874586
	H385	H	1.034170	-0.010973	0.861250
	H386	H	1.022274	-0.018263	0.882948
	O387	O	1.655956	0.530849	0.424647
	H388	H	1.657735	0.507996	0.432073
	H389	H	1.646523	0.547601	0.441462
	O390	O	0.616368	0.553553	0.539983
	H391	H	0.620521	0.547588	0.535254
	H392	H	0.601889	0.557785	0.548175
	O393	O	0.144125	0.996666	0.784313
	H394	H	0.172972	0.993933	0.766215
	H395	H	0.135544	0.976679	0.791316
	O396	O	0.653420	1.505894	1.267806
	H397	H	0.654539	1.504315	1.261919
	H398	H	0.655460	1.501606	1.261796
	O399	O	-0.304188	0.292544	0.272396
	H400	H	-0.303866	0.323374	0.282868
	H401	H	-0.269234	0.262915	0.239953
	O402	O	0.546441	0.404580	0.378169
	H403	H	0.545826	0.398069	0.379446
	H404	H	0.565337	0.399702	0.382650
	O405	O	1.149141	0.199050	0.973673
	H406	H	1.142369	0.196271	0.989603
	H407	H	1.158416	0.214520	0.990533
	O408	O	0.077947	-0.203052	-0.223936
	H409	H	0.073025	-0.194071	-0.226707
	H410	H	0.053463	-0.204216	-0.221104
	O411	O	1.012468	1.124321	1.008171
	H412	H	1.028196	1.125708	1.006608
	H413	H	0.997464	1.118391	0.988614
	O414	O	1.162872	-0.007902	0.170375
	H415	H	1.156280	0.023026	0.150827
	H416	H	1.187953	0.006030	0.197296
	O417	O	0.512334	0.718568	0.703038
	H418	H	0.507553	0.735142	0.684949
	H419	H	0.528489	0.738544	0.719965
	O420	O	0.615477	0.389905	0.686756
	H421	H	0.602650	0.408142	0.685220
	H422	H	0.602188	0.406235	0.677481
	O423	O	0.263533	-0.529042	1.703418
	H424	H	0.243520	-0.545901	1.724880
	H425	H	0.258242	-0.562873	1.704064
	O426	O	0.767821	-0.217664	0.005054
	H427	H	0.753332	-0.224019	0.033956
	H428	H	0.744821	-0.216361	0.004654
	O429	O	0.784361	0.934056	0.921712
	H430	H	0.777097	0.933435	0.932199
	H431	H	0.796822	0.942303	0.934558
	O432	O	0.469298	0.301349	0.488507
	H433	H	0.455539	0.304890	0.498453
	H434	H	0.456689	0.316761	0.480453
	O435	O	0.496867	0.292620	0.483142
	H436	H	0.512515	0.286740	0.452936
	H437	H	0.488354	0.297527	0.489119
	O438	O	-0.062068	0.216197	0.149865
	H439	H	-0.057528	0.213990	0.161683
	H440	H	-0.049654	0.209085	0.137307
	O441	O	0.642516	0.391457	0.453841
	H442	H	0.653017	0.369898	0.450301
	H443	H	0.645132	0.393666	0.425759
	O444	O	0.681869	0.425595	0.574103
	H445	H	0.674378	0.432674	0.568950
	H446	H	0.661275	0.422732	0.559426
	O447	O	-0.034269	0.834962	1.201794
	H448	H	-0.009328	0.837571	1.201001
	H449	H	-0.014024	0.829270	1.206424
	O450	O	-0.473407	1.277829	1.257000
	H451	H	-0.437684	1.277114	1.258001
	H452	H	-0.469123	1.248716	1.236388
	O453	O	0.258054	0.441579	0.427982
	H454	H	0.260908	0.454891	0.448927
	H455	H	0.248605	0.419871	0.454139
	O456	O	-0.206775	0.148624	1.174598
	H457	H	-0.199434	0.132890	1.160261
	H458	H	-0.178721	0.145257	1.160889
	O459	O	0.974532	0.937494	0.192036
	H460	H	0.967795	0.929697	0.209505
	H461	H	0.978847	0.946192	0.179690
	O462	O	1.272206	0.293258	0.693367
	H463	H	1.321664	0.284368	0.695797
	H464	H	1.243083	0.258880	0.727146
	O465	O	0.844099	0.211718	-0.121757
	H466	H	0.838273	0.228827	-0.144587
	H467	H	0.816349	0.210101	-0.132179
	O468	O	0.441594	0.290589	0.700354
	H469	H	0.458359	0.291892	0.705753
	H470	H	0.460281	0.286108	0.706683
	O471	O	0.553387	0.625099	0.314490
	H472	H	0.538449	0.621937	0.312491
	H473	H	0.524505	0.608386	0.310796
	O474	O	0.342766	0.638068	0.674604
	H475	H	0.337599	0.636493	0.667153
	H476	H	0.338630	0.647340	0.674379
	O477	O	0.449325	0.553877	1.299142
	H478	H	0.442325	0.541264	1.295027
	H479	H	0.459039	0.542430	1.289862
	O480	O	0.685482	0.702597	0.689444
	H481	H	0.667101	0.698314	0.697733
	H482	H	0.692756	0.711982	0.640486
	O483	O	0.291417	0.321294	0.300178
	H484	H	0.323853	0.326852	0.318087
	H485	H	0.290425	0.352090	0.322413
	O486	O	0.509619	0.524163	0.621923
	H487	H	0.495191	0.544742	0.621591
	H488	H	0.515530	0.539491	0.619261
	O489	O	0.692310	1.536728	-0.313322
	H490	H	0.697320	1.543014	-0.308646
	H491	H	0.691958	1.555276	-0.309680
