data_Molecule from HDF5

_cell_length_a		16.449574
_cell_length_b		16.202410
_cell_length_c		16.218945
_cell_angle_alpha	89.945626
_cell_angle_beta	89.940656
_cell_angle_gamma	89.964718
_symmetry_space_group_name_H-M	'P 1'
_symmetry_Int_Tables_number		1

loop_
	_symmetry_equiv_pos_as_xyz
	x,y,z

loop_
	_atom_site_label
	_atom_site_type_symbol
	_atom_site_fract_x
	_atom_site_fract_y
	_atom_site_fract_z
	H0	H	0.401625	0.836824	0.719200
	H1	H	0.595825	0.166212	0.718410
	H2	H	0.596537	0.836348	0.291463
	H3	H	0.402732	0.166325	0.293570
	H4	H	0.714349	0.399758	0.841585
	H5	H	0.715140	0.602864	0.168230
	H6	H	0.282461	0.601208	0.842181
	H7	H	0.282716	0.400716	0.168922
	H8	H	0.837571	0.717696	0.405210
	H9	H	0.161738	0.715309	0.602534
	H10	H	0.836617	0.286012	0.604350
	H11	H	0.161820	0.286828	0.407322
	H12	H	0.837119	0.401723	0.721579
	H13	H	0.161276	0.600153	0.720773
	H14	H	0.837092	0.602387	0.287648
	H15	H	0.161333	0.403126	0.289509
	H16	H	0.401330	0.714210	0.840383
	H17	H	0.594517	0.714152	0.170697
	H18	H	0.595081	0.288664	0.840796
	H19	H	0.401603	0.288442	0.170787
	H20	H	0.715464	0.837553	0.404330
	H21	H	0.715365	0.164308	0.606507
	H22	H	0.282624	0.838152	0.607059
	H23	H	0.282263	0.164401	0.404601
	H24	H	0.901067	0.335738	0.219564
	H25	H	0.093771	0.666509	0.217115
	H26	H	0.094087	0.336067	0.794040
	H27	H	0.900711	0.666147	0.791329
	H28	H	0.214743	0.900335	0.342465
	H29	H	0.213850	0.101092	0.668670
	H30	H	0.784119	0.100791	0.341855
	H31	H	0.782450	0.899355	0.669019
	H32	H	0.336993	0.216630	0.907194
	H33	H	0.661134	0.216118	0.103984
	H34	H	0.335814	0.786611	0.104070
	H35	H	0.659849	0.783948	0.906625
	H36	H	0.336234	0.902648	0.221620
	H37	H	0.660261	0.100925	0.221944
	H38	H	0.337241	0.100669	0.789747
	H39	H	0.661045	0.901606	0.789845
	H40	H	0.901982	0.214175	0.340747
	H41	H	0.095586	0.214229	0.670145
	H42	H	0.095220	0.789470	0.340098
	H43	H	0.901531	0.786935	0.670101
	H44	H	0.214668	0.337399	0.904583
	H45	H	0.214581	0.664813	0.106988
	H46	H	0.782256	0.336762	0.106266
	H47	H	0.781980	0.664519	0.904276
	H48	H	0.408817	0.118634	0.601210
	H49	H	0.587367	0.887094	0.594137
	H50	H	0.593717	0.117980	0.413921
	H51	H	0.411679	0.885992	0.413642
	H52	H	0.599893	0.406957	0.125355
	H53	H	0.584332	0.583676	0.893611
	H54	H	0.401058	0.594839	0.123553
	H55	H	0.400211	0.415579	0.888710
	H56	H	0.113463	0.598088	0.417435
	H57	H	0.882370	0.600367	0.597935
	H58	H	0.114803	0.405871	0.600640
	H59	H	0.884474	0.408047	0.415299
	H60	H	0.113984	0.407315	0.597285
	H61	H	0.887506	0.591499	0.591355
	H62	H	0.112482	0.586949	0.410702
	H63	H	0.884191	0.410633	0.410852
	H64	H	0.405471	0.589342	0.121793
	H65	H	0.586206	0.602700	0.887656
	H66	H	0.589254	0.418573	0.118647
	H67	H	0.411905	0.408316	0.890352
	H68	H	0.591793	0.117692	0.413547
	H69	H	0.596087	0.884044	0.593757
	H70	H	0.406951	0.116310	0.592478
	H71	H	0.401222	0.884278	0.419533
	H72	H	0.909040	0.616918	0.098892
	H73	H	0.090138	0.385497	0.095072
	H74	H	0.097672	0.617555	0.921585
	H75	H	0.910841	0.389202	0.923249
	H76	H	0.087292	0.912868	0.619701
	H77	H	0.098374	0.090969	0.387291
	H78	H	0.904151	0.092683	0.623010
	H79	H	0.907232	0.903029	0.387593
	H80	H	0.617783	0.102020	0.908241
	H81	H	0.383386	0.094764	0.098924
	H82	H	0.610835	0.912049	0.095153
	H83	H	0.384998	0.915784	0.908134
	H84	H	0.614285	0.909200	0.103620
	H85	H	0.383376	0.094832	0.100692
	H86	H	0.610803	0.094902	0.921941
	H87	H	0.380466	0.902916	0.907741
	H88	H	0.905718	0.092980	0.622054
	H89	H	0.088290	0.089339	0.390547
	H90	H	0.090411	0.901992	0.623935
	H91	H	0.898948	0.912609	0.388250
	H92	H	0.095596	0.621284	0.905506
	H93	H	0.094499	0.384474	0.095168
	H94	H	0.905414	0.615373	0.090878
	H95	H	0.893745	0.381555	0.915406
	H96	H	0.400535	0.119880	0.597732
	H97	H	0.591289	0.883425	0.601881
	H98	H	0.592670	0.117013	0.415279
	H99	H	0.401913	0.881165	0.407558
	H100	H	0.583901	0.402891	0.122243
	H101	H	0.601577	0.590444	0.887183
	H102	H	0.407190	0.595810	0.121976
	H103	H	0.400482	0.402300	0.885531
	H104	H	0.117102	0.598270	0.404403
	H105	H	0.883833	0.589034	0.603045
	H106	H	0.114005	0.408988	0.600443
	H107	H	0.883409	0.405629	0.411212
	H108	H	0.900704	0.618824	0.097526
	H109	H	0.091704	0.384166	0.099648
	H110	H	0.083047	0.614964	0.914197
	H111	H	0.910047	0.383606	0.904033
	H112	H	0.098628	0.910823	0.623734
	H113	H	0.091721	0.099498	0.386635
	H114	H	0.904913	0.094062	0.623047
	H115	H	0.910822	0.914350	0.391857
	H116	H	0.613473	0.086093	0.907870
	H117	H	0.382738	0.096019	0.100184
	H118	H	0.614220	0.903432	0.096038
	H119	H	0.385810	0.907641	0.919117
	C120	C	0.377369	0.009851	0.626722
	C121	C	0.620295	0.993248	0.626404
	C122	C	0.621099	0.009377	0.384269
	C123	C	0.377289	0.992572	0.384973
	C124	C	0.619598	0.380536	0.013647
	C125	C	0.619273	0.622009	0.997580
	C126	C	0.376413	0.622513	0.014120
	C127	C	0.376558	0.379826	0.997180
	C128	C	0.007366	0.623619	0.382180
	C129	C	0.991310	0.622598	0.626441
	C130	C	0.007183	0.378517	0.628102
	C131	C	0.991032	0.379506	0.383512
	C132	C	0.876571	0.508818	0.126206
	C133	C	0.120029	0.493145	0.126180
	C134	C	0.120169	0.509522	0.884647
	C135	C	0.876486	0.492879	0.884240
	C136	C	0.120287	0.879776	0.513944
	C137	C	0.120132	0.122119	0.496929
	C138	C	0.876926	0.122307	0.513953
	C139	C	0.877503	0.880044	0.497544
	C140	C	0.507133	0.123235	0.883848
	C141	C	0.490433	0.123869	0.128114
	C142	C	0.506127	0.879651	0.127281
	C143	C	0.490435	0.879144	0.883049
	C144	C	0.380541	0.886106	0.681814
	C145	C	0.617003	0.116954	0.681093
	C146	C	0.617410	0.885700	0.329003
	C147	C	0.381130	0.116985	0.330689
	C148	C	0.675570	0.380855	0.890479
	C149	C	0.676033	0.621972	0.119839
	C150	C	0.321094	0.621066	0.890686
	C151	C	0.321444	0.381485	0.120496
	C152	C	0.885593	0.679457	0.384757
	C153	C	0.113365	0.677626	0.623858
	C154	C	0.885149	0.323625	0.624995
	C155	C	0.113209	0.324429	0.385987
	C156	C	0.885339	0.381080	0.683375
	C157	C	0.113060	0.620212	0.682301
	C158	C	0.885390	0.621990	0.326312
	C159	C	0.113233	0.382592	0.328085
	C160	C	0.379906	0.677290	0.890025
	C161	C	0.615902	0.676947	0.121251
	C162	C	0.616538	0.325556	0.890050
	C163	C	0.380201	0.325349	0.121187
	C164	C	0.676551	0.886257	0.385038
	C165	C	0.676459	0.115875	0.625719
	C166	C	0.321399	0.886844	0.626043
	C167	C	0.321554	0.116048	0.385959
	C168	C	0.879735	0.385021	0.182022
	C169	C	0.115496	0.617189	0.180268
	C170	C	0.116046	0.385298	0.830725
	C171	C	0.879639	0.616751	0.828736
	C172	C	0.175854	0.881027	0.390917
	C173	C	0.175182	0.120626	0.620281
	C174	C	0.821944	0.120569	0.390847
	C175	C	0.821471	0.880293	0.620402
	C176	C	0.385332	0.178520	0.886332
	C177	C	0.612571	0.178668	0.124987
	C178	C	0.384065	0.824573	0.124808
	C179	C	0.611933	0.822564	0.885518
	C180	C	0.384287	0.882278	0.183090
	C181	C	0.612175	0.121386	0.183521
	C182	C	0.385390	0.120951	0.828184
	C183	C	0.612480	0.880870	0.827578
	C184	C	0.880734	0.176692	0.390210
	C185	C	0.116317	0.176675	0.620917
	C186	C	0.116691	0.825772	0.389828
	C187	C	0.880732	0.824527	0.620944
	C188	C	0.175870	0.386223	0.885763
	C189	C	0.175436	0.616302	0.125424
	C190	C	0.820665	0.385549	0.125868
	C191	C	0.820853	0.616138	0.885022
	C192	C	0.399025	0.096073	0.603866
	C193	C	0.597985	0.906935	0.603347
	C194	C	0.599229	0.095336	0.407395
	C195	C	0.398661	0.906224	0.406984
	C196	C	0.597504	0.403100	0.099771
	C197	C	0.597112	0.598958	0.911572
	C198	C	0.398092	0.599865	0.100131
	C199	C	0.397991	0.402024	0.910674
	C200	C	0.092253	0.601017	0.404407
	C201	C	0.906601	0.600197	0.603960
	C202	C	0.092165	0.400845	0.606058
	C203	C	0.906139	0.401528	0.405850
	C204	C	0.898648	0.594789	0.102925
	C205	C	0.098361	0.406790	0.103379
	C206	C	0.098428	0.595864	0.907242
	C207	C	0.898494	0.406908	0.907372
	C208	C	0.098434	0.901936	0.600224
	C209	C	0.099027	0.099748	0.410496
	C210	C	0.898502	0.099775	0.600482
	C211	C	0.899310	0.903141	0.411462
	C212	C	0.592165	0.100800	0.906128
	C213	C	0.405193	0.101658	0.106318
	C214	C	0.590872	0.901592	0.104711
	C215	C	0.405591	0.901938	0.905242
	Zn216	Zn	0.499178	0.001622	0.754072
	Zn217	Zn	0.498639	0.001218	0.256764
	Zn218	Zn	0.747924	0.500550	0.005219
	Zn219	Zn	0.248701	0.501166	0.005607
	Zn220	Zn	-0.000647	0.752339	0.505186
	Zn221	Zn	-0.000776	0.250104	0.505280
	Zn222	Zn	-0.001191	0.501596	0.756528
	Zn223	Zn	-0.001576	0.501223	0.253788
	Zn224	Zn	0.497728	0.750145	0.005670
	Zn225	Zn	0.498722	0.252560	0.005688
	Zn226	Zn	0.749144	0.000786	0.505938
	Zn227	Zn	0.248494	0.001215	0.505659
	N228	N	0.414620	0.963496	0.682241
	N229	N	0.582968	0.039476	0.681585
	N230	N	0.583379	0.963228	0.328579
	N231	N	0.414994	0.039290	0.329825
	N232	N	0.677596	0.414212	0.968495
	N233	N	0.678335	0.588507	0.041860
	N234	N	0.318729	0.587869	0.968721
	N235	N	0.319200	0.414742	0.042513
	N236	N	0.962246	0.680826	0.418681
	N237	N	0.036792	0.679287	0.589957
	N238	N	0.961995	0.321890	0.591265
	N239	N	0.036519	0.322559	0.419771
	N240	N	0.962090	0.414629	0.685526
	N241	N	0.036037	0.586715	0.684183
	N242	N	0.962015	0.587924	0.324669
	N243	N	0.036201	0.416080	0.326311
	N244	N	0.413558	0.678313	0.967657
	N245	N	0.581325	0.677004	0.044164
	N246	N	0.582200	0.325390	0.967496
	N247	N	0.413719	0.324165	0.043377
	N248	N	0.679006	0.964174	0.418559
	N249	N	0.678495	0.037789	0.592407
	N250	N	0.319577	0.964714	0.592134
	N251	N	0.319007	0.037773	0.418947
	N252	N	0.913793	0.462536	0.182350
	N253	N	0.081663	0.539587	0.180567
	N254	N	0.082177	0.462833	0.829892
	N255	N	0.913629	0.539165	0.828258
	N256	N	0.178341	0.913861	0.469118
	N257	N	0.177413	0.087328	0.542331
	N258	N	0.819592	0.087397	0.469152
	N259	N	0.819265	0.913912	0.542582
	N260	N	0.461932	0.179998	0.920246
	N261	N	0.535836	0.180141	0.091106
	N262	N	0.460713	0.822932	0.090784
	N263	N	0.535250	0.821454	0.919339
	N264	N	0.461166	0.915538	0.185001
	N265	N	0.535321	0.087954	0.185527
	N266	N	0.462208	0.087253	0.826544
	N267	N	0.535969	0.915334	0.826033
	N268	N	0.914075	0.177994	0.467806
	N269	N	0.082921	0.177623	0.543184
	N270	N	0.082677	0.825068	0.467286
	N271	N	0.914904	0.824329	0.543395
	N272	N	0.178544	0.464697	0.918563
	N273	N	0.178321	0.538046	0.092473
	N274	N	0.818528	0.463556	0.092058
	N275	N	0.818641	0.538155	0.918543
	O276	O	0.608237	0.484443	0.455494
	H277	H	0.623452	0.491905	0.461251
	H278	H	0.602662	0.483642	0.463664
	O279	O	-0.038841	-0.010964	0.019503
	H280	H	-0.035089	-0.001669	0.014983
	H281	H	-0.043050	-0.014132	0.018041
	O282	O	0.663231	0.539809	0.487859
	H283	H	0.668613	0.536277	0.484979
	H284	H	0.660404	0.519449	0.492976
	O285	O	0.547696	0.537230	0.467260
	H286	H	0.556041	0.533867	0.471050
	H287	H	0.555993	0.532647	0.454404
	O288	O	1.575947	0.531323	-0.444775
	H289	H	1.574350	0.542449	-0.441732
	H290	H	1.570199	0.536403	-0.449222
	O291	O	-0.413657	0.537560	-0.503857
	H292	H	-0.407330	0.548869	-0.508282
	H293	H	-0.420245	0.541894	-0.504579
	O294	O	0.514470	0.635082	0.499719
	H295	H	0.509807	0.633567	0.488377
	H296	H	0.521308	0.638874	0.487974
	O297	O	-0.034188	0.977679	0.029696
	H298	H	-0.031775	0.975067	0.029608
	H299	H	-0.034840	0.978203	0.025933
	O300	O	0.964436	-0.078315	1.062216
	H301	H	0.962183	-0.086604	1.062564
	H302	H	0.966147	-0.076248	1.059837
	O303	O	0.600547	0.548239	0.417200
	H304	H	0.595448	0.548428	0.416781
	H305	H	0.607701	0.541591	0.428804
	O306	O	-0.040762	0.976835	1.077835
	H307	H	-0.051208	0.972139	1.085533
	H308	H	-0.040935	0.976609	1.083254
	O309	O	0.620120	0.513886	0.563117
	H310	H	0.618785	0.516938	0.569832
	H311	H	0.616839	0.517116	0.565397
