data_Molecule from HDF5

_cell_length_a		16.139804
_cell_length_b		16.504604
_cell_length_c		16.296105
_cell_angle_alpha	90.001565
_cell_angle_beta	90.116932
_cell_angle_gamma	90.264871
_symmetry_space_group_name_H-M	'P 1'
_symmetry_Int_Tables_number		1

loop_
	_symmetry_equiv_pos_as_xyz
	x,y,z

loop_
	_atom_site_label
	_atom_site_type_symbol
	_atom_site_fract_x
	_atom_site_fract_y
	_atom_site_fract_z
	H0	H	0.389687	0.844546	0.710172
	H1	H	0.594795	0.165539	0.709475
	H2	H	0.592566	0.844088	0.271652
	H3	H	0.389664	0.164787	0.273708
	H4	H	0.702847	0.410639	0.827704
	H5	H	0.709311	0.604524	0.155496
	H6	H	0.275979	0.603597	0.829222
	H7	H	0.277706	0.405338	0.154668
	H8	H	0.828763	0.720208	0.386529
	H9	H	0.154645	0.721063	0.594853
	H10	H	0.829242	0.283592	0.594082
	H11	H	0.153914	0.287390	0.390011
	H12	H	0.826850	0.402753	0.706122
	H13	H	0.155476	0.602516	0.706600
	H14	H	0.827725	0.601321	0.276238
	H15	H	0.153927	0.402289	0.277032
	H16	H	0.387738	0.724582	0.831504
	H17	H	0.596426	0.723857	0.154557
	H18	H	0.598564	0.285738	0.832261
	H19	H	0.387239	0.284412	0.151600
	H20	H	0.704638	0.841635	0.393589
	H21	H	0.710999	0.164891	0.590825
	H22	H	0.275511	0.842727	0.591646
	H23	H	0.275771	0.164781	0.393822
	H24	H	0.886123	0.342954	0.209830
	H25	H	0.098037	0.660723	0.215437
	H26	H	0.093782	0.342973	0.773083
	H27	H	0.886786	0.662092	0.769600
	H28	H	0.206983	0.904650	0.327911
	H29	H	0.207808	0.102522	0.653531
	H30	H	0.775946	0.101213	0.328255
	H31	H	0.776495	0.903744	0.653828
	H32	H	0.330074	0.224284	0.886323
	H33	H	0.654567	0.223830	0.094994
	H34	H	0.330946	0.782755	0.100390
	H35	H	0.655070	0.787746	0.889988
	H36	H	0.328385	0.904854	0.206644
	H37	H	0.654301	0.108221	0.209335
	H38	H	0.328375	0.104505	0.775509
	H39	H	0.656892	0.906482	0.777174
	H40	H	0.884852	0.223026	0.330352
	H41	H	0.096874	0.222936	0.651380
	H42	H	0.097103	0.782158	0.330704
	H43	H	0.884639	0.780696	0.650670
	H44	H	0.210120	0.343656	0.890276
	H45	H	0.212335	0.662543	0.095765
	H46	H	0.773548	0.342295	0.089785
	H47	H	0.775437	0.665263	0.891610
	H48	H	0.398798	0.120070	0.587254
	H49	H	0.578057	0.890776	0.590811
	H50	H	0.579919	0.117983	0.396244
	H51	H	0.393655	0.887329	0.398948
	H52	H	0.587641	0.409988	0.110126
	H53	H	0.576741	0.599320	0.879003
	H54	H	0.400647	0.599090	0.108776
	H55	H	0.405881	0.410789	0.877039
	H56	H	0.109331	0.597249	0.399889
	H57	H	0.876445	0.596122	0.571968
	H58	H	0.110259	0.416896	0.595537
	H59	H	0.877819	0.413496	0.409523
	H60	H	0.111540	0.397145	0.579825
	H61	H	0.877744	0.583726	0.580071
	H62	H	0.106468	0.594862	0.407855
	H63	H	0.872411	0.416004	0.394757
	H64	H	0.402007	0.591281	0.105978
	H65	H	0.584686	0.603281	0.874962
	H66	H	0.581809	0.419993	0.105942
	H67	H	0.399815	0.412181	0.874495
	H68	H	0.581960	0.116248	0.404324
	H69	H	0.580815	0.892319	0.578795
	H70	H	0.405163	0.116534	0.584013
	H71	H	0.402565	0.888872	0.392213
	H72	H	0.903805	0.613557	0.076673
	H73	H	0.080822	0.391107	0.082294
	H74	H	0.084351	0.616948	0.899247
	H75	H	0.895754	0.389259	0.899619
	H76	H	0.086211	0.918824	0.605029
	H77	H	0.081770	0.099908	0.374597
	H78	H	0.906811	0.096179	0.604680
	H79	H	0.894173	0.909043	0.373520
	H80	H	0.612546	0.094350	0.887240
	H81	H	0.372777	0.102133	0.084297
	H82	H	0.607828	0.919334	0.083356
	H83	H	0.377006	0.914562	0.903280
	H84	H	0.610216	0.911734	0.083578
	H85	H	0.378035	0.096255	0.073403
	H86	H	0.611771	0.111416	0.906649
	H87	H	0.376259	0.914757	0.900650
	H88	H	0.900590	0.096715	0.608737
	H89	H	0.084119	0.093681	0.374631
	H90	H	0.071294	0.908902	0.603200
	H91	H	0.903442	0.916739	0.378229
	H92	H	0.080181	0.616842	0.897814
	H93	H	0.082834	0.389490	0.082307
	H94	H	0.893475	0.620080	0.086397
	H95	H	0.897604	0.389134	0.896552
	H96	H	0.398140	0.117688	0.580108
	H97	H	0.589677	0.888030	0.586498
	H98	H	0.588230	0.118902	0.399043
	H99	H	0.403902	0.892472	0.402550
	H100	H	0.575577	0.409669	0.107477
	H101	H	0.584036	0.594500	0.877890
	H102	H	0.408882	0.596677	0.106237
	H103	H	0.403635	0.417111	0.877181
	H104	H	0.106928	0.589548	0.401888
	H105	H	0.872172	0.596614	0.586124
	H106	H	0.102448	0.419986	0.571389
	H107	H	0.870703	0.402107	0.400912
	H108	H	0.907785	0.616624	0.091300
	H109	H	0.080985	0.389754	0.084155
	H110	H	0.081282	0.615449	0.902234
	H111	H	0.899606	0.390146	0.899984
	H112	H	0.086861	0.902551	0.610311
	H113	H	0.078666	0.094760	0.377081
	H114	H	0.902548	0.091667	0.605007
	H115	H	0.906362	0.905124	0.375572
	H116	H	0.602439	0.087931	0.911429
	H117	H	0.375922	0.089511	0.084490
	H118	H	0.606296	0.915083	0.076330
	H119	H	0.375958	0.912705	0.901996
	C120	C	0.370043	0.012315	0.614026
	C121	C	0.614121	0.996476	0.614331
	C122	C	0.612875	0.011821	0.369761
	C123	C	0.369975	0.995690	0.369084
	C124	C	0.612177	0.384465	0.000683
	C125	C	0.613643	0.627724	0.984508
	C126	C	0.371461	0.626134	0.000582
	C127	C	0.371494	0.382967	0.982868
	C128	C	-0.000006	0.623616	0.371115
	C129	C	0.983309	0.623142	0.611001
	C130	C	0.000179	0.381389	0.612498
	C131	C	0.981554	0.381015	0.371083
	C132	C	0.869455	0.511380	0.114105
	C133	C	0.113699	0.494830	0.114656
	C134	C	0.113157	0.511081	0.869388
	C135	C	0.868177	0.495233	0.868583
	C136	C	0.112647	0.881149	0.499284
	C137	C	0.112803	0.125378	0.482328
	C138	C	0.871120	0.124690	0.499490
	C139	C	0.869925	0.879955	0.482490
	C140	C	0.501231	0.127608	0.870030
	C141	C	0.483331	0.126496	0.112013
	C142	C	0.500325	0.884626	0.112227
	C143	C	0.484102	0.884223	0.871446
	C144	C	0.369949	0.892186	0.671533
	C145	C	0.614302	0.117302	0.670613
	C146	C	0.611797	0.891486	0.311664
	C147	C	0.370341	0.116651	0.312644
	C148	C	0.666938	0.388466	0.877371
	C149	C	0.670858	0.625155	0.106667
	C150	C	0.313959	0.624357	0.878291
	C151	C	0.314695	0.384421	0.105358
	C152	C	0.877521	0.681112	0.369016
	C153	C	0.105732	0.681623	0.612654
	C154	C	0.877718	0.322853	0.613257
	C155	C	0.104859	0.325176	0.370811
	C156	C	0.876574	0.382074	0.668919
	C157	C	0.106200	0.622773	0.668695
	C158	C	0.876857	0.621615	0.314004
	C159	C	0.105016	0.382481	0.314689
	C160	C	0.369415	0.684684	0.879467
	C161	C	0.615098	0.684922	0.106187
	C162	C	0.614540	0.326525	0.879438
	C163	C	0.369435	0.324452	0.103866
	C164	C	0.667737	0.890439	0.372111
	C165	C	0.671806	0.117074	0.611502
	C166	C	0.313474	0.891178	0.612107
	C167	C	0.313941	0.116820	0.372384
	C168	C	0.867684	0.390901	0.170820
	C169	C	0.115904	0.613625	0.175097
	C170	C	0.113148	0.390876	0.811793
	C171	C	0.868058	0.614950	0.809709
	C172	C	0.169233	0.883646	0.376852
	C173	C	0.169831	0.123270	0.604507
	C174	C	0.813681	0.122319	0.377253
	C175	C	0.813638	0.882177	0.604595
	C176	C	0.378744	0.184919	0.868221
	C177	C	0.605856	0.184401	0.113110
	C178	C	0.378986	0.823868	0.116370
	C179	C	0.606495	0.826683	0.870937
	C180	C	0.377583	0.884408	0.169623
	C181	C	0.605670	0.127367	0.170433
	C182	C	0.377737	0.125533	0.812758
	C183	C	0.607486	0.885743	0.814830
	C184	C	0.867892	0.183141	0.378508
	C185	C	0.114439	0.183041	0.603553
	C186	C	0.114739	0.822774	0.378276
	C187	C	0.867239	0.820938	0.603002
	C188	C	0.171105	0.391239	0.870093
	C189	C	0.172875	0.614610	0.115356
	C190	C	0.811320	0.390673	0.111266
	C191	C	0.812712	0.616491	0.870374
	C192	C	0.393723	0.096284	0.590798
	C193	C	0.589861	0.912151	0.592021
	C194	C	0.590009	0.095688	0.392976
	C195	C	0.393244	0.911464	0.391366
	C196	C	0.588442	0.406840	0.085744
	C197	C	0.588990	0.605436	0.899345
	C198	C	0.396348	0.602495	0.084931
	C199	C	0.395934	0.406405	0.898267
	C200	C	0.085477	0.600503	0.395776
	C201	C	0.897698	0.599172	0.586457
	C202	C	0.085713	0.404691	0.589162
	C203	C	0.895848	0.403778	0.394810
	C204	C	0.894447	0.595171	0.091378
	C205	C	0.088708	0.411741	0.090011
	C206	C	0.088981	0.594626	0.892978
	C207	C	0.890996	0.411310	0.891905
	C208	C	0.088515	0.903697	0.584082
	C209	C	0.088575	0.102709	0.397616
	C210	C	0.896164	0.101415	0.584185
	C211	C	0.894334	0.903613	0.397728
	C212	C	0.586678	0.104598	0.894564
	C213	C	0.397739	0.102709	0.087575
	C214	C	0.585869	0.908582	0.088110
	C215	C	0.398639	0.907222	0.894948
	Zn216	Zn	0.491886	0.005245	0.743478
	Zn217	Zn	0.491611	0.005124	0.239098
	Zn218	Zn	0.740222	0.504645	-0.007884
	Zn219	Zn	0.243321	0.503450	-0.008454
	Zn220	Zn	-0.008688	0.752361	0.490782
	Zn221	Zn	-0.008218	0.253812	0.490755
	Zn222	Zn	-0.008841	0.502917	0.739894
	Zn223	Zn	-0.009186	0.501275	0.244264
	Zn224	Zn	0.492228	0.756341	-0.006802
	Zn225	Zn	0.492526	0.254833	-0.008448
	Zn226	Zn	0.743058	0.003202	0.491556
	Zn227	Zn	0.240974	0.003291	0.491279
	N228	N	0.404596	0.968341	0.672520
	N229	N	0.579254	0.041337	0.672457
	N230	N	0.578630	0.967974	0.309839
	N231	N	0.404491	0.040386	0.310382
	N232	N	0.665340	0.423792	0.953662
	N233	N	0.670249	0.590569	0.029875
	N234	N	0.315117	0.588807	0.954594
	N235	N	0.315938	0.420128	0.029245
	N236	N	0.955181	0.682372	0.403755
	N237	N	0.027953	0.682184	0.577685
	N238	N	0.955566	0.321904	0.579232
	N239	N	0.027181	0.324200	0.405173
	N240	N	0.953719	0.417631	0.668613
	N241	N	0.029127	0.587181	0.667806
	N242	N	0.954206	0.586796	0.314880
	N243	N	0.027295	0.416254	0.314657
	N244	N	0.404117	0.686185	0.956608
	N245	N	0.580342	0.686574	0.029120
	N246	N	0.581092	0.324013	0.957030
	N247	N	0.403843	0.323181	0.026610
	N248	N	0.668709	0.966160	0.407432
	N249	N	0.671892	0.040734	0.577540
	N250	N	0.313226	0.967054	0.577115
	N251	N	0.313462	0.040596	0.406367
	N252	N	0.903076	0.466770	0.172746
	N253	N	0.079633	0.537982	0.174762
	N254	N	0.077783	0.466405	0.811386
	N255	N	0.901756	0.538582	0.808398
	N256	N	0.168057	0.919275	0.453196
	N257	N	0.168534	0.087701	0.528474
	N258	N	0.815542	0.086838	0.453537
	N259	N	0.815147	0.918245	0.528696
	N260	N	0.456506	0.186456	0.903041
	N261	N	0.528479	0.184160	0.077574
	N262	N	0.456349	0.824222	0.081067
	N263	N	0.528863	0.825638	0.905489
	N264	N	0.453925	0.921671	0.167102
	N265	N	0.528505	0.091974	0.169957
	N266	N	0.454971	0.090839	0.813671
	N267	N	0.530388	0.920824	0.815123
	N268	N	0.902999	0.184678	0.455524
	N269	N	0.079722	0.184628	0.526334
	N270	N	0.080179	0.821144	0.455194
	N271	N	0.901506	0.819652	0.525957
	N272	N	0.171526	0.467064	0.905128
	N273	N	0.171467	0.540042	0.078296
	N274	N	0.812339	0.466753	0.076666
	N275	N	0.812532	0.541129	0.906331
	O276	O	-0.115291	0.121575	0.045945
	H277	H	-0.118771	0.124754	0.035449
	H278	H	-0.108543	0.120925	0.072004
	O279	O	0.051210	0.812468	-0.111076
	H280	H	0.036155	0.835351	-0.111173
	H281	H	0.031785	0.798668	-0.112402
	O282	O	1.088397	-0.086334	0.063741
	H283	H	1.089935	-0.082902	0.056092
	H284	H	1.096366	-0.105259	0.062353
	O285	O	-0.042190	1.090580	0.157639
	H286	H	-0.058347	1.090680	0.152046
	H287	H	-0.027164	1.085474	0.160461
	O288	O	0.467747	0.512824	0.463263
	H289	H	0.453374	0.508737	0.459998
	H290	H	0.467828	0.514160	0.468530
	O291	O	1.078590	0.154236	0.943772
	H292	H	1.081113	0.155899	0.939089
	H293	H	1.065359	0.151197	0.944916
	O294	O	1.141347	1.010356	0.868812
	H295	H	1.150301	1.021686	0.855806
	H296	H	1.152656	0.995193	0.876049
	O297	O	0.049921	0.047648	-0.058182
	H298	H	0.057272	0.048036	-0.048172
	H299	H	0.041226	0.046883	-0.056041
	O300	O	0.523872	0.690765	0.572529
	H301	H	0.516182	0.700727	0.577866
	H302	H	0.526750	0.691877	0.580840
	O303	O	0.128663	0.972474	1.105164
	H304	H	0.146200	0.964357	1.078612
	H305	H	0.129438	0.987134	1.115783
	O306	O	0.598212	0.506743	0.337656
	H307	H	0.603454	0.503540	0.342433
	H308	H	0.602438	0.516382	0.343803
	O309	O	0.820185	0.082031	0.011400
	H310	H	0.815127	0.076506	0.007996
	H311	H	0.820172	0.083087	0.001560
	O312	O	-0.102512	-0.132503	1.162419
	H313	H	-0.082254	-0.148840	1.178408
	H314	H	-0.106672	-0.138035	1.129318
	O315	O	0.583240	0.572408	0.568941
	H316	H	0.587861	0.557710	0.577588
	H317	H	0.600242	0.583859	0.571442
	O318	O	0.493723	0.579969	0.501862
	H319	H	0.495506	0.587077	0.507869
	H320	H	0.502688	0.583880	0.505180
	O321	O	0.524663	0.398843	0.319933
	H322	H	0.521091	0.402844	0.320557
	H323	H	0.521061	0.396472	0.315128
	O324	O	0.514617	0.495379	0.432898
	H325	H	0.531118	0.487236	0.445982
	H326	H	0.508139	0.500709	0.423351
	O327	O	0.098067	1.055898	0.835216
	H328	H	0.078762	1.062048	0.830243
	H329	H	0.102492	1.062950	0.812120
	O330	O	0.465465	0.467470	0.490806
	H331	H	0.473350	0.458001	0.486533
	H332	H	0.458750	0.477098	0.474619
	O333	O	-0.019463	1.079828	1.004960
	H334	H	-0.021914	1.081024	1.013007
	H335	H	0.005934	1.086485	1.017569
	O336	O	1.115458	0.878876	0.809936
	H337	H	1.089071	0.871174	0.803856
	H338	H	1.116023	0.902896	0.797742
	O339	O	0.547366	0.561586	0.503137
	H340	H	0.548667	0.566755	0.510704
	H341	H	0.549615	0.564622	0.501955
	O342	O	1.162631	-0.176324	-0.080231
	H343	H	1.175001	-0.183357	-0.088667
	H344	H	1.172139	-0.186622	-0.104768
	O345	O	0.453279	0.372697	0.635553
	H346	H	0.453743	0.364748	0.651374
	H347	H	0.437485	0.384139	0.633980
	O348	O	1.093174	1.186494	1.105106
	H349	H	1.078419	1.178912	1.101483
	H350	H	1.090550	1.193409	1.121818
	O351	O	0.927745	0.995621	-0.162941
	H352	H	0.924446	0.990814	-0.130172
	H353	H	0.925563	1.006390	-0.172084
	O354	O	1.044945	-0.040116	1.130344
	H355	H	1.056238	-0.037764	1.118061
	H356	H	1.049649	-0.043271	1.129809
	O357	O	0.459765	0.575491	0.594054
	H358	H	0.455119	0.587849	0.593558
	H359	H	0.471986	0.587735	0.588390
	O360	O	-0.187263	0.122273	-0.190859
	H361	H	-0.199815	0.125089	-0.188123
	H362	H	-0.188267	0.120019	-0.200083
	O363	O	0.527786	0.437613	0.595524
	H364	H	0.514364	0.433216	0.597734
	H365	H	0.535601	0.425772	0.585461
	O366	O	0.566750	0.531174	0.494176
	H367	H	0.561512	0.515725	0.491719
	H368	H	0.562140	0.529155	0.498009
	O369	O	0.504864	0.423850	0.448594
	H370	H	0.503009	0.426106	0.445630
	H371	H	0.499306	0.425233	0.449098
	O372	O	0.431395	0.575673	0.504493
	H373	H	0.432016	0.569424	0.510736
	H374	H	0.433495	0.572906	0.496285
	O375	O	0.980547	0.188440	0.892125
	H376	H	0.988597	0.205104	0.901179
	H377	H	0.975921	0.195340	0.883169
	O378	O	0.442815	0.424769	0.584087
	H379	H	0.437295	0.417956	0.568883
	H380	H	0.435395	0.431665	0.586146
	O381	O	0.443843	0.489579	0.453906
	H382	H	0.449129	0.500576	0.458596
	H383	H	0.438862	0.483859	0.455702
	O384	O	0.004021	0.954789	-0.099705
	H385	H	0.009936	0.956247	-0.099931
	H386	H	0.001416	0.951293	-0.099758
	O387	O	0.964722	-0.194087	0.996455
	H388	H	0.957317	-0.196970	0.981513
	H389	H	0.977868	-0.200270	0.993533
	O390	O	-0.142625	0.902319	0.070694
	H391	H	-0.162004	0.879389	0.090010
	H392	H	-0.141783	0.884806	0.073095
	O393	O	1.134570	1.198613	0.160533
	H394	H	1.117751	1.209508	0.160401
	H395	H	1.131262	1.184838	0.160659
	O396	O	0.495655	0.392442	0.438885
	H397	H	0.499482	0.400139	0.437045
	H398	H	0.496812	0.383721	0.432119
	O399	O	-0.096008	0.885477	1.084739
	H400	H	-0.086208	0.881627	1.109063
	H401	H	-0.103889	0.882326	1.092237
	O402	O	0.845831	0.924395	1.093512
	H403	H	0.844789	0.941150	1.095102
	H404	H	0.856155	0.930636	1.109771
	O405	O	0.443388	0.437981	0.589332
	H406	H	0.435221	0.425832	0.597542
	H407	H	0.441648	0.430861	0.576071
