data_Molecule from HDF5

_cell_length_a		16.256171
_cell_length_b		16.283001
_cell_length_c		16.257892
_cell_angle_alpha	89.928585
_cell_angle_beta	90.219219
_cell_angle_gamma	90.239541
_symmetry_space_group_name_H-M	'P 1'
_symmetry_Int_Tables_number		1

loop_
	_symmetry_equiv_pos_as_xyz
	x,y,z

loop_
	_atom_site_label
	_atom_site_type_symbol
	_atom_site_fract_x
	_atom_site_fract_y
	_atom_site_fract_z
	H0	H	0.395607	0.841682	0.714528
	H1	H	0.593809	0.168801	0.715627
	H2	H	0.589542	0.841594	0.287580
	H3	H	0.392500	0.168306	0.283891
	H4	H	0.706423	0.408147	0.835008
	H5	H	0.709638	0.604955	0.162802
	H6	H	0.279358	0.603876	0.834982
	H7	H	0.279242	0.407510	0.163807
	H8	H	0.829600	0.719167	0.397311
	H9	H	0.157000	0.720979	0.598760
	H10	H	0.830231	0.289963	0.596665
	H11	H	0.158067	0.291482	0.399856
	H12	H	0.829285	0.405368	0.712004
	H13	H	0.157072	0.605898	0.714127
	H14	H	0.830570	0.602814	0.282701
	H15	H	0.158672	0.408175	0.284466
	H16	H	0.395477	0.719585	0.835334
	H17	H	0.592489	0.718597	0.164137
	H18	H	0.590037	0.292137	0.835999
	H19	H	0.393312	0.289822	0.163484
	H20	H	0.705495	0.840756	0.403214
	H21	H	0.709956	0.168773	0.600588
	H22	H	0.279162	0.841374	0.599569
	H23	H	0.279436	0.169079	0.401462
	H24	H	0.894977	0.341899	0.212418
	H25	H	0.094417	0.669821	0.213181
	H26	H	0.089855	0.342037	0.784925
	H27	H	0.893991	0.669113	0.782187
	H28	H	0.207971	0.907437	0.336517
	H29	H	0.208876	0.103888	0.664689
	H30	H	0.778807	0.102692	0.336075
	H31	H	0.781502	0.907182	0.664698
	H32	H	0.329643	0.219863	0.899190
	H33	H	0.656885	0.220603	0.100057
	H34	H	0.330485	0.788306	0.099359
	H35	H	0.657549	0.792591	0.902304
	H36	H	0.330062	0.904373	0.215288
	H37	H	0.657208	0.103517	0.213998
	H38	H	0.330114	0.103102	0.785113
	H39	H	0.657348	0.907786	0.787018
	H40	H	0.894815	0.218794	0.335345
	H41	H	0.093954	0.221015	0.663535
	H42	H	0.091953	0.791645	0.335660
	H43	H	0.894536	0.788694	0.662861
	H44	H	0.207397	0.342171	0.899347
	H45	H	0.210320	0.669126	0.097450
	H46	H	0.778639	0.342261	0.097196
	H47	H	0.778913	0.669454	0.898975
	H48	H	0.399905	0.121720	0.589857
	H49	H	0.582008	0.890050	0.595647
	H50	H	0.583498	0.121068	0.407169
	H51	H	0.402450	0.891486	0.412729
	H52	H	0.594981	0.412807	0.118496
	H53	H	0.595303	0.589830	0.882918
	H54	H	0.391883	0.591522	0.117260
	H55	H	0.390009	0.417172	0.881778
	H56	H	0.110206	0.599665	0.406996
	H57	H	0.877304	0.601044	0.587025
	H58	H	0.111491	0.406526	0.589525
	H59	H	0.877574	0.413359	0.402760
	H60	H	0.107522	0.418328	0.588820
	H61	H	0.878575	0.592560	0.588101
	H62	H	0.110065	0.597834	0.406526
	H63	H	0.877250	0.409267	0.404208
	H64	H	0.410729	0.591802	0.111863
	H65	H	0.574171	0.597348	0.886864
	H66	H	0.583732	0.420126	0.113041
	H67	H	0.408887	0.419318	0.887646
	H68	H	0.588842	0.121503	0.410714
	H69	H	0.588913	0.889148	0.589752
	H70	H	0.398744	0.123361	0.596520
	H71	H	0.394368	0.886858	0.407114
	H72	H	0.897868	0.621391	0.083611
	H73	H	0.080963	0.389794	0.097024
	H74	H	0.075925	0.617498	0.911327
	H75	H	0.896623	0.389041	0.905010
	H76	H	0.087985	0.911867	0.617172
	H77	H	0.080432	0.099285	0.385562
	H78	H	0.902954	0.093035	0.614709
	H79	H	0.897283	0.912114	0.382943
	H80	H	0.608287	0.089849	0.906471
	H81	H	0.378928	0.097047	0.086565
	H82	H	0.612449	0.915295	0.102976
	H83	H	0.375071	0.915779	0.898114
	H84	H	0.612494	0.904033	0.092181
	H85	H	0.376998	0.093283	0.096072
	H86	H	0.614213	0.105825	0.899701
	H87	H	0.374447	0.901719	0.909494
	H88	H	0.906161	0.102948	0.616737
	H89	H	0.089322	0.104100	0.380939
	H90	H	0.085019	0.913633	0.614925
	H91	H	0.899845	0.913127	0.383528
	H92	H	0.097724	0.623482	0.912648
	H93	H	0.083539	0.392981	0.084352
	H94	H	0.897568	0.625947	0.098062
	H95	H	0.900561	0.388698	0.903478
	H96	H	0.404441	0.120882	0.594462
	H97	H	0.590041	0.886422	0.598806
	H98	H	0.588812	0.122992	0.404727
	H99	H	0.403712	0.888602	0.402857
	H100	H	0.581882	0.406477	0.117890
	H101	H	0.589647	0.611587	0.878515
	H102	H	0.402338	0.607272	0.118566
	H103	H	0.402213	0.401431	0.880429
	H104	H	0.110862	0.599707	0.405509
	H105	H	0.875456	0.598192	0.594533
	H106	H	0.112435	0.413827	0.599653
	H107	H	0.878975	0.412634	0.406737
	H108	H	0.909893	0.619725	0.091922
	H109	H	0.092792	0.386861	0.092072
	H110	H	0.086347	0.626277	0.893076
	H111	H	0.899086	0.390539	0.907241
	H112	H	0.084906	0.909965	0.617133
	H113	H	0.090200	0.093370	0.384289
	H114	H	0.896340	0.099947	0.618849
	H115	H	0.899213	0.910893	0.382676
	H116	H	0.609080	0.104693	0.916967
	H117	H	0.374503	0.103120	0.093198
	H118	H	0.606627	0.918760	0.087485
	H119	H	0.380933	0.917351	0.914916
	C120	C	0.372309	0.013588	0.622062
	C121	C	0.615674	0.996893	0.622859
	C122	C	0.614849	0.013391	0.379550
	C123	C	0.371345	0.997094	0.378582
	C124	C	0.614448	0.384803	0.007707
	C125	C	0.615519	0.627727	0.991049
	C126	C	0.372723	0.626136	0.007470
	C127	C	0.371018	0.383127	0.991117
	C128	C	0.002143	0.626815	0.376972
	C129	C	0.985206	0.626984	0.619758
	C130	C	0.002012	0.383844	0.620245
	C131	C	0.986037	0.383602	0.376300
	C132	C	0.872752	0.514184	0.119525
	C133	C	0.115439	0.497822	0.120264
	C134	C	0.114609	0.514112	0.877208
	C135	C	0.870510	0.497203	0.876259
	C136	C	0.114747	0.883791	0.508273
	C137	C	0.115512	0.127124	0.491882
	C138	C	0.872956	0.126262	0.508039
	C139	C	0.871270	0.882995	0.491501
	C140	C	0.502031	0.127707	0.878523
	C141	C	0.484939	0.126845	0.121318
	C142	C	0.502299	0.883244	0.122558
	C143	C	0.485039	0.883799	0.879093
	C144	C	0.375013	0.890499	0.676776
	C145	C	0.613823	0.120040	0.677757
	C146	C	0.610654	0.890288	0.325203
	C147	C	0.373064	0.119648	0.322441
	C148	C	0.668577	0.387760	0.884295
	C149	C	0.671505	0.625076	0.114017
	C150	C	0.317342	0.624114	0.883949
	C151	C	0.316105	0.386194	0.114588
	C152	C	0.878852	0.681343	0.378031
	C153	C	0.108145	0.682887	0.618605
	C154	C	0.878992	0.327855	0.617235
	C155	C	0.109311	0.329183	0.379257
	C156	C	0.878482	0.385726	0.674239
	C157	C	0.108167	0.625161	0.675770
	C158	C	0.879039	0.623449	0.321103
	C159	C	0.109653	0.387043	0.321901
	C160	C	0.374944	0.681709	0.884250
	C161	C	0.613547	0.681964	0.114675
	C162	C	0.610533	0.330238	0.884588
	C163	C	0.372721	0.327740	0.114462
	C164	C	0.668348	0.889980	0.382852
	C165	C	0.671747	0.119868	0.620485
	C166	C	0.316794	0.890541	0.619799
	C167	C	0.316925	0.120144	0.381077
	C168	C	0.874808	0.390803	0.174522
	C169	C	0.114291	0.620947	0.175362
	C170	C	0.111063	0.391047	0.822253
	C171	C	0.873712	0.620398	0.820556
	C172	C	0.170052	0.886824	0.385130
	C173	C	0.171088	0.124580	0.615344
	C174	C	0.816917	0.123431	0.384969
	C175	C	0.817996	0.885927	0.615163
	C176	C	0.378539	0.182114	0.879780
	C177	C	0.608102	0.182684	0.119788
	C178	C	0.379209	0.826793	0.119723
	C179	C	0.608402	0.829804	0.882018
	C180	C	0.378871	0.884694	0.177187
	C181	C	0.608226	0.124977	0.176879
	C182	C	0.378906	0.124165	0.822832
	C183	C	0.608350	0.887036	0.824683
	C184	C	0.874459	0.181135	0.384444
	C185	C	0.114073	0.182807	0.615027
	C186	C	0.112197	0.829495	0.384583
	C187	C	0.874200	0.826910	0.614238
	C188	C	0.169677	0.391081	0.879012
	C189	C	0.171864	0.620648	0.117674
	C190	C	0.817093	0.391025	0.117129
	C191	C	0.816539	0.620664	0.878540
	C192	C	0.394452	0.099739	0.600054
	C193	C	0.593428	0.910661	0.601155
	C194	C	0.593421	0.099633	0.401315
	C195	C	0.393557	0.911179	0.400934
	C196	C	0.592998	0.406563	0.094213
	C197	C	0.593092	0.606086	0.905042
	C198	C	0.394892	0.603559	0.093532
	C199	C	0.393712	0.405743	0.905510
	C200	C	0.088165	0.605528	0.399697
	C201	C	0.899189	0.603984	0.596674
	C202	C	0.088201	0.406129	0.598817
	C203	C	0.900279	0.405317	0.398064
	C204	C	0.895087	0.600138	0.097531
	C205	C	0.092286	0.411981	0.097817
	C206	C	0.093038	0.600112	0.899179
	C207	C	0.892353	0.411653	0.898593
	C208	C	0.092539	0.905449	0.594212
	C209	C	0.093243	0.105422	0.405973
	C210	C	0.895321	0.104969	0.594296
	C211	C	0.892556	0.905461	0.405219
	C212	C	0.588141	0.106339	0.901237
	C213	C	0.398988	0.104368	0.098538
	C214	C	0.588322	0.906125	0.100738
	C215	C	0.399015	0.905261	0.901043
	Zn216	Zn	0.493837	0.005205	0.750893
	Zn217	Zn	0.492995	0.005591	0.250029
	Zn218	Zn	0.743390	0.506593	-0.000868
	Zn219	Zn	0.243437	0.505404	-0.001225
	Zn220	Zn	-0.006578	0.755122	0.498408
	Zn221	Zn	-0.005671	0.255640	0.499143
	Zn222	Zn	-0.007206	0.505699	0.748395
	Zn223	Zn	-0.005664	0.505637	0.248385
	Zn224	Zn	0.493853	0.754999	0.000119
	Zn225	Zn	0.493107	0.255506	0.000306
	Zn226	Zn	0.743525	0.005268	0.500957
	Zn227	Zn	0.243766	0.005110	0.500195
	N228	N	0.408785	0.968129	0.678282
	N229	N	0.579411	0.042655	0.679170
	N230	N	0.577852	0.968162	0.323058
	N231	N	0.406469	0.042081	0.320770
	N232	N	0.670830	0.421190	0.961953
	N233	N	0.672671	0.592061	0.036242
	N234	N	0.316037	0.590157	0.961396
	N235	N	0.314847	0.419858	0.036846
	N236	N	0.956475	0.683678	0.411962
	N237	N	0.030620	0.683937	0.584479
	N238	N	0.956675	0.326994	0.583985
	N239	N	0.031511	0.326732	0.412421
	N240	N	0.955998	0.419808	0.676411
	N241	N	0.030467	0.591062	0.676629
	N242	N	0.956517	0.589961	0.320502
	N243	N	0.032001	0.419873	0.319590
	N244	N	0.408676	0.682993	0.962070
	N245	N	0.579177	0.683471	0.037314
	N246	N	0.577596	0.328393	0.962505
	N247	N	0.406285	0.325845	0.036969
	N248	N	0.670722	0.967639	0.416016
	N249	N	0.672897	0.042272	0.587158
	N250	N	0.315157	0.968140	0.586481
	N251	N	0.315784	0.042932	0.415127
	N252	N	0.908805	0.468388	0.176147
	N253	N	0.079863	0.543497	0.177029
	N254	N	0.077615	0.468513	0.820990
	N255	N	0.906612	0.542672	0.818899
	N256	N	0.171913	0.919637	0.462946
	N257	N	0.172072	0.090788	0.537882
	N258	N	0.815719	0.090396	0.462886
	N259	N	0.816106	0.920064	0.537779
	N260	N	0.456142	0.184422	0.913711
	N261	N	0.530274	0.184083	0.085980
	N262	N	0.456858	0.825882	0.086391
	N263	N	0.530911	0.827902	0.915464
	N264	N	0.456169	0.919391	0.178667
	N265	N	0.530744	0.091118	0.177968
	N266	N	0.456615	0.091057	0.821841
	N267	N	0.530463	0.919719	0.822468
	N268	N	0.908794	0.183031	0.461855
	N269	N	0.080203	0.184678	0.537277
	N270	N	0.078444	0.827600	0.462118
	N271	N	0.906590	0.824831	0.536030
	N272	N	0.171887	0.468642	0.912458
	N273	N	0.172508	0.543079	0.084384
	N274	N	0.815657	0.468691	0.083973
	N275	N	0.814334	0.543289	0.912343
	O276	O	0.569841	0.542031	0.490286
	H277	H	0.569677	0.538128	0.490218
	H278	H	0.568249	0.537601	0.502569
	O279	O	0.510745	0.549577	0.505054
	H280	H	0.502218	0.545755	0.513681
	H281	H	0.499958	0.555116	0.492905
	O282	O	0.496532	0.493889	0.625529
	H283	H	0.501968	0.494535	0.637512
	H284	H	0.493024	0.501517	0.629935
	O285	O	0.067158	1.014943	1.032096
	H286	H	0.064803	1.023671	1.032847
	H287	H	0.062990	1.020502	1.045051
	O288	O	0.332264	0.280814	0.682909
	H289	H	0.331102	0.281162	0.671863
	H290	H	0.314714	0.277676	0.681687
	O291	O	0.066993	0.045483	0.973350
	H292	H	0.072527	0.036867	0.977180
	H293	H	0.070491	0.047057	0.967894
	O294	O	0.486683	0.434956	0.516672
	H295	H	0.496257	0.437173	0.513513
	H296	H	0.491826	0.438454	0.514819
	O297	O	0.480170	0.590799	0.487410
	H298	H	0.481420	0.597604	0.478663
	H299	H	0.485851	0.594299	0.479035
	O300	O	0.529098	0.530066	0.433790
	H301	H	0.539252	0.527306	0.430696
	H302	H	0.530076	0.536196	0.437141
	O303	O	0.502130	0.529340	0.478583
	H304	H	0.501424	0.530532	0.479608
	H305	H	0.505210	0.529332	0.484625
	O306	O	1.045093	0.082051	1.069588
	H307	H	1.046619	0.086381	1.072175
	H308	H	1.043862	0.083002	1.066321
	O309	O	0.496954	0.562902	0.492889
	H310	H	0.481445	0.562405	0.484219
	H311	H	0.494322	0.559501	0.500859
	O312	O	0.448845	0.436885	0.496756
	H313	H	0.459841	0.435979	0.496229
	H314	H	0.457221	0.433984	0.500918
	O315	O	1.094178	-0.011021	0.971016
	H316	H	1.091922	-0.013749	0.973061
	H317	H	1.099216	-0.014218	0.970771
	O318	O	0.485234	-0.497650	-0.520448
	H319	H	0.476958	-0.502350	-0.516491
	H320	H	0.473485	-0.496216	-0.517585
	O321	O	0.484181	0.449997	0.470834
	H322	H	0.491693	0.450849	0.478817
	H323	H	0.484606	0.451896	0.474212
	O324	O	0.999803	0.071132	-0.003612
	H325	H	1.007211	0.073348	-0.005768
	H326	H	1.006970	0.076265	-0.001221
	O327	O	1.021779	1.063652	0.039920
	H328	H	1.028854	1.062784	0.038715
	H329	H	1.013408	1.062540	0.035909
	O330	O	0.443767	0.419913	0.534469
	H331	H	0.442761	0.408585	0.543398
	H332	H	0.450434	0.418351	0.523132
	O333	O	0.476508	0.460287	0.548999
	H334	H	0.470511	0.453713	0.552972
	H335	H	0.469448	0.463886	0.547789
