data_Molecule from HDF5

_cell_length_a		16.318503
_cell_length_b		16.279434
_cell_length_c		16.284169
_cell_angle_alpha	90.048715
_cell_angle_beta	89.861508
_cell_angle_gamma	89.951456
_symmetry_space_group_name_H-M	'P 1'
_symmetry_Int_Tables_number		1

loop_
	_symmetry_equiv_pos_as_xyz
	x,y,z

loop_
	_atom_site_label
	_atom_site_type_symbol
	_atom_site_fract_x
	_atom_site_fract_y
	_atom_site_fract_z
	H0	H	0.400569	0.844911	0.706844
	H1	H	0.596423	0.173053	0.705860
	H2	H	0.596891	0.844695	0.278211
	H3	H	0.399888	0.172364	0.278415
	H4	H	0.715464	0.409967	0.828986
	H5	H	0.712836	0.607884	0.157208
	H6	H	0.284642	0.607511	0.830212
	H7	H	0.283858	0.409840	0.155723
	H8	H	0.835099	0.723117	0.396326
	H9	H	0.162090	0.722854	0.591625
	H10	H	0.834687	0.295753	0.590844
	H11	H	0.162577	0.293963	0.394431
	H12	H	0.835418	0.411007	0.708762
	H13	H	0.162839	0.606326	0.706553
	H14	H	0.835895	0.608472	0.278801
	H15	H	0.162666	0.410066	0.278565
	H16	H	0.401042	0.722399	0.828580
	H17	H	0.596858	0.723609	0.156213
	H18	H	0.598249	0.295064	0.828277
	H19	H	0.400085	0.293026	0.155989
	H20	H	0.714190	0.845314	0.392665
	H21	H	0.713542	0.172341	0.590791
	H22	H	0.284357	0.845150	0.591696
	H23	H	0.284272	0.172578	0.394306
	H24	H	0.902533	0.344968	0.207845
	H25	H	0.096929	0.672473	0.208160
	H26	H	0.097276	0.345710	0.778637
	H27	H	0.900915	0.673401	0.780006
	H28	H	0.213032	0.909779	0.330164
	H29	H	0.213897	0.108607	0.656282
	H30	H	0.785022	0.106874	0.328065
	H31	H	0.784117	0.911616	0.656582
	H32	H	0.336076	0.223627	0.894236
	H33	H	0.663202	0.223070	0.090799
	H34	H	0.335539	0.795103	0.089795
	H35	H	0.662982	0.794216	0.894561
	H36	H	0.335485	0.910262	0.207354
	H37	H	0.662286	0.107044	0.207517
	H38	H	0.334966	0.106642	0.779314
	H39	H	0.663037	0.911802	0.778571
	H40	H	0.901053	0.223836	0.328952
	H41	H	0.095615	0.222956	0.657382
	H42	H	0.096000	0.794766	0.330009
	H43	H	0.899994	0.795896	0.657488
	H44	H	0.213729	0.345577	0.893889
	H45	H	0.214077	0.672590	0.092866
	H46	H	0.784679	0.344747	0.092792
	H47	H	0.784420	0.672472	0.895749
	H48	H	0.405917	0.123623	0.582536
	H49	H	0.593139	0.891169	0.586309
	H50	H	0.586853	0.124845	0.393024
	H51	H	0.417151	0.897153	0.404219
	H52	H	0.592698	0.413990	0.108638
	H53	H	0.592897	0.601015	0.877049
	H54	H	0.401221	0.597474	0.109691
	H55	H	0.407137	0.411831	0.875383
	H56	H	0.115575	0.606056	0.402580
	H57	H	0.882433	0.602748	0.587255
	H58	H	0.116036	0.412537	0.586325
	H59	H	0.882558	0.418791	0.397642
	H60	H	0.113629	0.416858	0.583737
	H61	H	0.882592	0.601166	0.588595
	H62	H	0.112930	0.598215	0.403373
	H63	H	0.882070	0.412181	0.400233
	H64	H	0.412923	0.600838	0.106382
	H65	H	0.593616	0.602335	0.876716
	H66	H	0.593555	0.417373	0.108202
	H67	H	0.402948	0.418628	0.876375
	H68	H	0.588195	0.122061	0.407302
	H69	H	0.590070	0.892579	0.585769
	H70	H	0.401827	0.125927	0.586794
	H71	H	0.394212	0.891540	0.407718
	H72	H	0.896700	0.627289	0.084840
	H73	H	0.090776	0.392444	0.087636
	H74	H	0.090809	0.625514	0.900656
	H75	H	0.898581	0.392733	0.909069
	H76	H	0.089625	0.913803	0.609920
	H77	H	0.093278	0.103850	0.375636
	H78	H	0.903070	0.101683	0.609108
	H79	H	0.907594	0.911588	0.375961
	H80	H	0.615241	0.101287	0.896714
	H81	H	0.380477	0.103705	0.092275
	H82	H	0.615578	0.920059	0.090485
	H83	H	0.382078	0.915522	0.895275
	H84	H	0.617061	0.909944	0.085277
	H85	H	0.383442	0.106916	0.079805
	H86	H	0.615859	0.103453	0.896896
	H87	H	0.381874	0.911215	0.899594
	H88	H	0.905630	0.100860	0.608415
	H89	H	0.093148	0.098911	0.377200
	H90	H	0.094704	0.914802	0.611419
	H91	H	0.902761	0.915906	0.375527
	H92	H	0.095263	0.626550	0.901532
	H93	H	0.091297	0.393674	0.082808
	H94	H	0.908630	0.625957	0.095719
	H95	H	0.904340	0.389204	0.890063
	H96	H	0.408127	0.125489	0.588516
	H97	H	0.592522	0.892696	0.583409
	H98	H	0.599668	0.127177	0.399649
	H99	H	0.404550	0.888372	0.386299
	H100	H	0.590010	0.416139	0.108570
	H101	H	0.594410	0.600644	0.876341
	H102	H	0.405018	0.609237	0.111967
	H103	H	0.409820	0.418490	0.878304
	H104	H	0.115696	0.600271	0.396749
	H105	H	0.881979	0.603233	0.589304
	H106	H	0.116206	0.416718	0.588884
	H107	H	0.884935	0.417739	0.404579
	H108	H	0.911311	0.622358	0.080164
	H109	H	0.095216	0.392518	0.085311
	H110	H	0.093036	0.626347	0.897520
	H111	H	0.917953	0.396988	0.902922
	H112	H	0.091554	0.918754	0.609158
	H113	H	0.089029	0.101709	0.377253
	H114	H	0.904707	0.104007	0.609105
	H115	H	0.908730	0.916673	0.378413
	H116	H	0.615826	0.102418	0.898713
	H117	H	0.386183	0.095175	0.083981
	H118	H	0.612692	0.918586	0.079653
	H119	H	0.383640	0.916932	0.901172
	C120	C	0.377295	0.016851	0.614247
	C121	C	0.620290	1.000537	0.613568
	C122	C	0.620216	0.016754	0.370977
	C123	C	0.376932	1.000478	0.370883
	C124	C	0.620964	0.387305	0.000492
	C125	C	0.621297	0.630205	0.984805
	C126	C	0.377981	0.630383	0.000956
	C127	C	0.378336	0.387437	0.984589
	C128	C	0.006958	0.630298	0.372619
	C129	C	0.990259	0.630608	0.615900
	C130	C	0.006876	0.387369	0.615018
	C131	C	0.990974	0.387352	0.371893
	C132	C	0.877516	0.516882	0.115622
	C133	C	0.120800	0.501024	0.114456
	C134	C	0.121438	0.517862	0.871134
	C135	C	0.878291	0.500993	0.872585
	C136	C	0.120406	0.887176	0.502100
	C137	C	0.120095	0.130328	0.484981
	C138	C	0.876794	0.130360	0.500498
	C139	C	0.877146	0.886937	0.484856
	C140	C	0.507236	0.130216	0.870399
	C141	C	0.491301	0.130467	0.114133
	C142	C	0.507438	0.887460	0.114107
	C143	C	0.490837	0.886603	0.870543
	C144	C	0.380057	0.893759	0.669334
	C145	C	0.616893	0.124100	0.667958
	C146	C	0.617588	0.893793	0.315564
	C147	C	0.379491	0.123660	0.316169
	C148	C	0.677054	0.389693	0.877741
	C149	C	0.675198	0.627758	0.108161
	C150	C	0.323108	0.627671	0.878557
	C151	C	0.322825	0.389613	0.107505
	C152	C	0.883915	0.685248	0.375576
	C153	C	0.113565	0.684902	0.612186
	C154	C	0.883657	0.333358	0.611800
	C155	C	0.113762	0.331694	0.373747
	C156	C	0.884350	0.390244	0.670811
	C157	C	0.114045	0.627086	0.669365
	C158	C	0.884230	0.627989	0.317438
	C159	C	0.113720	0.389177	0.316101
	C160	C	0.381089	0.684605	0.877659
	C161	C	0.617820	0.685578	0.107699
	C162	C	0.618953	0.332496	0.877349
	C163	C	0.380378	0.331536	0.107277
	C164	C	0.675792	0.893953	0.372481
	C165	C	0.675154	0.123758	0.610821
	C166	C	0.322787	0.893706	0.611513
	C167	C	0.322074	0.123750	0.373824
	C168	C	0.880842	0.393690	0.170345
	C169	C	0.117679	0.623890	0.169840
	C170	C	0.118603	0.394527	0.816182
	C171	C	0.880753	0.624632	0.817988
	C172	C	0.175291	0.889292	0.379040
	C173	C	0.175413	0.128527	0.607875
	C174	C	0.822997	0.127352	0.376934
	C175	C	0.821889	0.890723	0.607963
	C176	C	0.384354	0.185128	0.873957
	C177	C	0.614404	0.185165	0.111068
	C178	C	0.384395	0.832476	0.111339
	C179	C	0.614141	0.831992	0.873524
	C180	C	0.384219	0.889932	0.169251
	C181	C	0.613679	0.128185	0.169745
	C182	C	0.383796	0.127357	0.816617
	C183	C	0.614123	0.890139	0.815915
	C184	C	0.880548	0.185265	0.377364
	C185	C	0.116908	0.185348	0.608432
	C186	C	0.117047	0.832164	0.378889
	C187	C	0.879552	0.833198	0.608457
	C188	C	0.176214	0.394474	0.873778
	C189	C	0.175762	0.623995	0.112704
	C190	C	0.822365	0.393718	0.113306
	C191	C	0.823070	0.624288	0.875597
	C192	C	0.399016	0.102847	0.592341
	C193	C	0.598347	0.914426	0.591542
	C194	C	0.598126	0.102565	0.393512
	C195	C	0.398871	0.914719	0.392923
	C196	C	0.598580	0.409321	0.086328
	C197	C	0.599967	0.607875	0.898843
	C198	C	0.399932	0.608853	0.087150
	C199	C	0.400266	0.409726	0.898646
	C200	C	0.092483	0.608160	0.394529
	C201	C	0.904453	0.608978	0.594672
	C202	C	0.093063	0.409056	0.592776
	C203	C	0.905288	0.409763	0.394346
	C204	C	0.899251	0.603000	0.093652
	C205	C	0.098997	0.415036	0.091794
	C206	C	0.099646	0.603792	0.893456
	C207	C	0.900295	0.415084	0.894331
	C208	C	0.098423	0.909227	0.588061
	C209	C	0.098157	0.108187	0.399124
	C210	C	0.898050	0.108547	0.586566
	C211	C	0.899601	0.908350	0.398859
	C212	C	0.593444	0.108544	0.891237
	C213	C	0.405468	0.108275	0.092003
	C214	C	0.592828	0.909796	0.091726
	C215	C	0.404786	0.908135	0.892264
	Zn216	Zn	0.498722	0.008856	0.742149
	Zn217	Zn	0.498571	0.009020	0.242899
	Zn218	Zn	0.749525	0.508661	-0.006375
	Zn219	Zn	0.249271	0.509204	-0.006801
	Zn220	Zn	-0.001462	0.758808	0.494321
	Zn221	Zn	-0.001199	0.258794	0.492963
	Zn222	Zn	-0.000551	0.509557	0.743661
	Zn223	Zn	-0.000405	0.508927	0.243321
	Zn224	Zn	0.499341	0.758323	-0.007517
	Zn225	Zn	0.499511	0.258542	-0.008100
	Zn226	Zn	0.748721	0.008414	0.491767
	Zn227	Zn	0.248929	0.009170	0.493205
	N228	N	0.413627	0.971295	0.670718
	N229	N	0.583541	0.046396	0.669875
	N230	N	0.583535	0.971297	0.314707
	N231	N	0.412959	0.046217	0.314268
	N232	N	0.678388	0.423100	0.955468
	N233	N	0.677408	0.594077	0.030641
	N234	N	0.321357	0.594552	0.956067
	N235	N	0.321615	0.423875	0.030485
	N236	N	0.960954	0.686496	0.409400
	N237	N	0.035894	0.687144	0.579695
	N238	N	0.961078	0.331202	0.578188
	N239	N	0.036412	0.330257	0.407694
	N240	N	0.961955	0.423289	0.672537
	N241	N	0.036318	0.594264	0.672109
	N242	N	0.961705	0.594422	0.315399
	N243	N	0.036521	0.423184	0.315001
	N244	N	0.414832	0.686229	0.955063
	N245	N	0.584717	0.686972	0.030060
	N246	N	0.584815	0.331105	0.954607
	N247	N	0.414101	0.330165	0.029697
	N248	N	0.677274	0.971250	0.406331
	N249	N	0.677383	0.045867	0.577888
	N250	N	0.320624	0.971374	0.578337
	N251	N	0.320150	0.046092	0.407128
	N252	N	0.914193	0.471274	0.171937
	N253	N	0.084240	0.546375	0.171044
	N254	N	0.085058	0.471914	0.814812
	N255	N	0.914392	0.547038	0.815994
	N256	N	0.177315	0.922950	0.456433
	N257	N	0.177296	0.094977	0.530223
	N258	N	0.820511	0.094034	0.454441
	N259	N	0.820372	0.923410	0.530074
	N260	N	0.461826	0.186820	0.906537
	N261	N	0.537037	0.186906	0.077453
	N262	N	0.461758	0.830635	0.077673
	N263	N	0.536549	0.829762	0.906753
	N264	N	0.461655	0.923263	0.171089
	N265	N	0.536254	0.094883	0.171496
	N266	N	0.461421	0.093883	0.814307
	N267	N	0.536639	0.923233	0.813978
	N268	N	0.913091	0.187393	0.455221
	N269	N	0.083298	0.186570	0.531049
	N270	N	0.083878	0.830470	0.456704
	N271	N	0.913169	0.830909	0.531002
	N272	N	0.178200	0.472242	0.907137
	N273	N	0.177844	0.546451	0.079099
	N274	N	0.820365	0.471297	0.079881
	N275	N	0.821331	0.546538	0.908617
	O276	O	0.546563	-0.525971	1.437004
	H277	H	0.543357	-0.535529	1.440365
	H278	H	0.547110	-0.524722	1.430484
	O279	O	0.542679	0.467034	0.450958
	H280	H	0.539346	0.470533	0.448044
	H281	H	0.535229	0.457417	0.438138
	O282	O	-0.436932	0.507939	1.509533
	H283	H	-0.441993	0.498467	1.515879
	H284	H	-0.432025	0.501879	1.511743
	O285	O	0.531343	0.521577	0.515626
	H286	H	0.534937	0.525348	0.515487
	H287	H	0.531760	0.527355	0.512352
	O288	O	0.536345	0.494163	0.503127
	H289	H	0.536647	0.497661	0.495628
	H290	H	0.545193	0.495932	0.498125
	O291	O	0.560771	0.492644	0.497062
	H292	H	0.560621	0.499009	0.509470
	H293	H	0.564820	0.487704	0.502266
	O294	O	0.529230	0.491959	0.467174
	H295	H	0.531923	0.502465	0.462234
	H296	H	0.533174	0.496153	0.472083
	O297	O	0.994984	0.021554	-0.018491
	H298	H	0.991248	0.025478	-0.020182
	H299	H	0.995283	0.022621	-0.018744
