data_Molecule from HDF5

_cell_length_a		16.336096
_cell_length_b		16.199103
_cell_length_c		16.212102
_cell_angle_alpha	89.962265
_cell_angle_beta	90.009103
_cell_angle_gamma	89.894802
_symmetry_space_group_name_H-M	'P 1'
_symmetry_Int_Tables_number		1

loop_
	_symmetry_equiv_pos_as_xyz
	x,y,z

loop_
	_atom_site_label
	_atom_site_type_symbol
	_atom_site_fract_x
	_atom_site_fract_y
	_atom_site_fract_z
	H0	H	0.408116	0.841623	0.713765
	H1	H	0.603704	0.171142	0.712888
	H2	H	0.603325	0.841445	0.285048
	H3	H	0.408718	0.171092	0.286959
	H4	H	0.721395	0.406204	0.834625
	H5	H	0.722820	0.607388	0.161603
	H6	H	0.290853	0.605801	0.834591
	H7	H	0.290674	0.405260	0.162356
	H8	H	0.842777	0.721041	0.400650
	H9	H	0.169524	0.719744	0.597492
	H10	H	0.842642	0.289906	0.597819
	H11	H	0.168993	0.290722	0.400153
	H12	H	0.842349	0.406577	0.713741
	H13	H	0.169214	0.603507	0.713910
	H14	H	0.842815	0.606702	0.282698
	H15	H	0.169117	0.406137	0.283330
	H16	H	0.406112	0.722117	0.835743
	H17	H	0.602574	0.718508	0.164734
	H18	H	0.605191	0.291478	0.835121
	H19	H	0.409936	0.294714	0.163857
	H20	H	0.720500	0.840993	0.397529
	H21	H	0.722360	0.169000	0.599302
	H22	H	0.291700	0.841634	0.598611
	H23	H	0.290150	0.169462	0.398345
	H24	H	0.907523	0.341432	0.213398
	H25	H	0.101685	0.670444	0.211245
	H26	H	0.104080	0.340345	0.785495
	H27	H	0.908281	0.670045	0.785259
	H28	H	0.222050	0.905590	0.335206
	H29	H	0.220744	0.105657	0.662333
	H30	H	0.788891	0.105651	0.334399
	H31	H	0.790390	0.904892	0.661721
	H32	H	0.342275	0.222636	0.900225
	H33	H	0.669763	0.220144	0.097100
	H34	H	0.342525	0.792029	0.098757
	H35	H	0.668186	0.790338	0.900197
	H36	H	0.342653	0.909384	0.214105
	H37	H	0.669137	0.104839	0.214809
	H38	H	0.343305	0.109339	0.781328
	H39	H	0.668739	0.907037	0.784731
	H40	H	0.906872	0.219574	0.332763
	H41	H	0.102795	0.219033	0.662894
	H42	H	0.103241	0.792871	0.333761
	H43	H	0.908973	0.792838	0.663120
	H44	H	0.223281	0.342245	0.897246
	H45	H	0.220757	0.669690	0.097983
	H46	H	0.790733	0.341961	0.099026
	H47	H	0.791482	0.670068	0.898621
	H48	H	0.408805	0.123722	0.589805
	H49	H	0.611975	0.885062	0.590679
	H50	H	0.603288	0.122742	0.411189
	H51	H	0.412621	0.888597	0.407802
	H52	H	0.603481	0.417988	0.115468
	H53	H	0.601712	0.608604	0.878599
	H54	H	0.418276	0.605001	0.116151
	H55	H	0.410044	0.417761	0.881624
	H56	H	0.123705	0.601213	0.401512
	H57	H	0.890650	0.597679	0.591218
	H58	H	0.120626	0.411295	0.588675
	H59	H	0.886453	0.408162	0.397325
	H60	H	0.120811	0.415102	0.592424
	H61	H	0.888566	0.598856	0.593645
	H62	H	0.121627	0.601037	0.409060
	H63	H	0.891031	0.408676	0.415378
	H64	H	0.403920	0.600622	0.119692
	H65	H	0.605123	0.590138	0.882819
	H66	H	0.594335	0.415999	0.114132
	H67	H	0.416833	0.417245	0.883632
	H68	H	0.597407	0.123967	0.402748
	H69	H	0.592292	0.887273	0.603762
	H70	H	0.414266	0.123742	0.595388
	H71	H	0.410645	0.887940	0.406451
	H72	H	0.910636	0.622059	0.085018
	H73	H	0.095424	0.392674	0.081958
	H74	H	0.096012	0.622515	0.904060
	H75	H	0.917002	0.388326	0.902621
	H76	H	0.108377	0.906498	0.620106
	H77	H	0.096524	0.095860	0.381480
	H78	H	0.929102	0.097780	0.608676
	H79	H	0.918087	0.914578	0.382926
	H80	H	0.621715	0.097784	0.905021
	H81	H	0.391279	0.098151	0.092017
	H82	H	0.622645	0.915456	0.097409
	H83	H	0.390478	0.922250	0.902924
	H84	H	0.623845	0.907549	0.092266
	H85	H	0.388346	0.101476	0.096723
	H86	H	0.621367	0.101131	0.906926
	H87	H	0.386365	0.907699	0.902382
	H88	H	0.906879	0.109929	0.620486
	H89	H	0.099081	0.099772	0.380878
	H90	H	0.101436	0.923805	0.613245
	H91	H	0.911627	0.908081	0.379114
	H92	H	0.097856	0.621318	0.909395
	H93	H	0.108413	0.385162	0.091125
	H94	H	0.909288	0.625514	0.095073
	H95	H	0.915479	0.390953	0.911992
	H96	H	0.415508	0.121679	0.588018
	H97	H	0.592234	0.894113	0.581111
	H98	H	0.593701	0.119943	0.411992
	H99	H	0.413389	0.888402	0.405263
	H100	H	0.599920	0.408868	0.116901
	H101	H	0.587956	0.597715	0.884572
	H102	H	0.413804	0.590515	0.112360
	H103	H	0.413271	0.411267	0.881822
	H104	H	0.120006	0.594294	0.404515
	H105	H	0.890059	0.601145	0.591637
	H106	H	0.123062	0.410920	0.593072
	H107	H	0.892885	0.424119	0.404824
	H108	H	0.919270	0.621006	0.091918
	H109	H	0.093265	0.387491	0.099207
	H110	H	0.101819	0.622830	0.906088
	H111	H	0.907103	0.386646	0.906304
	H112	H	0.090082	0.907927	0.614267
	H113	H	0.100907	0.096082	0.380979
	H114	H	0.905212	0.083277	0.612277
	H115	H	0.908466	0.917621	0.380717
	H116	H	0.620314	0.098115	0.908446
	H117	H	0.389628	0.104271	0.091097
	H118	H	0.619579	0.914999	0.088167
	H119	H	0.391812	0.913568	0.915230
	C120	C	0.384592	0.014424	0.620319
	C121	C	0.627540	0.997330	0.620742
	C122	C	0.627123	0.013870	0.378637
	C123	C	0.384163	0.997336	0.378026
	C124	C	0.628034	0.384911	0.007213
	C125	C	0.627057	0.628164	0.990604
	C126	C	0.383228	0.628157	0.007619
	C127	C	0.384862	0.385544	0.990375
	C128	C	0.014042	0.627737	0.376591
	C129	C	0.997480	0.627543	0.620923
	C130	C	0.013866	0.383402	0.620486
	C131	C	0.997640	0.383960	0.376663
	C132	C	0.884002	0.514615	0.120275
	C133	C	0.127456	0.496856	0.119798
	C134	C	0.127508	0.513727	0.877378
	C135	C	0.884494	0.497053	0.877750
	C136	C	0.128220	0.883867	0.507317
	C137	C	0.127366	0.126758	0.489583
	C138	C	0.883684	0.127051	0.506154
	C139	C	0.884311	0.884395	0.489504
	C140	C	0.513626	0.128816	0.877154
	C141	C	0.497747	0.129359	0.121815
	C142	C	0.514170	0.884630	0.121351
	C143	C	0.496840	0.884871	0.877752
	C144	C	0.387210	0.890784	0.676110
	C145	C	0.624706	0.121377	0.675465
	C146	C	0.624461	0.890488	0.322507
	C147	C	0.387411	0.121549	0.323529
	C148	C	0.683218	0.386784	0.883725
	C149	C	0.683599	0.626834	0.113339
	C150	C	0.328471	0.625875	0.883835
	C151	C	0.329344	0.386368	0.113733
	C152	C	0.891308	0.683111	0.379805
	C153	C	0.120667	0.682358	0.618340
	C154	C	0.891240	0.328007	0.618204
	C155	C	0.120144	0.328357	0.378988
	C156	C	0.891275	0.385909	0.676082
	C157	C	0.120506	0.624258	0.675970
	C158	C	0.891456	0.625978	0.321432
	C159	C	0.120335	0.386036	0.321382
	C160	C	0.385539	0.683853	0.884366
	C161	C	0.623496	0.681928	0.114854
	C162	C	0.625461	0.329510	0.883855
	C163	C	0.388521	0.331180	0.114380
	C164	C	0.682924	0.890465	0.378474
	C165	C	0.683755	0.120420	0.619113
	C166	C	0.329338	0.890751	0.618895
	C167	C	0.328541	0.120789	0.379131
	C168	C	0.886650	0.390610	0.175730
	C169	C	0.123367	0.621185	0.174431
	C170	C	0.124961	0.389975	0.822490
	C171	C	0.887208	0.620782	0.822429
	C172	C	0.183487	0.886010	0.383952
	C173	C	0.182439	0.125250	0.613273
	C174	C	0.827334	0.125740	0.383190
	C175	C	0.829094	0.885773	0.613010
	C176	C	0.391147	0.184918	0.879598
	C177	C	0.620631	0.183288	0.118423
	C178	C	0.391257	0.829822	0.119098
	C179	C	0.619670	0.828758	0.879976
	C180	C	0.391174	0.888087	0.176317
	C181	C	0.620312	0.125913	0.176963
	C182	C	0.391378	0.128126	0.820928
	C183	C	0.619951	0.886875	0.822697
	C184	C	0.885915	0.182344	0.382323
	C185	C	0.123922	0.181709	0.613561
	C186	C	0.124459	0.830070	0.383081
	C187	C	0.887618	0.829809	0.613708
	C188	C	0.184393	0.390725	0.877727
	C189	C	0.182560	0.620781	0.118290
	C190	C	0.828473	0.391027	0.118988
	C191	C	0.829341	0.620912	0.879020
	C192	C	0.406283	0.100562	0.597752
	C193	C	0.605230	0.911040	0.598418
	C194	C	0.604652	0.100027	0.401928
	C195	C	0.405804	0.910769	0.399907
	C196	C	0.605931	0.407747	0.093368
	C197	C	0.604662	0.605587	0.904154
	C198	C	0.405473	0.605482	0.093825
	C199	C	0.406932	0.408568	0.904528
	C200	C	0.099677	0.605670	0.398723
	C201	C	0.911796	0.605880	0.598554
	C202	C	0.099474	0.405813	0.598036
	C203	C	0.911989	0.406881	0.399152
	C204	C	0.906338	0.600563	0.097487
	C205	C	0.105555	0.410732	0.097263
	C206	C	0.105282	0.599903	0.900170
	C207	C	0.906501	0.410925	0.900494
	C208	C	0.106332	0.906254	0.593663
	C209	C	0.105304	0.104050	0.403368
	C210	C	0.906953	0.103913	0.591735
	C211	C	0.906292	0.906924	0.403282
	C212	C	0.598937	0.105774	0.899926
	C213	C	0.411631	0.107537	0.099759
	C214	C	0.599867	0.906222	0.099243
	C215	C	0.411609	0.907680	0.900126
	Zn216	Zn	0.505409	0.006394	0.749170
	Zn217	Zn	0.505599	0.006200	0.250594
	Zn218	Zn	0.755924	0.506374	-0.001487
	Zn219	Zn	0.255897	0.505475	-0.001205
	Zn220	Zn	0.006256	0.756562	0.498688
	Zn221	Zn	0.005724	0.254701	0.497765
	Zn222	Zn	0.005610	0.505267	0.749600
	Zn223	Zn	0.005902	0.505404	0.247942
	Zn224	Zn	0.505074	0.756076	-0.000511
	Zn225	Zn	0.505990	0.257755	-0.001125
	Zn226	Zn	0.755834	0.004947	0.498421
	Zn227	Zn	0.255891	0.005854	0.498903
	N228	N	0.420566	0.968593	0.677306
	N229	N	0.590533	0.043769	0.676637
	N230	N	0.590496	0.968182	0.322292
	N231	N	0.421256	0.043656	0.322624
	N232	N	0.684831	0.420617	0.961608
	N233	N	0.685876	0.593987	0.035074
	N234	N	0.327064	0.591874	0.961566
	N235	N	0.326909	0.419527	0.035682
	N236	N	0.968472	0.684256	0.413388
	N237	N	0.043153	0.684765	0.585082
	N238	N	0.968553	0.326353	0.584360
	N239	N	0.042844	0.327166	0.412686
	N240	N	0.968608	0.419486	0.677580
	N241	N	0.042990	0.591219	0.677850
	N242	N	0.968797	0.592199	0.319207
	N243	N	0.042984	0.419903	0.319838
	N244	N	0.418952	0.685211	0.962243
	N245	N	0.588883	0.682480	0.037391
	N246	N	0.591925	0.328301	0.961618
	N247	N	0.422406	0.330471	0.036645
	N248	N	0.684296	0.968335	0.412877
	N249	N	0.685928	0.042251	0.586149
	N250	N	0.327229	0.968821	0.585219
	N251	N	0.326419	0.042596	0.412078
	N252	N	0.920290	0.468420	0.176854
	N253	N	0.089794	0.543244	0.175367
	N254	N	0.090237	0.467484	0.822234
	N255	N	0.920956	0.542951	0.821555
	N256	N	0.185789	0.918730	0.462292
	N257	N	0.184762	0.091881	0.535195
	N258	N	0.825751	0.092306	0.461172
	N259	N	0.826890	0.918961	0.534831
	N260	N	0.468183	0.185366	0.913867
	N261	N	0.543323	0.185425	0.084839
	N262	N	0.468617	0.827857	0.085585
	N263	N	0.542323	0.827416	0.913522
	N264	N	0.468448	0.921566	0.177893
	N265	N	0.542660	0.093202	0.179307
	N266	N	0.468740	0.094283	0.818999
	N267	N	0.542750	0.921166	0.821132
	N268	N	0.920023	0.183538	0.459960
	N269	N	0.090218	0.182431	0.535757
	N270	N	0.090917	0.828533	0.460832
	N271	N	0.921512	0.828926	0.536082
	N272	N	0.186056	0.468586	0.911271
	N273	N	0.185091	0.542661	0.085105
	N274	N	0.826813	0.468859	0.085129
	N275	N	0.827641	0.542982	0.912714
	O276	O	-0.032277	0.027737	-0.003573
	H277	H	-0.022908	0.036987	-0.007110
	H278	H	-0.038808	0.024701	0.002866
	O279	O	0.445159	0.423162	0.548189
	H280	H	0.441367	0.413017	0.548582
	H281	H	0.443692	0.422108	0.536390
	O282	O	0.485642	0.431663	0.411815
	H283	H	0.495189	0.432650	0.401571
	H284	H	0.484609	0.442539	0.404015
	O285	O	0.989700	0.019994	0.966343
	H286	H	0.984570	0.017452	0.965491
	H287	H	0.994916	0.038913	0.960361
	O288	O	1.032215	0.000137	-0.047251
	H289	H	1.036518	-0.005820	-0.053597
	H290	H	1.029773	-0.003741	-0.052840
	O291	O	0.392196	0.423227	0.582094
	H292	H	0.390335	0.424227	0.581108
	H293	H	0.397252	0.425302	0.577522
	O294	O	0.957991	0.014926	0.877933
	H295	H	0.952534	0.023923	0.874664
	H296	H	0.953560	0.027730	0.878127
	O297	O	0.100007	-0.054580	-0.023011
	H298	H	0.094998	-0.061855	-0.026840
	H299	H	0.098006	-0.053539	-0.034700
	O300	O	0.543387	0.489025	0.405202
	H301	H	0.544957	0.493571	0.401739
	H302	H	0.545607	0.500221	0.396564
	O303	O	0.549151	0.529440	0.466937
	H304	H	0.545263	0.528270	0.475351
	H305	H	0.538802	0.528839	0.461475
	O306	O	0.947012	0.039756	-0.037474
	H307	H	0.953606	0.040094	-0.024954
	H308	H	0.949712	0.045976	-0.028251
	O309	O	-0.092980	0.030167	1.004569
	H310	H	-0.093313	0.029891	1.000177
	H311	H	-0.087192	0.014962	1.001938
	O312	O	0.988526	0.945438	1.024109
	H313	H	0.983674	0.942762	1.024901
	H314	H	0.996810	0.938790	1.020165
	O315	O	0.553062	0.490048	0.523317
	H316	H	0.554797	0.491179	0.527754
	H317	H	0.555579	0.477649	0.516842
	O318	O	0.517734	0.550872	0.496098
	H319	H	0.527015	0.550087	0.499279
	H320	H	0.519538	0.552482	0.503093
	O321	O	-0.061456	0.994917	1.023138
	H322	H	-0.057592	0.987736	1.029655
	H323	H	-0.057117	1.002514	1.018773
	O324	O	0.529841	0.521028	0.521322
	H325	H	0.535908	0.518232	0.516266
	H326	H	0.540401	0.515936	0.520946
	O327	O	0.501854	0.539969	0.579985
	H328	H	0.505354	0.529303	0.576611
	H329	H	0.497663	0.531609	0.598221
	O330	O	0.455379	0.553933	0.442462
	H331	H	0.462996	0.563010	0.445899
	H332	H	0.455776	0.554607	0.443801
	O333	O	0.427409	0.504146	0.549814
	H334	H	0.425882	0.495638	0.556414
	H335	H	0.425241	0.508709	0.554178
	O336	O	0.509201	0.445779	0.488274
	H337	H	0.500179	0.451114	0.476897
	H338	H	0.509578	0.449045	0.487491
	O339	O	1.026588	0.934405	-0.092478
	H340	H	1.015541	0.925211	-0.099122
	H341	H	1.020584	0.928180	-0.097105
	O342	O	0.566393	0.419667	0.564749
	H343	H	0.576172	0.404659	0.572817
	H344	H	0.550314	0.427228	0.550501
	O345	O	0.560414	0.465506	0.448192
	H346	H	0.559958	0.459858	0.444155
	H347	H	0.561640	0.469121	0.443575
	O348	O	0.000138	0.016030	-0.027875
	H349	H	-0.003700	0.012941	-0.027073
	H350	H	-0.005763	0.017289	-0.029905
	O351	O	0.043474	1.012194	0.989469
	H352	H	0.048608	0.998715	0.989398
	H353	H	0.053235	1.009136	0.983179
	O354	O	0.531112	0.530213	0.516165
	H355	H	0.541350	0.526249	0.516590
	H356	H	0.524055	0.533952	0.526179
	O357	O	0.011332	1.111987	0.925702
	H358	H	0.007974	1.121471	0.930000
	H359	H	0.001683	1.113126	0.921141
