data_Molecule from HDF5

_cell_length_a		16.293524
_cell_length_b		16.342687
_cell_length_c		16.277780
_cell_angle_alpha	89.928172
_cell_angle_beta	89.963035
_cell_angle_gamma	89.894279
_symmetry_space_group_name_H-M	'P 1'
_symmetry_Int_Tables_number		1

loop_
	_symmetry_equiv_pos_as_xyz
	x,y,z

loop_
	_atom_site_label
	_atom_site_type_symbol
	_atom_site_fract_x
	_atom_site_fract_y
	_atom_site_fract_z
	H0	H	0.402204	0.837302	0.714653
	H1	H	0.597931	0.163632	0.714446
	H2	H	0.598241	0.836914	0.285969
	H3	H	0.402674	0.163885	0.285920
	H4	H	0.713322	0.402356	0.836353
	H5	H	0.713432	0.597080	0.163707
	H6	H	0.286588	0.597026	0.835751
	H7	H	0.286742	0.402440	0.164124
	H8	H	0.836177	0.715984	0.400671
	H9	H	0.163702	0.712730	0.597920
	H10	H	0.836839	0.285665	0.598550
	H11	H	0.162990	0.285271	0.401436
	H12	H	0.836066	0.402604	0.713940
	H13	H	0.163173	0.597292	0.714520
	H14	H	0.836271	0.598154	0.285751
	H15	H	0.163892	0.402903	0.286621
	H16	H	0.400878	0.715065	0.836385
	H17	H	0.597115	0.712553	0.163790
	H18	H	0.597853	0.285344	0.836519
	H19	H	0.402913	0.286518	0.164261
	H20	H	0.714563	0.836478	0.402346
	H21	H	0.714945	0.163663	0.598029
	H22	H	0.286489	0.836851	0.598028
	H23	H	0.284688	0.163007	0.400793
	H24	H	0.902017	0.337357	0.215471
	H25	H	0.096677	0.663531	0.213711
	H26	H	0.097644	0.337165	0.785682
	H27	H	0.902305	0.663199	0.786605
	H28	H	0.213989	0.902336	0.336363
	H29	H	0.215821	0.098031	0.663363
	H30	H	0.786795	0.097241	0.335476
	H31	H	0.787205	0.903137	0.664098
	H32	H	0.336628	0.215541	0.901728
	H33	H	0.663399	0.214074	0.098375
	H34	H	0.336182	0.785613	0.098829
	H35	H	0.662863	0.784303	0.901284
	H36	H	0.336632	0.902432	0.214719
	H37	H	0.664282	0.097170	0.213264
	H38	H	0.336319	0.098771	0.785584
	H39	H	0.663918	0.902665	0.786707
	H40	H	0.901351	0.215359	0.335988
	H41	H	0.098939	0.214575	0.663918
	H42	H	0.098203	0.785672	0.336460
	H43	H	0.902849	0.786274	0.663952
	H44	H	0.214222	0.336620	0.902496
	H45	H	0.212907	0.663933	0.096958
	H46	H	0.785740	0.336440	0.098547
	H47	H	0.785404	0.662848	0.902540
	H48	H	0.402396	0.119005	0.597767
	H49	H	0.599883	0.883146	0.592953
	H50	H	0.591193	0.117447	0.399476
	H51	H	0.399923	0.885054	0.413964
	H52	H	0.599726	0.401208	0.120319
	H53	H	0.607960	0.592234	0.879486
	H54	H	0.414110	0.601525	0.116775
	H55	H	0.402257	0.412871	0.883749
	H56	H	0.116151	0.591348	0.402187
	H57	H	0.882210	0.589559	0.598872
	H58	H	0.115891	0.408949	0.593797
	H59	H	0.882339	0.412432	0.399240
	H60	H	0.117612	0.404527	0.594800
	H61	H	0.881245	0.600864	0.593697
	H62	H	0.116571	0.598014	0.407323
	H63	H	0.880659	0.397945	0.407095
	H64	H	0.394993	0.596442	0.120504
	H65	H	0.585181	0.580890	0.889371
	H66	H	0.594705	0.414819	0.114526
	H67	H	0.413926	0.407460	0.885860
	H68	H	0.589812	0.113498	0.411287
	H69	H	0.593131	0.883414	0.598340
	H70	H	0.413796	0.114720	0.594418
	H71	H	0.404096	0.880498	0.397377
	H72	H	0.914565	0.615171	0.099075
	H73	H	0.087193	0.386373	0.091986
	H74	H	0.094533	0.616394	0.905971
	H75	H	0.906000	0.383157	0.906272
	H76	H	0.097166	0.909652	0.616809
	H77	H	0.092336	0.091312	0.384610
	H78	H	0.908827	0.095676	0.616042
	H79	H	0.915823	0.911688	0.387144
	H80	H	0.616091	0.092923	0.907439
	H81	H	0.386609	0.090622	0.085335
	H82	H	0.616355	0.901436	0.090262
	H83	H	0.383928	0.916869	0.899302
	H84	H	0.615025	0.909198	0.090616
	H85	H	0.383924	0.088324	0.100020
	H86	H	0.616230	0.092718	0.905630
	H87	H	0.379168	0.896139	0.902731
	H88	H	0.904122	0.093920	0.616853
	H89	H	0.091333	0.094661	0.384375
	H90	H	0.089454	0.906202	0.615429
	H91	H	0.908725	0.897713	0.381341
	H92	H	0.092060	0.615725	0.905556
	H93	H	0.098913	0.384521	0.088388
	H94	H	0.906109	0.612634	0.082741
	H95	H	0.906177	0.383810	0.906188
	H96	H	0.404215	0.114883	0.585104
	H97	H	0.592196	0.885775	0.590419
	H98	H	0.600665	0.117858	0.407312
	H99	H	0.416404	0.886809	0.408526
	H100	H	0.585332	0.402684	0.115396
	H101	H	0.584978	0.606733	0.880786
	H102	H	0.408448	0.582890	0.113059
	H103	H	0.404456	0.400285	0.880384
	H104	H	0.114099	0.590490	0.410660
	H105	H	0.885183	0.591552	0.587007
	H106	H	0.116165	0.405223	0.590616
	H107	H	0.886645	0.410585	0.415416
	H108	H	0.896413	0.619460	0.096685
	H109	H	0.095146	0.381271	0.099921
	H110	H	0.093170	0.615343	0.907987
	H111	H	0.906835	0.383498	0.906313
	H112	H	0.095958	0.901991	0.618685
	H113	H	0.094995	0.093430	0.383149
	H114	H	0.907901	0.090480	0.614999
	H115	H	0.899743	0.911856	0.382320
	H116	H	0.616665	0.094157	0.906694
	H117	H	0.380955	0.101638	0.093841
	H118	H	0.617847	0.905057	0.097202
	H119	H	0.387415	0.907734	0.918891
	C120	C	0.378859	0.008309	0.621071
	C121	C	0.622536	0.992056	0.621936
	C122	C	0.622415	0.008193	0.378020
	C123	C	0.378587	0.992106	0.378291
	C124	C	0.621080	0.378360	0.008529
	C125	C	0.621117	0.621399	0.991383
	C126	C	0.377923	0.621780	0.008432
	C127	C	0.378852	0.378539	0.991880
	C128	C	0.007812	0.621901	0.378358
	C129	C	0.991285	0.621677	0.621408
	C130	C	0.008468	0.378226	0.621732
	C131	C	0.991550	0.378556	0.378773
	C132	C	0.877494	0.508270	0.121624
	C133	C	0.121642	0.491942	0.121740
	C134	C	0.121701	0.508396	0.877947
	C135	C	0.877948	0.491154	0.878254
	C136	C	0.122085	0.877714	0.508838
	C137	C	0.121373	0.121138	0.491950
	C138	C	0.878463	0.121809	0.507779
	C139	C	0.879249	0.878624	0.491703
	C140	C	0.508341	0.122005	0.878488
	C141	C	0.491954	0.121136	0.121273
	C142	C	0.508111	0.877743	0.121501
	C143	C	0.491655	0.878695	0.878719
	C144	C	0.381652	0.885884	0.676669
	C145	C	0.618916	0.115100	0.676403
	C146	C	0.619399	0.885570	0.323326
	C147	C	0.381555	0.114856	0.323429
	C148	C	0.675680	0.381482	0.885015
	C149	C	0.675862	0.618002	0.114665
	C150	C	0.323479	0.618585	0.884996
	C151	C	0.324440	0.381723	0.115214
	C152	C	0.884869	0.677333	0.380736
	C153	C	0.114808	0.675301	0.618635
	C154	C	0.885345	0.323614	0.619117
	C155	C	0.114487	0.323327	0.381200
	C156	C	0.885077	0.381766	0.676168
	C157	C	0.114437	0.617950	0.676305
	C158	C	0.884665	0.618813	0.323644
	C159	C	0.114911	0.381930	0.324219
	C160	C	0.380359	0.676981	0.885132
	C161	C	0.618121	0.675494	0.114845
	C162	C	0.618324	0.323429	0.885258
	C163	C	0.382008	0.324004	0.115354
	C164	C	0.677260	0.885566	0.381029
	C165	C	0.677075	0.115101	0.618646
	C166	C	0.324361	0.885642	0.618460
	C167	C	0.323168	0.114711	0.380589
	C168	C	0.881092	0.385657	0.177109
	C169	C	0.117491	0.614922	0.175909
	C170	C	0.118639	0.385652	0.823479
	C171	C	0.881074	0.614522	0.824066
	C172	C	0.176448	0.881153	0.385101
	C173	C	0.176890	0.118187	0.615203
	C174	C	0.824168	0.118611	0.384439
	C175	C	0.824757	0.882022	0.615121
	C176	C	0.385306	0.177580	0.880853
	C177	C	0.614900	0.176016	0.118574
	C178	C	0.384959	0.823637	0.118958
	C179	C	0.614584	0.823088	0.881207
	C180	C	0.385354	0.881462	0.176705
	C181	C	0.615283	0.118168	0.175628
	C182	C	0.385100	0.119417	0.823504
	C183	C	0.614767	0.881497	0.823937
	C184	C	0.881268	0.176994	0.384624
	C185	C	0.119161	0.176241	0.615284
	C186	C	0.119036	0.823208	0.385370
	C187	C	0.881937	0.823995	0.615075
	C188	C	0.176676	0.385458	0.881338
	C189	C	0.175504	0.614987	0.118248
	C190	C	0.823318	0.385309	0.119131
	C191	C	0.823049	0.614109	0.881594
	C192	C	0.400554	0.094148	0.598792
	C193	C	0.601179	0.906280	0.600356
	C194	C	0.600268	0.094207	0.399563
	C195	C	0.400342	0.906200	0.400141
	C196	C	0.599555	0.399936	0.094659
	C197	C	0.599154	0.599769	0.905416
	C198	C	0.399551	0.600173	0.094635
	C199	C	0.400563	0.400264	0.905690
	C200	C	0.093788	0.599764	0.400332
	C201	C	0.905073	0.600394	0.599492
	C202	C	0.094526	0.399936	0.599527
	C203	C	0.905363	0.400442	0.400781
	C204	C	0.899245	0.593862	0.099328
	C205	C	0.100122	0.406116	0.099975
	C206	C	0.099634	0.593824	0.899921
	C207	C	0.899905	0.405625	0.899812
	C208	C	0.100543	0.899472	0.594722
	C209	C	0.099364	0.099487	0.406109
	C210	C	0.900487	0.099818	0.593760
	C211	C	0.901492	0.900574	0.405678
	C212	C	0.594201	0.099770	0.900089
	C213	C	0.405907	0.099712	0.099566
	C214	C	0.594389	0.899048	0.099231
	C215	C	0.405705	0.900611	0.900564
	Zn216	Zn	0.499891	0.000497	0.750176
	Zn217	Zn	0.500541	0.000002	0.249707
	Zn218	Zn	0.749204	0.499464	-0.000213
	Zn219	Zn	0.250150	0.500220	0.000166
	Zn220	Zn	-0.000072	0.749955	0.500212
	Zn221	Zn	-0.000207	0.249873	0.500626
	Zn222	Zn	-0.000548	0.500045	0.749463
	Zn223	Zn	-0.000158	0.500210	0.250245
	Zn224	Zn	0.499619	0.749304	0.000261
	Zn225	Zn	0.500116	0.249725	0.000313
	Zn226	Zn	0.750868	-0.000043	0.499739
	Zn227	Zn	0.249960	-0.000153	0.499962
	N228	N	0.414832	0.963190	0.678320
	N229	N	0.585761	0.037722	0.678519
	N230	N	0.585917	0.962943	0.321486
	N231	N	0.415384	0.037706	0.321930
	N232	N	0.677307	0.414890	0.962504
	N233	N	0.677802	0.585096	0.037002
	N234	N	0.321963	0.584956	0.962530
	N235	N	0.322314	0.414909	0.037464
	N236	N	0.962528	0.679232	0.414041
	N237	N	0.037347	0.677779	0.585292
	N238	N	0.962984	0.321503	0.585907
	N239	N	0.036768	0.321238	0.414422
	N240	N	0.962751	0.414811	0.678013
	N241	N	0.036526	0.585453	0.678220
	N242	N	0.962104	0.585198	0.322135
	N243	N	0.037507	0.415388	0.322571
	N244	N	0.413428	0.679059	0.962918
	N245	N	0.584676	0.677656	0.037164
	N246	N	0.585288	0.321343	0.963066
	N247	N	0.415087	0.321795	0.037612
	N248	N	0.678968	0.962759	0.414436
	N249	N	0.679518	0.037768	0.585497
	N250	N	0.322735	0.962788	0.584541
	N251	N	0.321086	0.037302	0.413907
	N252	N	0.914146	0.462940	0.178708
	N253	N	0.084592	0.537353	0.178095
	N254	N	0.085209	0.462929	0.821421
	N255	N	0.914674	0.537153	0.822058
	N256	N	0.178424	0.914567	0.462560
	N257	N	0.178374	0.084681	0.537699
	N258	N	0.822625	0.084840	0.461736
	N259	N	0.822895	0.915196	0.537296
	N260	N	0.462778	0.179132	0.914180
	N261	N	0.537208	0.177920	0.085554
	N262	N	0.462425	0.821349	0.085481
	N263	N	0.536982	0.821199	0.914531
	N264	N	0.462953	0.914736	0.178051
	N265	N	0.537855	0.084676	0.177482
	N266	N	0.462499	0.085429	0.821973
	N267	N	0.537456	0.915431	0.822388
	N268	N	0.914412	0.178920	0.462520
	N269	N	0.085175	0.177837	0.538056
	N270	N	0.085941	0.821021	0.463074
	N271	N	0.915110	0.822002	0.537445
	N272	N	0.178628	0.462744	0.914694
	N273	N	0.177742	0.537676	0.085077
	N274	N	0.820990	0.462505	0.085432
	N275	N	0.820899	0.536618	0.914436
