data_Molecule from HDF5

_cell_length_a		16.367735
_cell_length_b		16.174347
_cell_length_c		16.219004
_cell_angle_alpha	90.478861
_cell_angle_beta	89.674052
_cell_angle_gamma	89.515182
_symmetry_space_group_name_H-M	'P 1'
_symmetry_Int_Tables_number		1

loop_
	_symmetry_equiv_pos_as_xyz
	x,y,z

loop_
	_atom_site_label
	_atom_site_type_symbol
	_atom_site_fract_x
	_atom_site_fract_y
	_atom_site_fract_z
	H0	H	0.400983	0.839992	0.709547
	H1	H	0.593655	0.169783	0.709908
	H2	H	0.597280	0.840635	0.281426
	H3	H	0.401409	0.170738	0.287409
	H4	H	0.715450	0.401939	0.832187
	H5	H	0.711196	0.606994	0.159715
	H6	H	0.280352	0.607421	0.831691
	H7	H	0.282088	0.408869	0.158404
	H8	H	0.835209	0.719465	0.399151
	H9	H	0.161550	0.719365	0.593610
	H10	H	0.835330	0.293079	0.593629
	H11	H	0.159820	0.285640	0.392747
	H12	H	0.835602	0.408403	0.710234
	H13	H	0.160819	0.604113	0.711814
	H14	H	0.835421	0.604422	0.281843
	H15	H	0.161317	0.402282	0.278130
	H16	H	0.398193	0.721474	0.831115
	H17	H	0.590066	0.717760	0.161141
	H18	H	0.597644	0.288350	0.831788
	H19	H	0.400671	0.297335	0.160879
	H20	H	0.714510	0.840430	0.393403
	H21	H	0.712208	0.168904	0.596173
	H22	H	0.283538	0.840730	0.595643
	H23	H	0.281325	0.168254	0.396425
	H24	H	0.901619	0.339118	0.207400
	H25	H	0.093310	0.669637	0.210009
	H26	H	0.099718	0.340647	0.777836
	H27	H	0.898999	0.670114	0.784464
	H28	H	0.217775	0.900400	0.331925
	H29	H	0.214504	0.108650	0.657905
	H30	H	0.782833	0.103808	0.331060
	H31	H	0.782950	0.905035	0.657699
	H32	H	0.334498	0.220675	0.900569
	H33	H	0.661518	0.220150	0.094711
	H34	H	0.334338	0.794519	0.096529
	H35	H	0.659636	0.787643	0.895549
	H36	H	0.335237	0.910532	0.212176
	H37	H	0.661964	0.103759	0.210645
	H38	H	0.335857	0.108563	0.780485
	H39	H	0.660272	0.901964	0.778988
	H40	H	0.900484	0.217924	0.329990
	H41	H	0.095124	0.221062	0.658405
	H42	H	0.098433	0.788763	0.330242
	H43	H	0.900974	0.795465	0.659737
	H44	H	0.216798	0.341690	0.891947
	H45	H	0.209772	0.670027	0.096802
	H46	H	0.783449	0.340436	0.094729
	H47	H	0.780892	0.668543	0.896315
	H48	H	0.408468	0.117262	0.579668
	H49	H	0.600387	0.886963	0.579574
	H50	H	0.590023	0.121695	0.409427
	H51	H	0.406896	0.883937	0.394985
	H52	H	0.591116	0.413354	0.112938
	H53	H	0.588846	0.599724	0.877811
	H54	H	0.411173	0.595689	0.107778
	H55	H	0.414370	0.410091	0.880004
	H56	H	0.116933	0.603235	0.400223
	H57	H	0.883327	0.595722	0.594426
	H58	H	0.117514	0.402502	0.586819
	H59	H	0.880404	0.407974	0.399798
	H60	H	0.109440	0.416797	0.574845
	H61	H	0.879661	0.607325	0.593312
	H62	H	0.111928	0.595112	0.408258
	H63	H	0.884154	0.412648	0.406741
	H64	H	0.401624	0.610454	0.115573
	H65	H	0.595401	0.594727	0.877846
	H66	H	0.592541	0.413425	0.113246
	H67	H	0.400812	0.408222	0.874851
	H68	H	0.596915	0.124323	0.404504
	H69	H	0.594934	0.884046	0.595928
	H70	H	0.396990	0.124487	0.588835
	H71	H	0.415711	0.891540	0.406610
	H72	H	0.900981	0.623926	0.094235
	H73	H	0.093317	0.386438	0.087593
	H74	H	0.094621	0.624322	0.902388
	H75	H	0.912432	0.387069	0.894965
	H76	H	0.092041	0.918145	0.611124
	H77	H	0.097908	0.078239	0.381915
	H78	H	0.904312	0.107253	0.614085
	H79	H	0.912636	0.905148	0.376801
	H80	H	0.612068	0.094900	0.905457
	H81	H	0.379953	0.118678	0.085839
	H82	H	0.611755	0.914975	0.085451
	H83	H	0.382101	0.916965	0.899749
	H84	H	0.615375	0.913750	0.093318
	H85	H	0.389520	0.087883	0.081624
	H86	H	0.613522	0.095030	0.900641
	H87	H	0.380032	0.910222	0.903106
	H88	H	0.896208	0.094563	0.612661
	H89	H	0.074674	0.095997	0.382792
	H90	H	0.087761	0.911065	0.611211
	H91	H	0.897536	0.908033	0.373172
	H92	H	0.083718	0.621057	0.900414
	H93	H	0.088944	0.389073	0.085088
	H94	H	0.906395	0.620574	0.089288
	H95	H	0.909485	0.390792	0.911042
	H96	H	0.410545	0.122028	0.595211
	H97	H	0.583531	0.890981	0.584434
	H98	H	0.589425	0.123192	0.401094
	H99	H	0.400609	0.887392	0.408840
	H100	H	0.591413	0.414514	0.112823
	H101	H	0.588062	0.592338	0.880899
	H102	H	0.392420	0.594435	0.112794
	H103	H	0.404973	0.421354	0.880595
	H104	H	0.114321	0.592143	0.395862
	H105	H	0.884307	0.601640	0.584444
	H106	H	0.114074	0.420407	0.593656
	H107	H	0.882628	0.416941	0.398310
	H108	H	0.898877	0.622839	0.087322
	H109	H	0.094008	0.388010	0.082734
	H110	H	0.088815	0.619744	0.910908
	H111	H	0.898043	0.384753	0.900698
	H112	H	0.095389	0.910818	0.613070
	H113	H	0.100278	0.105651	0.371669
	H114	H	0.910939	0.093901	0.608017
	H115	H	0.905802	0.920008	0.380157
	H116	H	0.613926	0.099248	0.904635
	H117	H	0.378802	0.098279	0.109466
	H118	H	0.614579	0.906876	0.088036
	H119	H	0.383942	0.916448	0.907549
	C120	C	0.376609	0.012834	0.617332
	C121	C	0.620367	0.996208	0.616878
	C122	C	0.620740	0.014124	0.374782
	C123	C	0.378123	0.996245	0.375620
	C124	C	0.620517	0.383236	0.004391
	C125	C	0.618381	0.625806	0.987363
	C126	C	0.373975	0.628724	0.003482
	C127	C	0.377380	0.385755	0.986892
	C128	C	0.006580	0.625938	0.373884
	C129	C	0.990055	0.628707	0.618766
	C130	C	0.006510	0.384653	0.615365
	C131	C	0.989743	0.382082	0.371922
	C132	C	0.875237	0.513226	0.117988
	C133	C	0.118988	0.496854	0.115507
	C134	C	0.119852	0.513732	0.873364
	C135	C	0.877064	0.496413	0.874343
	C136	C	0.121224	0.882599	0.503411
	C137	C	0.119419	0.125032	0.486546
	C138	C	0.875806	0.126687	0.503138
	C139	C	0.877316	0.883637	0.485683
	C140	C	0.505940	0.126931	0.875111
	C141	C	0.490408	0.129199	0.120024
	C142	C	0.506102	0.884746	0.118434
	C143	C	0.489383	0.883606	0.873937
	C144	C	0.379703	0.889290	0.672393
	C145	C	0.615814	0.120250	0.672799
	C146	C	0.618442	0.889979	0.318520
	C147	C	0.380417	0.120873	0.323059
	C148	C	0.676578	0.383102	0.880924
	C149	C	0.673222	0.625691	0.110741
	C150	C	0.318893	0.627101	0.880260
	C151	C	0.320695	0.388678	0.110024
	C152	C	0.883924	0.681706	0.377887
	C153	C	0.112599	0.682285	0.615023
	C154	C	0.884107	0.330280	0.613903
	C155	C	0.111756	0.324320	0.372553
	C156	C	0.884196	0.387378	0.672140
	C157	C	0.112426	0.624867	0.673588
	C158	C	0.884021	0.624161	0.319941
	C159	C	0.112335	0.382619	0.315727
	C160	C	0.377115	0.684015	0.880260
	C161	C	0.613093	0.681088	0.111556
	C162	C	0.618522	0.326172	0.880873
	C163	C	0.379427	0.332870	0.111107
	C164	C	0.676532	0.889841	0.374406
	C165	C	0.674456	0.119908	0.615943
	C166	C	0.321388	0.889607	0.615712
	C167	C	0.320927	0.119787	0.377577
	C168	C	0.880051	0.388855	0.170943
	C169	C	0.114321	0.620656	0.171831
	C170	C	0.119713	0.390089	0.815716
	C171	C	0.878588	0.620578	0.820912
	C172	C	0.178197	0.882179	0.380406
	C173	C	0.175391	0.126776	0.609331
	C174	C	0.820524	0.124240	0.379938
	C175	C	0.821633	0.886093	0.609002
	C176	C	0.383506	0.183436	0.878789
	C177	C	0.612821	0.182832	0.115987
	C178	C	0.383381	0.831591	0.116521
	C179	C	0.611148	0.825866	0.875381
	C180	C	0.383665	0.889395	0.174112
	C181	C	0.612890	0.125148	0.173890
	C182	C	0.384206	0.127264	0.819111
	C183	C	0.611382	0.882724	0.817157
	C184	C	0.879006	0.181072	0.379425
	C185	C	0.115947	0.182593	0.609743
	C186	C	0.119171	0.826323	0.379773
	C187	C	0.880612	0.831564	0.610113
	C188	C	0.177682	0.390511	0.872756
	C189	C	0.172398	0.620807	0.115543
	C190	C	0.821053	0.389446	0.115122
	C191	C	0.819711	0.619750	0.876519
	C192	C	0.398725	0.098921	0.594603
	C193	C	0.599327	0.909886	0.593548
	C194	C	0.598632	0.100672	0.398067
	C195	C	0.400890	0.909952	0.397194
	C196	C	0.598205	0.406722	0.090625
	C197	C	0.597069	0.602406	0.901289
	C198	C	0.395530	0.606859	0.089640
	C199	C	0.400009	0.407005	0.900686
	C200	C	0.092173	0.603422	0.395224
	C201	C	0.904562	0.607523	0.597309
	C202	C	0.091709	0.406725	0.592025
	C203	C	0.904557	0.405517	0.394801
	C204	C	0.895898	0.600040	0.096540
	C205	C	0.098262	0.410219	0.091999
	C206	C	0.096081	0.599620	0.897460
	C207	C	0.899922	0.409942	0.895883
	C208	C	0.098444	0.906331	0.589492
	C209	C	0.097502	0.100496	0.400943
	C210	C	0.897555	0.105040	0.589187
	C211	C	0.899091	0.904700	0.398995
	C212	C	0.591148	0.103251	0.897138
	C213	C	0.404871	0.107810	0.098771
	C214	C	0.591850	0.905515	0.095668
	C215	C	0.403978	0.907639	0.896777
	Zn216	Zn	0.497898	0.004984	0.745405
	Zn217	Zn	0.498815	0.006059	0.248532
	Zn218	Zn	0.748207	0.504798	-0.004733
	Zn219	Zn	0.247286	0.505879	-0.005190
	Zn220	Zn	-0.001620	0.756069	0.495224
	Zn221	Zn	-0.001987	0.254419	0.494428
	Zn222	Zn	-0.001913	0.505095	0.746077
	Zn223	Zn	-0.001548	0.504054	0.244268
	Zn224	Zn	0.496797	0.755474	-0.004242
	Zn225	Zn	0.498201	0.256873	-0.003124
	Zn226	Zn	0.748851	0.004015	0.494553
	Zn227	Zn	0.248935	0.004127	0.495234
	N228	N	0.413101	0.967079	0.673758
	N229	N	0.583149	0.042296	0.673646
	N230	N	0.584313	0.968102	0.318724
	N231	N	0.415235	0.043179	0.321880
	N232	N	0.677837	0.417661	0.958645
	N233	N	0.676407	0.591862	0.032601
	N234	N	0.316660	0.593767	0.957924
	N235	N	0.319376	0.420853	0.031823
	N236	N	0.961135	0.682606	0.411036
	N237	N	0.035502	0.684973	0.581928
	N238	N	0.961002	0.328473	0.579297
	N239	N	0.034795	0.323826	0.406817
	N240	N	0.961487	0.420204	0.673356
	N241	N	0.035174	0.592470	0.676103
	N242	N	0.961210	0.589999	0.317518
	N243	N	0.035308	0.417428	0.314983
	N244	N	0.410616	0.685195	0.958022
	N245	N	0.579582	0.681273	0.033987
	N246	N	0.584214	0.326201	0.958712
	N247	N	0.413996	0.330869	0.033606
	N248	N	0.677976	0.967877	0.408667
	N249	N	0.677505	0.041825	0.581959
	N250	N	0.319365	0.967488	0.582305
	N251	N	0.319342	0.041204	0.409472
	N252	N	0.913154	0.466870	0.172917
	N253	N	0.081769	0.542433	0.171856
	N254	N	0.084456	0.467637	0.816040
	N255	N	0.913527	0.542803	0.819240
	N256	N	0.179640	0.916275	0.458406
	N257	N	0.177390	0.091266	0.531933
	N258	N	0.818349	0.091242	0.457910
	N259	N	0.819403	0.917722	0.530507
	N260	N	0.460307	0.183184	0.913042
	N261	N	0.535613	0.185568	0.083361
	N262	N	0.460516	0.828465	0.082543
	N263	N	0.534110	0.826136	0.909895
	N264	N	0.460999	0.921833	0.175236
	N265	N	0.535682	0.092270	0.176429
	N266	N	0.461275	0.092879	0.816719
	N267	N	0.534597	0.917888	0.816099
	N268	N	0.912642	0.182729	0.456918
	N269	N	0.082055	0.181785	0.532324
	N270	N	0.084146	0.826690	0.457286
	N271	N	0.914598	0.829866	0.532341
	N272	N	0.178063	0.468322	0.907465
	N273	N	0.175542	0.542730	0.081391
	N274	N	0.817737	0.467892	0.083090
	N275	N	0.818851	0.541571	0.909168
	O276	O	-0.015136	-0.039733	0.058413
	H277	H	-0.025430	-0.038833	0.051270
	H278	H	-0.005207	-0.036032	0.068397
	O279	O	0.385036	0.456415	0.602973
	H280	H	0.385744	0.464966	0.610150
	H281	H	0.395785	0.447061	0.593748
	O282	O	0.635600	0.479992	0.496680
	H283	H	0.635569	0.471301	0.482868
	H284	H	0.641130	0.494035	0.501126
	O285	O	0.020991	-0.005911	1.022657
	H286	H	0.029488	0.007062	1.021455
	H287	H	0.014258	-0.007135	1.016970
	O288	O	0.434393	0.503967	0.484805
	H289	H	0.442547	0.498192	0.482357
	H290	H	0.436867	0.504476	0.475419
	O291	O	1.007907	0.950735	0.901920
	H292	H	1.018613	0.931112	0.888940
	H293	H	1.007299	0.958255	0.895717
	O294	O	1.062960	0.966748	0.885759
	H295	H	1.052749	0.957409	0.876394
	H296	H	1.062600	0.955404	0.884140
	O297	O	0.983840	-0.008553	0.911397
	H298	H	0.990831	-0.004828	0.902577
	H299	H	0.990763	-0.002833	0.905623
	O300	O	0.481022	0.548668	0.579796
	H301	H	0.460875	0.553426	0.578849
	H302	H	0.484115	0.541514	0.589711
	O303	O	0.992479	0.014041	-0.056532
	H304	H	1.000273	0.011391	-0.043697
	H305	H	0.985709	0.010121	-0.058911
	O306	O	0.074089	0.978422	0.971503
	H307	H	0.075253	0.977427	0.963135
	H308	H	0.065204	0.970698	0.969268
	O309	O	0.541603	0.600239	0.534630
	H310	H	0.545082	0.609588	0.528931
	H311	H	0.544434	0.590293	0.552232
	O312	O	1.045000	0.044198	1.003773
	H313	H	1.040821	0.047412	1.006118
	H314	H	1.041383	0.040772	1.001493
	O315	O	0.537917	0.559093	0.534005
	H316	H	0.537434	0.556605	0.534012
	H317	H	0.526812	0.563783	0.534820
	O318	O	0.034964	0.971813	0.925419
	H319	H	0.046052	0.967985	0.913348
	H320	H	0.024778	0.970479	0.930522
	O321	O	1.030916	1.047612	1.016283
	H322	H	1.028958	1.050350	1.015159
	H323	H	1.041169	1.044068	1.010976
	O324	O	0.504780	0.448461	0.495389
	H325	H	0.503455	0.454412	0.503354
	H326	H	0.500273	0.460740	0.495743
	O327	O	0.422268	0.559296	0.424579
	H328	H	0.427280	0.542015	0.423391
	H329	H	0.419784	0.557018	0.428584
	O330	O	1.053194	-0.030642	0.948573
	H331	H	1.048436	-0.030574	0.963403
	H332	H	1.062448	-0.043331	0.957878
	O333	O	0.967216	1.055472	-0.036586
	H334	H	0.980572	1.065331	-0.033549
	H335	H	0.971004	1.048077	-0.026651
	O336	O	0.611710	0.537807	0.517061
	H337	H	0.594233	0.542410	0.523593
	H338	H	0.610990	0.540680	0.503819
	O339	O	0.518274	0.528264	0.478835
	H340	H	0.526057	0.512945	0.486145
	H341	H	0.502348	0.534891	0.487708
	O342	O	-0.004989	1.021954	0.028865
	H343	H	-0.016069	1.018504	0.030265
	H344	H	0.007086	1.025744	0.028017
	O345	O	-0.051825	0.046971	-0.076300
	H346	H	-0.042115	0.066296	-0.076135
	H347	H	-0.062667	0.046911	-0.077380
	O348	O	0.516106	0.434621	0.361470
	H349	H	0.520160	0.425860	0.364366
	H350	H	0.522711	0.433291	0.356791
	O351	O	0.541126	0.464612	0.412398
	H352	H	0.550245	0.465942	0.411232
	H353	H	0.545263	0.467834	0.419955
	O354	O	0.565406	0.522936	0.550867
	H355	H	0.569030	0.524010	0.540120
	H356	H	0.578471	0.530554	0.556588
	O357	O	0.456278	0.461606	0.398592
	H358	H	0.458348	0.464161	0.388784
	H359	H	0.464917	0.459526	0.392078
	O360	O	-0.007368	0.030918	0.070334
	H361	H	-0.015630	0.024077	0.076494
	H362	H	-0.004916	0.028068	0.067502
	O363	O	0.407313	0.465698	0.592936
	H364	H	0.404951	0.465905	0.582985
	H365	H	0.409970	0.463254	0.606778
	O366	O	-0.037427	-0.057449	1.002073
	H367	H	-0.031253	-0.051535	0.992508
	H368	H	-0.035176	-0.048332	1.005913
	O369	O	0.541293	0.480144	0.504607
	H370	H	0.540651	0.479263	0.500301
	H371	H	0.539210	0.477223	0.507975
