data_Molecule from HDF5

_cell_length_a		16.470427
_cell_length_b		16.181799
_cell_length_c		16.258286
_cell_angle_alpha	90.133145
_cell_angle_beta	90.035202
_cell_angle_gamma	89.782558
_symmetry_space_group_name_H-M	'P 1'
_symmetry_Int_Tables_number		1

loop_
	_symmetry_equiv_pos_as_xyz
	x,y,z

loop_
	_atom_site_label
	_atom_site_type_symbol
	_atom_site_fract_x
	_atom_site_fract_y
	_atom_site_fract_z
	H0	H	0.381861	0.832395	0.712171
	H1	H	0.578664	0.160238	0.711488
	H2	H	0.583318	0.833519	0.279262
	H3	H	0.380273	0.160139	0.283945
	H4	H	0.699236	0.389187	0.835038
	H5	H	0.697575	0.598386	0.157148
	H6	H	0.258659	0.600417	0.836110
	H7	H	0.263172	0.391996	0.158620
	H8	H	0.819191	0.712122	0.397134
	H9	H	0.140711	0.712109	0.602180
	H10	H	0.817248	0.279050	0.595285
	H11	H	0.140242	0.274971	0.397136
	H12	H	0.819295	0.390921	0.716064
	H13	H	0.140416	0.594472	0.717317
	H14	H	0.819180	0.595265	0.280104
	H15	H	0.140837	0.389086	0.278900
	H16	H	0.378439	0.710856	0.833439
	H17	H	0.579355	0.711133	0.157956
	H18	H	0.578113	0.280260	0.833153
	H19	H	0.383044	0.282315	0.160488
	H20	H	0.697656	0.833239	0.395029
	H21	H	0.697504	0.157925	0.600663
	H22	H	0.263038	0.832573	0.602160
	H23	H	0.259721	0.156066	0.394378
	H24	H	0.883535	0.328648	0.208836
	H25	H	0.079853	0.656653	0.215683
	H26	H	0.081148	0.329437	0.782239
	H27	H	0.878163	0.655672	0.778911
	H28	H	0.201222	0.886583	0.337900
	H29	H	0.199921	0.100979	0.657781
	H30	H	0.757651	0.102187	0.337914
	H31	H	0.759823	0.891328	0.659173
	H32	H	0.318292	0.213401	0.896523
	H33	H	0.641013	0.212296	0.096402
	H34	H	0.320062	0.776738	0.099913
	H35	H	0.639123	0.774128	0.891303
	H36	H	0.320952	0.892869	0.217599
	H37	H	0.640368	0.100242	0.216558
	H38	H	0.319529	0.101174	0.778096
	H39	H	0.640265	0.893331	0.777845
	H40	H	0.879524	0.207941	0.333885
	H41	H	0.078182	0.209129	0.660182
	H42	H	0.081001	0.775882	0.335366
	H43	H	0.878705	0.778071	0.660759
	H44	H	0.198463	0.331607	0.894794
	H45	H	0.198954	0.655873	0.103744
	H46	H	0.763194	0.331320	0.098993
	H47	H	0.760352	0.655175	0.891232
	H48	H	0.388177	0.111075	0.584597
	H49	H	0.573931	0.880147	0.581828
	H50	H	0.568739	0.114593	0.400161
	H51	H	0.383504	0.878512	0.408135
	H52	H	0.570709	0.400138	0.112650
	H53	H	0.569196	0.577516	0.881942
	H54	H	0.386578	0.579833	0.110958
	H55	H	0.384081	0.404167	0.879122
	H56	H	0.094308	0.584393	0.405864
	H57	H	0.873606	0.576372	0.575720
	H58	H	0.088028	0.405918	0.576471
	H59	H	0.866588	0.404602	0.406075
	H60	H	0.095501	0.409163	0.602079
	H61	H	0.864732	0.576883	0.601451
	H62	H	0.093581	0.583758	0.409456
	H63	H	0.863809	0.402114	0.397101
	H64	H	0.394371	0.586252	0.110455
	H65	H	0.566672	0.587900	0.880184
	H66	H	0.578254	0.404482	0.115123
	H67	H	0.387528	0.408759	0.881489
	H68	H	0.565122	0.108583	0.413052
	H69	H	0.575043	0.877091	0.590976
	H70	H	0.386835	0.112725	0.587063
	H71	H	0.392933	0.877795	0.400963
	H72	H	0.885834	0.612194	0.092801
	H73	H	0.079081	0.376154	0.087520
	H74	H	0.069714	0.609135	0.909161
	H75	H	0.890255	0.377076	0.904928
	H76	H	0.069007	0.902611	0.612571
	H77	H	0.073086	0.089651	0.378899
	H78	H	0.885834	0.077194	0.611923
	H79	H	0.890505	0.896853	0.380948
	H80	H	0.595529	0.092827	0.907697
	H81	H	0.365936	0.090515	0.088036
	H82	H	0.592635	0.906234	0.086156
	H83	H	0.368786	0.914665	0.903820
	H84	H	0.593275	0.904786	0.087833
	H85	H	0.366462	0.086079	0.088947
	H86	H	0.591748	0.082007	0.907596
	H87	H	0.362302	0.900519	0.897470
	H88	H	0.895226	0.087843	0.611928
	H89	H	0.076339	0.075234	0.382791
	H90	H	0.074323	0.905067	0.614475
	H91	H	0.880922	0.907371	0.381593
	H92	H	0.069651	0.609167	0.908635
	H93	H	0.068294	0.377437	0.092223
	H94	H	0.892776	0.608850	0.087644
	H95	H	0.889726	0.378885	0.909475
	H96	H	0.389603	0.111336	0.587370
	H97	H	0.566278	0.880872	0.588354
	H98	H	0.577939	0.113866	0.411011
	H99	H	0.394178	0.881928	0.412711
	H100	H	0.572058	0.409380	0.111084
	H101	H	0.576740	0.583772	0.877351
	H102	H	0.385185	0.589913	0.114444
	H103	H	0.390543	0.402725	0.880827
	H104	H	0.092379	0.580849	0.405931
	H105	H	0.862999	0.599356	0.586638
	H106	H	0.097784	0.385215	0.590012
	H107	H	0.863327	0.395665	0.404582
	H108	H	0.884591	0.609444	0.083480
	H109	H	0.070342	0.380551	0.080389
	H110	H	0.068757	0.609700	0.908232
	H111	H	0.886084	0.376841	0.907366
	H112	H	0.070581	0.907734	0.611104
	H113	H	0.063141	0.080842	0.384683
	H114	H	0.881698	0.090461	0.616972
	H115	H	0.893957	0.909882	0.386607
	H116	H	0.595664	0.086868	0.898129
	H117	H	0.364283	0.089341	0.092599
	H118	H	0.593702	0.904077	0.085832
	H119	H	0.366976	0.900985	0.913095
	C120	C	0.358400	0.004113	0.617921
	C121	C	0.601097	0.987162	0.617765
	C122	C	0.601489	0.004849	0.376868
	C123	C	0.359029	0.986651	0.376340
	C124	C	0.602491	0.373625	0.005342
	C125	C	0.600732	0.615122	0.986760
	C126	C	0.357467	0.616950	0.005144
	C127	C	0.358955	0.374828	0.988165
	C128	C	-0.012399	0.614544	0.376606
	C129	C	0.972359	0.615239	0.620026
	C130	C	-0.012502	0.370906	0.618843
	C131	C	0.971013	0.369981	0.373421
	C132	C	0.858532	0.502181	0.117630
	C133	C	0.102334	0.485290	0.118845
	C134	C	0.100698	0.502040	0.877264
	C135	C	0.857920	0.484740	0.875138
	C136	C	0.102208	0.872336	0.506342
	C137	C	0.100723	0.114201	0.488761
	C138	C	0.857640	0.115799	0.506517
	C139	C	0.858242	0.873543	0.489814
	C140	C	0.488219	0.118697	0.874061
	C141	C	0.471852	0.118595	0.119507
	C142	C	0.488027	0.873815	0.118534
	C143	C	0.471696	0.874143	0.874064
	C144	C	0.360794	0.881512	0.675092
	C145	C	0.598924	0.110618	0.674136
	C146	C	0.601952	0.882279	0.318552
	C147	C	0.359969	0.110172	0.320853
	C148	C	0.659605	0.371818	0.883295
	C149	C	0.658364	0.617055	0.108644
	C150	C	0.298591	0.618256	0.884034
	C151	C	0.302535	0.373980	0.110267
	C152	C	0.867124	0.672926	0.377327
	C153	C	0.092629	0.673210	0.620970
	C154	C	0.865981	0.315923	0.616531
	C155	C	0.092009	0.313012	0.376143
	C156	C	0.866803	0.371803	0.676426
	C157	C	0.092758	0.614485	0.678216
	C158	C	0.867121	0.614678	0.319202
	C159	C	0.092112	0.369783	0.317106
	C160	C	0.358051	0.673508	0.882603
	C161	C	0.599597	0.672978	0.109211
	C162	C	0.599316	0.317512	0.882201
	C163	C	0.361833	0.319117	0.111172
	C164	C	0.659353	0.882452	0.375668
	C165	C	0.658194	0.109636	0.619162
	C166	C	0.301685	0.881583	0.619963
	C167	C	0.300061	0.108319	0.375865
	C168	C	0.861758	0.378583	0.172532
	C169	C	0.100737	0.607751	0.177286
	C170	C	0.100512	0.378848	0.820370
	C171	C	0.858190	0.606884	0.817036
	C172	C	0.161499	0.868875	0.385783
	C173	C	0.159699	0.117621	0.609760
	C174	C	0.798579	0.118378	0.385320
	C175	C	0.799638	0.872727	0.611156
	C176	C	0.367004	0.175801	0.876089
	C177	C	0.592540	0.174987	0.117630
	C178	C	0.368184	0.815865	0.119090
	C179	C	0.591429	0.814078	0.872782
	C180	C	0.368556	0.873745	0.177736
	C181	C	0.592295	0.118640	0.177077
	C182	C	0.367544	0.119772	0.816983
	C183	C	0.592102	0.873905	0.816525
	C184	C	0.859374	0.171021	0.383319
	C185	C	0.098989	0.171635	0.611087
	C186	C	0.101613	0.813830	0.384452
	C187	C	0.858796	0.816339	0.611852
	C188	C	0.159281	0.380079	0.876122
	C189	C	0.159657	0.607417	0.121281
	C190	C	0.801926	0.379934	0.117531
	C191	C	0.799498	0.606665	0.873067
	C192	C	0.381303	0.089496	0.593389
	C193	C	0.578499	0.901673	0.594041
	C194	C	0.577614	0.090287	0.400938
	C195	C	0.383245	0.901468	0.400288
	C196	C	0.580168	0.397591	0.090761
	C197	C	0.577495	0.590421	0.901915
	C198	C	0.381730	0.592562	0.089781
	C199	C	0.380790	0.398329	0.902611
	C200	C	0.071504	0.589990	0.400198
	C201	C	0.888759	0.591298	0.595346
	C202	C	0.072066	0.393555	0.596250
	C203	C	0.886375	0.393930	0.395880
	C204	C	0.881095	0.587819	0.094643
	C205	C	0.079288	0.400391	0.093952
	C206	C	0.076345	0.587166	0.901581
	C207	C	0.881820	0.399651	0.899856
	C208	C	0.078146	0.897765	0.590866
	C209	C	0.077488	0.089081	0.404093
	C210	C	0.880794	0.092153	0.591453
	C211	C	0.881550	0.897665	0.405070
	C212	C	0.572514	0.094407	0.897406
	C213	C	0.387448	0.095300	0.096599
	C214	C	0.571503	0.898030	0.093843
	C215	C	0.388010	0.898396	0.897800
	Zn216	Zn	0.479704	-0.003108	0.745231
	Zn217	Zn	0.480849	-0.003662	0.248480
	Zn218	Zn	0.729848	0.494656	-0.003750
	Zn219	Zn	0.229897	0.494862	-0.003028
	Zn220	Zn	-0.019677	0.745031	0.498505
	Zn221	Zn	-0.021138	0.242257	0.496660
	Zn222	Zn	-0.019770	0.492339	0.748462
	Zn223	Zn	-0.019950	0.493219	0.245799
	Zn224	Zn	0.479648	0.743999	-0.004586
	Zn225	Zn	0.479784	0.246932	-0.003615
	Zn226	Zn	0.729900	-0.004065	0.497420
	Zn227	Zn	0.230084	-0.006064	0.497858
	N228	N	0.395052	0.958861	0.674039
	N229	N	0.564086	0.033574	0.673367
	N230	N	0.566814	0.959373	0.319021
	N231	N	0.395600	0.033244	0.320783
	N232	N	0.661864	0.405511	0.960870
	N233	N	0.659435	0.582218	0.031494
	N234	N	0.297637	0.584281	0.961548
	N235	N	0.300548	0.407700	0.032774
	N236	N	0.943184	0.672927	0.412340
	N237	N	0.016874	0.673615	0.585395
	N238	N	0.941861	0.315491	0.581269
	N239	N	0.015480	0.312834	0.409996
	N240	N	0.943459	0.405239	0.677941
	N241	N	0.016930	0.579087	0.677638
	N242	N	0.943129	0.579278	0.318576
	N243	N	0.015832	0.404533	0.315543
	N244	N	0.393889	0.672799	0.958797
	N245	N	0.564449	0.672102	0.032403
	N246	N	0.564473	0.318203	0.959133
	N247	N	0.396444	0.319666	0.034219
	N248	N	0.659078	0.959738	0.411383
	N249	N	0.659951	0.031876	0.584956
	N250	N	0.300144	0.958914	0.585171
	N251	N	0.299150	0.030447	0.409615
	N252	N	0.896384	0.455631	0.172707
	N253	N	0.065743	0.530894	0.175927
	N254	N	0.064628	0.455719	0.821016
	N255	N	0.893888	0.529956	0.818304
	N256	N	0.161948	0.904405	0.462695
	N257	N	0.160610	0.082359	0.532797
	N258	N	0.797285	0.084612	0.462867
	N259	N	0.799147	0.907827	0.534229
	N260	N	0.443231	0.175348	0.910754
	N261	N	0.516706	0.174968	0.082306
	N262	N	0.443653	0.815725	0.082894
	N263	N	0.515574	0.814131	0.907967
	N264	N	0.444148	0.909124	0.177417
	N265	N	0.515984	0.084371	0.178436
	N266	N	0.443895	0.085001	0.815409
	N267	N	0.516564	0.910482	0.817056
	N268	N	0.895427	0.169665	0.459536
	N269	N	0.062877	0.169720	0.534835
	N270	N	0.065596	0.815688	0.460627
	N271	N	0.894633	0.817081	0.535560
	N272	N	0.159512	0.457644	0.910955
	N273	N	0.160806	0.530347	0.085626
	N274	N	0.799794	0.457970	0.084024
	N275	N	0.799521	0.529805	0.908707
	O276	O	0.191469	-0.150481	-0.001126
	H277	H	0.184449	-0.141390	-0.017096
	H278	H	0.204625	-0.153714	-0.002349
	O279	O	-0.009671	0.965650	0.180517
	H280	H	-0.015989	0.968112	0.174687
	H281	H	-0.004038	0.955339	0.174285
	O282	O	0.904933	0.080687	-0.159999
	H283	H	0.894946	0.088457	-0.163526
	H284	H	0.899347	0.096644	-0.151609
	O285	O	-0.006759	1.037382	0.100051
	H286	H	-0.001637	1.043683	0.102611
	H287	H	-0.001052	1.042345	0.100398
	O288	O	0.573229	0.560389	0.514908
	H289	H	0.582106	0.550382	0.518134
	H290	H	0.575229	0.557755	0.508154
	O291	O	1.097717	0.031347	1.070208
	H292	H	1.107468	0.039661	1.054882
	H293	H	1.096097	0.023102	1.069357
	O294	O	1.369976	0.621800	0.422921
	H295	H	1.377822	0.615899	0.428056
	H296	H	1.369975	0.630446	0.436562
	O297	O	-0.120604	-0.197894	0.157563
	H298	H	-0.112996	-0.206438	0.157307
	H299	H	-0.107018	-0.198426	0.143801
	O300	O	0.948113	1.084336	0.937851
	H301	H	0.951858	1.088550	0.926983
	H302	H	0.944335	1.078260	0.942987
	O303	O	-0.012229	0.901759	0.905830
	H304	H	-0.014605	0.895398	0.899226
	H305	H	-0.006548	0.901272	0.917492
	O306	O	0.391746	0.584012	0.443312
	H307	H	0.394112	0.591140	0.442363
	H308	H	0.400257	0.587924	0.453489
	O309	O	1.179843	-0.025452	-0.205015
	H310	H	1.177567	-0.031882	-0.210267
	H311	H	1.193214	-0.032329	-0.218950
	O312	O	-0.111281	-0.111603	0.904617
	H313	H	-0.111720	-0.118219	0.903705
	H314	H	-0.118811	-0.109172	0.905909
	O315	O	0.514721	0.466258	0.627701
	H316	H	0.518631	0.458182	0.625306
	H317	H	0.519195	0.455501	0.630361
	O318	O	0.438515	0.360712	0.551898
	H319	H	0.423816	0.368761	0.552793
	H320	H	0.437401	0.354130	0.562729
	O321	O	0.439854	0.447900	0.524260
	H322	H	0.439820	0.444188	0.515528
	H323	H	0.435593	0.453391	0.525730
	O324	O	0.481876	0.493271	0.440718
	H325	H	0.483811	0.493687	0.439469
	H326	H	0.474369	0.502815	0.450260
	O327	O	0.073265	1.052289	1.009518
	H328	H	0.068501	1.046233	1.012501
	H329	H	0.063326	1.041524	1.010337
	O330	O	0.438634	0.439812	0.532763
	H331	H	0.423875	0.431983	0.529576
	H332	H	0.433448	0.448446	0.543877
	O333	O	0.053913	0.943133	1.101237
	H334	H	0.061545	0.943072	1.102114
	H335	H	0.045282	0.939836	1.089605
	O336	O	1.682252	0.777204	0.254808
	H337	H	1.676931	0.775161	0.266410
	H338	H	1.688979	0.761302	0.246738
	O339	O	0.454978	0.565417	0.466198
	H340	H	0.451036	0.578455	0.462707
	H341	H	0.467955	0.570118	0.475823
	O342	O	0.895080	-0.058700	0.006014
	H343	H	0.893684	-0.058122	0.011759
	H344	H	0.898308	-0.054370	0.001223
	O345	O	0.461598	0.493432	0.592746
	H346	H	0.457884	0.497537	0.586080
	H347	H	0.458083	0.501961	0.597535
	O348	O	1.097099	0.916476	1.012237
	H349	H	1.098952	0.933017	1.004765
	H350	H	1.099290	0.899895	1.021712
	O351	O	1.484577	1.580742	0.497627
	H352	H	1.490815	1.586474	0.497333
	H353	H	1.481433	1.582831	0.499335
	O354	O	0.850865	-0.008223	0.901597
	H355	H	0.866016	0.013488	0.900273
	H356	H	0.835985	-0.000450	0.891852
	O357	O	0.421444	0.484228	0.431975
	H358	H	0.427839	0.490333	0.425968
	H359	H	0.421700	0.488077	0.420059
	O360	O	-0.034360	0.069040	-0.103155
	H361	H	-0.023666	0.075909	-0.106460
	H362	H	-0.038841	0.075407	-0.110749
	O363	O	0.576771	0.499826	0.533837
	H364	H	0.575066	0.481762	0.528866
	H365	H	0.577505	0.495257	0.534336
	O366	O	0.510794	0.423714	0.526812
	H367	H	0.520031	0.444884	0.524653
	H368	H	0.507490	0.428944	0.525321
	O369	O	0.327356	0.518119	0.317812
	H370	H	0.315457	0.509941	0.296019
	H371	H	0.323160	0.533367	0.334466
	O372	O	-0.186303	0.999304	0.993450
	H373	H	-0.192736	1.002027	1.010723
	H374	H	-0.185761	1.010886	0.986217
	O375	O	1.497806	0.503959	0.474397
	H376	H	1.488554	0.496245	0.482747
	H377	H	1.502806	0.511355	0.463621
	O378	O	0.643946	0.491228	0.494342
	H379	H	0.644533	0.491980	0.490481
	H380	H	0.647071	0.496275	0.494149
	O381	O	0.871930	0.032467	0.066956
	H382	H	0.886380	0.029059	0.067489
	H383	H	0.873263	0.029913	0.075317
	O384	O	0.117358	1.104275	0.126603
	H385	H	0.123267	1.107951	0.128792
	H386	H	0.133423	1.093334	0.132296
	O387	O	0.955064	-0.056542	0.854038
	H388	H	0.954076	-0.061937	0.865879
	H389	H	0.936503	-0.053253	0.851765
	O390	O	0.008203	1.140126	0.127072
	H391	H	0.018025	1.136305	0.135796
	H392	H	0.018083	1.136330	0.135927
	O393	O	1.372880	1.512079	0.522978
	H394	H	1.368756	1.504856	0.517641
	H395	H	1.381300	1.513789	0.517174
	O396	O	0.566838	0.494424	0.546100
	H397	H	0.579428	0.471527	0.537920
	H398	H	0.575014	0.488110	0.541150
	O399	O	-0.174262	0.981151	0.946765
	H400	H	-0.184446	0.985591	0.960612
	H401	H	-0.179827	0.977487	0.952592
	O402	O	1.009678	0.958352	0.946421
	H403	H	1.009867	0.961369	0.944728
	H404	H	1.010169	0.963587	0.942153
	O405	O	0.051874	0.876930	-0.053797
	H406	H	0.056537	0.875012	-0.054421
	H407	H	0.040624	0.862048	-0.057929
