data_Molecule from HDF5

_cell_length_a		16.254357
_cell_length_b		16.302880
_cell_length_c		16.352575
_cell_angle_alpha	89.920249
_cell_angle_beta	90.060577
_cell_angle_gamma	90.048357
_symmetry_space_group_name_H-M	'P 1'
_symmetry_Int_Tables_number		1

loop_
	_symmetry_equiv_pos_as_xyz
	x,y,z

loop_
	_atom_site_label
	_atom_site_type_symbol
	_atom_site_fract_x
	_atom_site_fract_y
	_atom_site_fract_z
	H0	H	0.403199	0.836246	0.713083
	H1	H	0.598595	0.163656	0.713974
	H2	H	0.598840	0.836801	0.286193
	H3	H	0.401805	0.163695	0.284744
	H4	H	0.713996	0.402195	0.836809
	H5	H	0.713816	0.596747	0.163522
	H6	H	0.286377	0.596778	0.836908
	H7	H	0.286432	0.402687	0.163658
	H8	H	0.835968	0.713391	0.401730
	H9	H	0.164025	0.713666	0.597199
	H10	H	0.836503	0.286088	0.597374
	H11	H	0.164456	0.287193	0.402455
	H12	H	0.836623	0.400866	0.715228
	H13	H	0.164063	0.598415	0.714134
	H14	H	0.835827	0.597658	0.285409
	H15	H	0.164223	0.402383	0.285484
	H16	H	0.401357	0.714720	0.837560
	H17	H	0.598567	0.714348	0.163448
	H18	H	0.597507	0.285818	0.836261
	H19	H	0.401595	0.284983	0.162922
	H20	H	0.712747	0.836380	0.403834
	H21	H	0.714141	0.163607	0.597109
	H22	H	0.287719	0.836775	0.596293
	H23	H	0.286490	0.164145	0.402722
	H24	H	0.902466	0.336596	0.213972
	H25	H	0.097321	0.664016	0.213441
	H26	H	0.098428	0.337205	0.786008
	H27	H	0.900814	0.663504	0.785523
	H28	H	0.214630	0.902106	0.336663
	H29	H	0.213320	0.096325	0.663712
	H30	H	0.785973	0.096989	0.336308
	H31	H	0.786592	0.902664	0.663308
	H32	H	0.335346	0.212284	0.902647
	H33	H	0.664033	0.212792	0.096494
	H34	H	0.335932	0.786589	0.097112
	H35	H	0.664035	0.786164	0.902806
	H36	H	0.336531	0.901118	0.214908
	H37	H	0.664292	0.097910	0.213116
	H38	H	0.336330	0.097481	0.785592
	H39	H	0.663691	0.902204	0.786024
	H40	H	0.901306	0.215083	0.336846
	H41	H	0.099038	0.214726	0.662652
	H42	H	0.097850	0.785758	0.335963
	H43	H	0.902831	0.785025	0.662623
	H44	H	0.212955	0.336075	0.903709
	H45	H	0.214477	0.664192	0.097824
	H46	H	0.786130	0.336216	0.097852
	H47	H	0.786087	0.663334	0.902706
	H48	H	0.411696	0.115139	0.591717
	H49	H	0.598135	0.882263	0.594529
	H50	H	0.591135	0.117100	0.403126
	H51	H	0.396895	0.883512	0.414235
	H52	H	0.591737	0.407632	0.114381
	H53	H	0.588966	0.599546	0.883318
	H54	H	0.413320	0.599238	0.116356
	H55	H	0.404530	0.401064	0.882295
	H56	H	0.117767	0.595742	0.404792
	H57	H	0.881075	0.598849	0.594929
	H58	H	0.114539	0.414055	0.592644
	H59	H	0.882533	0.397154	0.411522
	H60	H	0.120051	0.405463	0.599592
	H61	H	0.885195	0.591858	0.586912
	H62	H	0.116263	0.594509	0.408512
	H63	H	0.888023	0.415398	0.413499
	H64	H	0.399638	0.595583	0.119045
	H65	H	0.600055	0.593879	0.882499
	H66	H	0.591844	0.402938	0.115908
	H67	H	0.401780	0.408033	0.883592
	H68	H	0.592025	0.115985	0.408619
	H69	H	0.590481	0.882887	0.598012
	H70	H	0.402620	0.117804	0.590806
	H71	H	0.406427	0.879575	0.395107
	H72	H	0.910972	0.612724	0.083120
	H73	H	0.089774	0.385229	0.094610
	H74	H	0.093720	0.616513	0.907249
	H75	H	0.902667	0.382908	0.909736
	H76	H	0.101171	0.913937	0.614880
	H77	H	0.087029	0.101402	0.383414
	H78	H	0.907267	0.100478	0.618107
	H79	H	0.904465	0.901726	0.381447
	H80	H	0.616793	0.092042	0.906570
	H81	H	0.382206	0.098535	0.090636
	H82	H	0.616304	0.914054	0.099971
	H83	H	0.386104	0.908505	0.913887
	H84	H	0.620189	0.898818	0.096593
	H85	H	0.385429	0.087607	0.090638
	H86	H	0.617423	0.093958	0.906141
	H87	H	0.383706	0.911652	0.901136
	H88	H	0.900619	0.089354	0.615644
	H89	H	0.102097	0.095432	0.380872
	H90	H	0.083265	0.907043	0.612553
	H91	H	0.902409	0.910480	0.383777
	H92	H	0.094740	0.617639	0.905858
	H93	H	0.095119	0.383722	0.090959
	H94	H	0.895679	0.620217	0.094474
	H95	H	0.908239	0.382456	0.901538
	H96	H	0.406613	0.118433	0.599291
	H97	H	0.591657	0.885337	0.590231
	H98	H	0.596063	0.117833	0.405535
	H99	H	0.417447	0.888890	0.410766
	H100	H	0.595797	0.405669	0.116724
	H101	H	0.590083	0.587214	0.886743
	H102	H	0.409023	0.585801	0.113603
	H103	H	0.409065	0.407047	0.885388
	H104	H	0.117207	0.590925	0.405151
	H105	H	0.883040	0.587905	0.597523
	H106	H	0.115828	0.402625	0.587602
	H107	H	0.881239	0.408934	0.396542
	H108	H	0.914116	0.617016	0.102871
	H109	H	0.095247	0.382917	0.096937
	H110	H	0.092992	0.616216	0.905588
	H111	H	0.911248	0.386550	0.909701
	H112	H	0.097315	0.895375	0.619089
	H113	H	0.090393	0.085612	0.386563
	H114	H	0.913770	0.090392	0.613223
	H115	H	0.911226	0.907288	0.385453
	H116	H	0.616207	0.093956	0.908227
	H117	H	0.380883	0.092669	0.100077
	H118	H	0.614003	0.908667	0.084856
	H119	H	0.380542	0.899991	0.905453
	C120	C	0.378927	0.008884	0.621776
	C121	C	0.622086	0.991652	0.622336
	C122	C	0.620948	0.008506	0.378686
	C123	C	0.378665	0.991924	0.378066
	C124	C	0.621425	0.377643	0.007869
	C125	C	0.621264	0.621376	0.992207
	C126	C	0.378549	0.621432	0.008597
	C127	C	0.377304	0.377669	0.991695
	C128	C	0.008349	0.621691	0.377964
	C129	C	0.991713	0.621201	0.621213
	C130	C	0.008721	0.378833	0.621662
	C131	C	0.992146	0.378957	0.378441
	C132	C	0.878576	0.508390	0.121502
	C133	C	0.121873	0.492038	0.122001
	C134	C	0.121365	0.508458	0.878831
	C135	C	0.878476	0.491746	0.878327
	C136	C	0.121684	0.877946	0.507705
	C137	C	0.121565	0.121527	0.491663
	C138	C	0.878540	0.121720	0.507877
	C139	C	0.878300	0.878286	0.491457
	C140	C	0.508330	0.121543	0.878338
	C141	C	0.491665	0.121230	0.121516
	C142	C	0.508592	0.878653	0.121745
	C143	C	0.491631	0.878553	0.878759
	C144	C	0.381892	0.885610	0.676037
	C145	C	0.619189	0.114711	0.676578
	C146	C	0.618726	0.885500	0.324171
	C147	C	0.381283	0.115053	0.323163
	C148	C	0.676120	0.381193	0.885230
	C149	C	0.676077	0.617926	0.114885
	C150	C	0.324035	0.617736	0.885726
	C151	C	0.323848	0.381588	0.114944
	C152	C	0.884789	0.675736	0.381180
	C153	C	0.115119	0.675972	0.618098
	C154	C	0.885262	0.323938	0.618243
	C155	C	0.115490	0.324260	0.381539
	C156	C	0.885361	0.380916	0.676668
	C157	C	0.114938	0.619020	0.676396
	C158	C	0.884680	0.618316	0.323558
	C159	C	0.115315	0.381853	0.323652
	C160	C	0.380970	0.676362	0.885826
	C161	C	0.618945	0.676328	0.114613
	C162	C	0.618351	0.323335	0.885070
	C163	C	0.380738	0.323053	0.114487
	C164	C	0.675386	0.885247	0.382555
	C165	C	0.676559	0.114875	0.618569
	C166	C	0.324622	0.885492	0.617906
	C167	C	0.324082	0.115335	0.381601
	C168	C	0.881425	0.385359	0.176411
	C169	C	0.118545	0.615260	0.176099
	C170	C	0.119147	0.385702	0.823708
	C171	C	0.880563	0.614475	0.822995
	C172	C	0.176688	0.881015	0.384933
	C173	C	0.175848	0.117595	0.614796
	C174	C	0.823842	0.118221	0.385131
	C175	C	0.823996	0.881608	0.614617
	C176	C	0.384563	0.175304	0.881506
	C177	C	0.615124	0.175453	0.117728
	C178	C	0.384904	0.824085	0.118168
	C179	C	0.615186	0.823970	0.881943
	C180	C	0.385291	0.881052	0.176530
	C181	C	0.615012	0.118571	0.175989
	C182	C	0.385046	0.118354	0.823397
	C183	C	0.615002	0.881439	0.824123
	C184	C	0.881120	0.176841	0.385277
	C185	C	0.119180	0.176423	0.614365
	C186	C	0.118286	0.823586	0.384793
	C187	C	0.881542	0.823215	0.614147
	C188	C	0.175368	0.385012	0.882640
	C189	C	0.176523	0.615326	0.118484
	C190	C	0.824060	0.385121	0.118509
	C191	C	0.823471	0.614599	0.881174
	C192	C	0.400500	0.094947	0.600276
	C193	C	0.599983	0.905490	0.600718
	C194	C	0.599395	0.094735	0.399662
	C195	C	0.400456	0.906225	0.400128
	C196	C	0.599563	0.399195	0.093666
	C197	C	0.599430	0.599741	0.906377
	C198	C	0.400786	0.599998	0.094252
	C199	C	0.398847	0.398940	0.905872
	C200	C	0.094667	0.599998	0.399663
	C201	C	0.905484	0.599207	0.599521
	C202	C	0.094587	0.401071	0.599731
	C203	C	0.906017	0.400876	0.400556
	C204	C	0.900343	0.594395	0.099747
	C205	C	0.099859	0.406070	0.100573
	C206	C	0.100120	0.594346	0.899912
	C207	C	0.900800	0.405963	0.900485
	C208	C	0.100308	0.899263	0.593455
	C209	C	0.099624	0.100373	0.405712
	C210	C	0.900820	0.099847	0.593628
	C211	C	0.899541	0.900138	0.405759
	C212	C	0.594662	0.099774	0.900496
	C213	C	0.405051	0.099452	0.100166
	C214	C	0.594789	0.900586	0.100180
	C215	C	0.405651	0.900315	0.900491
	Zn216	Zn	0.500214	0.000407	0.750832
	Zn217	Zn	0.500389	-0.000051	0.249954
	Zn218	Zn	0.750040	0.499635	0.000140
	Zn219	Zn	0.249808	0.499969	0.000358
	Zn220	Zn	-0.000274	0.749216	0.499520
	Zn221	Zn	0.000304	0.250443	0.499978
	Zn222	Zn	0.000011	0.500268	0.749897
	Zn223	Zn	-0.000091	0.500344	0.249978
	Zn224	Zn	0.499985	0.750478	0.000377
	Zn225	Zn	0.499276	0.249243	-0.000348
	Zn226	Zn	0.749362	0.000109	0.499946
	Zn227	Zn	0.250297	0.000432	0.499720
	N228	N	0.415000	0.963286	0.678552
	N229	N	0.585801	0.037075	0.678830
	N230	N	0.585606	0.963200	0.321695
	N231	N	0.414223	0.037477	0.320799
	N232	N	0.678145	0.414288	0.962597
	N233	N	0.677455	0.584271	0.037710
	N234	N	0.322702	0.584352	0.962946
	N235	N	0.321659	0.414795	0.037632
	N236	N	0.962625	0.678001	0.414115
	N237	N	0.037488	0.677391	0.584551
	N238	N	0.962902	0.322433	0.584795
	N239	N	0.037867	0.322607	0.414994
	N240	N	0.962957	0.414368	0.678764
	N241	N	0.037188	0.585673	0.678403
	N242	N	0.962474	0.585380	0.321386
	N243	N	0.037601	0.415063	0.321709
	N244	N	0.414252	0.678864	0.963274
	N245	N	0.585628	0.678590	0.037371
	N246	N	0.585014	0.321166	0.962304
	N247	N	0.413315	0.320500	0.036921
	N248	N	0.676914	0.962665	0.415614
	N249	N	0.678199	0.037364	0.585468
	N250	N	0.322658	0.963093	0.584941
	N251	N	0.322192	0.037772	0.415032
	N252	N	0.914498	0.462910	0.178285
	N253	N	0.085123	0.537715	0.178237
	N254	N	0.086036	0.463297	0.821386
	N255	N	0.913903	0.536980	0.821089
	N256	N	0.178858	0.914469	0.462077
	N257	N	0.177338	0.084217	0.537568
	N258	N	0.821996	0.085037	0.462388
	N259	N	0.821732	0.915211	0.537328
	N260	N	0.462079	0.176896	0.915221
	N261	N	0.537257	0.177319	0.084693
	N262	N	0.462455	0.822636	0.084618
	N263	N	0.537553	0.822092	0.915225
	N264	N	0.463101	0.914247	0.178689
	N265	N	0.537158	0.085446	0.178182
	N266	N	0.463086	0.085820	0.821339
	N267	N	0.537369	0.914898	0.822174
	N268	N	0.914447	0.178906	0.462683
	N269	N	0.086126	0.178958	0.536811
	N270	N	0.085220	0.821417	0.462125
	N271	N	0.914306	0.821168	0.536781
	N272	N	0.177125	0.462368	0.916074
	N273	N	0.178386	0.537816	0.085387
	N274	N	0.822128	0.462638	0.084998
	N275	N	0.822270	0.537435	0.915164
