data_Molecule from HDF5

_cell_length_a		16.321079
_cell_length_b		16.261997
_cell_length_c		16.175965
_cell_angle_alpha	89.909971
_cell_angle_beta	89.808492
_cell_angle_gamma	90.278210
_symmetry_space_group_name_H-M	'P 1'
_symmetry_Int_Tables_number		1

loop_
	_symmetry_equiv_pos_as_xyz
	x,y,z

loop_
	_atom_site_label
	_atom_site_type_symbol
	_atom_site_fract_x
	_atom_site_fract_y
	_atom_site_fract_z
	H0	H	0.405315	0.834404	0.714464
	H1	H	0.601499	0.163930	0.710721
	H2	H	0.602233	0.834564	0.284169
	H3	H	0.407474	0.162806	0.285554
	H4	H	0.718420	0.400754	0.835205
	H5	H	0.719409	0.598392	0.163077
	H6	H	0.290334	0.598261	0.834966
	H7	H	0.287303	0.397663	0.163557
	H8	H	0.842399	0.712844	0.398674
	H9	H	0.167497	0.713538	0.598887
	H10	H	0.842585	0.280561	0.600213
	H11	H	0.169073	0.284114	0.400687
	H12	H	0.840395	0.398814	0.713809
	H13	H	0.167834	0.597234	0.713936
	H14	H	0.841375	0.595487	0.285968
	H15	H	0.168186	0.400010	0.283998
	H16	H	0.405342	0.713479	0.835311
	H17	H	0.602844	0.712670	0.164542
	H18	H	0.604311	0.285786	0.835100
	H19	H	0.403742	0.282950	0.163650
	H20	H	0.718818	0.834197	0.399202
	H21	H	0.722689	0.161061	0.600936
	H22	H	0.286111	0.835545	0.601511
	H23	H	0.290901	0.162447	0.400476
	H24	H	0.905157	0.334022	0.213698
	H25	H	0.101410	0.662997	0.212359
	H26	H	0.101723	0.334197	0.785771
	H27	H	0.908492	0.662689	0.786245
	H28	H	0.220471	0.898497	0.335813
	H29	H	0.219109	0.097523	0.662978
	H30	H	0.792260	0.095814	0.335006
	H31	H	0.787699	0.896600	0.663434
	H32	H	0.341498	0.213780	0.899759
	H33	H	0.667525	0.216422	0.099170
	H34	H	0.341117	0.782456	0.100622
	H35	H	0.667653	0.785821	0.900428
	H36	H	0.340487	0.900893	0.214300
	H37	H	0.668395	0.098519	0.213381
	H38	H	0.340744	0.095981	0.786779
	H39	H	0.667377	0.902139	0.784959
	H40	H	0.906978	0.212439	0.335534
	H41	H	0.103924	0.210609	0.664241
	H42	H	0.102745	0.785118	0.334193
	H43	H	0.905233	0.782402	0.663760
	H44	H	0.220682	0.335668	0.898265
	H45	H	0.220045	0.662220	0.099355
	H46	H	0.786827	0.335419	0.100265
	H47	H	0.790967	0.662574	0.900416
	H48	H	0.413863	0.114525	0.592846
	H49	H	0.598335	0.881314	0.593084
	H50	H	0.595183	0.113855	0.406839
	H51	H	0.421886	0.884823	0.407990
	H52	H	0.587740	0.408334	0.113235
	H53	H	0.589947	0.579232	0.888015
	H54	H	0.415391	0.595403	0.117444
	H55	H	0.411551	0.401929	0.880875
	H56	H	0.122409	0.591440	0.401146
	H57	H	0.887115	0.590239	0.595871
	H58	H	0.119535	0.406376	0.589226
	H59	H	0.886633	0.396703	0.402571
	H60	H	0.121799	0.406428	0.596326
	H61	H	0.888121	0.592430	0.590784
	H62	H	0.122226	0.596626	0.408942
	H63	H	0.890757	0.402426	0.416496
	H64	H	0.405225	0.591458	0.117969
	H65	H	0.590321	0.607605	0.880935
	H66	H	0.597688	0.399598	0.119512
	H67	H	0.407819	0.410314	0.882352
	H68	H	0.601051	0.114327	0.410491
	H69	H	0.593429	0.883026	0.594163
	H70	H	0.409529	0.114839	0.589537
	H71	H	0.405670	0.883826	0.417774
	H72	H	0.915964	0.613394	0.091381
	H73	H	0.102158	0.381064	0.088339
	H74	H	0.094981	0.613595	0.908700
	H75	H	0.908172	0.382104	0.911328
	H76	H	0.101209	0.910129	0.616439
	H77	H	0.097289	0.086142	0.383184
	H78	H	0.915662	0.091801	0.617293
	H79	H	0.908229	0.900985	0.379956
	H80	H	0.620595	0.092452	0.907209
	H81	H	0.388553	0.088292	0.100812
	H82	H	0.620716	0.909573	0.098236
	H83	H	0.389428	0.917882	0.901129
	H84	H	0.621845	0.898523	0.091252
	H85	H	0.386479	0.099955	0.090840
	H86	H	0.622318	0.094428	0.903193
	H87	H	0.382283	0.894112	0.900815
	H88	H	0.908615	0.088886	0.617945
	H89	H	0.095254	0.093772	0.381678
	H90	H	0.090279	0.906682	0.614131
	H91	H	0.909948	0.910488	0.382842
	H92	H	0.099956	0.615049	0.909366
	H93	H	0.096817	0.380067	0.097369
	H94	H	0.908566	0.615082	0.088996
	H95	H	0.906626	0.379787	0.904884
	H96	H	0.408711	0.116394	0.594939
	H97	H	0.595764	0.882947	0.589560
	H98	H	0.602004	0.116318	0.404612
	H99	H	0.407114	0.878289	0.399362
	H100	H	0.601293	0.413662	0.116749
	H101	H	0.613740	0.592159	0.877269
	H102	H	0.412939	0.584725	0.114810
	H103	H	0.416453	0.408033	0.884258
	H104	H	0.119477	0.587773	0.409129
	H105	H	0.890341	0.587204	0.591684
	H106	H	0.122740	0.399933	0.592676
	H107	H	0.890784	0.411578	0.404593
	H108	H	0.910439	0.616554	0.096908
	H109	H	0.092559	0.384356	0.088685
	H110	H	0.097595	0.615570	0.904731
	H111	H	0.913151	0.382422	0.906107
	H112	H	0.097100	0.898722	0.619590
	H113	H	0.102068	0.091973	0.380180
	H114	H	0.913863	0.085092	0.614915
	H115	H	0.916878	0.903037	0.383826
	H116	H	0.620884	0.096882	0.907112
	H117	H	0.392231	0.086320	0.085537
	H118	H	0.617468	0.910064	0.084470
	H119	H	0.391995	0.903776	0.921362
	C120	C	0.381451	0.007091	0.621942
	C121	C	0.625841	0.990171	0.620917
	C122	C	0.626670	0.006626	0.377865
	C123	C	0.383240	0.990389	0.378938
	C124	C	0.624926	0.378357	0.007972
	C125	C	0.625958	0.621146	0.990730
	C126	C	0.382897	0.619735	0.007855
	C127	C	0.382291	0.377108	0.991163
	C128	C	0.013401	0.619747	0.377808
	C129	C	0.996239	0.619206	0.621273
	C130	C	0.013175	0.375578	0.621813
	C131	C	0.996969	0.375770	0.378443
	C132	C	0.882118	0.506934	0.121596
	C133	C	0.126099	0.490208	0.120770
	C134	C	0.125980	0.506840	0.878101
	C135	C	0.882197	0.489947	0.878395
	C136	C	0.125451	0.876744	0.507989
	C137	C	0.126608	0.119438	0.490512
	C138	C	0.884148	0.118235	0.508289
	C139	C	0.882427	0.875272	0.490602
	C140	C	0.513219	0.122035	0.877396
	C141	C	0.496816	0.121029	0.121209
	C142	C	0.512329	0.876889	0.121200
	C143	C	0.495677	0.876764	0.877811
	C144	C	0.384358	0.883658	0.677043
	C145	C	0.623423	0.114044	0.674879
	C146	C	0.623301	0.883482	0.321969
	C147	C	0.386726	0.113859	0.323625
	C148	C	0.680622	0.380681	0.884232
	C149	C	0.681384	0.618948	0.114399
	C150	C	0.327971	0.618258	0.884180
	C151	C	0.326019	0.378231	0.114564
	C152	C	0.890983	0.674831	0.379063
	C153	C	0.118898	0.675297	0.618824
	C154	C	0.890869	0.319247	0.620171
	C155	C	0.120051	0.321309	0.380046
	C156	C	0.889984	0.378043	0.676803
	C157	C	0.119043	0.617275	0.676115
	C158	C	0.890505	0.616346	0.322966
	C159	C	0.119697	0.378916	0.322064
	C160	C	0.385141	0.675724	0.884305
	C161	C	0.623325	0.675553	0.114967
	C162	C	0.623619	0.323374	0.884315
	C163	C	0.383717	0.321098	0.114515
	C164	C	0.681315	0.883260	0.379309
	C165	C	0.683489	0.112547	0.619830
	C166	C	0.325249	0.884132	0.620685
	C167	C	0.328336	0.113301	0.380296
	C168	C	0.884436	0.383443	0.176365
	C169	C	0.122895	0.613664	0.175597
	C170	C	0.122772	0.383418	0.822975
	C171	C	0.886802	0.613524	0.823440
	C172	C	0.181663	0.878756	0.384492
	C173	C	0.181205	0.117205	0.614264
	C174	C	0.829386	0.116273	0.384374
	C175	C	0.826501	0.876563	0.614512
	C176	C	0.390131	0.176133	0.879745
	C177	C	0.618923	0.177978	0.119348
	C178	C	0.389854	0.820525	0.120517
	C179	C	0.618519	0.822888	0.880066
	C180	C	0.389545	0.879550	0.177124
	C181	C	0.619521	0.119038	0.176107
	C182	C	0.389726	0.117476	0.823607
	C183	C	0.618578	0.880823	0.822585
	C184	C	0.886584	0.174330	0.384589
	C185	C	0.124167	0.173654	0.614594
	C186	C	0.123326	0.822360	0.383802
	C187	C	0.884616	0.819723	0.614654
	C188	C	0.181852	0.384089	0.878910
	C189	C	0.181523	0.613440	0.118981
	C190	C	0.825514	0.384283	0.119965
	C191	C	0.828393	0.613538	0.880130
	C192	C	0.404178	0.093080	0.599284
	C193	C	0.602692	0.904559	0.598667
	C194	C	0.605398	0.092520	0.400413
	C195	C	0.405084	0.904655	0.401765
	C196	C	0.602229	0.400619	0.094148
	C197	C	0.604434	0.599302	0.904403
	C198	C	0.404804	0.597096	0.094293
	C199	C	0.404985	0.399998	0.904781
	C200	C	0.099073	0.598239	0.399799
	C201	C	0.910485	0.596501	0.599220
	C202	C	0.099121	0.397831	0.599550
	C203	C	0.911680	0.397290	0.401236
	C204	C	0.905116	0.592889	0.099162
	C205	C	0.103675	0.404177	0.098081
	C206	C	0.103910	0.592587	0.900892
	C207	C	0.903151	0.403762	0.900758
	C208	C	0.102786	0.898672	0.594296
	C209	C	0.104566	0.097302	0.403961
	C210	C	0.906200	0.095208	0.594485
	C211	C	0.905195	0.898124	0.404498
	C212	C	0.598719	0.100721	0.899182
	C213	C	0.411281	0.098254	0.098835
	C214	C	0.597969	0.899529	0.098111
	C215	C	0.410133	0.898851	0.900849
	Zn216	Zn	0.504011	-0.000470	0.749583
	Zn217	Zn	0.504631	-0.001311	0.250125
	Zn218	Zn	0.753574	0.499185	-0.000718
	Zn219	Zn	0.254735	0.498693	-0.000993
	Zn220	Zn	0.004582	0.747896	0.499267
	Zn221	Zn	0.005719	0.246589	0.500185
	Zn222	Zn	0.003967	0.497837	0.750152
	Zn223	Zn	0.004606	0.498004	0.249431
	Zn224	Zn	0.504393	0.748104	-0.000178
	Zn225	Zn	0.504375	0.250070	-0.000884
	Zn226	Zn	0.755234	-0.002829	0.499724
	Zn227	Zn	0.253263	-0.001606	0.499640
	N228	N	0.418720	0.961199	0.677890
	N229	N	0.588118	0.037024	0.675746
	N230	N	0.590320	0.961212	0.320812
	N231	N	0.420328	0.036402	0.322590
	N232	N	0.681688	0.414133	0.962203
	N233	N	0.683126	0.585843	0.036350
	N234	N	0.326437	0.584179	0.962062
	N235	N	0.324913	0.412239	0.036650
	N236	N	0.968303	0.677177	0.412371
	N237	N	0.041395	0.676693	0.585353
	N238	N	0.968466	0.317679	0.586737
	N239	N	0.042818	0.319045	0.414364
	N240	N	0.967246	0.412390	0.677962
	N241	N	0.041738	0.583321	0.677685
	N242	N	0.967746	0.582667	0.322047
	N243	N	0.042343	0.411965	0.320784
	N244	N	0.418581	0.676771	0.962334
	N245	N	0.589645	0.677154	0.037013
	N246	N	0.589828	0.321782	0.962205
	N247	N	0.417882	0.320265	0.036639
	N248	N	0.683583	0.960725	0.413291
	N249	N	0.685072	0.034475	0.587019
	N250	N	0.323455	0.961867	0.587180
	N251	N	0.326099	0.035529	0.414042
	N252	N	0.918666	0.460754	0.177603
	N253	N	0.089261	0.535867	0.176863
	N254	N	0.088862	0.460716	0.822209
	N255	N	0.919315	0.535699	0.822123
	N256	N	0.183319	0.911572	0.462853
	N257	N	0.182844	0.084139	0.536082
	N258	N	0.827797	0.082066	0.462302
	N259	N	0.824691	0.909931	0.536345
	N260	N	0.467673	0.179060	0.912383
	N261	N	0.541539	0.179216	0.085935
	N262	N	0.467275	0.818851	0.086638
	N263	N	0.540955	0.820208	0.913531
	N264	N	0.466748	0.913886	0.177571
	N265	N	0.542430	0.084552	0.177519
	N266	N	0.467271	0.084484	0.821860
	N267	N	0.541047	0.913566	0.821000
	N268	N	0.919910	0.175480	0.462584
	N269	N	0.090695	0.174919	0.536657
	N270	N	0.089235	0.820811	0.461617
	N271	N	0.918238	0.818480	0.536583
	N272	N	0.184151	0.461830	0.912308
	N273	N	0.183760	0.535579	0.085750
	N274	N	0.823877	0.462285	0.086544
	N275	N	0.825519	0.535784	0.913671
	O276	O	0.016100	-0.084949	-0.076647
	H277	H	0.014638	-0.079003	-0.071333
	H278	H	0.021376	-0.083558	-0.074834
	O279	O	0.403313	0.533462	0.542119
	H280	H	0.408424	0.520960	0.535662
	H281	H	0.391593	0.536904	0.536987
	O282	O	0.405850	0.482357	0.523182
	H283	H	0.406884	0.478163	0.524130
	H284	H	0.396273	0.473547	0.527521
	O285	O	-0.015705	-0.011954	1.032901
	H286	H	-0.012910	-0.016320	1.031424
	H287	H	-0.026847	-0.008774	1.025412
	O288	O	0.974316	0.016414	-0.008518
	H289	H	0.980638	0.020176	-0.000820
	H290	H	0.978525	0.011687	-0.008306
	O291	O	0.968067	1.006573	0.952519
	H292	H	0.967338	1.011988	0.958294
	H293	H	0.966494	1.012735	0.940441
	O294	O	0.442676	1.392344	0.628829
	H295	H	0.438076	1.395970	0.621244
	H296	H	0.441097	1.383748	0.623549
	O297	O	0.950863	-0.022218	0.975699
	H298	H	0.952198	-0.017212	0.978931
	H299	H	0.959188	-0.027516	0.979333
	O300	O	0.446562	0.527982	0.564952
	H301	H	0.456346	0.521692	0.571638
	H302	H	0.451274	0.534120	0.554722
	O303	O	1.505512	0.468094	-0.520613
	H304	H	1.514892	0.470569	-0.523469
	H305	H	1.522774	0.469999	-0.519374
	O306	O	0.047400	1.028714	1.024398
	H307	H	0.047895	1.033976	1.026560
	H308	H	0.055612	1.028318	1.023441
	O309	O	0.602843	0.435956	0.493316
	H310	H	0.599425	0.432002	0.501916
	H311	H	0.605278	0.437785	0.480285
	O312	O	0.993487	-0.030087	0.976039
	H313	H	0.997679	-0.032845	0.977034
	H314	H	0.992053	-0.037572	0.976120
	O315	O	0.647949	0.546384	0.554373
	H316	H	0.655208	0.550786	0.557637
	H317	H	0.655695	0.547992	0.568411
	O318	O	-0.072239	0.942805	0.978240
	H319	H	-0.073880	0.953929	0.973004
	H320	H	-0.082193	0.944739	0.985299
	O321	O	1.002431	1.121630	0.980226
	H322	H	1.003542	1.132192	0.980510
	H323	H	1.003038	1.121529	0.991567
	O324	O	0.456003	0.476664	0.537834
	H325	H	0.458267	0.467026	0.548584
	H326	H	0.454959	0.491702	0.533376
	O327	O	0.429169	0.518850	0.424217
	H328	H	0.423508	0.532348	0.417529
	H329	H	0.427941	0.531281	0.413344
	O330	O	1.001376	0.098312	0.946215
	H331	H	1.002301	0.093940	0.944682
	H332	H	0.993131	0.109824	0.938452
	O333	O	1.061872	1.023445	0.044512
	H334	H	1.054340	1.024288	0.044541
	H335	H	1.071175	1.015271	0.044537
	O336	O	0.457662	0.538506	0.497720
	H337	H	0.454169	0.532606	0.498649
	H338	H	0.459261	0.526786	0.487954
	O339	O	0.543527	0.542157	0.474121
	H340	H	0.549615	0.533215	0.466834
	H341	H	0.535158	0.545935	0.466450
	O342	O	0.007337	0.985679	0.012400
	H343	H	0.009433	0.985821	0.013748
	H344	H	0.004419	0.994200	0.016380
	O345	O	-0.036031	0.020315	-0.000709
	H346	H	-0.038655	0.017464	-0.004725
	H347	H	-0.035539	0.016811	0.011358
	O348	O	0.597539	0.535817	0.480786
	H349	H	0.605617	0.540152	0.491843
	H350	H	0.586177	0.533971	0.490296
	O351	O	0.571696	0.545413	0.489626
	H352	H	0.577131	0.539271	0.492477
	H353	H	0.565667	0.552926	0.510504
	O354	O	0.548836	0.465526	0.544936
	H355	H	0.547499	0.474487	0.539302
	H356	H	0.542735	0.468061	0.556046
	O357	O	0.611245	0.544522	0.528520
	H358	H	0.618418	0.554308	0.533774
	H359	H	0.608261	0.555370	0.529991
	O360	O	-0.513079	-0.610455	-0.514637
	H361	H	-0.505594	-0.604296	-0.505161
	H362	H	-0.511887	-0.609889	-0.517159
	O363	O	0.065970	1.037828	0.949525
	H364	H	0.062228	1.038349	0.945400
	H365	H	0.064587	1.041451	0.946468
	O366	O	-0.334922	0.558687	1.520261
	H367	H	-0.324308	0.566895	1.519135
	H368	H	-0.337942	0.567847	1.537397
	O369	O	0.513881	0.438919	0.375039
	H370	H	0.505297	0.444847	0.370537
	H371	H	0.506330	0.431576	0.368744
