data_Molecule from HDF5

_cell_length_a		16.296834
_cell_length_b		16.402960
_cell_length_c		16.416117
_cell_angle_alpha	89.951753
_cell_angle_beta	90.174568
_cell_angle_gamma	89.971807
_symmetry_space_group_name_H-M	'P 1'
_symmetry_Int_Tables_number		1

loop_
	_symmetry_equiv_pos_as_xyz
	x,y,z

loop_
	_atom_site_label
	_atom_site_type_symbol
	_atom_site_fract_x
	_atom_site_fract_y
	_atom_site_fract_z
	H0	H	0.387391	0.824082	0.720793
	H1	H	0.602470	0.140324	0.721210
	H2	H	0.599075	0.821630	0.279606
	H3	H	0.388933	0.141001	0.275903
	H4	H	0.716457	0.376431	0.839474
	H5	H	0.716424	0.585206	0.158255
	H6	H	0.274189	0.587575	0.840327
	H7	H	0.276304	0.377757	0.158919
	H8	H	0.835215	0.702469	0.394792
	H9	H	0.157414	0.702070	0.601964
	H10	H	0.836096	0.262751	0.603805
	H11	H	0.156339	0.262074	0.394457
	H12	H	0.836591	0.378185	0.719020
	H13	H	0.158073	0.587049	0.718690
	H14	H	0.836917	0.590647	0.276275
	H15	H	0.157599	0.380016	0.280928
	H16	H	0.387857	0.704916	0.841287
	H17	H	0.601750	0.702680	0.157989
	H18	H	0.601238	0.259593	0.839946
	H19	H	0.390126	0.258941	0.157796
	H20	H	0.716000	0.823389	0.394852
	H21	H	0.714866	0.142812	0.601761
	H22	H	0.274425	0.823123	0.600975
	H23	H	0.275854	0.143021	0.393625
	H24	H	0.891098	0.324776	0.221629
	H25	H	0.103704	0.641784	0.220431
	H26	H	0.101149	0.322890	0.779122
	H27	H	0.891433	0.641741	0.778802
	H28	H	0.214870	0.878550	0.338087
	H29	H	0.217942	0.088267	0.657342
	H30	H	0.775623	0.087244	0.338486
	H31	H	0.776135	0.879077	0.657378
	H32	H	0.335643	0.202928	0.893897
	H33	H	0.655761	0.200613	0.102901
	H34	H	0.335612	0.761182	0.103104
	H35	H	0.655816	0.763431	0.896203
	H36	H	0.334634	0.876827	0.217540
	H37	H	0.656088	0.085336	0.217857
	H38	H	0.335963	0.089442	0.776145
	H39	H	0.654256	0.876848	0.778639
	H40	H	0.889742	0.204843	0.339532
	H41	H	0.101922	0.203843	0.658235
	H42	H	0.101662	0.759978	0.340640
	H43	H	0.890884	0.761324	0.656652
	H44	H	0.217417	0.322550	0.894465
	H45	H	0.217342	0.642108	0.102284
	H46	H	0.779249	0.321094	0.101952
	H47	H	0.773376	0.640107	0.893473
	H48	H	0.407516	0.095201	0.585825
	H49	H	0.584622	0.871853	0.582062
	H50	H	0.584705	0.094682	0.413025
	H51	H	0.405677	0.869550	0.408452
	H52	H	0.591633	0.388192	0.114302
	H53	H	0.579809	0.568213	0.887813
	H54	H	0.414915	0.580001	0.113018
	H55	H	0.405680	0.395313	0.886463
	H56	H	0.109471	0.575032	0.414591
	H57	H	0.882539	0.567185	0.592900
	H58	H	0.108149	0.397000	0.582801
	H59	H	0.882474	0.397288	0.407782
	H60	H	0.111395	0.397580	0.594642
	H61	H	0.879166	0.578547	0.591067
	H62	H	0.108820	0.566546	0.410398
	H63	H	0.881411	0.391941	0.408807
	H64	H	0.397971	0.571509	0.116486
	H65	H	0.583070	0.577222	0.884315
	H66	H	0.586342	0.396149	0.111158
	H67	H	0.410179	0.392781	0.887666
	H68	H	0.588603	0.098399	0.404675
	H69	H	0.590071	0.866048	0.590662
	H70	H	0.407605	0.096283	0.587508
	H71	H	0.404501	0.868654	0.407709
	H72	H	0.902967	0.595259	0.082122
	H73	H	0.085317	0.368551	0.090359
	H74	H	0.078484	0.593025	0.910868
	H75	H	0.902648	0.367204	0.910169
	H76	H	0.092354	0.894102	0.615124
	H77	H	0.084465	0.073422	0.384741
	H78	H	0.903724	0.070717	0.612032
	H79	H	0.901444	0.902098	0.386663
	H80	H	0.612283	0.074803	0.906832
	H81	H	0.379771	0.074792	0.086647
	H82	H	0.611373	0.890364	0.091416
	H83	H	0.379194	0.891255	0.909027
	H84	H	0.610121	0.890615	0.087898
	H85	H	0.382325	0.068884	0.084712
	H86	H	0.607622	0.070855	0.915504
	H87	H	0.381926	0.893992	0.911329
	H88	H	0.909303	0.072150	0.610774
	H89	H	0.083125	0.073226	0.385897
	H90	H	0.081803	0.900225	0.607868
	H91	H	0.915702	0.893181	0.387068
	H92	H	0.090126	0.596024	0.914504
	H93	H	0.085669	0.369563	0.089581
	H94	H	0.904588	0.598282	0.093103
	H95	H	0.908783	0.367220	0.904151
	H96	H	0.409092	0.094789	0.586530
	H97	H	0.578967	0.869501	0.591572
	H98	H	0.579609	0.095592	0.404847
	H99	H	0.405886	0.868659	0.406780
	H100	H	0.581189	0.387694	0.111738
	H101	H	0.589827	0.568920	0.884483
	H102	H	0.412004	0.561603	0.107573
	H103	H	0.406085	0.390272	0.885103
	H104	H	0.112187	0.574190	0.405681
	H105	H	0.885067	0.572431	0.582041
	H106	H	0.112721	0.387446	0.588301
	H107	H	0.883506	0.395175	0.412716
	H108	H	0.913472	0.593873	0.087000
	H109	H	0.086356	0.369282	0.090309
	H110	H	0.086205	0.597659	0.902744
	H111	H	0.910592	0.371030	0.911688
	H112	H	0.080774	0.887044	0.611529
	H113	H	0.083641	0.074223	0.385727
	H114	H	0.906116	0.075835	0.613137
	H115	H	0.901441	0.885996	0.380839
	H116	H	0.608609	0.064965	0.907119
	H117	H	0.380358	0.069391	0.091068
	H118	H	0.609876	0.893365	0.089655
	H119	H	0.380521	0.895384	0.907208
	C120	C	0.374654	-0.009170	0.618682
	C121	C	0.617116	0.973970	0.620196
	C122	C	0.616135	-0.009420	0.376666
	C123	C	0.373025	0.974045	0.375652
	C124	C	0.617882	0.359139	0.006975
	C125	C	0.617141	0.603323	0.990419
	C126	C	0.374971	0.603570	0.007797
	C127	C	0.374795	0.360162	0.991070
	C128	C	0.004740	0.604698	0.377635
	C129	C	0.988330	0.604273	0.620470
	C130	C	0.004896	0.362020	0.620326
	C131	C	0.988031	0.362355	0.378144
	C132	C	0.875388	0.490705	0.120013
	C133	C	0.118320	0.474442	0.121105
	C134	C	0.117561	0.490519	0.877815
	C135	C	0.874442	0.473485	0.876472
	C136	C	0.116910	0.861601	0.506338
	C137	C	0.117181	0.105359	0.490354
	C138	C	0.873551	0.105625	0.507010
	C139	C	0.874483	0.861551	0.489829
	C140	C	0.503725	0.102819	0.877423
	C141	C	0.486676	0.102747	0.119575
	C142	C	0.504262	0.860032	0.120259
	C143	C	0.486265	0.861235	0.877615
	C144	C	0.370476	0.871476	0.679635
	C145	C	0.620300	0.093014	0.680823
	C146	C	0.617784	0.870198	0.318477
	C147	C	0.370758	0.093437	0.315671
	C148	C	0.676843	0.357901	0.887345
	C149	C	0.677284	0.604405	0.110143
	C150	C	0.313900	0.606057	0.888205
	C151	C	0.315435	0.358576	0.110962
	C152	C	0.883893	0.664058	0.375701
	C153	C	0.109292	0.663051	0.621387
	C154	C	0.884455	0.302098	0.622422
	C155	C	0.108403	0.302277	0.376280
	C156	C	0.884681	0.359751	0.679762
	C157	C	0.109483	0.605573	0.679324
	C158	C	0.884694	0.608044	0.316764
	C159	C	0.109045	0.360911	0.319518
	C160	C	0.370536	0.664670	0.888568
	C161	C	0.620047	0.662990	0.110124
	C162	C	0.619542	0.299517	0.887565
	C163	C	0.371977	0.299294	0.110256
	C164	C	0.676043	0.870821	0.375834
	C165	C	0.676232	0.094339	0.621292
	C166	C	0.314211	0.871011	0.620129
	C167	C	0.314265	0.094357	0.374546
	C168	C	0.873136	0.371581	0.180733
	C169	C	0.121310	0.594156	0.180327
	C170	C	0.119717	0.370623	0.818382
	C171	C	0.872514	0.593475	0.817625
	C172	C	0.175963	0.859881	0.386426
	C173	C	0.178150	0.107137	0.609707
	C174	C	0.814493	0.106655	0.386819
	C175	C	0.815430	0.860153	0.609673
	C176	C	0.383651	0.163270	0.875105
	C177	C	0.607669	0.161355	0.121483
	C178	C	0.383615	0.800712	0.121476
	C179	C	0.607127	0.802216	0.876866
	C180	C	0.383000	0.858427	0.178334
	C181	C	0.607563	0.103969	0.178849
	C182	C	0.383770	0.106687	0.816454
	C183	C	0.606522	0.858929	0.818217
	C184	C	0.871739	0.165285	0.387337
	C185	C	0.120047	0.164596	0.610100
	C186	C	0.119451	0.800793	0.387539
	C187	C	0.873001	0.802047	0.609393
	C188	C	0.177618	0.370543	0.876090
	C189	C	0.177907	0.594329	0.121512
	C190	C	0.817326	0.369998	0.121158
	C191	C	0.813824	0.592812	0.874768
	C192	C	0.400575	0.073497	0.593784
	C193	C	0.591881	0.890856	0.595129
	C194	C	0.591270	0.074421	0.400599
	C195	C	0.398014	0.890484	0.400476
	C196	C	0.593367	0.383708	0.090711
	C197	C	0.591619	0.578637	0.907279
	C198	C	0.400786	0.578338	0.090596
	C199	C	0.399953	0.385417	0.908004
	C200	C	0.088378	0.579296	0.403005
	C201	C	0.904105	0.579844	0.595803
	C202	C	0.088815	0.386956	0.595668
	C203	C	0.904386	0.387570	0.402571
	C204	C	0.899861	0.574042	0.094782
	C205	C	0.092928	0.390821	0.096944
	C206	C	0.092390	0.573836	0.902450
	C207	C	0.899872	0.390196	0.901353
	C208	C	0.092074	0.886651	0.589828
	C209	C	0.091282	0.080741	0.407065
	C210	C	0.899047	0.080327	0.590294
	C211	C	0.899103	0.886526	0.406554
	C212	C	0.587523	0.077425	0.902610
	C213	C	0.402559	0.078053	0.094673
	C214	C	0.588555	0.884430	0.096418
	C215	C	0.402247	0.886247	0.902260
	Zn216	Zn	0.495122	-0.017628	0.748596
	Zn217	Zn	0.494929	-0.018290	0.247468
	Zn218	Zn	0.746255	0.481405	-0.000882
	Zn219	Zn	0.246572	0.482127	-0.000717
	Zn220	Zn	-0.003949	0.732605	0.498683
	Zn221	Zn	-0.004010	0.234010	0.499069
	Zn222	Zn	-0.002880	0.482736	0.748526
	Zn223	Zn	-0.003310	0.483504	0.249346
	Zn224	Zn	0.495419	0.732654	-0.000669
	Zn225	Zn	0.495819	0.231045	-0.001066
	Zn226	Zn	0.744968	-0.016863	0.498142
	Zn227	Zn	0.245021	-0.016578	0.497821
	N228	N	0.407523	0.946822	0.678921
	N229	N	0.584380	0.017193	0.680459
	N230	N	0.581085	0.945780	0.318985
	N231	N	0.406466	0.017520	0.316196
	N232	N	0.675725	0.394439	0.962736
	N233	N	0.675659	0.567938	0.034860
	N234	N	0.316596	0.568615	0.963100
	N235	N	0.317009	0.395614	0.035966
	N236	N	0.959668	0.662287	0.412625
	N237	N	0.033003	0.662437	0.585372
	N238	N	0.960159	0.303596	0.585953
	N239	N	0.032286	0.302985	0.411870
	N240	N	0.960677	0.396129	0.678619
	N241	N	0.033055	0.570025	0.678999
	N242	N	0.960837	0.572026	0.317642
	N243	N	0.033185	0.397673	0.320509
	N244	N	0.407701	0.663391	0.963742
	N245	N	0.583356	0.662532	0.034598
	N246	N	0.583476	0.300407	0.963040
	N247	N	0.408028	0.300080	0.034573
	N248	N	0.675150	0.946697	0.411232
	N249	N	0.674279	0.019243	0.584151
	N250	N	0.316526	0.946109	0.582899
	N251	N	0.315390	0.018844	0.410964
	N252	N	0.908464	0.447618	0.180244
	N253	N	0.084833	0.518457	0.180142
	N254	N	0.083147	0.446146	0.819314
	N255	N	0.909283	0.518105	0.818378
	N256	N	0.174191	0.897218	0.461351
	N257	N	0.176502	0.070951	0.534215
	N258	N	0.815621	0.070233	0.462176
	N259	N	0.816285	0.896676	0.534164
	N260	N	0.459270	0.161144	0.912172
	N261	N	0.531468	0.160904	0.085549
	N262	N	0.459911	0.801617	0.086054
	N263	N	0.531185	0.803389	0.912892
	N264	N	0.459055	0.894492	0.178007
	N265	N	0.531159	0.068302	0.177824
	N266	N	0.459574	0.069933	0.817707
	N267	N	0.530325	0.894894	0.818656
	N268	N	0.907517	0.164911	0.463330
	N269	N	0.082972	0.163566	0.534807
	N270	N	0.083510	0.801733	0.463174
	N271	N	0.908570	0.802520	0.533828
	N272	N	0.176649	0.446182	0.912188
	N273	N	0.176283	0.518694	0.085646
	N274	N	0.818673	0.445124	0.083870
	N275	N	0.814855	0.517087	0.910533
	O276	O	0.913743	0.853831	-0.105817
	H277	H	0.914723	0.863452	-0.104877
	H278	H	0.908096	0.851346	-0.095373
	O279	O	0.578667	0.513354	0.403997
	H280	H	0.596194	0.508563	0.412276
	H281	H	0.568555	0.505958	0.392503
	O282	O	0.547539	0.485221	0.369580
	H283	H	0.569359	0.484590	0.355655
	H284	H	0.541325	0.475769	0.389841
	O285	O	1.010522	-0.142182	0.109522
	H286	H	1.000608	-0.137931	0.112837
	H287	H	1.018446	-0.151859	0.089264
	O288	O	-0.181484	-0.200924	1.004597
	H289	H	-0.178459	-0.189564	1.005546
	H290	H	-0.181857	-0.210209	0.995853
	O291	O	0.173050	0.797346	0.883019
	H292	H	0.175905	0.802008	0.882434
	H293	H	0.188317	0.796528	0.879778
	O294	O	1.479317	0.681635	0.438287
	H295	H	1.475178	0.673373	0.446574
	H296	H	1.490584	0.686184	0.427819
	O297	O	0.996821	0.956185	0.824202
	H298	H	1.023262	0.961983	0.837426
	H299	H	0.996351	0.956379	0.818927
	O300	O	-0.078210	-0.052200	0.093128
	H301	H	-0.090810	-0.042276	0.079576
	H302	H	-0.076217	-0.045041	0.092210
	O303	O	0.679594	0.484399	0.534568
	H304	H	0.677702	0.494676	0.540173
	H305	H	0.680274	0.482725	0.518796
	O306	O	1.060518	0.180793	0.195028
	H307	H	1.077452	0.184479	0.202322
	H308	H	1.050838	0.177219	0.203890
	O309	O	0.422059	0.549146	0.411409
	H310	H	0.415898	0.552019	0.430237
	H311	H	0.445931	0.561036	0.419144
	O312	O	1.094217	1.102954	0.033773
	H313	H	1.099513	1.098218	0.023397
	H314	H	1.095112	1.112414	0.052127
	O315	O	0.402512	0.350286	0.583279
	H316	H	0.407455	0.350127	0.577449
	H317	H	0.385321	0.336852	0.586916
	O318	O	0.409632	0.552200	0.295865
	H319	H	0.390747	0.556884	0.284992
	H320	H	0.400394	0.572156	0.303461
	O321	O	1.074258	-0.175943	0.864412
	H322	H	1.063309	-0.173022	0.863427
	H323	H	1.075122	-0.161542	0.846500
	O324	O	0.538416	0.673901	0.432538
	H325	H	0.544380	0.669822	0.424412
	H326	H	0.539901	0.682799	0.431826
	O327	O	0.891927	1.170539	0.900662
	H328	H	0.873389	1.166918	0.904162
	H329	H	0.885696	1.178086	0.882140
	O330	O	0.643091	0.570365	0.443467
	H331	H	0.639997	0.562656	0.438962
	H332	H	0.637072	0.578290	0.441628
	O333	O	0.853999	0.947709	0.887402
	H334	H	0.861661	0.940140	0.897865
	H335	H	0.854630	0.949150	0.896513
	O336	O	0.573691	0.695253	0.657048
	H337	H	0.586705	0.697534	0.663012
	H338	H	0.594561	0.717432	0.671476
	O339	O	1.086277	-0.025669	1.065881
	H340	H	1.100365	-0.020387	1.069012
	H341	H	1.076058	-0.046259	1.061276
	O342	O	-0.014606	1.081171	0.914888
	H343	H	-0.019896	1.081475	0.915896
	H344	H	-0.019291	1.079915	0.916940
	O345	O	-0.565433	1.581580	1.641835
	H346	H	-0.552937	1.591134	1.637673
	H347	H	-0.555833	1.574675	1.642015
	O348	O	0.680835	0.668170	0.679730
	H349	H	0.676025	0.644671	0.679672
	H350	H	0.685045	0.665532	0.666361
	O351	O	0.409793	-0.606838	-0.392900
	H352	H	0.432096	-0.591675	-0.383542
	H353	H	0.407652	-0.605248	-0.379551
	O354	O	0.971651	0.949406	0.019082
	H355	H	0.973992	0.944534	0.012349
	H356	H	0.978072	0.955871	0.014733
	O357	O	-0.098159	1.042542	0.182909
	H358	H	-0.094651	1.025575	0.170438
	H359	H	-0.094642	1.037514	0.186323
	O360	O	-0.121504	1.019183	0.811904
	H361	H	-0.116291	1.017619	0.821014
	H362	H	-0.132562	1.007715	0.821377
	O363	O	0.468157	0.366312	0.291971
	H364	H	0.452272	0.362343	0.281733
	H365	H	0.450359	0.372800	0.305703
	O366	O	-0.159130	0.971397	0.046549
	H367	H	-0.155334	0.989314	0.047758
	H368	H	-0.160498	0.983975	0.048059
	O369	O	0.425486	0.500118	0.395259
	H370	H	0.439599	0.498302	0.379108
	H371	H	0.432948	0.485136	0.385740
	O372	O	0.649339	0.551656	0.706733
	H373	H	0.662233	0.559822	0.730860
	H374	H	0.628079	0.543402	0.704941
	O375	O	0.427849	0.308715	0.617247
	H376	H	0.413459	0.312987	0.616610
	H377	H	0.431636	0.287397	0.616665
	O378	O	0.298292	0.631431	0.417878
	H379	H	0.287163	0.628632	0.422985
	H380	H	0.296464	0.645249	0.426937
	O381	O	0.467413	0.319901	0.569743
	H382	H	0.469034	0.317892	0.579988
	H383	H	0.466451	0.319881	0.570040
	O384	O	-0.117650	0.976433	1.082251
	H385	H	-0.119075	0.970442	1.100927
	H386	H	-0.115802	0.974469	1.075206
	O387	O	0.845688	1.140167	-0.021622
	H388	H	0.857658	1.152050	-0.028194
	H389	H	0.836557	1.130912	-0.012254
	O390	O	0.524668	0.505060	0.670523
	H391	H	0.529885	0.487639	0.669240
	H392	H	0.519613	0.503263	0.652708
	O393	O	1.091168	-0.009096	1.081966
	H394	H	1.087353	-0.006664	1.073352
	H395	H	1.106711	-0.008149	1.102890
	O396	O	0.070482	0.961968	1.106194
	H397	H	0.070203	0.948654	1.098007
	H398	H	0.078142	0.955258	1.103242
	O399	O	0.430526	0.506246	0.529611
	H400	H	0.441047	0.500120	0.547555
	H401	H	0.431091	0.498980	0.527223
	O402	O	1.309245	0.383495	0.616548
	H403	H	1.302468	0.385010	0.608664
	H404	H	1.302033	0.390434	0.610611
	O405	O	0.011377	0.093646	-0.195521
	H406	H	0.002826	0.100884	-0.206020
	H407	H	0.004070	0.090101	-0.193037
	O408	O	0.411280	1.350357	0.377761
	H409	H	0.413704	1.344253	0.372380
	H410	H	0.405750	1.381309	0.381803
	O411	O	1.181681	1.174397	0.106784
	H412	H	1.177304	1.180467	0.107189
	H413	H	1.195187	1.169992	0.104879
	O414	O	-0.304730	-0.664698	1.400481
	H415	H	-0.286193	-0.677786	1.392075
	H416	H	-0.307339	-0.662434	1.399800
	O417	O	0.667357	0.303760	0.371183
	H418	H	0.655821	0.293577	0.377643
	H419	H	0.658095	0.321985	0.373506
	O420	O	0.195087	0.981932	-0.142272
	H421	H	0.197878	0.991203	-0.145730
	H422	H	0.196845	0.981176	-0.140258
	O423	O	1.167700	-0.143306	-0.002087
	H424	H	1.171354	-0.164448	0.002252
	H425	H	1.161613	-0.130345	0.015389
	O426	O	-0.062402	-0.196806	1.194333
	H427	H	-0.079643	-0.193742	1.197147
	H428	H	-0.074456	-0.201864	1.192243
	O429	O	0.554669	0.334355	0.544601
	H430	H	0.539079	0.334690	0.550996
	H431	H	0.551671	0.338631	0.544967
