data_Molecule from HDF5

_cell_length_a		16.365531
_cell_length_b		16.404260
_cell_length_c		16.568462
_cell_angle_alpha	89.948186
_cell_angle_beta	90.265109
_cell_angle_gamma	90.036949
_symmetry_space_group_name_H-M	'P 1'
_symmetry_Int_Tables_number		1

loop_
	_symmetry_equiv_pos_as_xyz
	x,y,z

loop_
	_atom_site_label
	_atom_site_type_symbol
	_atom_site_fract_x
	_atom_site_fract_y
	_atom_site_fract_z
	H0	H	0.385794	0.845920	0.733940
	H1	H	0.608726	0.156849	0.735957
	H2	H	0.606583	0.846169	0.284776
	H3	H	0.387337	0.158404	0.282474
	H4	H	0.722895	0.392666	0.851741
	H5	H	0.721501	0.607593	0.163641
	H6	H	0.272385	0.609713	0.851524
	H7	H	0.276150	0.394539	0.164554
	H8	H	0.837489	0.722244	0.401859
	H9	H	0.153613	0.727936	0.615378
	H10	H	0.836944	0.282147	0.614628
	H11	H	0.153101	0.276784	0.401761
	H12	H	0.839296	0.394620	0.732355
	H13	H	0.153267	0.614748	0.733439
	H14	H	0.839448	0.608207	0.283912
	H15	H	0.154417	0.391625	0.285773
	H16	H	0.389125	0.725426	0.851561
	H17	H	0.606478	0.725387	0.163151
	H18	H	0.605835	0.276490	0.851004
	H19	H	0.389983	0.276067	0.162417
	H20	H	0.714985	0.843782	0.406356
	H21	H	0.718170	0.160770	0.616013
	H22	H	0.269542	0.846292	0.618374
	H23	H	0.273499	0.158535	0.399575
	H24	H	0.886628	0.344977	0.233185
	H25	H	0.108204	0.657626	0.233819
	H26	H	0.108435	0.346912	0.782039
	H27	H	0.887344	0.658750	0.783445
	H28	H	0.223724	0.889899	0.353677
	H29	H	0.226003	0.113868	0.662323
	H30	H	0.772220	0.109781	0.352305
	H31	H	0.775369	0.897390	0.666272
	H32	H	0.338928	0.225188	0.897898
	H33	H	0.655207	0.224954	0.113394
	H34	H	0.338398	0.780194	0.113032
	H35	H	0.654537	0.779847	0.902426
	H36	H	0.340524	0.892543	0.231853
	H37	H	0.654061	0.112441	0.232425
	H38	H	0.340751	0.112834	0.780055
	H39	H	0.653300	0.891869	0.784006
	H40	H	0.887057	0.227011	0.352588
	H41	H	0.106982	0.228650	0.663859
	H42	H	0.104564	0.777097	0.352491
	H43	H	0.890046	0.778169	0.664752
	H44	H	0.216154	0.342916	0.904724
	H45	H	0.219927	0.659463	0.114613
	H46	H	0.772205	0.345475	0.115835
	H47	H	0.774533	0.659620	0.900889
	H48	H	0.412270	0.112230	0.591535
	H49	H	0.583104	0.890614	0.595117
	H50	H	0.585678	0.117476	0.418857
	H51	H	0.411350	0.887937	0.416439
	H52	H	0.589872	0.411821	0.120106
	H53	H	0.588197	0.597156	0.892250
	H54	H	0.413120	0.588397	0.116944
	H55	H	0.413317	0.417882	0.898636
	H56	H	0.109621	0.582557	0.414525
	H57	H	0.885212	0.587320	0.593681
	H58	H	0.108520	0.416759	0.595704
	H59	H	0.882614	0.413151	0.420947
	H60	H	0.108973	0.416152	0.596805
	H61	H	0.884635	0.586535	0.597320
	H62	H	0.113906	0.597970	0.419118
	H63	H	0.885024	0.418145	0.419139
	H64	H	0.409776	0.595898	0.121435
	H65	H	0.589281	0.583420	0.896535
	H66	H	0.583510	0.420629	0.114480
	H67	H	0.408463	0.405886	0.892664
	H68	H	0.582486	0.116204	0.417461
	H69	H	0.588270	0.887888	0.597240
	H70	H	0.412743	0.113079	0.594570
	H71	H	0.414840	0.891440	0.421573
	H72	H	0.914426	0.613036	0.096048
	H73	H	0.094032	0.384505	0.100243
	H74	H	0.078618	0.614724	0.915533
	H75	H	0.911629	0.387929	0.917215
	H76	H	0.087417	0.916906	0.619837
	H77	H	0.076349	0.089600	0.400097
	H78	H	0.898406	0.092705	0.624728
	H79	H	0.899012	0.905255	0.391560
	H80	H	0.610219	0.090554	0.919431
	H81	H	0.382058	0.089602	0.099988
	H82	H	0.610550	0.916530	0.099276
	H83	H	0.384747	0.914071	0.922640
	H84	H	0.611040	0.911619	0.097411
	H85	H	0.385114	0.092200	0.089926
	H86	H	0.607857	0.087793	0.924880
	H87	H	0.385390	0.918082	0.919218
	H88	H	0.910150	0.084571	0.616940
	H89	H	0.084238	0.093461	0.396313
	H90	H	0.080572	0.921207	0.614648
	H91	H	0.901778	0.922486	0.398053
	H92	H	0.083103	0.612251	0.926888
	H93	H	0.078810	0.388418	0.104828
	H94	H	0.909621	0.614048	0.094680
	H95	H	0.914405	0.391782	0.920764
	H96	H	0.415094	0.111120	0.592566
	H97	H	0.583424	0.887985	0.600701
	H98	H	0.583200	0.115745	0.420626
	H99	H	0.408017	0.888681	0.422354
	H100	H	0.578114	0.410104	0.117952
	H101	H	0.576879	0.590599	0.898589
	H102	H	0.405208	0.588307	0.120289
	H103	H	0.399739	0.416743	0.893968
	H104	H	0.105485	0.588090	0.429392
	H105	H	0.883599	0.590207	0.595787
	H106	H	0.109062	0.415724	0.595735
	H107	H	0.882041	0.415031	0.415143
	H108	H	0.911554	0.614940	0.098613
	H109	H	0.083352	0.392100	0.090020
	H110	H	0.090080	0.618121	0.917777
	H111	H	0.909048	0.389643	0.922330
	H112	H	0.079230	0.912091	0.617524
	H113	H	0.084868	0.083808	0.399192
	H114	H	0.912847	0.100042	0.621958
	H115	H	0.915827	0.910266	0.398523
	H116	H	0.608036	0.084271	0.919800
	H117	H	0.386760	0.082166	0.093771
	H118	H	0.609065	0.915373	0.094408
	H119	H	0.382291	0.914034	0.917588
	C120	C	0.376815	0.009736	0.628513
	C121	C	0.618659	0.992808	0.631046
	C122	C	0.617344	0.012148	0.387177
	C123	C	0.376203	0.992960	0.385964
	C124	C	0.618550	0.380196	0.014782
	C125	C	0.619138	0.623804	0.998710
	C126	C	0.375201	0.623818	0.016338
	C127	C	0.374712	0.379694	0.998505
	C128	C	0.005405	0.622729	0.386926
	C129	C	0.987976	0.623513	0.629249
	C130	C	0.004725	0.382213	0.629754
	C131	C	0.987723	0.380803	0.386673
	C132	C	0.877041	0.510149	0.129360
	C133	C	0.119566	0.492384	0.131351
	C134	C	0.118020	0.511084	0.886785
	C135	C	0.876814	0.493541	0.886601
	C136	C	0.117495	0.881216	0.515842
	C137	C	0.117357	0.123669	0.500667
	C138	C	0.873653	0.124944	0.517705
	C139	C	0.873891	0.880250	0.500117
	C140	C	0.505105	0.122485	0.886131
	C141	C	0.488638	0.122520	0.128119
	C142	C	0.505722	0.880790	0.129608
	C143	C	0.488002	0.881052	0.886640
	C144	C	0.369736	0.892616	0.692451
	C145	C	0.624384	0.110450	0.693922
	C146	C	0.622682	0.893269	0.325952
	C147	C	0.370657	0.110838	0.323444
	C148	C	0.681613	0.375509	0.898322
	C149	C	0.681225	0.626396	0.116390
	C150	C	0.312914	0.627399	0.898776
	C151	C	0.315257	0.376552	0.116862
	C152	C	0.885768	0.682980	0.383517
	C153	C	0.106256	0.686798	0.633301
	C154	C	0.885281	0.321344	0.632829
	C155	C	0.106109	0.317961	0.384027
	C156	C	0.886549	0.377498	0.691640
	C157	C	0.106239	0.630490	0.692168
	C158	C	0.886885	0.626149	0.324834
	C159	C	0.106652	0.375244	0.326234
	C160	C	0.371292	0.685052	0.898747
	C161	C	0.623659	0.684912	0.116132
	C162	C	0.622924	0.317644	0.897920
	C163	C	0.371981	0.317434	0.115711
	C164	C	0.677057	0.892157	0.386396
	C165	C	0.679207	0.112280	0.634105
	C166	C	0.311979	0.892723	0.634547
	C167	C	0.313745	0.111245	0.381793
	C168	C	0.870945	0.392076	0.191441
	C169	C	0.124770	0.610418	0.193043
	C170	C	0.123872	0.393483	0.824070
	C171	C	0.870790	0.611394	0.824303
	C172	C	0.181665	0.874208	0.399959
	C173	C	0.183337	0.130032	0.616086
	C174	C	0.812099	0.127862	0.399617
	C175	C	0.814937	0.878486	0.618673
	C176	C	0.386809	0.185127	0.880571
	C177	C	0.607440	0.184645	0.131576
	C178	C	0.386495	0.820076	0.131445
	C179	C	0.606778	0.819426	0.883786
	C180	C	0.387413	0.876429	0.190523
	C181	C	0.606811	0.128618	0.190889
	C182	C	0.387664	0.128888	0.821831
	C183	C	0.606091	0.875467	0.824911
	C184	C	0.869552	0.186318	0.399795
	C185	C	0.124001	0.187311	0.616958
	C186	C	0.122342	0.817579	0.399600
	C187	C	0.872032	0.819181	0.618093
	C188	C	0.177895	0.391464	0.884969
	C189	C	0.180659	0.611413	0.133775
	C190	C	0.813561	0.392371	0.133211
	C191	C	0.814317	0.611873	0.882720
	C192	C	0.405217	0.090711	0.600811
	C193	C	0.592594	0.910506	0.605060
	C194	C	0.591361	0.094607	0.411846
	C195	C	0.403528	0.910998	0.412399
	C196	C	0.591677	0.406689	0.096334
	C197	C	0.592536	0.597751	0.917030
	C198	C	0.401662	0.598167	0.098359
	C199	C	0.399888	0.405985	0.916570
	C200	C	0.088046	0.596929	0.413473
	C201	C	0.905968	0.595884	0.602984
	C202	C	0.087270	0.408626	0.603672
	C203	C	0.905019	0.407613	0.411391
	C204	C	0.904197	0.592502	0.103700
	C205	C	0.092915	0.409884	0.105721
	C206	C	0.091651	0.593490	0.912776
	C207	C	0.903822	0.411290	0.912826
	C208	C	0.090426	0.909027	0.596433
	C209	C	0.089650	0.096646	0.419725
	C210	C	0.899783	0.099816	0.599785
	C211	C	0.898645	0.905624	0.417565
	C212	C	0.587107	0.095346	0.913593
	C213	C	0.406114	0.095747	0.101848
	C214	C	0.588674	0.907101	0.104372
	C215	C	0.405588	0.907715	0.912448
	Zn216	Zn	0.497085	0.001666	0.758154
	Zn217	Zn	0.497499	0.002391	0.257863
	Zn218	Zn	0.748366	0.501687	0.007300
	Zn219	Zn	0.246072	0.501933	0.007783
	Zn220	Zn	-0.004070	0.751353	0.507956
	Zn221	Zn	-0.004582	0.253894	0.509006
	Zn222	Zn	-0.002508	0.502942	0.758048
	Zn223	Zn	-0.002457	0.501447	0.258251
	Zn224	Zn	0.497056	0.752990	0.007698
	Zn225	Zn	0.496880	0.251077	0.006581
	Zn226	Zn	0.745011	0.002962	0.508960
	Zn227	Zn	0.247418	0.002105	0.507462
	N228	N	0.409292	0.966392	0.688839
	N229	N	0.587505	0.035224	0.692301
	N230	N	0.586303	0.968756	0.325999
	N231	N	0.408603	0.036134	0.325739
	N232	N	0.678870	0.413633	0.972118
	N233	N	0.678662	0.589187	0.042209
	N234	N	0.315314	0.589909	0.973011
	N235	N	0.316836	0.414715	0.042943
	N236	N	0.960748	0.681139	0.421352
	N237	N	0.032037	0.682503	0.594706
	N238	N	0.959936	0.324063	0.595028
	N239	N	0.031103	0.321337	0.420832
	N240	N	0.961902	0.414545	0.689823
	N241	N	0.031802	0.591538	0.689612
	N242	N	0.962414	0.589750	0.326675
	N243	N	0.031986	0.413506	0.327618
	N244	N	0.409198	0.683070	0.972918
	N245	N	0.585760	0.683377	0.041973
	N246	N	0.584312	0.320611	0.971404
	N247	N	0.408127	0.319097	0.041109
	N248	N	0.674131	0.966907	0.423566
	N249	N	0.675835	0.038087	0.595738
	N250	N	0.315977	0.966460	0.595581
	N251	N	0.316681	0.036760	0.419696
	N252	N	0.909728	0.466372	0.189160
	N253	N	0.087745	0.535161	0.191669
	N254	N	0.087460	0.468936	0.825138
	N255	N	0.908955	0.536887	0.826648
	N256	N	0.179042	0.912978	0.473414
	N257	N	0.179110	0.090970	0.542793
	N258	N	0.814604	0.090410	0.473905
	N259	N	0.816052	0.915575	0.544385
	N260	N	0.460690	0.181206	0.919970
	N261	N	0.532974	0.180779	0.093130
	N262	N	0.461444	0.822556	0.094545
	N263	N	0.532334	0.822803	0.921421
	N264	N	0.462854	0.913302	0.189735
	N265	N	0.532071	0.090445	0.188853
	N266	N	0.462323	0.090651	0.825255
	N267	N	0.531168	0.913249	0.826562
	N268	N	0.907085	0.184747	0.474127
	N269	N	0.083585	0.183410	0.544178
	N270	N	0.083043	0.821896	0.472474
	N271	N	0.907750	0.819953	0.542996
	N272	N	0.174314	0.465574	0.923512
	N273	N	0.177780	0.536920	0.096146
	N274	N	0.817372	0.466781	0.095105
	N275	N	0.817830	0.537523	0.920941
	O276	O	0.710240	0.714355	0.562429
	H277	H	0.724689	0.733708	0.570725
	H278	H	0.704065	0.709803	0.591809
	O279	O	1.178283	0.185701	1.196999
	H280	H	1.172962	0.151959	1.206789
	H281	H	1.189989	0.195905	1.143739
	O282	O	0.600117	0.613073	0.404607
	H283	H	0.583775	0.614885	0.394945
	H284	H	0.608978	0.624792	0.416164
	O285	O	0.321875	0.684733	0.329490
	H286	H	0.309098	0.694653	0.377298
	H287	H	0.308569	0.635298	0.319794
	O288	O	1.211929	1.021060	0.227969
	H289	H	1.196839	1.012191	0.219195
	H290	H	1.242973	1.028496	0.257404
	O291	O	0.701013	0.447227	0.378658
	H292	H	0.712588	0.456408	0.360495
	H293	H	0.691353	0.465951	0.372212
	O294	O	-0.176349	0.180382	0.829621
	H295	H	-0.189452	0.180158	0.871258
	H296	H	-0.176345	0.141490	0.817641
	O297	O	0.288501	0.710021	0.499221
	H298	H	0.273100	0.734911	0.506423
	H299	H	0.306604	0.716641	0.515669
	O300	O	0.610655	0.395950	0.517818
	H301	H	0.615496	0.416030	0.518952
	H302	H	0.613867	0.394756	0.497724
	O303	O	-0.015014	1.066604	0.062897
	H304	H	-0.007152	1.074420	0.071313
	H305	H	-0.000831	1.064773	0.059191
	O306	O	0.428114	0.717711	0.571721
	H307	H	0.436615	0.703118	0.563535
	H308	H	0.452322	0.712948	0.560966
	O309	O	1.002926	0.007994	0.035079
	H310	H	1.006821	0.005119	0.055217
	H311	H	1.013676	0.001576	0.033933
	O312	O	-0.208921	0.883643	0.986862
	H313	H	-0.211296	0.897892	0.996598
	H314	H	-0.198809	0.865152	0.986706
	O315	O	0.698702	0.305528	0.432860
	H316	H	0.710359	0.309827	0.427115
	H317	H	0.697296	0.311876	0.431177
	O318	O	1.164574	-0.177566	-0.171577
	H319	H	1.180333	-0.189933	-0.120667
	H320	H	1.168028	-0.135365	-0.179155
	O321	O	-0.220038	-0.130914	-0.000027
	H322	H	-0.204388	-0.131812	-0.012820
	H323	H	-0.232904	-0.146440	-0.008141
	O324	O	0.275093	0.542408	0.605590
	H325	H	0.284359	0.574785	0.599190
	H326	H	0.266074	0.518117	0.584924
	O327	O	0.284094	0.285916	0.526048
	H328	H	0.290938	0.292910	0.574177
	H329	H	0.253702	0.266508	0.531764
	O330	O	-0.211895	1.017898	-0.205308
	H331	H	-0.228411	1.011846	-0.224325
	H332	H	-0.223049	0.998898	-0.191195
	O333	O	0.812640	-0.182821	1.194230
	H334	H	0.808057	-0.174986	1.165534
	H335	H	0.805081	-0.156032	1.179988
	O336	O	0.206153	0.210839	0.036242
	H337	H	0.198660	0.202593	0.010628
	H338	H	0.225743	0.228284	0.024617
	O339	O	-0.017437	1.216321	0.794057
	H340	H	-0.036815	1.217054	0.807510
	H341	H	-0.036083	1.241127	0.779892
	O342	O	-0.071729	0.790602	0.952412
	H343	H	-0.058151	0.812040	0.933248
	H344	H	-0.059929	0.787102	0.944731
	O345	O	0.788933	1.207859	-0.010891
	H346	H	0.821174	1.216163	0.015088
	H347	H	0.766296	1.233460	-0.017921
	O348	O	0.648117	0.682591	0.689989
	H349	H	0.600025	0.689042	0.695707
	H350	H	0.655236	0.639434	0.702705
	O351	O	-0.216765	0.979534	1.222504
	H352	H	-0.215290	0.997353	1.225797
	H353	H	-0.236665	0.979997	1.222977
	O354	O	-0.021469	1.214997	0.032454
	H355	H	-0.014991	1.191929	0.032269
	H356	H	-0.004264	1.225907	0.045428
	O357	O	-0.048744	0.044911	1.211079
	H358	H	-0.029641	0.025983	1.210298
	H359	H	-0.063727	0.045161	1.212397
	O360	O	0.558877	0.536421	0.319772
	H361	H	0.574492	0.546586	0.326365
	H362	H	0.541162	0.549826	0.310885
	O363	O	0.451216	-0.607863	0.699732
	H364	H	0.468614	-0.628569	0.701207
	H365	H	0.436081	-0.567902	0.706464
	O366	O	0.343824	0.502513	0.718713
	H367	H	0.346808	0.530521	0.694444
	H368	H	0.331613	0.498701	0.734865
	O369	O	0.486341	0.716424	0.293249
	H370	H	0.475222	0.750557	0.261654
	H371	H	0.440951	0.705543	0.309143
	O372	O	1.050213	-0.202593	1.081051
	H373	H	1.032264	-0.201825	1.087987
	H374	H	1.023601	-0.193883	1.084223
	O375	O	0.486263	0.529421	0.703827
	H376	H	0.493486	0.532865	0.694581
	H377	H	0.464405	0.520327	0.693089
	O378	O	0.502413	0.670869	0.662731
	H379	H	0.483682	0.657623	0.658249
	H380	H	0.502043	0.690943	0.672477
	O381	O	0.554066	0.491565	0.555890
	H382	H	0.546742	0.489676	0.547774
	H383	H	0.551104	0.482935	0.539075
	O384	O	0.472198	0.292848	0.712498
	H385	H	0.478142	0.267019	0.739268
	H386	H	0.501143	0.301184	0.691488
	O387	O	0.203462	-0.018514	0.800182
	H388	H	0.186588	-0.003858	0.784231
	H389	H	0.208185	-0.015946	0.777322
	O390	O	-0.026468	-0.215307	0.227328
	H391	H	-0.033554	-0.237181	0.246860
	H392	H	-0.060699	-0.214993	0.230578
	O393	O	0.951453	0.972223	0.849158
	H394	H	0.954729	0.981970	0.859906
	H395	H	0.926599	0.972677	0.841480
	O396	O	0.984361	-0.007732	-0.210714
	H397	H	0.979870	-0.005734	-0.214249
	H398	H	0.986255	-0.007537	-0.214937
	O399	O	1.203687	-0.205001	0.985176
	H400	H	1.192452	-0.200058	1.010252
	H401	H	1.211610	-0.224230	0.996808
	O402	O	1.502061	0.626281	0.415347
	H403	H	1.488554	0.620243	0.394330
	H404	H	1.519675	0.628884	0.415630
	O405	O	1.013578	1.216677	0.222723
	H406	H	1.045895	1.216865	0.222534
	H407	H	1.013465	1.224882	0.250543
	O408	O	1.053634	-0.062170	0.216828
	H409	H	1.060612	-0.068985	0.213814
	H410	H	1.048200	-0.070154	0.220282
	O411	O	1.075070	1.094665	-0.129594
	H412	H	1.056956	1.093318	-0.139810
	H413	H	1.062495	1.095805	-0.124054
	O414	O	0.001344	0.796413	0.808835
	H415	H	0.014085	0.793652	0.789589
	H416	H	0.031795	0.803427	0.816902
	O417	O	0.288541	0.466393	0.471134
	H418	H	0.297248	0.436821	0.483316
	H419	H	0.296040	0.469965	0.452217
	O420	O	0.684631	0.517241	0.712865
	H421	H	0.671290	0.507949	0.686721
	H422	H	0.698359	0.516986	0.741712
	O423	O	-0.209336	1.074964	0.086597
	H424	H	-0.182020	1.087878	0.096292
	H425	H	-0.216452	1.090056	0.081079
	O426	O	0.481267	0.299461	0.298842
	H427	H	0.474471	0.286482	0.304748
	H428	H	0.488656	0.294080	0.293381
	O429	O	0.638759	0.368958	0.393064
	H430	H	0.627059	0.364236	0.410971
	H431	H	0.652011	0.403179	0.383854
	O432	O	0.585504	0.507306	0.496834
	H433	H	0.581707	0.511535	0.485841
	H434	H	0.588640	0.512931	0.503979
	O435	O	0.581130	0.406562	0.539356
	H436	H	0.601095	0.414396	0.526539
	H437	H	0.581797	0.399675	0.522928
	O438	O	0.213321	0.040383	-0.035682
	H439	H	0.215788	0.030171	-0.049594
	H440	H	0.208948	0.035559	-0.053637
	O441	O	1.203493	-0.059730	0.087991
	H442	H	1.207887	-0.057944	0.112577
	H443	H	1.204556	-0.053023	0.065383
	O444	O	0.217317	1.285052	0.788604
	H445	H	0.197121	1.317402	0.803397
	H446	H	0.246180	1.270482	0.795072
	O447	O	0.442806	0.292235	0.453085
	H448	H	0.437486	0.291929	0.461775
	H449	H	0.422152	0.283915	0.461079
	O450	O	0.509532	0.462137	0.293047
	H451	H	0.528153	0.471140	0.290999
	H452	H	0.506160	0.449115	0.298969
	O453	O	0.279039	0.526199	0.291295
	H454	H	0.287018	0.510014	0.284956
	H455	H	0.250927	0.519742	0.274383
