data_Molecule from HDF5

_cell_length_a		16.221271
_cell_length_b		16.338039
_cell_length_c		16.355414
_cell_angle_alpha	89.969650
_cell_angle_beta	89.844308
_cell_angle_gamma	89.982644
_symmetry_space_group_name_H-M	'P 1'
_symmetry_Int_Tables_number		1

loop_
	_symmetry_equiv_pos_as_xyz
	x,y,z

loop_
	_atom_site_label
	_atom_site_type_symbol
	_atom_site_fract_x
	_atom_site_fract_y
	_atom_site_fract_z
	H0	H	0.398562	0.837827	0.722355
	H1	H	0.597392	0.164067	0.721776
	H2	H	0.597271	0.838307	0.290691
	H3	H	0.398344	0.163700	0.290800
	H4	H	0.711107	0.405101	0.843717
	H5	H	0.710176	0.597902	0.170663
	H6	H	0.284687	0.598556	0.842886
	H7	H	0.283687	0.404250	0.170289
	H8	H	0.834137	0.714835	0.409317
	H9	H	0.161829	0.714122	0.603658
	H10	H	0.833285	0.287996	0.604549
	H11	H	0.161823	0.286429	0.408201
	H12	H	0.833831	0.402175	0.721823
	H13	H	0.161746	0.599591	0.720753
	H14	H	0.834142	0.599067	0.293101
	H15	H	0.161711	0.401842	0.292019
	H16	H	0.400175	0.716058	0.844298
	H17	H	0.596134	0.716404	0.169249
	H18	H	0.597551	0.286417	0.844255
	H19	H	0.397753	0.285747	0.169242
	H20	H	0.711421	0.837042	0.409618
	H21	H	0.711429	0.164262	0.603492
	H22	H	0.283931	0.836884	0.604336
	H23	H	0.283826	0.164202	0.409629
	H24	H	0.899021	0.337124	0.221167
	H25	H	0.096552	0.663547	0.221765
	H26	H	0.097834	0.337856	0.790962
	H27	H	0.899489	0.663498	0.792482
	H28	H	0.210776	0.903859	0.343275
	H29	H	0.211577	0.098293	0.670374
	H30	H	0.784412	0.098323	0.343123
	H31	H	0.783429	0.904195	0.670672
	H32	H	0.333559	0.215661	0.908287
	H33	H	0.661810	0.214733	0.103476
	H34	H	0.333138	0.787414	0.104667
	H35	H	0.661947	0.787815	0.909628
	H36	H	0.334301	0.902129	0.221342
	H37	H	0.661871	0.098328	0.219423
	H38	H	0.333145	0.098348	0.793998
	H39	H	0.662765	0.903780	0.793211
	H40	H	0.899141	0.216456	0.344206
	H41	H	0.096324	0.216315	0.669748
	H42	H	0.096549	0.785175	0.344789
	H43	H	0.899092	0.787160	0.670066
	H44	H	0.212470	0.337589	0.910111
	H45	H	0.209642	0.665163	0.102336
	H46	H	0.784023	0.337603	0.103976
	H47	H	0.785764	0.664942	0.911868
	H48	H	0.405479	0.117666	0.604892
	H49	H	0.594423	0.881772	0.606495
	H50	H	0.593462	0.119231	0.408395
	H51	H	0.405524	0.886158	0.417898
	H52	H	0.588144	0.401772	0.124285
	H53	H	0.598488	0.590126	0.890466
	H54	H	0.406995	0.597988	0.122272
	H55	H	0.409058	0.405022	0.890986
	H56	H	0.115331	0.592783	0.413538
	H57	H	0.876989	0.595198	0.610048
	H58	H	0.116563	0.403303	0.600879
	H59	H	0.879240	0.406381	0.409169
	H60	H	0.112284	0.409568	0.593185
	H61	H	0.880484	0.600899	0.594067
	H62	H	0.115395	0.593318	0.412202
	H63	H	0.880894	0.404975	0.416568
	H64	H	0.400200	0.595842	0.123870
	H65	H	0.584717	0.592536	0.893306
	H66	H	0.595894	0.407768	0.124950
	H67	H	0.401704	0.407276	0.889365
	H68	H	0.585966	0.115656	0.411519
	H69	H	0.583864	0.886860	0.602145
	H70	H	0.407505	0.114850	0.598009
	H71	H	0.400474	0.883387	0.411227
	H72	H	0.899167	0.617328	0.096670
	H73	H	0.092194	0.383335	0.104651
	H74	H	0.094880	0.617954	0.912425
	H75	H	0.908496	0.386771	0.917257
	H76	H	0.105623	0.909386	0.626662
	H77	H	0.087497	0.100718	0.390798
	H78	H	0.894188	0.098583	0.626235
	H79	H	0.913928	0.899010	0.391580
	H80	H	0.614563	0.092743	0.910811
	H81	H	0.376064	0.106344	0.102882
	H82	H	0.615611	0.919209	0.111381
	H83	H	0.382052	0.908381	0.919775
	H84	H	0.620318	0.892678	0.101246
	H85	H	0.384629	0.091647	0.087397
	H86	H	0.616011	0.096935	0.911384
	H87	H	0.381568	0.913191	0.910533
	H88	H	0.905132	0.084680	0.619303
	H89	H	0.097118	0.094774	0.389424
	H90	H	0.081562	0.916496	0.618301
	H91	H	0.894167	0.903297	0.387208
	H92	H	0.088806	0.617495	0.909078
	H93	H	0.086046	0.385899	0.099534
	H94	H	0.901956	0.620298	0.108917
	H95	H	0.899692	0.383028	0.914455
	H96	H	0.400018	0.117634	0.599550
	H97	H	0.593040	0.885603	0.594805
	H98	H	0.592369	0.116195	0.416400
	H99	H	0.408690	0.884714	0.409647
	H100	H	0.587603	0.410836	0.121407
	H101	H	0.592447	0.603432	0.888304
	H102	H	0.404853	0.591031	0.121388
	H103	H	0.406421	0.412018	0.892627
	H104	H	0.114987	0.594528	0.413371
	H105	H	0.884026	0.584674	0.597963
	H106	H	0.113978	0.413698	0.603185
	H107	H	0.881912	0.412355	0.413669
	H108	H	0.911013	0.615116	0.101481
	H109	H	0.094302	0.385119	0.096681
	H110	H	0.089483	0.615696	0.915750
	H111	H	0.907220	0.383524	0.907943
	H112	H	0.086138	0.891770	0.625787
	H113	H	0.087697	0.089216	0.393567
	H114	H	0.912263	0.101349	0.622587
	H115	H	0.906522	0.917843	0.394816
	H116	H	0.614325	0.095102	0.914768
	H117	H	0.380112	0.084787	0.109035
	H118	H	0.608864	0.912381	0.084466
	H119	H	0.378322	0.903142	0.911683
	C120	C	0.376086	0.008743	0.628596
	C121	C	0.619148	0.992702	0.628494
	C122	C	0.619342	0.009046	0.384563
	C123	C	0.375828	0.992535	0.384530
	C124	C	0.618997	0.379543	0.015539
	C125	C	0.619440	0.622965	0.998682
	C126	C	0.376133	0.623102	0.015069
	C127	C	0.376223	0.379771	0.998468
	C128	C	0.006535	0.621647	0.385712
	C129	C	0.989109	0.621977	0.628258
	C130	C	0.006019	0.380116	0.627954
	C131	C	0.989321	0.379373	0.385114
	C132	C	0.875954	0.509263	0.129259
	C133	C	0.118975	0.492717	0.128254
	C134	C	0.119846	0.509339	0.884651
	C135	C	0.876647	0.492681	0.885712
	C136	C	0.119035	0.878571	0.515532
	C137	C	0.119209	0.122808	0.499066
	C138	C	0.875666	0.123057	0.514895
	C139	C	0.875757	0.878977	0.498922
	C140	C	0.506192	0.122946	0.884695
	C141	C	0.489149	0.122243	0.127711
	C142	C	0.506128	0.879739	0.127632
	C143	C	0.489526	0.880469	0.885896
	C144	C	0.378497	0.886308	0.683986
	C145	C	0.616638	0.115551	0.683106
	C146	C	0.617337	0.886543	0.329364
	C147	C	0.378288	0.115130	0.329206
	C148	C	0.673828	0.383414	0.892515
	C149	C	0.673203	0.619105	0.121667
	C150	C	0.321782	0.619901	0.892022
	C151	C	0.321138	0.383026	0.121408
	C152	C	0.882942	0.676634	0.388996
	C153	C	0.112987	0.676172	0.624379
	C154	C	0.882311	0.325682	0.625216
	C155	C	0.112928	0.324658	0.388232
	C156	C	0.882482	0.382370	0.683276
	C157	C	0.112845	0.619530	0.682796
	C158	C	0.882769	0.619163	0.331454
	C159	C	0.112956	0.381516	0.330243
	C160	C	0.379037	0.678263	0.892492
	C161	C	0.616394	0.677926	0.121157
	C162	C	0.617241	0.324790	0.892751
	C163	C	0.377810	0.324203	0.120851
	C164	C	0.674126	0.886073	0.388201
	C165	C	0.673492	0.115786	0.624540
	C166	C	0.321339	0.885816	0.625341
	C167	C	0.321343	0.115447	0.388111
	C168	C	0.878648	0.386073	0.183592
	C169	C	0.116723	0.615244	0.183391
	C170	C	0.118090	0.386594	0.829402
	C171	C	0.879165	0.615202	0.830863
	C172	C	0.173314	0.882615	0.392254
	C173	C	0.173841	0.119126	0.621753
	C174	C	0.821762	0.119273	0.392048
	C175	C	0.820793	0.882599	0.621726
	C176	C	0.382592	0.177745	0.888004
	C177	C	0.613177	0.176043	0.123943
	C178	C	0.382352	0.825041	0.124934
	C179	C	0.613155	0.825537	0.888541
	C180	C	0.382583	0.882134	0.182573
	C181	C	0.612884	0.118990	0.182005
	C182	C	0.382342	0.119798	0.830911
	C183	C	0.613345	0.882988	0.830898
	C184	C	0.878320	0.178311	0.392653
	C185	C	0.116924	0.178078	0.621351
	C186	C	0.116579	0.823838	0.392858
	C187	C	0.877903	0.824183	0.621356
	C188	C	0.175033	0.386376	0.888331
	C189	C	0.173040	0.616048	0.124330
	C190	C	0.821110	0.386307	0.125761
	C191	C	0.822411	0.615624	0.889960
	C192	C	0.397926	0.094644	0.607012
	C193	C	0.597040	0.907015	0.607333
	C194	C	0.597197	0.094743	0.405895
	C195	C	0.398257	0.906837	0.406401
	C196	C	0.597009	0.400583	0.101405
	C197	C	0.598049	0.601654	0.912782
	C198	C	0.397751	0.601429	0.100577
	C199	C	0.398861	0.401827	0.913144
	C200	C	0.092849	0.599802	0.406716
	C201	C	0.902650	0.600110	0.606936
	C202	C	0.092107	0.402275	0.605534
	C203	C	0.903051	0.401303	0.406758
	C204	C	0.897449	0.595259	0.108521
	C205	C	0.097358	0.406897	0.106507
	C206	C	0.097593	0.594928	0.906069
	C207	C	0.898689	0.406574	0.907079
	C208	C	0.097356	0.899500	0.601378
	C209	C	0.097418	0.101179	0.413419
	C210	C	0.897574	0.101468	0.600716
	C211	C	0.898273	0.900537	0.413183
	C212	C	0.592716	0.101390	0.905986
	C213	C	0.402628	0.100645	0.106330
	C214	C	0.592580	0.901454	0.105340
	C215	C	0.402985	0.902024	0.907470
	Zn216	Zn	0.497853	0.001155	0.757164
	Zn217	Zn	0.497539	0.000603	0.255614
	Zn218	Zn	0.747719	0.500779	0.007799
	Zn219	Zn	0.248067	0.501411	0.006907
	Zn220	Zn	-0.002295	0.749768	0.507077
	Zn221	Zn	-0.002672	0.251785	0.507132
	Zn222	Zn	-0.002268	0.500610	0.755905
	Zn223	Zn	-0.002008	0.500839	0.257437
	Zn224	Zn	0.497832	0.751608	0.006876
	Zn225	Zn	0.497678	0.250852	0.006691
	Zn226	Zn	0.747333	0.001031	0.506638
	Zn227	Zn	0.247601	0.000498	0.506910
	N228	N	0.411453	0.963811	0.686383
	N229	N	0.583645	0.037991	0.685628
	N230	N	0.583798	0.963817	0.327123
	N231	N	0.411498	0.037413	0.326962
	N232	N	0.675063	0.416812	0.969720
	N233	N	0.675251	0.585916	0.044431
	N234	N	0.320125	0.586160	0.969130
	N235	N	0.319940	0.416749	0.044287
	N236	N	0.960834	0.678299	0.422023
	N237	N	0.034979	0.677964	0.591411
	N238	N	0.960183	0.324147	0.591619
	N239	N	0.034873	0.322985	0.421443
	N240	N	0.960348	0.415662	0.685000
	N241	N	0.035020	0.586389	0.685006
	N242	N	0.960510	0.585705	0.329141
	N243	N	0.035133	0.414911	0.328251
	N244	N	0.412052	0.680374	0.969808
	N245	N	0.583730	0.680403	0.043586
	N246	N	0.584026	0.322155	0.970254
	N247	N	0.411434	0.322325	0.043482
	N248	N	0.675537	0.963343	0.421867
	N249	N	0.675092	0.038600	0.591135
	N250	N	0.320052	0.962868	0.591304
	N251	N	0.319895	0.038483	0.421910
	N252	N	0.911824	0.463734	0.186161
	N253	N	0.083771	0.537660	0.185790
	N254	N	0.084469	0.463919	0.826962
	N255	N	0.912160	0.537508	0.828252
	N256	N	0.174952	0.915935	0.469559
	N257	N	0.175210	0.085431	0.544637
	N258	N	0.819967	0.085550	0.469232
	N259	N	0.819451	0.916009	0.544537
	N260	N	0.460608	0.179556	0.920968
	N261	N	0.535222	0.178436	0.091221
	N262	N	0.460389	0.823450	0.091496
	N263	N	0.535272	0.823889	0.922050
	N264	N	0.460462	0.915205	0.184397
	N265	N	0.534708	0.085995	0.184181
	N266	N	0.460130	0.086421	0.828834
	N267	N	0.535382	0.916244	0.829043
	N268	N	0.911230	0.180425	0.470041
	N269	N	0.083568	0.180310	0.544133
	N270	N	0.083661	0.821260	0.470409
	N271	N	0.911606	0.821992	0.544094
	N272	N	0.176203	0.463562	0.921820
	N273	N	0.174497	0.538980	0.090713
	N274	N	0.819401	0.463648	0.092626
	N275	N	0.820751	0.538295	0.923242
	O276	O	0.475406	0.450977	0.536196
	H277	H	0.468804	0.447496	0.535844
	H278	H	0.474455	0.452431	0.537039
	O279	O	0.472789	0.437072	0.536975
	H280	H	0.464978	0.433762	0.533895
	H281	H	0.480923	0.436608	0.540882
	O282	O	1.464623	0.454506	-0.475246
	H283	H	1.467220	0.443830	-0.472302
	H284	H	1.458929	0.455675	-0.473177
	O285	O	0.446930	0.461299	0.517780
	H286	H	0.452052	0.463885	0.515615
	H287	H	0.447527	0.468445	0.517783
