data_Molecule from HDF5

_cell_length_a		16.447016
_cell_length_b		16.524448
_cell_length_c		16.518667
_cell_angle_alpha	89.888843
_cell_angle_beta	89.836688
_cell_angle_gamma	90.045038
_symmetry_space_group_name_H-M	'P 1'
_symmetry_Int_Tables_number		1

loop_
	_symmetry_equiv_pos_as_xyz
	x,y,z

loop_
	_atom_site_label
	_atom_site_type_symbol
	_atom_site_fract_x
	_atom_site_fract_y
	_atom_site_fract_z
	H0	H	0.388685	0.845573	0.723767
	H1	H	0.602999	0.159419	0.721343
	H2	H	0.600633	0.844394	0.280467
	H3	H	0.387860	0.156917	0.274810
	H4	H	0.720500	0.394958	0.841688
	H5	H	0.717465	0.602658	0.156844
	H6	H	0.275124	0.607716	0.844177
	H7	H	0.272275	0.390936	0.156028
	H8	H	0.839001	0.718365	0.398392
	H9	H	0.156068	0.723358	0.605471
	H10	H	0.840909	0.278104	0.607429
	H11	H	0.155751	0.277107	0.391914
	H12	H	0.841255	0.394089	0.723331
	H13	H	0.157451	0.605996	0.720699
	H14	H	0.840712	0.603910	0.280660
	H15	H	0.155854	0.394035	0.276695
	H16	H	0.391969	0.723427	0.843088
	H17	H	0.602601	0.721534	0.155869
	H18	H	0.605657	0.277206	0.842940
	H19	H	0.387536	0.274104	0.154796
	H20	H	0.716624	0.843949	0.397778
	H21	H	0.719396	0.159633	0.604337
	H22	H	0.273413	0.844883	0.607091
	H23	H	0.270604	0.156268	0.389398
	H24	H	0.892090	0.344408	0.223717
	H25	H	0.105599	0.658603	0.222619
	H26	H	0.109635	0.344973	0.775100
	H27	H	0.895621	0.657341	0.780095
	H28	H	0.223498	0.890831	0.343258
	H29	H	0.220973	0.107672	0.655073
	H30	H	0.777425	0.106914	0.342924
	H31	H	0.776782	0.897853	0.656982
	H32	H	0.342626	0.228363	0.890104
	H33	H	0.653910	0.222880	0.106330
	H34	H	0.340382	0.776899	0.107924
	H35	H	0.656001	0.785063	0.898188
	H36	H	0.340571	0.891361	0.224958
	H37	H	0.653337	0.107699	0.222901
	H38	H	0.340787	0.111234	0.775951
	H39	H	0.654563	0.899311	0.779860
	H40	H	0.889364	0.226604	0.345070
	H41	H	0.106583	0.225351	0.654619
	H42	H	0.106049	0.776002	0.342668
	H43	H	0.891161	0.778918	0.656686
	H44	H	0.224197	0.345189	0.893065
	H45	H	0.222301	0.657838	0.106498
	H46	H	0.777480	0.343423	0.105314
	H47	H	0.779259	0.657065	0.897121
	H48	H	0.401709	0.115861	0.587775
	H49	H	0.589058	0.889776	0.588492
	H50	H	0.589442	0.116296	0.407864
	H51	H	0.409175	0.888232	0.410260
	H52	H	0.585824	0.404322	0.112687
	H53	H	0.584918	0.595367	0.885311
	H54	H	0.410949	0.587612	0.111862
	H55	H	0.417379	0.414678	0.891462
	H56	H	0.114892	0.593430	0.406621
	H57	H	0.885091	0.591389	0.591292
	H58	H	0.111750	0.412174	0.588839
	H59	H	0.889876	0.420189	0.414785
	H60	H	0.110220	0.411835	0.584628
	H61	H	0.886726	0.589460	0.589091
	H62	H	0.110117	0.591710	0.417611
	H63	H	0.883900	0.412685	0.404679
	H64	H	0.412486	0.588471	0.111357
	H65	H	0.593534	0.594014	0.883832
	H66	H	0.593118	0.413982	0.112602
	H67	H	0.411453	0.411731	0.888398
	H68	H	0.582707	0.113717	0.408560
	H69	H	0.586861	0.889654	0.592368
	H70	H	0.415329	0.113188	0.592500
	H71	H	0.414667	0.891432	0.412343
	H72	H	0.910922	0.613652	0.092968
	H73	H	0.083897	0.391323	0.085856
	H74	H	0.087853	0.613500	0.907870
	H75	H	0.907037	0.387229	0.917506
	H76	H	0.084179	0.912153	0.609360
	H77	H	0.075847	0.084268	0.392709
	H78	H	0.910216	0.090976	0.612798
	H79	H	0.906258	0.913869	0.387415
	H80	H	0.609865	0.088863	0.909206
	H81	H	0.385150	0.087308	0.085865
	H82	H	0.610637	0.909810	0.090460
	H83	H	0.383935	0.913359	0.914150
	H84	H	0.609519	0.911472	0.086767
	H85	H	0.386230	0.085473	0.083997
	H86	H	0.609414	0.089044	0.912172
	H87	H	0.382217	0.913638	0.907439
	H88	H	0.908115	0.089641	0.613311
	H89	H	0.083026	0.096037	0.385880
	H90	H	0.084454	0.911844	0.610581
	H91	H	0.912481	0.909076	0.387548
	H92	H	0.083122	0.610567	0.911368
	H93	H	0.086990	0.389969	0.087605
	H94	H	0.909007	0.612266	0.087041
	H95	H	0.906208	0.383612	0.904880
	H96	H	0.411933	0.109137	0.579160
	H97	H	0.584971	0.890943	0.588684
	H98	H	0.587010	0.113813	0.414343
	H99	H	0.408952	0.891572	0.416273
	H100	H	0.581589	0.414541	0.108730
	H101	H	0.588274	0.587524	0.886943
	H102	H	0.411151	0.589483	0.111830
	H103	H	0.411694	0.418766	0.891197
	H104	H	0.110209	0.582683	0.409304
	H105	H	0.885633	0.588426	0.592219
	H106	H	0.109167	0.415256	0.586833
	H107	H	0.885953	0.406743	0.416921
	H108	H	0.904771	0.615162	0.091347
	H109	H	0.083480	0.390839	0.089260
	H110	H	0.089069	0.611784	0.913872
	H111	H	0.917400	0.389161	0.909634
	H112	H	0.085173	0.912479	0.609649
	H113	H	0.089928	0.082308	0.387218
	H114	H	0.909954	0.088516	0.611209
	H115	H	0.905233	0.906943	0.384405
	H116	H	0.608606	0.086301	0.910627
	H117	H	0.386592	0.085389	0.086727
	H118	H	0.609372	0.913688	0.090505
	H119	H	0.381520	0.907780	0.910822
	C120	C	0.375458	0.009796	0.621044
	C121	C	0.619128	0.994158	0.621527
	C122	C	0.618526	0.010488	0.378586
	C123	C	0.375663	0.992796	0.377894
	C124	C	0.619825	0.378521	0.007669
	C125	C	0.620191	0.622582	0.990006
	C126	C	0.377620	0.621842	0.008576
	C127	C	0.377497	0.379865	0.992338
	C128	C	0.007149	0.621294	0.379489
	C129	C	0.990475	0.622144	0.622255
	C130	C	0.006493	0.379929	0.620681
	C131	C	0.990081	0.379439	0.378479
	C132	C	0.876555	0.509368	0.122271
	C133	C	0.119264	0.493534	0.121135
	C134	C	0.120876	0.508931	0.877937
	C135	C	0.878489	0.491294	0.879272
	C136	C	0.118881	0.878597	0.507206
	C137	C	0.117925	0.121322	0.491047
	C138	C	0.876468	0.123137	0.508816
	C139	C	0.876065	0.878983	0.490818
	C140	C	0.505921	0.122806	0.878030
	C141	C	0.489141	0.119978	0.119465
	C142	C	0.506082	0.878457	0.122393
	C143	C	0.487426	0.880699	0.878997
	C144	C	0.371398	0.892501	0.683127
	C145	C	0.621257	0.112196	0.681215
	C146	C	0.619473	0.891418	0.320158
	C147	C	0.370759	0.110035	0.315354
	C148	C	0.680712	0.376206	0.889331
	C149	C	0.678480	0.622434	0.109110
	C150	C	0.315876	0.625460	0.890884
	C151	C	0.313589	0.374108	0.108911
	C152	C	0.887109	0.679337	0.378921
	C153	C	0.108908	0.682917	0.623787
	C154	C	0.888223	0.318607	0.624833
	C155	C	0.108377	0.317935	0.374637
	C156	C	0.888553	0.376417	0.682563
	C157	C	0.109675	0.624300	0.680914
	C158	C	0.887726	0.622536	0.320460
	C159	C	0.108730	0.376027	0.317054
	C160	C	0.373956	0.683066	0.890385
	C161	C	0.621567	0.681629	0.108735
	C162	C	0.623208	0.317794	0.889744
	C163	C	0.370926	0.315592	0.108389
	C164	C	0.677350	0.891558	0.378063
	C165	C	0.679416	0.112332	0.623121
	C166	C	0.314084	0.892107	0.624844
	C167	C	0.312167	0.109407	0.372473
	C168	C	0.874212	0.391269	0.182863
	C169	C	0.123622	0.611245	0.182427
	C170	C	0.126403	0.391839	0.815952
	C171	C	0.876918	0.609992	0.819971
	C172	C	0.181969	0.874111	0.390029
	C173	C	0.180237	0.125305	0.608335
	C174	C	0.816499	0.125750	0.390624
	C175	C	0.816477	0.878209	0.609704
	C176	C	0.388774	0.186017	0.873730
	C177	C	0.606925	0.181971	0.123676
	C178	C	0.387702	0.817233	0.125816
	C179	C	0.607749	0.823446	0.878559
	C180	C	0.387768	0.874351	0.184063
	C181	C	0.606515	0.124913	0.181929
	C182	C	0.387632	0.127755	0.816730
	C183	C	0.607039	0.880017	0.819535
	C184	C	0.872743	0.184979	0.391403
	C185	C	0.123542	0.183993	0.607951
	C186	C	0.123568	0.816602	0.389861
	C187	C	0.873449	0.819202	0.609398
	C188	C	0.183385	0.391853	0.874572
	C189	C	0.181764	0.610906	0.124648
	C190	C	0.817185	0.390695	0.123972
	C191	C	0.819088	0.609956	0.878002
	C192	C	0.401925	0.091442	0.594254
	C193	C	0.594265	0.911375	0.596878
	C194	C	0.593508	0.093081	0.403021
	C195	C	0.402937	0.911480	0.405164
	C196	C	0.593974	0.403816	0.089955
	C197	C	0.595932	0.599014	0.906892
	C198	C	0.403845	0.596023	0.090351
	C199	C	0.405400	0.407257	0.911574
	C200	C	0.090101	0.596381	0.403973
	C201	C	0.907515	0.596920	0.597754
	C202	C	0.088846	0.405602	0.594251
	C203	C	0.908075	0.405636	0.404680
	C204	C	0.901346	0.592174	0.097486
	C205	C	0.092479	0.412076	0.095097
	C206	C	0.094192	0.590690	0.903897
	C207	C	0.903106	0.408211	0.903721
	C208	C	0.092156	0.904790	0.588893
	C209	C	0.090804	0.094972	0.409768
	C210	C	0.902304	0.097181	0.591081
	C211	C	0.900918	0.903152	0.407933
	C212	C	0.587859	0.095864	0.903341
	C213	C	0.407254	0.093583	0.092983
	C214	C	0.588470	0.904500	0.096654
	C215	C	0.404170	0.904559	0.903588
	Zn216	Zn	0.496481	0.002107	0.749869
	Zn217	Zn	0.496473	0.001209	0.249710
	Zn218	Zn	0.748438	0.499643	-0.000543
	Zn219	Zn	0.248819	0.500904	0.000378
	Zn220	Zn	-0.002069	0.749908	0.499821
	Zn221	Zn	-0.001708	0.251037	0.499866
	Zn222	Zn	-0.000303	0.499866	0.750239
	Zn223	Zn	-0.001154	0.501207	0.250239
	Zn224	Zn	0.497214	0.751125	-0.000058
	Zn225	Zn	0.498002	0.250169	-0.000288
	Zn226	Zn	0.747848	0.001896	0.499809
	Zn227	Zn	0.246973	0.000767	0.499260
	N228	N	0.408749	0.966828	0.680966
	N229	N	0.584417	0.037655	0.680266
	N230	N	0.583768	0.966518	0.320052
	N231	N	0.409318	0.036338	0.318661
	N232	N	0.678783	0.413140	0.963840
	N233	N	0.677880	0.586605	0.034128
	N234	N	0.318040	0.588081	0.965193
	N235	N	0.317494	0.413334	0.035714
	N236	N	0.962289	0.678672	0.414818
	N237	N	0.033525	0.681661	0.588058
	N238	N	0.962780	0.320638	0.587053
	N239	N	0.033609	0.319876	0.411994
	N240	N	0.963097	0.413865	0.680085
	N241	N	0.034898	0.587391	0.680255
	N242	N	0.963399	0.587356	0.320543
	N243	N	0.034151	0.413292	0.318922
	N244	N	0.411690	0.680814	0.964449
	N245	N	0.586079	0.682067	0.033647
	N246	N	0.586292	0.319063	0.964381
	N247	N	0.409942	0.318989	0.034930
	N248	N	0.676920	0.966636	0.413487
	N249	N	0.677758	0.037784	0.586444
	N250	N	0.316529	0.966099	0.586900
	N251	N	0.314972	0.035411	0.410486
	N252	N	0.910619	0.466165	0.181789
	N253	N	0.085614	0.537200	0.180310
	N254	N	0.088253	0.465581	0.818170
	N255	N	0.912750	0.534953	0.820387
	N256	N	0.179194	0.912098	0.463974
	N257	N	0.177075	0.087228	0.534509
	N258	N	0.818690	0.088017	0.464716
	N259	N	0.817890	0.914688	0.534852
	N260	N	0.463195	0.183065	0.910957
	N261	N	0.532946	0.179014	0.085476
	N262	N	0.462301	0.819501	0.088230
	N263	N	0.532353	0.823453	0.914526
	N264	N	0.462357	0.911901	0.182182
	N265	N	0.532306	0.087037	0.179410
	N266	N	0.461482	0.088989	0.819281
	N267	N	0.530941	0.914524	0.819281
	N268	N	0.909003	0.183672	0.466091
	N269	N	0.085616	0.181729	0.534061
	N270	N	0.085132	0.819258	0.463769
	N271	N	0.909809	0.819517	0.534410
	N272	N	0.180408	0.465925	0.912246
	N273	N	0.179340	0.536696	0.087381
	N274	N	0.818613	0.465069	0.086969
	N275	N	0.820025	0.534929	0.914060
	O276	O	0.706625	0.474222	0.289359
	H277	H	0.709239	0.454827	0.300293
	H278	H	0.728889	0.459267	0.273853
	O279	O	0.492995	0.702923	0.534342
	H280	H	0.497453	0.709765	0.526316
	H281	H	0.480265	0.694846	0.507488
	O282	O	0.994701	0.968790	0.023864
	H283	H	0.994773	0.975173	0.019575
	H284	H	0.995331	0.976309	0.016742
	O285	O	0.522108	0.508502	0.283237
	H286	H	0.537145	0.490962	0.279464
	H287	H	0.533017	0.514835	0.284047
	O288	O	-0.025382	-0.023872	-0.172082
	H289	H	-0.006596	-0.044643	-0.177706
	H290	H	-0.016460	-0.011889	-0.174733
	O291	O	1.013312	0.968350	0.217704
	H292	H	0.997646	0.970103	0.214618
	H293	H	0.994360	0.974036	0.216215
	O294	O	0.033220	0.817849	0.078173
	H295	H	0.014752	0.820152	0.096847
	H296	H	0.034483	0.820665	0.083634
	O297	O	0.516943	0.294574	0.291422
	H298	H	0.506698	0.283835	0.298319
	H299	H	0.499734	0.281435	0.297597
	O300	O	0.689913	0.443975	0.544975
	H301	H	0.677708	0.455030	0.546674
	H302	H	0.683835	0.472977	0.553980
	O303	O	0.288724	0.471223	0.714897
	H304	H	0.284367	0.477293	0.714783
	H305	H	0.282328	0.482510	0.732557
	O306	O	0.199978	0.801568	0.969068
	H307	H	0.193004	0.813378	0.986968
	H308	H	0.207779	0.791750	0.985232
	O309	O	0.706696	0.705568	0.530765
	H310	H	0.723542	0.723411	0.550961
	H311	H	0.706503	0.706805	0.555875
	O312	O	0.296006	0.711507	0.487444
	H313	H	0.283525	0.704131	0.476627
	H314	H	0.286580	0.720056	0.484455
	O315	O	0.216433	0.006545	0.984078
	H316	H	0.218973	0.011443	0.993165
	H317	H	0.206405	0.012516	1.005044
	O318	O	-0.048956	0.793379	-0.047527
	H319	H	-0.041736	0.802598	-0.034228
	H320	H	-0.042846	0.787367	-0.053681
	O321	O	0.490011	0.297369	0.477426
	H322	H	0.511016	0.303667	0.500855
	H323	H	0.473406	0.292977	0.493407
	O324	O	0.817077	0.179266	0.811468
	H325	H	0.803729	0.184339	0.838095
	H326	H	0.807567	0.153969	0.822677
	O327	O	0.924584	0.184654	1.000177
	H328	H	0.924702	0.181592	1.004669
	H329	H	0.917806	0.189161	1.000291
	O330	O	0.950444	-0.211899	0.214498
	H331	H	0.924221	-0.220303	0.220745
	H332	H	0.930634	-0.228646	0.228485
	O333	O	0.805685	0.809828	0.811202
	H334	H	0.815937	0.835021	0.833347
	H335	H	0.830152	0.823724	0.825443
	O336	O	0.983949	0.214852	0.790009
	H337	H	0.971390	0.228314	0.775229
	H338	H	0.942539	0.214315	0.785628
	O339	O	0.313727	0.306133	0.685380
	H340	H	0.300761	0.344224	0.694588
	H341	H	0.340852	0.295142	0.693257
	O342	O	0.577830	0.443427	0.696845
	H343	H	0.567358	0.468124	0.693166
	H344	H	0.610750	0.457726	0.704949
	O345	O	0.175967	0.179732	0.176405
	H346	H	0.182113	0.149980	0.162791
	H347	H	0.182918	0.163585	0.157900
	O348	O	0.793743	0.001352	0.940367
	H349	H	0.795237	0.009260	0.949919
	H350	H	0.793526	0.004014	0.953037
	O351	O	1.150157	0.930157	0.110236
	H352	H	1.147276	0.920471	0.116784
	H353	H	1.130581	0.939224	0.119213
	O354	O	0.705928	0.293245	0.466889
	H355	H	0.708660	0.312249	0.491116
	H356	H	0.730720	0.280426	0.475335
	O357	O	0.812540	1.184688	0.997731
	H358	H	0.817926	1.186419	1.030622
	H359	H	0.799691	1.188290	1.002692
	O360	O	0.479736	0.296392	0.699508
	H361	H	0.478566	0.286014	0.725479
	H362	H	0.484843	0.319021	0.701377
	O363	O	0.623029	0.599261	0.390471
	H364	H	0.604768	0.588058	0.407346
	H365	H	0.616077	0.582704	0.395602
	O366	O	0.837257	0.007009	0.801709
	H367	H	0.849348	0.000373	0.809360
	H368	H	0.841411	0.009641	0.788117
	O369	O	0.325467	0.674414	0.329668
	H370	H	0.310581	0.635888	0.316262
	H371	H	0.338586	0.674725	0.344302
	O372	O	0.304697	0.277264	0.521496
	H373	H	0.305979	0.274231	0.555170
	H374	H	0.288097	0.254216	0.529128
	O375	O	0.206890	0.977980	0.786569
	H376	H	0.209473	0.981249	0.796130
	H377	H	0.231403	0.971940	0.774807
	O378	O	0.690561	0.309292	0.305689
	H379	H	0.654127	0.311818	0.303307
	H380	H	0.685045	0.300684	0.346837
	O381	O	0.909680	-0.035771	0.024407
	H382	H	0.918690	-0.032730	0.025282
	H383	H	0.915553	-0.033407	0.030030
	O384	O	-0.013053	0.100914	1.055064
	H385	H	-0.017649	0.104247	1.037683
	H386	H	-0.005690	0.108453	1.079977
	O387	O	0.020389	0.787914	0.786776
	H388	H	0.032803	0.784720	0.803343
	H389	H	0.031073	0.766924	0.766965
	O390	O	0.149051	0.157337	0.882789
	H391	H	0.137238	0.163025	0.875952
	H392	H	0.130969	0.148948	0.897749
	O393	O	0.792847	0.792604	0.026755
	H394	H	0.807264	0.805113	0.015950
	H395	H	0.769171	0.785441	0.026257
	O396	O	0.451367	0.461900	0.392007
	H397	H	0.444014	0.451715	0.403077
	H398	H	0.477115	0.478016	0.381187
	O399	O	0.459996	0.517864	0.525150
	H400	H	0.457492	0.504345	0.533096
	H401	H	0.457871	0.526208	0.531970
	O402	O	-0.025162	0.135331	1.018155
	H403	H	-0.019257	0.146236	1.017324
	H404	H	-0.027485	0.138938	1.016962
	O405	O	0.206449	0.206927	0.018217
	H406	H	0.210799	0.209886	0.008820
	H407	H	0.201282	0.218606	0.018451
	O408	O	0.704126	0.701340	0.703688
	H409	H	0.696967	0.726134	0.727107
	H410	H	0.684152	0.720128	0.721628
	O411	O	0.316388	0.484407	0.478073
	H412	H	0.301072	0.468338	0.481059
	H413	H	0.344508	0.482189	0.475092
	O414	O	0.488735	0.699249	0.300054
	H415	H	0.496126	0.689828	0.310325
	H416	H	0.465898	0.708943	0.283353
	O417	O	0.287348	0.524907	0.287388
	H418	H	0.280977	0.510578	0.284135
	H419	H	0.291876	0.511791	0.268746
	O420	O	0.724336	0.728785	0.270777
	H421	H	0.703331	0.703010	0.293039
	H422	H	0.709792	0.717412	0.265581
	O423	O	-0.129827	0.904453	0.209544
	H424	H	-0.147165	0.914208	0.191791
	H425	H	-0.152388	0.901670	0.228875
	O426	O	1.049913	1.057530	0.815240
	H427	H	1.057075	1.066539	0.804720
	H428	H	1.063054	1.058817	0.808253
	O429	O	0.484514	0.714056	0.509429
	H430	H	0.495612	0.718981	0.515338
	H431	H	0.476252	0.698189	0.511870
	O432	O	0.371481	0.541352	0.621672
	H433	H	0.369828	0.556255	0.619775
	H434	H	0.368169	0.530910	0.605989
	O435	O	0.212786	0.022022	0.212460
	H436	H	0.233101	0.019817	0.251224
	H437	H	0.182137	-0.002636	0.218225
	O438	O	1.021836	0.219840	0.221201
	H439	H	1.065173	0.207156	0.206778
	H440	H	1.028420	0.253709	0.254331
	O441	O	0.369160	0.437079	0.377179
	H442	H	0.367560	0.425827	0.375730
	H443	H	0.374784	0.428777	0.369572
	O444	O	0.184421	0.809999	0.808307
	H445	H	0.179010	0.803462	0.844579
	H446	H	0.188739	0.841273	0.814214
	O447	O	0.535064	0.720919	0.720184
	H448	H	0.520129	0.748807	0.744077
	H449	H	0.510378	0.727616	0.693274
	O450	O	0.605880	0.388789	0.579815
	H451	H	0.605697	0.412346	0.570237
	H452	H	0.602766	0.391467	0.588738
	O453	O	0.716803	0.529151	0.717068
	H454	H	0.716045	0.573269	0.712564
	H455	H	0.746629	0.534420	0.738838
	O456	O	0.805565	0.114808	0.121297
	H457	H	0.810166	0.125643	0.135957
	H458	H	0.798341	0.120234	0.132172
	O459	O	0.597811	0.440647	0.461915
	H460	H	0.587577	0.442839	0.460084
	H461	H	0.602569	0.443647	0.485010
	O462	O	0.388231	0.610140	0.704541
	H463	H	0.376224	0.614816	0.709028
	H464	H	0.397833	0.609045	0.687892
	O465	O	0.778011	-0.025871	0.218620
	H466	H	0.772735	-0.037682	0.234478
	H467	H	0.768545	-0.046995	0.231709
