data_Molecule from HDF5

_cell_length_a		16.365145
_cell_length_b		16.381117
_cell_length_c		16.343868
_cell_angle_alpha	89.940965
_cell_angle_beta	89.988150
_cell_angle_gamma	89.898848
_symmetry_space_group_name_H-M	'P 1'
_symmetry_Int_Tables_number		1

loop_
	_symmetry_equiv_pos_as_xyz
	x,y,z

loop_
	_atom_site_label
	_atom_site_type_symbol
	_atom_site_fract_x
	_atom_site_fract_y
	_atom_site_fract_z
	H0	H	0.395619	0.826428	0.722698
	H1	H	0.601378	0.147191	0.723559
	H2	H	0.603664	0.827254	0.284623
	H3	H	0.397237	0.147100	0.286213
	H4	H	0.715787	0.383250	0.842155
	H5	H	0.717406	0.590772	0.162151
	H6	H	0.280068	0.590928	0.840765
	H7	H	0.279029	0.386252	0.162810
	H8	H	0.838469	0.709333	0.397684
	H9	H	0.159815	0.705069	0.605114
	H10	H	0.838115	0.268100	0.605236
	H11	H	0.157761	0.269300	0.397388
	H12	H	0.837241	0.384827	0.719710
	H13	H	0.156794	0.593423	0.723915
	H14	H	0.836532	0.592651	0.282593
	H15	H	0.157245	0.385001	0.282139
	H16	H	0.393352	0.708895	0.842951
	H17	H	0.599701	0.704484	0.164363
	H18	H	0.602728	0.265161	0.844042
	H19	H	0.394075	0.269221	0.163663
	H20	H	0.719054	0.827339	0.401144
	H21	H	0.717010	0.147860	0.607264
	H22	H	0.278760	0.827065	0.609027
	H23	H	0.280627	0.147621	0.402499
	H24	H	0.893435	0.326898	0.221759
	H25	H	0.099601	0.647717	0.220384
	H26	H	0.098722	0.325807	0.784646
	H27	H	0.893888	0.647788	0.782432
	H28	H	0.218466	0.885250	0.343889
	H29	H	0.215176	0.089221	0.665377
	H30	H	0.775681	0.095004	0.344604
	H31	H	0.779206	0.882386	0.663267
	H32	H	0.337016	0.205767	0.901089
	H33	H	0.657198	0.208329	0.109277
	H34	H	0.336942	0.771056	0.106935
	H35	H	0.656237	0.765765	0.897882
	H36	H	0.338137	0.885566	0.223068
	H37	H	0.658384	0.091498	0.223625
	H38	H	0.337035	0.089585	0.785285
	H39	H	0.656791	0.881743	0.783108
	H40	H	0.894482	0.207093	0.341863
	H41	H	0.102336	0.207860	0.662220
	H42	H	0.103767	0.769053	0.342201
	H43	H	0.895358	0.766386	0.662365
	H44	H	0.217146	0.327018	0.897574
	H45	H	0.215048	0.647871	0.103626
	H46	H	0.777982	0.326320	0.104997
	H47	H	0.775910	0.647323	0.897283
	H48	H	0.412278	0.098293	0.590207
	H49	H	0.584869	0.872876	0.597498
	H50	H	0.583553	0.097443	0.420768
	H51	H	0.414601	0.874219	0.413219
	H52	H	0.582193	0.401764	0.114299
	H53	H	0.578109	0.573004	0.892445
	H54	H	0.400544	0.576027	0.117683
	H55	H	0.404378	0.394791	0.886022
	H56	H	0.108778	0.573339	0.414964
	H57	H	0.885620	0.572639	0.592474
	H58	H	0.115503	0.390969	0.598635
	H59	H	0.878811	0.391643	0.405302
	H60	H	0.111201	0.395098	0.583797
	H61	H	0.882230	0.581744	0.593248
	H62	H	0.112489	0.574629	0.403993
	H63	H	0.885465	0.393485	0.423057
	H64	H	0.409597	0.576048	0.115587
	H65	H	0.584296	0.585393	0.886845
	H66	H	0.585933	0.392236	0.117543
	H67	H	0.408918	0.400628	0.889426
	H68	H	0.596535	0.103570	0.416118
	H69	H	0.587974	0.875594	0.588486
	H70	H	0.401292	0.102568	0.591638
	H71	H	0.406432	0.873535	0.419562
	H72	H	0.908381	0.599514	0.087715
	H73	H	0.091477	0.372540	0.091691
	H74	H	0.081945	0.597415	0.918050
	H75	H	0.897957	0.369186	0.908781
	H76	H	0.082711	0.895386	0.616095
	H77	H	0.089857	0.076950	0.388473
	H78	H	0.909327	0.086469	0.620176
	H79	H	0.908830	0.894077	0.387503
	H80	H	0.612174	0.073963	0.911186
	H81	H	0.387591	0.074597	0.085464
	H82	H	0.615462	0.887140	0.093645
	H83	H	0.385579	0.902384	0.917876
	H84	H	0.609205	0.900264	0.086289
	H85	H	0.382851	0.071109	0.103530
	H86	H	0.613015	0.079886	0.914089
	H87	H	0.382640	0.900181	0.908915
	H88	H	0.903476	0.070204	0.616867
	H89	H	0.090041	0.079408	0.388705
	H90	H	0.090131	0.890811	0.619728
	H91	H	0.906330	0.901697	0.388998
	H92	H	0.097219	0.604299	0.913182
	H93	H	0.086103	0.372949	0.095622
	H94	H	0.902380	0.602194	0.091325
	H95	H	0.914432	0.374164	0.905220
	H96	H	0.409231	0.102797	0.600412
	H97	H	0.593983	0.871628	0.594903
	H98	H	0.584730	0.102540	0.406726
	H99	H	0.405908	0.869630	0.410138
	H100	H	0.591720	0.401089	0.117976
	H101	H	0.592135	0.572615	0.888480
	H102	H	0.405711	0.583175	0.118488
	H103	H	0.411373	0.393773	0.888577
	H104	H	0.113779	0.583866	0.411680
	H105	H	0.886460	0.578329	0.585141
	H106	H	0.110607	0.405734	0.594917
	H107	H	0.885525	0.407714	0.410517
	H108	H	0.908601	0.600935	0.095283
	H109	H	0.085338	0.374011	0.089001
	H110	H	0.083833	0.603165	0.902015
	H111	H	0.907305	0.377328	0.921506
	H112	H	0.090751	0.900240	0.618055
	H113	H	0.091400	0.077558	0.387470
	H114	H	0.919103	0.074216	0.611900
	H115	H	0.914753	0.900022	0.391162
	H116	H	0.610313	0.075484	0.917763
	H117	H	0.379917	0.088481	0.096358
	H118	H	0.613845	0.900917	0.101847
	H119	H	0.381502	0.892901	0.915586
	C120	C	0.376357	-0.004436	0.625644
	C121	C	0.620440	0.978835	0.625687
	C122	C	0.620771	-0.004174	0.382422
	C123	C	0.377844	0.978318	0.383549
	C124	C	0.618276	0.366100	0.011076
	C125	C	0.617689	0.608770	0.994537
	C126	C	0.374987	0.609695	0.011153
	C127	C	0.376659	0.366043	0.994057
	C128	C	0.005939	0.609625	0.379129
	C129	C	0.990187	0.608819	0.622566
	C130	C	0.006388	0.366230	0.623174
	C131	C	0.988672	0.366288	0.380611
	C132	C	0.875170	0.495207	0.122841
	C133	C	0.118618	0.478884	0.123112
	C134	C	0.118851	0.495491	0.879991
	C135	C	0.874986	0.479210	0.880090
	C136	C	0.120220	0.865193	0.512066
	C137	C	0.120789	0.109232	0.494334
	C138	C	0.877687	0.109385	0.511117
	C139	C	0.878040	0.866218	0.494614
	C140	C	0.505962	0.108122	0.882688
	C141	C	0.489577	0.109134	0.125819
	C142	C	0.506693	0.866086	0.125433
	C143	C	0.488611	0.866026	0.882316
	C144	C	0.376421	0.874696	0.683904
	C145	C	0.620707	0.099131	0.684399
	C146	C	0.622000	0.875209	0.324044
	C147	C	0.377759	0.099340	0.325623
	C148	C	0.676756	0.364561	0.890366
	C149	C	0.677657	0.609632	0.114445
	C150	C	0.318019	0.610232	0.889587
	C151	C	0.318038	0.366629	0.114957
	C152	C	0.886175	0.669635	0.378499
	C153	C	0.111035	0.666773	0.624033
	C154	C	0.885945	0.307523	0.623861
	C155	C	0.109459	0.308237	0.378691
	C156	C	0.885536	0.365473	0.680932
	C157	C	0.109590	0.610734	0.683160
	C158	C	0.885206	0.611629	0.321127
	C159	C	0.109013	0.365811	0.321245
	C160	C	0.374464	0.668975	0.890647
	C161	C	0.619324	0.666646	0.115419
	C162	C	0.620603	0.305587	0.891517
	C163	C	0.375587	0.308497	0.115425
	C164	C	0.679621	0.875318	0.381718
	C165	C	0.678608	0.099330	0.626488
	C166	C	0.318078	0.874988	0.627305
	C167	C	0.319391	0.099118	0.383098
	C168	C	0.874188	0.374828	0.182185
	C169	C	0.118931	0.599643	0.181315
	C170	C	0.118575	0.374218	0.822649
	C171	C	0.874333	0.599714	0.821332
	C172	C	0.179080	0.865776	0.391549
	C173	C	0.177202	0.109042	0.616394
	C174	C	0.816645	0.112291	0.391808
	C175	C	0.819059	0.864536	0.615259
	C176	C	0.385189	0.166478	0.882161
	C177	C	0.609695	0.168324	0.127208
	C178	C	0.385311	0.809541	0.125672
	C179	C	0.608552	0.805776	0.880320
	C180	C	0.385871	0.866707	0.183452
	C181	C	0.609976	0.110564	0.184524
	C182	C	0.385097	0.108697	0.824356
	C183	C	0.608837	0.863375	0.822915
	C184	C	0.875730	0.168330	0.390556
	C185	C	0.121105	0.168160	0.614717
	C186	C	0.121974	0.807765	0.390693
	C187	C	0.876866	0.806526	0.614908
	C188	C	0.177557	0.374951	0.879107
	C189	C	0.176481	0.599552	0.123020
	C190	C	0.816694	0.374614	0.123999
	C191	C	0.815844	0.599506	0.878662
	C192	C	0.400581	0.079522	0.601223
	C193	C	0.596000	0.895170	0.600907
	C194	C	0.595733	0.079322	0.407292
	C195	C	0.401941	0.894289	0.407374
	C196	C	0.593686	0.391117	0.094941
	C197	C	0.592192	0.584217	0.910818
	C198	C	0.398352	0.585515	0.095188
	C199	C	0.401056	0.389593	0.909887
	C200	C	0.089891	0.584446	0.403346
	C201	C	0.906474	0.584527	0.597393
	C202	C	0.090517	0.390307	0.599327
	C203	C	0.905014	0.390562	0.405655
	C204	C	0.899456	0.578974	0.098472
	C205	C	0.094504	0.395037	0.098987
	C206	C	0.094675	0.579545	0.903966
	C207	C	0.899518	0.395427	0.904756
	C208	C	0.095167	0.888733	0.596217
	C209	C	0.097300	0.084999	0.410038
	C210	C	0.903253	0.084306	0.594578
	C211	C	0.902743	0.891514	0.410891
	C212	C	0.589885	0.083540	0.907377
	C213	C	0.405417	0.084999	0.102171
	C214	C	0.590838	0.889244	0.101065
	C215	C	0.404881	0.891210	0.906965
	Zn216	Zn	0.497539	-0.012783	0.753797
	Zn217	Zn	0.499010	-0.012971	0.254431
	Zn218	Zn	0.746336	0.487782	0.001732
	Zn219	Zn	0.247357	0.487713	0.001255
	Zn220	Zn	-0.001093	0.737168	0.501899
	Zn221	Zn	-0.001176	0.237596	0.502135
	Zn222	Zn	-0.002622	0.487522	0.751675
	Zn223	Zn	-0.003640	0.487346	0.251584
	Zn224	Zn	0.496743	0.737751	0.003915
	Zn225	Zn	0.497607	0.236939	0.003936
	Zn226	Zn	0.749072	-0.012265	0.503285
	Zn227	Zn	0.247931	-0.013408	0.505032
	N228	N	0.411985	0.950765	0.683107
	N229	N	0.585262	0.023161	0.684125
	N230	N	0.586536	0.951420	0.324112
	N231	N	0.413354	0.023375	0.325723
	N232	N	0.675428	0.401486	0.965861
	N233	N	0.676947	0.574700	0.038056
	N234	N	0.318077	0.574057	0.965453
	N235	N	0.318434	0.401638	0.038471
	N236	N	0.962432	0.668681	0.413585
	N237	N	0.035693	0.665557	0.586899
	N238	N	0.962263	0.307806	0.588754
	N239	N	0.033666	0.308297	0.414884
	N240	N	0.961345	0.401474	0.680566
	N241	N	0.033572	0.575424	0.682520
	N242	N	0.960748	0.574881	0.321489
	N243	N	0.032825	0.401178	0.322127
	N244	N	0.409151	0.668939	0.967086
	N245	N	0.582575	0.666067	0.039765
	N246	N	0.584954	0.306476	0.967647
	N247	N	0.411011	0.308026	0.039219
	N248	N	0.679356	0.951446	0.416810
	N249	N	0.678826	0.023360	0.590946
	N250	N	0.317979	0.951077	0.591845
	N251	N	0.319348	0.022926	0.418408
	N252	N	0.909798	0.450752	0.181558
	N253	N	0.083340	0.523749	0.181325
	N254	N	0.083020	0.450387	0.822855
	N255	N	0.910180	0.523690	0.822025
	N256	N	0.178155	0.900379	0.468031
	N257	N	0.177231	0.073101	0.540398
	N258	N	0.817802	0.076086	0.467611
	N259	N	0.820023	0.901222	0.539552
	N260	N	0.461478	0.166318	0.917429
	N261	N	0.533676	0.167691	0.091449
	N262	N	0.461469	0.808917	0.090339
	N263	N	0.532673	0.807159	0.916582
	N264	N	0.462300	0.901253	0.183348
	N265	N	0.534386	0.074425	0.183727
	N266	N	0.461456	0.073469	0.824432
	N267	N	0.533497	0.900299	0.824232
	N268	N	0.913177	0.166416	0.465833
	N269	N	0.086819	0.168555	0.537914
	N270	N	0.086037	0.807308	0.466747
	N271	N	0.912838	0.807585	0.538973
	N272	N	0.178117	0.451341	0.913695
	N273	N	0.176542	0.523343	0.087830
	N274	N	0.817200	0.450473	0.087873
	N275	N	0.815962	0.523474	0.914205
	O276	O	1.107658	1.020449	-0.165371
	H277	H	1.081891	1.026471	-0.165071
	H278	H	1.102511	1.027379	-0.156098
	O279	O	0.450629	0.614456	0.647813
	H280	H	0.461925	0.610585	0.660182
	H281	H	0.442617	0.600531	0.663063
	O282	O	0.342741	0.390059	0.697077
	H283	H	0.366163	0.360741	0.691750
	H284	H	0.317935	0.382058	0.723484
	O285	O	1.098047	-0.064572	0.193738
	H286	H	1.097507	-0.068184	0.189022
	H287	H	1.101400	-0.077168	0.186137
	O288	O	-0.171655	-0.182030	0.977308
	H289	H	-0.167512	-0.181345	0.992802
	H290	H	-0.178765	-0.197800	0.983044
	O291	O	0.593631	0.599463	0.605973
	H292	H	0.582666	0.591520	0.587090
	H293	H	0.592614	0.591739	0.610970
	O294	O	0.793479	0.748212	0.808853
	H295	H	0.789913	0.750341	0.806850
	H296	H	0.788752	0.753399	0.811774
	O297	O	0.792866	0.932433	1.155673
	H298	H	0.791987	0.920350	1.169781
	H299	H	0.789427	0.940449	1.171599
	O300	O	0.048806	0.168508	0.162151
	H301	H	0.037919	0.173852	0.159427
	H302	H	0.054262	0.180922	0.180274
	O303	O	0.362588	0.323584	0.412391
	H304	H	0.377440	0.311758	0.418674
	H305	H	0.352898	0.351181	0.411574
	O306	O	0.903295	0.163107	0.022312
	H307	H	0.904404	0.143843	0.044866
	H308	H	0.891531	0.176228	0.022911
	O309	O	0.366427	0.494980	0.338954
	H310	H	0.364356	0.505910	0.347091
	H311	H	0.359113	0.494100	0.341319
	O312	O	1.198985	1.068089	0.076148
	H313	H	1.213355	1.066308	0.092761
	H314	H	1.195909	1.063338	0.083893
	O315	O	0.387126	0.341390	0.624217
	H316	H	0.409221	0.342794	0.627315
	H317	H	0.385950	0.332266	0.598901
	O318	O	0.643486	0.560445	0.498969
	H319	H	0.636799	0.569575	0.499804
	H320	H	0.641782	0.544041	0.484128
	O321	O	1.118278	0.015029	0.913182
	H322	H	1.122116	0.018185	0.908658
	H323	H	1.122560	0.019970	0.903959
	O324	O	0.531541	0.404870	0.514060
	H325	H	0.528050	0.404677	0.510329
	H326	H	0.522274	0.410335	0.521697
	O327	O	0.937389	0.948440	0.882361
	H328	H	0.945523	0.939667	0.874318
	H329	H	0.934201	0.965236	0.884504
	O330	O	0.414922	0.472086	0.468652
	H331	H	0.415567	0.477505	0.469412
	H332	H	0.416253	0.485282	0.456529
	O333	O	0.918206	1.003858	0.936540
	H334	H	0.907789	0.998475	0.941053
	H335	H	0.907079	1.003566	0.926449
	O336	O	0.409096	0.551858	0.311477
	H337	H	0.405028	0.555806	0.311613
	H338	H	0.404802	0.550875	0.309811
	O339	O	0.828729	0.168150	0.826797
	H340	H	0.834480	0.179973	0.853805
	H341	H	0.832558	0.154663	0.828660
	O342	O	-0.151495	1.005970	0.913297
	H343	H	-0.159237	1.017683	0.915257
	H344	H	-0.153516	1.010448	0.925297
	O345	O	0.104895	1.108657	1.085809
	H346	H	0.099641	1.107831	1.074327
	H347	H	0.093268	1.106837	1.075899
	O348	O	0.393609	0.302557	0.441128
	H349	H	0.373589	0.302937	0.427562
	H350	H	0.395088	0.310861	0.428126
	O351	O	0.399447	-0.423179	-0.474926
	H352	H	0.391980	-0.423653	-0.476691
	H353	H	0.390331	-0.426234	-0.471320
	O354	O	0.917138	0.952232	0.025718
	H355	H	0.913523	0.959639	0.018676
	H356	H	0.909197	0.953969	0.015207
	O357	O	0.009535	0.991775	-0.027917
	H358	H	0.005199	0.992469	-0.033269
	H359	H	0.014715	0.983486	-0.027129
	O360	O	0.174001	1.065031	1.107629
	H361	H	0.175092	1.063238	1.119931
	H362	H	0.175512	1.055739	1.112089
	O363	O	0.574338	0.443780	0.388299
	H364	H	0.584507	0.433358	0.369647
	H365	H	0.579062	0.447227	0.397779
	O366	O	0.117059	0.917279	0.008441
	H367	H	0.115190	0.923394	-0.006788
	H368	H	0.115844	0.925425	0.008429
	O369	O	0.342926	0.626823	0.430128
	H370	H	0.341410	0.625220	0.435683
	H371	H	0.336206	0.639121	0.428283
	O372	O	0.549561	0.596277	0.530118
	H373	H	0.552267	0.582616	0.535906
	H374	H	0.549698	0.595839	0.537213
	O375	O	0.550217	0.442997	0.426529
	H376	H	0.539913	0.449439	0.438211
	H377	H	0.558406	0.453369	0.430164
	O378	O	0.545895	0.469345	0.452611
	H379	H	0.545334	0.455472	0.466424
	H380	H	0.550291	0.484435	0.463126
	O381	O	0.531117	0.554436	0.334090
	H382	H	0.520708	0.532201	0.326664
	H383	H	0.530026	0.565377	0.353796
	O384	O	-0.016302	1.006167	1.045500
	H385	H	-0.044392	1.011373	1.054828
	H386	H	-0.011010	0.994065	1.043913
	O387	O	1.102469	0.838806	0.096902
	H388	H	1.094638	0.837229	0.077589
	H389	H	1.119966	0.837120	0.088541
	O390	O	0.338645	0.565078	0.457013
	H391	H	0.353683	0.573115	0.456191
	H392	H	0.331856	0.552211	0.475259
	O393	O	0.786279	0.014519	0.795715
	H394	H	0.783350	0.023306	0.780885
	H395	H	0.784527	0.030272	0.784156
	O396	O	0.122513	0.826791	0.859631
	H397	H	0.111831	0.838322	0.843264
	H398	H	0.119556	0.835585	0.867204
	O399	O	0.503579	0.361842	0.633375
	H400	H	0.503732	0.357234	0.642555
	H401	H	0.510738	0.367039	0.642215
	O402	O	1.464754	0.477299	0.702626
	H403	H	1.465444	0.464388	0.710415
	H404	H	1.469949	0.481446	0.696207
	O405	O	-0.098247	-0.182339	0.114254
	H406	H	-0.081017	-0.195093	0.133486
	H407	H	-0.105084	-0.161319	0.117290
	O408	O	0.636735	1.346107	0.426659
	H409	H	0.617364	1.339858	0.430216
	H410	H	0.638695	1.339337	0.428052
	O411	O	1.073512	1.076079	-0.176347
	H412	H	1.059553	1.082918	-0.169555
	H413	H	1.071759	1.091405	-0.190197
	O414	O	-0.426463	-0.466969	1.353738
	H415	H	-0.428606	-0.453308	1.335974
	H416	H	-0.434439	-0.485356	1.364354
	O417	O	0.623684	0.341784	0.577358
	H418	H	0.613924	0.345683	0.561361
	H419	H	0.626911	0.346777	0.579142
	O420	O	-0.088552	1.056171	0.112799
	H421	H	-0.097189	1.041406	0.114766
	H422	H	-0.095195	1.034184	0.120888
	O423	O	0.968723	-0.097011	0.049953
	H424	H	0.987364	-0.106363	0.057573
	H425	H	0.981218	-0.090699	0.052485
	O426	O	-0.022571	-0.193186	1.060905
	H427	H	-0.003703	-0.194848	1.052320
	H428	H	-0.022202	-0.197507	1.056776
	O429	O	0.594565	0.531512	0.647705
	H430	H	0.596920	0.537019	0.661934
	H431	H	0.596212	0.555971	0.644395
