data_Molecule from HDF5

_cell_length_a		16.364412
_cell_length_b		16.271001
_cell_length_c		16.360385
_cell_angle_alpha	89.972092
_cell_angle_beta	90.153554
_cell_angle_gamma	89.917181
_symmetry_space_group_name_H-M	'P 1'
_symmetry_Int_Tables_number		1

loop_
	_symmetry_equiv_pos_as_xyz
	x,y,z

loop_
	_atom_site_label
	_atom_site_type_symbol
	_atom_site_fract_x
	_atom_site_fract_y
	_atom_site_fract_z
	H0	H	0.420052	0.831035	0.694717
	H1	H	0.626015	0.153647	0.695695
	H2	H	0.625807	0.829992	0.258670
	H3	H	0.421377	0.153728	0.259256
	H4	H	0.739826	0.389348	0.816056
	H5	H	0.740435	0.597606	0.137535
	H6	H	0.302963	0.593944	0.816142
	H7	H	0.302196	0.389793	0.137670
	H8	H	0.862547	0.712503	0.375545
	H9	H	0.183375	0.710602	0.581696
	H10	H	0.861178	0.274461	0.577885
	H11	H	0.184800	0.277338	0.377610
	H12	H	0.860477	0.390218	0.694865
	H13	H	0.182372	0.596245	0.697928
	H14	H	0.860550	0.596036	0.260384
	H15	H	0.181902	0.388631	0.257162
	H16	H	0.416042	0.711590	0.816805
	H17	H	0.619584	0.708586	0.139870
	H18	H	0.621817	0.274381	0.815725
	H19	H	0.419767	0.274640	0.139023
	H20	H	0.743440	0.831219	0.372507
	H21	H	0.739649	0.155057	0.576984
	H22	H	0.305843	0.830997	0.579925
	H23	H	0.305813	0.154195	0.375249
	H24	H	0.920644	0.331055	0.193874
	H25	H	0.123467	0.655401	0.193749
	H26	H	0.121807	0.331141	0.760275
	H27	H	0.916672	0.655033	0.757385
	H28	H	0.240700	0.891762	0.316229
	H29	H	0.241335	0.094383	0.639265
	H30	H	0.804329	0.095832	0.316061
	H31	H	0.803413	0.886690	0.636489
	H32	H	0.358554	0.207385	0.876115
	H33	H	0.682197	0.210647	0.080043
	H34	H	0.358487	0.778726	0.076577
	H35	H	0.681754	0.771276	0.876800
	H36	H	0.361600	0.889233	0.196265
	H37	H	0.682868	0.094373	0.195330
	H38	H	0.360978	0.092790	0.757774
	H39	H	0.683555	0.886667	0.759667
	H40	H	0.923225	0.209678	0.314367
	H41	H	0.124510	0.210101	0.639482
	H42	H	0.128860	0.772557	0.317213
	H43	H	0.923870	0.775576	0.638584
	H44	H	0.238735	0.331369	0.873770
	H45	H	0.237472	0.655120	0.077946
	H46	H	0.804150	0.330845	0.079116
	H47	H	0.801596	0.655743	0.874273
	H48	H	0.436781	0.106588	0.568689
	H49	H	0.614052	0.879243	0.563794
	H50	H	0.610939	0.105605	0.388647
	H51	H	0.422464	0.872713	0.383603
	H52	H	0.614508	0.406653	0.090860
	H53	H	0.608764	0.584390	0.863015
	H54	H	0.437809	0.575061	0.086624
	H55	H	0.425267	0.399326	0.860672
	H56	H	0.133521	0.577425	0.392933
	H57	H	0.910002	0.585698	0.561409
	H58	H	0.130707	0.412723	0.560845
	H59	H	0.904556	0.396476	0.381885
	H60	H	0.139674	0.405406	0.583750
	H61	H	0.909766	0.578192	0.569172
	H62	H	0.139098	0.578513	0.376938
	H63	H	0.908729	0.400676	0.391688
	H64	H	0.432182	0.597339	0.095592
	H65	H	0.612918	0.581797	0.862803
	H66	H	0.607819	0.401820	0.089475
	H67	H	0.428737	0.405614	0.864372
	H68	H	0.617383	0.107376	0.387774
	H69	H	0.617416	0.875315	0.568002
	H70	H	0.432279	0.106636	0.562507
	H71	H	0.440961	0.876976	0.379173
	H72	H	0.926858	0.607946	0.062892
	H73	H	0.108479	0.378554	0.068763
	H74	H	0.108037	0.606917	0.888591
	H75	H	0.926029	0.376929	0.885168
	H76	H	0.122063	0.892867	0.597484
	H77	H	0.114772	0.076470	0.365970
	H78	H	0.935249	0.085485	0.591318
	H79	H	0.931274	0.913599	0.365313
	H80	H	0.635863	0.086639	0.889658
	H81	H	0.409284	0.079060	0.063632
	H82	H	0.636892	0.902785	0.070344
	H83	H	0.410319	0.902399	0.894881
	H84	H	0.636832	0.897362	0.068784
	H85	H	0.406301	0.079178	0.075527
	H86	H	0.634271	0.078123	0.888379
	H87	H	0.408394	0.912364	0.878954
	H88	H	0.928518	0.084792	0.592853
	H89	H	0.109279	0.090314	0.361972
	H90	H	0.121231	0.912672	0.590033
	H91	H	0.943621	0.901360	0.364991
	H92	H	0.114653	0.609266	0.888758
	H93	H	0.111097	0.379311	0.063665
	H94	H	0.925756	0.611666	0.072974
	H95	H	0.933285	0.379228	0.883128
	H96	H	0.430090	0.110199	0.568968
	H97	H	0.611185	0.876726	0.569394
	H98	H	0.612896	0.106893	0.382160
	H99	H	0.433693	0.880984	0.396903
	H100	H	0.614645	0.398903	0.093115
	H101	H	0.608566	0.579408	0.864613
	H102	H	0.415077	0.579174	0.095272
	H103	H	0.433093	0.398663	0.862627
	H104	H	0.139944	0.592137	0.386641
	H105	H	0.904993	0.588170	0.570854
	H106	H	0.139308	0.388950	0.564415
	H107	H	0.908360	0.407625	0.381736
	H108	H	0.934657	0.607413	0.069535
	H109	H	0.113908	0.376723	0.067909
	H110	H	0.111141	0.609847	0.883339
	H111	H	0.931182	0.380729	0.890945
	H112	H	0.103761	0.900088	0.589372
	H113	H	0.123554	0.086944	0.359279
	H114	H	0.932495	0.079416	0.589647
	H115	H	0.928284	0.898055	0.359352
	H116	H	0.637280	0.082732	0.882087
	H117	H	0.404673	0.088970	0.068079
	H118	H	0.634836	0.901269	0.065107
	H119	H	0.403095	0.893463	0.879934
	C120	C	0.402188	0.000964	0.597507
	C121	C	0.645197	0.983810	0.598050
	C122	C	0.645051	0.000327	0.354956
	C123	C	0.402001	0.983796	0.356012
	C124	C	0.642941	0.370850	-0.014963
	C125	C	0.640822	0.613425	0.969554
	C126	C	0.398423	0.614386	-0.014087
	C127	C	0.398642	0.370496	0.968854
	C128	C	0.031155	0.614137	0.355590
	C129	C	1.014349	0.614469	0.598552
	C130	C	0.030335	0.371292	0.599375
	C131	C	1.013933	0.371617	0.355705
	C132	C	0.899332	0.501715	0.098694
	C133	C	0.141918	0.484897	0.097960
	C134	C	0.141650	0.501877	0.855963
	C135	C	0.898784	0.485605	0.855123
	C136	C	0.146334	0.870886	0.486089
	C137	C	0.145476	0.114477	0.469341
	C138	C	0.901914	0.114268	0.484929
	C139	C	0.903141	0.872079	0.468775
	C140	C	0.529534	0.113163	0.855496
	C141	C	0.513304	0.113218	0.099332
	C142	C	0.529838	0.870739	0.098349
	C143	C	0.513158	0.870441	0.855024
	C144	C	0.402091	0.879177	0.655286
	C145	C	0.645385	0.105459	0.656223
	C146	C	0.645089	0.878615	0.297399
	C147	C	0.402162	0.105422	0.298268
	C148	C	0.700682	0.370329	0.864236
	C149	C	0.699960	0.615058	0.090089
	C150	C	0.341205	0.613909	0.864530
	C151	C	0.341071	0.370325	0.089754
	C152	C	0.910376	0.673371	0.355845
	C153	C	0.135134	0.672053	0.600113
	C154	C	0.909311	0.313107	0.598355
	C155	C	0.135893	0.315159	0.357272
	C156	C	0.908836	0.371118	0.656012
	C157	C	0.134402	0.615254	0.658361
	C158	C	0.909332	0.614934	0.298952
	C159	C	0.134595	0.370588	0.297264
	C160	C	0.397704	0.672557	0.864873
	C161	C	0.640182	0.670677	0.091024
	C162	C	0.641935	0.313092	0.864085
	C163	C	0.399529	0.313027	0.090269
	C164	C	0.703702	0.879075	0.354191
	C165	C	0.701962	0.106064	0.597416
	C166	C	0.344784	0.879439	0.598236
	C167	C	0.344661	0.105630	0.356042
	C168	C	0.900489	0.379749	0.155529
	C169	C	0.142448	0.606496	0.155532
	C170	C	0.141433	0.379656	0.798555
	C171	C	0.898016	0.606922	0.796781
	C172	C	0.203103	0.871306	0.364751
	C173	C	0.202422	0.113859	0.590986
	C174	C	0.843996	0.114654	0.363906
	C175	C	0.843760	0.869465	0.588907
	C176	C	0.407688	0.169620	0.855964
	C177	C	0.634134	0.171402	0.099099
	C178	C	0.407417	0.815647	0.097071
	C179	C	0.633931	0.810933	0.856375
	C180	C	0.409016	0.870890	0.156419
	C181	C	0.634634	0.113361	0.156326
	C182	C	0.408775	0.112705	0.797177
	C183	C	0.634699	0.868261	0.797974
	C184	C	0.903174	0.171114	0.363070
	C185	C	0.144223	0.171256	0.590939
	C186	C	0.146997	0.812471	0.365153
	C187	C	0.903704	0.814163	0.589949
	C188	C	0.199668	0.379861	0.855201
	C189	C	0.199420	0.606337	0.097691
	C190	C	0.842570	0.379618	0.098325
	C191	C	0.840447	0.607240	0.854795
	C192	C	0.426193	0.085884	0.573574
	C193	C	0.621276	0.899201	0.574061
	C194	C	0.620732	0.084795	0.379218
	C195	C	0.425543	0.898909	0.379778
	C196	C	0.619182	0.395440	0.069347
	C197	C	0.616976	0.588927	0.885267
	C198	C	0.421930	0.590840	0.070599
	C199	C	0.422195	0.394310	0.884342
	C200	C	0.115466	0.589787	0.378695
	C201	C	0.930111	0.590913	0.573993
	C202	C	0.114619	0.395250	0.576513
	C203	C	0.929204	0.394827	0.378529
	C204	C	0.922295	0.586880	0.075187
	C205	C	0.117909	0.399958	0.073807
	C206	C	0.118082	0.586478	0.879926
	C207	C	0.923030	0.401060	0.879284
	C208	C	0.122609	0.894874	0.570314
	C209	C	0.122599	0.091193	0.384427
	C210	C	0.925346	0.090273	0.569419
	C211	C	0.927294	0.897117	0.384879
	C212	C	0.613960	0.089449	0.879796
	C213	C	0.428617	0.089309	0.075923
	C214	C	0.614266	0.893614	0.074959
	C215	C	0.429222	0.895471	0.877895
	Zn216	Zn	0.522909	-0.008032	0.725884
	Zn217	Zn	0.522879	-0.008850	0.227293
	Zn218	Zn	0.771345	0.493731	-0.022801
	Zn219	Zn	0.270360	0.492855	-0.023114
	Zn220	Zn	0.023881	0.743241	0.476989
	Zn221	Zn	0.023114	0.242945	0.476994
	Zn222	Zn	0.021141	0.493669	0.727427
	Zn223	Zn	0.021667	0.493076	0.226784
	Zn224	Zn	0.520077	0.742362	-0.022225
	Zn225	Zn	0.520582	0.241840	-0.022638
	Zn226	Zn	0.773638	-0.007915	0.476392
	Zn227	Zn	0.273597	-0.007463	0.477587
	N228	N	0.437542	0.955691	0.654624
	N229	N	0.611200	0.028370	0.656985
	N230	N	0.609520	0.955085	0.297810
	N231	N	0.437188	0.028722	0.298294
	N232	N	0.701552	0.405440	0.940641
	N233	N	0.700437	0.580149	0.013566
	N234	N	0.341529	0.578431	0.940717
	N235	N	0.340288	0.405153	0.013211
	N236	N	0.987018	0.673086	0.390428
	N237	N	0.059364	0.671803	0.563694
	N238	N	0.985678	0.313232	0.563748
	N239	N	0.059890	0.315494	0.392672
	N240	N	0.985096	0.406397	0.656987
	N241	N	0.058231	0.579990	0.657533
	N242	N	0.985527	0.579132	0.298359
	N243	N	0.057564	0.404698	0.295860
	N244	N	0.432434	0.672888	0.941473
	N245	N	0.604035	0.669691	0.015099
	N246	N	0.607022	0.313206	0.940452
	N247	N	0.434527	0.313055	0.013888
	N248	N	0.703873	0.955793	0.389181
	N249	N	0.702079	0.029382	0.562101
	N250	N	0.344862	0.956113	0.563004
	N251	N	0.344259	0.028854	0.391176
	N252	N	0.934968	0.456639	0.155983
	N253	N	0.107231	0.529779	0.155705
	N254	N	0.106336	0.456464	0.798727
	N255	N	0.933246	0.530201	0.796796
	N256	N	0.202829	0.906799	0.440975
	N257	N	0.203198	0.079268	0.514340
	N258	N	0.842903	0.080100	0.440691
	N259	N	0.843422	0.904875	0.512542
	N260	N	0.483998	0.170112	0.891518
	N261	N	0.557559	0.171372	0.064251
	N262	N	0.483546	0.815342	0.061759
	N263	N	0.557562	0.811910	0.891016
	N264	N	0.486054	0.904378	0.157460
	N265	N	0.558391	0.077918	0.156530
	N266	N	0.485620	0.078565	0.796768
	N267	N	0.558697	0.904382	0.796814
	N268	N	0.938203	0.170962	0.439405
	N269	N	0.109674	0.171939	0.514245
	N270	N	0.112767	0.811771	0.441838
	N271	N	0.940118	0.815960	0.514405
	N272	N	0.200164	0.456792	0.890189
	N273	N	0.199232	0.529617	0.062605
	N274	N	0.841661	0.456688	0.063724
	N275	N	0.840780	0.530661	0.890319
	O276	O	0.453626	0.576676	0.578525
	H277	H	0.460050	0.575796	0.583836
	H278	H	0.437819	0.577542	0.571745
	O279	O	-0.304940	0.504667	0.638906
	H280	H	-0.308874	0.512467	0.639388
	H281	H	-0.301515	0.495482	0.640928
	O282	O	0.964989	-0.117082	1.039156
	H283	H	0.958733	-0.109032	1.034448
	H284	H	0.950361	-0.136232	1.044038
	O285	O	0.349921	0.472603	0.581935
	H286	H	0.342498	0.482825	0.596583
	H287	H	0.351851	0.472866	0.570573
	O288	O	0.461765	1.394544	1.298130
	H289	H	0.458433	1.392688	1.294825
	H290	H	0.477806	1.384537	1.292329
	O291	O	0.134545	0.989160	-0.017534
	H292	H	0.136405	0.982997	-0.004491
	H293	H	0.136704	0.993298	-0.007428
	O294	O	0.404767	0.348368	0.556652
	H295	H	0.402421	0.354784	0.561661
	H296	H	0.415185	0.355053	0.560462
	O297	O	0.486797	0.374644	0.525309
	H298	H	0.492226	0.380926	0.521828
	H299	H	0.488114	0.374888	0.537861
	O300	O	0.652762	0.499920	0.421772
	H301	H	0.664937	0.507831	0.417508
	H302	H	0.635300	0.489551	0.430191
	O303	O	0.053427	0.987009	1.040689
	H304	H	0.046368	0.990279	1.042611
	H305	H	0.032109	0.978518	1.038085
	O306	O	0.673737	0.394369	0.355999
	H307	H	0.667151	0.384516	0.353281
	H308	H	0.673694	0.399944	0.350971
	O309	O	0.968322	1.016146	0.047078
	H310	H	0.960671	1.025711	0.040489
	H311	H	0.963883	1.006875	0.053041
	O312	O	0.044219	-0.165950	0.078164
	H313	H	0.038731	-0.170446	0.062048
	H314	H	0.038029	-0.172447	0.078991
	O315	O	0.647780	0.332795	0.564773
	H316	H	0.637181	0.331730	0.550926
	H317	H	0.641361	0.331910	0.570261
	O318	O	0.030692	0.867370	0.858195
	H319	H	0.031895	0.870798	0.851517
	H320	H	0.020017	0.886207	0.852964
	O321	O	0.642105	0.506947	0.440897
	H322	H	0.640423	0.516341	0.430090
	H323	H	0.647349	0.501747	0.454662
	O324	O	-0.080896	1.132321	-0.150627
	H325	H	-0.073883	1.137351	-0.151407
	H326	H	-0.071498	1.141283	-0.167631
	O327	O	0.415663	0.363886	0.523863
	H328	H	0.406772	0.366733	0.528816
	H329	H	0.418151	0.363911	0.525159
	O330	O	-0.089659	-0.026093	1.056230
	H331	H	-0.085780	-0.026603	1.052425
	H332	H	-0.089660	-0.023333	1.036265
	O333	O	-0.553570	-0.397651	1.349485
	H334	H	-0.545421	-0.394429	1.325815
	H335	H	-0.558146	-0.408089	1.345084
	O336	O	-0.106545	1.148932	0.897944
	H337	H	-0.106162	1.136871	0.901535
	H338	H	-0.112119	1.152917	0.901973
	O339	O	1.184378	0.063629	0.103885
	H340	H	1.187243	0.066896	0.116808
	H341	H	1.187090	0.062912	0.102072
	O342	O	0.007120	0.035841	-0.015065
	H343	H	0.011989	0.032093	-0.030430
	H344	H	0.014539	0.037262	-0.013105
	O345	O	0.826157	0.092125	0.775540
	H346	H	0.833302	0.115412	0.780238
	H347	H	0.821834	0.107299	0.761291
	O348	O	0.435858	1.635623	0.490516
	H349	H	0.438948	1.629930	0.487234
	H350	H	0.448819	1.636972	0.490232
	O351	O	0.665466	0.603517	0.480095
	H352	H	0.667121	0.606549	0.473456
	H353	H	0.662868	0.592634	0.474568
	O354	O	0.932522	-0.070877	0.882705
	H355	H	0.936231	-0.040543	0.888881
	H356	H	0.921131	-0.080883	0.859239
	O357	O	0.464980	0.580993	0.458647
	H358	H	0.459821	0.593760	0.458724
	H359	H	0.467744	0.569467	0.465118
	O360	O	-0.180104	-0.195443	0.726215
	H361	H	-0.182685	-0.194461	0.734469
	H362	H	-0.179459	-0.182220	0.710979
	O363	O	0.554930	1.510913	0.457643
	H364	H	0.556066	1.509492	0.454392
	H365	H	0.552752	1.526028	0.468845
	O366	O	0.478442	0.595435	0.411244
	H367	H	0.473072	0.604406	0.417000
	H368	H	0.470633	0.585319	0.403026
	O369	O	-0.412978	0.598847	0.517837
	H370	H	-0.406524	0.599001	0.518732
	H371	H	-0.422380	0.602103	0.519450
	O372	O	0.521829	-0.652077	0.502462
	H373	H	0.519083	-0.641515	0.513987
	H374	H	0.515844	-0.648680	0.485404
	O375	O	0.466194	0.576861	0.378649
	H376	H	0.462600	0.565934	0.366907
	H377	H	0.474390	0.582566	0.384650
	O378	O	0.603902	1.600820	0.676603
	H379	H	0.604847	1.599550	0.673432
	H380	H	0.607281	1.598268	0.684894
	O381	O	1.107661	-0.169420	-0.089536
	H382	H	1.094182	-0.160255	-0.097294
	H383	H	1.116210	-0.182916	-0.076557
	O384	O	1.061438	1.122285	-0.110961
	H385	H	1.062051	1.122180	-0.106640
	H386	H	1.067024	1.114640	-0.111359
	O387	O	-0.013672	0.131773	-0.168457
	H388	H	-0.011054	0.144911	-0.158065
	H389	H	0.015936	0.117892	-0.166308
	O390	O	0.075717	1.071731	0.143938
	H391	H	0.065862	1.060971	0.148548
	H392	H	0.067335	1.071270	0.156274
	O393	O	0.970866	1.091571	1.119041
	H394	H	0.963972	1.083407	1.130176
	H395	H	0.974634	1.080364	1.119238
	O396	O	0.178360	0.075218	2.023145
	H397	H	0.176092	0.077038	2.039411
	H398	H	0.175738	0.062950	2.023302
	O399	O	0.165455	0.969677	0.932581
	H400	H	0.162191	0.989613	0.936232
	H401	H	0.168733	0.958265	0.924573
	O402	O	0.645613	0.369680	0.307995
	H403	H	0.653244	0.364166	0.296405
	H404	H	0.651951	0.371057	0.335183
	O405	O	1.016699	-0.131353	-0.143430
	H406	H	1.016048	-0.119659	-0.139843
	H407	H	1.016065	-0.131992	-0.147968
	O408	O	0.425758	0.532928	0.491532
	H409	H	0.421741	0.531153	0.476058
	H410	H	0.428567	0.539945	0.502883
	O411	O	1.044824	0.081571	1.056336
	H412	H	1.039832	0.082640	1.059961
	H413	H	1.062108	0.079058	1.054161
	O414	O	0.439223	0.466841	0.407872
	H415	H	0.434438	0.465223	0.418665
	H416	H	0.439708	0.469722	0.423688
	O417	O	0.906510	0.876167	1.103046
	H418	H	0.895433	0.877678	1.100407
	H419	H	0.905816	0.881071	1.092689
