data_Molecule from HDF5

_cell_length_a		16.224401
_cell_length_b		16.418970
_cell_length_c		16.372423
_cell_angle_alpha	89.790222
_cell_angle_beta	90.370690
_cell_angle_gamma	89.798687
_symmetry_space_group_name_H-M	'P 1'
_symmetry_Int_Tables_number		1

loop_
	_symmetry_equiv_pos_as_xyz
	x,y,z

loop_
	_atom_site_label
	_atom_site_type_symbol
	_atom_site_fract_x
	_atom_site_fract_y
	_atom_site_fract_z
	H0	H	0.400267	0.820115	0.714004
	H1	H	0.606412	0.140370	0.710929
	H2	H	0.604796	0.818594	0.274370
	H3	H	0.395993	0.138877	0.272161
	H4	H	0.715793	0.380696	0.829111
	H5	H	0.718610	0.576759	0.153853
	H6	H	0.282520	0.581757	0.830536
	H7	H	0.289185	0.381622	0.154949
	H8	H	0.839897	0.695070	0.389410
	H9	H	0.164735	0.693525	0.595298
	H10	H	0.840745	0.259070	0.593843
	H11	H	0.163686	0.258789	0.389960
	H12	H	0.839331	0.375210	0.707540
	H13	H	0.164903	0.577274	0.709445
	H14	H	0.838795	0.578621	0.275512
	H15	H	0.163670	0.375414	0.275683
	H16	H	0.397571	0.699535	0.831022
	H17	H	0.603290	0.694497	0.154377
	H18	H	0.606554	0.259655	0.832241
	H19	H	0.401847	0.261631	0.152794
	H20	H	0.717053	0.815930	0.396210
	H21	H	0.721206	0.139006	0.594622
	H22	H	0.288807	0.815683	0.592631
	H23	H	0.282024	0.138030	0.389131
	H24	H	0.898602	0.319002	0.211709
	H25	H	0.104731	0.639001	0.212432
	H26	H	0.107284	0.318675	0.774158
	H27	H	0.898018	0.638418	0.770277
	H28	H	0.220180	0.875482	0.329698
	H29	H	0.223262	0.078396	0.651998
	H30	H	0.783003	0.077850	0.331478
	H31	H	0.786181	0.874266	0.654629
	H32	H	0.341074	0.200205	0.887534
	H33	H	0.664164	0.196761	0.097541
	H34	H	0.340132	0.760077	0.096428
	H35	H	0.662629	0.760986	0.891424
	H36	H	0.338833	0.876885	0.209580
	H37	H	0.663491	0.079523	0.210774
	H38	H	0.341866	0.085993	0.771214
	H39	H	0.664642	0.876153	0.777316
	H40	H	0.896255	0.197047	0.332105
	H41	H	0.112329	0.199812	0.650273
	H42	H	0.105799	0.757258	0.330967
	H43	H	0.901794	0.757088	0.653542
	H44	H	0.221957	0.319192	0.891935
	H45	H	0.218599	0.641031	0.094511
	H46	H	0.785323	0.317297	0.091435
	H47	H	0.784634	0.641129	0.889193
	H48	H	0.411853	0.093441	0.584268
	H49	H	0.597264	0.866901	0.578519
	H50	H	0.586698	0.088239	0.408884
	H51	H	0.410004	0.863620	0.402435
	H52	H	0.598676	0.386408	0.107837
	H53	H	0.585568	0.566987	0.880433
	H54	H	0.409242	0.573924	0.107638
	H55	H	0.409372	0.400466	0.879491
	H56	H	0.114611	0.568273	0.413269
	H57	H	0.887709	0.569660	0.578942
	H58	H	0.114391	0.390479	0.579774
	H59	H	0.881597	0.378838	0.394565
	H60	H	0.118528	0.387987	0.587293
	H61	H	0.887355	0.565840	0.581066
	H62	H	0.116767	0.557855	0.395235
	H63	H	0.888445	0.384690	0.412133
	H64	H	0.411176	0.568193	0.105771
	H65	H	0.588731	0.581600	0.874966
	H66	H	0.592989	0.391368	0.105497
	H67	H	0.422342	0.386762	0.879743
	H68	H	0.601323	0.096116	0.403603
	H69	H	0.599417	0.860837	0.593620
	H70	H	0.416077	0.091134	0.580806
	H71	H	0.412783	0.862635	0.395919
	H72	H	0.909923	0.590833	0.077289
	H73	H	0.091226	0.365991	0.083323
	H74	H	0.079140	0.591166	0.894669
	H75	H	0.910536	0.364453	0.897768
	H76	H	0.088150	0.888192	0.602481
	H77	H	0.089384	0.064822	0.379429
	H78	H	0.913715	0.069013	0.606307
	H79	H	0.914185	0.886774	0.379115
	H80	H	0.618818	0.075870	0.907105
	H81	H	0.384406	0.075309	0.083185
	H82	H	0.615162	0.887313	0.077986
	H83	H	0.385999	0.889393	0.903238
	H84	H	0.615119	0.893809	0.087307
	H85	H	0.387742	0.071729	0.076654
	H86	H	0.614887	0.065195	0.905196
	H87	H	0.387937	0.893119	0.904815
	H88	H	0.914021	0.068456	0.606346
	H89	H	0.087804	0.069696	0.377213
	H90	H	0.095553	0.876469	0.607968
	H91	H	0.909757	0.883120	0.377358
	H92	H	0.090541	0.589367	0.911730
	H93	H	0.096778	0.365021	0.083114
	H94	H	0.906655	0.595710	0.086033
	H95	H	0.911224	0.364719	0.900776
	H96	H	0.410523	0.092312	0.578488
	H97	H	0.584688	0.866257	0.588604
	H98	H	0.587952	0.093252	0.392326
	H99	H	0.416261	0.865169	0.401586
	H100	H	0.591687	0.384195	0.106536
	H101	H	0.600207	0.570253	0.874735
	H102	H	0.415858	0.572639	0.105986
	H103	H	0.404343	0.383161	0.873002
	H104	H	0.123185	0.578014	0.396632
	H105	H	0.885776	0.569671	0.582306
	H106	H	0.118781	0.382598	0.580754
	H107	H	0.888550	0.397469	0.396938
	H108	H	0.916429	0.592303	0.085234
	H109	H	0.093851	0.364176	0.087587
	H110	H	0.098723	0.597532	0.894270
	H111	H	0.907877	0.363640	0.900156
	H112	H	0.102317	0.889247	0.606669
	H113	H	0.093357	0.068017	0.377059
	H114	H	0.914565	0.068439	0.607157
	H115	H	0.908503	0.889230	0.378879
	H116	H	0.620835	0.070746	0.897233
	H117	H	0.387023	0.067489	0.082892
	H118	H	0.619777	0.882508	0.087893
	H119	H	0.386931	0.892668	0.900211
	C120	C	0.382025	-0.013402	0.613169
	C121	C	0.625113	0.970626	0.616564
	C122	C	0.622899	-0.013490	0.371860
	C123	C	0.380445	0.969609	0.369170
	C124	C	0.623964	0.357525	0.000146
	C125	C	0.622474	0.601119	0.983586
	C126	C	0.379732	0.602714	0.000586
	C127	C	0.382152	0.359680	0.984063
	C128	C	0.010678	0.598948	0.370711
	C129	C	0.994141	0.597976	0.612092
	C130	C	0.010644	0.355595	0.613234
	C131	C	0.993120	0.356448	0.371115
	C132	C	0.880793	0.486713	0.112697
	C133	C	0.124014	0.471118	0.115204
	C134	C	0.121921	0.486932	0.870833
	C135	C	0.879234	0.470454	0.868365
	C136	C	0.125368	0.854253	0.499688
	C137	C	0.123733	0.098385	0.483402
	C138	C	0.881225	0.098995	0.500722
	C139	C	0.881064	0.855557	0.484767
	C140	C	0.511354	0.102358	0.871182
	C141	C	0.493412	0.100825	0.112862
	C142	C	0.509697	0.857377	0.114760
	C143	C	0.493671	0.859942	0.872519
	C144	C	0.381559	0.867175	0.673456
	C145	C	0.625402	0.091865	0.672614
	C146	C	0.623369	0.866119	0.314083
	C147	C	0.377834	0.090541	0.311066
	C148	C	0.678740	0.359979	0.878005
	C149	C	0.680114	0.597756	0.105485
	C150	C	0.321565	0.601784	0.878925
	C151	C	0.326727	0.361417	0.105936
	C152	C	0.888683	0.656506	0.370277
	C153	C	0.116414	0.654690	0.613626
	C154	C	0.889262	0.297462	0.613455
	C155	C	0.115074	0.298232	0.371062
	C156	C	0.888537	0.355588	0.669927
	C157	C	0.116242	0.596903	0.670445
	C158	C	0.887977	0.598359	0.313625
	C159	C	0.115210	0.356152	0.314009
	C160	C	0.378155	0.660766	0.879224
	C161	C	0.622852	0.656446	0.105600
	C162	C	0.624272	0.299591	0.879767
	C163	C	0.382753	0.301619	0.104932
	C164	C	0.679364	0.864752	0.374614
	C165	C	0.682808	0.091145	0.614770
	C166	C	0.326154	0.865010	0.612891
	C167	C	0.321269	0.090195	0.369557
	C168	C	0.879964	0.366295	0.171330
	C169	C	0.123927	0.591283	0.173151
	C170	C	0.124794	0.366439	0.813615
	C171	C	0.878845	0.590726	0.809735
	C172	C	0.181962	0.855237	0.378163
	C173	C	0.184089	0.098385	0.603757
	C174	C	0.822025	0.098130	0.379654
	C175	C	0.824578	0.854991	0.606132
	C176	C	0.389852	0.161240	0.868693
	C177	C	0.615420	0.157874	0.115558
	C178	C	0.388573	0.798751	0.115454
	C179	C	0.614591	0.800133	0.871935
	C180	C	0.387924	0.857602	0.171426
	C181	C	0.615149	0.099849	0.172207
	C182	C	0.390203	0.104366	0.810769
	C183	C	0.615521	0.857947	0.815380
	C184	C	0.878219	0.157461	0.380176
	C185	C	0.128462	0.158751	0.602714
	C186	C	0.125310	0.796248	0.379018
	C187	C	0.882064	0.796615	0.605594
	C188	C	0.182260	0.366855	0.872049
	C189	C	0.180573	0.592308	0.114306
	C190	C	0.823397	0.365766	0.111747
	C191	C	0.822194	0.591926	0.868798
	C192	C	0.405734	0.070491	0.588241
	C193	C	0.600995	0.886441	0.593547
	C194	C	0.598840	0.070694	0.394711
	C195	C	0.405708	0.885739	0.393027
	C196	C	0.601075	0.380600	0.084812
	C197	C	0.598560	0.579462	0.898962
	C198	C	0.404756	0.578819	0.084568
	C199	C	0.405379	0.383232	0.899336
	C200	C	0.095943	0.574924	0.394502
	C201	C	0.909025	0.575042	0.587631
	C202	C	0.095439	0.379856	0.589442
	C203	C	0.908210	0.380186	0.394530
	C204	C	0.904365	0.570906	0.089675
	C205	C	0.100715	0.386886	0.091470
	C206	C	0.096841	0.570842	0.893639
	C207	C	0.902954	0.386084	0.892584
	C208	C	0.102028	0.877850	0.583836
	C209	C	0.097751	0.074263	0.399732
	C210	C	0.906859	0.075322	0.584720
	C211	C	0.904107	0.879444	0.400466
	C212	C	0.596071	0.077761	0.896003
	C213	C	0.408489	0.078070	0.088047
	C214	C	0.594735	0.881079	0.091207
	C215	C	0.408920	0.884725	0.896078
	Zn216	Zn	0.503252	-0.019689	0.743814
	Zn217	Zn	0.501429	-0.020221	0.241137
	Zn218	Zn	0.751403	0.479452	-0.009141
	Zn219	Zn	0.251710	0.480478	-0.007685
	Zn220	Zn	0.002522	0.726697	0.491697
	Zn221	Zn	0.001985	0.228086	0.491774
	Zn222	Zn	0.001633	0.477622	0.740250
	Zn223	Zn	0.002018	0.478139	0.243016
	Zn224	Zn	0.501073	0.731217	-0.007738
	Zn225	Zn	0.503072	0.229350	-0.007515
	Zn226	Zn	0.752437	-0.022006	0.493959
	Zn227	Zn	0.253092	-0.023231	0.490985
	N228	N	0.415476	0.943846	0.673770
	N229	N	0.590492	0.015749	0.673935
	N230	N	0.588878	0.942778	0.312446
	N231	N	0.413950	0.014579	0.310630
	N232	N	0.678963	0.395207	0.954083
	N233	N	0.680419	0.564465	0.028644
	N234	N	0.321904	0.567056	0.955432
	N235	N	0.326346	0.396745	0.029717
	N236	N	0.966003	0.656965	0.404978
	N237	N	0.039556	0.655465	0.577893
	N238	N	0.966292	0.297325	0.578987
	N239	N	0.038223	0.298429	0.405875
	N240	N	0.965273	0.390779	0.670048
	N241	N	0.039080	0.562457	0.669525
	N242	N	0.964999	0.563334	0.313888
	N243	N	0.038497	0.391888	0.314026
	N244	N	0.413555	0.661493	0.955812
	N245	N	0.587812	0.658741	0.028834
	N246	N	0.591142	0.297931	0.956870
	N247	N	0.416244	0.300108	0.027843
	N248	N	0.678883	0.940532	0.409992
	N249	N	0.682702	0.014645	0.580819
	N250	N	0.326424	0.940392	0.576063
	N251	N	0.322752	0.014150	0.404791
	N252	N	0.914689	0.442553	0.172357
	N253	N	0.089714	0.514806	0.174113
	N254	N	0.087863	0.441985	0.812754
	N255	N	0.913178	0.514008	0.809118
	N256	N	0.182309	0.890484	0.454211
	N257	N	0.181286	0.061559	0.528579
	N258	N	0.823628	0.062574	0.455720
	N259	N	0.823910	0.891127	0.530256
	N260	N	0.466339	0.160277	0.905282
	N261	N	0.538854	0.158708	0.079565
	N262	N	0.465521	0.798569	0.080829
	N263	N	0.537869	0.801310	0.906824
	N264	N	0.464364	0.893314	0.171230
	N265	N	0.538142	0.065150	0.170922
	N266	N	0.466836	0.068429	0.812009
	N267	N	0.539259	0.894732	0.815698
	N268	N	0.914241	0.158200	0.456361
	N269	N	0.091552	0.158801	0.526939
	N270	N	0.090725	0.795678	0.455513
	N271	N	0.916564	0.796862	0.528994
	N272	N	0.180487	0.442791	0.907045
	N273	N	0.180753	0.516585	0.078958
	N274	N	0.823770	0.441717	0.075999
	N275	N	0.822113	0.515986	0.904536
	O276	O	0.433912	0.414130	0.630758
	H277	H	0.440315	0.424934	0.634938
	H278	H	0.428756	0.414956	0.622403
	O279	O	0.446670	0.376254	0.548723
	H280	H	0.434190	0.367613	0.539723
	H281	H	0.443636	0.364222	0.539030
	O282	O	0.921559	0.176491	0.880755
	H283	H	0.922116	0.193674	0.867858
	H284	H	0.889904	0.165886	0.889801
	O285	O	0.414765	0.584865	0.567783
	H286	H	0.411621	0.596846	0.558091
	H287	H	0.417451	0.582751	0.575066
	O288	O	0.577554	1.527738	1.412923
	H289	H	0.575689	1.531450	1.426356
	H290	H	0.586101	1.518596	1.414455
	O291	O	0.081185	1.079811	-0.048564
	H292	H	0.067972	1.084850	-0.060614
	H293	H	0.086044	1.081212	-0.057026
	O294	O	0.614513	0.567596	0.456766
	H295	H	0.625501	0.571802	0.457409
	H296	H	0.609641	0.562802	0.469513
	O297	O	0.391420	0.540398	0.542458
	H298	H	0.393464	0.534091	0.527383
	H299	H	0.381709	0.535824	0.532802
	O300	O	0.391168	0.492782	0.468728
	H301	H	0.389285	0.483966	0.462986
	H302	H	0.387861	0.494144	0.453864
	O303	O	0.414822	0.626765	0.423089
	H304	H	0.419492	0.620395	0.417417
	H305	H	0.412080	0.635941	0.420023
	O306	O	0.619515	0.371955	0.484506
	H307	H	0.627888	0.376868	0.478667
	H308	H	0.615402	0.375686	0.490403
	O309	O	1.149828	0.781816	-0.054764
	H310	H	1.147129	0.782981	-0.079089
	H311	H	1.153482	0.770112	-0.065827
	O312	O	0.143587	-0.020493	0.105390
	H313	H	0.150746	-0.025990	0.083776
	H314	H	0.124366	-0.031938	0.101278
	O315	O	0.634643	0.409510	0.516027
	H316	H	0.635789	0.414900	0.510959
	H317	H	0.630911	0.409111	0.515475
	O318	O	-0.004805	0.980433	0.900048
	H319	H	-0.008646	0.988795	0.890820
	H320	H	0.008343	0.978556	0.899511
	O321	O	0.580021	0.462586	0.609429
	H322	H	0.581458	0.471440	0.619936
	H323	H	0.579869	0.451712	0.609805
	O324	O	-0.172297	0.784077	0.192092
	H325	H	-0.166342	0.785811	0.193297
	H326	H	-0.151730	0.800684	0.191614
	O327	O	0.551820	0.498716	0.566114
	H328	H	0.554970	0.489610	0.558521
	H329	H	0.543534	0.503640	0.568251
	O330	O	0.112248	-0.173104	0.829318
	H331	H	0.110633	-0.151750	0.829001
	H332	H	0.078154	-0.158771	0.820358
	O333	O	-0.024849	-0.213844	1.119213
	H334	H	-0.017043	-0.232261	1.131321
	H335	H	-0.035762	-0.211435	1.114632
	O336	O	-0.105053	1.100480	0.883640
	H337	H	-0.110809	1.110412	0.892271
	H338	H	-0.090618	1.070196	0.889492
	O339	O	1.010414	-0.028963	-0.076972
	H340	H	1.039233	-0.034268	-0.082872
	H341	H	1.000688	-0.027606	-0.080241
	O342	O	0.143737	-0.052038	0.028198
	H343	H	0.158419	-0.064163	0.026112
	H344	H	0.138309	-0.061052	0.022708
	O345	O	0.830311	0.156868	0.872180
	H346	H	0.830277	0.151505	0.878619
	H347	H	0.829845	0.161949	0.895139
	O348	O	0.455577	1.538602	0.361409
	H349	H	0.450129	1.542493	0.367943
	H350	H	0.457459	1.543632	0.363558
	O351	O	0.541949	0.456989	0.518750
	H352	H	0.526805	0.444781	0.524768
	H353	H	0.554951	0.449589	0.528791
	O354	O	1.010548	-0.012060	0.812953
	H355	H	1.010174	-0.009477	0.801499
	H356	H	0.999127	-0.008325	0.822869
	O357	O	0.499904	0.430156	0.546818
	H358	H	0.487215	0.431382	0.544038
	H359	H	0.484878	0.433050	0.564757
	O360	O	0.603438	0.417146	0.447076
	H361	H	0.618106	0.431746	0.447536
	H362	H	0.594031	0.409314	0.435633
	O363	O	0.011101	0.922271	0.904425
	H364	H	0.008905	0.908380	0.903539
	H365	H	-0.009511	0.920877	0.914459
	O366	O	0.651567	0.499021	0.409079
	H367	H	0.653215	0.499841	0.420858
	H368	H	0.666239	0.490070	0.426774
	O369	O	-0.184986	0.934567	-0.040018
	H370	H	-0.187141	0.943989	-0.032827
	H371	H	-0.186587	0.939619	-0.041135
	O372	O	0.257853	0.317292	0.215440
	H373	H	0.273116	0.313638	0.216062
	H374	H	0.269289	0.314453	0.190075
	O375	O	0.448021	0.388611	0.364206
	H376	H	0.452168	0.391254	0.354856
	H377	H	0.458240	0.389236	0.353796
	O378	O	0.869317	0.950771	-0.105405
	H379	H	0.862110	0.955073	-0.113363
	H380	H	0.865288	0.970642	-0.105413
	O381	O	0.967179	-0.017136	0.104334
	H382	H	0.978746	-0.009280	0.095262
	H383	H	0.965904	-0.019923	0.111794
	O384	O	0.999290	1.116993	0.184450
	H385	H	0.998646	1.111800	0.196221
	H386	H	1.018230	1.117840	0.190840
	O387	O	-0.068887	-0.166372	-0.001596
	H388	H	-0.069595	-0.153868	-0.021202
	H389	H	-0.071642	-0.166984	-0.001778
	O390	O	0.192487	1.069623	0.099553
	H391	H	0.202276	1.061325	0.090587
	H392	H	0.205112	1.072014	0.124764
	O393	O	1.071798	1.073343	1.122315
	H394	H	1.075559	1.071117	1.127017
	H395	H	1.080079	1.066765	1.116007
	O396	O	0.348080	0.400219	1.495738
	H397	H	0.348669	0.396413	1.480397
	H398	H	0.342409	0.404219	1.494771
	O399	O	-0.201595	0.850700	1.054995
	H400	H	-0.212103	0.838272	1.066303
	H401	H	-0.200981	0.856786	1.080086
	O402	O	0.532156	0.436466	0.598562
	H403	H	0.529243	0.448253	0.596663
	H404	H	0.517640	0.436582	0.590549
	O405	O	1.161118	1.106684	0.102827
	H406	H	1.160845	1.111007	0.081475
	H407	H	1.157850	1.088574	0.084211
	O408	O	1.084474	0.962149	-0.203433
	H409	H	1.091177	0.959540	-0.216201
	H410	H	1.077775	0.972697	-0.206196
	O411	O	0.844535	-0.074437	1.168287
	H412	H	0.834714	-0.063608	1.173337
	H413	H	0.874598	-0.075541	1.172061
	O414	O	0.452111	0.628303	0.393451
	H415	H	0.453053	0.635457	0.398323
	H416	H	0.451897	0.631859	0.382847
	O417	O	1.123711	1.112750	0.911713
	H418	H	1.109647	1.099570	0.899896
	H419	H	1.122602	1.124638	0.904412
