data_Molecule from HDF5

_cell_length_a		16.283867
_cell_length_b		16.351556
_cell_length_c		16.232047
_cell_angle_alpha	89.868941
_cell_angle_beta	90.040183
_cell_angle_gamma	89.751113
_symmetry_space_group_name_H-M	'P 1'
_symmetry_Int_Tables_number		1

loop_
	_symmetry_equiv_pos_as_xyz
	x,y,z

loop_
	_atom_site_label
	_atom_site_type_symbol
	_atom_site_fract_x
	_atom_site_fract_y
	_atom_site_fract_z
	H0	H	0.406985	0.847458	0.705159
	H1	H	0.600808	0.174614	0.702535
	H2	H	0.603872	0.847515	0.274529
	H3	H	0.405933	0.173392	0.273909
	H4	H	0.718833	0.413275	0.825571
	H5	H	0.718112	0.607754	0.154166
	H6	H	0.290479	0.609933	0.825612
	H7	H	0.293069	0.412900	0.154030
	H8	H	0.841929	0.726402	0.389665
	H9	H	0.167754	0.725257	0.590210
	H10	H	0.841452	0.295633	0.589468
	H11	H	0.167887	0.293463	0.389837
	H12	H	0.841285	0.413050	0.704042
	H13	H	0.168708	0.606844	0.703254
	H14	H	0.840974	0.608524	0.275628
	H15	H	0.168743	0.412025	0.276505
	H16	H	0.405806	0.725828	0.826422
	H17	H	0.603354	0.723367	0.153328
	H18	H	0.604444	0.296581	0.825896
	H19	H	0.408200	0.296267	0.153271
	H20	H	0.720717	0.847328	0.391281
	H21	H	0.719271	0.173507	0.588404
	H22	H	0.290541	0.847747	0.588437
	H23	H	0.287834	0.172830	0.388899
	H24	H	0.907762	0.347816	0.205647
	H25	H	0.102380	0.674296	0.204113
	H26	H	0.103835	0.346877	0.776379
	H27	H	0.907681	0.673816	0.775911
	H28	H	0.218757	0.911162	0.325148
	H29	H	0.218578	0.107631	0.653401
	H30	H	0.790081	0.108257	0.325826
	H31	H	0.792068	0.913291	0.653878
	H32	H	0.342448	0.227222	0.889217
	H33	H	0.668314	0.223844	0.087908
	H34	H	0.341993	0.795253	0.089010
	H35	H	0.668555	0.793920	0.890380
	H36	H	0.340662	0.912595	0.203754
	H37	H	0.668814	0.106105	0.202659
	H38	H	0.340761	0.107387	0.777326
	H39	H	0.668693	0.912442	0.775540
	H40	H	0.903946	0.225946	0.325800
	H41	H	0.103077	0.223512	0.653487
	H42	H	0.102786	0.795616	0.326070
	H43	H	0.906406	0.796502	0.653986
	H44	H	0.220077	0.347517	0.893396
	H45	H	0.219653	0.673503	0.088224
	H46	H	0.791396	0.347604	0.088671
	H47	H	0.789967	0.673459	0.891567
	H48	H	0.409225	0.129830	0.591478
	H49	H	0.601623	0.892029	0.589213
	H50	H	0.597877	0.128301	0.390661
	H51	H	0.415088	0.895758	0.396520
	H52	H	0.596321	0.424169	0.103685
	H53	H	0.594810	0.603936	0.872961
	H54	H	0.410066	0.596194	0.104914
	H55	H	0.408717	0.424966	0.873330
	H56	H	0.117929	0.595653	0.403289
	H57	H	0.888869	0.598062	0.585153
	H58	H	0.120104	0.421753	0.582251
	H59	H	0.885195	0.414634	0.389361
	H60	H	0.123084	0.413598	0.586815
	H61	H	0.885215	0.610456	0.586475
	H62	H	0.124219	0.602131	0.387469
	H63	H	0.889512	0.412639	0.405087
	H64	H	0.418880	0.605527	0.105194
	H65	H	0.599740	0.605344	0.871497
	H66	H	0.592221	0.410694	0.106871
	H67	H	0.420061	0.416640	0.874650
	H68	H	0.592949	0.124531	0.398083
	H69	H	0.591925	0.896693	0.583237
	H70	H	0.419406	0.123304	0.579667
	H71	H	0.410650	0.894773	0.399372
	H72	H	0.909837	0.627832	0.084661
	H73	H	0.089808	0.398421	0.079839
	H74	H	0.102530	0.627942	0.895400
	H75	H	0.913109	0.391706	0.886387
	H76	H	0.094182	0.921816	0.603966
	H77	H	0.104652	0.106692	0.368826
	H78	H	0.911732	0.103171	0.606519
	H79	H	0.909329	0.922381	0.373066
	H80	H	0.621922	0.101105	0.895489
	H81	H	0.388983	0.108983	0.074558
	H82	H	0.622177	0.923427	0.092579
	H83	H	0.385417	0.910450	0.892886
	H84	H	0.624817	0.903724	0.083486
	H85	H	0.389994	0.096646	0.082196
	H86	H	0.623295	0.106415	0.893535
	H87	H	0.391097	0.916470	0.904939
	H88	H	0.911808	0.104377	0.606944
	H89	H	0.095928	0.094009	0.376100
	H90	H	0.095825	0.910148	0.608264
	H91	H	0.917653	0.917040	0.374714
	H92	H	0.095074	0.626513	0.891874
	H93	H	0.107194	0.394130	0.076938
	H94	H	0.912630	0.625677	0.083237
	H95	H	0.920071	0.398567	0.902086
	H96	H	0.403085	0.126783	0.575912
	H97	H	0.602034	0.895898	0.577115
	H98	H	0.601954	0.126283	0.399463
	H99	H	0.410452	0.893454	0.394453
	H100	H	0.606025	0.414478	0.109457
	H101	H	0.598549	0.599913	0.873036
	H102	H	0.407090	0.607595	0.110320
	H103	H	0.407859	0.411889	0.869565
	H104	H	0.122566	0.612965	0.402055
	H105	H	0.889937	0.605639	0.575422
	H106	H	0.120053	0.412871	0.577185
	H107	H	0.891206	0.426710	0.398215
	H108	H	0.910151	0.627027	0.081324
	H109	H	0.099755	0.391935	0.093198
	H110	H	0.096356	0.624862	0.899975
	H111	H	0.902102	0.392337	0.901427
	H112	H	0.105437	0.917502	0.608606
	H113	H	0.088610	0.108827	0.373424
	H114	H	0.910740	0.104142	0.606557
	H115	H	0.909349	0.912945	0.370215
	H116	H	0.621808	0.105542	0.899169
	H117	H	0.384995	0.108888	0.087889
	H118	H	0.616636	0.919858	0.071529
	H119	H	0.389120	0.923968	0.892939
	C120	C	0.382709	0.018825	0.611288
	C121	C	0.626632	1.002374	0.611775
	C122	C	0.626712	0.018657	0.367650
	C123	C	0.382986	1.002135	0.367579
	C124	C	0.626930	0.388345	-0.001790
	C125	C	0.626406	0.630960	0.981021
	C126	C	0.383394	0.631945	-0.001620
	C127	C	0.384145	0.389124	0.980927
	C128	C	0.013459	0.632275	0.368708
	C129	C	0.996358	0.632026	0.610917
	C130	C	0.012867	0.388163	0.611233
	C131	C	0.996768	0.388888	0.368807
	C132	C	0.883276	0.519277	0.111685
	C133	C	0.126739	0.502580	0.111474
	C134	C	0.127058	0.518759	0.867843
	C135	C	0.882975	0.502225	0.867917
	C136	C	0.126493	0.888154	0.498249
	C137	C	0.125363	0.131356	0.481115
	C138	C	0.882735	0.132205	0.498394
	C139	C	0.883869	0.889431	0.481329
	C140	C	0.514023	0.132666	0.867614
	C141	C	0.496567	0.131896	0.110233
	C142	C	0.513068	0.888009	0.111152
	C143	C	0.496852	0.888745	0.868534
	C144	C	0.386277	0.896302	0.667084
	C145	C	0.622597	0.125563	0.665776
	C146	C	0.624306	0.895867	0.313005
	C147	C	0.385107	0.124794	0.311572
	C148	C	0.681273	0.392505	0.874586
	C149	C	0.680479	0.628024	0.104961
	C150	C	0.328518	0.629720	0.874624
	C151	C	0.330295	0.391989	0.104851
	C152	C	0.890657	0.688094	0.369761
	C153	C	0.119100	0.687005	0.609510
	C154	C	0.890268	0.333611	0.609496
	C155	C	0.119303	0.332104	0.370177
	C156	C	0.890378	0.391835	0.666588
	C157	C	0.119632	0.628095	0.665686
	C158	C	0.890048	0.629565	0.313325
	C159	C	0.119813	0.391146	0.314044
	C160	C	0.385601	0.687336	0.874944
	C161	C	0.623546	0.685787	0.104436
	C162	C	0.624495	0.334525	0.874653
	C163	C	0.387375	0.334105	0.104472
	C164	C	0.682622	0.896103	0.370680
	C165	C	0.680916	0.125231	0.608509
	C166	C	0.328319	0.896251	0.609159
	C167	C	0.326688	0.124565	0.368906
	C168	C	0.887045	0.396234	0.166975
	C169	C	0.123573	0.625371	0.166655
	C170	C	0.124314	0.395666	0.814140
	C171	C	0.886300	0.624929	0.813294
	C172	C	0.181442	0.890608	0.374713
	C173	C	0.180652	0.128438	0.604526
	C174	C	0.827790	0.129276	0.374702
	C175	C	0.829629	0.892677	0.605017
	C176	C	0.390752	0.188358	0.869672
	C177	C	0.619616	0.186185	0.108250
	C178	C	0.390286	0.833449	0.109152
	C179	C	0.619921	0.833036	0.870704
	C180	C	0.389743	0.891928	0.165901
	C181	C	0.619796	0.127726	0.165202
	C182	C	0.389960	0.129232	0.813946
	C183	C	0.620021	0.891679	0.813672
	C184	C	0.884234	0.187853	0.374888
	C185	C	0.123114	0.185759	0.604690
	C186	C	0.123599	0.833255	0.374902
	C187	C	0.886501	0.834725	0.605115
	C188	C	0.182494	0.396233	0.871679
	C189	C	0.181480	0.625064	0.108731
	C190	C	0.829205	0.396198	0.109026
	C191	C	0.827956	0.624859	0.870816
	C192	C	0.404298	0.104443	0.588828
	C193	C	0.604865	0.916940	0.589838
	C194	C	0.604260	0.104267	0.389666
	C195	C	0.405452	0.916941	0.390200
	C196	C	0.604726	0.409930	0.084461
	C197	C	0.604155	0.609448	0.894699
	C198	C	0.405553	0.609720	0.084457
	C199	C	0.405896	0.411264	0.894782
	C200	C	0.099199	0.609986	0.390941
	C201	C	0.910257	0.610780	0.588852
	C202	C	0.098916	0.409718	0.588572
	C203	C	0.910795	0.411406	0.391049
	C204	C	0.904559	0.604761	0.089631
	C205	C	0.105078	0.416930	0.089952
	C206	C	0.104683	0.604473	0.889268
	C207	C	0.905156	0.416288	0.890127
	C208	C	0.104899	0.910132	0.584655
	C209	C	0.103051	0.109640	0.394943
	C210	C	0.904834	0.110317	0.584334
	C211	C	0.905809	0.911053	0.395058
	C212	C	0.600064	0.110748	0.889601
	C213	C	0.410293	0.110873	0.088033
	C214	C	0.599070	0.909272	0.088899
	C215	C	0.410798	0.910526	0.890507
	Zn216	Zn	0.505032	0.011078	0.740404
	Zn217	Zn	0.504825	0.010385	0.238679
	Zn218	Zn	0.754262	0.510436	-0.009692
	Zn219	Zn	0.255675	0.510846	-0.010218
	Zn220	Zn	0.004395	0.760743	0.490123
	Zn221	Zn	0.004356	0.259663	0.489701
	Zn222	Zn	0.005177	0.510433	0.738985
	Zn223	Zn	0.005068	0.511083	0.240666
	Zn224	Zn	0.505027	0.759219	-0.010123
	Zn225	Zn	0.505249	0.260703	-0.011329
	Zn226	Zn	0.755413	0.010505	0.489856
	Zn227	Zn	0.253968	0.010386	0.489319
	N228	N	0.419261	0.973600	0.668605
	N229	N	0.589394	0.048264	0.667707
	N230	N	0.590050	0.972906	0.311071
	N231	N	0.419490	0.047820	0.310758
	N232	N	0.682979	0.425214	0.952616
	N233	N	0.682219	0.594808	0.027216
	N234	N	0.326993	0.595923	0.952363
	N235	N	0.328237	0.425686	0.027128
	N236	N	0.968088	0.689920	0.403465
	N237	N	0.041378	0.689330	0.576033
	N238	N	0.967630	0.331217	0.575831
	N239	N	0.041671	0.330865	0.403856
	N240	N	0.967941	0.424982	0.667756
	N241	N	0.042354	0.594654	0.666633
	N242	N	0.967454	0.595323	0.312727
	N243	N	0.042662	0.425388	0.312884
	N244	N	0.418936	0.688912	0.952772
	N245	N	0.590447	0.687574	0.026435
	N246	N	0.591490	0.331719	0.952512
	N247	N	0.420190	0.332346	0.026421
	N248	N	0.683825	0.973382	0.404067
	N249	N	0.683668	0.047711	0.575666
	N250	N	0.326178	0.973354	0.574948
	N251	N	0.325282	0.047453	0.403042
	N252	N	0.919732	0.473627	0.168924
	N253	N	0.090248	0.548204	0.168451
	N254	N	0.090673	0.473030	0.811580
	N255	N	0.919984	0.547648	0.811587
	N256	N	0.182955	0.924316	0.452348
	N257	N	0.182109	0.095354	0.526603
	N258	N	0.826844	0.095384	0.452155
	N259	N	0.827754	0.925649	0.527101
	N260	N	0.468891	0.190578	0.902208
	N261	N	0.541951	0.188871	0.074702
	N262	N	0.467999	0.830793	0.075895
	N263	N	0.542196	0.830841	0.903905
	N264	N	0.467225	0.924966	0.167241
	N265	N	0.542305	0.094650	0.166219
	N266	N	0.467370	0.095243	0.812762
	N267	N	0.542679	0.925656	0.812314
	N268	N	0.917812	0.189739	0.452821
	N269	N	0.089453	0.187660	0.527025
	N270	N	0.090329	0.831653	0.452600
	N271	N	0.919727	0.832744	0.527186
	N272	N	0.184122	0.473664	0.904370
	N273	N	0.183612	0.547909	0.075337
	N274	N	0.827086	0.473488	0.075084
	N275	N	0.825762	0.547315	0.903913
	O276	O	0.497022	-0.471632	1.528284
	H277	H	0.503740	-0.479661	1.528559
	H278	H	0.499581	-0.478891	1.527764
	O279	O	0.491802	0.540851	0.444793
	H280	H	0.498870	0.540471	0.445060
	H281	H	0.484978	0.542711	0.440864
	O282	O	-0.481115	0.529387	1.471801
	H283	H	-0.490594	0.540896	1.464585
	H284	H	-0.484815	0.527885	1.478245
	O285	O	0.468412	0.519240	0.474013
	H286	H	0.467187	0.520776	0.473677
	H287	H	0.461723	0.526531	0.478321
	O288	O	0.533091	0.509801	0.509291
	H289	H	0.531194	0.516291	0.516677
	H290	H	0.533819	0.509442	0.500190
	O291	O	0.451459	0.519463	0.470327
	H292	H	0.444675	0.521396	0.463862
	H293	H	0.458224	0.525224	0.468580
	O294	O	0.463678	0.575205	0.463088
	H295	H	0.462358	0.570529	0.463763
	H296	H	0.465115	0.576696	0.472227
	O297	O	0.496437	-0.488461	0.496964
	H298	H	0.493683	-0.490559	0.498974
	H299	H	0.506671	-0.491942	0.500120
