data_Molecule from HDF5

_cell_length_a		16.428437
_cell_length_b		16.439451
_cell_length_c		16.134928
_cell_angle_alpha	89.982636
_cell_angle_beta	90.208286
_cell_angle_gamma	89.941160
_symmetry_space_group_name_H-M	'P 1'
_symmetry_Int_Tables_number		1

loop_
	_symmetry_equiv_pos_as_xyz
	x,y,z

loop_
	_atom_site_label
	_atom_site_type_symbol
	_atom_site_fract_x
	_atom_site_fract_y
	_atom_site_fract_z
	H0	H	0.398639	0.830213	0.720561
	H1	H	0.600267	0.150902	0.721925
	H2	H	0.596281	0.827641	0.290121
	H3	H	0.398276	0.150249	0.284489
	H4	H	0.715562	0.387452	0.841460
	H5	H	0.714459	0.588391	0.168532
	H6	H	0.278437	0.594822	0.842395
	H7	H	0.281640	0.387872	0.167887
	H8	H	0.838817	0.711512	0.396624
	H9	H	0.157861	0.711800	0.608345
	H10	H	0.840145	0.269706	0.609477
	H11	H	0.158550	0.269567	0.396716
	H12	H	0.837981	0.390273	0.720913
	H13	H	0.158618	0.594059	0.723739
	H14	H	0.837382	0.589782	0.286912
	H15	H	0.161904	0.394688	0.290305
	H16	H	0.394931	0.709624	0.841568
	H17	H	0.599361	0.704425	0.168146
	H18	H	0.602117	0.271052	0.842061
	H19	H	0.398004	0.272772	0.167640
	H20	H	0.720356	0.832501	0.397458
	H21	H	0.719995	0.149555	0.611031
	H22	H	0.279158	0.831693	0.606274
	H23	H	0.278391	0.149796	0.395216
	H24	H	0.901663	0.329186	0.218818
	H25	H	0.097834	0.653144	0.219721
	H26	H	0.100043	0.330148	0.785767
	H27	H	0.896592	0.650908	0.784538
	H28	H	0.215542	0.887635	0.339042
	H29	H	0.220571	0.097182	0.663077
	H30	H	0.779281	0.093917	0.340874
	H31	H	0.779450	0.886314	0.665540
	H32	H	0.341052	0.213365	0.896496
	H33	H	0.658915	0.210324	0.110863
	H34	H	0.341134	0.767565	0.112495
	H35	H	0.659557	0.769882	0.900043
	H36	H	0.337756	0.890684	0.219298
	H37	H	0.660862	0.087371	0.220709
	H38	H	0.338727	0.093305	0.784753
	H39	H	0.660302	0.888775	0.785311
	H40	H	0.895977	0.208773	0.339901
	H41	H	0.102683	0.209950	0.664739
	H42	H	0.100162	0.772276	0.340020
	H43	H	0.893161	0.769449	0.663933
	H44	H	0.221237	0.332412	0.897672
	H45	H	0.222804	0.649627	0.114251
	H46	H	0.780843	0.330420	0.108396
	H47	H	0.776208	0.648825	0.896740
	H48	H	0.403410	0.104558	0.586209
	H49	H	0.587666	0.879511	0.589210
	H50	H	0.602988	0.109032	0.412524
	H51	H	0.405102	0.873897	0.407000
	H52	H	0.590296	0.392777	0.122840
	H53	H	0.588475	0.579193	0.887706
	H54	H	0.405196	0.585881	0.123338
	H55	H	0.415643	0.402195	0.892823
	H56	H	0.113387	0.580059	0.410084
	H57	H	0.886790	0.581956	0.586189
	H58	H	0.114252	0.399318	0.596986
	H59	H	0.887967	0.403475	0.415093
	H60	H	0.112799	0.395887	0.588627
	H61	H	0.885686	0.577097	0.594914
	H62	H	0.114812	0.589151	0.412063
	H63	H	0.881889	0.398117	0.405581
	H64	H	0.407351	0.572739	0.118390
	H65	H	0.588383	0.580718	0.887947
	H66	H	0.595727	0.402833	0.121460
	H67	H	0.407588	0.397620	0.886708
	H68	H	0.581048	0.105873	0.401719
	H69	H	0.594751	0.875588	0.592152
	H70	H	0.406225	0.107027	0.598168
	H71	H	0.409957	0.877664	0.415069
	H72	H	0.898956	0.608145	0.098125
	H73	H	0.098515	0.374978	0.093440
	H74	H	0.092538	0.601780	0.926352
	H75	H	0.903681	0.376908	0.920100
	H76	H	0.093709	0.901775	0.619290
	H77	H	0.091301	0.086167	0.383903
	H78	H	0.916494	0.083164	0.617062
	H79	H	0.911175	0.903148	0.388051
	H80	H	0.611737	0.076029	0.913167
	H81	H	0.387585	0.078018	0.089929
	H82	H	0.615577	0.896716	0.098589
	H83	H	0.386225	0.901105	0.910948
	H84	H	0.614885	0.893719	0.094958
	H85	H	0.384085	0.081885	0.097704
	H86	H	0.615006	0.085786	0.912206
	H87	H	0.385204	0.895680	0.915092
	H88	H	0.904432	0.085887	0.621476
	H89	H	0.090631	0.075704	0.387285
	H90	H	0.085974	0.908327	0.614404
	H91	H	0.907148	0.901109	0.387359
	H92	H	0.094641	0.608151	0.908841
	H93	H	0.088258	0.376270	0.100731
	H94	H	0.910778	0.605390	0.098629
	H95	H	0.904110	0.373780	0.908051
	H96	H	0.414491	0.102752	0.591099
	H97	H	0.587512	0.876087	0.597589
	H98	H	0.584426	0.099110	0.425790
	H99	H	0.400534	0.875881	0.415609
	H100	H	0.584806	0.401557	0.118024
	H101	H	0.589197	0.580053	0.887356
	H102	H	0.418008	0.581635	0.117800
	H103	H	0.406456	0.407337	0.890147
	H104	H	0.110718	0.583118	0.418567
	H105	H	0.882749	0.586943	0.593820
	H106	H	0.110376	0.404797	0.590160
	H107	H	0.884459	0.392489	0.416240
	H108	H	0.904843	0.603491	0.087937
	H109	H	0.088550	0.380902	0.088649
	H110	H	0.078622	0.600823	0.914291
	H111	H	0.913423	0.378673	0.913651
	H112	H	0.083621	0.897687	0.617381
	H113	H	0.082216	0.082292	0.388146
	H114	H	0.907598	0.073887	0.617596
	H115	H	0.906572	0.904946	0.388872
	H116	H	0.611813	0.082576	0.921745
	H117	H	0.384750	0.086556	0.089494
	H118	H	0.613361	0.898110	0.094574
	H119	H	0.388575	0.901722	0.917809
	C120	C	0.377171	-0.000779	0.623914
	C121	C	0.621214	0.982234	0.625281
	C122	C	0.619531	-0.001456	0.382631
	C123	C	0.375654	0.981783	0.380261
	C124	C	0.620597	0.368754	0.013164
	C125	C	0.619447	0.610027	0.995774
	C126	C	0.378000	0.612223	0.012784
	C127	C	0.379022	0.370728	0.996998
	C128	C	0.007008	0.613334	0.382014
	C129	C	0.990447	0.613057	0.624157
	C130	C	0.007095	0.369148	0.624389
	C131	C	0.990800	0.368846	0.381545
	C132	C	0.876931	0.498935	0.125287
	C133	C	0.121963	0.483003	0.126574
	C134	C	0.120207	0.498698	0.883664
	C135	C	0.876225	0.481981	0.881745
	C136	C	0.118872	0.870789	0.510193
	C137	C	0.120283	0.113090	0.493368
	C138	C	0.877645	0.112090	0.511443
	C139	C	0.877101	0.870407	0.494670
	C140	C	0.507749	0.112687	0.882668
	C141	C	0.491191	0.111768	0.125081
	C142	C	0.508047	0.867169	0.126362
	C143	C	0.491791	0.868534	0.882714
	C144	C	0.378150	0.878619	0.681943
	C145	C	0.620576	0.102446	0.683819
	C146	C	0.617742	0.876942	0.326583
	C147	C	0.377705	0.102231	0.322751
	C148	C	0.677367	0.368401	0.890363
	C149	C	0.676540	0.608863	0.119111
	C150	C	0.318315	0.613445	0.890925
	C151	C	0.321044	0.369569	0.119157
	C152	C	0.886522	0.671437	0.379318
	C153	C	0.110078	0.672249	0.627049
	C154	C	0.887550	0.310066	0.626917
	C155	C	0.111068	0.310280	0.379490
	C156	C	0.886585	0.370056	0.682539
	C157	C	0.110635	0.613128	0.683946
	C158	C	0.885710	0.610928	0.324622
	C159	C	0.112571	0.372182	0.326050
	C160	C	0.376359	0.670578	0.890517
	C161	C	0.619166	0.666424	0.119068
	C162	C	0.620333	0.310915	0.890410
	C163	C	0.378626	0.311878	0.118949
	C164	C	0.679052	0.879190	0.380506
	C165	C	0.680283	0.101796	0.628491
	C166	C	0.318747	0.879326	0.625120
	C167	C	0.318193	0.102033	0.378065
	C168	C	0.880155	0.377797	0.181933
	C169	C	0.119493	0.604293	0.183180
	C170	C	0.120507	0.378540	0.824342
	C171	C	0.876495	0.602675	0.823314
	C172	C	0.176783	0.869126	0.387861
	C173	C	0.180413	0.115045	0.614947
	C174	C	0.818340	0.112893	0.389460
	C175	C	0.818436	0.867935	0.616727
	C176	C	0.388136	0.172583	0.879504
	C177	C	0.611379	0.169932	0.128256
	C178	C	0.388464	0.808327	0.128645
	C179	C	0.611885	0.809655	0.881328
	C180	C	0.386684	0.869436	0.182486
	C181	C	0.612411	0.109164	0.182988
	C182	C	0.387250	0.112956	0.823424
	C183	C	0.612215	0.868650	0.824152
	C184	C	0.876773	0.169706	0.388822
	C185	C	0.121830	0.171320	0.615847
	C186	C	0.119210	0.811700	0.388356
	C187	C	0.875292	0.809898	0.616011
	C188	C	0.180360	0.379418	0.880374
	C189	C	0.181467	0.602505	0.129983
	C190	C	0.820242	0.378272	0.126435
	C191	C	0.816476	0.601482	0.879117
	C192	C	0.401133	0.082945	0.599064
	C193	C	0.597092	0.898697	0.600164
	C194	C	0.596189	0.082821	0.406387
	C195	C	0.398606	0.897552	0.405350
	C196	C	0.597111	0.392319	0.098637
	C197	C	0.595605	0.586728	0.910010
	C198	C	0.402972	0.587501	0.097768
	C199	C	0.403026	0.395259	0.912044
	C200	C	0.091253	0.590685	0.406558
	C201	C	0.906733	0.588902	0.599000
	C202	C	0.090844	0.393140	0.599333
	C203	C	0.906781	0.391513	0.405317
	C204	C	0.898573	0.583651	0.101559
	C205	C	0.098492	0.399184	0.101520
	C206	C	0.095554	0.581815	0.909142
	C207	C	0.900269	0.398374	0.906607
	C208	C	0.094684	0.895513	0.595008
	C209	C	0.095278	0.088563	0.408299
	C210	C	0.902486	0.087813	0.596632
	C211	C	0.901387	0.895822	0.409997
	C212	C	0.591084	0.088527	0.908317
	C213	C	0.407410	0.088818	0.099803
	C214	C	0.592599	0.889685	0.102686
	C215	C	0.408367	0.892495	0.907457
	Zn216	Zn	0.499605	-0.009391	0.753775
	Zn217	Zn	0.498748	-0.010498	0.253522
	Zn218	Zn	0.747941	0.489594	0.003882
	Zn219	Zn	0.249812	0.491409	0.004968
	Zn220	Zn	-0.001993	0.742498	0.502988
	Zn221	Zn	-0.001026	0.239860	0.502737
	Zn222	Zn	-0.000864	0.490657	0.753339
	Zn223	Zn	-0.000819	0.491579	0.253630
	Zn224	Zn	0.499840	0.739333	0.004412
	Zn225	Zn	0.499519	0.241506	0.004586
	Zn226	Zn	0.749001	-0.008968	0.503575
	Zn227	Zn	0.247567	-0.009072	0.501515
	N228	N	0.413467	0.954405	0.681458
	N229	N	0.584561	0.027200	0.681891
	N230	N	0.581408	0.952411	0.327653
	N231	N	0.412590	0.026269	0.324092
	N232	N	0.677631	0.403584	0.967709
	N233	N	0.677051	0.574739	0.041322
	N234	N	0.318887	0.578215	0.968203
	N235	N	0.321311	0.405628	0.042220
	N236	N	0.962880	0.673057	0.414328
	N237	N	0.034206	0.672363	0.590932
	N238	N	0.963489	0.309603	0.591180
	N239	N	0.034418	0.307942	0.413428
	N240	N	0.962016	0.406221	0.680874
	N241	N	0.035054	0.577277	0.682586
	N242	N	0.961415	0.575349	0.326262
	N243	N	0.036950	0.408072	0.327265
	N244	N	0.412533	0.670005	0.967443
	N245	N	0.584625	0.667311	0.041365
	N246	N	0.586113	0.310672	0.968008
	N247	N	0.414061	0.312578	0.041981
	N248	N	0.680463	0.955845	0.414450
	N249	N	0.680797	0.025764	0.592798
	N250	N	0.317733	0.955596	0.590161
	N251	N	0.316887	0.025868	0.413197
	N252	N	0.914616	0.453956	0.181383
	N253	N	0.083250	0.528937	0.181066
	N254	N	0.083730	0.453582	0.826199
	N255	N	0.912793	0.527382	0.824664
	N256	N	0.176663	0.905277	0.464739
	N257	N	0.179476	0.079343	0.537888
	N258	N	0.818766	0.077911	0.467030
	N259	N	0.819441	0.904985	0.540342
	N260	N	0.464151	0.172804	0.915377
	N261	N	0.535080	0.171855	0.093087
	N262	N	0.465093	0.806748	0.094407
	N263	N	0.536002	0.809367	0.917043
	N264	N	0.462037	0.905343	0.180990
	N265	N	0.536694	0.073677	0.181163
	N266	N	0.462499	0.076305	0.825286
	N267	N	0.536665	0.904493	0.824941
	N268	N	0.912497	0.169579	0.465972
	N269	N	0.085303	0.170276	0.539164
	N270	N	0.083777	0.812781	0.465262
	N271	N	0.910947	0.811353	0.539209
	N272	N	0.180354	0.455223	0.916567
	N273	N	0.183067	0.526109	0.095272
	N274	N	0.818265	0.454584	0.091919
	N275	N	0.816171	0.525484	0.914766
	O276	O	0.407481	0.453166	0.537825
	H277	H	0.412473	0.444334	0.515803
	H278	H	0.410552	0.458395	0.535281
	O279	O	0.493408	0.573192	0.544620
	H280	H	0.489020	0.565034	0.528011
	H281	H	0.497970	0.570408	0.550516
	O282	O	0.988221	-0.090268	1.116524
	H283	H	1.005514	-0.076893	1.098313
	H284	H	0.991913	-0.089532	1.111910
	O285	O	0.641219	0.397077	0.390326
	H286	H	0.648591	0.386911	0.385370
	H287	H	0.650424	0.400510	0.388103
	O288	O	0.841525	1.045271	1.051214
	H289	H	0.854978	1.029868	1.048544
	H290	H	0.847288	1.051498	1.047104
	O291	O	0.054123	0.843888	0.112759
	H292	H	0.069209	0.838975	0.109454
	H293	H	0.051125	0.837281	0.095406
	O294	O	0.563771	0.501698	0.601830
	H295	H	0.576504	0.522616	0.593774
	H296	H	0.563019	0.489506	0.614174
	O297	O	0.466198	0.536958	0.678743
	H298	H	0.465206	0.526525	0.681686
	H299	H	0.475101	0.542920	0.679797
	O300	O	0.456434	0.496986	0.460088
	H301	H	0.450787	0.486960	0.466307
	H302	H	0.447799	0.489823	0.450868
	O303	O	0.469345	0.480959	0.663668
	H304	H	0.470891	0.484169	0.653047
	H305	H	0.470829	0.481091	0.672062
	O306	O	0.614514	0.367410	0.417932
	H307	H	0.599078	0.366049	0.425746
	H308	H	0.616983	0.361862	0.411569
	O309	O	0.660774	0.533407	0.432617
	H310	H	0.663451	0.527417	0.424183
	H311	H	0.658851	0.538039	0.438873
	O312	O	-0.117516	0.128597	-0.037514
	H313	H	-0.107894	0.133123	-0.038493
	H314	H	-0.105397	0.125497	-0.031728
	O315	O	0.414409	0.379508	0.469277
	H316	H	0.426317	0.373852	0.477082
	H317	H	0.408446	0.369424	0.454278
	O318	O	-0.107642	1.158683	1.054375
	H319	H	-0.113039	1.159856	1.054475
	H320	H	-0.109251	1.171797	1.048588
	O321	O	0.581916	0.625847	0.562343
	H322	H	0.582146	0.635391	0.545785
	H323	H	0.574877	0.624402	0.551687
	O324	O	-0.083210	0.980955	-0.197405
	H325	H	-0.075052	0.997185	-0.191159
	H326	H	-0.085543	0.970215	-0.204661
	O327	O	0.433708	0.620149	0.519773
	H328	H	0.431151	0.629720	0.515327
	H329	H	0.438538	0.609836	0.535070
	O330	O	-0.093027	0.014843	1.080351
	H331	H	-0.089926	0.014002	1.083891
	H332	H	-0.094239	0.020957	1.064593
	O333	O	-0.042831	0.135205	0.837809
	H334	H	-0.030612	0.139764	0.836333
	H335	H	-0.023190	0.130648	0.830490
	O336	O	0.320353	0.667586	0.499377
	H337	H	0.317609	0.663373	0.502969
	H338	H	0.304529	0.675526	0.494809
	O339	O	1.179265	-0.141170	-0.105033
	H340	H	1.170378	-0.118078	-0.125788
	H341	H	1.162049	-0.145904	-0.111292
	O342	O	-0.011404	-0.157324	-0.117077
	H343	H	-0.012046	-0.173199	-0.135269
	H344	H	-0.026916	-0.157331	-0.104351
	O345	O	1.040334	0.089311	1.108236
	H346	H	1.022379	0.087090	1.097774
	H347	H	1.032450	0.082957	1.113871
	O348	O	1.137363	1.055132	-0.061986
	H349	H	1.141502	1.068357	-0.050867
	H350	H	1.139928	1.031744	-0.052949
	O351	O	0.414776	0.585310	0.506717
	H352	H	0.416657	0.585194	0.508223
	H353	H	0.419251	0.579997	0.519436
	O354	O	1.058556	0.005507	1.189160
	H355	H	1.056830	-0.007533	1.199478
	H356	H	1.070547	0.006701	1.189087
	O357	O	0.534953	0.368453	0.379454
	H358	H	0.544298	0.365018	0.374889
	H359	H	0.528431	0.371243	0.380458
	O360	O	0.363284	0.320843	0.485275
	H361	H	0.368522	0.319689	0.490535
	H362	H	0.367225	0.315099	0.493032
	O363	O	-0.145055	1.021004	1.090509
	H364	H	-0.159296	1.028957	1.086334
	H365	H	-0.151833	1.022066	1.096360
	O366	O	0.437620	0.342563	0.684824
	H367	H	0.441713	0.341111	0.702080
	H368	H	0.437901	0.357055	0.682505
	O369	O	-0.053785	0.954282	0.004488
	H370	H	-0.041170	0.944258	-0.011996
	H371	H	-0.077437	0.940343	0.011826
	O372	O	0.355898	0.531920	0.495967
	H373	H	0.353354	0.533051	0.504207
	H374	H	0.347694	0.543904	0.490252
	O375	O	0.599137	0.517414	0.497157
	H376	H	0.584988	0.523290	0.501250
	H377	H	0.605357	0.512429	0.505985
	O378	O	1.005836	0.895714	0.135071
	H379	H	0.997592	0.908790	0.147298
	H380	H	1.014189	0.896724	0.126583
	O381	O	0.993121	-0.099796	-0.051478
	H382	H	0.980283	-0.114144	-0.060379
	H383	H	0.981129	-0.097650	-0.043586
	O384	O	1.120442	1.076267	-0.120820
	H385	H	1.140097	1.074657	-0.126662
	H386	H	1.116785	1.049527	-0.107354
	O387	O	0.062608	-0.121601	-0.003534
	H388	H	0.050006	-0.128502	0.003290
	H389	H	0.050287	-0.114491	0.003514
	O390	O	-0.125943	0.780978	0.001178
	H391	H	-0.146618	0.770868	0.020371
	H392	H	-0.116149	0.784447	0.027046
	O393	O	1.201751	0.901755	1.052856
	H394	H	1.206282	0.908208	1.036185
	H395	H	1.222950	0.887738	1.042961
	O396	O	0.598549	0.431876	0.488926
	H397	H	0.589109	0.432016	0.482791
	H398	H	0.601391	0.426186	0.491544
	O399	O	0.181584	1.180767	1.052003
	H400	H	0.183995	1.193572	1.066628
	H401	H	0.190003	1.179144	1.057387
	O402	O	0.570482	0.393839	0.513826
	H403	H	0.567873	0.386628	0.521137
	H404	H	0.580219	0.394237	0.506728
	O405	O	0.799907	1.240606	-0.162999
	H406	H	0.816436	1.237148	-0.178988
	H407	H	0.792201	1.257933	-0.164715
	O408	O	1.166211	0.899956	-0.156505
	H409	H	1.172047	0.898288	-0.174091
	H410	H	1.163199	0.909190	-0.146202
	O411	O	0.834854	-0.005942	0.813267
	H412	H	0.822910	0.017571	0.796409
	H413	H	0.845881	-0.007128	0.820660
	O414	O	0.392213	0.537613	0.456758
	H415	H	0.367388	0.544583	0.443654
	H416	H	0.397633	0.540885	0.468628
	O417	O	0.648033	0.508487	0.614152
	H418	H	0.648102	0.500639	0.619021
	H419	H	0.657963	0.511129	0.607486
