data_Molecule from HDF5

_cell_length_a		16.312409
_cell_length_b		16.244548
_cell_length_c		16.291056
_cell_angle_alpha	89.976046
_cell_angle_beta	89.924462
_cell_angle_gamma	90.027548
_symmetry_space_group_name_H-M	'P 1'
_symmetry_Int_Tables_number		1

loop_
	_symmetry_equiv_pos_as_xyz
	x,y,z

loop_
	_atom_site_label
	_atom_site_type_symbol
	_atom_site_fract_x
	_atom_site_fract_y
	_atom_site_fract_z
	H0	H	0.399048	0.835818	0.718989
	H1	H	0.596234	0.164551	0.717033
	H2	H	0.596236	0.835480	0.289090
	H3	H	0.398155	0.163385	0.288768
	H4	H	0.712478	0.401170	0.838665
	H5	H	0.714125	0.599053	0.165966
	H6	H	0.283769	0.599730	0.839224
	H7	H	0.283771	0.401882	0.165712
	H8	H	0.834375	0.712572	0.405489
	H9	H	0.162071	0.715201	0.600779
	H10	H	0.835073	0.283965	0.601740
	H11	H	0.162312	0.284931	0.403243
	H12	H	0.835601	0.399667	0.718440
	H13	H	0.162632	0.597798	0.716385
	H14	H	0.835323	0.598973	0.287313
	H15	H	0.161970	0.401183	0.287041
	H16	H	0.401332	0.714827	0.839563
	H17	H	0.595208	0.712131	0.167862
	H18	H	0.595569	0.285678	0.839824
	H19	H	0.400186	0.287140	0.167020
	H20	H	0.711221	0.834793	0.405530
	H21	H	0.714095	0.163027	0.602948
	H22	H	0.284597	0.834856	0.602112
	H23	H	0.284303	0.163468	0.406344
	H24	H	0.900317	0.336024	0.216201
	H25	H	0.097078	0.664123	0.216061
	H26	H	0.097336	0.335361	0.787622
	H27	H	0.901532	0.663864	0.789231
	H28	H	0.213874	0.900708	0.339345
	H29	H	0.212691	0.098829	0.666540
	H30	H	0.782490	0.099070	0.339971
	H31	H	0.783735	0.900216	0.666445
	H32	H	0.334512	0.214082	0.906263
	H33	H	0.662071	0.214340	0.102208
	H34	H	0.335380	0.785369	0.101819
	H35	H	0.662226	0.786409	0.905420
	H36	H	0.334274	0.902460	0.216283
	H37	H	0.661512	0.098244	0.217784
	H38	H	0.334960	0.100174	0.788344
	H39	H	0.661095	0.901355	0.788386
	H40	H	0.900649	0.212621	0.338273
	H41	H	0.096192	0.214438	0.666030
	H42	H	0.096441	0.786539	0.338504
	H43	H	0.899592	0.784694	0.666237
	H44	H	0.212833	0.335598	0.903800
	H45	H	0.212990	0.663669	0.100815
	H46	H	0.784839	0.335905	0.100783
	H47	H	0.784773	0.663909	0.903701
	H48	H	0.398400	0.118224	0.596626
	H49	H	0.587370	0.883533	0.598547
	H50	H	0.595280	0.116406	0.413880
	H51	H	0.402951	0.883481	0.415051
	H52	H	0.602869	0.405286	0.122973
	H53	H	0.587856	0.597157	0.886727
	H54	H	0.411939	0.594919	0.117437
	H55	H	0.408090	0.415818	0.888636
	H56	H	0.114304	0.594009	0.412192
	H57	H	0.883788	0.590318	0.594227
	H58	H	0.117731	0.395410	0.595928
	H59	H	0.880349	0.399592	0.409888
	H60	H	0.109731	0.410861	0.585303
	H61	H	0.882384	0.591102	0.599242
	H62	H	0.114276	0.589651	0.407691
	H63	H	0.885881	0.410435	0.414674
	H64	H	0.399437	0.599554	0.122758
	H65	H	0.597881	0.595425	0.885391
	H66	H	0.590205	0.417724	0.115692
	H67	H	0.412161	0.400612	0.886198
	H68	H	0.591008	0.117267	0.406026
	H69	H	0.591252	0.884146	0.593185
	H70	H	0.408221	0.116241	0.601474
	H71	H	0.401845	0.880304	0.406811
	H72	H	0.909036	0.615895	0.094742
	H73	H	0.090027	0.386022	0.087908
	H74	H	0.088049	0.614431	0.911103
	H75	H	0.905449	0.382917	0.908502
	H76	H	0.087403	0.906294	0.617893
	H77	H	0.101187	0.091294	0.383597
	H78	H	0.904874	0.092287	0.619277
	H79	H	0.902557	0.900184	0.382931
	H80	H	0.613380	0.093726	0.913111
	H81	H	0.381985	0.085805	0.103520
	H82	H	0.616488	0.899388	0.096014
	H83	H	0.384071	0.914056	0.910498
	H84	H	0.612368	0.910992	0.092379
	H85	H	0.377999	0.102167	0.100966
	H86	H	0.613441	0.090361	0.910460
	H87	H	0.379643	0.904020	0.908141
	H88	H	0.904656	0.090298	0.618581
	H89	H	0.086751	0.084645	0.389292
	H90	H	0.093247	0.904534	0.620918
	H91	H	0.899398	0.911427	0.386737
	H92	H	0.094969	0.615701	0.911393
	H93	H	0.098457	0.380513	0.097231
	H94	H	0.903598	0.616657	0.092869
	H95	H	0.906464	0.383376	0.910187
	H96	H	0.407431	0.113619	0.591451
	H97	H	0.593708	0.881889	0.598941
	H98	H	0.586867	0.113758	0.413460
	H99	H	0.410134	0.884131	0.409194
	H100	H	0.584662	0.399608	0.119785
	H101	H	0.591570	0.587917	0.888307
	H102	H	0.400380	0.585469	0.119109
	H103	H	0.397973	0.405182	0.883349
	H104	H	0.115818	0.595089	0.406084
	H105	H	0.881806	0.595018	0.595988
	H106	H	0.115461	0.413492	0.604710
	H107	H	0.882104	0.409842	0.402853
	H108	H	0.905334	0.618485	0.098798
	H109	H	0.085623	0.382799	0.100852
	H110	H	0.091019	0.617624	0.905478
	H111	H	0.904073	0.382435	0.910140
	H112	H	0.092669	0.911204	0.617532
	H113	H	0.088191	0.100593	0.385432
	H114	H	0.907740	0.091989	0.617765
	H115	H	0.910419	0.907619	0.388433
	H116	H	0.614921	0.093836	0.908883
	H117	H	0.385058	0.093703	0.087769
	H118	H	0.616429	0.909471	0.104254
	H119	H	0.384144	0.906027	0.917811
	C120	C	0.376329	0.007713	0.625477
	C121	C	0.619687	0.991525	0.625259
	C122	C	0.619465	0.007517	0.382285
	C123	C	0.376533	0.991037	0.382031
	C124	C	0.620368	0.378763	0.011235
	C125	C	0.620761	0.621513	0.994807
	C126	C	0.376406	0.621911	0.011435
	C127	C	0.377147	0.379118	0.994493
	C128	C	0.006825	0.621601	0.380301
	C129	C	0.990510	0.621311	0.624635
	C130	C	0.006425	0.377748	0.624089
	C131	C	0.990601	0.378003	0.380510
	C132	C	0.877618	0.508390	0.123703
	C133	C	0.119926	0.491685	0.123814
	C134	C	0.119908	0.507774	0.880734
	C135	C	0.877114	0.491239	0.881013
	C136	C	0.119418	0.878579	0.510676
	C137	C	0.120057	0.120906	0.494219
	C138	C	0.876573	0.120861	0.510766
	C139	C	0.876071	0.877719	0.494247
	C140	C	0.506259	0.121703	0.882246
	C141	C	0.489825	0.122151	0.125911
	C142	C	0.506859	0.878041	0.125688
	C143	C	0.490078	0.879068	0.882697
	C144	C	0.378963	0.884501	0.680896
	C145	C	0.616954	0.115173	0.679759
	C146	C	0.616628	0.884141	0.327267
	C147	C	0.378966	0.114633	0.327267
	C148	C	0.674819	0.381030	0.887916
	C149	C	0.675845	0.619396	0.117651
	C150	C	0.321837	0.619742	0.888090
	C151	C	0.321859	0.381546	0.117296
	C152	C	0.883541	0.675695	0.383820
	C153	C	0.113355	0.676783	0.621468
	C154	C	0.883657	0.322311	0.621662
	C155	C	0.113503	0.322798	0.382814
	C156	C	0.884054	0.379800	0.679880
	C157	C	0.113630	0.618777	0.679101
	C158	C	0.884058	0.619238	0.325216
	C159	C	0.113214	0.380280	0.324814
	C160	C	0.380228	0.676952	0.888275
	C161	C	0.616645	0.675445	0.118495
	C162	C	0.616915	0.323569	0.888286
	C163	C	0.379723	0.324426	0.117877
	C164	C	0.674207	0.884058	0.384794
	C165	C	0.675530	0.114524	0.622977
	C166	C	0.321882	0.884124	0.622811
	C167	C	0.322166	0.114649	0.385370
	C168	C	0.879681	0.384867	0.178703
	C169	C	0.117415	0.615049	0.178446
	C170	C	0.117464	0.384178	0.825771
	C171	C	0.880191	0.614775	0.826245
	C172	C	0.175713	0.880374	0.387898
	C173	C	0.175097	0.119139	0.617460
	C174	C	0.820770	0.119264	0.388501
	C175	C	0.821180	0.879749	0.617500
	C176	C	0.383381	0.176803	0.885021
	C177	C	0.612955	0.176789	0.122654
	C178	C	0.383956	0.823123	0.122689
	C179	C	0.613095	0.823966	0.885004
	C180	C	0.383441	0.881382	0.179613
	C181	C	0.612705	0.119148	0.180432
	C182	C	0.383643	0.119772	0.826767
	C183	C	0.612532	0.880950	0.826712
	C184	C	0.879479	0.175605	0.387578
	C185	C	0.116993	0.176426	0.617304
	C186	C	0.116901	0.824020	0.387445
	C187	C	0.879041	0.822515	0.617453
	C188	C	0.174785	0.384289	0.883221
	C189	C	0.175023	0.614859	0.121076
	C190	C	0.822431	0.385033	0.121183
	C191	C	0.822522	0.614971	0.883334
	C192	C	0.398297	0.093709	0.603236
	C193	C	0.597414	0.905450	0.603417
	C194	C	0.597504	0.093445	0.404645
	C195	C	0.398680	0.904866	0.403848
	C196	C	0.598868	0.401026	0.097294
	C197	C	0.598836	0.599891	0.908984
	C198	C	0.397599	0.599732	0.097479
	C199	C	0.399583	0.400900	0.908359
	C200	C	0.092616	0.599536	0.402171
	C201	C	0.904672	0.598864	0.602805
	C202	C	0.092346	0.400040	0.601724
	C203	C	0.905024	0.400112	0.402714
	C204	C	0.899635	0.594600	0.101945
	C205	C	0.097827	0.405430	0.101769
	C206	C	0.097970	0.593764	0.902861
	C207	C	0.898851	0.405212	0.903022
	C208	C	0.097465	0.900759	0.596567
	C209	C	0.098437	0.098695	0.408270
	C210	C	0.899142	0.098162	0.596395
	C211	C	0.897740	0.899895	0.408243
	C212	C	0.591840	0.099321	0.904448
	C213	C	0.403710	0.100441	0.103842
	C214	C	0.592988	0.900220	0.103912
	C215	C	0.404570	0.901534	0.905439
	Zn216	Zn	0.498296	-0.000065	0.753865
	Zn217	Zn	0.498205	-0.000106	0.253975
	Zn218	Zn	0.749359	0.500206	0.002535
	Zn219	Zn	0.248159	0.499617	0.002021
	Zn220	Zn	-0.001761	0.749880	0.502390
	Zn221	Zn	-0.001503	0.248858	0.501999
	Zn222	Zn	-0.001186	0.499545	0.753097
	Zn223	Zn	-0.001318	0.499825	0.251940
	Zn224	Zn	0.498440	0.749779	0.003756
	Zn225	Zn	0.498237	0.250554	0.003625
	Zn226	Zn	0.748030	-0.000668	0.503191
	Zn227	Zn	0.248324	-0.000932	0.503267
	N228	N	0.411839	0.962420	0.682855
	N229	N	0.582940	0.037626	0.681272
	N230	N	0.583379	0.961867	0.325609
	N231	N	0.411835	0.036665	0.324998
	N232	N	0.676973	0.414711	0.965512
	N233	N	0.678457	0.586697	0.039931
	N234	N	0.319300	0.586272	0.965733
	N235	N	0.320150	0.414598	0.039613
	N236	N	0.960769	0.677277	0.417470
	N237	N	0.035710	0.678602	0.588439
	N238	N	0.960811	0.321127	0.587518
	N239	N	0.036248	0.321440	0.416826
	N240	N	0.961547	0.413191	0.681520
	N241	N	0.036213	0.585082	0.681151
	N242	N	0.961643	0.585973	0.323169
	N243	N	0.035983	0.414163	0.323451
	N244	N	0.413417	0.678250	0.965814
	N245	N	0.583151	0.677153	0.041000
	N246	N	0.583866	0.322022	0.965957
	N247	N	0.413699	0.323102	0.040458
	N248	N	0.676018	0.961678	0.418329
	N249	N	0.677368	0.036705	0.589920
	N250	N	0.320049	0.961749	0.588960
	N251	N	0.320474	0.036930	0.418685
	N252	N	0.913209	0.462701	0.180591
	N253	N	0.083835	0.537397	0.180119
	N254	N	0.084155	0.461943	0.824217
	N255	N	0.913387	0.536986	0.824563
	N256	N	0.177108	0.913777	0.465447
	N257	N	0.176837	0.085058	0.540013
	N258	N	0.818797	0.086043	0.466172
	N259	N	0.819472	0.913430	0.540016
	N260	N	0.460527	0.177880	0.919026
	N261	N	0.535462	0.178852	0.089592
	N262	N	0.461502	0.821036	0.089812
	N263	N	0.535833	0.822682	0.919134
	N264	N	0.461074	0.914984	0.181408
	N265	N	0.535193	0.085845	0.182299
	N266	N	0.461132	0.086267	0.824755
	N267	N	0.535262	0.914753	0.825529
	N268	N	0.913550	0.176742	0.464823
	N269	N	0.083774	0.177727	0.539664
	N270	N	0.082679	0.822805	0.464705
	N271	N	0.912610	0.821193	0.539911
	N272	N	0.176476	0.462035	0.916774
	N273	N	0.176611	0.537050	0.087810
	N274	N	0.820983	0.462798	0.087922
	N275	N	0.820412	0.537235	0.916679
	O276	O	0.974530	1.021034	-0.019062
	H277	H	0.976666	1.022370	-0.019905
	H278	H	0.983733	1.017923	-0.017972
	O279	O	0.003125	-0.011663	-0.072693
	H280	H	-0.000438	-0.022992	-0.066851
	H281	H	0.000039	-0.013732	-0.082067
	O282	O	-0.015804	-0.034540	0.979500
	H283	H	-0.010959	-0.038715	0.969578
	H284	H	-0.011236	-0.031294	0.979782
	O285	O	0.568269	0.456361	0.517354
	H286	H	0.568414	0.456123	0.524615
	H287	H	0.564756	0.469749	0.521279
	O288	O	0.542822	0.482922	0.507829
	H289	H	0.537579	0.479884	0.507041
	H290	H	0.544078	0.488522	0.503499
	O291	O	0.516088	0.484691	0.482136
	H292	H	0.518137	0.487955	0.476898
	H293	H	0.524454	0.476290	0.481026
	O294	O	0.046862	-0.044006	-0.050313
	H295	H	0.048102	-0.039026	-0.049763
	H296	H	0.042401	-0.039541	-0.048505
	O297	O	0.549611	0.450064	0.464993
	H298	H	0.553670	0.447191	0.463103
	H299	H	0.546405	0.441635	0.461768
	O300	O	0.023751	1.009859	0.983998
	H301	H	0.027270	1.014712	0.976028
	H302	H	0.010846	1.001495	0.978540
	O303	O	0.551475	0.484751	0.493432
	H304	H	0.550476	0.486490	0.485136
	H305	H	0.558423	0.487096	0.493515
	O306	O	-0.014151	-0.029640	0.979648
	H307	H	-0.011715	-0.020225	0.983694
	H308	H	-0.018380	-0.028654	0.991173
	O309	O	0.988495	0.995122	0.871971
	H310	H	0.993434	1.003024	0.863407
	H311	H	0.990260	0.998050	0.858997
	O312	O	0.563491	0.479156	0.442763
	H313	H	0.547285	0.472665	0.444421
	H314	H	0.567319	0.479937	0.443364
	O315	O	0.556438	0.455104	0.490634
	H316	H	0.567291	0.451296	0.488793
	H317	H	0.562262	0.452385	0.500718
	O318	O	0.041864	1.013051	-0.005029
	H319	H	0.045397	1.010906	0.000684
	H320	H	0.047195	1.005217	-0.011251
	O321	O	1.006890	0.964972	-0.069561
	H322	H	1.003374	0.958188	-0.058224
	H323	H	0.998278	0.965275	-0.072425
