data_Molecule from HDF5

_cell_length_a		16.236026
_cell_length_b		16.334259
_cell_length_c		16.325151
_cell_angle_alpha	89.958114
_cell_angle_beta	89.699258
_cell_angle_gamma	90.075660
_symmetry_space_group_name_H-M	'P 1'
_symmetry_Int_Tables_number		1

loop_
	_symmetry_equiv_pos_as_xyz
	x,y,z

loop_
	_atom_site_label
	_atom_site_type_symbol
	_atom_site_fract_x
	_atom_site_fract_y
	_atom_site_fract_z
	H0	H	0.401393	0.842402	0.705772
	H1	H	0.600516	0.168379	0.702047
	H2	H	0.601133	0.841743	0.272150
	H3	H	0.403237	0.168688	0.274178
	H4	H	0.717240	0.408924	0.825963
	H5	H	0.715554	0.604633	0.153480
	H6	H	0.289300	0.603215	0.825822
	H7	H	0.287831	0.407900	0.152508
	H8	H	0.838114	0.717851	0.390811
	H9	H	0.165861	0.719308	0.587351
	H10	H	0.838004	0.289945	0.587474
	H11	H	0.166648	0.291130	0.389987
	H12	H	0.838861	0.404432	0.705501
	H13	H	0.166385	0.603316	0.702753
	H14	H	0.838531	0.603298	0.275154
	H15	H	0.166210	0.405396	0.273086
	H16	H	0.404236	0.720356	0.826055
	H17	H	0.599623	0.721295	0.152248
	H18	H	0.601880	0.291926	0.825329
	H19	H	0.401842	0.289688	0.151644
	H20	H	0.716958	0.841218	0.388102
	H21	H	0.716622	0.168416	0.585380
	H22	H	0.286845	0.841525	0.587914
	H23	H	0.288588	0.169009	0.392938
	H24	H	0.903027	0.341117	0.203736
	H25	H	0.100884	0.667499	0.203911
	H26	H	0.102280	0.342008	0.773707
	H27	H	0.904214	0.668189	0.774561
	H28	H	0.217238	0.906456	0.325679
	H29	H	0.213357	0.100542	0.652557
	H30	H	0.790006	0.100456	0.324466
	H31	H	0.785371	0.905911	0.651438
	H32	H	0.338282	0.219741	0.890595
	H33	H	0.666443	0.219288	0.084580
	H34	H	0.338122	0.791778	0.088557
	H35	H	0.666118	0.790774	0.889107
	H36	H	0.338476	0.907259	0.203807
	H37	H	0.666740	0.104606	0.202367
	H38	H	0.337295	0.103008	0.776043
	H39	H	0.665845	0.906763	0.772759
	H40	H	0.903194	0.219948	0.325423
	H41	H	0.100191	0.219573	0.651340
	H42	H	0.101995	0.788742	0.326120
	H43	H	0.900089	0.787823	0.651652
	H44	H	0.217768	0.341668	0.890182
	H45	H	0.215221	0.669086	0.086789
	H46	H	0.786839	0.341516	0.087855
	H47	H	0.789484	0.669073	0.892877
	H48	H	0.410881	0.120726	0.584730
	H49	H	0.585137	0.892221	0.580504
	H50	H	0.593733	0.118877	0.398109
	H51	H	0.402397	0.885253	0.390004
	H52	H	0.596358	0.402768	0.108816
	H53	H	0.597690	0.603612	0.872198
	H54	H	0.405911	0.598032	0.105650
	H55	H	0.412195	0.414256	0.874122
	H56	H	0.121454	0.605172	0.395167
	H57	H	0.884301	0.595070	0.586632
	H58	H	0.117210	0.422821	0.586537
	H59	H	0.884681	0.409383	0.393330
	H60	H	0.123433	0.401438	0.587347
	H61	H	0.884585	0.600153	0.581204
	H62	H	0.115663	0.593896	0.404253
	H63	H	0.886336	0.409289	0.401049
	H64	H	0.409589	0.599126	0.104794
	H65	H	0.599291	0.595301	0.873343
	H66	H	0.599197	0.420676	0.104746
	H67	H	0.410628	0.409310	0.872299
	H68	H	0.599807	0.121258	0.395491
	H69	H	0.597643	0.890153	0.574999
	H70	H	0.407225	0.120183	0.579880
	H71	H	0.418032	0.891018	0.392273
	H72	H	0.902470	0.621614	0.079860
	H73	H	0.097371	0.385283	0.092764
	H74	H	0.099440	0.618664	0.906910
	H75	H	0.906731	0.387849	0.896772
	H76	H	0.096433	0.917439	0.604343
	H77	H	0.090472	0.102641	0.372256
	H78	H	0.908330	0.095289	0.603968
	H79	H	0.910721	0.907028	0.371550
	H80	H	0.619751	0.101904	0.895324
	H81	H	0.386384	0.093320	0.083317
	H82	H	0.624257	0.912004	0.095861
	H83	H	0.387556	0.912730	0.902319
	H84	H	0.619885	0.901085	0.072097
	H85	H	0.384402	0.100880	0.085778
	H86	H	0.617154	0.096910	0.896534
	H87	H	0.386388	0.917586	0.893111
	H88	H	0.911152	0.098509	0.603575
	H89	H	0.101257	0.099690	0.370135
	H90	H	0.087081	0.909823	0.602898
	H91	H	0.907700	0.910850	0.372717
	H92	H	0.103217	0.625828	0.887113
	H93	H	0.083233	0.393153	0.079330
	H94	H	0.908617	0.622660	0.090666
	H95	H	0.910649	0.389227	0.894511
	H96	H	0.404715	0.122309	0.584624
	H97	H	0.595017	0.886166	0.587603
	H98	H	0.593666	0.120805	0.391441
	H99	H	0.406657	0.891587	0.404401
	H100	H	0.582698	0.412689	0.101398
	H101	H	0.591944	0.598861	0.875636
	H102	H	0.407369	0.601439	0.107149
	H103	H	0.406794	0.413482	0.872526
	H104	H	0.118869	0.591038	0.389841
	H105	H	0.887644	0.593326	0.580029
	H106	H	0.115657	0.409565	0.569120
	H107	H	0.886372	0.415875	0.396843
	H108	H	0.914505	0.618291	0.080501
	H109	H	0.102892	0.388597	0.072797
	H110	H	0.083560	0.618457	0.892644
	H111	H	0.910069	0.390437	0.898523
	H112	H	0.097115	0.905770	0.607564
	H113	H	0.093693	0.092292	0.374796
	H114	H	0.906584	0.099128	0.605876
	H115	H	0.912418	0.911547	0.374122
	H116	H	0.619262	0.098008	0.891242
	H117	H	0.386773	0.099401	0.077460
	H118	H	0.613663	0.926162	0.075723
	H119	H	0.383127	0.907555	0.894829
	C120	C	0.379123	0.013122	0.611640
	C121	C	0.622157	0.997147	0.609183
	C122	C	0.624043	0.012479	0.366152
	C123	C	0.380513	0.997194	0.367528
	C124	C	0.622716	0.384132	-0.002844
	C125	C	0.623987	0.627884	0.981486
	C126	C	0.380437	0.627401	-0.002448
	C127	C	0.380513	0.383591	0.980658
	C128	C	0.010434	0.625311	0.367965
	C129	C	0.993942	0.625530	0.610533
	C130	C	0.010453	0.382279	0.610502
	C131	C	0.994091	0.383012	0.367598
	C132	C	0.879546	0.512967	0.111934
	C133	C	0.123678	0.496791	0.110468
	C134	C	0.124110	0.512857	0.867364
	C135	C	0.881127	0.497087	0.868441
	C136	C	0.123038	0.882583	0.497229
	C137	C	0.123362	0.126577	0.479873
	C138	C	0.880558	0.125873	0.496652
	C139	C	0.879764	0.881509	0.480361
	C140	C	0.510337	0.127146	0.866741
	C141	C	0.494013	0.126990	0.110239
	C142	C	0.511003	0.884140	0.110525
	C143	C	0.493938	0.884075	0.867250
	C144	C	0.381218	0.890787	0.667274
	C145	C	0.620357	0.119899	0.663883
	C146	C	0.621357	0.890090	0.310649
	C147	C	0.383046	0.119870	0.312486
	C148	C	0.679003	0.387693	0.874598
	C149	C	0.677952	0.624850	0.104480
	C150	C	0.326571	0.624119	0.874441
	C151	C	0.325121	0.386500	0.103620
	C152	C	0.887083	0.680011	0.370870
	C153	C	0.116964	0.681271	0.607870
	C154	C	0.887088	0.327320	0.608514
	C155	C	0.117508	0.328318	0.369409
	C156	C	0.887552	0.384565	0.666859
	C157	C	0.117276	0.623719	0.665172
	C158	C	0.887462	0.623312	0.312795
	C159	C	0.117390	0.385603	0.311778
	C160	C	0.383698	0.682346	0.874711
	C161	C	0.620834	0.683162	0.103929
	C162	C	0.621708	0.329600	0.874198
	C163	C	0.381856	0.327847	0.103143
	C164	C	0.679274	0.890047	0.367926
	C165	C	0.678126	0.119630	0.605886
	C166	C	0.324631	0.890238	0.608528
	C167	C	0.325892	0.120141	0.371359
	C168	C	0.882481	0.389912	0.166148
	C169	C	0.121087	0.619328	0.165505
	C170	C	0.122695	0.390486	0.811910
	C171	C	0.884141	0.619777	0.813097
	C172	C	0.178955	0.885280	0.374321
	C173	C	0.176957	0.122721	0.603567
	C174	C	0.826866	0.122320	0.373350
	C175	C	0.823858	0.885228	0.602971
	C176	C	0.386931	0.181908	0.869958
	C177	C	0.617594	0.181802	0.106348
	C178	C	0.387144	0.829395	0.108592
	C179	C	0.617279	0.828942	0.868877
	C180	C	0.387291	0.886755	0.165761
	C181	C	0.617764	0.124618	0.164561
	C182	C	0.386590	0.124154	0.812937
	C183	C	0.616861	0.886330	0.811015
	C184	C	0.883232	0.181312	0.373913
	C185	C	0.120617	0.181434	0.603091
	C186	C	0.121635	0.827188	0.374561
	C187	C	0.880779	0.826484	0.602968
	C188	C	0.179885	0.390509	0.869887
	C189	C	0.178154	0.619773	0.107438
	C190	C	0.824768	0.390085	0.108634
	C191	C	0.827055	0.620293	0.871963
	C192	C	0.401148	0.098898	0.589599
	C193	C	0.599306	0.911615	0.587484
	C194	C	0.602110	0.098257	0.388450
	C195	C	0.402472	0.911424	0.389245
	C196	C	0.599445	0.405601	0.082814
	C197	C	0.602557	0.605739	0.895973
	C198	C	0.401434	0.605943	0.083650
	C199	C	0.403388	0.405825	0.895158
	C200	C	0.096624	0.603178	0.390043
	C201	C	0.907775	0.602851	0.588999
	C202	C	0.096616	0.404802	0.587694
	C203	C	0.907966	0.404920	0.390308
	C204	C	0.901867	0.598712	0.090096
	C205	C	0.101102	0.411071	0.088351
	C206	C	0.101863	0.598653	0.889124
	C207	C	0.902787	0.411376	0.890121
	C208	C	0.100184	0.904495	0.582779
	C209	C	0.101572	0.104747	0.394527
	C210	C	0.902188	0.104010	0.582326
	C211	C	0.903203	0.903453	0.394746
	C212	C	0.596540	0.105373	0.888076
	C213	C	0.407982	0.104509	0.088724
	C214	C	0.596958	0.906491	0.087837
	C215	C	0.407816	0.906034	0.890279
	Zn216	Zn	0.501399	0.005803	0.739035
	Zn217	Zn	0.502535	0.005282	0.238307
	Zn218	Zn	0.751714	0.505175	-0.010000
	Zn219	Zn	0.252268	0.505515	-0.010789
	Zn220	Zn	0.001949	0.753284	0.488874
	Zn221	Zn	0.002071	0.254455	0.488339
	Zn222	Zn	0.002728	0.504384	0.739010
	Zn223	Zn	0.002190	0.504655	0.239717
	Zn224	Zn	0.502269	0.756264	-0.010461
	Zn225	Zn	0.502027	0.254793	-0.011674
	Zn226	Zn	0.752135	0.004019	0.487803
	Zn227	Zn	0.251249	0.004648	0.488985
	N228	N	0.414529	0.968179	0.668920
	N229	N	0.586366	0.042775	0.665990
	N230	N	0.588217	0.967450	0.309116
	N231	N	0.416339	0.042468	0.310255
	N232	N	0.679661	0.420940	0.951874
	N233	N	0.679953	0.590934	0.027352
	N234	N	0.324225	0.590948	0.951786
	N235	N	0.324112	0.420411	0.026508
	N236	N	0.964673	0.681365	0.404199
	N237	N	0.039264	0.682478	0.574695
	N238	N	0.964538	0.325994	0.574133
	N239	N	0.039799	0.326640	0.403412
	N240	N	0.965346	0.418107	0.668189
	N241	N	0.039734	0.589603	0.666825
	N242	N	0.965208	0.589998	0.310893
	N243	N	0.039727	0.419091	0.310697
	N244	N	0.416561	0.684479	0.952243
	N245	N	0.588086	0.685282	0.026593
	N246	N	0.587444	0.327349	0.951503
	N247	N	0.415368	0.325773	0.025519
	N248	N	0.680818	0.967087	0.401980
	N249	N	0.679381	0.042215	0.572599
	N250	N	0.323228	0.967277	0.574494
	N251	N	0.324468	0.042902	0.405029
	N252	N	0.916062	0.467315	0.168223
	N253	N	0.087756	0.541874	0.167482
	N254	N	0.088795	0.467601	0.810118
	N255	N	0.917055	0.542210	0.810907
	N256	N	0.179830	0.919125	0.451409
	N257	N	0.178726	0.089069	0.526274
	N258	N	0.825140	0.088493	0.450461
	N259	N	0.823161	0.918624	0.525590
	N260	N	0.464821	0.183830	0.902755
	N261	N	0.539850	0.183285	0.073350
	N262	N	0.465032	0.827742	0.074687
	N263	N	0.539778	0.827378	0.903316
	N264	N	0.465100	0.920041	0.167069
	N265	N	0.539923	0.091232	0.167015
	N266	N	0.464332	0.090528	0.811103
	N267	N	0.539225	0.919922	0.810055
	N268	N	0.915605	0.183824	0.451662
	N269	N	0.088252	0.184064	0.525439
	N270	N	0.087397	0.825520	0.451889
	N271	N	0.914939	0.824230	0.525727
	N272	N	0.180885	0.467804	0.903647
	N273	N	0.179806	0.542476	0.074044
	N274	N	0.822844	0.467600	0.075819
	N275	N	0.825249	0.543134	0.905780
	O276	O	0.544945	-0.520630	1.517517
	H277	H	0.541859	-0.514593	1.516974
	H278	H	0.548033	-0.520982	1.506807
	O279	O	0.520796	0.525742	0.503661
	H280	H	0.518208	0.529446	0.503055
	H281	H	0.514398	0.521899	0.497591
	O282	O	-0.508265	0.483295	1.492749
	H283	H	-0.502893	0.492129	1.485070
	H284	H	-0.508311	0.484097	1.498698
	O285	O	0.561417	0.499494	0.550610
	H286	H	0.564016	0.492860	0.560822
	H287	H	0.566309	0.498288	0.549967
	O288	O	0.538920	0.536587	0.503848
	H289	H	0.536423	0.532296	0.508440
	H290	H	0.541036	0.538268	0.508211
	O291	O	0.061379	1.002558	0.935136
	H292	H	0.059075	1.003646	0.933434
	H293	H	0.064408	0.998254	0.934681
	O294	O	0.587987	0.528488	0.518215
	H295	H	0.585692	0.527438	0.518709
	H296	H	0.587653	0.523708	0.522607
	O297	O	1.052275	0.012563	-0.047208
	H298	H	1.050106	0.013866	-0.046620
	H299	H	1.048229	0.012533	-0.051771
