data_Molecule from HDF5

_cell_length_a		16.178541
_cell_length_b		16.379423
_cell_length_c		16.408819
_cell_angle_alpha	89.881966
_cell_angle_beta	89.772697
_cell_angle_gamma	90.345372
_symmetry_space_group_name_H-M	'P 1'
_symmetry_Int_Tables_number		1

loop_
	_symmetry_equiv_pos_as_xyz
	x,y,z

loop_
	_atom_site_label
	_atom_site_type_symbol
	_atom_site_fract_x
	_atom_site_fract_y
	_atom_site_fract_z
	H0	H	0.383109	0.846023	0.716783
	H1	H	0.594337	0.166012	0.718243
	H2	H	0.594269	0.846164	0.277709
	H3	H	0.385685	0.166572	0.277142
	H4	H	0.703640	0.407549	0.838160
	H5	H	0.701382	0.607051	0.160560
	H6	H	0.271507	0.604338	0.835570
	H7	H	0.265317	0.402757	0.159269
	H8	H	0.822984	0.722988	0.399958
	H9	H	0.147554	0.728168	0.603696
	H10	H	0.823758	0.288124	0.602218
	H11	H	0.149127	0.292055	0.397002
	H12	H	0.822826	0.405282	0.716333
	H13	H	0.148540	0.611692	0.717406
	H14	H	0.823730	0.611068	0.282068
	H15	H	0.146277	0.403678	0.278113
	H16	H	0.383277	0.724965	0.837835
	H17	H	0.591543	0.728056	0.157658
	H18	H	0.589753	0.288179	0.838422
	H19	H	0.380027	0.283811	0.158427
	H20	H	0.702667	0.843799	0.398307
	H21	H	0.703251	0.168651	0.595010
	H22	H	0.268561	0.846113	0.599111
	H23	H	0.272956	0.168948	0.396725
	H24	H	0.881524	0.347485	0.218615
	H25	H	0.090204	0.668725	0.216717
	H26	H	0.086162	0.346927	0.780249
	H27	H	0.884227	0.669284	0.781741
	H28	H	0.202199	0.909389	0.336214
	H29	H	0.202920	0.106301	0.660863
	H30	H	0.773764	0.104755	0.334567
	H31	H	0.769363	0.908497	0.660041
	H32	H	0.322486	0.219478	0.898310
	H33	H	0.649615	0.223724	0.098344
	H34	H	0.322681	0.789528	0.098403
	H35	H	0.650531	0.791822	0.898146
	H36	H	0.324921	0.901058	0.217823
	H37	H	0.651444	0.105408	0.210938
	H38	H	0.323823	0.104984	0.781742
	H39	H	0.651263	0.907467	0.782127
	H40	H	0.885651	0.226451	0.338170
	H41	H	0.087755	0.224043	0.660565
	H42	H	0.090243	0.788410	0.338585
	H43	H	0.883587	0.789804	0.660728
	H44	H	0.197402	0.343732	0.899922
	H45	H	0.202108	0.668817	0.095874
	H46	H	0.769065	0.345129	0.098436
	H47	H	0.771544	0.670266	0.901602
	H48	H	0.398131	0.119969	0.584359
	H49	H	0.571734	0.893481	0.587980
	H50	H	0.583250	0.123890	0.398140
	H51	H	0.393744	0.891765	0.408118
	H52	H	0.575708	0.415325	0.113165
	H53	H	0.578336	0.593607	0.885467
	H54	H	0.397189	0.601999	0.113986
	H55	H	0.396977	0.409150	0.884054
	H56	H	0.102871	0.598872	0.407146
	H57	H	0.869553	0.595803	0.594080
	H58	H	0.103334	0.417408	0.593137
	H59	H	0.868259	0.409791	0.411427
	H60	H	0.102060	0.415242	0.588336
	H61	H	0.869605	0.601069	0.590981
	H62	H	0.101923	0.599423	0.411846
	H63	H	0.872849	0.419962	0.416128
	H64	H	0.389889	0.594808	0.113045
	H65	H	0.572166	0.599786	0.884978
	H66	H	0.573032	0.413752	0.112909
	H67	H	0.389068	0.410581	0.882199
	H68	H	0.570970	0.119318	0.402656
	H69	H	0.580612	0.891323	0.586396
	H70	H	0.391890	0.123564	0.592101
	H71	H	0.394767	0.891259	0.404815
	H72	H	0.901371	0.621313	0.091911
	H73	H	0.071588	0.393459	0.089034
	H74	H	0.072449	0.624671	0.893816
	H75	H	0.898944	0.394871	0.908648
	H76	H	0.076252	0.919120	0.612118
	H77	H	0.070224	0.099993	0.387271
	H78	H	0.888438	0.101854	0.615894
	H79	H	0.896358	0.910888	0.382711
	H80	H	0.601444	0.093495	0.907755
	H81	H	0.372382	0.095361	0.080949
	H82	H	0.605151	0.911326	0.090412
	H83	H	0.368930	0.914727	0.901697
	H84	H	0.601585	0.914922	0.082073
	H85	H	0.372850	0.086097	0.091980
	H86	H	0.604983	0.098727	0.901951
	H87	H	0.369278	0.910621	0.907458
	H88	H	0.895478	0.090546	0.610480
	H89	H	0.081495	0.110800	0.381002
	H90	H	0.074498	0.915033	0.612703
	H91	H	0.893013	0.913198	0.383292
	H92	H	0.069660	0.617042	0.917481
	H93	H	0.073302	0.392780	0.090407
	H94	H	0.889863	0.622828	0.086406
	H95	H	0.889914	0.392985	0.910975
	H96	H	0.401828	0.121685	0.594477
	H97	H	0.576591	0.890495	0.594913
	H98	H	0.582181	0.118970	0.411048
	H99	H	0.397633	0.892898	0.407673
	H100	H	0.575671	0.412813	0.114507
	H101	H	0.579995	0.601599	0.882023
	H102	H	0.398904	0.593277	0.109458
	H103	H	0.393945	0.416500	0.884919
	H104	H	0.101004	0.595111	0.409709
	H105	H	0.871602	0.596293	0.587699
	H106	H	0.100799	0.420819	0.588797
	H107	H	0.868648	0.419820	0.404860
	H108	H	0.891107	0.625897	0.098764
	H109	H	0.071340	0.393618	0.091387
	H110	H	0.092676	0.625612	0.909249
	H111	H	0.893385	0.390696	0.902627
	H112	H	0.078590	0.915911	0.613527
	H113	H	0.085512	0.094565	0.383898
	H114	H	0.901679	0.102942	0.611400
	H115	H	0.897106	0.914843	0.384162
	H116	H	0.603956	0.102108	0.910201
	H117	H	0.368070	0.099535	0.093737
	H118	H	0.601768	0.920435	0.089948
	H119	H	0.371835	0.917001	0.907422
	C120	C	0.366044	0.015529	0.620175
	C121	C	0.607958	0.998159	0.619097
	C122	C	0.609276	0.014068	0.375057
	C123	C	0.365774	0.998272	0.375873
	C124	C	0.606242	0.384824	0.007261
	C125	C	0.607724	0.629190	0.990237
	C126	C	0.365114	0.626697	0.006018
	C127	C	0.362345	0.381808	0.989887
	C128	C	-0.005325	0.628138	0.379575
	C129	C	0.977440	0.628881	0.621246
	C130	C	-0.005470	0.386526	0.620541
	C131	C	0.977158	0.386542	0.379102
	C132	C	0.862906	0.516513	0.122149
	C133	C	0.105568	0.499193	0.120459
	C134	C	0.107349	0.515727	0.876743
	C135	C	0.864074	0.499669	0.877741
	C136	C	0.107606	0.886160	0.506837
	C137	C	0.109082	0.130452	0.490636
	C138	C	0.865756	0.128053	0.506190
	C139	C	0.864256	0.883953	0.490225
	C140	C	0.495649	0.127392	0.876706
	C141	C	0.478861	0.125104	0.118290
	C142	C	0.495550	0.884115	0.119092
	C143	C	0.478369	0.885022	0.876171
	C144	C	0.364702	0.894212	0.677526
	C145	C	0.611107	0.118713	0.677517
	C146	C	0.611046	0.893623	0.317640
	C147	C	0.366651	0.118850	0.317041
	C148	C	0.664807	0.386824	0.886252
	C149	C	0.664338	0.627940	0.111612
	C150	C	0.308996	0.625001	0.884466
	C151	C	0.304240	0.382702	0.111191
	C152	C	0.871881	0.684941	0.380045
	C153	C	0.099458	0.688289	0.622218
	C154	C	0.872201	0.327907	0.620855
	C155	C	0.099639	0.329691	0.377638
	C156	C	0.871806	0.385725	0.678066
	C157	C	0.099503	0.630451	0.679121
	C158	C	0.872239	0.629148	0.321641
	C159	C	0.098400	0.385456	0.318648
	C160	C	0.364911	0.684823	0.885326
	C161	C	0.608896	0.687626	0.110310
	C162	C	0.607959	0.327595	0.886404
	C163	C	0.361322	0.323618	0.110691
	C164	C	0.665347	0.892621	0.377686
	C165	C	0.665256	0.120059	0.616421
	C166	C	0.307644	0.894251	0.618979
	C167	C	0.310436	0.120130	0.376477
	C168	C	0.862410	0.395455	0.179509
	C169	C	0.107845	0.620580	0.177187
	C170	C	0.105916	0.394628	0.819322
	C171	C	0.865055	0.621007	0.820660
	C172	C	0.164238	0.888537	0.384973
	C173	C	0.165145	0.127368	0.612316
	C174	C	0.810594	0.126136	0.383798
	C175	C	0.807435	0.886935	0.611754
	C176	C	0.372036	0.182447	0.877810
	C177	C	0.601090	0.184194	0.117627
	C178	C	0.372045	0.827230	0.118812
	C179	C	0.601609	0.829572	0.877792
	C180	C	0.373336	0.882774	0.177997
	C181	C	0.602172	0.125102	0.173448
	C182	C	0.372603	0.125387	0.820126
	C183	C	0.601903	0.886991	0.820065
	C184	C	0.866445	0.186424	0.385524
	C185	C	0.107986	0.185996	0.612164
	C186	C	0.108389	0.828359	0.386120
	C187	C	0.864268	0.828074	0.611916
	C188	C	0.161195	0.393018	0.878948
	C189	C	0.163746	0.620440	0.117260
	C190	C	0.806522	0.394283	0.119836
	C191	C	0.809011	0.621650	0.880295
	C192	C	0.390349	0.100050	0.597053
	C193	C	0.583301	0.913665	0.596376
	C194	C	0.585748	0.098742	0.397496
	C195	C	0.388826	0.913912	0.399921
	C196	C	0.581951	0.407501	0.091653
	C197	C	0.583828	0.605196	0.906034
	C198	C	0.388612	0.603521	0.090283
	C199	C	0.386316	0.405319	0.905738
	C200	C	0.079670	0.604624	0.402665
	C201	C	0.892242	0.604764	0.597679
	C202	C	0.079823	0.410930	0.596829
	C203	C	0.892162	0.409777	0.403720
	C204	C	0.886912	0.601471	0.098968
	C205	C	0.079504	0.415071	0.097119
	C206	C	0.084864	0.600586	0.899890
	C207	C	0.887358	0.414722	0.900617
	C208	C	0.083432	0.909752	0.591187
	C209	C	0.086145	0.108204	0.406070
	C210	C	0.888291	0.104922	0.590731
	C211	C	0.888309	0.906306	0.405285
	C212	C	0.581263	0.104856	0.899808
	C213	C	0.393249	0.100782	0.095503
	C214	C	0.580749	0.908240	0.094625
	C215	C	0.392230	0.907400	0.898996
	Zn216	Zn	0.487563	0.006626	0.748720
	Zn217	Zn	0.487726	0.004872	0.247072
	Zn218	Zn	0.735145	0.507432	-0.000963
	Zn219	Zn	0.235029	0.505379	-0.001526
	Zn220	Zn	-0.013368	0.756176	0.499445
	Zn221	Zn	-0.013468	0.258573	0.499497
	Zn222	Zn	-0.014424	0.507890	0.748866
	Zn223	Zn	-0.014637	0.508476	0.250956
	Zn224	Zn	0.485821	0.757079	-0.002406
	Zn225	Zn	0.485784	0.254080	-0.001470
	Zn226	Zn	0.736199	0.006424	0.497302
	Zn227	Zn	0.237327	0.007805	0.498289
	N228	N	0.400434	0.970548	0.678310
	N229	N	0.576112	0.041968	0.679161
	N230	N	0.576605	0.969979	0.316120
	N231	N	0.400331	0.041961	0.316723
	N232	N	0.663931	0.421594	0.962470
	N233	N	0.663422	0.592029	0.036023
	N234	N	0.308934	0.589536	0.960569
	N235	N	0.304797	0.418145	0.035196
	N236	N	0.948780	0.684464	0.415377
	N237	N	0.022624	0.687477	0.586967
	N238	N	0.949578	0.328349	0.585961
	N239	N	0.023219	0.330369	0.414383
	N240	N	0.948842	0.421676	0.677928
	N241	N	0.022685	0.594271	0.678583
	N242	N	0.949615	0.594376	0.321113
	N243	N	0.021264	0.420207	0.319212
	N244	N	0.399297	0.685848	0.961765
	N245	N	0.574479	0.688618	0.033691
	N246	N	0.572324	0.326280	0.962514
	N247	N	0.396469	0.322645	0.034196
	N248	N	0.664394	0.968687	0.412921
	N249	N	0.663333	0.044121	0.580740
	N250	N	0.308304	0.970563	0.583971
	N251	N	0.309518	0.044140	0.412374
	N252	N	0.896411	0.472600	0.181358
	N253	N	0.072550	0.543934	0.179308
	N254	N	0.073326	0.471842	0.817790
	N255	N	0.898436	0.543853	0.818941
	N256	N	0.164016	0.923537	0.461119
	N257	N	0.166109	0.093717	0.535541
	N258	N	0.809809	0.090663	0.459893
	N259	N	0.807331	0.920870	0.535148
	N260	N	0.449494	0.184002	0.912050
	N261	N	0.523198	0.184261	0.084108
	N262	N	0.449084	0.827956	0.082895
	N263	N	0.523674	0.828188	0.911727
	N264	N	0.451119	0.917055	0.178506
	N265	N	0.525033	0.089194	0.174025
	N266	N	0.450438	0.092115	0.819226
	N267	N	0.524185	0.920499	0.818897
	N268	N	0.899801	0.187852	0.462435
	N269	N	0.074068	0.188164	0.535576
	N270	N	0.074102	0.826686	0.462943
	N271	N	0.898700	0.825994	0.534994
	N272	N	0.162278	0.469278	0.913712
	N273	N	0.162563	0.543921	0.082860
	N274	N	0.806785	0.470704	0.084906
	N275	N	0.808425	0.545247	0.914864
	O276	O	1.079299	-0.015182	0.981365
	H277	H	1.079896	-0.021530	0.979333
	H278	H	1.083511	-0.015961	0.980659
	O279	O	0.639488	0.356146	0.520537
	H280	H	0.642499	0.375378	0.532886
	H281	H	0.639622	0.360122	0.524684
	O282	O	0.495262	0.624918	0.325342
	H283	H	0.507832	0.601276	0.325289
	H284	H	0.498279	0.640746	0.322474
	O285	O	0.422666	0.318469	0.641203
	H286	H	0.434447	0.323122	0.640675
	H287	H	0.426482	0.316408	0.648604
	O288	O	1.118168	0.028644	-0.029114
	H289	H	1.128960	0.040378	-0.029206
	H290	H	1.113190	0.028617	-0.027728
	O291	O	-0.055220	0.002944	1.087434
	H292	H	-0.063000	-0.000998	1.085891
	H293	H	-0.052679	0.008902	1.089087
	O294	O	0.992752	0.999328	-0.057210
	H295	H	1.008060	1.010355	-0.058005
	H296	H	0.993338	0.990484	-0.050414
	O297	O	0.914883	1.006721	-0.086110
	H298	H	0.910426	1.000433	-0.093593
	H299	H	0.912743	1.019772	-0.084430
	O300	O	0.658262	0.503781	0.498045
	H301	H	0.645489	0.498441	0.495557
	H302	H	0.662766	0.504066	0.488361
	O303	O	0.510884	0.383977	0.324412
	H304	H	0.507578	0.399034	0.333334
	H305	H	0.504687	0.373217	0.319779
	O306	O	0.400062	0.525862	0.421591
	H307	H	0.403722	0.534587	0.412653
	H308	H	0.401469	0.537672	0.416423
	O309	O	0.565773	0.316298	0.458421
	H310	H	0.560105	0.306347	0.458530
	H311	H	0.559865	0.318080	0.474422
	O312	O	1.281051	1.341175	0.541775
	H313	H	1.270420	1.336391	0.566338
	H314	H	1.273729	1.331026	0.546593
	O315	O	1.102823	1.105896	0.010614
	H316	H	1.114255	1.113217	0.015868
	H317	H	1.091624	1.110780	0.025119
	O318	O	0.546248	0.372508	0.635865
	H319	H	0.545937	0.376643	0.635984
	H320	H	0.549629	0.380531	0.646241
	O321	O	0.346026	0.687397	0.318421
	H322	H	0.347895	0.653660	0.319713
	H323	H	0.379061	0.709914	0.297597
	O324	O	0.013686	1.098698	1.010723
	H325	H	0.025535	1.101872	1.001824
	H326	H	0.022342	1.089945	1.010627
	O327	O	-0.544634	0.484462	1.463954
	H328	H	-0.539217	0.485295	1.462279
	H329	H	-0.552000	0.475512	1.460386
	O330	O	-0.429984	0.602974	0.568862
	H331	H	-0.426188	0.609949	0.569573
	H332	H	-0.424852	0.596782	0.559615
	O333	O	0.372715	0.517727	0.653548
	H334	H	0.368844	0.527648	0.650763
	H335	H	0.374929	0.531537	0.651959
	O336	O	0.070860	0.073090	0.122125
	H337	H	0.063492	0.066362	0.118658
	H338	H	0.060480	0.068141	0.122379
	O339	O	0.311987	0.361150	-0.419759
	H340	H	0.336332	0.365897	-0.421605
	H341	H	0.310997	0.389557	-0.402735
	O342	O	0.330960	0.685377	0.517080
	H343	H	0.335084	0.685090	0.491559
	H344	H	0.321767	0.696628	0.513543
	O345	O	0.424571	0.636295	0.640054
	H346	H	0.430157	0.650798	0.619729
	H347	H	0.426904	0.626839	0.632195
	O348	O	0.559035	0.582670	0.497458
	H349	H	0.575993	0.580753	0.497749
	H350	H	0.579771	0.575070	0.507109
	O351	O	0.614356	0.584525	0.672561
	H352	H	0.586831	0.587219	0.673248
	H353	H	0.613348	0.581732	0.659883
	O354	O	-0.116485	1.039298	0.041675
	H355	H	-0.110772	1.039056	0.042499
	H356	H	-0.110893	1.053088	0.043905
	O357	O	0.130980	0.182631	0.919552
	H358	H	0.128110	0.165481	0.919347
	H359	H	0.135736	0.175511	0.927287
	O360	O	0.932581	0.032070	0.999967
	H361	H	0.925660	0.039985	0.999594
	H362	H	0.939647	0.034934	1.006826
	O363	O	0.329334	0.483953	0.304670
	H364	H	0.311044	0.483797	0.302465
	H365	H	0.329512	0.471058	0.310060
	O366	O	0.670865	0.405500	0.307239
	H367	H	0.665136	0.406840	0.300012
	H368	H	0.666731	0.388745	0.321762
	O369	O	1.018136	-0.004867	-0.074843
	H370	H	1.016476	-0.010856	-0.073693
	H371	H	1.017235	0.000376	-0.081738
	O372	O	0.336846	0.488498	0.449892
	H373	H	0.338772	0.488827	0.449536
	H374	H	0.348467	0.487116	0.459091
	O375	O	1.036696	0.104792	0.979093
	H376	H	1.039294	0.106754	0.977803
	H377	H	1.030928	0.101699	0.970288
	O378	O	0.572918	0.582295	0.537422
	H379	H	0.564921	0.582699	0.552559
	H380	H	0.580066	0.595264	0.538663
	O381	O	0.522107	0.639262	0.352138
	H382	H	0.525969	0.630794	0.364214
	H383	H	0.522598	0.627757	0.352516
	O384	O	1.585763	0.677827	0.596337
	H385	H	1.594283	0.677909	0.589564
	H386	H	1.573438	0.674875	0.592502
	O387	O	0.940455	0.046712	0.999047
	H388	H	0.953759	0.048728	1.007347
	H389	H	0.931628	0.060788	0.993320
	O390	O	0.995275	1.019739	0.031924
	H391	H	1.000039	1.014070	0.036113
	H392	H	1.001462	1.016169	0.033379
	O393	O	0.546083	0.490778	0.498594
	H394	H	0.536048	0.496496	0.496314
	H395	H	0.535068	0.498887	0.495245
