data_Molecule from HDF5

_cell_length_a		16.223225
_cell_length_b		16.269689
_cell_length_c		16.356773
_cell_angle_alpha	89.928505
_cell_angle_beta	89.950629
_cell_angle_gamma	90.190340
_symmetry_space_group_name_H-M	'P 1'
_symmetry_Int_Tables_number		1

loop_
	_symmetry_equiv_pos_as_xyz
	x,y,z

loop_
	_atom_site_label
	_atom_site_type_symbol
	_atom_site_fract_x
	_atom_site_fract_y
	_atom_site_fract_z
	H0	H	0.397337	0.845218	0.715466
	H1	H	0.598643	0.172000	0.713459
	H2	H	0.599037	0.845292	0.282659
	H3	H	0.398897	0.170834	0.282798
	H4	H	0.713480	0.409706	0.835767
	H5	H	0.712014	0.605474	0.162292
	H6	H	0.283754	0.606228	0.835424
	H7	H	0.282924	0.408466	0.161019
	H8	H	0.833704	0.723105	0.400461
	H9	H	0.162925	0.723381	0.596652
	H10	H	0.834643	0.294053	0.596353
	H11	H	0.162601	0.294660	0.399076
	H12	H	0.835321	0.407341	0.714233
	H13	H	0.162261	0.609690	0.714383
	H14	H	0.834063	0.608633	0.283264
	H15	H	0.163344	0.410520	0.284893
	H16	H	0.398887	0.724173	0.835887
	H17	H	0.597374	0.723543	0.161263
	H18	H	0.598093	0.292618	0.836010
	H19	H	0.396949	0.291519	0.160592
	H20	H	0.711956	0.843670	0.401114
	H21	H	0.712703	0.172537	0.595562
	H22	H	0.284748	0.843923	0.596522
	H23	H	0.286047	0.172489	0.400729
	H24	H	0.897336	0.345102	0.215062
	H25	H	0.098816	0.671579	0.212676
	H26	H	0.098478	0.345821	0.782164
	H27	H	0.898312	0.671474	0.781737
	H28	H	0.213748	0.910268	0.335231
	H29	H	0.213258	0.105999	0.661379
	H30	H	0.784091	0.106226	0.335259
	H31	H	0.783449	0.909801	0.661991
	H32	H	0.333311	0.220373	0.901611
	H33	H	0.661350	0.223527	0.096655
	H34	H	0.334285	0.793359	0.097303
	H35	H	0.662725	0.795087	0.900096
	H36	H	0.334764	0.907119	0.215001
	H37	H	0.661618	0.108292	0.212993
	H38	H	0.334654	0.107475	0.783823
	H39	H	0.661521	0.909926	0.783472
	H40	H	0.900032	0.223630	0.334979
	H41	H	0.098444	0.225103	0.660635
	H42	H	0.095995	0.795305	0.335030
	H43	H	0.898986	0.792320	0.661759
	H44	H	0.210951	0.344249	0.901597
	H45	H	0.214835	0.670823	0.097318
	H46	H	0.783424	0.344132	0.097033
	H47	H	0.785456	0.672595	0.901094
	H48	H	0.412061	0.123942	0.595239
	H49	H	0.586753	0.893886	0.589569
	H50	H	0.597416	0.122812	0.416364
	H51	H	0.399205	0.889258	0.405284
	H52	H	0.594986	0.409853	0.117147
	H53	H	0.594711	0.599073	0.882846
	H54	H	0.416744	0.593036	0.108600
	H55	H	0.405243	0.418035	0.883198
	H56	H	0.117563	0.610824	0.404024
	H57	H	0.883418	0.602039	0.584823
	H58	H	0.117810	0.412873	0.592249
	H59	H	0.880382	0.414741	0.400914
	H60	H	0.113927	0.417543	0.585863
	H61	H	0.883519	0.593829	0.592114
	H62	H	0.112106	0.599319	0.411565
	H63	H	0.882167	0.413378	0.409589
	H64	H	0.408152	0.612311	0.116541
	H65	H	0.588143	0.601711	0.884119
	H66	H	0.592174	0.423494	0.112069
	H67	H	0.408578	0.410840	0.882147
	H68	H	0.597211	0.129474	0.394730
	H69	H	0.594210	0.891184	0.589929
	H70	H	0.404427	0.123730	0.586819
	H71	H	0.410850	0.891175	0.401034
	H72	H	0.905232	0.625465	0.094300
	H73	H	0.088256	0.392944	0.088233
	H74	H	0.096588	0.628714	0.896111
	H75	H	0.905570	0.392183	0.907527
	H76	H	0.094138	0.925006	0.612089
	H77	H	0.089922	0.094688	0.385210
	H78	H	0.910102	0.091096	0.609409
	H79	H	0.893878	0.917378	0.380201
	H80	H	0.617115	0.108933	0.905783
	H81	H	0.379954	0.104008	0.092245
	H82	H	0.615022	0.914049	0.088707
	H83	H	0.382280	0.917741	0.906636
	H84	H	0.613537	0.920054	0.090700
	H85	H	0.382676	0.098234	0.088805
	H86	H	0.612499	0.097565	0.911614
	H87	H	0.380760	0.914563	0.903831
	H88	H	0.912893	0.112183	0.614816
	H89	H	0.086886	0.108764	0.382359
	H90	H	0.082203	0.912204	0.612490
	H91	H	0.912073	0.923954	0.387097
	H92	H	0.078884	0.622411	0.904971
	H93	H	0.094491	0.390493	0.093234
	H94	H	0.907820	0.624376	0.092149
	H95	H	0.904307	0.391013	0.903322
	H96	H	0.402080	0.126911	0.596894
	H97	H	0.589894	0.890734	0.596326
	H98	H	0.578099	0.120726	0.403877
	H99	H	0.408084	0.894444	0.412627
	H100	H	0.581480	0.413276	0.113091
	H101	H	0.593135	0.605243	0.881146
	H102	H	0.395171	0.594366	0.115150
	H103	H	0.400751	0.411974	0.880320
	H104	H	0.115626	0.598366	0.397639
	H105	H	0.879977	0.603711	0.594954
	H106	H	0.114809	0.421131	0.594211
	H107	H	0.883230	0.421155	0.405507
	H108	H	0.904857	0.624508	0.090453
	H109	H	0.086839	0.391223	0.095824
	H110	H	0.096135	0.623371	0.915519
	H111	H	0.908324	0.392395	0.904383
	H112	H	0.098239	0.909263	0.618018
	H113	H	0.100473	0.103860	0.379563
	H114	H	0.893184	0.102191	0.617795
	H115	H	0.909792	0.904385	0.381329
	H116	H	0.615368	0.097613	0.898696
	H117	H	0.380048	0.098067	0.095312
	H118	H	0.616073	0.915507	0.094941
	H119	H	0.381034	0.913023	0.908180
	C120	C	0.377369	0.016411	0.620452
	C121	C	0.619650	1.000027	0.620153
	C122	C	0.620031	0.016383	0.376705
	C123	C	0.377714	0.999769	0.377651
	C124	C	0.618708	0.387041	0.006350
	C125	C	0.620789	0.630573	0.990124
	C126	C	0.377528	0.629020	0.006352
	C127	C	0.376052	0.385615	0.989836
	C128	C	0.006416	0.630991	0.376360
	C129	C	0.990605	0.629666	0.619575
	C130	C	0.007127	0.387697	0.619519
	C131	C	0.990243	0.387726	0.376750
	C132	C	0.876502	0.516403	0.120803
	C133	C	0.120046	0.499168	0.120725
	C134	C	0.119384	0.516835	0.877052
	C135	C	0.877074	0.500177	0.876499
	C136	C	0.120264	0.887258	0.506799
	C137	C	0.121003	0.130703	0.489918
	C138	C	0.876912	0.130180	0.506305
	C139	C	0.876208	0.886258	0.490613
	C140	C	0.506608	0.129529	0.877305
	C141	C	0.489110	0.129542	0.120253
	C142	C	0.506568	0.886793	0.120430
	C143	C	0.489766	0.886851	0.877631
	C144	C	0.377980	0.893618	0.676499
	C145	C	0.618240	0.123047	0.675303
	C146	C	0.618642	0.893705	0.321197
	C147	C	0.379455	0.122426	0.321523
	C148	C	0.675190	0.389252	0.884356
	C149	C	0.675235	0.627108	0.113087
	C150	C	0.321732	0.626718	0.883986
	C151	C	0.320673	0.388112	0.112261
	C152	C	0.882765	0.685547	0.379678
	C153	C	0.113685	0.685975	0.617720
	C154	C	0.883628	0.331851	0.616751
	C155	C	0.113735	0.332861	0.378969
	C156	C	0.883998	0.388234	0.675411
	C157	C	0.113412	0.629232	0.676059
	C158	C	0.883014	0.628531	0.321480
	C159	C	0.113830	0.390006	0.321563
	C160	C	0.378992	0.685360	0.884162
	C161	C	0.618314	0.685957	0.112653
	C162	C	0.617586	0.330920	0.884345
	C163	C	0.377345	0.329726	0.112126
	C164	C	0.674754	0.893041	0.379988
	C165	C	0.675215	0.123244	0.616910
	C166	C	0.322046	0.893153	0.617360
	C167	C	0.323246	0.123108	0.380133
	C168	C	0.877722	0.393730	0.176586
	C169	C	0.118643	0.622674	0.174895
	C170	C	0.118319	0.394205	0.820779
	C171	C	0.878508	0.622782	0.820426
	C172	C	0.175435	0.889795	0.383879
	C173	C	0.175968	0.127612	0.612599
	C174	C	0.821711	0.127547	0.383735
	C175	C	0.821084	0.888708	0.613313
	C176	C	0.382480	0.183206	0.880719
	C177	C	0.612573	0.185550	0.117552
	C178	C	0.383466	0.830673	0.118319
	C179	C	0.613376	0.832323	0.879768
	C180	C	0.383460	0.887439	0.176583
	C181	C	0.612646	0.128012	0.175170
	C182	C	0.383131	0.127230	0.822129
	C183	C	0.612864	0.889105	0.821439
	C184	C	0.879328	0.185653	0.383774
	C185	C	0.118667	0.186472	0.612218
	C186	C	0.117121	0.832667	0.383822
	C187	C	0.878706	0.830613	0.613152
	C188	C	0.174309	0.393467	0.879801
	C189	C	0.176355	0.622263	0.117609
	C190	C	0.821247	0.393099	0.117702
	C191	C	0.822472	0.623400	0.879772
	C192	C	0.399704	0.102631	0.599215
	C193	C	0.596836	0.914153	0.598279
	C194	C	0.597545	0.102198	0.398533
	C195	C	0.399670	0.913663	0.399556
	C196	C	0.595993	0.409077	0.091924
	C197	C	0.598470	0.608557	0.904767
	C198	C	0.400141	0.606538	0.091476
	C199	C	0.398470	0.407358	0.904021
	C200	C	0.092685	0.609330	0.398011
	C201	C	0.904588	0.606639	0.597108
	C202	C	0.093191	0.410569	0.597357
	C203	C	0.904195	0.409866	0.398812
	C204	C	0.899039	0.602538	0.098725
	C205	C	0.096728	0.413622	0.098748
	C206	C	0.097257	0.602526	0.899016
	C207	C	0.899412	0.414163	0.898558
	C208	C	0.098003	0.909143	0.592121
	C209	C	0.098962	0.108803	0.404431
	C210	C	0.898916	0.108294	0.591752
	C211	C	0.898565	0.908762	0.405175
	C212	C	0.592785	0.107925	0.898995
	C213	C	0.403138	0.106625	0.098429
	C214	C	0.592548	0.909910	0.098211
	C215	C	0.403433	0.908812	0.899862
	Zn216	Zn	0.498080	0.008148	0.749254
	Zn217	Zn	0.498464	0.007678	0.248678
	Zn218	Zn	0.748877	0.508409	-0.001471
	Zn219	Zn	0.247505	0.507476	-0.001660
	Zn220	Zn	-0.001451	0.758346	0.498291
	Zn221	Zn	-0.001312	0.259532	0.497942
	Zn222	Zn	-0.001122	0.508805	0.747887
	Zn223	Zn	-0.001489	0.508487	0.248890
	Zn224	Zn	0.498662	0.758859	-0.001189
	Zn225	Zn	0.497584	0.257266	-0.001638
	Zn226	Zn	0.748267	0.008058	0.498223
	Zn227	Zn	0.249709	0.008501	0.498120
	N228	N	0.411739	0.971288	0.678723
	N229	N	0.584577	0.045171	0.677776
	N230	N	0.585490	0.971290	0.318886
	N231	N	0.412623	0.044705	0.319867
	N232	N	0.676005	0.423335	0.961313
	N233	N	0.676810	0.593507	0.036028
	N234	N	0.320743	0.592348	0.960861
	N235	N	0.319865	0.422214	0.035204
	N236	N	0.960493	0.687163	0.413196
	N237	N	0.036229	0.686574	0.583455
	N238	N	0.961192	0.331424	0.582602
	N239	N	0.036099	0.331127	0.412502
	N240	N	0.961742	0.422216	0.677238
	N241	N	0.035775	0.594894	0.677111
	N242	N	0.960955	0.595552	0.319036
	N243	N	0.036023	0.423690	0.320391
	N244	N	0.413083	0.686793	0.961098
	N245	N	0.585134	0.688075	0.035247
	N246	N	0.583271	0.329430	0.961390
	N247	N	0.411296	0.328185	0.034985
	N248	N	0.675848	0.970567	0.413738
	N249	N	0.676080	0.046022	0.583306
	N250	N	0.321610	0.970399	0.583244
	N251	N	0.322310	0.045929	0.414357
	N252	N	0.911731	0.471266	0.178080
	N253	N	0.084403	0.545267	0.177085
	N254	N	0.084765	0.471707	0.819260
	N255	N	0.911579	0.545078	0.818291
	N256	N	0.177600	0.923057	0.461270
	N257	N	0.177644	0.093949	0.535641
	N258	N	0.819968	0.094022	0.460899
	N259	N	0.819624	0.922659	0.536195
	N260	N	0.460145	0.184617	0.914404
	N261	N	0.534913	0.186601	0.084191
	N262	N	0.460920	0.830463	0.083947
	N263	N	0.535838	0.830782	0.913808
	N264	N	0.461219	0.921565	0.178036
	N265	N	0.534837	0.093920	0.177003
	N266	N	0.461265	0.094600	0.819803
	N267	N	0.535001	0.922504	0.820207
	N268	N	0.912900	0.187439	0.461047
	N269	N	0.085144	0.188455	0.534924
	N270	N	0.083577	0.830858	0.461025
	N271	N	0.912067	0.828814	0.535787
	N272	N	0.175179	0.470741	0.914169
	N273	N	0.177606	0.544459	0.084835
	N274	N	0.820125	0.470744	0.084089
	N275	N	0.821372	0.545959	0.913727
	O276	O	0.579405	0.442015	0.415715
	H277	H	0.589182	0.448982	0.417890
	H278	H	0.584633	0.439370	0.400732
	O279	O	0.464377	0.506412	0.424694
	H280	H	0.465928	0.505339	0.427194
	H281	H	0.467445	0.501879	0.421113
	O282	O	0.553042	0.542191	0.530372
	H283	H	0.551727	0.544211	0.540195
	H284	H	0.551369	0.536904	0.521437
	O285	O	0.359811	0.629538	1.390848
	H286	H	0.355947	0.630124	1.390861
	H287	H	0.361425	0.621281	1.392622
	O288	O	-0.000139	-0.008656	1.027955
	H289	H	0.000832	-0.006712	1.030865
	H290	H	-0.008505	-0.007128	1.033931
	O291	O	-0.507725	0.502960	0.509502
	H292	H	-0.519184	0.486368	0.509911
	H293	H	-0.516525	0.503027	0.510880
	O294	O	0.531374	0.434047	0.504614
	H295	H	0.528941	0.431302	0.497441
	H296	H	0.527591	0.430150	0.502515
	O297	O	0.545042	0.607515	0.592538
	H298	H	0.553532	0.605163	0.587265
	H299	H	0.557605	0.608568	0.591826
	O300	O	0.501756	0.528416	0.517232
	H301	H	0.501105	0.531497	0.523616
	H302	H	0.503431	0.538034	0.518656
	O303	O	0.454942	0.527933	0.536115
	H304	H	0.451018	0.529920	0.550736
	H305	H	0.459831	0.528878	0.528508
	O306	O	0.949722	-0.050353	1.026296
	H307	H	0.946447	-0.056449	1.030940
	H308	H	0.946404	-0.046133	1.026132
	O309	O	0.461253	0.481398	0.519132
	H310	H	0.459051	0.497647	0.521438
	H311	H	0.459830	0.482706	0.523037
	O312	O	0.527300	0.483987	0.506809
	H313	H	0.521187	0.484507	0.517745
	H314	H	0.525193	0.489605	0.506490
	O315	O	0.970959	-0.045437	0.995726
	H316	H	0.970874	-0.049210	1.000991
	H317	H	0.974202	-0.044658	0.993572
	O318	O	0.536356	-0.456337	-0.555905
	H319	H	0.534858	-0.460101	-0.553696
	H320	H	0.533447	-0.461342	-0.561469
	O321	O	0.415005	0.467298	0.535456
	H322	H	0.413643	0.473686	0.536402
	H323	H	0.425199	0.469591	0.538304
	O324	O	0.954925	-0.002070	0.017233
	H325	H	0.952981	-0.006606	0.006782
	H326	H	0.961057	-0.001288	0.018696
	O327	O	0.942818	0.958776	-0.004505
	H328	H	0.941034	0.954987	0.001651
	H329	H	0.942439	0.958685	-0.014302
	O330	O	0.573519	0.584150	0.467331
	H331	H	0.562267	0.567930	0.469611
	H332	H	0.577976	0.587383	0.464015
	O333	O	0.487040	0.476518	0.524576
	H334	H	0.501863	0.475650	0.520835
	H335	H	0.485146	0.483523	0.523809
