data_Molecule from HDF5

_cell_length_a		16.524791
_cell_length_b		16.587158
_cell_length_c		16.541026
_cell_angle_alpha	89.966679
_cell_angle_beta	90.132139
_cell_angle_gamma	90.018705
_symmetry_space_group_name_H-M	'P 1'
_symmetry_Int_Tables_number		1

loop_
	_symmetry_equiv_pos_as_xyz
	x,y,z

loop_
	_atom_site_label
	_atom_site_type_symbol
	_atom_site_fract_x
	_atom_site_fract_y
	_atom_site_fract_z
	H0	H	0.393048	0.848154	0.723316
	H1	H	0.604687	0.160867	0.719751
	H2	H	0.605081	0.847190	0.278359
	H3	H	0.397937	0.160919	0.279687
	H4	H	0.717934	0.402199	0.841469
	H5	H	0.722558	0.610195	0.156890
	H6	H	0.278169	0.611242	0.842820
	H7	H	0.281738	0.401994	0.157623
	H8	H	0.844001	0.727249	0.391316
	H9	H	0.156529	0.728075	0.607659
	H10	H	0.843672	0.282644	0.604311
	H11	H	0.156888	0.282039	0.393305
	H12	H	0.842837	0.399985	0.718915
	H13	H	0.156572	0.612039	0.723210
	H14	H	0.844618	0.611747	0.275454
	H15	H	0.157933	0.400238	0.277949
	H16	H	0.392872	0.728920	0.844248
	H17	H	0.605879	0.726213	0.157125
	H18	H	0.602973	0.285321	0.842586
	H19	H	0.397438	0.285169	0.156807
	H20	H	0.722522	0.847811	0.393874
	H21	H	0.721901	0.160565	0.604545
	H22	H	0.277599	0.847430	0.606477
	H23	H	0.279641	0.160392	0.395130
	H24	H	0.897725	0.348319	0.220054
	H25	H	0.110353	0.660363	0.225146
	H26	H	0.102196	0.347033	0.780773
	H27	H	0.897114	0.661145	0.779415
	H28	H	0.223160	0.897589	0.342752
	H29	H	0.222716	0.109018	0.655842
	H30	H	0.782773	0.104444	0.340984
	H31	H	0.782116	0.901197	0.656390
	H32	H	0.342702	0.225561	0.893802
	H33	H	0.658470	0.220353	0.099911
	H34	H	0.342518	0.781643	0.105842
	H35	H	0.656480	0.782608	0.895211
	H36	H	0.341972	0.898666	0.220709
	H37	H	0.658528	0.103438	0.216490
	H38	H	0.343950	0.110064	0.776143
	H39	H	0.657728	0.901281	0.780894
	H40	H	0.898691	0.222471	0.341180
	H41	H	0.106827	0.226578	0.654743
	H42	H	0.108578	0.780566	0.343239
	H43	H	0.896152	0.782533	0.654643
	H44	H	0.220608	0.348224	0.895213
	H45	H	0.226636	0.660498	0.108915
	H46	H	0.782218	0.347073	0.101661
	H47	H	0.781366	0.661814	0.896598
	H48	H	0.416214	0.114250	0.590384
	H49	H	0.590025	0.892399	0.587783
	H50	H	0.589354	0.117310	0.404475
	H51	H	0.414846	0.893083	0.409033
	H52	H	0.592794	0.410958	0.114583
	H53	H	0.592110	0.597705	0.885986
	H54	H	0.417459	0.591772	0.109128
	H55	H	0.410309	0.411831	0.885672
	H56	H	0.111522	0.589981	0.411642
	H57	H	0.887375	0.597467	0.587262
	H58	H	0.113926	0.413445	0.589871
	H59	H	0.888222	0.414216	0.407310
	H60	H	0.112124	0.414600	0.586827
	H61	H	0.890274	0.591328	0.584519
	H62	H	0.112476	0.594557	0.412026
	H63	H	0.888785	0.413168	0.410259
	H64	H	0.412382	0.596345	0.112362
	H65	H	0.590260	0.588140	0.889624
	H66	H	0.592440	0.415724	0.112999
	H67	H	0.406656	0.414781	0.886604
	H68	H	0.588003	0.114464	0.411555
	H69	H	0.593112	0.891062	0.589655
	H70	H	0.414027	0.112395	0.583253
	H71	H	0.410352	0.892641	0.414551
	H72	H	0.914385	0.619068	0.096316
	H73	H	0.091507	0.393211	0.090936
	H74	H	0.093341	0.620100	0.905009
	H75	H	0.906993	0.389575	0.904446
	H76	H	0.084422	0.914897	0.609645
	H77	H	0.094019	0.095209	0.384766
	H78	H	0.910007	0.101073	0.614126
	H79	H	0.912672	0.913974	0.385804
	H80	H	0.614523	0.101961	0.911566
	H81	H	0.387006	0.092854	0.088028
	H82	H	0.608880	0.922816	0.089428
	H83	H	0.385867	0.915871	0.904079
	H84	H	0.614643	0.910928	0.096393
	H85	H	0.385478	0.095072	0.091883
	H86	H	0.608641	0.090109	0.914872
	H87	H	0.388061	0.909493	0.918021
	H88	H	0.905482	0.091405	0.612592
	H89	H	0.090153	0.087000	0.388999
	H90	H	0.090551	0.914238	0.611042
	H91	H	0.909447	0.915966	0.385716
	H92	H	0.080905	0.614553	0.908860
	H93	H	0.084402	0.397004	0.088592
	H94	H	0.917539	0.612248	0.081207
	H95	H	0.911453	0.392649	0.907966
	H96	H	0.408936	0.115659	0.587983
	H97	H	0.589323	0.891542	0.591399
	H98	H	0.594924	0.117233	0.410032
	H99	H	0.408550	0.889498	0.408170
	H100	H	0.588999	0.412656	0.112253
	H101	H	0.583082	0.595625	0.889939
	H102	H	0.410508	0.589012	0.110598
	H103	H	0.411357	0.415928	0.887307
	H104	H	0.110150	0.592271	0.415229
	H105	H	0.888303	0.591579	0.591083
	H106	H	0.112121	0.416652	0.589551
	H107	H	0.888766	0.416434	0.410029
	H108	H	0.902692	0.618829	0.084995
	H109	H	0.090567	0.396053	0.083412
	H110	H	0.091809	0.615351	0.918129
	H111	H	0.905760	0.390833	0.910889
	H112	H	0.088579	0.919786	0.608917
	H113	H	0.084576	0.094825	0.387694
	H114	H	0.916178	0.092857	0.610325
	H115	H	0.912716	0.917221	0.387240
	H116	H	0.614021	0.092221	0.902558
	H117	H	0.386551	0.097214	0.088052
	H118	H	0.610885	0.910231	0.082040
	H119	H	0.392064	0.924159	0.915354
	C120	C	0.379355	0.011688	0.620866
	C121	C	0.622684	0.995241	0.621236
	C122	C	0.622014	0.012352	0.377434
	C123	C	0.379276	0.995249	0.378136
	C124	C	0.621963	0.382945	0.008577
	C125	C	0.621539	0.626194	0.992048
	C126	C	0.379487	0.625812	0.007911
	C127	C	0.378375	0.383039	0.990648
	C128	C	0.008642	0.625575	0.378576
	C129	C	0.992031	0.626195	0.620810
	C130	C	0.008500	0.383043	0.620138
	C131	C	0.992354	0.382789	0.377108
	C132	C	0.879937	0.513238	0.120210
	C133	C	0.122065	0.498133	0.120864
	C134	C	0.120856	0.513111	0.878501
	C135	C	0.877632	0.495412	0.877131
	C136	C	0.121582	0.882961	0.507217
	C137	C	0.122180	0.125146	0.490654
	C138	C	0.879512	0.125334	0.507783
	C139	C	0.879714	0.883306	0.490217
	C140	C	0.508241	0.126184	0.877629
	C141	C	0.491363	0.124676	0.119923
	C142	C	0.507694	0.882259	0.121581
	C143	C	0.492266	0.884168	0.880309
	C144	C	0.375536	0.894681	0.682663
	C145	C	0.623829	0.113455	0.680470
	C146	C	0.623708	0.894336	0.318127
	C147	C	0.378001	0.113620	0.318776
	C148	C	0.679299	0.383090	0.889379
	C149	C	0.682434	0.628756	0.109772
	C150	C	0.318095	0.629454	0.890119
	C151	C	0.320626	0.382595	0.109788
	C152	C	0.891220	0.687102	0.373946
	C153	C	0.109355	0.687537	0.625170
	C154	C	0.890529	0.322919	0.622108
	C155	C	0.110100	0.322447	0.374679
	C156	C	0.890255	0.381361	0.679190
	C157	C	0.109519	0.629511	0.682691
	C158	C	0.891304	0.629421	0.316307
	C159	C	0.110607	0.381392	0.317698
	C160	C	0.375274	0.688009	0.890789
	C161	C	0.624407	0.686507	0.109795
	C162	C	0.622048	0.324865	0.889699
	C163	C	0.378144	0.324502	0.109532
	C164	C	0.682033	0.894552	0.375675
	C165	C	0.682078	0.113380	0.623066
	C166	C	0.317836	0.894534	0.624654
	C167	C	0.319470	0.113281	0.376128
	C168	C	0.878827	0.395194	0.179944
	C169	C	0.126953	0.614297	0.183345
	C170	C	0.121645	0.394559	0.819934
	C171	C	0.877685	0.613961	0.818918
	C172	C	0.182789	0.879788	0.389710
	C173	C	0.182749	0.127656	0.608736
	C174	C	0.821429	0.125023	0.388599
	C175	C	0.821005	0.881902	0.608649
	C176	C	0.390033	0.185741	0.875434
	C177	C	0.610977	0.181354	0.119529
	C178	C	0.389543	0.821800	0.123873
	C179	C	0.609979	0.823614	0.877595
	C180	C	0.389354	0.880083	0.181125
	C181	C	0.610830	0.123659	0.177542
	C182	C	0.390424	0.128374	0.817019
	C183	C	0.610455	0.882583	0.820842
	C184	C	0.879087	0.183242	0.388604
	C185	C	0.125385	0.186075	0.608184
	C186	C	0.125574	0.821553	0.389891
	C187	C	0.877878	0.823263	0.608131
	C188	C	0.180370	0.395137	0.877140
	C189	C	0.184618	0.614556	0.125201
	C190	C	0.821423	0.394545	0.121318
	C191	C	0.820315	0.614423	0.877242
	C192	C	0.405527	0.092830	0.594574
	C193	C	0.597846	0.913023	0.596679
	C194	C	0.597752	0.094785	0.401654
	C195	C	0.404125	0.913232	0.403156
	C196	C	0.598158	0.406367	0.091616
	C197	C	0.595837	0.600954	0.909994
	C198	C	0.405824	0.599565	0.089306
	C199	C	0.402424	0.407226	0.908004
	C200	C	0.090244	0.599445	0.405310
	C201	C	0.909972	0.600602	0.594960
	C202	C	0.091225	0.407776	0.595501
	C203	C	0.910030	0.407483	0.402175
	C204	C	0.904670	0.595414	0.095007
	C205	C	0.096073	0.416638	0.095089
	C206	C	0.095881	0.595276	0.903540
	C207	C	0.901073	0.412671	0.901080
	C208	C	0.095341	0.908990	0.588675
	C209	C	0.096744	0.099767	0.408603
	C210	C	0.903824	0.101904	0.590791
	C211	C	0.904664	0.908388	0.407703
	C212	C	0.590843	0.101668	0.902535
	C213	C	0.407967	0.101689	0.096035
	C214	C	0.590115	0.907300	0.096424
	C215	C	0.409972	0.909209	0.905321
	Zn216	Zn	0.500332	0.003943	0.749660
	Zn217	Zn	0.499786	0.003656	0.249134
	Zn218	Zn	0.749755	0.504361	0.000039
	Zn219	Zn	0.250784	0.505444	-0.000208
	Zn220	Zn	0.000472	0.754315	0.498850
	Zn221	Zn	0.000670	0.254337	0.499253
	Zn222	Zn	-0.000083	0.504465	0.748815
	Zn223	Zn	0.001032	0.505706	0.249587
	Zn224	Zn	0.499876	0.754216	0.000384
	Zn225	Zn	0.500084	0.254459	-0.000440
	Zn226	Zn	0.750256	0.004066	0.499156
	Zn227	Zn	0.250455	0.003279	0.499585
	N228	N	0.413043	0.968549	0.680606
	N229	N	0.587644	0.038846	0.679737
	N230	N	0.587006	0.968545	0.319108
	N231	N	0.413949	0.038952	0.319583
	N232	N	0.679429	0.418495	0.964482
	N233	N	0.681039	0.592119	0.035257
	N234	N	0.320717	0.591507	0.963849
	N235	N	0.320547	0.418154	0.034843
	N236	N	0.965282	0.684738	0.412038
	N237	N	0.035298	0.685694	0.587398
	N238	N	0.965359	0.323713	0.586141
	N239	N	0.035439	0.323148	0.410771
	N240	N	0.964808	0.417998	0.678193
	N241	N	0.035468	0.591841	0.680014
	N242	N	0.965378	0.592045	0.318901
	N243	N	0.036125	0.418047	0.318836
	N244	N	0.412675	0.685857	0.965058
	N245	N	0.587285	0.684885	0.035557
	N246	N	0.586929	0.324643	0.964815
	N247	N	0.413156	0.324353	0.034322
	N248	N	0.680877	0.968903	0.412093
	N249	N	0.681467	0.038865	0.586999
	N250	N	0.320146	0.968158	0.586770
	N251	N	0.319995	0.038660	0.412134
	N252	N	0.914309	0.470049	0.179564
	N253	N	0.088382	0.541104	0.180448
	N254	N	0.085387	0.469079	0.820626
	N255	N	0.912536	0.538864	0.818597
	N256	N	0.180355	0.917273	0.463642
	N257	N	0.180925	0.090607	0.534605
	N258	N	0.821301	0.090256	0.463914
	N259	N	0.822100	0.918530	0.534195
	N260	N	0.464554	0.184653	0.912201
	N261	N	0.535466	0.182307	0.084657
	N262	N	0.464251	0.823153	0.087490
	N263	N	0.535331	0.824473	0.913736
	N264	N	0.463715	0.916751	0.179920
	N265	N	0.535164	0.089263	0.178043
	N266	N	0.464955	0.091958	0.818263
	N267	N	0.536113	0.919472	0.822279
	N268	N	0.914308	0.183771	0.463880
	N269	N	0.088268	0.184547	0.533898
	N270	N	0.088396	0.823179	0.464100
	N271	N	0.913578	0.824103	0.533313
	N272	N	0.180372	0.470041	0.912672
	N273	N	0.181617	0.541304	0.086973
	N274	N	0.821861	0.469005	0.085078
	N275	N	0.819775	0.539546	0.912385
	O276	O	1.070232	0.901977	0.202563
	H277	H	1.052010	0.899592	0.203836
	H278	H	1.038461	0.890936	0.203900
	O279	O	0.082271	0.022153	0.927097
	H280	H	0.100699	0.028547	0.952712
	H281	H	0.092944	0.016114	0.914123
	O282	O	0.672511	0.495325	0.621587
	H283	H	0.680652	0.490008	0.629120
	H284	H	0.674824	0.492469	0.622968
	O285	O	0.358586	0.298028	0.601311
	H286	H	0.352960	0.278800	0.592186
	H287	H	0.384442	0.304353	0.598483
	O288	O	0.957667	-0.191618	0.965469
	H289	H	0.968596	-0.194840	0.948266
	H290	H	0.970542	-0.194578	0.971853
	O291	O	0.718135	0.722912	0.534003
	H292	H	0.741594	0.743695	0.531039
	H293	H	0.710175	0.714328	0.551216
	O294	O	0.211458	0.066489	-0.057479
	H295	H	0.214926	0.056944	-0.034349
	H296	H	0.214950	0.087320	-0.041131
	O297	O	0.812928	0.192711	0.186328
	H298	H	0.828172	0.178169	0.161011
	H299	H	0.832946	0.169423	0.174691
	O300	O	0.199802	0.203563	0.196551
	H301	H	0.202018	0.155477	0.200738
	H302	H	0.231214	0.220807	0.227839
	O303	O	-0.162712	-0.101216	0.172078
	H304	H	-0.162844	-0.094849	0.150898
	H305	H	-0.175647	-0.111835	0.187332
	O306	O	1.205004	-0.087200	0.041736
	H307	H	1.200560	-0.095504	0.065240
	H308	H	1.206153	-0.099005	0.044865
	O309	O	0.463951	0.405571	0.370270
	H310	H	0.463012	0.396076	0.368828
	H311	H	0.474982	0.410724	0.366131
	O312	O	0.308310	0.325049	0.324775
	H313	H	0.323801	0.345386	0.335037
	H314	H	0.330551	0.332302	0.344489
	O315	O	0.577640	0.558798	0.565354
	H316	H	0.568382	0.548064	0.566502
	H317	H	0.584045	0.553970	0.568696
	O318	O	0.991989	0.985458	-0.197633
	H319	H	0.977185	1.001015	-0.194763
	H320	H	1.018814	0.995114	-0.197531
	O321	O	0.134928	1.080272	0.809372
	H322	H	0.139586	1.074826	0.811374
	H323	H	0.145610	1.083700	0.815306
	O324	O	1.120964	-0.102440	0.856922
	H325	H	1.104955	-0.108976	0.874660
	H326	H	1.132344	-0.072723	0.850606
	O327	O	0.707771	0.717002	0.709400
	H328	H	0.718073	0.709501	0.696091
	H329	H	0.723680	0.743564	0.735276
	O330	O	0.338792	0.641115	0.292175
	H331	H	0.353070	0.652493	0.285394
	H332	H	0.308030	0.635850	0.290303
	O333	O	0.388034	0.501544	0.451129
	H334	H	0.398500	0.506470	0.446565
	H335	H	0.386967	0.500525	0.454756
	O336	O	0.389733	0.370124	0.513275
	H337	H	0.393433	0.383287	0.514213
	H338	H	0.405007	0.368793	0.511837
	O339	O	0.289971	0.716883	0.479495
	H340	H	0.294153	0.730221	0.478338
	H341	H	0.274532	0.712742	0.492072
	O342	O	0.146960	0.792944	-0.083661
	H343	H	0.172609	0.782925	-0.092761
	H344	H	0.151471	0.799687	-0.095960
	O345	O	0.545234	0.296333	0.550125
	H346	H	0.563485	0.298676	0.552002
	H347	H	0.559709	0.297183	0.567163
	O348	O	0.282122	0.468780	0.715337
	H349	H	0.284150	0.480818	0.732383
	H350	H	0.278286	0.483742	0.716264
	O351	O	0.220808	0.227858	1.031225
	H352	H	0.223448	0.228148	1.071658
	H353	H	0.246732	0.251748	1.045063
	O354	O	0.837245	0.076783	1.017077
	H355	H	0.833925	0.075307	1.009755
	H356	H	0.855867	0.085441	1.003887
	O357	O	0.509393	0.717726	0.407158
	H358	H	0.524501	0.725180	0.400246
	H359	H	0.501696	0.719931	0.412774
	O360	O	0.696458	0.594405	0.394139
	H361	H	0.697722	0.596088	0.409837
	H362	H	0.689890	0.577713	0.411297
	O363	O	0.713442	0.477748	0.282069
	H364	H	0.727449	0.468912	0.286773
	H365	H	0.723271	0.467489	0.284167
	O366	O	0.798664	0.206941	0.798671
	H367	H	0.791788	0.207805	0.849440
	H368	H	0.849242	0.208409	0.791138
	O369	O	-0.046139	0.165176	1.114419
	H370	H	-0.023590	0.163161	1.119889
	H371	H	-0.020881	0.172336	1.109649
	O372	O	0.012381	0.983188	0.970700
	H373	H	0.016060	0.993791	0.972462
	H374	H	0.007820	0.976462	0.978863
	O375	O	0.821504	0.005147	0.119344
	H376	H	0.805691	-0.019875	0.117723
	H377	H	0.822079	0.005490	0.096839
	O378	O	0.709066	0.291271	0.289146
	H379	H	0.741634	0.261497	0.256783
	H380	H	0.702941	0.313276	0.300307
	O381	O	0.100198	0.803106	0.102248
	H382	H	0.109539	0.784624	0.117195
	H383	H	0.103696	0.811328	0.101962
	O384	O	0.498704	0.343584	0.710671
	H385	H	0.478006	0.346385	0.710767
	H386	H	0.492347	0.332393	0.714685
	O387	O	0.212342	0.976322	0.850668
	H388	H	0.222263	0.984341	0.864915
	H389	H	0.234984	0.982060	0.836632
	O390	O	0.101241	1.210930	0.901048
	H391	H	0.118654	1.213697	0.906898
	H392	H	0.123316	1.218122	0.888617
	O393	O	1.034323	0.221878	0.213778
	H394	H	1.074713	0.223220	0.219419
	H395	H	1.040526	0.242364	0.232145
	O396	O	0.426763	0.631191	0.376763
	H397	H	0.431431	0.645741	0.368047
	H398	H	0.440848	0.629053	0.378039
	O399	O	0.531030	0.722969	0.716807
	H400	H	0.541853	0.736295	0.733318
	H401	H	0.552417	0.722528	0.717522
	O402	O	0.784113	0.039951	0.781266
	H403	H	0.794887	0.068942	0.781497
	H404	H	0.756484	0.051353	0.751061
	O405	O	0.442128	0.488040	0.424523
	H406	H	0.452875	0.502702	0.435230
	H407	H	0.425193	0.480659	0.426013
	O408	O	0.811917	0.814660	0.810147
	H409	H	0.824940	0.830364	0.836714
	H410	H	0.842899	0.830983	0.818916
	O411	O	0.952440	0.801480	0.198205
	H412	H	0.949413	0.788764	0.192872
	H413	H	0.929412	0.800094	0.204707
	O414	O	0.214855	0.042912	0.214404
	H415	H	0.220694	0.023082	0.229952
	H416	H	0.208014	0.022214	0.221872
	O417	O	0.722540	0.279580	0.465770
	H418	H	0.739597	0.266643	0.447757
	H419	H	0.736045	0.281472	0.452488
	O420	O	0.970771	0.208701	0.788205
	H421	H	0.995021	0.209283	0.786508
	H422	H	0.982441	0.201425	0.771070
	O423	O	0.919852	1.032638	0.183836
	H424	H	0.910497	1.039745	0.176454
	H425	H	0.912874	1.045346	0.180127
	O426	O	0.547516	0.470157	0.587458
	H427	H	0.553904	0.469470	0.581459
	H428	H	0.546303	0.462562	0.603744
	O429	O	0.467025	0.705266	0.544341
	H430	H	0.457471	0.708380	0.555049
	H431	H	0.481672	0.699927	0.555376
	O432	O	0.790857	0.209609	0.964837
	H433	H	0.775294	0.218623	0.976631
	H434	H	0.813064	0.208498	0.984204
	O435	O	0.663480	0.310610	0.666218
	H436	H	0.672067	0.294038	0.683759
	H437	H	0.668203	0.315180	0.668588
	O438	O	0.536120	0.546627	0.282731
	H439	H	0.543410	0.560294	0.279049
	H440	H	0.546481	0.545732	0.281678
	O441	O	0.720172	0.541865	0.662046
	H442	H	0.734946	0.540470	0.680415
	H443	H	0.723712	0.569155	0.670618
	O444	O	0.342998	0.608897	0.300591
	H445	H	0.361832	0.606838	0.310214
	H446	H	0.347213	0.593595	0.308833
	O447	O	0.489149	0.529986	0.705999
	H448	H	0.492945	0.534734	0.709163
	H449	H	0.510106	0.519932	0.700266
	O450	O	1.001751	0.010507	-0.115935
	H451	H	1.005534	0.019406	-0.110886
	H452	H	0.992218	0.004678	-0.108900
	O453	O	0.484868	0.452892	0.486392
	H454	H	0.482635	0.462269	0.489134
	H455	H	0.483293	0.448057	0.488729
	O456	O	0.015466	0.834087	0.843059
	H457	H	0.018136	0.859959	0.845842
	H458	H	0.028457	0.819271	0.829509
	O459	O	0.607127	0.649059	0.378540
	H460	H	0.600147	0.627204	0.377204
	H461	H	0.603861	0.638242	0.393601
	O462	O	0.535963	0.288532	0.284287
	H463	H	0.567002	0.295619	0.297857
	H464	H	0.538245	0.268486	0.263101
	O465	O	0.316106	0.440427	0.508768
	H466	H	0.321528	0.436168	0.517419
	H467	H	0.313152	0.432812	0.519103
	O468	O	-0.196675	0.797363	0.068505
	H469	H	-0.214823	0.772872	0.066913
	H470	H	-0.184921	0.801225	0.069055
	O471	O	0.339460	0.601844	0.646358
	H472	H	0.351593	0.608044	0.639429
	H473	H	0.344007	0.591054	0.649959
	O474	O	0.789256	0.903087	-0.033130
	H475	H	0.812912	0.906175	-0.045104
	H476	H	0.771745	0.894539	-0.050275
	O477	O	0.293377	0.301155	0.707293
	H478	H	0.295682	0.324214	0.690567
	H479	H	0.296640	0.315833	0.691872
