data_Molecule from HDF5

_cell_length_a		16.551370
_cell_length_b		16.483101
_cell_length_c		16.604756
_cell_angle_alpha	89.986712
_cell_angle_beta	90.052035
_cell_angle_gamma	89.907791
_symmetry_space_group_name_H-M	'P 1'
_symmetry_Int_Tables_number		1

loop_
	_symmetry_equiv_pos_as_xyz
	x,y,z

loop_
	_atom_site_label
	_atom_site_type_symbol
	_atom_site_fract_x
	_atom_site_fract_y
	_atom_site_fract_z
	H0	H	0.368963	0.851409	0.702832
	H1	H	0.577323	0.167768	0.696634
	H2	H	0.585656	0.854396	0.253250
	H3	H	0.370204	0.165886	0.259647
	H4	H	0.696217	0.404932	0.822916
	H5	H	0.696778	0.613767	0.136648
	H6	H	0.253954	0.616274	0.821727
	H7	H	0.257309	0.407754	0.137686
	H8	H	0.819889	0.731092	0.374358
	H9	H	0.133075	0.732430	0.585971
	H10	H	0.817901	0.292194	0.579510
	H11	H	0.134563	0.290505	0.378678
	H12	H	0.818617	0.407483	0.697930
	H13	H	0.133037	0.616554	0.701927
	H14	H	0.819466	0.615485	0.257480
	H15	H	0.134931	0.405866	0.260435
	H16	H	0.371724	0.731100	0.820990
	H17	H	0.581502	0.731417	0.135650
	H18	H	0.576378	0.291603	0.821599
	H19	H	0.373055	0.290970	0.137289
	H20	H	0.700690	0.853593	0.370054
	H21	H	0.691293	0.168837	0.578558
	H22	H	0.252211	0.851722	0.588003
	H23	H	0.258050	0.167243	0.379102
	H24	H	0.874818	0.350965	0.197373
	H25	H	0.083487	0.667361	0.202123
	H26	H	0.080165	0.353399	0.759711
	H27	H	0.866509	0.665955	0.754357
	H28	H	0.202127	0.899126	0.325824
	H29	H	0.196441	0.113183	0.635445
	H30	H	0.752528	0.115833	0.323261
	H31	H	0.752844	0.903094	0.633839
	H32	H	0.318667	0.229428	0.875684
	H33	H	0.631765	0.229322	0.083274
	H34	H	0.319805	0.785352	0.085401
	H35	H	0.632770	0.787200	0.873837
	H36	H	0.320665	0.898714	0.204593
	H37	H	0.631022	0.114888	0.201472
	H38	H	0.319784	0.113576	0.757332
	H39	H	0.632612	0.901740	0.755751
	H40	H	0.872168	0.229826	0.321853
	H41	H	0.080634	0.230832	0.634794
	H42	H	0.083783	0.785969	0.323666
	H43	H	0.869247	0.786287	0.633962
	H44	H	0.195655	0.352955	0.876906
	H45	H	0.200509	0.667082	0.087762
	H46	H	0.759280	0.350829	0.080143
	H47	H	0.751525	0.665819	0.871702
	H48	H	0.381502	0.122347	0.566442
	H49	H	0.566524	0.894437	0.571850
	H50	H	0.568054	0.119887	0.398121
	H51	H	0.391749	0.896082	0.388459
	H52	H	0.565204	0.418597	0.091696
	H53	H	0.558663	0.595310	0.870818
	H54	H	0.400401	0.598878	0.085310
	H55	H	0.390377	0.420843	0.868848
	H56	H	0.085921	0.588865	0.388715
	H57	H	0.868827	0.595315	0.560161
	H58	H	0.088922	0.420849	0.567742
	H59	H	0.861990	0.416697	0.385912
	H60	H	0.089250	0.420363	0.572101
	H61	H	0.865546	0.592685	0.571239
	H62	H	0.091259	0.601740	0.384380
	H63	H	0.865382	0.420630	0.389170
	H64	H	0.382484	0.606436	0.094446
	H65	H	0.565168	0.604197	0.866333
	H66	H	0.569063	0.416467	0.093097
	H67	H	0.384067	0.414763	0.865467
	H68	H	0.566805	0.125406	0.382659
	H69	H	0.561052	0.897413	0.567388
	H70	H	0.387883	0.121568	0.574506
	H71	H	0.390777	0.897886	0.394733
	H72	H	0.886632	0.623174	0.069571
	H73	H	0.065737	0.397363	0.072039
	H74	H	0.067043	0.625771	0.888416
	H75	H	0.883327	0.397018	0.892481
	H76	H	0.057703	0.921876	0.588242
	H77	H	0.068615	0.101131	0.364368
	H78	H	0.886925	0.105150	0.592539
	H79	H	0.883745	0.923048	0.366254
	H80	H	0.588872	0.098080	0.888270
	H81	H	0.361982	0.097535	0.071892
	H82	H	0.585268	0.920692	0.064525
	H83	H	0.364503	0.921360	0.890183
	H84	H	0.585400	0.925332	0.066097
	H85	H	0.362050	0.101848	0.069068
	H86	H	0.590105	0.099781	0.887540
	H87	H	0.365129	0.923019	0.891594
	H88	H	0.878906	0.099795	0.593107
	H89	H	0.068369	0.095323	0.367281
	H90	H	0.065551	0.917102	0.593227
	H91	H	0.890592	0.924953	0.369926
	H92	H	0.060490	0.622730	0.888392
	H93	H	0.064391	0.399511	0.067458
	H94	H	0.889046	0.621950	0.067912
	H95	H	0.887087	0.395347	0.883599
	H96	H	0.390461	0.117366	0.565652
	H97	H	0.567747	0.896310	0.564572
	H98	H	0.554256	0.117536	0.389822
	H99	H	0.385657	0.894503	0.391619
	H100	H	0.569384	0.420822	0.092197
	H101	H	0.569945	0.593134	0.867536
	H102	H	0.383031	0.586959	0.086798
	H103	H	0.381580	0.423948	0.867775
	H104	H	0.085925	0.600767	0.397508
	H105	H	0.863209	0.603990	0.567005
	H106	H	0.090293	0.417183	0.569576
	H107	H	0.863076	0.421560	0.383880
	H108	H	0.885903	0.621864	0.066582
	H109	H	0.069306	0.397741	0.068743
	H110	H	0.064747	0.622190	0.894598
	H111	H	0.892572	0.399809	0.890107
	H112	H	0.067359	0.926404	0.589426
	H113	H	0.063526	0.098831	0.367431
	H114	H	0.886611	0.096228	0.589122
	H115	H	0.890028	0.917938	0.366930
	H116	H	0.588394	0.100212	0.889351
	H117	H	0.363813	0.097578	0.067149
	H118	H	0.586666	0.922453	0.068685
	H119	H	0.365556	0.923271	0.889051
	C120	C	0.354157	0.016726	0.601555
	C121	C	0.596180	1.000838	0.598999
	C122	C	0.597111	0.017887	0.357088
	C123	C	0.355930	0.999993	0.359479
	C124	C	0.597905	0.387351	-0.011937
	C125	C	0.597727	0.630646	0.971126
	C126	C	0.355003	0.631413	-0.013627
	C127	C	0.354411	0.388895	0.971460
	C128	C	-0.015372	0.630318	0.357769
	C129	C	0.968666	0.631032	0.600091
	C130	C	-0.015238	0.388615	0.600240
	C131	C	0.968091	0.388081	0.356718
	C132	C	0.856252	0.517641	0.099410
	C133	C	0.098820	0.502017	0.101606
	C134	C	0.096161	0.519278	0.859036
	C135	C	0.854069	0.501092	0.856483
	C136	C	0.097181	0.888069	0.487867
	C137	C	0.097705	0.130132	0.470125
	C138	C	0.853558	0.131730	0.487349
	C139	C	0.854671	0.888594	0.470286
	C140	C	0.484909	0.130794	0.857305
	C141	C	0.466470	0.130539	0.100688
	C142	C	0.483489	0.888182	0.100312
	C143	C	0.468057	0.888625	0.857442
	C144	C	0.351249	0.898534	0.662353
	C145	C	0.596253	0.120269	0.657042
	C146	C	0.602030	0.900816	0.294989
	C147	C	0.352629	0.118482	0.299589
	C148	C	0.656077	0.386529	0.869703
	C149	C	0.657283	0.632565	0.089067
	C150	C	0.294219	0.634370	0.868743
	C151	C	0.296467	0.388663	0.089899
	C152	C	0.866688	0.690822	0.355672
	C153	C	0.086131	0.692239	0.603823
	C154	C	0.865363	0.331154	0.599486
	C155	C	0.087171	0.329481	0.358045
	C156	C	0.865748	0.388494	0.658109
	C157	C	0.085840	0.634450	0.661624
	C158	C	0.866724	0.633115	0.297745
	C159	C	0.087303	0.386778	0.299413
	C160	C	0.352813	0.691490	0.868262
	C161	C	0.599798	0.691249	0.088564
	C162	C	0.596600	0.330144	0.869305
	C163	C	0.354506	0.330662	0.089931
	C164	C	0.659561	0.900627	0.352983
	C165	C	0.653038	0.120908	0.598431
	C166	C	0.293143	0.898629	0.605176
	C167	C	0.296743	0.119285	0.359099
	C168	C	0.855585	0.398489	0.158026
	C169	C	0.101712	0.620074	0.162308
	C170	C	0.098370	0.400460	0.799825
	C171	C	0.849676	0.619027	0.795482
	C172	C	0.160339	0.882573	0.371752
	C173	C	0.156620	0.131852	0.588456
	C174	C	0.793317	0.134067	0.369898
	C175	C	0.793212	0.884736	0.587116
	C176	C	0.366215	0.190298	0.855990
	C177	C	0.584717	0.189854	0.102238
	C178	C	0.366736	0.825757	0.103832
	C179	C	0.585782	0.827291	0.854933
	C180	C	0.367177	0.882290	0.163090
	C181	C	0.584110	0.133307	0.161089
	C182	C	0.366452	0.132751	0.797513
	C183	C	0.585659	0.884432	0.796378
	C184	C	0.852875	0.190591	0.369045
	C185	C	0.099184	0.190417	0.587829
	C186	C	0.101466	0.826118	0.370850
	C187	C	0.851418	0.826907	0.587175
	C188	C	0.155747	0.400311	0.858054
	C189	C	0.159857	0.619945	0.105238
	C190	C	0.798120	0.398355	0.099943
	C191	C	0.792513	0.619041	0.853937
	C192	C	0.379201	0.098816	0.576214
	C193	C	0.572148	0.917646	0.574879
	C194	C	0.570641	0.099715	0.382886
	C195	C	0.381828	0.917539	0.384707
	C196	C	0.574590	0.411567	0.070926
	C197	C	0.572096	0.604930	0.889459
	C198	C	0.381018	0.605133	0.067571
	C199	C	0.378295	0.412990	0.888814
	C200	C	0.066583	0.604571	0.383080
	C201	C	0.887037	0.605041	0.573520
	C202	C	0.067781	0.412643	0.576619
	C203	C	0.884984	0.412500	0.379741
	C204	C	0.880203	0.600653	0.075070
	C205	C	0.073677	0.419710	0.076482
	C206	C	0.071273	0.601974	0.883457
	C207	C	0.880187	0.418907	0.881725
	C208	C	0.070959	0.914419	0.569162
	C209	C	0.073804	0.105368	0.387821
	C210	C	0.877401	0.107317	0.570021
	C211	C	0.880722	0.914603	0.388767
	C212	C	0.567314	0.106178	0.881428
	C213	C	0.383950	0.105949	0.076290
	C214	C	0.564669	0.915311	0.074028
	C215	C	0.386440	0.914989	0.882928
	Zn216	Zn	0.475931	0.008971	0.728694
	Zn217	Zn	0.475205	0.008940	0.229324
	Zn218	Zn	0.726720	0.509084	-0.021044
	Zn219	Zn	0.225584	0.511407	-0.021032
	Zn220	Zn	-0.023438	0.759607	0.479306
	Zn221	Zn	-0.024019	0.259702	0.478692
	Zn222	Zn	-0.024290	0.510658	0.728908
	Zn223	Zn	-0.022832	0.509933	0.228463
	Zn224	Zn	0.476092	0.760077	-0.021799
	Zn225	Zn	0.475433	0.258874	-0.020702
	Zn226	Zn	0.725376	0.009560	0.478745
	Zn227	Zn	0.226459	0.007947	0.480075
	N228	N	0.388596	0.972940	0.660190
	N229	N	0.562026	0.044257	0.657883
	N230	N	0.563984	0.974743	0.297322
	N231	N	0.388443	0.043130	0.299549
	N232	N	0.657203	0.421262	0.944884
	N233	N	0.656386	0.595886	0.014920
	N234	N	0.295278	0.597861	0.943238
	N235	N	0.296153	0.424090	0.015037
	N236	N	0.941129	0.689340	0.392271
	N237	N	0.012260	0.690140	0.566141
	N238	N	0.940603	0.330875	0.564343
	N239	N	0.011807	0.329905	0.392616
	N240	N	0.941096	0.423219	0.658741
	N241	N	0.011571	0.597117	0.659393
	N242	N	0.941254	0.596272	0.298819
	N243	N	0.012216	0.422222	0.298381
	N244	N	0.389903	0.689776	0.942371
	N245	N	0.563446	0.690144	0.014117
	N246	N	0.561429	0.330380	0.944048
	N247	N	0.389718	0.330547	0.015022
	N248	N	0.656655	0.974648	0.391052
	N249	N	0.653316	0.045581	0.563331
	N250	N	0.294831	0.973018	0.567928
	N251	N	0.298065	0.044266	0.395190
	N252	N	0.890780	0.473910	0.158192
	N253	N	0.064425	0.545691	0.160179
	N254	N	0.062173	0.475519	0.800019
	N255	N	0.887143	0.544710	0.796955
	N256	N	0.157979	0.920203	0.445496
	N257	N	0.155837	0.095054	0.514261
	N258	N	0.793774	0.098133	0.444427
	N259	N	0.794998	0.922134	0.513316
	N260	N	0.440783	0.189312	0.892227
	N261	N	0.510366	0.188577	0.065539
	N262	N	0.440135	0.829187	0.065563
	N263	N	0.511853	0.829871	0.892296
	N264	N	0.440955	0.920339	0.161085
	N265	N	0.509621	0.097027	0.160188
	N266	N	0.441232	0.096642	0.798011
	N267	N	0.511275	0.921552	0.797604
	N268	N	0.889629	0.189280	0.443162
	N269	N	0.063342	0.189634	0.513233
	N270	N	0.062842	0.829544	0.444046
	N271	N	0.888961	0.829090	0.513352
	N272	N	0.154618	0.475321	0.893909
	N273	N	0.158191	0.545583	0.068148
	N274	N	0.798038	0.473592	0.064549
	N275	N	0.794953	0.544583	0.891043
	O276	O	0.960264	1.204842	0.010002
	H277	H	0.958301	1.201740	0.005747
	H278	H	0.971363	1.210472	0.010523
	O279	O	0.192704	0.063979	1.191561
	H280	H	0.185843	0.052311	1.184288
	H281	H	0.212980	0.064944	1.209717
	O282	O	-0.051622	-0.046512	0.796888
	H283	H	-0.074227	-0.045757	0.795953
	H284	H	-0.032044	-0.044613	0.801184
	O285	O	0.666127	0.427924	0.674342
	H286	H	0.664353	0.435036	0.664351
	H287	H	0.663434	0.457852	0.663248
	O288	O	1.405414	-0.504184	1.557865
	H289	H	1.418604	-0.525614	1.561398
	H290	H	1.376371	-0.503854	1.566509
	O291	O	0.910100	0.012515	0.111775
	H292	H	0.910589	0.005650	0.128882
	H293	H	0.908131	0.012339	0.098133
	O294	O	0.528901	0.578695	0.330002
	H295	H	0.555112	0.579108	0.333268
	H296	H	0.525441	0.573670	0.332569
	O297	O	0.514154	-0.390609	-0.328672
	H298	H	0.509205	-0.394682	-0.339712
	H299	H	0.517391	-0.369803	-0.319761
	O300	O	0.196122	0.231109	0.015459
	H301	H	0.210279	0.241375	0.045418
	H302	H	0.208740	0.244256	0.036561
	O303	O	-0.245596	-0.212790	0.008147
	H304	H	-0.263514	-0.229721	0.033791
	H305	H	-0.251152	-0.219724	0.036241
	O306	O	1.196714	0.231284	-0.239238
	H307	H	1.172968	0.229294	-0.236656
	H308	H	1.186838	0.199220	-0.222194
	O309	O	-0.247893	0.952673	-0.070040
	H310	H	-0.239916	0.961370	-0.064397
	H311	H	-0.253318	0.919662	-0.055439
	O312	O	0.455353	0.422036	0.356613
	H313	H	0.457090	0.440113	0.362842
	H314	H	0.474725	0.407739	0.361126
	O315	O	0.601011	0.618885	0.690294
	H316	H	0.629361	0.632710	0.705058
	H317	H	0.600781	0.640251	0.686066
	O318	O	0.899717	0.791840	-0.104788
	H319	H	0.905984	0.787837	-0.070824
	H320	H	0.885760	0.801250	-0.096955
	O321	O	-0.231131	1.080263	1.037723
	H322	H	-0.237504	1.111514	1.014760
	H323	H	-0.229686	1.061286	1.020188
	O324	O	0.751551	0.045267	0.754295
	H325	H	0.741803	0.053515	0.753611
	H326	H	0.732066	0.054450	0.748168
	O327	O	0.159579	1.218973	1.187981
	H328	H	0.158470	1.234720	1.214545
	H329	H	0.161402	1.203241	1.198666
	O330	O	0.523541	0.718749	0.452402
	H331	H	0.511413	0.714065	0.454289
	H332	H	0.501321	0.703395	0.454690
	O333	O	0.448198	1.726425	1.262539
	H334	H	0.444985	1.715681	1.265116
	H335	H	0.450152	1.753223	1.243951
	O336	O	0.497501	0.333813	0.302610
	H337	H	0.509471	0.333773	0.311021
	H338	H	0.505052	0.314509	0.306529
	O339	O	0.260283	0.434282	0.640285
	H340	H	0.248123	0.407819	0.647386
	H341	H	0.262190	0.437397	0.659715
	O342	O	0.024331	1.072100	-0.248523
	H343	H	0.040516	1.069361	-0.251053
	H344	H	0.014043	1.059176	-0.232925
	O345	O	0.261981	0.554690	0.547025
	H346	H	0.267149	0.571880	0.563002
	H347	H	0.255128	0.567093	0.561434
	O348	O	0.681231	0.408328	0.488284
	H349	H	0.685973	0.386566	0.478428
	H350	H	0.686626	0.413473	0.482475
	O351	O	0.268664	-0.277343	1.454224
	H352	H	0.254623	-0.261548	1.435229
	H353	H	0.275899	-0.266988	1.453118
	O354	O	0.751307	0.228127	0.945573
	H355	H	0.738700	0.243224	0.913887
	H356	H	0.748902	0.243063	0.924935
	O357	O	0.372856	0.717316	0.568497
	H358	H	0.361567	0.724487	0.565184
	H359	H	0.387803	0.698015	0.571219
	O360	O	1.651709	0.635328	1.325772
	H361	H	1.641274	0.614986	1.344037
	H362	H	1.636090	0.652169	1.340755
	O363	O	0.976074	1.026841	0.141328
	H364	H	0.966202	1.024770	0.142768
	H365	H	0.978551	1.047891	0.126006
	O366	O	0.955400	1.097533	0.972985
	H367	H	0.956067	1.088136	0.964901
	H368	H	0.949800	1.084128	0.996032
	O369	O	0.192530	-0.104776	1.090678
	H370	H	0.209937	-0.132995	1.096155
	H371	H	0.181801	-0.093815	1.105652
	O372	O	0.289300	0.501592	1.428266
	H373	H	0.283181	0.524107	1.433074
	H374	H	0.285148	0.504743	1.439701
	O375	O	1.438218	-0.654297	0.395680
	H376	H	1.429149	-0.647276	0.399005
	H377	H	1.438238	-0.670094	0.413795
	O378	O	0.439910	0.317200	0.696001
	H379	H	0.428206	0.326334	0.705949
	H380	H	0.436478	0.310824	0.712290
	O381	O	0.478844	0.535452	0.644158
	H382	H	0.504340	0.540689	0.635362
	H383	H	0.472083	0.544055	0.646315
	O384	O	0.678687	0.501923	0.345947
	H385	H	0.684528	0.492560	0.345894
	H386	H	0.685968	0.498795	0.342542
	O387	O	0.004782	1.205444	1.203008
	H388	H	-0.003422	1.202221	1.205819
	H389	H	0.017518	1.221519	1.223870
	O390	O	-0.192286	1.010123	1.198191
	H391	H	-0.205309	1.003029	1.193789
	H392	H	-0.200078	1.013761	1.192563
	O393	O	1.021985	-0.031605	0.005350
	H394	H	1.025955	-0.020988	-0.003936
	H395	H	1.027272	-0.039559	0.003478
	O396	O	0.578575	0.529875	0.452542
	H397	H	0.584441	0.516235	0.443217
	H398	H	0.575340	0.521519	0.460297
	O399	O	0.505191	0.464072	0.526157
	H400	H	0.489307	0.466196	0.517972
	H401	H	0.522834	0.465724	0.534637
	O402	O	1.073511	-0.082428	1.166087
	H403	H	1.082586	-0.076436	1.166447
	H404	H	1.065254	-0.066270	1.156342
	O405	O	0.935256	0.228496	0.756325
	H406	H	0.927925	0.240730	0.739495
	H407	H	0.953545	0.222997	0.747685
	O408	O	1.006930	0.797426	1.013935
	H409	H	1.023370	0.810504	1.012407
	H410	H	1.004365	0.794787	1.019299
	O411	O	1.179657	0.991349	-0.227723
	H412	H	1.185823	0.979938	-0.212282
	H413	H	1.181064	0.989562	-0.239743
	O414	O	-0.065121	0.057180	0.016500
	H415	H	-0.058255	0.059887	0.011340
	H416	H	-0.063682	0.050676	0.037880
	O417	O	0.963646	0.097908	-0.024193
	H418	H	0.962328	0.103221	-0.031981
	H419	H	0.971962	0.099839	-0.022624
	O420	O	1.266390	-0.285201	1.278769
	H421	H	1.254436	-0.328692	1.276022
	H422	H	1.295190	-0.276288	1.285054
	O423	O	1.008417	0.796696	-0.231688
	H424	H	0.987523	0.785142	-0.231917
	H425	H	0.990799	0.787987	-0.232269
	O426	O	0.376086	0.384228	0.293196
	H427	H	0.393727	0.387746	0.297678
	H428	H	0.385530	0.397501	0.312135
	O429	O	0.676181	0.308571	0.525230
	H430	H	0.661802	0.298447	0.512483
	H431	H	0.673848	0.320986	0.510333
	O432	O	1.196058	-0.209465	0.954212
	H433	H	1.212619	-0.231775	0.946292
	H434	H	1.189299	-0.213419	0.941386
	O435	O	0.268930	0.307673	0.633120
	H436	H	0.271826	0.316618	0.621049
	H437	H	0.248809	0.289714	0.648507
	O438	O	0.777643	0.810417	0.175836
	H439	H	0.819946	0.806609	0.187264
	H440	H	0.760475	0.822048	0.197948
	O441	O	0.691852	0.378487	0.265840
	H442	H	0.690086	0.378290	0.278612
	H443	H	0.722750	0.355958	0.233410
	O444	O	0.687398	0.720014	0.504742
	H445	H	0.674918	0.736873	0.498420
	H446	H	0.696013	0.728287	0.513549
	O447	O	0.164523	0.830465	0.799285
	H448	H	0.152345	0.834628	0.815821
	H449	H	0.129778	0.835197	0.786253
	O450	O	1.194376	0.030961	-0.017575
	H451	H	1.198983	0.009565	-0.008567
	H452	H	1.194584	0.046982	-0.022012
	O453	O	0.284338	0.538354	0.285712
	H454	H	0.306904	0.518199	0.288046
	H455	H	0.275023	0.528398	0.266194
	O456	O	-0.234300	1.214244	0.772052
	H457	H	-0.225602	1.223105	0.755953
	H458	H	-0.234311	1.215834	0.753091
	O459	O	0.669490	0.693186	0.668146
	H460	H	0.664458	0.719450	0.691750
	H461	H	0.668815	0.696989	0.635735
	O462	O	0.816628	-0.124718	0.792232
	H463	H	0.822457	-0.100813	0.807520
	H464	H	0.819994	-0.106747	0.802664
	O465	O	0.464851	0.348790	0.566662
	H466	H	0.469862	0.349563	0.576793
	H467	H	0.445142	0.348738	0.580829
	O468	O	-0.045625	0.822002	0.188419
	H469	H	-0.023273	0.832660	0.186888
	H470	H	-0.033208	0.810151	0.202197
	O471	O	0.751947	0.232898	0.201100
	H472	H	0.772489	0.205576	0.179081
	H473	H	0.738077	0.220807	0.179222
	O474	O	1.094844	1.158571	-0.094838
	H475	H	1.081721	1.161049	-0.105842
	H476	H	1.098023	1.159638	-0.086987
	O477	O	0.318168	0.342162	0.418709
	H478	H	0.313425	0.346492	0.424905
	H479	H	0.334884	0.342240	0.426891
