data_Molecule from HDF5

_cell_length_a		16.329831
_cell_length_b		16.335441
_cell_length_c		16.272411
_cell_angle_alpha	90.710605
_cell_angle_beta	90.433817
_cell_angle_gamma	90.201901
_symmetry_space_group_name_H-M	'P 1'
_symmetry_Int_Tables_number		1

loop_
	_symmetry_equiv_pos_as_xyz
	x,y,z

loop_
	_atom_site_label
	_atom_site_type_symbol
	_atom_site_fract_x
	_atom_site_fract_y
	_atom_site_fract_z
	H0	H	0.385087	0.842435	0.710885
	H1	H	0.588970	0.165781	0.721293
	H2	H	0.582367	0.843721	0.280573
	H3	H	0.379902	0.167624	0.282266
	H4	H	0.699907	0.405721	0.837291
	H5	H	0.702880	0.611698	0.163812
	H6	H	0.265285	0.606618	0.838697
	H7	H	0.268735	0.405193	0.162064
	H8	H	0.822860	0.719969	0.401099
	H9	H	0.145738	0.726225	0.608735
	H10	H	0.823307	0.285532	0.604465
	H11	H	0.145382	0.285232	0.399324
	H12	H	0.821027	0.407768	0.714673
	H13	H	0.145145	0.609448	0.722574
	H14	H	0.824018	0.605188	0.282084
	H15	H	0.146534	0.400145	0.283284
	H16	H	0.384903	0.717633	0.835535
	H17	H	0.588090	0.728604	0.161287
	H18	H	0.587198	0.286433	0.838184
	H19	H	0.383833	0.289556	0.161133
	H20	H	0.700055	0.842500	0.396078
	H21	H	0.704568	0.165970	0.605685
	H22	H	0.266381	0.844565	0.598717
	H23	H	0.262802	0.166269	0.396239
	H24	H	0.886590	0.341291	0.210670
	H25	H	0.087822	0.666358	0.221560
	H26	H	0.082129	0.344045	0.783505
	H27	H	0.884314	0.668790	0.787222
	H28	H	0.196933	0.903568	0.336402
	H29	H	0.203256	0.108811	0.662291
	H30	H	0.767108	0.102537	0.338128
	H31	H	0.768223	0.906349	0.663445
	H32	H	0.323652	0.221789	0.896862
	H33	H	0.647547	0.224121	0.103419
	H34	H	0.322817	0.788280	0.097492
	H35	H	0.647436	0.789217	0.899496
	H36	H	0.320542	0.906667	0.212000
	H37	H	0.646051	0.109101	0.220659
	H38	H	0.322534	0.103000	0.783261
	H39	H	0.647631	0.905288	0.783737
	H40	H	0.882188	0.219072	0.337736
	H41	H	0.087783	0.225670	0.663556
	H42	H	0.082224	0.785652	0.339680
	H43	H	0.885923	0.793122	0.665524
	H44	H	0.201018	0.343809	0.897317
	H45	H	0.203986	0.667552	0.105076
	H46	H	0.765515	0.344983	0.100800
	H47	H	0.770708	0.669542	0.904680
	H48	H	0.397050	0.119709	0.590848
	H49	H	0.567529	0.891384	0.592014
	H50	H	0.583903	0.120969	0.415340
	H51	H	0.395638	0.890972	0.402475
	H52	H	0.575438	0.418384	0.114749
	H53	H	0.579812	0.597530	0.883988
	H54	H	0.393845	0.601571	0.116361
	H55	H	0.390074	0.419471	0.885576
	H56	H	0.099365	0.601212	0.418295
	H57	H	0.866423	0.590503	0.609220
	H58	H	0.100707	0.409164	0.591100
	H59	H	0.870388	0.416010	0.404834
	H60	H	0.095998	0.419376	0.586976
	H61	H	0.863951	0.615738	0.593379
	H62	H	0.097025	0.588902	0.417010
	H63	H	0.867933	0.408440	0.405560
	H64	H	0.395113	0.595030	0.115156
	H65	H	0.576537	0.594168	0.885038
	H66	H	0.575795	0.415687	0.115208
	H67	H	0.399754	0.413884	0.886140
	H68	H	0.573553	0.122018	0.402912
	H69	H	0.578102	0.891762	0.580757
	H70	H	0.392563	0.120396	0.589999
	H71	H	0.391922	0.892568	0.410370
	H72	H	0.895668	0.620456	0.093799
	H73	H	0.077058	0.389062	0.095199
	H74	H	0.075101	0.622118	0.907760
	H75	H	0.885496	0.390884	0.912921
	H76	H	0.075047	0.911354	0.618309
	H77	H	0.081919	0.097293	0.382435
	H78	H	0.901813	0.094576	0.612984
	H79	H	0.891870	0.908700	0.384747
	H80	H	0.600827	0.097886	0.911032
	H81	H	0.372695	0.091477	0.090300
	H82	H	0.596319	0.923565	0.089685
	H83	H	0.366357	0.908442	0.900209
	H84	H	0.601217	0.915878	0.095052
	H85	H	0.366690	0.101887	0.096292
	H86	H	0.599431	0.095058	0.912245
	H87	H	0.369890	0.908525	0.906218
	H88	H	0.893879	0.103925	0.619093
	H89	H	0.070771	0.086109	0.388911
	H90	H	0.084404	0.917523	0.618317
	H91	H	0.889895	0.911936	0.384725
	H92	H	0.072918	0.619442	0.916637
	H93	H	0.075680	0.392114	0.087294
	H94	H	0.894625	0.620585	0.093705
	H95	H	0.889094	0.387651	0.899932
	H96	H	0.393951	0.121825	0.594136
	H97	H	0.582043	0.886821	0.595344
	H98	H	0.569349	0.116143	0.417048
	H99	H	0.387114	0.890075	0.404256
	H100	H	0.577351	0.417445	0.115521
	H101	H	0.575130	0.598114	0.884990
	H102	H	0.399830	0.599677	0.113803
	H103	H	0.390526	0.408800	0.882255
	H104	H	0.102014	0.594438	0.407131
	H105	H	0.875315	0.591384	0.580170
	H106	H	0.099612	0.418447	0.598521
	H107	H	0.871764	0.412229	0.411061
	H108	H	0.894644	0.620928	0.094836
	H109	H	0.082899	0.388092	0.089046
	H110	H	0.081554	0.621641	0.915114
	H111	H	0.897909	0.393492	0.909154
	H112	H	0.074743	0.921582	0.614305
	H113	H	0.066219	0.101627	0.385652
	H114	H	0.889277	0.091718	0.616151
	H115	H	0.893518	0.911751	0.385978
	H116	H	0.600033	0.095259	0.908957
	H117	H	0.370677	0.102320	0.083432
	H118	H	0.598009	0.913885	0.084999
	H119	H	0.369658	0.914048	0.902445
	C120	C	0.364093	0.013673	0.619789
	C121	C	0.606903	0.996597	0.621773
	C122	C	0.605033	0.013097	0.379097
	C123	C	0.360814	0.997698	0.376364
	C124	C	0.606379	0.385439	0.008225
	C125	C	0.607651	0.628828	0.991760
	C126	C	0.365043	0.626993	0.007784
	C127	C	0.363886	0.384409	0.991252
	C128	C	-0.007115	0.624855	0.382233
	C129	C	0.975244	0.629354	0.625387
	C130	C	-0.008209	0.385559	0.621631
	C131	C	0.976318	0.381630	0.377620
	C132	C	0.864168	0.513711	0.122333
	C133	C	0.109145	0.496559	0.123461
	C134	C	0.105645	0.514225	0.880884
	C135	C	0.862356	0.498105	0.879413
	C136	C	0.105930	0.884649	0.509475
	C137	C	0.105530	0.127394	0.492425
	C138	C	0.863432	0.125714	0.508930
	C139	C	0.862753	0.883064	0.492659
	C140	C	0.493483	0.125592	0.879313
	C141	C	0.476431	0.129437	0.122482
	C142	C	0.491671	0.886814	0.118820
	C143	C	0.476287	0.881751	0.875096
	C144	C	0.365225	0.891409	0.673915
	C145	C	0.607962	0.117531	0.681836
	C146	C	0.603333	0.891839	0.319761
	C147	C	0.360883	0.119184	0.320186
	C148	C	0.662262	0.385544	0.886182
	C149	C	0.664430	0.630500	0.114586
	C150	C	0.305439	0.625718	0.886476
	C151	C	0.307115	0.385690	0.113189
	C152	C	0.871340	0.681560	0.381545
	C153	C	0.096988	0.687396	0.627323
	C154	C	0.870976	0.326277	0.622376
	C155	C	0.097376	0.324070	0.378962
	C156	C	0.869747	0.386980	0.677258
	C157	C	0.097040	0.629008	0.683610
	C158	C	0.871906	0.624064	0.322653
	C159	C	0.097971	0.381480	0.321438
	C160	C	0.364865	0.680951	0.884907
	C161	C	0.607272	0.688706	0.113225
	C162	C	0.606123	0.326342	0.886506
	C163	C	0.364366	0.327885	0.112745
	C164	C	0.661720	0.891350	0.377348
	C165	C	0.665332	0.117704	0.624175
	C166	C	0.306100	0.892349	0.617882
	C167	C	0.302510	0.118458	0.377162
	C168	C	0.865740	0.390855	0.174887
	C169	C	0.107954	0.618016	0.182527
	C170	C	0.103177	0.392295	0.822456
	C171	C	0.864557	0.620291	0.825032
	C172	C	0.160064	0.883816	0.386158
	C173	C	0.164603	0.128789	0.613781
	C174	C	0.805455	0.123490	0.386861
	C175	C	0.806776	0.886125	0.615165
	C176	C	0.371690	0.182599	0.878270
	C177	C	0.598606	0.185978	0.122995
	C178	C	0.370509	0.828098	0.117297
	C179	C	0.598849	0.826838	0.878325
	C180	C	0.369454	0.887034	0.174217
	C181	C	0.597817	0.128933	0.181407
	C182	C	0.371049	0.123319	0.822007
	C183	C	0.598900	0.884654	0.821017
	C184	C	0.863064	0.181137	0.386597
	C185	C	0.106820	0.186256	0.614574
	C186	C	0.103359	0.825156	0.387722
	C187	C	0.864906	0.829486	0.616108
	C188	C	0.162227	0.392276	0.878995
	C189	C	0.165665	0.618702	0.124560
	C190	C	0.805748	0.392635	0.120125
	C191	C	0.807223	0.620432	0.882667
	C192	C	0.387703	0.098535	0.598004
	C193	C	0.582828	0.911876	0.596589
	C194	C	0.582248	0.097664	0.404441
	C195	C	0.384743	0.913102	0.398899
	C196	C	0.582972	0.409932	0.093265
	C197	C	0.584130	0.603839	0.906615
	C198	C	0.389305	0.605332	0.092883
	C199	C	0.386793	0.407230	0.906666
	C200	C	0.077430	0.601832	0.406986
	C201	C	0.890545	0.606023	0.601203
	C202	C	0.076706	0.408976	0.598717
	C203	C	0.891758	0.405292	0.400626
	C204	C	0.888111	0.598692	0.100663
	C205	C	0.085480	0.411856	0.098167
	C206	C	0.083057	0.598888	0.905675
	C207	C	0.884410	0.412783	0.901023
	C208	C	0.084356	0.909469	0.594833
	C209	C	0.080350	0.102322	0.407603
	C210	C	0.887937	0.103381	0.593907
	C211	C	0.885251	0.904381	0.407249
	C212	C	0.577988	0.102691	0.903499
	C213	C	0.391870	0.105566	0.097481
	C214	C	0.576501	0.910889	0.096508
	C215	C	0.390879	0.903824	0.896642
	Zn216	Zn	0.485287	0.004788	0.749064
	Zn217	Zn	0.483719	0.006181	0.249468
	Zn218	Zn	0.734833	0.506778	0.001205
	Zn219	Zn	0.236411	0.506370	0.000480
	Zn220	Zn	-0.015421	0.755725	0.503178
	Zn221	Zn	-0.016038	0.255510	0.501086
	Zn222	Zn	-0.016087	0.506238	0.751468
	Zn223	Zn	-0.014291	0.503746	0.250548
	Zn224	Zn	0.484839	0.756249	-0.001402
	Zn225	Zn	0.485536	0.256438	-0.000567
	Zn226	Zn	0.734640	0.004126	0.500738
	Zn227	Zn	0.234345	0.006177	0.499226
	N228	N	0.400724	0.967953	0.675428
	N229	N	0.572312	0.041052	0.680412
	N230	N	0.568890	0.968494	0.320731
	N231	N	0.396549	0.043012	0.319698
	N232	N	0.662463	0.421719	0.962962
	N233	N	0.664835	0.593939	0.038048
	N234	N	0.305491	0.592978	0.963807
	N235	N	0.306755	0.420323	0.036681
	N236	N	0.947459	0.681988	0.418128
	N237	N	0.020314	0.687730	0.591798
	N238	N	0.947742	0.325676	0.588145
	N239	N	0.020858	0.324150	0.413494
	N240	N	0.946018	0.423044	0.676805
	N241	N	0.020573	0.593696	0.682843
	N242	N	0.948500	0.589299	0.323076
	N243	N	0.021608	0.416741	0.320547
	N244	N	0.401392	0.681935	0.961374
	N245	N	0.572828	0.687903	0.035811
	N246	N	0.571986	0.326343	0.963542
	N247	N	0.399027	0.326913	0.036083
	N248	N	0.662906	0.967943	0.413473
	N249	N	0.664709	0.041567	0.587584
	N250	N	0.305479	0.969285	0.584898
	N251	N	0.302192	0.041904	0.411105
	N252	N	0.901175	0.467298	0.176457
	N253	N	0.073688	0.540959	0.181965
	N254	N	0.068673	0.469071	0.823467
	N255	N	0.897766	0.543215	0.822651
	N256	N	0.161919	0.919919	0.463127
	N257	N	0.163842	0.093022	0.536767
	N258	N	0.805545	0.089859	0.463811
	N259	N	0.805234	0.918538	0.537460
	N260	N	0.448612	0.183987	0.913330
	N261	N	0.522011	0.186490	0.087158
	N262	N	0.447356	0.828123	0.083395
	N263	N	0.521537	0.824909	0.911179
	N264	N	0.445734	0.922987	0.174949
	N265	N	0.520745	0.094905	0.181641
	N266	N	0.447595	0.088414	0.822528
	N267	N	0.521737	0.917698	0.818742
	N268	N	0.898404	0.182863	0.463705
	N269	N	0.070985	0.185721	0.537851
	N270	N	0.070634	0.825436	0.465268
	N271	N	0.899291	0.827559	0.539108
	N272	N	0.163739	0.469007	0.914764
	N273	N	0.166789	0.542029	0.088831
	N274	N	0.804503	0.470220	0.088191
	N275	N	0.805962	0.543459	0.916105
	O276	O	0.981351	0.118297	1.013237
	H277	H	0.974745	0.124689	1.006743
	H278	H	0.969671	0.123958	1.018110
	O279	O	0.546580	0.625126	0.362757
	H280	H	0.539634	0.626404	0.366037
	H281	H	0.544361	0.633539	0.374624
	O282	O	0.628566	0.463606	0.517495
	H283	H	0.623735	0.454840	0.509279
	H284	H	0.636135	0.453109	0.505551
	O285	O	0.314902	0.461034	0.396019
	H286	H	0.325060	0.471103	0.404562
	H287	H	0.314618	0.476309	0.371306
	O288	O	0.648675	0.615443	0.565270
	H289	H	0.648090	0.600361	0.561502
	H290	H	0.664051	0.610516	0.585965
	O291	O	-0.082914	-0.081592	1.095747
	H292	H	-0.083633	-0.086641	1.100864
	H293	H	-0.076997	-0.075789	1.100874
	O294	O	0.943603	0.930651	-0.008078
	H295	H	0.936424	0.926385	-0.005244
	H296	H	0.965401	0.925743	-0.017381
	O297	O	1.050671	0.938951	0.029619
	H298	H	1.037135	0.925307	0.032800
	H299	H	1.050918	0.939038	0.038666
	O300	O	0.515715	0.345366	0.464571
	H301	H	0.503370	0.332834	0.442426
	H302	H	0.498326	0.347529	0.483555
	O303	O	0.316196	0.327922	0.628600
	H304	H	0.307674	0.325170	0.604173
	H305	H	0.306464	0.342081	0.620890
	O306	O	0.429041	0.596611	0.601073
	H307	H	0.425745	0.612219	0.620519
	H308	H	0.437844	0.594885	0.600866
	O309	O	0.385808	0.418270	0.487979
	H310	H	0.386761	0.441032	0.474092
	H311	H	0.379638	0.413388	0.484457
	O312	O	1.598680	1.390407	0.552561
	H313	H	1.606782	1.384676	0.545898
	H314	H	1.584056	1.382337	0.550678
	O315	O	0.940789	0.994133	0.059143
	H316	H	0.936358	0.994029	0.049958
	H317	H	0.933580	0.999624	0.064269
	O318	O	0.334414	0.609545	0.314348
	H319	H	0.330037	0.624783	0.308512
	H320	H	0.332306	0.604587	0.306854
	O321	O	0.477544	0.353022	0.460311
	H322	H	0.467916	0.354593	0.469757
	H323	H	0.478771	0.361523	0.451363
	O324	O	0.038924	0.956138	0.928780
	H325	H	0.044853	0.968658	0.927128
	H326	H	0.045548	0.956969	0.923230
	O327	O	-0.270191	0.783290	1.239939
	H328	H	-0.263531	0.783023	1.241808
	H329	H	-0.273347	0.778440	1.241949
	O330	O	-0.027062	-0.030183	0.009510
	H331	H	-0.036521	-0.038314	0.012870
	H332	H	-0.025019	-0.039515	-0.001593
	O333	O	0.515813	0.650835	0.601657
	H334	H	0.517949	0.640123	0.620353
	H335	H	0.516540	0.662646	0.606953
	O336	O	-0.040001	0.071123	-0.104849
	H337	H	-0.044526	0.067357	-0.103487
	H338	H	-0.036626	0.074073	-0.114343
	O339	O	0.323688	0.694791	-0.614254
	H340	H	0.326219	0.700317	-0.608300
	H341	H	0.326301	0.691579	-0.608783
	O342	O	0.638002	0.593173	0.449751
	H343	H	0.634577	0.609037	0.461302
	H344	H	0.648941	0.574996	0.452078
	O345	O	0.354088	0.719488	0.776329
	H346	H	0.368710	0.720781	0.781555
	H347	H	0.354467	0.729871	0.774210
	O348	O	0.408084	0.404260	0.619096
	H349	H	0.392975	0.405824	0.612706
	H350	H	0.415000	0.403540	0.615737
	O351	O	0.381563	0.554714	0.408962
	H352	H	0.368567	0.564898	0.390090
	H353	H	0.387165	0.566075	0.412161
	O354	O	0.036334	1.046443	-0.033351
	H355	H	0.027501	1.045428	-0.032816
	H356	H	0.040017	1.050807	-0.033764
	O357	O	0.481019	0.411197	0.632408
	H358	H	0.468294	0.413281	0.621787
	H359	H	0.466918	0.400044	0.640421
	O360	O	0.934189	0.012734	1.080621
	H361	H	0.935454	0.006386	1.083451
	H362	H	0.926306	0.004703	1.086277
	O363	O	0.570447	0.693815	0.556125
	H364	H	0.572413	0.691656	0.558448
	H365	H	0.574302	0.695654	0.582811
	O366	O	0.630902	0.379423	0.292460
	H367	H	0.644345	0.363882	0.261759
	H368	H	0.644690	0.372222	0.304930
	O369	O	1.010719	0.071434	0.114371
	H370	H	1.015615	0.074234	0.111765
	H371	H	1.021678	0.071447	0.118430
	O372	O	0.550917	0.504917	0.660830
	H373	H	0.534304	0.481241	0.662638
	H374	H	0.565018	0.513438	0.672784
	O375	O	1.029949	0.007401	1.009393
	H376	H	1.034558	0.014506	1.005086
	H377	H	1.024762	0.008058	1.006245
	O378	O	0.443292	0.614619	0.579428
	H379	H	0.449094	0.621254	0.580059
	H380	H	0.448847	0.589133	0.574944
	O381	O	0.653559	0.318208	0.440965
	H382	H	0.658580	0.304241	0.454265
	H383	H	0.628860	0.314852	0.443011
	O384	O	1.324799	0.537890	0.500475
	H385	H	1.319989	0.547998	0.492013
	H386	H	1.339712	0.541182	0.473611
	O387	O	0.991814	0.014654	0.965501
	H388	H	0.994199	0.016074	0.965090
	H389	H	0.988880	0.027704	0.964913
	O390	O	0.941984	0.977448	0.027882
	H391	H	0.955975	0.970365	0.019729
	H392	H	0.936028	0.978859	0.021939
	O393	O	0.527221	0.443427	0.307740
	H394	H	0.546244	0.448357	0.322446
	H395	H	0.531059	0.444523	0.299213
