data_Molecule from HDF5

_cell_length_a		16.558418
_cell_length_b		16.694454
_cell_length_c		16.689349
_cell_angle_alpha	89.969043
_cell_angle_beta	90.014131
_cell_angle_gamma	90.063252
_symmetry_space_group_name_H-M	'P 1'
_symmetry_Int_Tables_number		1

loop_
	_symmetry_equiv_pos_as_xyz
	x,y,z

loop_
	_atom_site_label
	_atom_site_type_symbol
	_atom_site_fract_x
	_atom_site_fract_y
	_atom_site_fract_z
	H0	H	0.380919	0.849714	0.728803
	H1	H	0.595854	0.156581	0.732822
	H2	H	0.590177	0.848336	0.286903
	H3	H	0.376860	0.157267	0.283330
	H4	H	0.714342	0.391071	0.858416
	H5	H	0.706184	0.608865	0.161396
	H6	H	0.266073	0.606903	0.850663
	H7	H	0.260829	0.397245	0.160412
	H8	H	0.830756	0.725828	0.401401
	H9	H	0.142403	0.721545	0.610991
	H10	H	0.830837	0.281201	0.613643
	H11	H	0.143064	0.284582	0.403139
	H12	H	0.831183	0.395725	0.730652
	H13	H	0.142278	0.605028	0.725359
	H14	H	0.832054	0.611983	0.284332
	H15	H	0.143318	0.401520	0.288926
	H16	H	0.379994	0.725244	0.852129
	H17	H	0.590199	0.725352	0.161440
	H18	H	0.598998	0.274432	0.857839
	H19	H	0.374330	0.278500	0.159418
	H20	H	0.707058	0.849634	0.402232
	H21	H	0.710820	0.157230	0.615678
	H22	H	0.266064	0.848235	0.611029
	H23	H	0.264518	0.159115	0.402539
	H24	H	0.875658	0.353011	0.234669
	H25	H	0.093759	0.658115	0.229776
	H26	H	0.093692	0.349727	0.783652
	H27	H	0.877444	0.656178	0.783483
	H28	H	0.205509	0.900206	0.353024
	H29	H	0.208504	0.109473	0.661748
	H30	H	0.765697	0.107679	0.352230
	H31	H	0.764046	0.898907	0.662716
	H32	H	0.332686	0.229550	0.897425
	H33	H	0.636367	0.231777	0.119592
	H34	H	0.327274	0.787209	0.106842
	H35	H	0.641515	0.783377	0.901894
	H36	H	0.327648	0.902144	0.223737
	H37	H	0.638120	0.112595	0.232585
	H38	H	0.332632	0.113776	0.781808
	H39	H	0.642146	0.900372	0.787579
	H40	H	0.879174	0.227050	0.353321
	H41	H	0.094397	0.227811	0.660903
	H42	H	0.091511	0.781943	0.354279
	H43	H	0.880749	0.783879	0.663091
	H44	H	0.208501	0.350019	0.900866
	H45	H	0.205545	0.659819	0.109314
	H46	H	0.757203	0.355069	0.121763
	H47	H	0.761559	0.656037	0.899599
	H48	H	0.399672	0.112002	0.589718
	H49	H	0.575945	0.892088	0.599183
	H50	H	0.576310	0.115251	0.418609
	H51	H	0.400083	0.894881	0.417515
	H52	H	0.566776	0.423257	0.113319
	H53	H	0.574909	0.593477	0.895583
	H54	H	0.400129	0.594579	0.116980
	H55	H	0.398821	0.417824	0.898183
	H56	H	0.098091	0.592003	0.417805
	H57	H	0.874677	0.589792	0.592857
	H58	H	0.096347	0.418060	0.595773
	H59	H	0.874543	0.414167	0.421078
	H60	H	0.099072	0.415461	0.597518
	H61	H	0.871541	0.591610	0.601210
	H62	H	0.098902	0.595416	0.420301
	H63	H	0.876208	0.417939	0.422650
	H64	H	0.392654	0.600987	0.121478
	H65	H	0.572772	0.591677	0.896949
	H66	H	0.564988	0.415645	0.115967
	H67	H	0.400940	0.416075	0.897702
	H68	H	0.571453	0.113944	0.416402
	H69	H	0.570419	0.895072	0.597527
	H70	H	0.392289	0.117025	0.596485
	H71	H	0.391522	0.891663	0.420582
	H72	H	0.897513	0.613899	0.092135
	H73	H	0.070424	0.392321	0.102802
	H74	H	0.073197	0.616919	0.911034
	H75	H	0.898019	0.394066	0.923742
	H76	H	0.081493	0.913136	0.622836
	H77	H	0.069041	0.089821	0.399357
	H78	H	0.904262	0.090702	0.614795
	H79	H	0.886678	0.917074	0.394139
	H80	H	0.593391	0.088337	0.925448
	H81	H	0.373174	0.094147	0.093780
	H82	H	0.599360	0.915456	0.102648
	H83	H	0.372251	0.911130	0.917338
	H84	H	0.599907	0.909528	0.097398
	H85	H	0.376123	0.088203	0.090028
	H86	H	0.594196	0.086448	0.922502
	H87	H	0.374044	0.915962	0.920825
	H88	H	0.898196	0.099465	0.620134
	H89	H	0.072119	0.098522	0.396146
	H90	H	0.073302	0.917624	0.618372
	H91	H	0.904139	0.922517	0.401797
	H92	H	0.069133	0.612556	0.919538
	H93	H	0.069976	0.395742	0.092814
	H94	H	0.897419	0.616089	0.097602
	H95	H	0.899930	0.392729	0.918986
	H96	H	0.402740	0.114256	0.600195
	H97	H	0.574960	0.894221	0.592871
	H98	H	0.572235	0.112949	0.421860
	H99	H	0.393899	0.890777	0.411610
	H100	H	0.572410	0.419135	0.117599
	H101	H	0.571873	0.594617	0.895554
	H102	H	0.390397	0.591017	0.118191
	H103	H	0.397827	0.415714	0.896576
	H104	H	0.097031	0.592183	0.421643
	H105	H	0.871630	0.598292	0.595047
	H106	H	0.097131	0.414214	0.594516
	H107	H	0.874685	0.417472	0.418714
	H108	H	0.902367	0.613742	0.095633
	H109	H	0.079047	0.390942	0.096317
	H110	H	0.079524	0.616089	0.919811
	H111	H	0.903264	0.396059	0.921855
	H112	H	0.072906	0.907634	0.621048
	H113	H	0.078050	0.090883	0.395921
	H114	H	0.893649	0.088349	0.618545
	H115	H	0.901481	0.904317	0.395487
	H116	H	0.594742	0.090310	0.922571
	H117	H	0.373980	0.087795	0.097440
	H118	H	0.596583	0.916020	0.095259
	H119	H	0.373392	0.916101	0.915020
	C120	C	0.365263	0.012375	0.628144
	C121	C	0.607352	0.995586	0.629145
	C122	C	0.606082	0.012162	0.386228
	C123	C	0.363151	0.995188	0.385151
	C124	C	0.605832	0.382547	0.016538
	C125	C	0.605882	0.625310	0.998342
	C126	C	0.363218	0.626247	0.015599
	C127	C	0.364028	0.382856	0.998638
	C128	C	-0.004876	0.626035	0.386656
	C129	C	0.976171	0.624107	0.628189
	C130	C	-0.005335	0.382332	0.628883
	C131	C	0.977920	0.384095	0.387489
	C132	C	0.863973	0.513835	0.130461
	C133	C	0.106943	0.495301	0.128631
	C134	C	0.107180	0.512698	0.884755
	C135	C	0.864946	0.494677	0.886750
	C136	C	0.107018	0.881994	0.517316
	C137	C	0.106754	0.125508	0.499041
	C138	C	0.864814	0.125752	0.515840
	C139	C	0.864694	0.882816	0.499471
	C140	C	0.493739	0.124278	0.887470
	C141	C	0.475966	0.124920	0.128790
	C142	C	0.494181	0.882711	0.128314
	C143	C	0.476520	0.882780	0.885904
	C144	C	0.363008	0.895907	0.688157
	C145	C	0.612787	0.110744	0.691412
	C146	C	0.608539	0.895582	0.326554
	C147	C	0.359876	0.111123	0.324400
	C148	C	0.671848	0.374988	0.903430
	C149	C	0.665888	0.627323	0.115006
	C150	C	0.304836	0.626367	0.897895
	C151	C	0.301249	0.378921	0.113946
	C152	C	0.877856	0.685916	0.383417
	C153	C	0.094923	0.682239	0.629412
	C154	C	0.877614	0.321233	0.631771
	C155	C	0.095829	0.324565	0.385172
	C156	C	0.877785	0.378114	0.689963
	C157	C	0.094791	0.624330	0.686385
	C158	C	0.878538	0.629186	0.325287
	C159	C	0.095967	0.382442	0.328089
	C160	C	0.361661	0.685100	0.898557
	C161	C	0.608430	0.685295	0.114959
	C162	C	0.614343	0.317100	0.903344
	C163	C	0.357986	0.320216	0.113684
	C164	C	0.666589	0.895730	0.384082
	C165	C	0.669929	0.111002	0.633057
	C166	C	0.305597	0.895268	0.629953
	C167	C	0.303503	0.111911	0.383510
	C168	C	0.858305	0.399559	0.193872
	C169	C	0.110851	0.612068	0.188767
	C170	C	0.110856	0.396336	0.824328
	C171	C	0.859592	0.609796	0.823872
	C172	C	0.165931	0.881222	0.399853
	C173	C	0.168042	0.127964	0.615304
	C174	C	0.805089	0.127036	0.398964
	C175	C	0.804388	0.880806	0.616010
	C176	C	0.378636	0.188052	0.880907
	C177	C	0.590977	0.189200	0.135443
	C178	C	0.374887	0.825699	0.126913
	C179	C	0.594652	0.823616	0.883881
	C180	C	0.374933	0.882734	0.184902
	C181	C	0.591794	0.130291	0.191644
	C182	C	0.378719	0.130564	0.823318
	C183	C	0.594806	0.881378	0.826631
	C184	C	0.861498	0.186235	0.399536
	C185	C	0.111404	0.186763	0.614934
	C186	C	0.109414	0.822349	0.400583
	C187	C	0.862397	0.823538	0.616358
	C188	C	0.168196	0.396502	0.882403
	C189	C	0.166803	0.612713	0.129341
	C190	C	0.799786	0.400108	0.137113
	C191	C	0.802188	0.609780	0.881891
	C192	C	0.390926	0.093400	0.602688
	C193	C	0.581044	0.914880	0.603655
	C194	C	0.580543	0.093010	0.411621
	C195	C	0.387999	0.913625	0.409788
	C196	C	0.576478	0.411275	0.095166
	C197	C	0.580447	0.600353	0.917175
	C198	C	0.387401	0.602332	0.097576
	C199	C	0.391472	0.409138	0.918493
	C200	C	0.076921	0.600590	0.412559
	C201	C	0.893926	0.600057	0.603580
	C202	C	0.076388	0.408506	0.603209
	C203	C	0.896453	0.409311	0.413175
	C204	C	0.891344	0.593759	0.102757
	C205	C	0.080808	0.414228	0.104073
	C206	C	0.081245	0.593919	0.909599
	C207	C	0.892425	0.415062	0.913940
	C208	C	0.082718	0.905948	0.599489
	C209	C	0.080420	0.100188	0.418175
	C210	C	0.891175	0.100132	0.596802
	C211	C	0.890238	0.907732	0.418315
	C212	C	0.573435	0.096384	0.915568
	C213	C	0.395370	0.097634	0.101445
	C214	C	0.577018	0.906580	0.105223
	C215	C	0.394621	0.907336	0.910740
	Zn216	Zn	0.486032	0.004587	0.757969
	Zn217	Zn	0.485070	0.003618	0.256673
	Zn218	Zn	0.735626	0.503938	0.007873
	Zn219	Zn	0.235243	0.504463	0.006265
	Zn220	Zn	-0.014500	0.753334	0.508307
	Zn221	Zn	-0.013574	0.254578	0.507429
	Zn222	Zn	-0.014928	0.503229	0.757014
	Zn223	Zn	-0.013131	0.505151	0.258375
	Zn224	Zn	0.484855	0.754765	0.006795
	Zn225	Zn	0.484644	0.253406	0.007760
	Zn226	Zn	0.735824	0.003940	0.507392
	Zn227	Zn	0.235272	0.003900	0.507776
	N228	N	0.399355	0.969755	0.687430
	N229	N	0.574475	0.037988	0.688995
	N230	N	0.571702	0.969077	0.327454
	N231	N	0.396243	0.037293	0.325087
	N232	N	0.666849	0.415087	0.974964
	N233	N	0.664623	0.590567	0.041433
	N234	N	0.305635	0.590459	0.971896
	N235	N	0.304916	0.417321	0.041381
	N236	N	0.951561	0.684273	0.420811
	N237	N	0.020031	0.682506	0.593969
	N238	N	0.951532	0.323614	0.594763
	N239	N	0.021273	0.325079	0.421189
	N240	N	0.951657	0.415400	0.688290
	N241	N	0.019908	0.588988	0.685993
	N242	N	0.952639	0.592537	0.327297
	N243	N	0.021437	0.418582	0.328827
	N244	N	0.397105	0.685264	0.972875
	N245	N	0.571931	0.684343	0.041261
	N246	N	0.573953	0.321598	0.974944
	N247	N	0.396500	0.322564	0.040981
	N248	N	0.665392	0.969311	0.420571
	N249	N	0.666898	0.038245	0.594995
	N250	N	0.306596	0.968808	0.593557
	N251	N	0.305085	0.038567	0.420338
	N252	N	0.897693	0.471544	0.189930
	N253	N	0.074689	0.538015	0.188944
	N254	N	0.073593	0.469764	0.825660
	N255	N	0.897782	0.537088	0.826403
	N256	N	0.164786	0.917505	0.473703
	N257	N	0.165208	0.090412	0.542297
	N258	N	0.806638	0.090504	0.472642
	N259	N	0.805615	0.917127	0.542271
	N260	N	0.451263	0.184389	0.920270
	N261	N	0.517894	0.185899	0.096934
	N262	N	0.450307	0.825165	0.092908
	N263	N	0.520105	0.824155	0.920002
	N264	N	0.450295	0.917282	0.186289
	N265	N	0.519093	0.091144	0.187947
	N266	N	0.451198	0.091324	0.827447
	N267	N	0.520352	0.917489	0.827574
	N268	N	0.897913	0.185678	0.473414
	N269	N	0.073708	0.185214	0.541704
	N270	N	0.073871	0.822432	0.474843
	N271	N	0.899062	0.824248	0.542683
	N272	N	0.165820	0.469814	0.919643
	N273	N	0.164833	0.539120	0.092805
	N274	N	0.803202	0.472424	0.098131
	N275	N	0.805143	0.537160	0.920323
	O276	O	0.119567	1.010180	-0.216740
	H277	H	0.118878	1.008304	-0.205350
	H278	H	0.126351	1.028405	-0.221080
	O279	O	0.265632	0.724594	0.471043
	H280	H	0.255917	0.729314	0.445616
	H281	H	0.243465	0.739196	0.450150
	O282	O	0.774003	0.226495	1.001672
	H283	H	0.768963	0.215066	0.975511
	H284	H	0.756673	0.241126	0.989704
	O285	O	0.323566	0.476399	0.479277
	H286	H	0.317872	0.474248	0.459233
	H287	H	0.327281	0.477524	0.477963
	O288	O	-0.072943	0.241547	0.070332
	H289	H	-0.070447	0.241111	0.069173
	H290	H	-0.091976	0.241348	0.069876
	O291	O	0.541154	0.729386	0.451629
	H292	H	0.559532	0.738991	0.473173
	H293	H	0.529262	0.737136	0.445779
	O294	O	1.267966	0.542345	0.286559
	H295	H	1.260039	0.547347	0.269891
	H296	H	1.257092	0.561032	0.273312
	O297	O	0.584411	0.478364	0.459724
	H298	H	0.587490	0.477717	0.462750
	H299	H	0.589011	0.487949	0.470199
	O300	O	0.018218	0.233100	1.231247
	H301	H	0.008545	0.253786	1.234001
	H302	H	0.031724	0.236666	1.245044
	O303	O	0.690924	0.716105	0.714033
	H304	H	0.685550	0.694066	0.700357
	H305	H	0.707725	0.732236	0.732433
	O306	O	0.295760	0.543229	0.618492
	H307	H	0.286693	0.550188	0.604098
	H308	H	0.302733	0.550111	0.613540
	O309	O	0.512603	0.726880	0.729339
	H310	H	0.530586	0.738770	0.733193
	H311	H	0.526909	0.735241	0.739304
	O312	O	1.035241	1.227831	-0.056962
	H313	H	1.041863	1.215939	-0.050546
	H314	H	1.047692	1.226052	-0.049815
	O315	O	0.803229	0.815873	0.820869
	H316	H	0.829528	0.824848	0.831883
	H317	H	0.812936	0.827521	0.825322
	O318	O	0.340873	0.469977	0.669663
	H319	H	0.343229	0.475430	0.658364
	H320	H	0.335223	0.473127	0.687186
	O321	O	0.134879	0.943946	0.879131
	H322	H	0.134331	0.964289	0.870367
	H323	H	0.138129	0.934794	0.862663
	O324	O	0.974098	0.979441	-0.010288
	H325	H	0.970045	0.983191	0.005328
	H326	H	0.983192	0.968917	-0.016808
	O327	O	0.596697	-0.489286	0.350403
	H328	H	0.579529	-0.476581	0.336899
	H329	H	0.600761	-0.485973	0.365030
	O330	O	0.701907	0.281474	0.467862
	H331	H	0.694985	0.280477	0.483916
	H332	H	0.727466	0.272840	0.481539
	O333	O	0.478966	0.503218	0.742615
	H334	H	0.480927	0.500014	0.740640
	H335	H	0.477413	0.506651	0.735439
	O336	O	0.794319	0.197197	0.199831
	H337	H	0.768287	0.223117	0.220788
	H338	H	0.795873	0.194661	0.169285
	O339	O	0.997812	-0.028543	0.915801
	H340	H	1.000423	-0.029860	0.911646
	H341	H	0.996497	-0.030731	0.930739
	O342	O	0.175432	-0.188943	0.201848
	H343	H	0.158054	-0.169611	0.185879
	H344	H	0.151280	-0.172705	0.184167
	O345	O	0.198903	0.787454	0.975260
	H346	H	0.216996	0.773134	0.954914
	H347	H	0.198128	0.782302	0.946439
	O348	O	0.400726	0.283401	0.417284
	H349	H	0.418833	0.288120	0.438276
	H350	H	0.405438	0.270855	0.395303
	O351	O	0.284949	0.363193	0.373865
	H352	H	0.304059	0.360060	0.376757
	H353	H	0.295679	0.369191	0.378078
	O354	O	0.056744	-0.221251	1.065852
	H355	H	0.067934	-0.220731	1.049960
	H356	H	0.044530	-0.226891	1.084090
	O357	O	0.276561	0.711935	0.303071
	H358	H	0.308707	0.726822	0.291238
	H359	H	0.251419	0.724144	0.276013
	O360	O	0.285991	0.295248	0.536433
	H361	H	0.302133	0.281473	0.523838
	H362	H	0.281427	0.300963	0.531256
	O363	O	0.057302	0.035082	0.157446
	H364	H	0.055256	0.044222	0.159354
	H365	H	0.060256	0.056418	0.166258
	O366	O	0.451310	0.714680	0.564201
	H367	H	0.456879	0.712029	0.564299
	H368	H	0.422837	0.715382	0.555937
	O369	O	1.205968	0.177930	0.001558
	H370	H	1.204800	0.172595	0.027295
	H371	H	1.224816	0.187038	0.011156
	O372	O	1.028759	0.814499	-0.184505
	H373	H	1.027216	0.792581	-0.188174
	H374	H	1.048634	0.800286	-0.189093
	O375	O	0.960630	0.221499	-0.211540
	H376	H	0.966569	0.248718	-0.235085
	H377	H	0.979824	0.216283	-0.190303
	O378	O	0.705935	0.497712	0.317990
	H379	H	0.692860	0.466928	0.325623
	H380	H	0.731683	0.492302	0.290801
	O381	O	0.300537	0.694080	0.696975
	H382	H	0.316770	0.670469	0.682357
	H383	H	0.318766	0.677747	0.678668
	O384	O	1.165420	0.189709	0.822704
	H385	H	1.185565	0.210162	0.796713
	H386	H	1.159849	0.176650	0.845229
	O387	O	0.770667	0.781726	0.088020
	H388	H	0.745840	0.769431	0.095232
	H389	H	0.766301	0.784605	0.076319
	O390	O	-0.024891	0.067005	-0.016530
	H391	H	-0.010512	0.062825	-0.014098
	H392	H	-0.027322	0.066045	-0.020085
	O393	O	0.489284	0.440742	0.555585
	H394	H	0.493087	0.436233	0.556377
	H395	H	0.468556	0.453980	0.561542
	O396	O	-0.036441	0.783202	1.228933
	H397	H	-0.042407	0.799594	1.237882
	H398	H	-0.048160	0.767672	1.252588
	O399	O	-0.169212	-0.141894	1.183575
	H400	H	-0.158693	-0.139209	1.169379
	H401	H	-0.176657	-0.133185	1.180483
	O402	O	0.443538	0.731802	0.283548
	H403	H	0.451478	0.738687	0.275456
	H404	H	0.449458	0.738001	0.270128
	O405	O	0.820119	0.085295	0.952627
	H406	H	0.835010	0.078968	0.933074
	H407	H	0.832427	0.079203	0.972765
	O408	O	-0.032311	-0.047826	-0.166754
	H409	H	-0.014806	-0.037145	-0.162285
	H410	H	-0.018760	-0.063430	-0.171939
	O411	O	0.509604	0.467775	0.608536
	H412	H	0.513242	0.470774	0.609753
	H413	H	0.507649	0.483816	0.609964
	O414	O	1.186649	0.211625	1.212907
	H415	H	1.196833	0.192862	1.204999
	H416	H	1.170875	0.228068	1.226612
	O417	O	0.500154	0.575959	0.631301
	H418	H	0.505452	0.587092	0.629950
	H419	H	0.509587	0.578602	0.625454
	O420	O	-0.239215	-0.025276	0.231282
	H421	H	-0.259267	-0.031934	0.247422
	H422	H	-0.242413	-0.028929	0.228198
	O423	O	-0.040820	0.050052	0.926975
	H424	H	-0.031767	0.058996	0.931984
	H425	H	-0.038583	0.054655	0.942537
	O426	O	0.684075	0.423229	0.535255
	H427	H	0.677683	0.433587	0.552169
	H428	H	0.690534	0.425227	0.546407
	O429	O	1.201442	1.036616	1.227829
	H430	H	1.200603	1.041850	1.231292
	H431	H	1.222766	1.034956	1.236387
	O432	O	0.510483	0.569190	0.297340
	H433	H	0.516561	0.571835	0.306169
	H434	H	0.519452	0.568989	0.298414
	O435	O	0.642319	0.305161	0.663006
	H436	H	0.652201	0.294040	0.690428
	H437	H	0.645328	0.315314	0.675560
	O438	O	-0.072392	-0.219865	-0.064773
	H439	H	-0.066874	-0.229203	-0.057185
	H440	H	-0.073264	-0.221509	-0.050680
	O441	O	0.689579	0.295657	0.302052
	H442	H	0.681053	0.293417	0.337812
	H443	H	0.677519	0.307074	0.309916
	O444	O	0.511007	0.286482	0.296996
	H445	H	0.509515	0.286327	0.281896
	H446	H	0.522438	0.286092	0.291404
	O447	O	-0.237055	1.052537	1.071283
	H448	H	-0.236068	1.064801	1.081410
	H449	H	-0.226443	1.050288	1.070215
	O450	O	-0.228292	0.898511	0.980630
	H451	H	-0.238703	0.901919	0.963240
	H452	H	-0.221346	0.906657	0.974072
	O453	O	0.526807	0.526680	0.607577
	H454	H	0.527236	0.527675	0.603671
	H455	H	0.517591	0.528908	0.586005
	O456	O	0.193928	-0.210925	0.794556
	H457	H	0.187890	-0.173318	0.792366
	H458	H	0.229418	-0.239751	0.762463
	O459	O	0.933584	1.079988	0.225305
	H460	H	0.917037	1.088681	0.224490
	H461	H	0.930859	1.100252	0.228654
	O462	O	0.705444	0.726547	0.536737
	H463	H	0.716414	0.724313	0.544755
	H464	H	0.717630	0.734339	0.545784
	O465	O	1.275995	0.290699	-0.278316
	H466	H	1.280163	0.310496	-0.305596
	H467	H	1.285109	0.302784	-0.286696
	O468	O	0.467123	0.290779	0.714981
	H469	H	0.440615	0.300942	0.715860
	H470	H	0.470181	0.285253	0.730690
	O471	O	0.519583	0.272271	0.534074
	H472	H	0.529700	0.276153	0.549188
	H473	H	0.538524	0.267214	0.533498
	O474	O	0.696624	0.583969	0.437936
	H475	H	0.689840	0.558445	0.460013
	H476	H	0.690697	0.564832	0.422927
	O477	O	0.341279	0.570017	1.512644
	H478	H	0.332482	0.581139	1.500436
	H479	H	0.337056	0.560717	1.500550
	O480	O	0.695577	0.716367	0.294714
	H481	H	0.712399	0.719976	0.281336
	H482	H	0.691535	0.695480	0.328784
	O483	O	0.398732	0.435751	0.297349
	H484	H	0.396631	0.440687	0.287971
	H485	H	0.411123	0.440788	0.298917
	O486	O	1.217118	0.032210	0.981264
	H487	H	1.215558	0.026179	0.977558
	H488	H	1.215071	0.046475	0.994390
	O489	O	0.804412	1.008144	-0.216923
	H490	H	0.811167	1.001112	-0.226326
	H491	H	0.813355	1.008298	-0.230037
	O492	O	-0.222981	0.213096	-0.204612
	H493	H	-0.214482	0.182466	-0.194372
	H494	H	-0.188132	0.206780	-0.194886
	O495	O	0.198151	1.027461	1.063091
	H496	H	0.206167	1.028017	1.046088
	H497	H	0.191668	1.023595	1.039982
	O498	O	1.002498	0.894415	1.155131
	H499	H	0.978817	0.901058	1.171223
	H500	H	0.999079	0.910428	1.154443
	O501	O	0.702791	0.520407	0.728481
	H502	H	0.717827	0.525397	0.750676
	H503	H	0.696741	0.531661	0.720818
