data_Molecule from HDF5

_cell_length_a		16.489111
_cell_length_b		16.528752
_cell_length_c		16.502336
_cell_angle_alpha	90.004960
_cell_angle_beta	90.110879
_cell_angle_gamma	90.057792
_symmetry_space_group_name_H-M	'P 1'
_symmetry_Int_Tables_number		1

loop_
	_symmetry_equiv_pos_as_xyz
	x,y,z

loop_
	_atom_site_label
	_atom_site_type_symbol
	_atom_site_fract_x
	_atom_site_fract_y
	_atom_site_fract_z
	H0	H	0.397375	0.851232	0.710723
	H1	H	0.614162	0.163283	0.710486
	H2	H	0.612050	0.852865	0.261551
	H3	H	0.396596	0.164158	0.262071
	H4	H	0.726816	0.401683	0.829196
	H5	H	0.727118	0.613154	0.143021
	H6	H	0.278982	0.616533	0.830688
	H7	H	0.282121	0.399791	0.142980
	H8	H	0.850231	0.732119	0.377484
	H9	H	0.160335	0.731637	0.596457
	H10	H	0.850723	0.280514	0.596024
	H11	H	0.161776	0.282663	0.379014
	H12	H	0.848147	0.399891	0.708851
	H13	H	0.160577	0.615864	0.711853
	H14	H	0.848911	0.613748	0.263280
	H15	H	0.160551	0.397359	0.261394
	H16	H	0.394311	0.733508	0.830806
	H17	H	0.612574	0.731359	0.142159
	H18	H	0.611784	0.284256	0.829874
	H19	H	0.397212	0.283184	0.141886
	H20	H	0.729220	0.852184	0.378269
	H21	H	0.731905	0.162467	0.596682
	H22	H	0.282090	0.850550	0.592670
	H23	H	0.279885	0.163074	0.376942
	H24	H	0.896520	0.351127	0.209799
	H25	H	0.112695	0.662610	0.211217
	H26	H	0.109415	0.350469	0.765853
	H27	H	0.896378	0.664491	0.762697
	H28	H	0.227299	0.900027	0.328839
	H29	H	0.228080	0.112773	0.643940
	H30	H	0.781295	0.116248	0.330841
	H31	H	0.780265	0.897752	0.642187
	H32	H	0.347784	0.229137	0.879436
	H33	H	0.662308	0.229909	0.092723
	H34	H	0.348380	0.785037	0.092567
	H35	H	0.662147	0.784890	0.879265
	H36	H	0.346850	0.902338	0.206744
	H37	H	0.660672	0.116980	0.211008
	H38	H	0.349696	0.115238	0.761857
	H39	H	0.662221	0.900472	0.763385
	H40	H	0.897398	0.231429	0.331053
	H41	H	0.112605	0.229176	0.643993
	H42	H	0.112281	0.783295	0.330483
	H43	H	0.897226	0.783137	0.642842
	H44	H	0.227157	0.351497	0.880234
	H45	H	0.228925	0.663571	0.095012
	H46	H	0.781742	0.350970	0.091996
	H47	H	0.781949	0.664901	0.879327
	H48	H	0.419226	0.116718	0.570607
	H49	H	0.590975	0.896219	0.575654
	H50	H	0.597612	0.123027	0.392362
	H51	H	0.416560	0.896291	0.398614
	H52	H	0.595815	0.417298	0.099070
	H53	H	0.590158	0.594588	0.875227
	H54	H	0.421708	0.600618	0.097457
	H55	H	0.421977	0.421278	0.876647
	H56	H	0.117297	0.598493	0.403811
	H57	H	0.893141	0.593362	0.572652
	H58	H	0.118446	0.420060	0.579299
	H59	H	0.892263	0.421780	0.391445
	H60	H	0.116805	0.416085	0.574781
	H61	H	0.892714	0.594364	0.576746
	H62	H	0.114436	0.589875	0.402504
	H63	H	0.892346	0.411172	0.402533
	H64	H	0.411406	0.596708	0.100116
	H65	H	0.591942	0.599078	0.873278
	H66	H	0.593697	0.421316	0.097373
	H67	H	0.415808	0.414881	0.872171
	H68	H	0.583592	0.116335	0.398189
	H69	H	0.592110	0.897437	0.572139
	H70	H	0.414195	0.120001	0.573360
	H71	H	0.417068	0.895924	0.395628
	H72	H	0.912980	0.621049	0.075606
	H73	H	0.085657	0.398123	0.073386
	H74	H	0.094238	0.618371	0.903929
	H75	H	0.911092	0.394016	0.896291
	H76	H	0.094516	0.921315	0.598197
	H77	H	0.096519	0.102292	0.371235
	H78	H	0.922853	0.091394	0.596167
	H79	H	0.923852	0.916951	0.376161
	H80	H	0.618674	0.097411	0.897999
	H81	H	0.390629	0.099485	0.076552
	H82	H	0.617135	0.913903	0.068329
	H83	H	0.391927	0.916738	0.898076
	H84	H	0.613167	0.928404	0.071635
	H85	H	0.393824	0.097521	0.069571
	H86	H	0.616921	0.096418	0.900194
	H87	H	0.395987	0.921734	0.903373
	H88	H	0.918864	0.097717	0.599434
	H89	H	0.098406	0.089244	0.374959
	H90	H	0.091822	0.919503	0.597716
	H91	H	0.914194	0.918212	0.372870
	H92	H	0.094601	0.621894	0.895278
	H93	H	0.094979	0.397194	0.067480
	H94	H	0.918869	0.619273	0.078865
	H95	H	0.918329	0.396107	0.894770
	H96	H	0.419719	0.118449	0.576861
	H97	H	0.594251	0.895300	0.573918
	H98	H	0.596488	0.117907	0.407996
	H99	H	0.418700	0.896830	0.397234
	H100	H	0.590993	0.417619	0.098147
	H101	H	0.595264	0.595035	0.874543
	H102	H	0.418906	0.590292	0.094750
	H103	H	0.412565	0.424188	0.874939
	H104	H	0.118740	0.594560	0.395748
	H105	H	0.892133	0.597555	0.573807
	H106	H	0.116098	0.422441	0.573834
	H107	H	0.898267	0.425773	0.405111
	H108	H	0.917404	0.618009	0.072184
	H109	H	0.094661	0.393820	0.078144
	H110	H	0.086528	0.617386	0.898466
	H111	H	0.915316	0.397503	0.901615
	H112	H	0.094201	0.918612	0.599054
	H113	H	0.086238	0.095218	0.376869
	H114	H	0.915059	0.090792	0.598182
	H115	H	0.919193	0.926246	0.378363
	H116	H	0.617330	0.094844	0.897704
	H117	H	0.393397	0.091906	0.075982
	H118	H	0.619848	0.919164	0.082431
	H119	H	0.394343	0.924171	0.895729
	C120	C	0.384418	0.015379	0.607131
	C121	C	0.626963	0.999083	0.608029
	C122	C	0.626671	0.016498	0.364876
	C123	C	0.383126	0.999159	0.363662
	C124	C	0.626050	0.386440	-0.005552
	C125	C	0.625829	0.628842	0.977824
	C126	C	0.382984	0.629840	-0.005404
	C127	C	0.383571	0.386729	0.978001
	C128	C	0.013619	0.627888	0.366216
	C129	C	0.995893	0.628969	0.608395
	C130	C	0.013825	0.385640	0.608730
	C131	C	0.997127	0.385663	0.365882
	C132	C	0.883210	0.515649	0.108195
	C133	C	0.126047	0.498992	0.107594
	C134	C	0.125229	0.516008	0.865987
	C135	C	0.882224	0.499326	0.864211
	C136	C	0.126723	0.885788	0.495101
	C137	C	0.127223	0.128392	0.478262
	C138	C	0.884609	0.128191	0.495209
	C139	C	0.884391	0.885814	0.478304
	C140	C	0.514040	0.129499	0.864552
	C141	C	0.496458	0.129376	0.107398
	C142	C	0.512916	0.887276	0.107039
	C143	C	0.497313	0.886813	0.865292
	C144	C	0.380287	0.897972	0.669253
	C145	C	0.631896	0.116065	0.670267
	C146	C	0.630552	0.899577	0.302253
	C147	C	0.379111	0.116923	0.302341
	C148	C	0.686765	0.383386	0.876396
	C149	C	0.687123	0.631654	0.095757
	C150	C	0.319797	0.634453	0.877767
	C151	C	0.322429	0.382840	0.095794
	C152	C	0.896605	0.690443	0.360946
	C153	C	0.113436	0.691008	0.613511
	C154	C	0.897038	0.322634	0.612870
	C155	C	0.114634	0.323591	0.361377
	C156	C	0.895752	0.381977	0.669283
	C157	C	0.113368	0.633328	0.671048
	C158	C	0.896318	0.632009	0.303575
	C159	C	0.114152	0.380724	0.302869
	C160	C	0.377637	0.692534	0.877648
	C161	C	0.630029	0.690325	0.095325
	C162	C	0.629328	0.325135	0.876772
	C163	C	0.379748	0.324665	0.095312
	C164	C	0.688783	0.899284	0.360253
	C165	C	0.690272	0.115819	0.613110
	C166	C	0.322981	0.897459	0.610555
	C167	C	0.320976	0.116329	0.359829
	C168	C	0.879713	0.397950	0.168791
	C169	C	0.130221	0.616230	0.169930
	C170	C	0.127892	0.398037	0.805272
	C171	C	0.878920	0.617076	0.802954
	C172	C	0.187369	0.882028	0.376833
	C173	C	0.187841	0.130558	0.596645
	C174	C	0.822243	0.133141	0.377958
	C175	C	0.821461	0.880969	0.595400
	C176	C	0.395778	0.189937	0.861124
	C177	C	0.614688	0.190242	0.110733
	C178	C	0.395318	0.825712	0.110199
	C179	C	0.615029	0.825213	0.861363
	C180	C	0.394644	0.884325	0.167136
	C181	C	0.614026	0.133679	0.169415
	C182	C	0.396383	0.132735	0.802844
	C183	C	0.615053	0.883184	0.803851
	C184	C	0.879981	0.190826	0.377933
	C185	C	0.130213	0.188603	0.596635
	C186	C	0.130083	0.823679	0.377397
	C187	C	0.879784	0.823678	0.595738
	C188	C	0.186368	0.398325	0.862541
	C189	C	0.188119	0.616420	0.112180
	C190	C	0.822148	0.398015	0.110334
	C191	C	0.821802	0.617496	0.861283
	C192	C	0.410138	0.096933	0.580941
	C193	C	0.600142	0.917524	0.581441
	C194	C	0.600330	0.097606	0.391669
	C195	C	0.409686	0.917656	0.389650
	C196	C	0.600776	0.411628	0.076767
	C197	C	0.599842	0.603353	0.895740
	C198	C	0.409984	0.603386	0.076217
	C199	C	0.409459	0.412793	0.896029
	C200	C	0.095449	0.601685	0.393076
	C201	C	0.914155	0.602624	0.581945
	C202	C	0.095603	0.412156	0.583151
	C203	C	0.915497	0.411811	0.392372
	C204	C	0.909006	0.597942	0.082872
	C205	C	0.099475	0.417762	0.080818
	C206	C	0.099276	0.597914	0.891847
	C207	C	0.907727	0.417268	0.890007
	C208	C	0.100918	0.912091	0.576956
	C209	C	0.101310	0.102855	0.395926
	C210	C	0.911343	0.101335	0.576664
	C211	C	0.911237	0.912819	0.397081
	C212	C	0.596363	0.103685	0.891079
	C213	C	0.414139	0.103685	0.081389
	C214	C	0.595233	0.913146	0.081413
	C215	C	0.415539	0.913248	0.891551
	Zn216	Zn	0.505486	0.007907	0.736704
	Zn217	Zn	0.504487	0.008392	0.235672
	Zn218	Zn	0.754604	0.507557	-0.014016
	Zn219	Zn	0.254720	0.507462	-0.013669
	Zn220	Zn	0.005424	0.757120	0.486839
	Zn221	Zn	0.005711	0.256907	0.487020
	Zn222	Zn	0.004326	0.508205	0.736927
	Zn223	Zn	0.005346	0.506840	0.236855
	Zn224	Zn	0.505367	0.758227	-0.013992
	Zn225	Zn	0.504857	0.257785	-0.014118
	Zn226	Zn	0.755703	0.007214	0.486916
	Zn227	Zn	0.255471	0.006949	0.485666
	N228	N	0.417764	0.972220	0.667370
	N229	N	0.593210	0.042464	0.667230
	N230	N	0.592666	0.973516	0.304848
	N231	N	0.417104	0.043007	0.304644
	N232	N	0.684581	0.421079	0.950457
	N233	N	0.684588	0.594122	0.021569
	N234	N	0.323019	0.596223	0.951510
	N235	N	0.324894	0.420997	0.021816
	N236	N	0.970718	0.688044	0.399124
	N237	N	0.039367	0.688648	0.575514
	N238	N	0.971558	0.324624	0.576047
	N239	N	0.040959	0.326473	0.399918
	N240	N	0.969497	0.420405	0.667058
	N241	N	0.039120	0.595533	0.668186
	N242	N	0.970262	0.593837	0.306815
	N243	N	0.039960	0.418456	0.305333
	N244	N	0.416370	0.689773	0.951524
	N245	N	0.592959	0.689051	0.020739
	N246	N	0.592190	0.326993	0.951180
	N247	N	0.417130	0.326891	0.021128
	N248	N	0.686506	0.972944	0.398417
	N249	N	0.687418	0.041860	0.575063
	N250	N	0.325309	0.971387	0.572703
	N251	N	0.323294	0.042141	0.397207
	N252	N	0.917019	0.472189	0.167546
	N253	N	0.092150	0.542382	0.167227
	N254	N	0.090349	0.472235	0.807487
	N255	N	0.915605	0.542477	0.804547
	N256	N	0.185820	0.919520	0.451128
	N257	N	0.186338	0.094186	0.521727
	N258	N	0.824718	0.095115	0.451885
	N259	N	0.824032	0.918846	0.521230
	N260	N	0.470191	0.187926	0.898936
	N261	N	0.540429	0.187719	0.072831
	N262	N	0.470068	0.827213	0.073681
	N263	N	0.540688	0.827239	0.898762
	N264	N	0.469092	0.921700	0.165331
	N265	N	0.539374	0.096776	0.167681
	N266	N	0.470873	0.095883	0.805010
	N267	N	0.540648	0.920427	0.805965
	N268	N	0.918104	0.187980	0.452105
	N269	N	0.093481	0.187583	0.521845
	N270	N	0.093389	0.825654	0.452110
	N271	N	0.918175	0.826480	0.521962
	N272	N	0.184936	0.472773	0.899305
	N273	N	0.185751	0.542569	0.074236
	N274	N	0.824179	0.472451	0.073371
	N275	N	0.823440	0.543205	0.898524
	O276	O	0.054561	0.090050	-0.199107
	H277	H	0.083235	0.082389	-0.200174
	H278	H	0.053975	0.079678	-0.195900
	O279	O	0.714981	0.712825	0.507592
	H280	H	0.711778	0.713750	0.497410
	H281	H	0.713371	0.728476	0.508422
	O282	O	0.915222	0.854373	0.111495
	H283	H	0.912433	0.859078	0.087603
	H284	H	0.907710	0.842122	0.120447
	O285	O	0.485114	0.348788	0.402769
	H286	H	0.464466	0.339763	0.408137
	H287	H	0.495692	0.347243	0.425889
	O288	O	-0.547805	0.326131	0.626936
	H289	H	-0.548002	0.305326	0.639035
	H290	H	-0.544330	0.338122	0.617081
	O291	O	1.234560	1.314632	1.287190
	H292	H	1.241807	1.306892	1.268108
	H293	H	1.234090	1.303699	1.271002
	O294	O	0.195605	0.801208	-0.018921
	H295	H	0.186722	0.787683	-0.005614
	H296	H	0.205279	0.810573	-0.002236
	O297	O	0.528932	0.295778	1.272612
	H298	H	0.524480	0.278056	1.267444
	H299	H	0.511250	0.283446	1.282489
	O300	O	0.433316	0.466886	0.269091
	H301	H	0.429028	0.473682	0.267859
	H302	H	0.437745	0.450372	0.262249
	O303	O	0.497951	0.456171	0.552830
	H304	H	0.496754	0.459625	0.562270
	H305	H	0.492806	0.463236	0.539330
	O306	O	0.027522	0.803697	0.784817
	H307	H	0.003509	0.812982	0.787633
	H308	H	0.024119	0.784716	0.764909
	O309	O	0.428168	0.577739	0.629830
	H310	H	0.429015	0.577930	0.631380
	H311	H	0.436559	0.578963	0.635133
	O312	O	0.722302	0.290376	0.465763
	H313	H	0.712131	0.297251	0.426587
	H314	H	0.746328	0.258988	0.461879
	O315	O	-0.054830	-0.205307	0.928257
	H316	H	-0.065115	-0.195016	0.924899
	H317	H	-0.048026	-0.203719	0.944873
	O318	O	0.028685	0.888317	0.193386
	H319	H	0.020079	0.897901	0.193854
	H320	H	0.007935	0.881200	0.209601
	O321	O	-0.306670	1.319333	1.303598
	H322	H	-0.354745	1.312131	1.297669
	H323	H	-0.295932	1.365904	1.297301
	O324	O	0.845228	0.022223	0.983723
	H325	H	0.847332	0.032090	0.979056
	H326	H	0.852058	0.026643	0.969676
	O327	O	1.188328	-0.171283	0.812411
	H328	H	1.162373	-0.184195	0.828321
	H329	H	1.171625	-0.180864	0.839553
	O330	O	1.203924	0.215956	0.008876
	H331	H	1.228674	0.216385	0.006062
	H332	H	1.186451	0.214598	-0.004246
	O333	O	0.654629	0.649052	0.379448
	H334	H	0.655703	0.650763	0.375369
	H335	H	0.647142	0.645948	0.395121
	O336	O	1.018517	0.219321	1.195690
	H337	H	1.034845	0.225440	1.185166
	H338	H	1.039220	0.240268	1.207705
	O339	O	-0.146683	-0.183722	1.001387
	H340	H	-0.152802	-0.179407	0.980852
	H341	H	-0.147007	-0.190354	0.998515
	O342	O	0.319455	0.501447	0.510628
	H343	H	0.325893	0.487457	0.495024
	H344	H	0.317844	0.500210	0.500994
	O345	O	0.160481	-0.021035	-0.007889
	H346	H	0.165526	-0.016912	-0.000402
	H347	H	0.134146	-0.024574	-0.019526
	O348	O	0.342823	0.539618	0.267326
	H349	H	0.312393	0.531800	0.241347
	H350	H	0.355678	0.547628	0.278383
	O351	O	0.904182	1.078915	0.060247
	H352	H	0.910090	1.071706	0.079685
	H353	H	0.905217	1.069286	0.071206
	O354	O	0.557200	0.561126	0.300130
	H355	H	0.560534	0.554607	0.305739
	H356	H	0.547227	0.555124	0.303948
	O357	O	1.075605	1.204801	0.910122
	H358	H	1.070367	1.211463	0.899682
	H359	H	1.068667	1.207800	0.918874
	O360	O	0.291802	0.479918	0.696561
	H361	H	0.292805	0.498007	0.694096
	H362	H	0.281982	0.494506	0.707179
	O363	O	0.316803	0.319594	0.675605
	H364	H	0.331536	0.336473	0.681692
	H365	H	0.332334	0.347046	0.684967
	O366	O	1.069745	-0.183508	1.089420
	H367	H	1.075731	-0.163359	1.086589
	H368	H	1.066630	-0.182508	1.099086
	O369	O	0.676548	0.518850	0.679939
	H370	H	0.679591	0.494920	0.664495
	H371	H	0.696029	0.521955	0.697186
	O372	O	0.520507	0.303881	0.491207
	H373	H	0.536739	0.298050	0.496683
	H374	H	0.517641	0.314187	0.491919
	O375	O	-0.425983	1.697399	1.449482
	H376	H	-0.446269	1.699732	1.443534
	H377	H	-0.439532	1.692975	1.446227
	O378	O	0.653428	0.386396	0.606973
	H379	H	0.660510	0.386313	0.593872
	H380	H	0.654180	0.384163	0.602441
	O381	O	1.284371	-0.717379	-0.485202
	H382	H	1.276400	-0.725444	-0.451550
	H383	H	1.264512	-0.729824	-0.473599
	O384	O	-0.204998	0.180472	0.981555
	H385	H	-0.222903	0.178722	0.978928
	H386	H	-0.214516	0.169128	0.999769
	O387	O	-0.206918	1.028753	0.774464
	H388	H	-0.220423	1.033178	0.749275
	H389	H	-0.203143	1.066497	0.774757
	O390	O	-0.078262	0.216804	1.017741
	H391	H	-0.082198	0.224931	1.042327
	H392	H	-0.089438	0.203537	1.011046
	O393	O	1.187086	1.036668	-0.105557
	H394	H	1.181629	1.028330	-0.112370
	H395	H	1.205274	1.020095	-0.107370
	O396	O	0.520283	0.723247	-0.457382
	H397	H	0.516523	0.730152	-0.449503
	H398	H	0.524945	0.712990	-0.458385
	O399	O	0.811866	0.825063	1.173496
	H400	H	0.810118	0.819668	1.137645
	H401	H	0.828606	0.809901	1.170601
	O402	O	0.221854	-0.014826	0.775425
	H403	H	0.255215	-0.023914	0.743298
	H404	H	0.211398	-0.059716	0.793738
	O405	O	-0.052750	-0.045362	-0.224144
	H406	H	-0.047492	-0.035112	-0.218077
	H407	H	-0.065372	-0.037323	-0.224073
	O408	O	0.966770	1.038839	1.204134
	H409	H	0.971734	1.079268	1.207844
	H410	H	0.930656	1.038336	1.210278
	O411	O	1.288818	0.724219	0.460894
	H412	H	1.278549	0.728726	0.472457
	H413	H	1.290451	0.735577	0.476518
	O414	O	0.642142	0.503836	0.394252
	H415	H	0.635642	0.503520	0.403294
	H416	H	0.639423	0.509807	0.397498
	O417	O	0.071020	0.006134	0.983204
	H418	H	0.064575	0.024956	0.985752
	H419	H	0.066714	0.022729	0.991727
	O420	O	0.350690	0.491865	0.437884
	H421	H	0.354208	0.495123	0.433052
	H422	H	0.348947	0.476854	0.430780
	O423	O	-0.022871	0.218308	0.772383
	H424	H	-0.005863	0.206053	0.760084
	H425	H	-0.018530	0.238191	0.762267
	O426	O	0.787747	0.989721	1.206536
	H427	H	0.779055	0.953721	1.213534
	H428	H	0.773125	0.970171	1.217986
	O429	O	0.212893	0.024752	0.194599
	H430	H	0.237899	0.021916	0.220133
	H431	H	0.195521	0.002943	0.180784
	O432	O	0.539830	0.503612	0.562298
	H433	H	0.540600	0.510992	0.559919
	H434	H	0.546563	0.506627	0.570720
	O435	O	0.529024	-0.274064	-0.291133
	H436	H	0.536916	-0.252410	-0.263199
	H437	H	0.553623	-0.280300	-0.290779
	O438	O	0.552965	-0.539074	-0.292715
	H439	H	0.550025	-0.545035	-0.290402
	H440	H	0.556076	-0.539175	-0.305340
	O441	O	0.695733	0.658215	0.677835
	H442	H	0.691066	0.662598	0.649014
	H443	H	0.707316	0.625475	0.689152
	O444	O	0.633701	1.457578	0.506926
	H445	H	0.630318	1.444935	0.505534
	H446	H	0.617201	1.461408	0.503298
	O447	O	0.712464	0.484102	0.335229
	H448	H	0.726930	0.485980	0.319932
	H449	H	0.694891	0.506247	0.341453
	O450	O	0.326907	0.652118	0.579107
	H451	H	0.322518	0.644178	0.593339
	H452	H	0.330754	0.647547	0.568510
	O453	O	0.810531	0.204152	0.790183
	H454	H	0.855134	0.205185	0.783561
	H455	H	0.796506	0.215158	0.822415
	O456	O	1.099946	0.088017	0.155318
	H457	H	1.093256	0.102382	0.151270
	H458	H	1.110921	0.065948	0.156190
	O459	O	0.475670	0.723279	0.273418
	H460	H	0.459543	0.720475	0.266349
	H461	H	0.485921	0.722091	0.251003
	O462	O	0.313570	0.695914	0.297912
	H463	H	0.320091	0.681297	0.309621
	H464	H	0.324188	0.705174	0.330946
	O465	O	0.908188	-0.027397	-0.049159
	H466	H	0.919017	-0.010670	-0.047687
	H467	H	0.898513	-0.019372	-0.057580
