data_Molecule from HDF5

_cell_length_a		16.048710
_cell_length_b		16.396503
_cell_length_c		16.330792
_cell_angle_alpha	89.873385
_cell_angle_beta	89.548645
_cell_angle_gamma	89.967957
_symmetry_space_group_name_H-M	'P 1'
_symmetry_Int_Tables_number		1

loop_
	_symmetry_equiv_pos_as_xyz
	x,y,z

loop_
	_atom_site_label
	_atom_site_type_symbol
	_atom_site_fract_x
	_atom_site_fract_y
	_atom_site_fract_z
	H0	H	0.407980	0.838480	0.717579
	H1	H	0.611767	0.161662	0.713612
	H2	H	0.615564	0.837984	0.278924
	H3	H	0.411262	0.161359	0.280109
	H4	H	0.726517	0.405028	0.832853
	H5	H	0.722898	0.594699	0.161915
	H6	H	0.300766	0.597240	0.832647
	H7	H	0.300711	0.406782	0.161616
	H8	H	0.846465	0.714369	0.398681
	H9	H	0.177471	0.716009	0.596041
	H10	H	0.846992	0.285721	0.599312
	H11	H	0.177377	0.286329	0.397246
	H12	H	0.847716	0.400685	0.713063
	H13	H	0.179085	0.597616	0.708971
	H14	H	0.846646	0.597859	0.285742
	H15	H	0.178238	0.401403	0.283222
	H16	H	0.412483	0.718501	0.834349
	H17	H	0.613573	0.717128	0.160021
	H18	H	0.616062	0.283575	0.834920
	H19	H	0.409652	0.284100	0.159071
	H20	H	0.728212	0.837517	0.399022
	H21	H	0.723738	0.164430	0.592708
	H22	H	0.296328	0.837161	0.596291
	H23	H	0.301049	0.164114	0.402473
	H24	H	0.911025	0.337788	0.215299
	H25	H	0.112771	0.661894	0.212527
	H26	H	0.114206	0.337671	0.780254
	H27	H	0.911065	0.661452	0.779602
	H28	H	0.227384	0.904311	0.333269
	H29	H	0.222565	0.094986	0.661625
	H30	H	0.800346	0.096477	0.333130
	H31	H	0.797875	0.905063	0.662179
	H32	H	0.346599	0.214552	0.899585
	H33	H	0.676988	0.214807	0.095359
	H34	H	0.347222	0.786632	0.098122
	H35	H	0.678006	0.786422	0.895925
	H36	H	0.347269	0.901619	0.212498
	H37	H	0.678227	0.098250	0.208733
	H38	H	0.346378	0.098797	0.785678
	H39	H	0.677086	0.900189	0.781022
	H40	H	0.911862	0.217997	0.335163
	H41	H	0.112794	0.216589	0.659706
	H42	H	0.116219	0.783684	0.335155
	H43	H	0.907995	0.781927	0.659629
	H44	H	0.226549	0.336438	0.900346
	H45	H	0.224563	0.663473	0.092140
	H46	H	0.799011	0.335986	0.094251
	H47	H	0.801391	0.664538	0.903392
	H48	H	0.416946	0.115715	0.592628
	H49	H	0.604355	0.881609	0.601721
	H50	H	0.604834	0.117473	0.398166
	H51	H	0.417971	0.881598	0.397624
	H52	H	0.606121	0.406312	0.113753
	H53	H	0.607709	0.587617	0.883586
	H54	H	0.427245	0.590042	0.109313
	H55	H	0.423346	0.406410	0.881013
	H56	H	0.131954	0.600097	0.406762
	H57	H	0.896098	0.592058	0.586978
	H58	H	0.131395	0.408775	0.591207
	H59	H	0.893605	0.408692	0.403478
	H60	H	0.132481	0.403814	0.586628
	H61	H	0.895463	0.588797	0.590094
	H62	H	0.127235	0.586760	0.409657
	H63	H	0.893700	0.405813	0.408967
	H64	H	0.419540	0.604651	0.115903
	H65	H	0.597272	0.599452	0.882378
	H66	H	0.601636	0.407782	0.111416
	H67	H	0.420915	0.404359	0.880041
	H68	H	0.600040	0.114521	0.403188
	H69	H	0.592999	0.889296	0.587469
	H70	H	0.418177	0.115615	0.594374
	H71	H	0.429361	0.887209	0.405621
	H72	H	0.918074	0.614150	0.087806
	H73	H	0.108981	0.385475	0.081691
	H74	H	0.100620	0.616155	0.893576
	H75	H	0.925151	0.386589	0.908412
	H76	H	0.090960	0.911077	0.608200
	H77	H	0.112501	0.097606	0.378514
	H78	H	0.922591	0.094350	0.612348
	H79	H	0.921481	0.903760	0.380233
	H80	H	0.630400	0.093523	0.903746
	H81	H	0.398665	0.081449	0.084907
	H82	H	0.629591	0.906330	0.080856
	H83	H	0.390581	0.907878	0.893886
	H84	H	0.630321	0.914849	0.092109
	H85	H	0.389462	0.092605	0.103227
	H86	H	0.630361	0.092864	0.905457
	H87	H	0.392996	0.896846	0.916166
	H88	H	0.916940	0.098255	0.615027
	H89	H	0.103511	0.088289	0.383572
	H90	H	0.102259	0.895527	0.616486
	H91	H	0.918964	0.907603	0.382060
	H92	H	0.100139	0.611963	0.910064
	H93	H	0.112124	0.379633	0.098895
	H94	H	0.914802	0.617510	0.095001
	H95	H	0.914760	0.383463	0.905358
	H96	H	0.419049	0.115692	0.593215
	H97	H	0.611597	0.884448	0.583815
	H98	H	0.606563	0.114528	0.404374
	H99	H	0.415831	0.885404	0.411580
	H100	H	0.602330	0.403181	0.113905
	H101	H	0.612703	0.601042	0.877852
	H102	H	0.410416	0.589714	0.113910
	H103	H	0.419945	0.406902	0.880043
	H104	H	0.131769	0.589946	0.396437
	H105	H	0.894309	0.592638	0.590788
	H106	H	0.128934	0.410221	0.585191
	H107	H	0.895166	0.411339	0.407919
	H108	H	0.922729	0.615217	0.094748
	H109	H	0.094473	0.386329	0.094333
	H110	H	0.115039	0.618614	0.902734
	H111	H	0.922975	0.383522	0.897513
	H112	H	0.111485	0.914242	0.613293
	H113	H	0.099459	0.100819	0.380666
	H114	H	0.916265	0.091357	0.612816
	H115	H	0.923483	0.907342	0.382290
	H116	H	0.630264	0.091506	0.904221
	H117	H	0.392571	0.103895	0.082827
	H118	H	0.634043	0.900924	0.092484
	H119	H	0.400488	0.920695	0.913525
	C120	C	0.388296	0.008309	0.622251
	C121	C	0.632178	0.992309	0.618965
	C122	C	0.634199	0.008303	0.374005
	C123	C	0.391780	0.992028	0.376267
	C124	C	0.633663	0.377975	0.005460
	C125	C	0.634385	0.623026	0.989034
	C126	C	0.390326	0.623400	0.005078
	C127	C	0.391338	0.378256	0.988327
	C128	C	0.021155	0.621489	0.375979
	C129	C	1.004447	0.620801	0.617869
	C130	C	0.021226	0.378866	0.617935
	C131	C	1.003521	0.379544	0.376982
	C132	C	0.889678	0.508044	0.120746
	C133	C	0.133700	0.491550	0.118998
	C134	C	0.134622	0.508204	0.874096
	C135	C	0.891812	0.491835	0.875716
	C136	C	0.133284	0.878287	0.505352
	C137	C	0.133690	0.123052	0.488821
	C138	C	0.890046	0.122981	0.505930
	C139	C	0.890431	0.877980	0.489267
	C140	C	0.520796	0.121207	0.876859
	C141	C	0.503328	0.121097	0.118338
	C142	C	0.521442	0.878979	0.118399
	C143	C	0.503909	0.879680	0.877351
	C144	C	0.389169	0.886871	0.678359
	C145	C	0.631197	0.113869	0.674590
	C146	C	0.634360	0.886437	0.317872
	C147	C	0.392332	0.113457	0.319577
	C148	C	0.689281	0.382815	0.882050
	C149	C	0.687323	0.617520	0.112778
	C150	C	0.337243	0.619201	0.881830
	C151	C	0.336483	0.383530	0.111950
	C152	C	0.896106	0.676671	0.378463
	C153	C	0.128503	0.677060	0.615927
	C154	C	0.896748	0.323429	0.618257
	C155	C	0.128114	0.324160	0.377651
	C156	C	0.896924	0.380688	0.674666
	C157	C	0.129269	0.618524	0.672143
	C158	C	0.896242	0.618817	0.322268
	C159	C	0.128519	0.381529	0.321136
	C160	C	0.392792	0.679623	0.882897
	C161	C	0.633014	0.678459	0.111719
	C162	C	0.634636	0.322212	0.883272
	C163	C	0.390908	0.322952	0.110650
	C164	C	0.690215	0.885964	0.377644
	C165	C	0.686643	0.115267	0.614375
	C166	C	0.333360	0.886004	0.618190
	C167	C	0.337510	0.114958	0.380381
	C168	C	0.891167	0.385964	0.176551
	C169	C	0.132110	0.613590	0.174068
	C170	C	0.134258	0.386123	0.818357
	C171	C	0.892174	0.613438	0.818985
	C172	C	0.189871	0.882552	0.382456
	C173	C	0.186338	0.117497	0.612412
	C174	C	0.836429	0.118687	0.382532
	C175	C	0.834592	0.882252	0.612629
	C176	C	0.395919	0.176496	0.879292
	C177	C	0.627770	0.176598	0.115709
	C178	C	0.396804	0.823877	0.117937
	C179	C	0.628488	0.824150	0.876858
	C180	C	0.396777	0.881183	0.174600
	C181	C	0.628511	0.118070	0.171718
	C182	C	0.395919	0.119177	0.822630
	C183	C	0.627988	0.880808	0.819747
	C184	C	0.891773	0.179143	0.383470
	C185	C	0.131796	0.177872	0.611377
	C186	C	0.134712	0.822352	0.383398
	C187	C	0.889613	0.821515	0.611585
	C188	C	0.189873	0.385388	0.878152
	C189	C	0.187759	0.614371	0.113965
	C190	C	0.835612	0.385137	0.116491
	C191	C	0.837958	0.615050	0.880603
	C192	C	0.411219	0.093694	0.599923
	C193	C	0.609476	0.907047	0.597308
	C194	C	0.610754	0.093350	0.395681
	C195	C	0.414434	0.906737	0.398428
	C196	C	0.610067	0.399328	0.090889
	C197	C	0.612328	0.602245	0.903588
	C198	C	0.412464	0.601426	0.090836
	C199	C	0.414640	0.399637	0.902375
	C200	C	0.107813	0.599136	0.397936
	C201	C	0.917764	0.597927	0.595652
	C202	C	0.108410	0.401070	0.594597
	C203	C	0.916621	0.402018	0.399961
	C204	C	0.912051	0.593491	0.099180
	C205	C	0.111591	0.405728	0.097952
	C206	C	0.111895	0.593534	0.895520
	C207	C	0.914320	0.406398	0.897370
	C208	C	0.108644	0.900440	0.590511
	C209	C	0.111776	0.101825	0.403161
	C210	C	0.912189	0.101097	0.591267
	C211	C	0.914391	0.899778	0.403810
	C212	C	0.607784	0.099088	0.898322
	C213	C	0.415981	0.099098	0.096661
	C214	C	0.608621	0.900922	0.095232
	C215	C	0.417341	0.901974	0.901088
	Zn216	Zn	0.511882	0.000219	0.749527
	Zn217	Zn	0.512537	-0.000078	0.245160
	Zn218	Zn	0.762088	0.500127	-0.002349
	Zn219	Zn	0.262759	0.499869	-0.003715
	Zn220	Zn	0.012060	0.748843	0.496744
	Zn221	Zn	0.012142	0.252092	0.497694
	Zn222	Zn	0.013378	0.499422	0.745236
	Zn223	Zn	0.012381	0.499890	0.248911
	Zn224	Zn	0.513177	0.752144	-0.002423
	Zn225	Zn	0.512140	0.248714	-0.003323
	Zn226	Zn	0.761667	0.000330	0.497577
	Zn227	Zn	0.261775	0.000387	0.497675
	N228	N	0.422578	0.964049	0.680800
	N229	N	0.598233	0.036492	0.677298
	N230	N	0.600193	0.963531	0.315568
	N231	N	0.425202	0.036169	0.316881
	N232	N	0.688971	0.416795	0.958900
	N233	N	0.688164	0.583704	0.035653
	N234	N	0.335677	0.585020	0.958806
	N235	N	0.336704	0.417452	0.034741
	N236	N	0.975030	0.678650	0.411005
	N237	N	0.049944	0.678460	0.582849
	N238	N	0.975117	0.322323	0.583509
	N239	N	0.049499	0.322976	0.412018
	N240	N	0.975402	0.414462	0.674455
	N241	N	0.050952	0.584347	0.673506
	N242	N	0.974636	0.585322	0.320510
	N243	N	0.049989	0.415290	0.320527
	N244	N	0.425281	0.682226	0.960765
	N245	N	0.600829	0.682099	0.034026
	N246	N	0.600732	0.319079	0.960860
	N247	N	0.424338	0.319657	0.032870
	N248	N	0.690450	0.962608	0.411712
	N249	N	0.687507	0.038340	0.580535
	N250	N	0.332766	0.962680	0.583908
	N251	N	0.337030	0.038360	0.415118
	N252	N	0.923977	0.463541	0.179378
	N253	N	0.099223	0.536139	0.177236
	N254	N	0.100668	0.463286	0.815786
	N255	N	0.925112	0.536016	0.816025
	N256	N	0.189343	0.916464	0.459485
	N257	N	0.187696	0.083969	0.535333
	N258	N	0.835169	0.084519	0.459489
	N259	N	0.835289	0.916880	0.535763
	N260	N	0.474616	0.178098	0.911911
	N261	N	0.548980	0.178418	0.083239
	N262	N	0.475506	0.822402	0.083616
	N263	N	0.550471	0.823448	0.912351
	N264	N	0.475330	0.914404	0.174969
	N265	N	0.549965	0.084325	0.173254
	N266	N	0.474329	0.084990	0.821274
	N267	N	0.549567	0.914751	0.819967
	N268	N	0.924449	0.181801	0.461060
	N269	N	0.099649	0.181368	0.533463
	N270	N	0.100032	0.819861	0.460719
	N271	N	0.923388	0.818608	0.533859
	N272	N	0.190217	0.462079	0.912305
	N273	N	0.188729	0.537492	0.080333
	N274	N	0.834454	0.461962	0.082594
	N275	N	0.837347	0.538242	0.915140
	O276	O	1.039810	0.900427	0.010043
	H277	H	1.030412	0.894873	-0.001160
	H278	H	1.046945	0.904141	0.005129
	O279	O	0.002981	-0.071845	0.981745
	H280	H	0.000902	-0.064029	0.979713
	H281	H	0.000163	-0.075862	0.976088
	O282	O	-0.401231	0.363063	0.409836
	H283	H	-0.406341	0.353114	0.409698
	H284	H	-0.409401	0.364088	0.412667
	O285	O	0.545094	0.585632	0.489524
	H286	H	0.546524	0.589430	0.495531
	H287	H	0.543368	0.581550	0.495852
	O288	O	-0.043360	-0.071662	-0.010700
	H289	H	-0.052973	-0.067562	-0.022105
	H290	H	-0.052917	-0.076930	0.000150
	O291	O	0.002892	0.920319	0.071560
	H292	H	0.008003	0.913380	0.063748
	H293	H	0.007268	0.919247	0.067372
	O294	O	-0.001376	0.935244	0.001777
	H295	H	0.010375	0.928189	0.007887
	H296	H	-0.003518	0.937058	0.009893
	O297	O	0.514377	0.547569	0.543532
	H298	H	0.502973	0.544832	0.543194
	H299	H	0.531550	0.542461	0.537478
	O300	O	0.539371	0.560303	0.434975
	H301	H	0.538005	0.568401	0.425474
	H302	H	0.538477	0.568724	0.429021
	O303	O	0.431040	-0.512086	1.530767
	H304	H	0.427250	-0.508862	1.520478
	H305	H	0.426424	-0.507701	1.531300
	O306	O	0.027488	0.981057	0.939275
	H307	H	0.038277	0.976151	0.929564
	H308	H	0.027265	0.994887	0.933951
	O309	O	0.069026	0.904776	0.915592
	H310	H	0.070835	0.896201	0.925581
	H311	H	0.075907	0.910635	0.916078
	O312	O	0.069948	-0.053883	0.914351
	H313	H	0.068145	-0.053340	0.914272
	H314	H	0.068561	-0.062684	0.912809
	O315	O	0.535389	0.482752	0.458847
	H316	H	0.542359	0.468127	0.461257
	H317	H	0.530523	0.484200	0.459178
	O318	O	0.053770	-0.032634	1.024009
	H319	H	0.050435	-0.039783	1.034173
	H320	H	0.043110	-0.033270	1.027282
	O321	O	0.575358	0.496364	0.533470
	H322	H	0.577564	0.507558	0.528671
	H323	H	0.576986	0.499928	0.543744
	O324	O	1.031642	-0.005382	0.911864
	H325	H	1.032809	-0.006038	0.919842
	H326	H	1.026206	-0.005498	0.921826
	O327	O	0.990839	1.007629	0.990405
	H328	H	0.991443	1.003393	0.983137
	H329	H	0.996683	1.004543	1.002069
	O330	O	0.528835	0.564438	0.468832
	H331	H	0.529137	0.556095	0.467280
	H332	H	0.520696	0.565270	0.467509
	O333	O	0.438265	0.513043	0.413134
	H334	H	0.447048	0.516430	0.402373
	H335	H	0.442561	0.513378	0.409931
	O336	O	0.490590	0.502750	0.505840
	H337	H	0.486207	0.495586	0.518977
	H338	H	0.476862	0.500245	0.502530
	O339	O	-0.401178	0.566409	-0.515906
	H340	H	-0.405218	0.562570	-0.521672
	H341	H	-0.393310	0.570712	-0.514737
	O342	O	0.547996	0.448095	0.458906
	H343	H	0.555032	0.445719	0.469575
	H344	H	0.546815	0.451106	0.457967
	O345	O	0.576280	0.596591	0.515107
	H346	H	0.583195	0.596497	0.521520
	H347	H	0.584911	0.593732	0.522340
