data_Molecule from HDF5

_cell_length_a		16.279724
_cell_length_b		16.364521
_cell_length_c		16.285780
_cell_angle_alpha	89.987699
_cell_angle_beta	89.980881
_cell_angle_gamma	89.942070
_symmetry_space_group_name_H-M	'P 1'
_symmetry_Int_Tables_number		1

loop_
	_symmetry_equiv_pos_as_xyz
	x,y,z

loop_
	_atom_site_label
	_atom_site_type_symbol
	_atom_site_fract_x
	_atom_site_fract_y
	_atom_site_fract_z
	H0	H	0.403130	0.836931	0.714173
	H1	H	0.597281	0.163264	0.713543
	H2	H	0.598918	0.837492	0.285142
	H3	H	0.402060	0.162917	0.285568
	H4	H	0.714209	0.401528	0.836414
	H5	H	0.713025	0.597017	0.164065
	H6	H	0.286763	0.597115	0.835227
	H7	H	0.286339	0.402961	0.163827
	H8	H	0.836144	0.714612	0.401703
	H9	H	0.163773	0.714412	0.598209
	H10	H	0.836722	0.286101	0.598422
	H11	H	0.163842	0.285783	0.402423
	H12	H	0.836328	0.402672	0.713888
	H13	H	0.164690	0.597399	0.713991
	H14	H	0.835899	0.598899	0.285758
	H15	H	0.163949	0.403343	0.286692
	H16	H	0.400100	0.716157	0.837211
	H17	H	0.598743	0.715299	0.163598
	H18	H	0.599173	0.284131	0.837262
	H19	H	0.400995	0.285769	0.163781
	H20	H	0.715223	0.836901	0.402493
	H21	H	0.714216	0.163298	0.598042
	H22	H	0.285423	0.837100	0.598487
	H23	H	0.285780	0.163030	0.402288
	H24	H	0.901907	0.337041	0.214547
	H25	H	0.096962	0.663650	0.213370
	H26	H	0.097837	0.335947	0.785554
	H27	H	0.902049	0.663094	0.786401
	H28	H	0.214223	0.902128	0.336037
	H29	H	0.213358	0.096043	0.664175
	H30	H	0.788190	0.096211	0.335504
	H31	H	0.786086	0.903168	0.663447
	H32	H	0.336554	0.215173	0.901523
	H33	H	0.662588	0.214947	0.098945
	H34	H	0.335723	0.786365	0.098026
	H35	H	0.663238	0.785059	0.902054
	H36	H	0.336048	0.901771	0.214754
	H37	H	0.663965	0.097234	0.213612
	H38	H	0.336229	0.098693	0.785280
	H39	H	0.664197	0.902949	0.787135
	H40	H	0.901618	0.214814	0.336495
	H41	H	0.098965	0.214560	0.663448
	H42	H	0.099941	0.784348	0.336573
	H43	H	0.901913	0.785982	0.663532
	H44	H	0.214878	0.335924	0.901175
	H45	H	0.213899	0.662983	0.097209
	H46	H	0.785229	0.336770	0.098596
	H47	H	0.784267	0.662288	0.901886
	H48	H	0.408795	0.113095	0.586739
	H49	H	0.592815	0.884409	0.592519
	H50	H	0.592865	0.115192	0.408933
	H51	H	0.411327	0.883581	0.401885
	H52	H	0.588808	0.406895	0.115494
	H53	H	0.586643	0.594170	0.885335
	H54	H	0.407781	0.592720	0.115750
	H55	H	0.408337	0.407470	0.884840
	H56	H	0.113361	0.587448	0.411861
	H57	H	0.883830	0.590386	0.595452
	H58	H	0.116130	0.406317	0.590496
	H59	H	0.883318	0.407227	0.407240
	H60	H	0.116108	0.408854	0.593187
	H61	H	0.882133	0.597608	0.595190
	H62	H	0.118065	0.591164	0.398179
	H63	H	0.883065	0.406519	0.407335
	H64	H	0.406789	0.595569	0.116031
	H65	H	0.595261	0.596094	0.882785
	H66	H	0.593022	0.403240	0.117379
	H67	H	0.407544	0.403895	0.882362
	H68	H	0.597411	0.116979	0.405798
	H69	H	0.596801	0.883475	0.592955
	H70	H	0.400127	0.117900	0.593986
	H71	H	0.409668	0.887220	0.413279
	H72	H	0.906029	0.615090	0.091034
	H73	H	0.095908	0.385500	0.085311
	H74	H	0.098956	0.616911	0.905994
	H75	H	0.901098	0.379435	0.898528
	H76	H	0.092959	0.911115	0.614436
	H77	H	0.103038	0.094641	0.380835
	H78	H	0.913109	0.102303	0.617643
	H79	H	0.901718	0.899369	0.379785
	H80	H	0.618163	0.095104	0.902441
	H81	H	0.382989	0.092316	0.095047
	H82	H	0.613510	0.916289	0.093502
	H83	H	0.382888	0.910445	0.903297
	H84	H	0.619070	0.901572	0.099494
	H85	H	0.382565	0.094758	0.092730
	H86	H	0.616156	0.096040	0.912199
	H87	H	0.381421	0.902451	0.905326
	H88	H	0.896518	0.093815	0.619171
	H89	H	0.089920	0.084846	0.387115
	H90	H	0.089343	0.903566	0.615785
	H91	H	0.903208	0.914863	0.385200
	H92	H	0.090101	0.616230	0.901381
	H93	H	0.098093	0.381015	0.099344
	H94	H	0.904439	0.616321	0.094327
	H95	H	0.917789	0.386782	0.904544
	H96	H	0.411778	0.116405	0.598343
	H97	H	0.594342	0.883394	0.596536
	H98	H	0.591452	0.116007	0.403553
	H99	H	0.400391	0.881844	0.406796
	H100	H	0.593993	0.409055	0.116574
	H101	H	0.592861	0.587550	0.885524
	H102	H	0.404982	0.593484	0.116601
	H103	H	0.404307	0.406190	0.882685
	H104	H	0.117484	0.601319	0.408951
	H105	H	0.885147	0.594131	0.588933
	H106	H	0.117553	0.405654	0.593793
	H107	H	0.883385	0.406948	0.407661
	H108	H	0.907963	0.616074	0.093786
	H109	H	0.084612	0.386012	0.095070
	H110	H	0.091301	0.612751	0.910869
	H111	H	0.902894	0.385856	0.916960
	H112	H	0.097158	0.905088	0.618059
	H113	H	0.087133	0.101617	0.383101
	H114	H	0.911611	0.084498	0.612629
	H115	H	0.916479	0.904748	0.386035
	H116	H	0.613971	0.086922	0.907789
	H117	H	0.383759	0.091814	0.091726
	H118	H	0.614762	0.902700	0.084058
	H119	H	0.385176	0.908131	0.910873
	C120	C	0.378375	0.008237	0.621824
	C121	C	0.622426	0.991765	0.621863
	C122	C	0.622411	0.008316	0.378035
	C123	C	0.378751	0.991934	0.378638
	C124	C	0.621262	0.377770	0.008548
	C125	C	0.620664	0.621573	0.992120
	C126	C	0.377854	0.622144	0.008038
	C127	C	0.378534	0.378026	0.991685
	C128	C	0.007897	0.621790	0.378245
	C129	C	0.992096	0.621992	0.621602
	C130	C	0.008613	0.378647	0.621070
	C131	C	0.991575	0.378831	0.378825
	C132	C	0.877639	0.508336	0.121897
	C133	C	0.121551	0.491806	0.121630
	C134	C	0.121996	0.507353	0.877687
	C135	C	0.878598	0.491524	0.878418
	C136	C	0.121910	0.878318	0.508148
	C137	C	0.121679	0.121487	0.491913
	C138	C	0.878607	0.121881	0.508517
	C139	C	0.878645	0.878458	0.491856
	C140	C	0.508283	0.121395	0.878662
	C141	C	0.491390	0.121332	0.121721
	C142	C	0.507687	0.878560	0.121088
	C143	C	0.491516	0.878672	0.878556
	C144	C	0.381554	0.885732	0.676895
	C145	C	0.619078	0.114530	0.676403
	C146	C	0.619455	0.885744	0.323238
	C147	C	0.381677	0.114514	0.323727
	C148	C	0.676395	0.380656	0.885540
	C149	C	0.675816	0.618604	0.114958
	C150	C	0.323416	0.618603	0.884808
	C151	C	0.323600	0.381429	0.114899
	C152	C	0.884895	0.676814	0.381065
	C153	C	0.115299	0.676504	0.618773
	C154	C	0.885344	0.324025	0.618722
	C155	C	0.115035	0.323869	0.381232
	C156	C	0.885160	0.382065	0.675983
	C157	C	0.115720	0.618215	0.675948
	C158	C	0.884731	0.619030	0.323778
	C159	C	0.115052	0.382032	0.323799
	C160	C	0.380002	0.677540	0.885445
	C161	C	0.619112	0.677328	0.114838
	C162	C	0.619395	0.322300	0.885715
	C163	C	0.380680	0.323396	0.114927
	C164	C	0.677079	0.885618	0.381448
	C165	C	0.676654	0.114638	0.618565
	C166	C	0.323409	0.885661	0.619201
	C167	C	0.323688	0.114480	0.381363
	C168	C	0.880405	0.385714	0.177024
	C169	C	0.118160	0.614546	0.175981
	C170	C	0.118786	0.384682	0.823034
	C171	C	0.880970	0.614181	0.823465
	C172	C	0.176876	0.881277	0.384895
	C173	C	0.176294	0.118029	0.615101
	C174	C	0.824526	0.118250	0.384725
	C175	C	0.824427	0.882569	0.614938
	C176	C	0.384944	0.176695	0.881201
	C177	C	0.614403	0.176232	0.119102
	C178	C	0.384512	0.823616	0.119020
	C179	C	0.614594	0.823361	0.881175
	C180	C	0.384911	0.881190	0.176644
	C181	C	0.614725	0.118269	0.176327
	C182	C	0.385041	0.119083	0.823287
	C183	C	0.615120	0.881903	0.824344
	C184	C	0.881310	0.176596	0.385197
	C185	C	0.118960	0.176284	0.615054
	C186	C	0.120014	0.822825	0.385287
	C187	C	0.881546	0.824059	0.614891
	C188	C	0.176620	0.384617	0.880750
	C189	C	0.175955	0.614575	0.117944
	C190	C	0.823117	0.385520	0.119006
	C191	C	0.822818	0.613970	0.881191
	C192	C	0.400536	0.093798	0.599694
	C193	C	0.601021	0.905902	0.600314
	C194	C	0.600289	0.094133	0.399703
	C195	C	0.400787	0.906219	0.400808
	C196	C	0.598617	0.399853	0.094287
	C197	C	0.597968	0.599223	0.906421
	C198	C	0.399957	0.600264	0.094105
	C199	C	0.400392	0.399329	0.905572
	C200	C	0.094118	0.599886	0.400111
	C201	C	0.905942	0.600387	0.599724
	C202	C	0.094494	0.400375	0.598891
	C203	C	0.905642	0.400481	0.400992
	C204	C	0.899657	0.593789	0.099677
	C205	C	0.099375	0.406178	0.099728
	C206	C	0.099921	0.593203	0.899573
	C207	C	0.900727	0.406001	0.900354
	C208	C	0.099690	0.900113	0.593936
	C209	C	0.099748	0.100009	0.405861
	C210	C	0.900538	0.100113	0.594395
	C211	C	0.900665	0.899965	0.405723
	C212	C	0.593932	0.099373	0.900974
	C213	C	0.405398	0.099479	0.099672
	C214	C	0.593711	0.900406	0.098690
	C215	C	0.405500	0.900601	0.900268
	Zn216	Zn	0.500647	0.000246	0.750083
	Zn217	Zn	0.499997	-0.000078	0.249807
	Zn218	Zn	0.749303	0.499727	0.000148
	Zn219	Zn	0.250313	0.499587	-0.000241
	Zn220	Zn	0.000442	0.749930	0.499684
	Zn221	Zn	0.000231	0.249779	0.499972
	Zn222	Zn	0.000338	0.500008	0.749327
	Zn223	Zn	-0.000696	0.500055	0.250109
	Zn224	Zn	0.499471	0.750484	0.000205
	Zn225	Zn	0.499521	0.249767	0.000424
	Zn226	Zn	0.750501	0.000588	0.500039
	Zn227	Zn	0.249941	-0.000310	0.500087
	N228	N	0.415052	0.962953	0.678368
	N229	N	0.585848	0.037211	0.678289
	N230	N	0.586116	0.963072	0.321178
	N231	N	0.414978	0.037191	0.321944
	N232	N	0.677427	0.414563	0.962903
	N233	N	0.676867	0.584455	0.037794
	N234	N	0.321894	0.584839	0.962215
	N235	N	0.322456	0.414905	0.037439
	N236	N	0.962509	0.678462	0.414518
	N237	N	0.037416	0.678984	0.585668
	N238	N	0.963073	0.321668	0.585350
	N239	N	0.037302	0.321547	0.414451
	N240	N	0.962732	0.415219	0.677573
	N241	N	0.037960	0.585194	0.677849
	N242	N	0.962433	0.585850	0.321681
	N243	N	0.037474	0.415735	0.322555
	N244	N	0.413366	0.679422	0.963029
	N245	N	0.585526	0.679302	0.037338
	N246	N	0.585750	0.320499	0.963262
	N247	N	0.414437	0.321351	0.037422
	N248	N	0.678921	0.962952	0.414763
	N249	N	0.678953	0.037164	0.585567
	N250	N	0.321330	0.962824	0.585648
	N251	N	0.321885	0.037153	0.414879
	N252	N	0.913946	0.462825	0.178636
	N253	N	0.085073	0.537215	0.178310
	N254	N	0.085461	0.462053	0.821161
	N255	N	0.915197	0.537211	0.821772
	N256	N	0.178056	0.915131	0.462290
	N257	N	0.177803	0.084461	0.537667
	N258	N	0.822702	0.084922	0.462321
	N259	N	0.822277	0.915372	0.537204
	N260	N	0.462428	0.178278	0.915100
	N261	N	0.536719	0.178439	0.085894
	N262	N	0.461998	0.822185	0.085066
	N263	N	0.536824	0.821442	0.914219
	N264	N	0.462430	0.914576	0.178111
	N265	N	0.537286	0.084487	0.177547
	N266	N	0.462392	0.085240	0.821911
	N267	N	0.537609	0.915589	0.822586
	N268	N	0.914050	0.179128	0.463128
	N269	N	0.085785	0.178439	0.537356
	N270	N	0.086451	0.820959	0.462893
	N271	N	0.914621	0.821471	0.537233
	N272	N	0.178779	0.462016	0.913939
	N273	N	0.178174	0.537168	0.084838
	N274	N	0.821278	0.462740	0.085447
	N275	N	0.821304	0.536797	0.914700
