data_Molecule from HDF5

_cell_length_a		16.560632
_cell_length_b		16.489735
_cell_length_c		16.455875
_cell_angle_alpha	90.111316
_cell_angle_beta	90.234238
_cell_angle_gamma	90.132897
_symmetry_space_group_name_H-M	'P 1'
_symmetry_Int_Tables_number		1

loop_
	_symmetry_equiv_pos_as_xyz
	x,y,z

loop_
	_atom_site_label
	_atom_site_type_symbol
	_atom_site_fract_x
	_atom_site_fract_y
	_atom_site_fract_z
	H0	H	0.400447	0.843207	0.700336
	H1	H	0.611744	0.156731	0.703827
	H2	H	0.611445	0.845246	0.257350
	H3	H	0.404396	0.161483	0.262453
	H4	H	0.726203	0.395518	0.823373
	H5	H	0.729683	0.611252	0.137537
	H6	H	0.282139	0.607552	0.823487
	H7	H	0.283117	0.395168	0.136452
	H8	H	0.850427	0.730173	0.367816
	H9	H	0.160041	0.726421	0.588452
	H10	H	0.848571	0.277733	0.587505
	H11	H	0.162160	0.281799	0.376511
	H12	H	0.846893	0.397247	0.701811
	H13	H	0.160001	0.610271	0.706012
	H14	H	0.850140	0.612840	0.253016
	H15	H	0.160358	0.395572	0.258031
	H16	H	0.398290	0.723391	0.822925
	H17	H	0.613387	0.726255	0.137701
	H18	H	0.609190	0.280215	0.823004
	H19	H	0.402057	0.281897	0.137858
	H20	H	0.730601	0.846420	0.368842
	H21	H	0.729199	0.156831	0.588267
	H22	H	0.282265	0.844794	0.584754
	H23	H	0.286462	0.160838	0.376943
	H24	H	0.898440	0.344030	0.202082
	H25	H	0.109403	0.657871	0.202001
	H26	H	0.104502	0.344277	0.761862
	H27	H	0.897527	0.661008	0.759013
	H28	H	0.222717	0.898117	0.321641
	H29	H	0.224025	0.104735	0.638756
	H30	H	0.781840	0.108248	0.323696
	H31	H	0.781428	0.893466	0.636987
	H32	H	0.347702	0.219283	0.878075
	H33	H	0.663282	0.223739	0.085933
	H34	H	0.349293	0.781202	0.083429
	H35	H	0.662951	0.777844	0.872462
	H36	H	0.348316	0.900370	0.198802
	H37	H	0.663463	0.109120	0.204046
	H38	H	0.348363	0.103643	0.760166
	H39	H	0.662714	0.893817	0.756796
	H40	H	0.899284	0.222889	0.322849
	H41	H	0.104814	0.218016	0.640974
	H42	H	0.107544	0.780960	0.323506
	H43	H	0.899661	0.781224	0.639174
	H44	H	0.224485	0.344492	0.875177
	H45	H	0.227056	0.657627	0.087241
	H46	H	0.782778	0.344530	0.085549
	H47	H	0.780818	0.659523	0.873245
	H48	H	0.411181	0.116674	0.573285
	H49	H	0.587515	0.889321	0.569392
	H50	H	0.599654	0.117411	0.389508
	H51	H	0.411304	0.888149	0.388329
	H52	H	0.593622	0.412359	0.093573
	H53	H	0.588218	0.593180	0.868689
	H54	H	0.414965	0.593040	0.093864
	H55	H	0.409193	0.410272	0.864934
	H56	H	0.114621	0.585058	0.390327
	H57	H	0.892968	0.584074	0.574623
	H58	H	0.117447	0.412476	0.573996
	H59	H	0.889893	0.412280	0.385855
	H60	H	0.116626	0.410458	0.570900
	H61	H	0.889262	0.598649	0.571317
	H62	H	0.116807	0.594433	0.393027
	H63	H	0.892107	0.406781	0.395387
	H64	H	0.416899	0.586906	0.092139
	H65	H	0.597094	0.591052	0.866273
	H66	H	0.595670	0.414902	0.093329
	H67	H	0.414738	0.415711	0.867148
	H68	H	0.585807	0.112272	0.390527
	H69	H	0.592504	0.891507	0.560525
	H70	H	0.421069	0.113196	0.572386
	H71	H	0.414120	0.887838	0.388503
	H72	H	0.920427	0.611325	0.064992
	H73	H	0.097255	0.384772	0.074325
	H74	H	0.093040	0.613979	0.895840
	H75	H	0.909840	0.390556	0.895831
	H76	H	0.090794	0.909426	0.593984
	H77	H	0.098375	0.094312	0.364954
	H78	H	0.920074	0.094272	0.593839
	H79	H	0.923525	0.913893	0.370437
	H80	H	0.620300	0.089890	0.885788
	H81	H	0.390873	0.097230	0.073463
	H82	H	0.615878	0.912772	0.060216
	H83	H	0.396653	0.915173	0.892409
	H84	H	0.616646	0.922949	0.072172
	H85	H	0.395642	0.092624	0.065245
	H86	H	0.619201	0.096851	0.893758
	H87	H	0.393657	0.912274	0.888147
	H88	H	0.910862	0.091245	0.595586
	H89	H	0.095627	0.091420	0.366564
	H90	H	0.100550	0.914434	0.596244
	H91	H	0.914098	0.912728	0.367184
	H92	H	0.097084	0.616142	0.893006
	H93	H	0.086895	0.390188	0.069801
	H94	H	0.914368	0.614195	0.066327
	H95	H	0.913740	0.388294	0.885534
	H96	H	0.414701	0.112562	0.564380
	H97	H	0.597143	0.886514	0.568430
	H98	H	0.595224	0.110760	0.402072
	H99	H	0.413087	0.888765	0.390684
	H100	H	0.592675	0.414991	0.092125
	H101	H	0.592270	0.583839	0.871194
	H102	H	0.421068	0.591845	0.091936
	H103	H	0.417312	0.408587	0.866141
	H104	H	0.111370	0.588742	0.399463
	H105	H	0.895481	0.589875	0.560251
	H106	H	0.115901	0.414034	0.571180
	H107	H	0.895305	0.417642	0.394193
	H108	H	0.919590	0.613776	0.071189
	H109	H	0.097462	0.389435	0.061943
	H110	H	0.092336	0.615876	0.890769
	H111	H	0.920441	0.393046	0.893061
	H112	H	0.092680	0.920371	0.591580
	H113	H	0.094348	0.095574	0.365513
	H114	H	0.917153	0.084753	0.591305
	H115	H	0.916614	0.921201	0.371432
	H116	H	0.616579	0.086551	0.894811
	H117	H	0.394025	0.086999	0.074275
	H118	H	0.621913	0.908549	0.073706
	H119	H	0.394911	0.909644	0.893084
	C120	C	0.383413	0.009996	0.601649
	C121	C	0.626023	0.992249	0.600515
	C122	C	0.626824	0.010151	0.359666
	C123	C	0.383032	0.993390	0.358493
	C124	C	0.626136	0.381239	-0.010906
	C125	C	0.626770	0.623663	0.972130
	C126	C	0.384269	0.622972	-0.011281
	C127	C	0.383297	0.380000	0.970964
	C128	C	0.012111	0.623384	0.359363
	C129	C	0.995705	0.624279	0.602572
	C130	C	0.012793	0.380385	0.603288
	C131	C	0.996295	0.380233	0.359844
	C132	C	0.884387	0.509839	0.100888
	C133	C	0.126333	0.491965	0.101631
	C134	C	0.125293	0.511131	0.860164
	C135	C	0.881923	0.494561	0.858570
	C136	C	0.125699	0.881918	0.489306
	C137	C	0.126404	0.123818	0.471546
	C138	C	0.883263	0.123405	0.489438
	C139	C	0.884039	0.881366	0.472706
	C140	C	0.514528	0.122313	0.859318
	C141	C	0.497533	0.124595	0.103285
	C142	C	0.514309	0.882002	0.100879
	C143	C	0.498203	0.879235	0.857996
	C144	C	0.381347	0.891025	0.661034
	C145	C	0.629943	0.110092	0.662822
	C146	C	0.629346	0.892345	0.297638
	C147	C	0.384427	0.113360	0.301214
	C148	C	0.685986	0.378087	0.870508
	C149	C	0.688545	0.627935	0.090466
	C150	C	0.322805	0.625599	0.870739
	C151	C	0.323518	0.377251	0.089441
	C152	C	0.896615	0.687561	0.352427
	C153	C	0.113352	0.685951	0.606355
	C154	C	0.895144	0.319043	0.605473
	C155	C	0.114525	0.320743	0.357688
	C156	C	0.894221	0.378666	0.662087
	C157	C	0.113104	0.628214	0.664733
	C158	C	0.896448	0.629091	0.294819
	C159	C	0.113640	0.377517	0.298767
	C160	C	0.380760	0.683312	0.870430
	C161	C	0.630845	0.685567	0.090553
	C162	C	0.627915	0.320614	0.870210
	C163	C	0.382616	0.320961	0.090177
	C164	C	0.688821	0.893051	0.353330
	C165	C	0.688254	0.109837	0.605696
	C166	C	0.323044	0.891496	0.603197
	C167	C	0.325664	0.113117	0.358016
	C168	C	0.881178	0.391191	0.161398
	C169	C	0.128615	0.610388	0.162367
	C170	C	0.124459	0.391514	0.801170
	C171	C	0.879403	0.613214	0.798637
	C172	C	0.183790	0.879783	0.369792
	C173	C	0.184259	0.123645	0.591617
	C174	C	0.822241	0.126254	0.371029
	C175	C	0.822375	0.876808	0.590410
	C176	C	0.395318	0.180208	0.858560
	C177	C	0.615983	0.184514	0.105069
	C178	C	0.396036	0.821822	0.102143
	C179	C	0.615960	0.818397	0.855032
	C180	C	0.395695	0.880834	0.159450
	C181	C	0.616124	0.127038	0.163463
	C182	C	0.395632	0.122750	0.799855
	C183	C	0.615797	0.876046	0.797139
	C184	C	0.881036	0.183187	0.370466
	C185	C	0.125084	0.179917	0.592613
	C186	C	0.126436	0.821472	0.370444
	C187	C	0.881303	0.820833	0.591375
	C188	C	0.184134	0.391864	0.857326
	C189	C	0.186896	0.610324	0.105174
	C190	C	0.823340	0.391566	0.103640
	C191	C	0.821027	0.612588	0.855558
	C192	C	0.408450	0.092679	0.577132
	C193	C	0.599634	0.910650	0.573575
	C194	C	0.601088	0.092199	0.386637
	C195	C	0.406101	0.910004	0.382411
	C196	C	0.601184	0.406831	0.071591
	C197	C	0.600283	0.597164	0.890172
	C198	C	0.410262	0.597559	0.071218
	C199	C	0.407148	0.404481	0.887754
	C200	C	0.093220	0.596698	0.386648
	C201	C	0.913849	0.598234	0.576129
	C202	C	0.095045	0.405454	0.578892
	C203	C	0.913820	0.405086	0.384792
	C204	C	0.910522	0.591842	0.075053
	C205	C	0.101115	0.409495	0.075986
	C206	C	0.101091	0.593721	0.885736
	C207	C	0.907435	0.412051	0.884080
	C208	C	0.101318	0.907312	0.572402
	C209	C	0.102935	0.100438	0.387433
	C210	C	0.908633	0.097486	0.572153
	C211	C	0.910522	0.908223	0.390912
	C212	C	0.596971	0.098051	0.884343
	C213	C	0.414826	0.099463	0.078295
	C214	C	0.596693	0.907416	0.075835
	C215	C	0.416452	0.904964	0.883870
	Zn216	Zn	0.506289	0.000329	0.730083
	Zn217	Zn	0.506241	0.002375	0.231046
	Zn218	Zn	0.754677	0.502459	-0.019564
	Zn219	Zn	0.255030	0.501290	-0.019206
	Zn220	Zn	0.003854	0.752866	0.481007
	Zn221	Zn	0.005323	0.251371	0.481194
	Zn222	Zn	0.003260	0.503286	0.731409
	Zn223	Zn	0.004710	0.501238	0.230383
	Zn224	Zn	0.506036	0.751799	-0.019889
	Zn225	Zn	0.505577	0.252066	-0.019512
	Zn226	Zn	0.755415	0.000753	0.480455
	Zn227	Zn	0.254673	0.002345	0.480151
	N228	N	0.418308	0.965708	0.660091
	N229	N	0.592030	0.036022	0.659776
	N230	N	0.591145	0.966268	0.301525
	N231	N	0.419087	0.037780	0.301022
	N232	N	0.684999	0.414911	0.945474
	N233	N	0.686282	0.590395	0.015797
	N234	N	0.324846	0.588607	0.945428
	N235	N	0.323778	0.413226	0.014219
	N236	N	0.969537	0.684010	0.392217
	N237	N	0.039387	0.683558	0.568450
	N238	N	0.969801	0.320101	0.569501
	N239	N	0.040340	0.322195	0.394812
	N240	N	0.968317	0.416150	0.660878
	N241	N	0.039052	0.590667	0.662400
	N242	N	0.969148	0.589370	0.299267
	N243	N	0.038996	0.413640	0.299832
	N244	N	0.418294	0.681898	0.945018
	N245	N	0.593331	0.683347	0.015887
	N246	N	0.591391	0.322412	0.944897
	N247	N	0.418943	0.322342	0.015448
	N248	N	0.687183	0.967260	0.391129
	N249	N	0.685880	0.035731	0.567567
	N250	N	0.324071	0.966500	0.567220
	N251	N	0.324352	0.037318	0.392622
	N252	N	0.918270	0.465850	0.159869
	N253	N	0.091590	0.535872	0.160302
	N254	N	0.088922	0.466710	0.802477
	N255	N	0.916393	0.538679	0.800314
	N256	N	0.183252	0.916612	0.444739
	N257	N	0.185299	0.089733	0.515269
	N258	N	0.823553	0.089774	0.446037
	N259	N	0.823857	0.913490	0.515483
	N260	N	0.470351	0.180245	0.894703
	N261	N	0.541168	0.183089	0.068408
	N262	N	0.470923	0.822332	0.066670
	N263	N	0.541588	0.819861	0.891941
	N264	N	0.470297	0.917318	0.158787
	N265	N	0.541433	0.090572	0.162546
	N266	N	0.470812	0.087606	0.800054
	N267	N	0.541566	0.913036	0.798867
	N268	N	0.917936	0.181692	0.445415
	N269	N	0.090362	0.180454	0.516746
	N270	N	0.091053	0.822576	0.445819
	N271	N	0.918757	0.823400	0.517034
	N272	N	0.184997	0.467274	0.892892
	N273	N	0.185656	0.535637	0.068277
	N274	N	0.825017	0.466358	0.066949
	N275	N	0.822512	0.537769	0.892115
	O276	O	-0.113289	0.178764	0.113096
	H277	H	-0.120339	0.179002	0.096344
	H278	H	-0.128391	0.189071	0.109496
	O279	O	0.726716	0.718684	0.494937
	H280	H	0.760646	0.753510	0.502363
	H281	H	0.712682	0.706111	0.525608
	O282	O	0.985694	0.937206	0.073786
	H283	H	0.998122	0.944960	0.063751
	H284	H	0.961163	0.933358	0.076286
	O285	O	0.518193	0.619072	0.449418
	H286	H	0.495155	0.612855	0.461072
	H287	H	0.529044	0.627169	0.460252
	O288	O	-0.574789	0.502979	0.310240
	H289	H	-0.550438	0.498428	0.311849
	H290	H	-0.577429	0.510404	0.302394
	O291	O	1.339052	1.657046	1.611053
	H292	H	1.329568	1.640090	1.595739
	H293	H	1.344970	1.640044	1.611134
	O294	O	0.144711	0.823170	0.161660
	H295	H	0.151068	0.838454	0.163993
	H296	H	0.141603	0.832826	0.132288
	O297	O	0.530765	0.303072	1.279748
	H298	H	0.512701	0.311661	1.271247
	H299	H	0.519882	0.297521	1.278277
	O300	O	0.434333	0.374693	0.433652
	H301	H	0.434889	0.398687	0.439338
	H302	H	0.421018	0.374944	0.439296
	O303	O	0.706341	0.514512	0.678072
	H304	H	0.697327	0.497793	0.653305
	H305	H	0.730992	0.522803	0.700371
	O306	O	0.151589	1.098270	1.102083
	H307	H	0.156406	1.099476	1.080157
	H308	H	0.134439	1.112020	1.093584
	O309	O	0.306622	0.518053	0.403313
	H310	H	0.287147	0.511571	0.378069
	H311	H	0.321359	0.504383	0.410836
	O312	O	0.708478	0.433154	0.520640
	H313	H	0.691845	0.434763	0.517548
	H314	H	0.718957	0.443349	0.495083
	O315	O	0.149210	-0.031148	0.775259
	H316	H	0.160475	-0.042516	0.752902
	H317	H	0.158002	-0.057079	0.789114
	O318	O	-0.153367	0.978332	-0.063095
	H319	H	-0.154256	0.994069	-0.071944
	H320	H	-0.144250	0.973947	-0.054581
	O321	O	-0.366508	1.362778	1.305785
	H322	H	-0.360405	1.355387	1.337994
	H323	H	-0.403834	1.357687	1.297451
	O324	O	0.918059	0.095766	0.847951
	H325	H	0.913473	0.107898	0.856806
	H326	H	0.899249	0.107840	0.834157
	O327	O	1.198121	-0.187736	0.788899
	H328	H	1.189425	-0.202053	0.788932
	H329	H	1.198355	-0.188006	0.796848
	O330	O	1.062717	0.180901	0.047596
	H331	H	1.067877	0.174108	0.061457
	H332	H	1.071865	0.177019	0.071907
	O333	O	0.351204	0.722783	0.469654
	H334	H	0.335248	0.724675	0.463394
	H335	H	0.343883	0.728525	0.493194
	O336	O	1.113097	0.206950	1.184939
	H337	H	1.119796	0.233557	1.211421
	H338	H	1.108445	0.207061	1.148568
	O339	O	-0.206951	-0.213932	1.006863
	H340	H	-0.210436	-0.225514	0.990198
	H341	H	-0.223986	-0.212018	0.991252
	O342	O	0.622411	0.383496	0.688239
	H343	H	0.598238	0.395200	0.679674
	H344	H	0.614910	0.380826	0.673483
	O345	O	0.187360	0.176320	-0.194304
	H346	H	0.184062	0.155297	-0.178899
	H347	H	0.167558	0.162412	-0.180009
	O348	O	0.422454	0.568137	0.348997
	H349	H	0.399309	0.574979	0.340025
	H350	H	0.426422	0.590368	0.339284
	O351	O	0.973226	1.054686	-0.065478
	H352	H	0.963332	1.054020	-0.051107
	H353	H	0.959766	1.063137	-0.077610
	O354	O	0.495370	0.660661	0.274442
	H355	H	0.499579	0.663216	0.283475
	H356	H	0.516701	0.663356	0.279943
	O357	O	0.903495	1.212703	0.939063
	H358	H	0.922578	1.218698	0.950524
	H359	H	0.891687	1.207828	0.951841
	O360	O	0.284277	0.467936	0.695759
	H361	H	0.266332	0.462601	0.710324
	H362	H	0.279385	0.434810	0.698192
	O363	O	0.298859	0.297379	0.685081
	H364	H	0.353667	0.290016	0.693009
	H365	H	0.275299	0.278615	0.715346
	O366	O	1.014278	-0.130581	0.925405
	H367	H	1.027056	-0.133095	0.923331
	H368	H	1.006394	-0.121506	0.932808
	O369	O	0.622495	0.313004	0.604353
	H370	H	0.613974	0.321914	0.580384
	H371	H	0.616477	0.316209	0.588325
	O372	O	0.480405	0.289736	0.453440
	H373	H	0.466998	0.313986	0.460190
	H374	H	0.471451	0.286013	0.440545
	O375	O	-0.265018	1.553348	1.422907
	H376	H	-0.264028	1.555305	1.413408
	H377	H	-0.261430	1.575922	1.417849
	O378	O	0.465039	0.291127	0.692123
	H379	H	0.487137	0.286921	0.691593
	H380	H	0.481949	0.281207	0.686886
	O381	O	1.282500	-0.717925	-0.485425
	H382	H	1.279061	-0.717433	-0.447760
	H383	H	1.262309	-0.742310	-0.470874
	O384	O	-0.093348	0.207502	1.082399
	H385	H	-0.094096	0.210172	1.079227
	H386	H	-0.085100	0.215558	1.084145
	O387	O	-0.033937	0.969399	0.832712
	H388	H	-0.032518	0.985821	0.841193
	H389	H	-0.021326	0.962034	0.816389
	O390	O	0.033420	-0.042473	1.071606
	H391	H	0.034571	-0.031955	1.084623
	H392	H	0.028882	-0.055473	1.064962
	O393	O	1.192786	1.014469	-0.132985
	H394	H	1.195383	1.013545	-0.128532
	H395	H	1.190993	1.006533	-0.138943
	O396	O	0.482341	0.702307	-0.502248
	H397	H	0.485146	0.696130	-0.488478
	H398	H	0.474773	0.708420	-0.489822
	O399	O	0.810773	0.908052	1.168047
	H400	H	0.818484	0.897445	1.179621
	H401	H	0.812363	0.879144	1.144678
	O402	O	0.210363	-0.130086	1.003870
	H403	H	0.213684	-0.124154	0.999830
	H404	H	0.213707	-0.122975	1.003577
	O405	O	-0.055930	-0.037653	-0.086494
	H406	H	-0.057996	-0.045088	-0.078566
	H407	H	-0.065760	-0.029742	-0.083230
	O408	O	0.917034	0.815091	1.170830
	H409	H	0.932109	0.822920	1.166160
	H410	H	0.930667	0.800505	1.164023
	O411	O	1.285732	0.564619	0.472120
	H412	H	1.275158	0.564609	0.468600
	H413	H	1.284013	0.545210	0.473810
	O414	O	0.727590	0.478926	0.263115
	H415	H	0.755074	0.473343	0.237701
	H416	H	0.728241	0.450166	0.275131
	O417	O	0.206007	-0.056692	0.980126
	H418	H	0.217222	-0.059090	0.988808
	H419	H	0.188120	-0.052423	0.993478
	O420	O	0.438569	0.559573	0.697223
	H421	H	0.407376	0.545692	0.695649
	H422	H	0.448997	0.546600	0.690978
	O423	O	-0.113563	0.202787	0.783558
	H424	H	-0.104050	0.197538	0.797001
	H425	H	-0.116915	0.224869	0.780516
	O426	O	0.900823	1.007242	1.145671
	H427	H	0.894314	0.982536	1.138489
	H428	H	0.894460	0.998106	1.166923
	O429	O	0.220716	0.035202	0.197963
	H430	H	0.200810	0.058467	0.197210
	H431	H	0.252183	0.042044	0.230729
	O432	O	0.474837	0.475894	0.611862
	H433	H	0.468613	0.467863	0.589317
	H434	H	0.497545	0.472991	0.614601
	O435	O	0.534129	-0.288203	-0.310028
	H436	H	0.529821	-0.267757	-0.279425
	H437	H	0.522479	-0.310658	-0.314038
	O438	O	0.721387	-0.709522	-0.530587
	H439	H	0.749232	-0.736108	-0.532133
	H440	H	0.713661	-0.689289	-0.528381
	O441	O	0.724723	0.721018	0.687744
	H442	H	0.680453	0.732033	0.695736
	H443	H	0.736750	0.695798	0.701704
	O444	O	0.586803	1.500949	0.523313
	H445	H	0.582641	1.499158	0.518585
	H446	H	0.601275	1.511664	0.493105
	O447	O	0.424191	0.511839	0.350393
	H448	H	0.412269	0.540595	0.354889
	H449	H	0.445560	0.522851	0.354864
	O450	O	0.055762	0.820695	0.883514
	H451	H	0.060555	0.825191	0.882519
	H452	H	0.043504	0.809442	0.878601
	O453	O	0.797462	0.100434	0.774403
	H454	H	0.780549	0.118335	0.756473
	H455	H	0.811111	0.115446	0.776191
	O456	O	1.269029	0.271064	0.227308
	H457	H	1.256602	0.281864	0.244107
	H458	H	1.284643	0.280406	0.242900
	O459	O	0.441637	0.602739	0.261416
	H460	H	0.445928	0.619574	0.244604
	H461	H	0.465875	0.611099	0.266302
	O462	O	0.268810	0.738552	0.246863
	H463	H	0.271106	0.743188	0.242510
	H464	H	0.283255	0.745497	0.254931
	O465	O	0.825911	0.021042	-0.078770
	H466	H	0.836149	0.016996	-0.083209
	H467	H	0.823898	0.026811	-0.066505
