data_Molecule from HDF5

_cell_length_a		16.319722
_cell_length_b		16.277442
_cell_length_c		16.412109
_cell_angle_alpha	90.115830
_cell_angle_beta	90.072142
_cell_angle_gamma	89.862959
_symmetry_space_group_name_H-M	'P 1'
_symmetry_Int_Tables_number		1

loop_
	_symmetry_equiv_pos_as_xyz
	x,y,z

loop_
	_atom_site_label
	_atom_site_type_symbol
	_atom_site_fract_x
	_atom_site_fract_y
	_atom_site_fract_z
	H0	H	0.415222	0.830604	0.693187
	H1	H	0.621589	0.152744	0.693668
	H2	H	0.620833	0.830575	0.255660
	H3	H	0.413369	0.153093	0.255336
	H4	H	0.737012	0.389673	0.812949
	H5	H	0.738619	0.594118	0.134007
	H6	H	0.300460	0.594590	0.814315
	H7	H	0.301932	0.389214	0.135323
	H8	H	0.857734	0.706732	0.375739
	H9	H	0.182382	0.709300	0.576873
	H10	H	0.855994	0.277054	0.572521
	H11	H	0.181255	0.271541	0.371942
	H12	H	0.857783	0.390497	0.692434
	H13	H	0.181856	0.595125	0.694197
	H14	H	0.859720	0.595244	0.255408
	H15	H	0.181199	0.386752	0.255223
	H16	H	0.419351	0.707270	0.812456
	H17	H	0.621184	0.708740	0.134989
	H18	H	0.622057	0.273194	0.813404
	H19	H	0.417947	0.273401	0.135125
	H20	H	0.735414	0.829540	0.372737
	H21	H	0.735756	0.154417	0.576424
	H22	H	0.302085	0.829219	0.576454
	H23	H	0.300388	0.152896	0.372445
	H24	H	0.919137	0.330376	0.192236
	H25	H	0.124442	0.651815	0.194780
	H26	H	0.125887	0.330758	0.754086
	H27	H	0.917158	0.653247	0.756145
	H28	H	0.239664	0.886263	0.313817
	H29	H	0.239505	0.094146	0.633956
	H30	H	0.799780	0.094907	0.313379
	H31	H	0.800957	0.890183	0.634876
	H32	H	0.357980	0.210602	0.872505
	H33	H	0.682333	0.206753	0.074675
	H34	H	0.357280	0.773953	0.075622
	H35	H	0.681010	0.774366	0.873848
	H36	H	0.357005	0.890299	0.191462
	H37	H	0.679059	0.095362	0.194323
	H38	H	0.358401	0.095943	0.754707
	H39	H	0.680588	0.888831	0.756186
	H40	H	0.916418	0.210861	0.313400
	H41	H	0.121960	0.210049	0.634835
	H42	H	0.121409	0.772650	0.312837
	H43	H	0.918932	0.774419	0.635867
	H44	H	0.239454	0.329606	0.872304
	H45	H	0.237330	0.653276	0.077180
	H46	H	0.803941	0.329279	0.074792
	H47	H	0.803070	0.653778	0.872887
	H48	H	0.424102	0.107848	0.563491
	H49	H	0.615355	0.873468	0.568448
	H50	H	0.610498	0.108595	0.381713
	H51	H	0.426711	0.874687	0.381501
	H52	H	0.611126	0.391417	0.090993
	H53	H	0.609202	0.580546	0.860430
	H54	H	0.429910	0.578770	0.087390
	H55	H	0.425888	0.407948	0.861640
	H56	H	0.135099	0.576109	0.380780
	H57	H	0.907784	0.577844	0.567600
	H58	H	0.135409	0.402105	0.570683
	H59	H	0.905708	0.401521	0.382787
	H60	H	0.135151	0.395612	0.563575
	H61	H	0.903916	0.585118	0.568985
	H62	H	0.138933	0.587435	0.379409
	H63	H	0.905396	0.402654	0.382679
	H64	H	0.432542	0.586671	0.088358
	H65	H	0.611161	0.585565	0.858312
	H66	H	0.620735	0.403087	0.090167
	H67	H	0.436854	0.401520	0.863436
	H68	H	0.607049	0.106171	0.383198
	H69	H	0.604274	0.877932	0.567735
	H70	H	0.431917	0.106386	0.569173
	H71	H	0.433426	0.876888	0.379733
	H72	H	0.932629	0.604458	0.059846
	H73	H	0.105621	0.378096	0.063531
	H74	H	0.110795	0.606457	0.885643
	H75	H	0.925019	0.376580	0.888077
	H76	H	0.111011	0.911987	0.584891
	H77	H	0.110770	0.081705	0.358856
	H78	H	0.926643	0.082468	0.588635
	H79	H	0.928013	0.896448	0.359578
	H80	H	0.636912	0.093147	0.884716
	H81	H	0.405799	0.079050	0.062910
	H82	H	0.631583	0.898495	0.059055
	H83	H	0.402744	0.900543	0.875760
	H84	H	0.632743	0.907481	0.067247
	H85	H	0.402552	0.083168	0.068492
	H86	H	0.628526	0.074670	0.892921
	H87	H	0.402769	0.894243	0.886149
	H88	H	0.928061	0.083356	0.587581
	H89	H	0.109819	0.077776	0.361983
	H90	H	0.101373	0.895674	0.586652
	H91	H	0.924105	0.899179	0.359611
	H92	H	0.109584	0.606858	0.882716
	H93	H	0.113757	0.376521	0.060684
	H94	H	0.923803	0.608377	0.064437
	H95	H	0.927994	0.374491	0.876573
	H96	H	0.432366	0.103922	0.559736
	H97	H	0.611022	0.878692	0.558061
	H98	H	0.610651	0.107580	0.385770
	H99	H	0.431141	0.878500	0.386545
	H100	H	0.606396	0.405394	0.086118
	H101	H	0.614839	0.580801	0.858385
	H102	H	0.424525	0.583858	0.090473
	H103	H	0.427251	0.396198	0.858097
	H104	H	0.134009	0.583941	0.389699
	H105	H	0.906166	0.583393	0.561422
	H106	H	0.131193	0.405141	0.561074
	H107	H	0.905477	0.401594	0.381881
	H108	H	0.932476	0.607334	0.070141
	H109	H	0.111615	0.374618	0.069325
	H110	H	0.108866	0.604792	0.884866
	H111	H	0.935939	0.378069	0.884506
	H112	H	0.119603	0.896925	0.592084
	H113	H	0.106787	0.081305	0.360237
	H114	H	0.926877	0.084422	0.588344
	H115	H	0.928916	0.901436	0.360851
	H116	H	0.635714	0.075330	0.872271
	H117	H	0.404056	0.086192	0.061443
	H118	H	0.635846	0.896428	0.070508
	H119	H	0.406319	0.905760	0.886106
	C120	C	0.398392	-0.000330	0.595085
	C121	C	0.640563	0.983480	0.595747
	C122	C	0.639918	0.000563	0.352761
	C123	C	0.397993	0.983085	0.352417
	C124	C	0.642638	0.369272	-0.017087
	C125	C	0.641964	0.613020	0.965390
	C126	C	0.397795	0.613778	-0.017339
	C127	C	0.399433	0.370812	0.966790
	C128	C	0.029182	0.612806	0.353162
	C129	C	1.012336	0.613340	0.596920
	C130	C	0.027497	0.370377	0.595506
	C131	C	1.011802	0.370063	0.352247
	C132	C	0.898849	0.500015	0.095664
	C133	C	0.141177	0.483125	0.095637
	C134	C	0.141641	0.499691	0.853276
	C135	C	0.898817	0.483248	0.852936
	C136	C	0.141486	0.869508	0.482171
	C137	C	0.140609	0.111931	0.466158
	C138	C	0.896738	0.113748	0.482084
	C139	C	0.897408	0.869523	0.466511
	C140	C	0.527257	0.112756	0.852598
	C141	C	0.510790	0.113082	0.095249
	C142	C	0.526728	0.870642	0.095417
	C143	C	0.510570	0.869587	0.852322
	C144	C	0.396617	0.878703	0.654145
	C145	C	0.640907	0.104691	0.654352
	C146	C	0.639879	0.878817	0.295021
	C147	C	0.395374	0.104632	0.294302
	C148	C	0.699414	0.369457	0.861587
	C149	C	0.699488	0.613250	0.086235
	C150	C	0.339722	0.613608	0.862221
	C151	C	0.340993	0.369938	0.087286
	C152	C	0.906619	0.669024	0.355000
	C153	C	0.133745	0.671089	0.596992
	C154	C	0.905265	0.314014	0.593964
	C155	C	0.132923	0.310845	0.352425
	C156	C	0.906085	0.370474	0.653475
	C157	C	0.133434	0.613918	0.655246
	C158	C	0.907673	0.613547	0.295237
	C159	C	0.133116	0.368401	0.294488
	C160	C	0.399032	0.669723	0.861355
	C161	C	0.641537	0.670599	0.086460
	C162	C	0.641874	0.311652	0.861821
	C163	C	0.398819	0.312307	0.086931
	C164	C	0.696998	0.878373	0.353299
	C165	C	0.697469	0.105421	0.595819
	C166	C	0.340367	0.877979	0.595782
	C167	C	0.339249	0.104497	0.352957
	C168	C	0.899304	0.378545	0.153318
	C169	C	0.143101	0.603860	0.155167
	C170	C	0.143983	0.378654	0.794052
	C171	C	0.898487	0.604658	0.795401
	C172	C	0.199820	0.868134	0.361588
	C173	C	0.199664	0.113287	0.586336
	C174	C	0.838878	0.114020	0.361416
	C175	C	0.840162	0.870565	0.587178
	C176	C	0.406209	0.171478	0.852702
	C177	C	0.633057	0.168926	0.094654
	C178	C	0.405478	0.812562	0.095305
	C179	C	0.632535	0.812653	0.853464
	C180	C	0.405439	0.870704	0.152741
	C181	C	0.631446	0.113706	0.154356
	C182	C	0.406311	0.114271	0.794277
	C183	C	0.632018	0.869657	0.794987
	C184	C	0.896942	0.171607	0.361417
	C185	C	0.141154	0.170867	0.586621
	C186	C	0.140890	0.811500	0.361200
	C187	C	0.898655	0.812732	0.587568
	C188	C	0.200601	0.378285	0.852824
	C189	C	0.199084	0.604555	0.096395
	C190	C	0.842200	0.377905	0.094931
	C191	C	0.841569	0.605080	0.853457
	C192	C	0.422427	0.084036	0.571009
	C193	C	0.617102	0.898802	0.571785
	C194	C	0.616232	0.085531	0.376576
	C195	C	0.423099	0.898733	0.375801
	C196	C	0.619461	0.393160	0.067050
	C197	C	0.618619	0.589226	0.880927
	C198	C	0.421871	0.589942	0.067000
	C199	C	0.422927	0.394956	0.882895
	C200	C	0.113836	0.589302	0.376481
	C201	C	0.927844	0.589136	0.572912
	C202	C	0.111967	0.394126	0.572054
	C203	C	0.927495	0.394601	0.375539
	C204	C	0.922793	0.584649	0.071679
	C205	C	0.117109	0.398424	0.071438
	C206	C	0.116868	0.584017	0.877341
	C207	C	0.922603	0.398392	0.876477
	C208	C	0.117501	0.894297	0.566113
	C209	C	0.116314	0.087316	0.382398
	C210	C	0.920329	0.090135	0.566279
	C211	C	0.920582	0.892334	0.382068
	C212	C	0.611843	0.088207	0.876380
	C213	C	0.426066	0.089719	0.071301
	C214	C	0.611299	0.894082	0.072232
	C215	C	0.425986	0.893208	0.875830
	Zn216	Zn	0.518719	-0.008460	0.723660
	Zn217	Zn	0.518445	-0.007720	0.224269
	Zn218	Zn	0.769992	0.491236	-0.025999
	Zn219	Zn	0.269736	0.491227	-0.024907
	Zn220	Zn	0.020213	0.740613	0.474922
	Zn221	Zn	0.019324	0.241659	0.473455
	Zn222	Zn	0.020438	0.491503	0.724850
	Zn223	Zn	0.020819	0.491732	0.223956
	Zn224	Zn	0.519351	0.741240	-0.025678
	Zn225	Zn	0.520055	0.241380	-0.025816
	Zn226	Zn	0.768099	-0.008149	0.474007
	Zn227	Zn	0.270238	-0.009617	0.473957
	N228	N	0.431819	0.955264	0.653962
	N229	N	0.606236	0.027795	0.654422
	N230	N	0.605103	0.955902	0.294434
	N231	N	0.431305	0.028224	0.293933
	N232	N	0.699980	0.404531	0.937805
	N233	N	0.699987	0.578392	0.009875
	N234	N	0.338804	0.579568	0.938818
	N235	N	0.341035	0.405630	0.011418
	N236	N	0.982963	0.668717	0.390125
	N237	N	0.057596	0.670667	0.561272
	N238	N	0.981778	0.313740	0.558785
	N239	N	0.056568	0.311822	0.387563
	N240	N	0.983180	0.404442	0.654762
	N241	N	0.056690	0.578998	0.655601
	N242	N	0.984959	0.579352	0.293792
	N243	N	0.056921	0.404713	0.294347
	N244	N	0.434205	0.669920	0.937485
	N245	N	0.606355	0.670572	0.010319
	N246	N	0.607430	0.311058	0.938290
	N247	N	0.434410	0.312873	0.011215
	N248	N	0.697142	0.955280	0.388159
	N249	N	0.697384	0.028954	0.560056
	N250	N	0.341214	0.954242	0.559736
	N251	N	0.340506	0.027839	0.388082
	N252	N	0.933913	0.455377	0.153773
	N253	N	0.107750	0.527351	0.154671
	N254	N	0.107929	0.455045	0.794268
	N255	N	0.933486	0.527843	0.795023
	N256	N	0.200300	0.903384	0.437818
	N257	N	0.199571	0.077611	0.510417
	N258	N	0.838781	0.078614	0.437502
	N259	N	0.839140	0.904985	0.510873
	N260	N	0.482623	0.170630	0.888175
	N261	N	0.556976	0.168930	0.058675
	N262	N	0.481939	0.812508	0.060116
	N263	N	0.556058	0.812438	0.888293
	N264	N	0.481825	0.905932	0.153099
	N265	N	0.554366	0.079836	0.154831
	N266	N	0.482536	0.078432	0.794267
	N267	N	0.555220	0.904611	0.794207
	N268	N	0.931994	0.171675	0.437480
	N269	N	0.105045	0.170073	0.510830
	N270	N	0.105332	0.812236	0.437197
	N271	N	0.933609	0.812091	0.511463
	N272	N	0.199040	0.454401	0.889123
	N273	N	0.198084	0.528273	0.060191
	N274	N	0.841833	0.454654	0.059786
	N275	N	0.841698	0.528493	0.888724
	O276	O	0.530042	0.354167	0.591165
	H277	H	0.511573	0.360873	0.591487
	H278	H	0.514322	0.329780	0.580628
	O279	O	-0.126099	0.739229	0.716581
	H280	H	-0.113915	0.727050	0.717609
	H281	H	-0.115794	0.735929	0.721758
	O282	O	0.988429	-0.063482	0.968249
	H283	H	0.992419	-0.053832	0.967638
	H284	H	0.995525	-0.072394	0.966709
	O285	O	0.522665	0.583408	0.639718
	H286	H	0.534113	0.589149	0.658425
	H287	H	0.518082	0.562637	0.630343
	O288	O	0.578977	1.460073	1.418436
	H289	H	0.574410	1.446331	1.415737
	H290	H	0.575652	1.458604	1.413075
	O291	O	0.119330	0.922229	-0.106790
	H292	H	0.114866	0.936515	-0.109627
	H293	H	0.129590	0.914228	-0.112605
	O294	O	0.454641	0.491555	0.472607
	H295	H	0.464158	0.495971	0.490940
	H296	H	0.459231	0.492983	0.477126
	O297	O	0.547994	0.551702	0.333843
	H298	H	0.548954	0.551410	0.346730
	H299	H	0.548355	0.556286	0.319553
	O300	O	0.687379	0.540351	0.652436
	H301	H	0.701000	0.533788	0.655329
	H302	H	0.670667	0.552236	0.650122
	O303	O	-0.047814	0.907100	1.130369
	H304	H	-0.031847	0.899613	1.145471
	H305	H	-0.048990	0.932894	1.123447
	O306	O	0.488851	0.507617	0.404219
	H307	H	0.479566	0.504706	0.398940
	H308	H	0.480262	0.511707	0.394573
	O309	O	1.123028	1.097711	0.051941
	H310	H	1.106649	1.092292	0.055853
	H311	H	1.128039	1.117729	0.050487
	O312	O	-0.058931	-0.149166	0.101460
	H313	H	-0.052832	-0.155049	0.082144
	H314	H	-0.053614	-0.148886	0.106601
	O315	O	0.559648	0.552713	0.581836
	H316	H	0.571129	0.557469	0.588553
	H317	H	0.557677	0.547623	0.589587
	O318	O	0.030756	1.012095	1.012875
	H319	H	0.014670	1.007945	1.012609
	H320	H	0.039986	1.006041	1.010456
	O321	O	0.455478	0.370435	0.471077
	H322	H	0.456292	0.371256	0.453175
	H323	H	0.456115	0.368156	0.460897
	O324	O	0.116067	0.983694	-0.106889
	H325	H	0.126162	0.976254	-0.094861
	H326	H	0.109450	0.991703	-0.118201
	O327	O	0.374107	0.416645	0.349510
	H328	H	0.378025	0.408377	0.337091
	H329	H	0.380974	0.433350	0.356647
	O330	O	-0.036115	-0.080183	0.960313
	H331	H	-0.026020	-0.077443	0.952064
	H332	H	-0.026304	-0.086147	0.962472
	O333	O	-0.506667	-0.331135	1.454378
	H334	H	-0.512244	-0.329902	1.444502
	H335	H	-0.517953	-0.330555	1.458399
	O336	O	0.054853	1.052990	1.032476
	H337	H	0.051329	1.045791	1.036331
	H338	H	0.050126	1.034806	1.042177
	O339	O	0.995180	-0.108916	0.094236
	H340	H	1.003747	-0.108735	0.097218
	H341	H	0.987187	-0.098419	0.094532
	O342	O	0.148381	-0.063817	0.091556
	H343	H	0.154252	-0.050930	0.097414
	H344	H	0.159333	-0.065574	0.080047
	O345	O	0.902931	0.119884	0.826957
	H346	H	0.902386	0.124824	0.824095
	H347	H	0.901914	0.124883	0.842467
	O348	O	0.512001	1.495017	0.517697
	H349	H	0.526324	1.481885	0.513116
	H350	H	0.511377	1.494907	0.518078
	O351	O	0.430504	0.411773	0.639958
	H352	H	0.425679	0.398157	0.624038
	H353	H	0.428752	0.428786	0.634125
	O354	O	0.870706	0.083709	0.914704
	H355	H	0.874536	0.086970	0.904991
	H356	H	0.863986	0.088537	0.914227
	O357	O	0.397986	0.530038	0.549625
	H358	H	0.400735	0.533638	0.554178
	H359	H	0.402470	0.532514	0.545379
	O360	O	-0.147373	-0.042423	0.865666
	H361	H	-0.155030	-0.043775	0.869296
	H362	H	-0.149558	-0.047540	0.875948
	O363	O	0.331149	1.552714	0.505434
	H364	H	0.329190	1.560179	0.508540
	H365	H	0.327544	1.555941	0.518389
	O366	O	0.521044	0.326291	0.344018
	H367	H	0.532822	0.319174	0.341293
	H368	H	0.545537	0.321812	0.331100
	O369	O	-0.375553	0.658548	0.483170
	H370	H	-0.372405	0.672817	0.488967
	H371	H	-0.370718	0.667311	0.495433
	O372	O	0.639372	-0.588502	0.517577
	H373	H	0.633133	-0.590595	0.535012
	H374	H	0.634431	-0.585151	0.517118
	O375	O	0.662953	0.367611	0.347260
	H376	H	0.652639	0.372793	0.363582
	H377	H	0.677955	0.376354	0.332590
	O378	O	0.607214	1.408424	0.458274
	H379	H	0.603847	1.401652	0.456140
	H380	H	0.609456	1.393000	0.465129
	O381	O	1.205510	0.006766	-0.062879
	H382	H	1.213917	0.014625	-0.067020
	H383	H	1.205452	0.009362	-0.053237
	O384	O	0.947842	1.098110	-0.189151
	H385	H	0.944769	1.101998	-0.199603
	H386	H	0.929672	1.090905	-0.191070
	O387	O	-0.163124	-0.062054	0.003888
	H388	H	-0.174573	-0.061145	0.022275
	H389	H	-0.143660	-0.057029	0.002714
	O390	O	0.137405	0.840393	-0.062000
	H391	H	0.132212	0.842337	-0.052573
	H392	H	0.153958	0.847693	-0.071262
	O393	O	1.021079	0.933974	0.975424
	H394	H	1.030987	0.941774	0.967489
	H395	H	1.022056	0.919624	0.976650
	O396	O	0.020110	0.186715	1.988590
	H397	H	0.011330	0.202366	1.971837
	H398	H	0.005017	0.190142	1.984938
	O399	O	0.083757	1.147407	1.091089
	H400	H	0.082291	1.147487	1.088590
	H401	H	0.092163	1.139441	1.091509
	O402	O	0.621405	0.454629	0.341223
	H403	H	0.628639	0.474730	0.345067
	H404	H	0.631857	0.453039	0.340509
	O405	O	1.031963	-0.047375	-0.058787
	H406	H	1.025918	-0.055663	-0.059085
	H407	H	1.030587	-0.042954	-0.060292
	O408	O	0.579287	0.484420	0.361327
	H409	H	0.583125	0.486264	0.353244
	H410	H	0.580294	0.495250	0.359534
	O411	O	0.864951	-0.000866	1.089172
	H412	H	0.878141	-0.008170	1.089070
	H413	H	0.846987	-0.000021	1.084849
	O414	O	0.371496	0.652095	0.393725
	H415	H	0.368569	0.656431	0.407801
	H416	H	0.384555	0.648788	0.404492
	O417	O	1.105486	1.071012	0.876597
	H418	H	1.098369	1.091085	0.867413
	H419	H	1.092485	1.056027	0.882398
