data_Molecule from HDF5

_cell_length_a		16.224644
_cell_length_b		16.274439
_cell_length_c		16.231607
_cell_angle_alpha	90.160943
_cell_angle_beta	89.537665
_cell_angle_gamma	90.302614
_symmetry_space_group_name_H-M	'P 1'
_symmetry_Int_Tables_number		1

loop_
	_symmetry_equiv_pos_as_xyz
	x,y,z

loop_
	_atom_site_label
	_atom_site_type_symbol
	_atom_site_fract_x
	_atom_site_fract_y
	_atom_site_fract_z
	H0	H	0.397381	0.833833	0.706927
	H1	H	0.598990	0.161213	0.707740
	H2	H	0.597130	0.834194	0.277783
	H3	H	0.402893	0.161824	0.278106
	H4	H	0.714135	0.398145	0.828212
	H5	H	0.712301	0.598743	0.155939
	H6	H	0.289126	0.592366	0.826982
	H7	H	0.282088	0.398764	0.156342
	H8	H	0.834858	0.711623	0.394480
	H9	H	0.163475	0.714711	0.589511
	H10	H	0.836009	0.283607	0.593119
	H11	H	0.162973	0.283761	0.389463
	H12	H	0.835936	0.399449	0.707636
	H13	H	0.163946	0.599881	0.705452
	H14	H	0.834359	0.597745	0.278466
	H15	H	0.163209	0.400585	0.274025
	H16	H	0.399247	0.712507	0.829116
	H17	H	0.597999	0.714457	0.155137
	H18	H	0.599706	0.281296	0.828615
	H19	H	0.397322	0.282721	0.156520
	H20	H	0.713342	0.834856	0.391156
	H21	H	0.715373	0.161529	0.591522
	H22	H	0.280153	0.835005	0.591753
	H23	H	0.286752	0.162710	0.394366
	H24	H	0.896600	0.335738	0.208668
	H25	H	0.097522	0.662607	0.204273
	H26	H	0.098067	0.335304	0.773996
	H27	H	0.902902	0.662735	0.779508
	H28	H	0.212748	0.900961	0.327062
	H29	H	0.212995	0.100679	0.655275
	H30	H	0.787344	0.094910	0.326908
	H31	H	0.783141	0.900161	0.655721
	H32	H	0.335197	0.210660	0.894126
	H33	H	0.661880	0.214536	0.092165
	H34	H	0.334655	0.783402	0.091870
	H35	H	0.662437	0.782639	0.891363
	H36	H	0.335381	0.898700	0.208145
	H37	H	0.663883	0.096654	0.204667
	H38	H	0.334585	0.095714	0.779358
	H39	H	0.662864	0.898156	0.775418
	H40	H	0.899693	0.213835	0.328665
	H41	H	0.099050	0.216397	0.654266
	H42	H	0.098871	0.783994	0.327769
	H43	H	0.898748	0.784270	0.656365
	H44	H	0.213622	0.333856	0.890076
	H45	H	0.215173	0.661336	0.090561
	H46	H	0.781758	0.334757	0.092458
	H47	H	0.784853	0.661761	0.894347
	H48	H	0.396848	0.116356	0.585976
	H49	H	0.587998	0.884141	0.579604
	H50	H	0.588344	0.116106	0.388589
	H51	H	0.410359	0.884631	0.404342
	H52	H	0.592077	0.406965	0.109326
	H53	H	0.591451	0.579153	0.878976
	H54	H	0.405067	0.588005	0.109003
	H55	H	0.400599	0.401753	0.872623
	H56	H	0.116648	0.595906	0.398380
	H57	H	0.877343	0.604098	0.591703
	H58	H	0.114964	0.413892	0.584380
	H59	H	0.884722	0.405742	0.405158
	H60	H	0.119543	0.402561	0.585601
	H61	H	0.886549	0.589979	0.574161
	H62	H	0.113965	0.588856	0.400775
	H63	H	0.882839	0.409604	0.397298
	H64	H	0.408029	0.589469	0.108403
	H65	H	0.583360	0.597336	0.875645
	H66	H	0.586205	0.406010	0.108626
	H67	H	0.409893	0.408734	0.878874
	H68	H	0.588668	0.111919	0.408555
	H69	H	0.595147	0.880538	0.582541
	H70	H	0.411374	0.115263	0.594543
	H71	H	0.397705	0.879922	0.401433
	H72	H	0.908726	0.614486	0.085105
	H73	H	0.085761	0.387814	0.067421
	H74	H	0.096518	0.618454	0.888438
	H75	H	0.905551	0.383066	0.904498
	H76	H	0.103296	0.909880	0.612135
	H77	H	0.080184	0.094230	0.377752
	H78	H	0.908068	0.098339	0.609652
	H79	H	0.899066	0.908369	0.373694
	H80	H	0.615870	0.091875	0.902502
	H81	H	0.382916	0.086413	0.086787
	H82	H	0.616088	0.898220	0.077042
	H83	H	0.379752	0.897718	0.900376
	H84	H	0.613155	0.913426	0.083426
	H85	H	0.381305	0.089963	0.088018
	H86	H	0.614708	0.086960	0.898773
	H87	H	0.383695	0.906780	0.904564
	H88	H	0.899540	0.089107	0.610064
	H89	H	0.100533	0.101167	0.370031
	H90	H	0.079585	0.917401	0.602338
	H91	H	0.913833	0.906832	0.377526
	H92	H	0.085921	0.611125	0.901289
	H93	H	0.105634	0.376453	0.086093
	H94	H	0.902514	0.614926	0.082401
	H95	H	0.903377	0.379972	0.895930
	H96	H	0.410622	0.111012	0.578791
	H97	H	0.588448	0.881309	0.587731
	H98	H	0.605747	0.118755	0.398728
	H99	H	0.406909	0.879332	0.392194
	H100	H	0.590167	0.400908	0.110029
	H101	H	0.602726	0.594558	0.870491
	H102	H	0.405717	0.591103	0.109679
	H103	H	0.412133	0.397006	0.875504
	H104	H	0.116574	0.590175	0.393467
	H105	H	0.883643	0.580703	0.595759
	H106	H	0.114022	0.406225	0.575384
	H107	H	0.880737	0.400820	0.398268
	H108	H	0.903226	0.616843	0.088960
	H109	H	0.077940	0.382329	0.094928
	H110	H	0.103255	0.615272	0.904542
	H111	H	0.911570	0.383469	0.897719
	H112	H	0.083795	0.892779	0.610743
	H113	H	0.097042	0.079497	0.377054
	H114	H	0.910374	0.086592	0.606023
	H115	H	0.906338	0.895300	0.371481
	H116	H	0.617042	0.091482	0.895543
	H117	H	0.383320	0.089324	0.084197
	H118	H	0.620243	0.901904	0.093562
	H119	H	0.381140	0.906260	0.895023
	C120	C	0.376202	0.006346	0.614541
	C121	C	0.620002	0.989595	0.613011
	C122	C	0.621679	0.006932	0.369689
	C123	C	0.377813	0.990082	0.370878
	C124	C	0.619582	0.375528	0.000804
	C125	C	0.620322	0.619455	0.983738
	C126	C	0.378248	0.617613	0.000553
	C127	C	0.377065	0.374284	0.983905
	C128	C	0.007061	0.620028	0.369974
	C129	C	0.991191	0.621028	0.614223
	C130	C	0.008203	0.378052	0.612453
	C131	C	0.990864	0.376994	0.369535
	C132	C	0.875430	0.507112	0.114510
	C133	C	0.119700	0.490044	0.111817
	C134	C	0.122685	0.506684	0.868863
	C135	C	0.878295	0.490006	0.871164
	C136	C	0.119420	0.877591	0.499872
	C137	C	0.120934	0.121022	0.483035
	C138	C	0.877876	0.119462	0.500054
	C139	C	0.876950	0.875768	0.482858
	C140	C	0.507531	0.118424	0.871116
	C141	C	0.490668	0.118600	0.114365
	C142	C	0.507945	0.875710	0.114045
	C143	C	0.489914	0.875181	0.869820
	C144	C	0.377470	0.882920	0.669362
	C145	C	0.619053	0.112491	0.669522
	C146	C	0.617977	0.883536	0.314822
	C147	C	0.381878	0.113155	0.316248
	C148	C	0.676282	0.377597	0.877440
	C149	C	0.674530	0.617990	0.106969
	C150	C	0.325190	0.614011	0.876638
	C151	C	0.319830	0.377206	0.107198
	C152	C	0.883888	0.674470	0.373765
	C153	C	0.114377	0.677063	0.610424
	C154	C	0.885115	0.321376	0.612839
	C155	C	0.114091	0.321767	0.369829
	C156	C	0.885108	0.379214	0.669781
	C157	C	0.114754	0.619784	0.668102
	C158	C	0.883650	0.617667	0.316063
	C159	C	0.114206	0.379982	0.312592
	C160	C	0.379925	0.673778	0.877571
	C161	C	0.617841	0.675687	0.106511
	C162	C	0.619380	0.319360	0.877651
	C163	C	0.377757	0.320068	0.107504
	C164	C	0.675711	0.883639	0.371400
	C165	C	0.676938	0.112616	0.611673
	C166	C	0.318943	0.883623	0.612252
	C167	C	0.324191	0.113737	0.374018
	C168	C	0.876765	0.384386	0.170369
	C169	C	0.118356	0.613363	0.167227
	C170	C	0.119174	0.383699	0.812355
	C171	C	0.881774	0.613645	0.816961
	C172	C	0.175189	0.880566	0.376335
	C173	C	0.175690	0.120280	0.606302
	C174	C	0.824035	0.116077	0.376268
	C175	C	0.821201	0.879380	0.606793
	C176	C	0.384039	0.173027	0.874171
	C177	C	0.613489	0.175692	0.112224
	C178	C	0.383996	0.820854	0.112311
	C179	C	0.613481	0.820289	0.870962
	C180	C	0.384404	0.878298	0.170155
	C181	C	0.614531	0.116930	0.167916
	C182	C	0.383763	0.115923	0.817035
	C183	C	0.613444	0.877508	0.813072
	C184	C	0.879955	0.175109	0.377077
	C185	C	0.118939	0.177771	0.605874
	C186	C	0.118543	0.822149	0.376784
	C187	C	0.878584	0.821728	0.606925
	C188	C	0.176451	0.383035	0.870084
	C189	C	0.176600	0.612701	0.110092
	C190	C	0.819193	0.384107	0.112879
	C191	C	0.822904	0.613064	0.873855
	C192	C	0.399454	0.092025	0.592768
	C193	C	0.597276	0.904225	0.590146
	C194	C	0.600484	0.093304	0.392025
	C195	C	0.398776	0.903571	0.392895
	C196	C	0.596459	0.398118	0.086894
	C197	C	0.598698	0.597003	0.897421
	C198	C	0.399938	0.595975	0.086679
	C199	C	0.400627	0.396142	0.898083
	C200	C	0.093647	0.598246	0.391417
	C201	C	0.904782	0.598306	0.593356
	C202	C	0.093906	0.400827	0.588608
	C203	C	0.904979	0.398869	0.393153
	C204	C	0.898257	0.593240	0.092242
	C205	C	0.096424	0.404413	0.089338
	C206	C	0.101518	0.592591	0.891514
	C207	C	0.900333	0.404375	0.892992
	C208	C	0.095801	0.900215	0.586124
	C209	C	0.098945	0.098234	0.397222
	C210	C	0.899569	0.097830	0.586144
	C211	C	0.899856	0.897137	0.396554
	C212	C	0.593483	0.096491	0.892621
	C213	C	0.404712	0.095520	0.092553
	C214	C	0.594233	0.897940	0.091340
	C215	C	0.403776	0.897051	0.893232
	Zn216	Zn	0.498713	-0.002419	0.743086
	Zn217	Zn	0.499921	-0.002134	0.242576
	Zn218	Zn	0.748216	0.497774	-0.007333
	Zn219	Zn	0.249712	0.496795	-0.008349
	Zn220	Zn	-0.001180	0.748109	0.491530
	Zn221	Zn	-0.000592	0.248799	0.491669
	Zn222	Zn	0.000297	0.498682	0.741799
	Zn223	Zn	-0.001474	0.498911	0.241442
	Zn224	Zn	0.498824	0.747341	-0.008177
	Zn225	Zn	0.498689	0.246152	-0.007332
	Zn226	Zn	0.749346	-0.002370	0.491021
	Zn227	Zn	0.248188	-0.000726	0.491948
	N228	N	0.412312	0.960320	0.671152
	N229	N	0.584137	0.035369	0.670276
	N230	N	0.585079	0.961242	0.313879
	N231	N	0.414226	0.035161	0.314087
	N232	N	0.676555	0.411903	0.954944
	N233	N	0.676249	0.583683	0.029466
	N234	N	0.324159	0.579775	0.954017
	N235	N	0.319077	0.410230	0.029282
	N236	N	0.961656	0.675861	0.406761
	N237	N	0.036418	0.677982	0.577785
	N238	N	0.962619	0.320536	0.577792
	N239	N	0.036465	0.319851	0.404694
	N240	N	0.962587	0.413742	0.669580
	N241	N	0.037055	0.585714	0.670685
	N242	N	0.961507	0.584605	0.313662
	N243	N	0.036481	0.413273	0.312223
	N244	N	0.412176	0.676456	0.955775
	N245	N	0.584831	0.676777	0.028744
	N246	N	0.584951	0.317814	0.955432
	N247	N	0.412560	0.318028	0.029923
	N248	N	0.678166	0.961316	0.404932
	N249	N	0.677735	0.035305	0.577108
	N250	N	0.317941	0.961286	0.579065
	N251	N	0.321460	0.035988	0.407149
	N252	N	0.910856	0.462082	0.171573
	N253	N	0.083575	0.536082	0.168328
	N254	N	0.086716	0.461506	0.811248
	N255	N	0.915608	0.536158	0.815022
	N256	N	0.175769	0.914288	0.454227
	N257	N	0.177038	0.085579	0.529065
	N258	N	0.822622	0.082094	0.453748
	N259	N	0.819933	0.912066	0.528785
	N260	N	0.461983	0.174835	0.907163
	N261	N	0.535446	0.176648	0.079641
	N262	N	0.461760	0.819309	0.077935
	N263	N	0.535723	0.818613	0.905421
	N264	N	0.462597	0.911561	0.171468
	N265	N	0.537100	0.082223	0.169655
	N266	N	0.461416	0.082809	0.814922
	N267	N	0.535568	0.910785	0.812310
	N268	N	0.912740	0.177402	0.454987
	N269	N	0.085689	0.178463	0.528232
	N270	N	0.084827	0.820058	0.454761
	N271	N	0.912627	0.819328	0.528854
	N272	N	0.178784	0.460369	0.904515
	N273	N	0.177347	0.535117	0.076235
	N274	N	0.818435	0.461471	0.078855
	N275	N	0.820584	0.535281	0.906800
	O276	O	0.020192	-0.003635	-0.065985
	H277	H	0.020525	-0.013295	-0.056619
	H278	H	0.023888	0.000529	-0.072983
	O279	O	0.445252	0.527289	0.509706
	H280	H	0.441118	0.542887	0.511907
	H281	H	0.438668	0.525530	0.514313
	O282	O	0.455152	0.435333	0.573905
	H283	H	0.444658	0.433556	0.578103
	H284	H	0.466127	0.429037	0.578183
	O285	O	0.027005	-0.042867	1.105697
	H286	H	0.021398	-0.048167	1.104152
	H287	H	0.027219	-0.046781	1.121509
	O288	O	0.404667	0.416614	0.570756
	H289	H	0.410646	0.415430	0.566007
	H290	H	0.408621	0.411143	0.563073
	O291	O	0.933668	1.076801	0.933390
	H292	H	0.934517	1.089370	0.928941
	H293	H	0.928239	1.080341	0.924362
	O294	O	1.061422	0.910103	0.988880
	H295	H	1.057117	0.891746	0.994964
	H296	H	1.062156	0.908848	0.979328
	O297	O	1.055102	-0.018703	1.035850
	H298	H	1.047881	-0.021087	1.044396
	H299	H	1.043572	-0.010135	1.038621
	O300	O	0.378382	0.487526	0.500092
	H301	H	0.387903	0.483881	0.494933
	H302	H	0.372267	0.487061	0.507829
	O303	O	1.512720	0.425913	-0.416676
	H304	H	1.513880	0.433757	-0.415428
	H305	H	1.516769	0.427297	-0.421943
	O306	O	-0.089272	1.021065	0.918264
	H307	H	-0.092919	1.025300	0.911323
	H308	H	-0.080234	1.017444	0.910395
	O309	O	0.629892	0.557418	0.466301
	H310	H	0.625515	0.557811	0.469161
	H311	H	0.628525	0.559063	0.474983
	O312	O	1.024487	0.052412	1.008190
	H313	H	1.013185	0.048207	1.013013
	H314	H	1.024490	0.060621	1.010654
	O315	O	0.467950	0.516252	0.476505
	H316	H	0.474675	0.529183	0.479696
	H317	H	0.469822	0.500179	0.473959
	O318	O	-0.005222	1.058359	0.982913
	H319	H	0.002501	1.064197	0.970980
	H320	H	0.000148	1.062129	0.981392
	O321	O	0.932827	1.031529	0.939645
	H322	H	0.934841	1.040629	0.935282
	H323	H	0.941715	1.023239	0.941832
	O324	O	0.587748	0.519833	0.555993
	H325	H	0.578613	0.521304	0.561301
	H326	H	0.588847	0.521374	0.555087
	O327	O	0.480719	0.556578	0.542738
	H328	H	0.483263	0.554470	0.540906
	H329	H	0.477030	0.559002	0.547675
	O330	O	0.983606	0.051025	1.033635
	H331	H	0.977923	0.053557	1.022865
	H332	H	0.997846	0.046701	1.026459
	O333	O	0.942948	0.936198	0.063781
	H334	H	0.941298	0.938473	0.060418
	H335	H	0.938559	0.944978	0.050652
	O336	O	0.612095	0.499558	0.493526
	H337	H	0.616003	0.493172	0.492733
	H338	H	0.618438	0.497452	0.493717
	O339	O	0.593023	0.582923	0.576857
	H340	H	0.586150	0.583530	0.576754
	H341	H	0.592698	0.578379	0.578612
	O342	O	0.124262	1.065987	0.009458
	H343	H	0.138285	1.073938	0.022646
	H344	H	0.122206	1.055794	0.018624
	O345	O	0.001353	-0.019413	0.041058
	H346	H	0.002636	-0.016002	0.039953
	H347	H	0.003263	-0.009550	0.032412
	O348	O	0.509392	0.410724	0.414047
	H349	H	0.508098	0.409742	0.424317
	H350	H	0.507272	0.415960	0.418553
	O351	O	0.447623	0.500145	0.529114
	H352	H	0.453051	0.493044	0.528460
	H353	H	0.453042	0.501165	0.535501
	O354	O	0.475875	0.424962	0.491405
	H355	H	0.474770	0.432234	0.483656
	H356	H	0.468246	0.429565	0.482185
	O357	O	0.533835	0.582627	0.541221
	H358	H	0.540814	0.587808	0.544791
	H359	H	0.539307	0.585700	0.541234
	O360	O	0.047051	0.030985	-0.025996
	H361	H	0.056378	0.035780	-0.022230
	H362	H	0.045349	0.019858	-0.022032
	O363	O	0.048442	1.007199	0.968878
	H364	H	0.049736	1.008239	0.972986
	H365	H	0.055042	1.008567	0.981729
	O366	O	-0.012156	0.013629	0.917144
	H367	H	-0.016701	0.010807	0.921740
	H368	H	-0.002937	0.008540	0.918692
	O369	O	0.492550	0.516740	0.413011
	H370	H	0.493896	0.527293	0.413054
	H371	H	0.502059	0.511958	0.412024
