data_Molecule from HDF5

_cell_length_a		16.482533
_cell_length_b		16.212456
_cell_length_c		16.322701
_cell_angle_alpha	89.819007
_cell_angle_beta	89.997369
_cell_angle_gamma	90.014458
_symmetry_space_group_name_H-M	'P 1'
_symmetry_Int_Tables_number		1

loop_
	_symmetry_equiv_pos_as_xyz
	x,y,z

loop_
	_atom_site_label
	_atom_site_type_symbol
	_atom_site_fract_x
	_atom_site_fract_y
	_atom_site_fract_z
	H0	H	0.402335	0.817087	0.704786
	H1	H	0.606479	0.142357	0.706092
	H2	H	0.601589	0.816630	0.275411
	H3	H	0.404034	0.143015	0.271853
	H4	H	0.724521	0.375827	0.827912
	H5	H	0.720298	0.581435	0.150361
	H6	H	0.283625	0.584743	0.827763
	H7	H	0.284658	0.376052	0.149387
	H8	H	0.842144	0.698555	0.386336
	H9	H	0.163839	0.696882	0.585990
	H10	H	0.841470	0.263160	0.587565
	H11	H	0.165495	0.264799	0.389728
	H12	H	0.841578	0.377638	0.705657
	H13	H	0.162677	0.582661	0.706380
	H14	H	0.841956	0.581118	0.269700
	H15	H	0.164203	0.380091	0.271278
	H16	H	0.405425	0.696636	0.826391
	H17	H	0.601178	0.693256	0.152126
	H18	H	0.603320	0.265297	0.824367
	H19	H	0.404381	0.262849	0.150071
	H20	H	0.721512	0.819514	0.384698
	H21	H	0.722466	0.142254	0.590996
	H22	H	0.284294	0.818422	0.591074
	H23	H	0.287809	0.144041	0.386938
	H24	H	0.905116	0.316439	0.202929
	H25	H	0.102799	0.643873	0.202582
	H26	H	0.103467	0.317283	0.771306
	H27	H	0.899859	0.642523	0.770841
	H28	H	0.222472	0.877259	0.327076
	H29	H	0.222352	0.083377	0.650143
	H30	H	0.785381	0.084831	0.326453
	H31	H	0.781842	0.875075	0.647265
	H32	H	0.343696	0.200426	0.882933
	H33	H	0.664370	0.197142	0.089275
	H34	H	0.342746	0.761550	0.090513
	H35	H	0.664894	0.762671	0.889734
	H36	H	0.342789	0.876360	0.207326
	H37	H	0.663748	0.080547	0.206374
	H38	H	0.344015	0.084282	0.766025
	H39	H	0.662776	0.875217	0.768250
	H40	H	0.906885	0.194273	0.324187
	H41	H	0.102479	0.196287	0.651587
	H42	H	0.101288	0.766635	0.324142
	H43	H	0.900901	0.761995	0.648716
	H44	H	0.222578	0.318381	0.884126
	H45	H	0.221854	0.641903	0.091986
	H46	H	0.785452	0.318261	0.093521
	H47	H	0.786004	0.642665	0.888115
	H48	H	0.419238	0.093651	0.578370
	H49	H	0.588329	0.867154	0.579194
	H50	H	0.590576	0.095370	0.396397
	H51	H	0.408683	0.862451	0.394461
	H52	H	0.588236	0.390540	0.100196
	H53	H	0.593429	0.568291	0.875241
	H54	H	0.410645	0.563872	0.102718
	H55	H	0.413400	0.383303	0.871559
	H56	H	0.118690	0.574873	0.390900
	H57	H	0.892079	0.564262	0.575635
	H58	H	0.114330	0.397567	0.580784
	H59	H	0.887646	0.381967	0.394112
	H60	H	0.119240	0.385430	0.586295
	H61	H	0.887654	0.570493	0.586472
	H62	H	0.116491	0.574626	0.397355
	H63	H	0.891255	0.390172	0.400963
	H64	H	0.414942	0.571283	0.102957
	H65	H	0.594647	0.573077	0.872956
	H66	H	0.595959	0.382262	0.105504
	H67	H	0.403118	0.394715	0.872070
	H68	H	0.597781	0.096939	0.400720
	H69	H	0.593887	0.867371	0.571051
	H70	H	0.410398	0.094058	0.570923
	H71	H	0.413872	0.864980	0.397742
	H72	H	0.906913	0.597017	0.076142
	H73	H	0.090317	0.366006	0.077934
	H74	H	0.098022	0.596644	0.897210
	H75	H	0.908757	0.363219	0.899906
	H76	H	0.097420	0.892994	0.601766
	H77	H	0.099624	0.067273	0.375216
	H78	H	0.900430	0.076791	0.608191
	H79	H	0.910380	0.891643	0.371229
	H80	H	0.617452	0.075041	0.899552
	H81	H	0.391220	0.072725	0.074273
	H82	H	0.617885	0.884509	0.081728
	H83	H	0.391726	0.888691	0.901529
	H84	H	0.616976	0.889177	0.081487
	H85	H	0.391677	0.064576	0.080847
	H86	H	0.614626	0.065364	0.898896
	H87	H	0.391823	0.893564	0.895469
	H88	H	0.909712	0.057168	0.599640
	H89	H	0.091029	0.072070	0.374604
	H90	H	0.090848	0.891308	0.601607
	H91	H	0.911419	0.893405	0.372658
	H92	H	0.089232	0.595240	0.894469
	H93	H	0.099155	0.363938	0.076450
	H94	H	0.910794	0.598229	0.083854
	H95	H	0.912154	0.363771	0.895332
	H96	H	0.409132	0.098518	0.581809
	H97	H	0.597490	0.862673	0.579201
	H98	H	0.596691	0.099563	0.392904
	H99	H	0.408057	0.864077	0.401138
	H100	H	0.600087	0.394164	0.102625
	H101	H	0.598879	0.569073	0.873241
	H102	H	0.406293	0.571599	0.105179
	H103	H	0.417075	0.396921	0.877644
	H104	H	0.116049	0.569435	0.393620
	H105	H	0.888576	0.577248	0.574475
	H106	H	0.115084	0.386267	0.572818
	H107	H	0.888937	0.391615	0.389904
	H108	H	0.915192	0.594308	0.077618
	H109	H	0.095252	0.362294	0.084262
	H110	H	0.092199	0.592425	0.903415
	H111	H	0.914346	0.365596	0.900085
	H112	H	0.094948	0.887180	0.603208
	H113	H	0.098819	0.076789	0.371024
	H114	H	0.922567	0.076517	0.601781
	H115	H	0.912643	0.890638	0.373051
	H116	H	0.617712	0.070822	0.890850
	H117	H	0.387706	0.074030	0.083625
	H118	H	0.618646	0.887339	0.085822
	H119	H	0.388588	0.886598	0.894591
	C120	C	0.381960	-0.011422	0.608680
	C121	C	0.624360	0.972489	0.607974
	C122	C	0.624254	-0.010518	0.366935
	C123	C	0.381153	0.971726	0.366961
	C124	C	0.625609	0.358498	-0.004137
	C125	C	0.624552	0.600022	0.980756
	C126	C	0.381264	0.601188	-0.002765
	C127	C	0.381251	0.359114	0.979815
	C128	C	0.010926	0.602632	0.364240
	C129	C	0.994729	0.601963	0.609140
	C130	C	0.010308	0.358626	0.610132
	C131	C	0.995717	0.358524	0.366100
	C132	C	0.881877	0.488764	0.109741
	C133	C	0.124471	0.471754	0.109349
	C134	C	0.123843	0.487923	0.867404
	C135	C	0.881418	0.471492	0.867773
	C136	C	0.124502	0.859978	0.495706
	C137	C	0.126049	0.102520	0.480478
	C138	C	0.882068	0.101143	0.496075
	C139	C	0.880915	0.859822	0.478997
	C140	C	0.511563	0.102072	0.864842
	C141	C	0.495861	0.101142	0.109707
	C142	C	0.511593	0.856734	0.112127
	C143	C	0.495692	0.858061	0.866597
	C144	C	0.382341	0.865957	0.666305
	C145	C	0.625215	0.093984	0.666693
	C146	C	0.621984	0.866202	0.312073
	C147	C	0.383253	0.094490	0.310072
	C148	C	0.684316	0.357702	0.875527
	C149	C	0.681089	0.600009	0.102492
	C150	C	0.323756	0.602916	0.875706
	C151	C	0.323846	0.357301	0.101088
	C152	C	0.889869	0.659213	0.366120
	C153	C	0.115590	0.658890	0.607167
	C154	C	0.889708	0.301381	0.608502
	C155	C	0.116977	0.302797	0.369214
	C156	C	0.889695	0.358704	0.667046
	C157	C	0.115039	0.602040	0.666932
	C158	C	0.890095	0.601255	0.307934
	C159	C	0.116460	0.360250	0.310250
	C160	C	0.383946	0.658825	0.875099
	C161	C	0.621639	0.655538	0.103286
	C162	C	0.623788	0.302943	0.873644
	C163	C	0.383392	0.301103	0.101380
	C164	C	0.681937	0.867487	0.366323
	C165	C	0.683233	0.093678	0.609675
	C166	C	0.323947	0.866528	0.609710
	C167	C	0.325442	0.094678	0.367170
	C168	C	0.884346	0.365644	0.165947
	C169	C	0.123045	0.594608	0.165212
	C170	C	0.123536	0.366014	0.809639
	C171	C	0.881095	0.593754	0.809833
	C172	C	0.182734	0.858726	0.374890
	C173	C	0.183395	0.102676	0.601854
	C174	C	0.824838	0.102929	0.374593
	C175	C	0.821759	0.857172	0.599537
	C176	C	0.391512	0.160849	0.864110
	C177	C	0.616314	0.158060	0.108530
	C178	C	0.390887	0.799735	0.110610
	C179	C	0.616469	0.800620	0.868271
	C180	C	0.390899	0.857268	0.168725
	C181	C	0.615752	0.100641	0.167635
	C182	C	0.391747	0.103018	0.805768
	C183	C	0.615392	0.856353	0.807889
	C184	C	0.885178	0.157578	0.373486
	C185	C	0.123805	0.158735	0.602715
	C186	C	0.122421	0.803840	0.373309
	C187	C	0.880966	0.800838	0.600308
	C188	C	0.182584	0.366505	0.866095
	C189	C	0.182176	0.593736	0.110154
	C190	C	0.824649	0.366562	0.111665
	C191	C	0.824013	0.593768	0.867873
	C192	C	0.405962	0.073391	0.584402
	C193	C	0.600115	0.887734	0.583673
	C194	C	0.601653	0.075081	0.389997
	C195	C	0.403562	0.886043	0.390793
	C196	C	0.601802	0.382181	0.080696
	C197	C	0.602224	0.576972	0.895821
	C198	C	0.403930	0.576257	0.081727
	C199	C	0.404391	0.384333	0.895469
	C200	C	0.095249	0.579811	0.387319
	C201	C	0.911062	0.577809	0.585700
	C202	C	0.094427	0.382702	0.586789
	C203	C	0.911136	0.381148	0.388667
	C204	C	0.904200	0.574203	0.086002
	C205	C	0.101707	0.386360	0.086217
	C206	C	0.100114	0.572742	0.891496
	C207	C	0.904846	0.386407	0.891701
	C208	C	0.100940	0.883383	0.580267
	C209	C	0.103153	0.079010	0.395706
	C210	C	0.904456	0.077179	0.580964
	C211	C	0.904685	0.884747	0.394449
	C212	C	0.594903	0.077512	0.889307
	C213	C	0.411940	0.077292	0.086176
	C214	C	0.595880	0.879986	0.089333
	C215	C	0.412368	0.882520	0.890348
	Zn216	Zn	0.503702	-0.020853	0.736406
	Zn217	Zn	0.502958	-0.020472	0.239886
	Zn218	Zn	0.754206	0.479580	-0.010228
	Zn219	Zn	0.252231	0.480028	-0.011433
	Zn220	Zn	0.002425	0.731784	0.486669
	Zn221	Zn	0.003147	0.229534	0.488619
	Zn222	Zn	0.002217	0.480251	0.739472
	Zn223	Zn	0.003458	0.480186	0.235825
	Zn224	Zn	0.503933	0.729000	-0.010664
	Zn225	Zn	0.503828	0.230691	-0.012761
	Zn226	Zn	0.752557	-0.019041	0.486694
	Zn227	Zn	0.253678	-0.019583	0.488113
	N228	N	0.417541	0.942783	0.666000
	N229	N	0.589262	0.017421	0.665753
	N230	N	0.586717	0.943128	0.312401
	N231	N	0.417128	0.017127	0.309882
	N232	N	0.685318	0.391566	0.952621
	N233	N	0.683038	0.566052	0.025527
	N234	N	0.321828	0.568048	0.952554
	N235	N	0.322428	0.392456	0.024408
	N236	N	0.965872	0.660149	0.400581
	N237	N	0.039692	0.659003	0.572048
	N238	N	0.965735	0.301343	0.573804
	N239	N	0.040636	0.301625	0.403189
	N240	N	0.965817	0.393518	0.668149
	N241	N	0.038850	0.567719	0.668405
	N242	N	0.966351	0.566815	0.306771
	N243	N	0.040159	0.394169	0.308196
	N244	N	0.418810	0.657789	0.951557
	N245	N	0.587246	0.655652	0.026665
	N246	N	0.587858	0.303483	0.949641
	N247	N	0.418229	0.301979	0.024787
	N248	N	0.683314	0.945102	0.399729
	N249	N	0.682840	0.016972	0.574007
	N250	N	0.323573	0.943783	0.574754
	N251	N	0.323985	0.017092	0.401534
	N252	N	0.919211	0.442573	0.164895
	N253	N	0.087818	0.517792	0.164804
	N254	N	0.087793	0.442623	0.810438
	N255	N	0.915900	0.516841	0.809668
	N256	N	0.183998	0.892919	0.451821
	N257	N	0.184836	0.068463	0.524848
	N258	N	0.822641	0.068647	0.451757
	N259	N	0.821479	0.892777	0.522984
	N260	N	0.467064	0.160621	0.899888
	N261	N	0.540576	0.158673	0.073353
	N262	N	0.466938	0.799370	0.076064
	N263	N	0.541140	0.801604	0.904168
	N264	N	0.466973	0.891880	0.169851
	N265	N	0.539633	0.065871	0.168322
	N266	N	0.467384	0.067319	0.806094
	N267	N	0.539376	0.891306	0.806593
	N268	N	0.919972	0.156748	0.450148
	N269	N	0.088901	0.158715	0.526282
	N270	N	0.086903	0.804276	0.449531
	N271	N	0.916961	0.802301	0.524259
	N272	N	0.183040	0.443568	0.900992
	N273	N	0.183253	0.516373	0.075902
	N274	N	0.823110	0.443969	0.077263
	N275	N	0.823946	0.516645	0.903211
	O276	O	0.408483	0.402695	0.509397
	H277	H	0.407635	0.395460	0.500429
	H278	H	0.413283	0.411830	0.495132
	O279	O	0.417552	0.359188	0.457437
	H280	H	0.436446	0.373870	0.470598
	H281	H	0.405702	0.348839	0.467629
	O282	O	0.849377	-0.001944	0.976548
	H283	H	0.864285	0.008026	0.972288
	H284	H	0.837479	-0.002264	0.974050
	O285	O	0.403498	0.513014	0.316053
	H286	H	0.400883	0.501573	0.318118
	H287	H	0.398565	0.505922	0.326680
	O288	O	0.652012	1.373112	1.450758
	H289	H	0.649378	1.378050	1.450593
	H290	H	0.666882	1.384106	1.445374
	O291	O	-0.097579	0.903981	-0.029301
	H292	H	-0.112715	0.895381	-0.026128
	H293	H	-0.100353	0.913722	-0.030507
	O294	O	0.466950	0.448056	0.361665
	H295	H	0.477110	0.448746	0.363217
	H296	H	0.475285	0.447519	0.364429
	O297	O	0.511613	0.390687	0.333380
	H298	H	0.526074	0.407669	0.340621
	H299	H	0.525930	0.403106	0.335760
	O300	O	0.556312	0.627899	0.380893
	H301	H	0.555704	0.627778	0.390370
	H302	H	0.556326	0.638267	0.377928
	O303	O	0.078892	0.867855	0.927624
	H304	H	0.077718	0.862780	0.933201
	H305	H	0.078746	0.872308	0.929756
	O306	O	0.582222	0.591432	0.509907
	H307	H	0.584732	0.585587	0.499334
	H308	H	0.586412	0.578729	0.500970
	O309	O	0.920865	0.924235	0.012837
	H310	H	0.927672	0.917156	0.007647
	H311	H	0.920463	0.926516	0.006792
	O312	O	0.004932	0.070619	-0.054429
	H313	H	0.007715	0.069222	-0.056560
	H314	H	0.007502	0.064053	-0.063610
	O315	O	0.443118	0.387851	0.579451
	H316	H	0.456210	0.387783	0.576301
	H317	H	0.451513	0.387246	0.589851
	O318	O	0.166664	0.917690	0.842130
	H319	H	0.163955	0.917773	0.867476
	H320	H	0.177741	0.934412	0.834766
	O321	O	0.563173	0.488956	0.454073
	H322	H	0.563547	0.482834	0.475901
	H323	H	0.568028	0.489315	0.464871
	O324	O	0.000328	0.929933	-0.164257
	H325	H	0.018426	0.928402	-0.179635
	H326	H	0.009301	0.915933	-0.167267
	O327	O	0.511575	0.655142	0.532256
	H328	H	0.508016	0.660292	0.537225
	H329	H	0.513194	0.662333	0.526534
	O330	O	0.003498	-0.065730	0.918934
	H331	H	0.019195	-0.058733	0.930247
	H332	H	0.014391	-0.084605	0.909054
	O333	O	-0.366946	-0.513737	1.547110
	H334	H	-0.375299	-0.504660	1.546891
	H335	H	-0.363521	-0.512485	1.552812
	O336	O	-0.057878	1.056076	0.950880
	H337	H	-0.053594	1.060660	0.954209
	H338	H	-0.053803	1.057237	0.946115
	O339	O	0.883859	-0.133565	0.045340
	H340	H	0.890753	-0.132805	0.050415
	H341	H	0.887609	-0.126953	0.044667
	O342	O	0.141681	-0.204401	-0.209225
	H343	H	0.151434	-0.216335	-0.235536
	H344	H	0.157454	-0.192425	-0.206902
	O345	O	0.952619	-0.151844	1.144705
	H346	H	0.948673	-0.153381	1.136353
	H347	H	0.958848	-0.153976	1.156525
	O348	O	0.404030	1.333891	0.677786
	H349	H	0.387253	1.334407	0.666124
	H350	H	0.412467	1.330108	0.683533
	O351	O	0.322690	0.553441	0.507302
	H352	H	0.349414	0.558809	0.512314
	H353	H	0.313247	0.551936	0.502358
	O354	O	0.863807	0.067497	0.860681
	H355	H	0.855086	0.080816	0.865444
	H356	H	0.853322	0.079211	0.848238
	O357	O	0.653420	0.499519	0.620607
	H358	H	0.654316	0.500286	0.629869
	H359	H	0.658224	0.500728	0.629557
	O360	O	0.660207	0.522534	0.440983
	H361	H	0.659206	0.514672	0.447453
	H362	H	0.670104	0.531082	0.444552
	O363	O	0.389834	1.601339	0.322861
	H364	H	0.379051	1.598583	0.315031
	H365	H	0.386110	1.615902	0.314502
	O366	O	0.431589	0.443227	0.596967
	H367	H	0.427784	0.454544	0.594025
	H368	H	0.433647	0.436211	0.592485
	O369	O	0.098216	1.090528	0.033983
	H370	H	0.090831	1.083919	0.027831
	H371	H	0.098960	1.084550	0.043762
	O372	O	0.205665	0.066905	0.107404
	H373	H	0.208927	0.084418	0.102895
	H374	H	0.216799	0.064548	0.126954
	O375	O	0.568757	0.540688	0.470152
	H376	H	0.566425	0.542085	0.464652
	H377	H	0.573195	0.532347	0.483518
	O378	O	1.027169	0.870818	0.077204
	H379	H	1.017558	0.870241	0.075794
	H380	H	1.023408	0.861966	0.075838
	O381	O	1.154142	0.013625	-0.078249
	H382	H	1.168921	0.004066	-0.083383
	H383	H	1.154443	0.018562	-0.079234
	O384	O	1.175450	1.065612	0.078372
	H385	H	1.181296	1.064959	0.071030
	H386	H	1.168876	1.069818	0.088476
	O387	O	-0.085482	0.156619	0.055377
	H388	H	-0.088355	0.171510	0.060529
	H389	H	-0.081057	0.137708	0.058113
	O390	O	-0.144575	0.959158	0.035014
	H391	H	-0.145340	0.958118	0.032750
	H392	H	-0.128033	0.964267	0.032981
	O393	O	0.973619	1.083986	0.951542
	H394	H	0.975781	1.090901	0.941755
	H395	H	0.984562	1.088021	0.959747
	O396	O	0.321061	0.446381	1.659027
	H397	H	0.315352	0.438491	1.652915
	H398	H	0.310371	0.445524	1.654533
	O399	O	-0.099997	1.111544	0.825917
	H400	H	-0.084495	1.110237	0.827537
	H401	H	-0.106404	1.092257	0.833802
	O402	O	0.503502	0.423269	0.588604
	H403	H	0.509756	0.396949	0.587303
	H404	H	0.493999	0.420853	0.588519
	O405	O	1.512469	0.396964	0.433752
	H406	H	1.521609	0.391978	0.425159
	H407	H	1.514238	0.404168	0.436369
	O408	O	0.897473	0.963507	0.025224
	H409	H	0.906795	0.965575	0.023522
	H410	H	0.898711	0.954950	0.029842
	O411	O	1.129238	-0.167791	1.024396
	H412	H	1.130166	-0.166083	1.020172
	H413	H	1.132154	-0.173900	1.031246
	O414	O	0.558303	0.544444	0.670363
	H415	H	0.561944	0.534631	0.678524
	H416	H	0.567674	0.532963	0.679284
	O417	O	1.148103	1.136940	1.158738
	H418	H	1.146916	1.135881	1.167359
	H419	H	1.156198	1.151234	1.153074
