data_Molecule from HDF5

_cell_length_a		16.211976
_cell_length_b		16.353017
_cell_length_c		16.337374
_cell_angle_alpha	90.212901
_cell_angle_beta	90.005094
_cell_angle_gamma	89.824526
_symmetry_space_group_name_H-M	'P 1'
_symmetry_Int_Tables_number		1

loop_
	_symmetry_equiv_pos_as_xyz
	x,y,z

loop_
	_atom_site_label
	_atom_site_type_symbol
	_atom_site_fract_x
	_atom_site_fract_y
	_atom_site_fract_z
	H0	H	0.392948	0.840852	0.706843
	H1	H	0.596108	0.164277	0.711623
	H2	H	0.598244	0.841142	0.272990
	H3	H	0.393173	0.164662	0.273623
	H4	H	0.706194	0.403482	0.827692
	H5	H	0.704576	0.600609	0.154540
	H6	H	0.273571	0.602942	0.829374
	H7	H	0.274315	0.402076	0.153618
	H8	H	0.829859	0.722624	0.391814
	H9	H	0.154741	0.722154	0.595596
	H10	H	0.829309	0.288647	0.592467
	H11	H	0.154040	0.286464	0.389369
	H12	H	0.827318	0.406854	0.705070
	H13	H	0.153658	0.607013	0.711123
	H14	H	0.827900	0.606537	0.277316
	H15	H	0.154022	0.402163	0.274450
	H16	H	0.388798	0.720395	0.830148
	H17	H	0.593984	0.720744	0.152683
	H18	H	0.592214	0.284433	0.828336
	H19	H	0.390721	0.285626	0.152802
	H20	H	0.711075	0.841309	0.393777
	H21	H	0.706344	0.167385	0.590501
	H22	H	0.276435	0.842378	0.591713
	H23	H	0.275416	0.164873	0.388766
	H24	H	0.887995	0.343174	0.210880
	H25	H	0.092840	0.665545	0.210057
	H26	H	0.094035	0.343141	0.771484
	H27	H	0.888751	0.666745	0.776171
	H28	H	0.212017	0.900471	0.329960
	H29	H	0.212111	0.106194	0.653595
	H30	H	0.776253	0.105538	0.330783
	H31	H	0.779199	0.906991	0.655038
	H32	H	0.329183	0.220257	0.887267
	H33	H	0.654951	0.218262	0.090274
	H34	H	0.330127	0.787496	0.092904
	H35	H	0.654405	0.781922	0.887665
	H36	H	0.332738	0.899216	0.210642
	H37	H	0.656917	0.102532	0.204253
	H38	H	0.329575	0.102678	0.774028
	H39	H	0.656635	0.900061	0.774583
	H40	H	0.889808	0.222387	0.330916
	H41	H	0.097946	0.224864	0.653157
	H42	H	0.097100	0.783750	0.331581
	H43	H	0.888798	0.786677	0.652686
	H44	H	0.207105	0.341009	0.890448
	H45	H	0.210054	0.664081	0.095259
	H46	H	0.777938	0.339935	0.089211
	H47	H	0.772407	0.665155	0.892202
	H48	H	0.402179	0.118546	0.584940
	H49	H	0.587547	0.889866	0.579313
	H50	H	0.587684	0.120176	0.396592
	H51	H	0.401833	0.885762	0.393314
	H52	H	0.580476	0.411523	0.105004
	H53	H	0.580498	0.594092	0.876710
	H54	H	0.400670	0.598183	0.107288
	H55	H	0.397712	0.408321	0.874589
	H56	H	0.107920	0.593690	0.399008
	H57	H	0.872275	0.599828	0.591388
	H58	H	0.108813	0.410213	0.580081
	H59	H	0.877536	0.416738	0.401484
	H60	H	0.105399	0.418930	0.580387
	H61	H	0.876326	0.603176	0.575029
	H62	H	0.108360	0.595402	0.401750
	H63	H	0.872645	0.411766	0.397711
	H64	H	0.397088	0.592403	0.106441
	H65	H	0.582023	0.593077	0.874950
	H66	H	0.583849	0.404234	0.107482
	H67	H	0.399565	0.415081	0.876810
	H68	H	0.584148	0.118702	0.394864
	H69	H	0.592150	0.886374	0.585902
	H70	H	0.407886	0.116904	0.583188
	H71	H	0.413306	0.892205	0.401228
	H72	H	0.900286	0.616753	0.080933
	H73	H	0.082193	0.392134	0.073435
	H74	H	0.081406	0.619152	0.900788
	H75	H	0.903311	0.389606	0.898006
	H76	H	0.097033	0.914487	0.610820
	H77	H	0.084104	0.090665	0.378831
	H78	H	0.899234	0.094296	0.607774
	H79	H	0.904179	0.916609	0.377944
	H80	H	0.605700	0.091471	0.905786
	H81	H	0.377217	0.089713	0.084470
	H82	H	0.608935	0.910794	0.080080
	H83	H	0.376036	0.906111	0.900665
	H84	H	0.609502	0.911895	0.081835
	H85	H	0.374285	0.096598	0.085540
	H86	H	0.607615	0.088978	0.897971
	H87	H	0.380904	0.915845	0.904103
	H88	H	0.905574	0.098261	0.606774
	H89	H	0.079580	0.096685	0.379109
	H90	H	0.078144	0.924620	0.601549
	H91	H	0.905981	0.909585	0.377350
	H92	H	0.080909	0.617510	0.901443
	H93	H	0.088718	0.385356	0.087949
	H94	H	0.895385	0.619566	0.084126
	H95	H	0.897087	0.388372	0.900220
	H96	H	0.403644	0.117140	0.578764
	H97	H	0.583552	0.887937	0.586749
	H98	H	0.584232	0.118487	0.398754
	H99	H	0.399915	0.890189	0.407599
	H100	H	0.588396	0.411188	0.107498
	H101	H	0.581641	0.591407	0.876366
	H102	H	0.403665	0.592607	0.104382
	H103	H	0.404248	0.409313	0.876690
	H104	H	0.106954	0.592838	0.401945
	H105	H	0.880168	0.587545	0.580633
	H106	H	0.109271	0.414440	0.587601
	H107	H	0.875923	0.410540	0.404211
	H108	H	0.900562	0.618430	0.087493
	H109	H	0.071756	0.390653	0.087286
	H110	H	0.081657	0.618229	0.901872
	H111	H	0.898682	0.386902	0.893464
	H112	H	0.077247	0.901883	0.607858
	H113	H	0.086583	0.097401	0.376480
	H114	H	0.899136	0.101944	0.609534
	H115	H	0.898412	0.912001	0.375504
	H116	H	0.609241	0.097174	0.900168
	H117	H	0.376620	0.094003	0.078210
	H118	H	0.610273	0.908952	0.082092
	H119	H	0.376716	0.914674	0.892929
	C120	C	0.373456	0.011427	0.612335
	C121	C	0.616248	0.995257	0.614105
	C122	C	0.616238	0.011963	0.368552
	C123	C	0.373431	0.995434	0.369708
	C124	C	0.613752	0.379491	-0.000810
	C125	C	0.611969	0.623302	0.983174
	C126	C	0.369636	0.624129	-0.000185
	C127	C	0.369892	0.380674	0.982681
	C128	C	0.000299	0.625275	0.371116
	C129	C	0.983675	0.626919	0.613608
	C130	C	0.000161	0.384560	0.612706
	C131	C	0.982949	0.382902	0.370405
	C132	C	0.868960	0.511887	0.113923
	C133	C	0.111960	0.495629	0.113764
	C134	C	0.112081	0.511564	0.870212
	C135	C	0.868782	0.495339	0.868650
	C136	C	0.115316	0.882387	0.500066
	C137	C	0.114890	0.126264	0.484147
	C138	C	0.871300	0.127360	0.501182
	C139	C	0.872377	0.883389	0.483599
	C140	C	0.500497	0.123332	0.869879
	C141	C	0.483906	0.123658	0.112037
	C142	C	0.502360	0.880616	0.112145
	C143	C	0.484741	0.880644	0.868919
	C144	C	0.373670	0.889627	0.668548
	C145	C	0.615205	0.116365	0.672143
	C146	C	0.616639	0.889508	0.312509
	C147	C	0.372947	0.116286	0.311712
	C148	C	0.669182	0.381934	0.876639
	C149	C	0.667891	0.621662	0.105457
	C150	C	0.311900	0.623160	0.877819
	C151	C	0.313101	0.382078	0.104954
	C152	C	0.878214	0.683646	0.372031
	C153	C	0.106002	0.683666	0.614217
	C154	C	0.877808	0.327624	0.611780
	C155	C	0.105360	0.325235	0.370165
	C156	C	0.876941	0.386139	0.668127
	C157	C	0.105409	0.626372	0.671680
	C158	C	0.877269	0.625813	0.315007
	C159	C	0.105293	0.382817	0.312926
	C160	C	0.369390	0.681463	0.878332
	C161	C	0.612590	0.681320	0.104555
	C162	C	0.612257	0.323169	0.876745
	C163	C	0.371167	0.324278	0.104693
	C164	C	0.672909	0.889643	0.372376
	C165	C	0.669914	0.118176	0.611722
	C166	C	0.315573	0.890170	0.611256
	C167	C	0.314894	0.116528	0.369515
	C168	C	0.869248	0.390860	0.171219
	C169	C	0.112194	0.616730	0.171560
	C170	C	0.113248	0.391126	0.810884
	C171	C	0.868691	0.617660	0.813404
	C172	C	0.173323	0.881490	0.378786
	C173	C	0.173544	0.126129	0.605308
	C174	C	0.814817	0.125473	0.379173
	C175	C	0.816272	0.885753	0.605912
	C176	C	0.377693	0.180651	0.869108
	C177	C	0.606300	0.180452	0.110491
	C178	C	0.379548	0.824727	0.112272
	C179	C	0.606400	0.821676	0.868788
	C180	C	0.380708	0.880670	0.170818
	C181	C	0.607298	0.122376	0.167176
	C182	C	0.378161	0.122515	0.812509
	C183	C	0.607441	0.880319	0.812361
	C184	C	0.871168	0.183882	0.379346
	C185	C	0.116526	0.184955	0.604965
	C186	C	0.116074	0.823299	0.379422
	C187	C	0.871440	0.826315	0.604922
	C188	C	0.169591	0.390014	0.870173
	C189	C	0.170410	0.616253	0.113993
	C190	C	0.814205	0.389491	0.110930
	C191	C	0.811259	0.617017	0.871447
	C192	C	0.397582	0.095755	0.588998
	C193	C	0.594332	0.910122	0.590843
	C194	C	0.592374	0.096884	0.390429
	C195	C	0.397861	0.911137	0.393702
	C196	C	0.590901	0.402257	0.084353
	C197	C	0.588260	0.599751	0.898046
	C198	C	0.393377	0.601093	0.084047
	C199	C	0.393651	0.403992	0.898262
	C200	C	0.085550	0.601052	0.394169
	C201	C	0.898402	0.603719	0.589363
	C202	C	0.085504	0.407897	0.589533
	C203	C	0.897668	0.406297	0.394191
	C204	C	0.892105	0.596430	0.091002
	C205	C	0.087822	0.411039	0.089645
	C206	C	0.088127	0.596305	0.894279
	C207	C	0.892806	0.410462	0.890588
	C208	C	0.091102	0.906706	0.584761
	C209	C	0.090515	0.102063	0.399972
	C210	C	0.894382	0.104652	0.586058
	C211	C	0.896081	0.906026	0.398935
	C212	C	0.585558	0.099473	0.894339
	C213	C	0.398169	0.100352	0.089290
	C214	C	0.587617	0.903873	0.088184
	C215	C	0.399916	0.905167	0.892582
	Zn216	Zn	0.493934	0.002822	0.741565
	Zn217	Zn	0.494124	0.002529	0.239636
	Zn218	Zn	0.740945	0.502711	-0.008760
	Zn219	Zn	0.241156	0.502666	-0.008342
	Zn220	Zn	-0.007067	0.754474	0.492614
	Zn221	Zn	-0.007469	0.255417	0.492265
	Zn222	Zn	-0.009049	0.505411	0.741013
	Zn223	Zn	-0.009526	0.504349	0.242781
	Zn224	Zn	0.492212	0.753051	-0.009168
	Zn225	Zn	0.491436	0.251597	-0.009443
	Zn226	Zn	0.744308	0.004874	0.492350
	Zn227	Zn	0.243701	0.003808	0.491185
	N228	N	0.408962	0.966157	0.669236
	N229	N	0.582645	0.038869	0.673646
	N230	N	0.582317	0.966469	0.309803
	N231	N	0.408690	0.040021	0.311908
	N232	N	0.670211	0.416249	0.953659
	N233	N	0.667520	0.586253	0.028870
	N234	N	0.311799	0.588430	0.954317
	N235	N	0.312180	0.416233	0.028286
	N236	N	0.955664	0.683630	0.406122
	N237	N	0.029077	0.683821	0.578663
	N238	N	0.955576	0.326305	0.578181
	N239	N	0.028165	0.325063	0.405176
	N240	N	0.954115	0.420747	0.668817
	N241	N	0.028393	0.591922	0.671445
	N242	N	0.954269	0.590255	0.314224
	N243	N	0.028112	0.417941	0.313023
	N244	N	0.404285	0.682466	0.954990
	N245	N	0.578796	0.682519	0.027379
	N246	N	0.578970	0.321245	0.954110
	N247	N	0.405627	0.323091	0.027642
	N248	N	0.673039	0.966761	0.406300
	N249	N	0.670859	0.041746	0.576471
	N250	N	0.315166	0.966791	0.576973
	N251	N	0.314974	0.040292	0.404714
	N252	N	0.902480	0.467911	0.173359
	N253	N	0.076777	0.540488	0.171523
	N254	N	0.078344	0.467873	0.810846
	N255	N	0.903764	0.541003	0.811597
	N256	N	0.172905	0.917430	0.455003
	N257	N	0.172676	0.090184	0.529021
	N258	N	0.814881	0.090888	0.455704
	N259	N	0.816482	0.920458	0.529462
	N260	N	0.454874	0.181333	0.904185
	N261	N	0.528421	0.181459	0.077130
	N262	N	0.456173	0.824686	0.076255
	N263	N	0.529025	0.821646	0.903130
	N264	N	0.458147	0.914594	0.170920
	N265	N	0.530072	0.087747	0.168198
	N266	N	0.455305	0.087639	0.813018
	N267	N	0.530842	0.916458	0.812495
	N268	N	0.905967	0.185040	0.456164
	N269	N	0.080704	0.185240	0.528794
	N270	N	0.080881	0.823574	0.455956
	N271	N	0.905606	0.824752	0.527932
	N272	N	0.169281	0.466213	0.906106
	N273	N	0.170482	0.539641	0.078753
	N274	N	0.814010	0.465676	0.075683
	N275	N	0.810998	0.540081	0.905045
	O276	O	0.075347	0.086570	-0.170125
	H277	H	0.068914	0.066052	-0.157729
	H278	H	0.082002	0.084308	-0.186326
	O279	O	0.559511	0.449239	0.568752
	H280	H	0.561995	0.456744	0.575492
	H281	H	0.574916	0.455388	0.562744
	O282	O	0.951905	0.083548	0.111617
	H283	H	0.955577	0.089641	0.129842
	H284	H	0.949570	0.073332	0.106120
	O285	O	0.135811	0.857796	0.025814
	H286	H	0.158440	0.851603	0.026983
	H287	H	0.140491	0.863819	-0.011533
	O288	O	0.543501	0.410831	0.573494
	H289	H	0.553864	0.417127	0.568824
	H290	H	0.534979	0.408491	0.570920
	O291	O	0.833386	0.083152	0.894427
	H292	H	0.837768	0.102264	0.894816
	H293	H	0.829815	0.073296	0.892764
	O294	O	0.899025	1.141288	0.922775
	H295	H	0.890977	1.138955	0.923467
	H296	H	0.893128	1.136881	0.929700
	O297	O	0.124154	0.169939	0.171688
	H298	H	0.120807	0.178680	0.175874
	H299	H	0.129652	0.180667	0.151254
	O300	O	0.456800	0.611062	0.545869
	H301	H	0.466819	0.609593	0.536475
	H302	H	0.455200	0.611824	0.567864
	O303	O	-0.064062	1.005843	0.871656
	H304	H	-0.064690	1.007339	0.876178
	H305	H	-0.063553	1.006374	0.879782
	O306	O	0.495002	0.593888	0.400551
	H307	H	0.500768	0.605220	0.407847
	H308	H	0.489475	0.608332	0.386850
	O309	O	1.089544	-0.066299	0.055788
	H310	H	1.086750	-0.077226	0.041673
	H311	H	1.105633	-0.066904	0.051914
	O312	O	-0.059618	-0.168935	1.159168
	H313	H	-0.040697	-0.166364	1.160447
	H314	H	-0.060423	-0.171100	1.165403
	O315	O	0.466224	0.567986	0.478361
	H316	H	0.465934	0.569062	0.482223
	H317	H	0.473691	0.555867	0.479418
	O318	O	0.370683	0.499891	0.525941
	H319	H	0.361587	0.500619	0.526308
	H320	H	0.356794	0.493854	0.529403
	O321	O	0.553592	0.564517	0.561873
	H322	H	0.542520	0.561694	0.561798
	H323	H	0.555762	0.565165	0.549123
	O324	O	0.540144	0.546287	0.479324
	H325	H	0.529813	0.549136	0.472779
	H326	H	0.549469	0.543270	0.473591
	O327	O	0.083245	0.853779	0.861212
	H328	H	0.072384	0.835085	0.859172
	H329	H	0.079605	0.849590	0.858518
	O330	O	0.398767	0.412562	0.461763
	H331	H	0.404313	0.419839	0.475427
	H332	H	0.392843	0.419539	0.466544
	O333	O	-0.097195	1.117603	1.110305
	H334	H	-0.096282	1.105062	1.122995
	H335	H	-0.101167	1.115313	1.106826
	O336	O	1.102572	0.843323	0.869464
	H337	H	1.105291	0.847006	0.865638
	H338	H	1.075223	0.853842	0.865117
	O339	O	0.385650	0.499220	0.454356
	H340	H	0.372919	0.504482	0.461339
	H341	H	0.392473	0.486472	0.459600
	O342	O	0.873678	0.006370	0.095433
	H343	H	0.870996	0.005963	0.097730
	H344	H	0.876819	-0.001150	0.097774
	O345	O	0.484945	0.408530	0.402209
	H346	H	0.473102	0.390040	0.409038
	H347	H	0.476063	0.401238	0.401868
	O348	O	1.054581	1.185939	1.003782
	H349	H	1.061371	1.183994	1.004696
	H350	H	1.060189	1.186525	0.995072
	O351	O	0.843050	0.969468	-0.092662
	H352	H	0.837710	0.982330	-0.099011
	H353	H	0.837149	0.987118	-0.092674
	O354	O	1.139405	0.019423	0.877575
	H355	H	1.139905	0.002937	0.881708
	H356	H	1.123479	0.030721	0.862948
	O357	O	0.436013	0.409338	0.456453
	H358	H	0.435844	0.407903	0.469069
	H359	H	0.453036	0.407232	0.463664
	O360	O	-0.061370	0.076814	-0.079762
	H361	H	-0.063693	0.074956	-0.085127
	H362	H	-0.068429	0.076062	-0.075529
	O363	O	0.621037	0.482674	0.383717
	H364	H	0.613832	0.470835	0.380969
	H365	H	0.627778	0.483638	0.381729
	O366	O	0.573514	0.547529	0.644783
	H367	H	0.584555	0.547318	0.649570
	H368	H	0.569190	0.565353	0.644096
	O369	O	0.552423	0.607822	0.601670
	H370	H	0.552724	0.608442	0.609454
	H371	H	0.564779	0.607696	0.586238
	O372	O	0.584145	0.546726	0.379553
	H373	H	0.568036	0.534417	0.379984
	H374	H	0.590683	0.538341	0.373437
	O375	O	0.693021	0.342147	0.630879
	H376	H	0.701970	0.346790	0.641448
	H377	H	0.699222	0.340838	0.629316
	O378	O	0.406937	0.569502	0.446015
	H379	H	0.395757	0.577757	0.448413
	H380	H	0.404906	0.581247	0.439325
	O381	O	0.549355	0.598044	0.439015
	H382	H	0.554866	0.609547	0.430284
	H383	H	0.537375	0.592208	0.430793
	O384	O	-0.111914	1.026115	0.128876
	H385	H	-0.118027	1.005487	0.121040
	H386	H	-0.106674	1.017675	0.139989
	O387	O	0.954089	-0.154643	0.952475
	H388	H	0.951007	-0.147944	0.943435
	H389	H	0.953119	-0.147091	0.972670
	O390	O	0.151335	1.052464	0.088878
	H391	H	0.173742	1.061687	0.115054
	H392	H	0.147176	1.081101	0.080214
	O393	O	0.850259	0.816880	0.064495
	H394	H	0.844713	0.821640	0.068281
	H395	H	0.858834	0.807127	0.083192
	O396	O	0.354981	0.417885	0.516821
	H397	H	0.355526	0.425367	0.519423
	H398	H	0.345582	0.421609	0.500520
	O399	O	0.144987	1.051038	0.919541
	H400	H	0.155964	1.037697	0.908804
	H401	H	0.156051	1.067510	0.931194
	O402	O	1.051043	1.044939	1.088381
	H403	H	1.048272	1.047777	1.090452
	H404	H	1.056806	1.051647	1.095044
	O405	O	0.409157	0.345252	0.505158
	H406	H	0.410376	0.345985	0.506227
	H407	H	0.416680	0.343463	0.530397
