data_Molecule from HDF5

_cell_length_a		16.448080
_cell_length_b		16.494154
_cell_length_c		16.385445
_cell_angle_alpha	90.231969
_cell_angle_beta	90.047893
_cell_angle_gamma	90.030230
_symmetry_space_group_name_H-M	'P 1'
_symmetry_Int_Tables_number		1

loop_
	_symmetry_equiv_pos_as_xyz
	x,y,z

loop_
	_atom_site_label
	_atom_site_type_symbol
	_atom_site_fract_x
	_atom_site_fract_y
	_atom_site_fract_z
	H0	H	0.384292	0.840109	0.733111
	H1	H	0.590536	0.157388	0.734432
	H2	H	0.594971	0.842315	0.290736
	H3	H	0.381982	0.156383	0.290271
	H4	H	0.707966	0.390621	0.851989
	H5	H	0.709762	0.600915	0.170007
	H6	H	0.267540	0.604045	0.853180
	H7	H	0.261045	0.389974	0.168370
	H8	H	0.830448	0.717472	0.407741
	H9	H	0.145927	0.723828	0.619750
	H10	H	0.831382	0.274684	0.619290
	H11	H	0.144390	0.271319	0.400709
	H12	H	0.829369	0.396827	0.729050
	H13	H	0.147439	0.605326	0.732705
	H14	H	0.829448	0.598705	0.293553
	H15	H	0.145640	0.388702	0.287407
	H16	H	0.382311	0.720792	0.854666
	H17	H	0.593435	0.717086	0.171377
	H18	H	0.591166	0.274925	0.854083
	H19	H	0.378553	0.275690	0.170691
	H20	H	0.706917	0.840400	0.411748
	H21	H	0.708631	0.158001	0.619225
	H22	H	0.265694	0.841217	0.619474
	H23	H	0.263887	0.155147	0.404754
	H24	H	0.882575	0.339702	0.231758
	H25	H	0.093923	0.654290	0.234793
	H26	H	0.097184	0.342458	0.784712
	H27	H	0.887520	0.657136	0.793585
	H28	H	0.213733	0.888636	0.354743
	H29	H	0.213954	0.108237	0.668312
	H30	H	0.763997	0.105127	0.355986
	H31	H	0.770027	0.895746	0.672852
	H32	H	0.330591	0.222555	0.904832
	H33	H	0.643898	0.221405	0.120864
	H34	H	0.332717	0.771671	0.124268
	H35	H	0.645473	0.777095	0.908086
	H36	H	0.332450	0.888864	0.238553
	H37	H	0.646868	0.101546	0.231292
	H38	H	0.330750	0.106627	0.789007
	H39	H	0.645604	0.893929	0.792744
	H40	H	0.878993	0.220672	0.354843
	H41	H	0.099081	0.224609	0.667382
	H42	H	0.094621	0.776456	0.352273
	H43	H	0.884796	0.778426	0.670720
	H44	H	0.213624	0.342390	0.900580
	H45	H	0.209767	0.655729	0.118478
	H46	H	0.767818	0.339270	0.113524
	H47	H	0.768273	0.655355	0.907861
	H48	H	0.401102	0.108888	0.597857
	H49	H	0.579106	0.884931	0.605445
	H50	H	0.571300	0.109574	0.426160
	H51	H	0.404397	0.883095	0.410298
	H52	H	0.582006	0.407727	0.126584
	H53	H	0.581692	0.589331	0.895938
	H54	H	0.400700	0.591392	0.126933
	H55	H	0.403650	0.400098	0.897840
	H56	H	0.101688	0.585087	0.423660
	H57	H	0.873917	0.591860	0.602393
	H58	H	0.101037	0.410270	0.598131
	H59	H	0.877714	0.410970	0.424490
	H60	H	0.100854	0.409997	0.593873
	H61	H	0.876806	0.590058	0.598283
	H62	H	0.102754	0.588680	0.422754
	H63	H	0.875052	0.408334	0.419193
	H64	H	0.394675	0.581656	0.125313
	H65	H	0.576735	0.585035	0.898292
	H66	H	0.578261	0.416211	0.123518
	H67	H	0.392059	0.415293	0.898645
	H68	H	0.582523	0.112660	0.429059
	H69	H	0.577875	0.886070	0.603820
	H70	H	0.397382	0.111719	0.602339
	H71	H	0.414554	0.895621	0.434780
	H72	H	0.906046	0.610026	0.107189
	H73	H	0.074056	0.385639	0.097369
	H74	H	0.079704	0.611244	0.923952
	H75	H	0.898150	0.383045	0.917082
	H76	H	0.077964	0.909368	0.625291
	H77	H	0.077752	0.076327	0.401435
	H78	H	0.900125	0.092906	0.628152
	H79	H	0.898794	0.908660	0.398744
	H80	H	0.601005	0.089601	0.925204
	H81	H	0.373770	0.087902	0.101024
	H82	H	0.600909	0.905067	0.097670
	H83	H	0.375173	0.912246	0.925418
	H84	H	0.599430	0.912761	0.101510
	H85	H	0.374595	0.086552	0.100617
	H86	H	0.598301	0.086859	0.929002
	H87	H	0.373525	0.907798	0.922831
	H88	H	0.896061	0.084137	0.626716
	H89	H	0.066754	0.082565	0.402689
	H90	H	0.076616	0.914102	0.623190
	H91	H	0.896085	0.905681	0.397346
	H92	H	0.077070	0.611296	0.920126
	H93	H	0.075790	0.387084	0.095422
	H94	H	0.897793	0.607988	0.092674
	H95	H	0.900161	0.384532	0.919740
	H96	H	0.403270	0.110397	0.603643
	H97	H	0.580417	0.885425	0.602731
	H98	H	0.578202	0.114842	0.418201
	H99	H	0.387306	0.885821	0.433976
	H100	H	0.572680	0.408019	0.124271
	H101	H	0.575243	0.591132	0.897026
	H102	H	0.405422	0.582283	0.122133
	H103	H	0.409290	0.416756	0.905999
	H104	H	0.101644	0.587843	0.425929
	H105	H	0.875806	0.586954	0.602817
	H106	H	0.099235	0.413146	0.596137
	H107	H	0.875493	0.405114	0.424630
	H108	H	0.890335	0.614602	0.105976
	H109	H	0.077055	0.385387	0.097373
	H110	H	0.075302	0.609703	0.924007
	H111	H	0.896681	0.383624	0.920863
	H112	H	0.072809	0.910336	0.623474
	H113	H	0.076655	0.088096	0.397628
	H114	H	0.904927	0.086206	0.623828
	H115	H	0.894885	0.909863	0.397236
	H116	H	0.599760	0.084586	0.924105
	H117	H	0.374228	0.086176	0.102149
	H118	H	0.603500	0.905887	0.105900
	H119	H	0.375579	0.906894	0.928050
	C120	C	0.366753	0.006702	0.634525
	C121	C	0.610517	0.990419	0.636041
	C122	C	0.609484	0.007778	0.392624
	C123	C	0.368006	0.991170	0.391860
	C124	C	0.609011	0.376953	0.019854
	C125	C	0.610223	0.619664	1.002722
	C126	C	0.367288	0.618891	0.020491
	C127	C	0.366200	0.376719	1.004179
	C128	C	-0.002604	0.618233	0.391557
	C129	C	0.980120	0.622142	0.633658
	C130	C	-0.003293	0.378115	0.630458
	C131	C	0.979793	0.374813	0.388841
	C132	C	0.866630	0.506003	0.132737
	C133	C	0.108888	0.489777	0.131306
	C134	C	0.110702	0.507274	0.888498
	C135	C	0.867153	0.488622	0.888675
	C136	C	0.109605	0.877176	0.519738
	C137	C	0.108892	0.118189	0.503683
	C138	C	0.866529	0.120416	0.521816
	C139	C	0.866387	0.877238	0.503727
	C140	C	0.495886	0.119865	0.892404
	C141	C	0.478557	0.119535	0.133754
	C142	C	0.497544	0.874772	0.135791
	C143	C	0.479084	0.876981	0.892834
	C144	C	0.364788	0.887946	0.694367
	C145	C	0.610449	0.109948	0.695221
	C146	C	0.612285	0.889084	0.331972
	C147	C	0.364056	0.109183	0.330561
	C148	C	0.667985	0.373161	0.900066
	C149	C	0.669923	0.620057	0.122469
	C150	C	0.307341	0.622285	0.901036
	C151	C	0.302735	0.372829	0.121598
	C152	C	0.877791	0.677437	0.389358
	C153	C	0.098653	0.683252	0.637175
	C154	C	0.878512	0.316156	0.635513
	C155	C	0.097305	0.312001	0.383586
	C156	C	0.877279	0.376888	0.690362
	C157	C	0.099306	0.623892	0.693415
	C158	C	0.877394	0.618046	0.332963
	C159	C	0.098058	0.370692	0.327207
	C160	C	0.364366	0.680449	0.901966
	C161	C	0.611966	0.677803	0.123098
	C162	C	0.610185	0.315419	0.901119
	C163	C	0.361422	0.315896	0.122737
	C164	C	0.668317	0.888251	0.391673
	C165	C	0.669414	0.109857	0.638138
	C166	C	0.306221	0.888298	0.637190
	C167	C	0.305238	0.108413	0.387386
	C168	C	0.864867	0.387064	0.191783
	C169	C	0.112162	0.607493	0.193879
	C170	C	0.114680	0.389365	0.825754
	C171	C	0.867647	0.609117	0.831926
	C172	C	0.172233	0.872028	0.401590
	C173	C	0.172495	0.124537	0.621111
	C174	C	0.804632	0.123344	0.403287
	C175	C	0.808889	0.876629	0.624319
	C176	C	0.377720	0.181882	0.887246
	C177	C	0.596933	0.180879	0.137950
	C178	C	0.380072	0.812548	0.140974
	C179	C	0.598259	0.817224	0.890041
	C180	C	0.379857	0.871196	0.198172
	C181	C	0.598398	0.121081	0.192936
	C182	C	0.377698	0.123902	0.829767
	C183	C	0.598207	0.875381	0.832722
	C184	C	0.862310	0.180712	0.402748
	C185	C	0.115447	0.182969	0.620462
	C186	C	0.113296	0.815645	0.400683
	C187	C	0.865997	0.818191	0.623305
	C188	C	0.172891	0.389621	0.883499
	C189	C	0.169611	0.608170	0.135820
	C190	C	0.807839	0.386665	0.132724
	C191	C	0.808257	0.608215	0.888421
	C192	C	0.392911	0.088894	0.608839
	C193	C	0.586281	0.907263	0.611256
	C194	C	0.584743	0.090622	0.417488
	C195	C	0.394476	0.909639	0.418594
	C196	C	0.584504	0.402988	0.102903
	C197	C	0.585235	0.595492	0.918909
	C198	C	0.392903	0.592617	0.103080
	C199	C	0.393798	0.403061	0.922164
	C200	C	0.080288	0.594230	0.416865
	C201	C	0.897004	0.597014	0.608312
	C202	C	0.078980	0.403708	0.603878
	C203	C	0.897541	0.400862	0.415178
	C204	C	0.891145	0.589120	0.108692
	C205	C	0.083140	0.407622	0.104522
	C206	C	0.084927	0.589299	0.915070
	C207	C	0.891394	0.405630	0.912193
	C208	C	0.083484	0.903529	0.602347
	C209	C	0.081601	0.090179	0.421808
	C210	C	0.892839	0.095074	0.604623
	C211	C	0.889926	0.901190	0.419747
	C212	C	0.578143	0.094223	0.918632
	C213	C	0.395947	0.094372	0.108505
	C214	C	0.580095	0.900728	0.109423
	C215	C	0.396416	0.901860	0.918029
	Zn216	Zn	0.487464	-0.001491	0.764013
	Zn217	Zn	0.488491	-0.000979	0.262636
	Zn218	Zn	0.738176	0.497061	0.010276
	Zn219	Zn	0.238528	0.498893	0.011406
	Zn220	Zn	-0.011143	0.749318	0.510993
	Zn221	Zn	-0.011115	0.247597	0.511077
	Zn222	Zn	-0.011006	0.498485	0.760100
	Zn223	Zn	-0.010953	0.497034	0.261643
	Zn224	Zn	0.487946	0.747450	0.012818
	Zn225	Zn	0.487226	0.248035	0.013097
	Zn226	Zn	0.738622	-0.000756	0.513991
	Zn227	Zn	0.238451	-0.001956	0.512109
	N228	N	0.401513	0.962844	0.693058
	N229	N	0.574931	0.034556	0.694342
	N230	N	0.576499	0.964352	0.332259
	N231	N	0.401969	0.034968	0.332956
	N232	N	0.667330	0.410791	0.974932
	N233	N	0.668901	0.584622	0.046325
	N234	N	0.309106	0.584768	0.975535
	N235	N	0.305578	0.409875	0.046729
	N236	N	0.953230	0.677517	0.425465
	N237	N	0.023401	0.682188	0.600633
	N238	N	0.953882	0.316703	0.599153
	N239	N	0.022560	0.314281	0.421115
	N240	N	0.951881	0.414442	0.687595
	N241	N	0.024526	0.586526	0.691311
	N242	N	0.952771	0.582160	0.333967
	N243	N	0.023981	0.408862	0.330283
	N244	N	0.400845	0.678646	0.977528
	N245	N	0.575438	0.677552	0.047682
	N246	N	0.574200	0.317621	0.976766
	N247	N	0.400096	0.318241	0.048492
	N248	N	0.666793	0.963141	0.428594
	N249	N	0.669808	0.034337	0.602480
	N250	N	0.307102	0.963143	0.601073
	N251	N	0.307597	0.034050	0.424759
	N252	N	0.900793	0.462194	0.191860
	N253	N	0.075453	0.532745	0.191294
	N254	N	0.076877	0.463545	0.828587
	N255	N	0.903252	0.533837	0.831673
	N256	N	0.170351	0.909536	0.476724
	N257	N	0.168349	0.084680	0.547432
	N258	N	0.807389	0.086315	0.478155
	N259	N	0.809047	0.912754	0.548817
	N260	N	0.451990	0.179224	0.925496
	N261	N	0.521441	0.180120	0.101857
	N262	N	0.454541	0.814576	0.103183
	N263	N	0.523219	0.817950	0.926519
	N264	N	0.454188	0.909199	0.195177
	N265	N	0.523843	0.083772	0.190855
	N266	N	0.452055	0.085727	0.832953
	N267	N	0.523263	0.912140	0.834396
	N268	N	0.900149	0.179070	0.477632
	N269	N	0.076300	0.178742	0.546450
	N270	N	0.075400	0.818592	0.475413
	N271	N	0.900973	0.818309	0.547194
	N272	N	0.170626	0.463933	0.921623
	N273	N	0.167835	0.533829	0.097767
	N274	N	0.808635	0.461864	0.096933
	N275	N	0.807406	0.532212	0.922500
	O276	O	0.787852	1.095649	1.105974
	H277	H	0.785294	1.080635	1.100052
	H278	H	0.784070	1.080628	1.099697
	O279	O	0.808276	-0.071008	1.082005
	H280	H	0.811402	-0.087449	1.073738
	H281	H	0.798629	-0.076308	1.080010
	O282	O	0.677724	0.498798	0.676262
	H283	H	0.678951	0.494439	0.696779
	H284	H	0.661176	0.487280	0.683436
	O285	O	0.460234	0.469853	0.312179
	H286	H	0.479954	0.491686	0.318308
	H287	H	0.440434	0.479452	0.309453
	O288	O	1.201732	1.211400	0.033689
	H289	H	1.163858	1.221683	0.004317
	H290	H	1.229539	1.240693	0.030801
	O291	O	0.484558	0.708147	0.311202
	H292	H	0.481000	0.705613	0.314723
	H293	H	0.489792	0.715923	0.287264
	O294	O	0.203369	0.045026	0.960141
	H295	H	0.201840	0.047324	0.926119
	H296	H	0.210509	0.073468	0.951094
	O297	O	0.279804	0.544830	0.550255
	H298	H	0.286919	0.540028	0.551576
	H299	H	0.284158	0.513972	0.558413
	O300	O	0.462248	0.577932	0.459163
	H301	H	0.483477	0.574472	0.449688
	H302	H	0.473616	0.594171	0.468062
	O303	O	0.052776	0.929260	0.206094
	H304	H	0.076281	0.941690	0.184865
	H305	H	0.072518	0.938298	0.190367
	O306	O	0.624355	0.319940	0.565322
	H307	H	0.635990	0.305052	0.559471
	H308	H	0.615041	0.331596	0.543591
	O309	O	1.418186	-0.671179	0.622426
	H310	H	1.426307	-0.674987	0.601608
	H311	H	1.429664	-0.679514	0.622305
	O312	O	-0.032646	1.190191	1.032114
	H313	H	-0.040326	1.197396	1.062496
	H314	H	-0.049245	1.188120	1.035874
	O315	O	0.273154	0.536280	0.296486
	H316	H	0.237669	0.539159	0.265294
	H317	H	0.275024	0.559308	0.313695
	O318	O	1.202207	-0.217372	-0.010883
	H319	H	1.234722	-0.235112	-0.018926
	H320	H	1.218964	-0.185438	0.012011
	O321	O	-0.037021	-0.206503	0.215799
	H322	H	-0.023176	-0.209642	0.220099
	H323	H	-0.016667	-0.193228	0.220869
	O324	O	0.623976	0.550643	0.405869
	H325	H	0.623769	0.565453	0.400376
	H326	H	0.615723	0.547674	0.418394
	O327	O	0.673968	0.486057	0.313316
	H328	H	0.677452	0.479582	0.307326
	H329	H	0.686239	0.476167	0.316181
	O330	O	0.210907	0.931693	0.078402
	H331	H	0.211529	0.969779	0.041428
	H332	H	0.218429	0.956476	0.126317
	O333	O	1.008923	-0.203528	0.813685
	H334	H	0.992783	-0.206343	0.819524
	H335	H	0.995311	-0.197761	0.806342
	O336	O	0.005383	-0.212949	0.010678
	H337	H	0.009282	-0.198879	0.029760
	H338	H	0.030264	-0.217435	0.010617
	O339	O	0.296875	0.688059	1.317139
	H340	H	0.286215	0.692103	1.348116
	H341	H	0.318905	0.690593	1.316597
	O342	O	0.007319	1.205336	1.220590
	H343	H	-0.002843	1.221402	1.254307
	H344	H	-0.011254	1.173233	1.238664
	O345	O	0.817236	1.006740	-0.138752
	H346	H	0.830686	1.025441	-0.139583
	H347	H	0.788509	1.012964	-0.163528
	O348	O	-0.050579	0.914662	0.106976
	H349	H	-0.065832	0.922812	0.112294
	H350	H	-0.021065	0.902667	0.094027
	O351	O	-0.200797	0.895705	0.923474
	H352	H	-0.205680	0.886806	0.925847
	H353	H	-0.182340	0.890346	0.924770
	O354	O	0.172884	0.819770	-0.174730
	H355	H	0.118840	0.807658	-0.181331
	H356	H	0.189359	0.798238	-0.142714
	O357	O	-0.063823	0.050818	1.238205
	H358	H	-0.084208	0.021581	1.236559
	H359	H	-0.051411	0.019190	1.236166
	O360	O	0.599427	0.473391	0.695494
	H361	H	0.600447	0.469071	0.702344
	H362	H	0.589714	0.487249	0.687503
	O363	O	0.275157	-0.519400	0.711214
	H364	H	0.262070	-0.538874	0.721937
	H365	H	0.261085	-0.512862	0.709914
	O366	O	0.357678	0.304216	0.674744
	H367	H	0.356533	0.313874	0.691401
	H368	H	0.374235	0.294131	0.660177
	O369	O	0.682768	0.696871	0.707733
	H370	H	0.678640	0.681167	0.686865
	H371	H	0.672357	0.693973	0.713782
	O372	O	0.784792	0.107316	0.808050
	H373	H	0.760560	0.116000	0.814736
	H374	H	0.816614	0.140265	0.811761
	O375	O	0.599831	0.470808	0.547308
	H376	H	0.609513	0.470094	0.544533
	H377	H	0.602200	0.463576	0.555010
	O378	O	0.466650	0.284656	0.430348
	H379	H	0.475320	0.303545	0.410120
	H380	H	0.461860	0.274249	0.418530
	O381	O	0.692189	0.314279	0.434519
	H382	H	0.686521	0.314621	0.440393
	H383	H	0.697967	0.330396	0.439029
	O384	O	0.497365	0.560887	0.716996
	H385	H	0.497950	0.559998	0.732154
	H386	H	0.515035	0.567090	0.711064
	O387	O	-0.703176	0.695125	0.494947
	H388	H	-0.713359	0.716541	0.502126
	H389	H	-0.712454	0.675578	0.511852
	O390	O	-0.102431	0.078772	-0.020125
	H391	H	-0.117834	0.097874	-0.002493
	H392	H	-0.082283	0.069154	-0.026059
	O393	O	1.034148	1.038241	0.891324
	H394	H	1.047188	1.033378	0.892115
	H395	H	1.029926	1.019722	0.891639
	O396	O	0.945483	0.131103	-0.187104
	H397	H	0.940641	0.150382	-0.220067
	H398	H	0.960810	0.098164	-0.189412
	O399	O	1.211683	0.016974	1.232036
	H400	H	1.196127	0.069580	1.217629
	H401	H	1.247616	0.024109	1.272507
	O402	O	1.465420	0.583952	0.546703
	H403	H	1.462450	0.595303	0.555120
	H404	H	1.468736	0.575693	0.544986
	O405	O	0.993672	1.161663	-0.022547
	H406	H	0.960481	1.150176	-0.008112
	H407	H	0.977076	1.162372	-0.035412
	O408	O	0.838000	0.209231	-0.098754
	H409	H	0.834719	0.211000	-0.085781
	H410	H	0.843741	0.212314	-0.097154
	O411	O	0.816660	0.828935	-0.004979
	H412	H	0.832587	0.828444	0.005582
	H413	H	0.822641	0.831303	-0.030614
	O414	O	-0.214909	0.793645	1.221220
	H415	H	-0.180728	0.791144	1.220942
	H416	H	-0.215939	0.787166	1.191318
	O417	O	0.558272	0.443932	0.416813
	H418	H	0.540580	0.425584	0.397748
	H419	H	0.581749	0.446311	0.454324
	O420	O	0.505397	0.300713	0.317369
	H421	H	0.495403	0.319628	0.307575
	H422	H	0.493873	0.298697	0.298198
	O423	O	0.613481	1.642995	0.402314
	H424	H	0.623983	1.667004	0.397468
	H425	H	0.624595	1.640434	0.423547
	O426	O	1.098452	1.117303	-0.170777
	H427	H	1.101084	1.106763	-0.167278
	H428	H	1.085450	1.090001	-0.172891
	O429	O	0.677904	0.653426	0.527757
	H430	H	0.666134	0.656034	0.533759
	H431	H	0.687018	0.647426	0.529969
	O432	O	1.208137	-0.022276	-0.208777
	H433	H	1.215703	-0.051302	-0.217737
	H434	H	1.224916	-0.051222	-0.225049
	O435	O	0.488464	0.696626	0.594909
	H436	H	0.475521	0.706159	0.581795
	H437	H	0.479341	0.675975	0.599804
	O438	O	-0.185307	-0.075818	0.100143
	H439	H	-0.174272	-0.095709	0.080861
	H440	H	-0.194132	-0.094891	0.114313
	O441	O	0.890589	0.029543	-0.115310
	H442	H	0.858713	0.029935	-0.119195
	H443	H	0.896626	0.041601	-0.087820
	O444	O	0.440409	1.534190	0.696052
	H445	H	0.422252	1.532691	0.698105
	H446	H	0.446042	1.509540	0.696265
	O447	O	0.168398	0.170676	0.191943
	H448	H	0.180329	0.185721	0.138930
	H449	H	0.115386	0.184006	0.201120
	O450	O	0.296684	0.333928	0.520983
	H451	H	0.293185	0.329089	0.519402
	H452	H	0.311738	0.330054	0.521276
	O453	O	0.424090	0.394494	0.524037
	H454	H	0.417351	0.394258	0.504389
	H455	H	0.435096	0.394887	0.505075
