data_Molecule from HDF5

_cell_length_a		16.264362
_cell_length_b		16.214837
_cell_length_c		16.280817
_cell_angle_alpha	90.265643
_cell_angle_beta	90.436569
_cell_angle_gamma	89.990985
_symmetry_space_group_name_H-M	'P 1'
_symmetry_Int_Tables_number		1

loop_
	_symmetry_equiv_pos_as_xyz
	x,y,z

loop_
	_atom_site_label
	_atom_site_type_symbol
	_atom_site_fract_x
	_atom_site_fract_y
	_atom_site_fract_z
	H0	H	0.413387	0.833555	0.714329
	H1	H	0.611894	0.162284	0.718135
	H2	H	0.610557	0.834924	0.285601
	H3	H	0.411331	0.162208	0.287624
	H4	H	0.721740	0.399265	0.837995
	H5	H	0.725720	0.598259	0.165381
	H6	H	0.292341	0.596979	0.838949
	H7	H	0.296720	0.399752	0.165909
	H8	H	0.846132	0.710469	0.403962
	H9	H	0.173954	0.710734	0.602907
	H10	H	0.846336	0.281356	0.598644
	H11	H	0.173462	0.283363	0.405878
	H12	H	0.844521	0.397757	0.713441
	H13	H	0.172374	0.596560	0.720813
	H14	H	0.845713	0.594094	0.287548
	H15	H	0.173100	0.395430	0.287975
	H16	H	0.410160	0.710849	0.837104
	H17	H	0.608825	0.713781	0.165393
	H18	H	0.605922	0.283905	0.838404
	H19	H	0.411306	0.283770	0.165673
	H20	H	0.723935	0.833475	0.403958
	H21	H	0.727447	0.161345	0.602246
	H22	H	0.297317	0.833624	0.598819
	H23	H	0.294876	0.161279	0.401224
	H24	H	0.912209	0.332435	0.213308
	H25	H	0.108565	0.660839	0.219627
	H26	H	0.108501	0.333025	0.787834
	H27	H	0.909179	0.660871	0.787724
	H28	H	0.222936	0.897474	0.336880
	H29	H	0.227571	0.097131	0.664728
	H30	H	0.794332	0.095745	0.339233
	H31	H	0.797985	0.898129	0.665602
	H32	H	0.346023	0.211847	0.902476
	H33	H	0.673643	0.213312	0.101555
	H34	H	0.345460	0.786034	0.097152
	H35	H	0.673154	0.783669	0.903568
	H36	H	0.347052	0.899253	0.215341
	H37	H	0.673314	0.099677	0.219249
	H38	H	0.347769	0.098770	0.783527
	H39	H	0.674799	0.899408	0.789328
	H40	H	0.911851	0.209162	0.338089
	H41	H	0.112144	0.212811	0.665032
	H42	H	0.108214	0.780443	0.338574
	H43	H	0.914499	0.784670	0.666143
	H44	H	0.223587	0.333327	0.904286
	H45	H	0.223368	0.662519	0.103422
	H46	H	0.797111	0.332661	0.097429
	H47	H	0.794112	0.661339	0.903294
	H48	H	0.418229	0.114319	0.591567
	H49	H	0.608298	0.879439	0.598970
	H50	H	0.611703	0.118774	0.406246
	H51	H	0.404837	0.878518	0.410452
	H52	H	0.606129	0.408994	0.118843
	H53	H	0.594914	0.592566	0.886207
	H54	H	0.419974	0.592455	0.117077
	H55	H	0.416316	0.403982	0.884906
	H56	H	0.127367	0.595691	0.413498
	H57	H	0.894159	0.586609	0.595476
	H58	H	0.128190	0.398720	0.599041
	H59	H	0.894214	0.404484	0.412082
	H60	H	0.123630	0.406895	0.590226
	H61	H	0.891356	0.592563	0.598185
	H62	H	0.123019	0.582880	0.416519
	H63	H	0.891452	0.406099	0.401982
	H64	H	0.417032	0.596327	0.119651
	H65	H	0.606319	0.596254	0.882610
	H66	H	0.600189	0.405791	0.117436
	H67	H	0.413418	0.405602	0.885349
	H68	H	0.595192	0.114775	0.405535
	H69	H	0.600422	0.881729	0.597729
	H70	H	0.419558	0.115518	0.594828
	H71	H	0.421661	0.878312	0.395079
	H72	H	0.915967	0.615540	0.096822
	H73	H	0.102090	0.378352	0.102890
	H74	H	0.098630	0.612010	0.917890
	H75	H	0.912677	0.380562	0.912086
	H76	H	0.108139	0.902339	0.619223
	H77	H	0.095264	0.091522	0.387302
	H78	H	0.923434	0.088099	0.616546
	H79	H	0.920505	0.908958	0.388117
	H80	H	0.627147	0.086718	0.905241
	H81	H	0.395293	0.090370	0.090436
	H82	H	0.630311	0.903623	0.102561
	H83	H	0.394306	0.911133	0.904500
	H84	H	0.627051	0.900330	0.088409
	H85	H	0.393222	0.087937	0.097485
	H86	H	0.629326	0.097447	0.908548
	H87	H	0.391019	0.901758	0.901638
	H88	H	0.919875	0.093466	0.619569
	H89	H	0.107634	0.097272	0.381390
	H90	H	0.107447	0.908939	0.617372
	H91	H	0.919955	0.895844	0.383703
	H92	H	0.106034	0.615595	0.910257
	H93	H	0.097949	0.384071	0.091091
	H94	H	0.917836	0.615180	0.097122
	H95	H	0.912197	0.377267	0.904075
	H96	H	0.421739	0.113658	0.592515
	H97	H	0.605772	0.880830	0.591020
	H98	H	0.604341	0.112465	0.420081
	H99	H	0.425520	0.885845	0.416300
	H100	H	0.606173	0.402072	0.121331
	H101	H	0.604721	0.584536	0.886028
	H102	H	0.414958	0.591541	0.118260
	H103	H	0.415937	0.407616	0.886437
	H104	H	0.128305	0.585533	0.403518
	H105	H	0.893286	0.593153	0.591194
	H106	H	0.126036	0.411307	0.602176
	H107	H	0.889839	0.396876	0.406362
	H108	H	0.917365	0.614562	0.095733
	H109	H	0.110464	0.378641	0.091831
	H110	H	0.095315	0.613940	0.906682
	H111	H	0.919396	0.381037	0.907406
	H112	H	0.101577	0.904773	0.617205
	H113	H	0.107366	0.082529	0.385872
	H114	H	0.916668	0.087037	0.618625
	H115	H	0.908651	0.902924	0.383281
	H116	H	0.625050	0.089670	0.916195
	H117	H	0.392307	0.094899	0.095274
	H118	H	0.624644	0.914162	0.093944
	H119	H	0.393336	0.904079	0.911069
	C120	C	0.390572	0.006027	0.621816
	C121	C	0.633724	0.989200	0.624863
	C122	C	0.632090	0.006930	0.381246
	C123	C	0.388849	0.989342	0.378864
	C124	C	0.631173	0.376569	0.010914
	C125	C	0.631336	0.620233	0.993292
	C126	C	0.387552	0.621184	0.010278
	C127	C	0.388047	0.377188	0.993944
	C128	C	0.018035	0.617145	0.381759
	C129	C	1.001084	0.619273	0.625009
	C130	C	0.017464	0.376258	0.623570
	C131	C	1.000845	0.374573	0.380026
	C132	C	0.889143	0.506121	0.123187
	C133	C	0.132114	0.488816	0.125031
	C134	C	0.129534	0.505622	0.882203
	C135	C	0.886792	0.488364	0.880015
	C136	C	0.132883	0.875526	0.509803
	C137	C	0.133378	0.120028	0.492876
	C138	C	0.889568	0.118097	0.510611
	C139	C	0.888895	0.874918	0.493288
	C140	C	0.518952	0.120111	0.880296
	C141	C	0.501871	0.120291	0.123814
	C142	C	0.518900	0.877553	0.122515
	C143	C	0.501572	0.877198	0.879256
	C144	C	0.392691	0.882927	0.677139
	C145	C	0.632121	0.112938	0.680458
	C146	C	0.630163	0.883513	0.324667
	C147	C	0.391155	0.113001	0.324679
	C148	C	0.684433	0.379139	0.887027
	C149	C	0.687143	0.618121	0.116622
	C150	C	0.330303	0.618279	0.887771
	C151	C	0.333898	0.379432	0.117071
	C152	C	0.894989	0.672656	0.383477
	C153	C	0.124687	0.673757	0.623404
	C154	C	0.894772	0.319823	0.619598
	C155	C	0.124435	0.320570	0.384494
	C156	C	0.893930	0.377571	0.676917
	C157	C	0.123856	0.616988	0.681967
	C158	C	0.894754	0.614980	0.325755
	C159	C	0.124133	0.376388	0.325883
	C160	C	0.389496	0.674265	0.886460
	C161	C	0.629228	0.675881	0.116422
	C162	C	0.627270	0.321506	0.887287
	C163	C	0.391221	0.321937	0.116925
	C164	C	0.686331	0.882703	0.383454
	C165	C	0.689501	0.112501	0.623003
	C166	C	0.334948	0.882806	0.619408
	C167	C	0.333187	0.112559	0.381185
	C168	C	0.892296	0.381491	0.175743
	C169	C	0.129237	0.612121	0.181168
	C170	C	0.127947	0.382030	0.826411
	C171	C	0.889056	0.611772	0.825108
	C172	C	0.186502	0.876782	0.386280
	C173	C	0.189744	0.117812	0.615754
	C174	C	0.833064	0.115748	0.387814
	C175	C	0.835270	0.878106	0.616713
	C176	C	0.395396	0.174449	0.882112
	C177	C	0.624855	0.175806	0.121788
	C178	C	0.394930	0.822882	0.118805
	C179	C	0.624590	0.821544	0.883108
	C180	C	0.395575	0.879376	0.177374
	C181	C	0.624522	0.119331	0.180587
	C182	C	0.396223	0.118454	0.822710
	C183	C	0.625367	0.879159	0.826170
	C184	C	0.891515	0.172066	0.387119
	C185	C	0.131717	0.175088	0.616057
	C186	C	0.129244	0.818881	0.387118
	C187	C	0.892950	0.821344	0.617037
	C188	C	0.185598	0.382278	0.884148
	C189	C	0.186447	0.612735	0.123514
	C190	C	0.834525	0.381877	0.118754
	C191	C	0.831914	0.612317	0.882597
	C192	C	0.413177	0.092321	0.599511
	C193	C	0.611428	0.902946	0.602426
	C194	C	0.610096	0.092935	0.403998
	C195	C	0.410922	0.902982	0.400838
	C196	C	0.610311	0.398951	0.096796
	C197	C	0.608784	0.597571	0.907296
	C198	C	0.410563	0.599641	0.096253
	C199	C	0.408995	0.399250	0.907937
	C200	C	0.103940	0.594664	0.404558
	C201	C	0.915206	0.597351	0.601771
	C202	C	0.103713	0.398915	0.603048
	C203	C	0.914305	0.396238	0.400689
	C204	C	0.910626	0.592648	0.102583
	C205	C	0.109975	0.402499	0.102092
	C206	C	0.106591	0.591748	0.904924
	C207	C	0.908342	0.402072	0.901478
	C208	C	0.111817	0.898539	0.595737
	C209	C	0.110198	0.097091	0.406960
	C210	C	0.913051	0.096069	0.596165
	C211	C	0.910139	0.896146	0.407394
	C212	C	0.604930	0.097861	0.903126
	C213	C	0.415767	0.097633	0.101042
	C214	C	0.604876	0.899634	0.101376
	C215	C	0.415280	0.899393	0.899681
	Zn216	Zn	0.511268	-0.001688	0.751578
	Zn217	Zn	0.510412	-0.001385	0.252120
	Zn218	Zn	0.759964	0.497909	0.001731
	Zn219	Zn	0.259231	0.498157	0.002986
	Zn220	Zn	0.010560	0.746950	0.502609
	Zn221	Zn	0.010075	0.247366	0.501926
	Zn222	Zn	0.008369	0.496588	0.752814
	Zn223	Zn	0.009700	0.496053	0.252168
	Zn224	Zn	0.509398	0.749397	0.000734
	Zn225	Zn	0.509428	0.248660	0.002382
	Zn226	Zn	0.761125	-0.002830	0.502786
	Zn227	Zn	0.261235	-0.002422	0.500485
	N228	N	0.426685	0.960715	0.678582
	N229	N	0.597885	0.035293	0.681519
	N230	N	0.597090	0.961608	0.323008
	N231	N	0.425016	0.035335	0.323209
	N232	N	0.687211	0.412579	0.964791
	N233	N	0.688686	0.584310	0.039034
	N234	N	0.329071	0.585862	0.965810
	N235	N	0.331961	0.413208	0.039721
	N236	N	0.972677	0.673901	0.417765
	N237	N	0.047302	0.675212	0.588759
	N238	N	0.972823	0.318705	0.587392
	N239	N	0.046836	0.319192	0.417396
	N240	N	0.971205	0.411991	0.679283
	N241	N	0.046053	0.583993	0.683174
	N242	N	0.972355	0.581346	0.324370
	N243	N	0.046130	0.409248	0.323085
	N244	N	0.424102	0.676483	0.963805
	N245	N	0.595011	0.676902	0.038952
	N246	N	0.594934	0.319697	0.965146
	N247	N	0.424178	0.320360	0.039307
	N248	N	0.687567	0.960298	0.418087
	N249	N	0.690638	0.034613	0.589269
	N250	N	0.333836	0.960369	0.585519
	N251	N	0.331577	0.034622	0.414200
	N252	N	0.925351	0.459568	0.178742
	N253	N	0.096321	0.533901	0.182431
	N254	N	0.094100	0.459840	0.824915
	N255	N	0.922364	0.533758	0.823477
	N256	N	0.189001	0.911257	0.463569
	N257	N	0.190870	0.084231	0.538046
	N258	N	0.832051	0.082725	0.465329
	N259	N	0.832414	0.910785	0.538852
	N260	N	0.472615	0.175413	0.917272
	N261	N	0.547404	0.176506	0.087274
	N262	N	0.472483	0.821350	0.085555
	N263	N	0.546497	0.820141	0.915152
	N264	N	0.473525	0.912400	0.179999
	N265	N	0.546954	0.085665	0.181754
	N266	N	0.473973	0.084987	0.821757
	N267	N	0.547822	0.913093	0.823617
	N268	N	0.926166	0.173732	0.464636
	N269	N	0.097448	0.176547	0.538691
	N270	N	0.096557	0.817984	0.464944
	N271	N	0.925961	0.819379	0.539546
	N272	N	0.186556	0.460117	0.918212
	N273	N	0.188296	0.534897	0.089279
	N274	N	0.832539	0.460211	0.086408
	N275	N	0.830378	0.534733	0.916047
	O276	O	1.006634	0.969714	-0.062955
	H277	H	1.018788	0.966145	-0.061271
	H278	H	1.006619	0.967802	-0.056361
	O279	O	0.067550	-0.117408	0.909781
	H280	H	0.053744	-0.114617	0.909002
	H281	H	0.061626	-0.121030	0.892673
	O282	O	0.034886	0.089858	-0.033707
	H283	H	0.023854	0.086606	-0.032590
	H284	H	0.026754	0.099529	-0.036252
	O285	O	0.444116	0.540655	0.396403
	H286	H	0.429389	0.543869	0.387676
	H287	H	0.452119	0.537957	0.397943
	O288	O	-0.020034	-0.047381	-0.004303
	H289	H	-0.011304	-0.052529	-0.007604
	H290	H	-0.027962	-0.031965	-0.000001
	O291	O	0.047361	1.116960	-0.024340
	H292	H	0.055513	1.128216	-0.030692
	H293	H	0.042773	1.115634	-0.030390
	O294	O	0.093114	0.914403	0.018134
	H295	H	0.102451	0.920032	0.006027
	H296	H	0.102007	0.922533	0.024864
	O297	O	0.479988	0.494258	0.508153
	H298	H	0.479131	0.498683	0.513622
	H299	H	0.483077	0.492335	0.499851
	O300	O	0.509677	0.529785	0.497677
	H301	H	0.493510	0.529806	0.486701
	H302	H	0.521123	0.535822	0.500737
	O303	O	1.049604	-0.028054	1.005535
	H304	H	1.052902	-0.035328	1.008330
	H305	H	1.042734	-0.027443	1.005731
	O306	O	-0.034270	0.954769	0.976538
	H307	H	-0.031476	0.954918	0.987708
	H308	H	-0.023252	0.952584	0.972672
	O309	O	-0.060316	0.961653	0.944077
	H310	H	-0.060680	0.948243	0.948739
	H311	H	-0.071237	0.964966	0.939168
	O312	O	-0.031267	0.004443	0.984901
	H313	H	-0.024457	0.011147	0.981021
	H314	H	-0.028743	0.000226	0.986164
	O315	O	0.455555	0.486369	0.499871
	H316	H	0.454939	0.481755	0.510127
	H317	H	0.449841	0.471052	0.503778
	O318	O	0.022485	0.001132	0.982871
	H319	H	0.009817	-0.009718	0.979949
	H320	H	0.027056	-0.005699	0.982384
	O321	O	0.429708	0.544697	0.557636
	H322	H	0.421153	0.546006	0.557575
	H323	H	0.433382	0.544886	0.554335
	O324	O	0.971071	0.046432	1.047361
	H325	H	0.970186	0.044136	1.056037
	H326	H	0.977216	0.046787	1.055004
	O327	O	1.100853	0.964553	1.030720
	H328	H	1.100586	0.975129	1.028891
	H329	H	1.115902	0.956498	1.025951
	O330	O	0.474759	0.492973	0.516831
	H331	H	0.471370	0.488922	0.508568
	H332	H	0.472369	0.492088	0.528712
	O333	O	0.508140	0.515555	0.504090
	H334	H	0.518326	0.516174	0.500231
	H335	H	0.507328	0.525444	0.503290
	O336	O	0.481935	0.487412	0.545965
	H337	H	0.485426	0.492163	0.537901
	H338	H	0.484036	0.478414	0.552095
	O339	O	-0.482138	0.555533	-0.465301
	H340	H	-0.477671	0.561222	-0.461430
	H341	H	-0.479549	0.558200	-0.462719
	O342	O	0.444066	0.522827	0.447764
	H343	H	0.437545	0.516996	0.453683
	H344	H	0.452293	0.530910	0.439621
	O345	O	0.495737	0.509207	0.508892
	H346	H	0.498999	0.520121	0.503916
	H347	H	0.488115	0.508321	0.504680
