data_Molecule from HDF5

_cell_length_a		16.337095
_cell_length_b		16.267570
_cell_length_c		16.286156
_cell_angle_alpha	90.103370
_cell_angle_beta	90.026648
_cell_angle_gamma	89.958838
_symmetry_space_group_name_H-M	'P 1'
_symmetry_Int_Tables_number		1

loop_
	_symmetry_equiv_pos_as_xyz
	x,y,z

loop_
	_atom_site_label
	_atom_site_type_symbol
	_atom_site_fract_x
	_atom_site_fract_y
	_atom_site_fract_z
	H0	H	0.408880	0.843595	0.705837
	H1	H	0.603352	0.170979	0.709206
	H2	H	0.603884	0.843752	0.278665
	H3	H	0.406898	0.171561	0.280143
	H4	H	0.717255	0.407387	0.829713
	H5	H	0.718372	0.606335	0.156641
	H6	H	0.287937	0.606633	0.829862
	H7	H	0.288092	0.408365	0.156888
	H8	H	0.840148	0.723364	0.395219
	H9	H	0.166487	0.720949	0.591080
	H10	H	0.840821	0.291146	0.591809
	H11	H	0.166934	0.292781	0.394353
	H12	H	0.839250	0.408750	0.707047
	H13	H	0.165780	0.607384	0.708967
	H14	H	0.838935	0.606457	0.278955
	H15	H	0.165307	0.407555	0.276332
	H16	H	0.405421	0.721030	0.829369
	H17	H	0.600476	0.721055	0.157270
	H18	H	0.599700	0.293360	0.830093
	H19	H	0.404515	0.293127	0.157226
	H20	H	0.718811	0.843407	0.395913
	H21	H	0.717983	0.171710	0.591609
	H22	H	0.291898	0.843805	0.592015
	H23	H	0.289244	0.171327	0.394264
	H24	H	0.906110	0.343886	0.206195
	H25	H	0.099238	0.672360	0.206542
	H26	H	0.099907	0.344077	0.778803
	H27	H	0.905097	0.671812	0.780008
	H28	H	0.219585	0.908278	0.330425
	H29	H	0.219737	0.106529	0.657155
	H30	H	0.789005	0.107077	0.330315
	H31	H	0.789883	0.909059	0.657604
	H32	H	0.340397	0.221303	0.895811
	H33	H	0.666903	0.223838	0.092810
	H34	H	0.339696	0.794946	0.090567
	H35	H	0.667127	0.792293	0.896365
	H36	H	0.340491	0.910346	0.207866
	H37	H	0.667728	0.106135	0.208403
	H38	H	0.340967	0.105980	0.778411
	H39	H	0.667602	0.909216	0.779853
	H40	H	0.906236	0.221043	0.329884
	H41	H	0.103316	0.222832	0.656963
	H42	H	0.102000	0.793066	0.329598
	H43	H	0.908180	0.794685	0.657961
	H44	H	0.216640	0.343410	0.895117
	H45	H	0.217695	0.671410	0.092806
	H46	H	0.788970	0.343447	0.091030
	H47	H	0.787659	0.671205	0.894826
	H48	H	0.407768	0.123561	0.577558
	H49	H	0.616990	0.887861	0.575209
	H50	H	0.597587	0.123746	0.400898
	H51	H	0.419226	0.892572	0.399047
	H52	H	0.600848	0.411837	0.112710
	H53	H	0.593654	0.606070	0.875730
	H54	H	0.402364	0.601459	0.112187
	H55	H	0.417297	0.412110	0.878580
	H56	H	0.121292	0.606801	0.398600
	H57	H	0.886948	0.602728	0.586360
	H58	H	0.116432	0.412695	0.575815
	H59	H	0.887700	0.410929	0.403452
	H60	H	0.116252	0.425256	0.589712
	H61	H	0.886708	0.600276	0.586350
	H62	H	0.116474	0.598992	0.406123
	H63	H	0.889234	0.418409	0.402011
	H64	H	0.412408	0.595629	0.108301
	H65	H	0.602217	0.597398	0.876277
	H66	H	0.598050	0.420637	0.109061
	H67	H	0.404160	0.408552	0.873878
	H68	H	0.597360	0.123910	0.401264
	H69	H	0.598356	0.884482	0.607677
	H70	H	0.406250	0.128581	0.593553
	H71	H	0.409632	0.892425	0.407975
	H72	H	0.908086	0.622663	0.079677
	H73	H	0.097719	0.392824	0.080390
	H74	H	0.092862	0.626201	0.893317
	H75	H	0.908229	0.391913	0.901462
	H76	H	0.112163	0.915581	0.613377
	H77	H	0.097621	0.097607	0.378468
	H78	H	0.909780	0.103415	0.611492
	H79	H	0.904869	0.904292	0.372600
	H80	H	0.619491	0.107055	0.907175
	H81	H	0.389402	0.096926	0.087390
	H82	H	0.622055	0.914196	0.091832
	H83	H	0.386475	0.904721	0.906399
	H84	H	0.620570	0.908813	0.085944
	H85	H	0.387529	0.102277	0.089617
	H86	H	0.617582	0.092500	0.901236
	H87	H	0.391678	0.923811	0.903457
	H88	H	0.908443	0.097218	0.609975
	H89	H	0.096082	0.100476	0.377598
	H90	H	0.092625	0.923341	0.605906
	H91	H	0.904216	0.926651	0.379354
	H92	H	0.092331	0.620289	0.907799
	H93	H	0.100433	0.389350	0.088315
	H94	H	0.905103	0.626000	0.088989
	H95	H	0.908376	0.390212	0.898885
	H96	H	0.420726	0.121959	0.588078
	H97	H	0.581027	0.898585	0.577668
	H98	H	0.598489	0.123377	0.401137
	H99	H	0.407137	0.888319	0.395448
	H100	H	0.591601	0.413224	0.109088
	H101	H	0.591356	0.594837	0.879706
	H102	H	0.412586	0.607450	0.110882
	H103	H	0.407663	0.422146	0.878210
	H104	H	0.118947	0.595514	0.394386
	H105	H	0.886965	0.601479	0.588023
	H106	H	0.122847	0.407894	0.593596
	H107	H	0.885662	0.413422	0.396088
	H108	H	0.914971	0.622679	0.087638
	H109	H	0.091628	0.391720	0.087232
	H110	H	0.105482	0.626767	0.902188
	H111	H	0.911133	0.391634	0.899685
	H112	H	0.094447	0.902129	0.612594
	H113	H	0.099355	0.100401	0.377025
	H114	H	0.914626	0.100221	0.609396
	H115	H	0.923715	0.914764	0.381054
	H116	H	0.623517	0.103755	0.892842
	H117	H	0.389246	0.102187	0.083427
	H118	H	0.618107	0.917270	0.084408
	H119	H	0.384260	0.912881	0.888287
	C120	C	0.383868	0.016096	0.614662
	C121	C	0.626654	0.998991	0.615223
	C122	C	0.626261	0.015496	0.372299
	C123	C	0.383367	0.999428	0.372168
	C124	C	0.624688	0.386175	0.001857
	C125	C	0.624698	0.628503	0.985026
	C126	C	0.381111	0.629345	0.001880
	C127	C	0.381454	0.385891	0.985243
	C128	C	0.010916	0.629161	0.371574
	C129	C	0.994587	0.629566	0.615219
	C130	C	0.010905	0.385951	0.614825
	C131	C	0.995040	0.385381	0.371250
	C132	C	0.881463	0.515781	0.114153
	C133	C	0.124375	0.499523	0.114506
	C134	C	0.124636	0.516281	0.871903
	C135	C	0.880787	0.499150	0.871688
	C136	C	0.126746	0.885315	0.502077
	C137	C	0.126291	0.128826	0.485532
	C138	C	0.882554	0.128804	0.502132
	C139	C	0.883039	0.886700	0.485957
	C140	C	0.512244	0.129081	0.871777
	C141	C	0.496252	0.129280	0.115500
	C142	C	0.512109	0.885790	0.115399
	C143	C	0.495505	0.885592	0.871528
	C144	C	0.387488	0.892685	0.669010
	C145	C	0.623683	0.122192	0.670797
	C146	C	0.623770	0.892270	0.317499
	C147	C	0.386011	0.122553	0.317443
	C148	C	0.679510	0.387548	0.878805
	C149	C	0.680138	0.626565	0.107958
	C150	C	0.326268	0.626489	0.878542
	C151	C	0.326239	0.388235	0.108180
	C152	C	0.888537	0.685292	0.374214
	C153	C	0.117588	0.683647	0.611927
	C154	C	0.888919	0.329982	0.611983
	C155	C	0.117877	0.330441	0.373796
	C156	C	0.888217	0.388333	0.669472
	C157	C	0.117153	0.627195	0.670624
	C158	C	0.887908	0.626956	0.316686
	C159	C	0.117250	0.387649	0.315290
	C160	C	0.384642	0.683297	0.878145
	C161	C	0.621613	0.683406	0.108451
	C162	C	0.620950	0.331016	0.878840
	C163	C	0.384070	0.330987	0.108429
	C164	C	0.681198	0.892324	0.375392
	C165	C	0.680834	0.122546	0.612767
	C166	C	0.329410	0.892940	0.612413
	C167	C	0.327664	0.122466	0.374291
	C168	C	0.884692	0.392418	0.168876
	C169	C	0.120527	0.623369	0.168963
	C170	C	0.121144	0.393043	0.816513
	C171	C	0.883975	0.622694	0.817456
	C172	C	0.181266	0.887840	0.379019
	C173	C	0.181498	0.126554	0.608568
	C174	C	0.827280	0.126924	0.378962
	C175	C	0.828290	0.888919	0.609005
	C176	C	0.389279	0.183786	0.874848
	C177	C	0.618771	0.184878	0.112989
	C178	C	0.388637	0.832151	0.111780
	C179	C	0.618470	0.830238	0.875044
	C180	C	0.389277	0.889140	0.170359
	C181	C	0.619060	0.126580	0.170516
	C182	C	0.389437	0.126030	0.817023
	C183	C	0.618801	0.888505	0.817558
	C184	C	0.885633	0.183419	0.378569
	C185	C	0.123955	0.184641	0.608398
	C186	C	0.122823	0.830830	0.378686
	C187	C	0.886759	0.832127	0.609135
	C188	C	0.179405	0.392752	0.873845
	C189	C	0.179058	0.623008	0.112339
	C190	C	0.826497	0.392625	0.111865
	C191	C	0.825731	0.622396	0.874291
	C192	C	0.405224	0.102366	0.592757
	C193	C	0.605096	0.912496	0.593289
	C194	C	0.604115	0.101595	0.394361
	C195	C	0.405643	0.913533	0.394219
	C196	C	0.603131	0.408557	0.088170
	C197	C	0.602171	0.606143	0.899346
	C198	C	0.402667	0.607929	0.088097
	C199	C	0.403092	0.407991	0.899156
	C200	C	0.096698	0.606886	0.393294
	C201	C	0.908895	0.607927	0.593204
	C202	C	0.096400	0.408736	0.592818
	C203	C	0.909592	0.407719	0.393829
	C204	C	0.903157	0.601577	0.092278
	C205	C	0.102880	0.413617	0.092082
	C206	C	0.103309	0.602124	0.894646
	C207	C	0.902780	0.413347	0.893575
	C208	C	0.105835	0.907125	0.588185
	C209	C	0.104235	0.106210	0.399889
	C210	C	0.904450	0.106793	0.587962
	C211	C	0.904683	0.908732	0.399830
	C212	C	0.597951	0.107356	0.893859
	C213	C	0.410733	0.107108	0.093428
	C214	C	0.598036	0.907140	0.093832
	C215	C	0.409820	0.907228	0.893033
	Zn216	Zn	0.504528	0.007888	0.742958
	Zn217	Zn	0.504649	0.007250	0.244036
	Zn218	Zn	0.752785	0.507080	-0.007160
	Zn219	Zn	0.253502	0.507477	-0.006491
	Zn220	Zn	0.003718	0.757746	0.493300
	Zn221	Zn	0.003990	0.256846	0.493462
	Zn222	Zn	0.002428	0.508108	0.743582
	Zn223	Zn	0.002700	0.507769	0.242386
	Zn224	Zn	0.502933	0.756858	-0.006362
	Zn225	Zn	0.503323	0.258053	-0.005908
	Zn226	Zn	0.754500	0.007798	0.493993
	Zn227	Zn	0.255233	0.007214	0.493989
	N228	N	0.420874	0.970250	0.670195
	N229	N	0.590710	0.044291	0.672439
	N230	N	0.590256	0.969874	0.315584
	N231	N	0.419732	0.045010	0.315997
	N232	N	0.681639	0.421107	0.956395
	N233	N	0.682057	0.593210	0.030347
	N234	N	0.324020	0.593595	0.956411
	N235	N	0.324513	0.421609	0.030590
	N236	N	0.965940	0.686720	0.407434
	N237	N	0.040431	0.685348	0.578209
	N238	N	0.966157	0.328492	0.578837
	N239	N	0.040903	0.329100	0.408034
	N240	N	0.965226	0.422714	0.671138
	N241	N	0.039701	0.594050	0.672672
	N242	N	0.965009	0.592608	0.315010
	N243	N	0.040042	0.421236	0.313670
	N244	N	0.417815	0.685251	0.955785
	N245	N	0.587761	0.684659	0.030979
	N246	N	0.587626	0.330128	0.956450
	N247	N	0.417609	0.329343	0.030922
	N248	N	0.682551	0.969994	0.408927
	N249	N	0.682546	0.045078	0.578868
	N250	N	0.326922	0.970706	0.579397
	N251	N	0.325859	0.044840	0.407613
	N252	N	0.918243	0.469949	0.170368
	N253	N	0.087562	0.545642	0.170589
	N254	N	0.087929	0.470848	0.815180
	N255	N	0.917609	0.545084	0.815651
	N256	N	0.183696	0.921043	0.456522
	N257	N	0.182979	0.092433	0.531227
	N258	N	0.825504	0.093466	0.456482
	N259	N	0.825830	0.922112	0.531358
	N260	N	0.466609	0.185884	0.908293
	N261	N	0.541364	0.186778	0.079558
	N262	N	0.465897	0.829883	0.078347
	N263	N	0.540852	0.828319	0.907951
	N264	N	0.467090	0.921653	0.172626
	N265	N	0.541990	0.092637	0.171953
	N266	N	0.466952	0.092983	0.815008
	N267	N	0.541630	0.922256	0.815289
	N268	N	0.919262	0.184827	0.456119
	N269	N	0.090412	0.186137	0.530903
	N270	N	0.089573	0.829215	0.456319
	N271	N	0.920295	0.830920	0.531647
	N272	N	0.181748	0.470277	0.907683
	N273	N	0.181680	0.545097	0.079218
	N274	N	0.824562	0.470037	0.078430
	N275	N	0.823646	0.544673	0.907185
	O276	O	0.473657	-0.515417	1.476644
	H277	H	0.466228	-0.517720	1.480968
	H278	H	0.466920	-0.511803	1.480282
	O279	O	0.401960	0.515481	0.509124
	H280	H	0.405598	0.528615	0.502093
	H281	H	0.398102	0.527332	0.504120
	O282	O	-0.522063	0.521065	1.451401
	H283	H	-0.526061	0.518781	1.452644
	H284	H	-0.518463	0.509283	1.450290
	O285	O	0.400014	0.600178	0.463027
	H286	H	0.405161	0.604048	0.460391
	H287	H	0.400129	0.600252	0.455566
	O288	O	0.436470	0.554859	0.437222
	H289	H	0.428699	0.550621	0.434412
	H290	H	0.439931	0.546814	0.431214
	O291	O	0.413683	0.493025	0.443808
	H292	H	0.416024	0.496853	0.446419
	H293	H	0.412071	0.487303	0.455933
	O294	O	0.424788	0.498206	0.488986
	H295	H	0.423882	0.499514	0.485096
	H296	H	0.417951	0.497186	0.492992
	O297	O	1.073336	0.003969	0.015199
	H298	H	1.073461	0.004243	0.020751
	H299	H	1.075710	0.005551	0.013207
