data_Molecule from HDF5

_cell_length_a		16.319599
_cell_length_b		16.273133
_cell_length_c		16.291016
_cell_angle_alpha	89.755020
_cell_angle_beta	89.994388
_cell_angle_gamma	90.181831
_symmetry_space_group_name_H-M	'P 1'
_symmetry_Int_Tables_number		1

loop_
	_symmetry_equiv_pos_as_xyz
	x,y,z

loop_
	_atom_site_label
	_atom_site_type_symbol
	_atom_site_fract_x
	_atom_site_fract_y
	_atom_site_fract_z
	H0	H	0.416078	0.839818	0.715437
	H1	H	0.612816	0.167409	0.714643
	H2	H	0.611505	0.839995	0.287116
	H3	H	0.415623	0.167819	0.286430
	H4	H	0.728432	0.406724	0.838941
	H5	H	0.728525	0.603517	0.165430
	H6	H	0.297229	0.604651	0.838940
	H7	H	0.297486	0.403250	0.165282
	H8	H	0.849802	0.717949	0.403129
	H9	H	0.176516	0.717126	0.599658
	H10	H	0.849886	0.287490	0.600145
	H11	H	0.177635	0.290727	0.405238
	H12	H	0.849584	0.403535	0.717645
	H13	H	0.175595	0.602346	0.716845
	H14	H	0.849663	0.601329	0.288105
	H15	H	0.176599	0.405578	0.287727
	H16	H	0.414424	0.719484	0.838040
	H17	H	0.611334	0.717750	0.165996
	H18	H	0.610573	0.292182	0.837788
	H19	H	0.413332	0.287334	0.164857
	H20	H	0.726581	0.839790	0.403894
	H21	H	0.728470	0.166655	0.598995
	H22	H	0.298704	0.840033	0.601267
	H23	H	0.298259	0.166834	0.400202
	H24	H	0.913754	0.339996	0.216874
	H25	H	0.112160	0.667872	0.217257
	H26	H	0.110811	0.340204	0.788845
	H27	H	0.914267	0.666714	0.786422
	H28	H	0.226775	0.906721	0.337562
	H29	H	0.229164	0.101525	0.665150
	H30	H	0.799808	0.102485	0.338028
	H31	H	0.796749	0.902402	0.664541
	H32	H	0.349453	0.220296	0.900698
	H33	H	0.676669	0.218158	0.097492
	H34	H	0.349470	0.788491	0.100859
	H35	H	0.676304	0.790593	0.904472
	H36	H	0.350246	0.904384	0.217764
	H37	H	0.676785	0.103669	0.214972
	H38	H	0.349759	0.103721	0.784379
	H39	H	0.676850	0.907925	0.788939
	H40	H	0.915657	0.218859	0.338761
	H41	H	0.113270	0.217622	0.665919
	H42	H	0.110561	0.790191	0.337893
	H43	H	0.915629	0.788771	0.665756
	H44	H	0.227445	0.341135	0.903450
	H45	H	0.229129	0.667862	0.100970
	H46	H	0.796676	0.341762	0.102181
	H47	H	0.800231	0.668554	0.903647
	H48	H	0.418999	0.118954	0.588106
	H49	H	0.595564	0.891638	0.589309
	H50	H	0.609848	0.121519	0.405401
	H51	H	0.421556	0.886769	0.401918
	H52	H	0.605429	0.411302	0.118503
	H53	H	0.606919	0.602956	0.884178
	H54	H	0.425905	0.604965	0.119026
	H55	H	0.420945	0.412951	0.886910
	H56	H	0.129430	0.599063	0.412226
	H57	H	0.896271	0.595098	0.595131
	H58	H	0.131632	0.399482	0.595519
	H59	H	0.895284	0.403423	0.407827
	H60	H	0.124396	0.416058	0.586799
	H61	H	0.896691	0.595766	0.595872
	H62	H	0.127627	0.593120	0.410041
	H63	H	0.899461	0.411334	0.417236
	H64	H	0.410933	0.594459	0.120574
	H65	H	0.611119	0.594750	0.885311
	H66	H	0.605731	0.410441	0.118363
	H67	H	0.418929	0.409631	0.884703
	H68	H	0.604152	0.120107	0.406494
	H69	H	0.615937	0.885743	0.588954
	H70	H	0.418141	0.122084	0.596385
	H71	H	0.425084	0.890361	0.414033
	H72	H	0.913073	0.622297	0.091804
	H73	H	0.105274	0.389747	0.090956
	H74	H	0.101392	0.619343	0.908539
	H75	H	0.919587	0.387937	0.910491
	H76	H	0.104173	0.915518	0.616043
	H77	H	0.112855	0.096402	0.384282
	H78	H	0.915500	0.093010	0.619046
	H79	H	0.920712	0.899084	0.382129
	H80	H	0.628398	0.100974	0.910041
	H81	H	0.395968	0.104877	0.087996
	H82	H	0.632907	0.897512	0.095455
	H83	H	0.393968	0.909394	0.900362
	H84	H	0.624620	0.915766	0.083912
	H85	H	0.401181	0.087134	0.090156
	H86	H	0.627232	0.095274	0.908183
	H87	H	0.396710	0.904792	0.914169
	H88	H	0.924261	0.090873	0.615386
	H89	H	0.103132	0.091286	0.389491
	H90	H	0.103529	0.904020	0.618760
	H91	H	0.909520	0.917464	0.384494
	H92	H	0.108493	0.620288	0.912890
	H93	H	0.109026	0.387141	0.097168
	H94	H	0.921755	0.622997	0.103957
	H95	H	0.918239	0.387701	0.911897
	H96	H	0.425679	0.118963	0.594114
	H97	H	0.605107	0.883642	0.606888
	H98	H	0.608460	0.118876	0.410202
	H99	H	0.413385	0.885747	0.411645
	H100	H	0.606272	0.411261	0.117974
	H101	H	0.601877	0.595673	0.887712
	H102	H	0.426756	0.588081	0.113239
	H103	H	0.417191	0.413433	0.885026
	H104	H	0.129677	0.597200	0.406046
	H105	H	0.896194	0.596029	0.595033
	H106	H	0.130574	0.416559	0.606103
	H107	H	0.897953	0.415781	0.404894
	H108	H	0.927112	0.617343	0.090892
	H109	H	0.101843	0.388521	0.097956
	H110	H	0.108252	0.622394	0.904912
	H111	H	0.917904	0.387875	0.910473
	H112	H	0.113693	0.909454	0.620187
	H113	H	0.102597	0.102499	0.384759
	H114	H	0.922399	0.099662	0.619279
	H115	H	0.929884	0.916467	0.390647
	H116	H	0.630630	0.099161	0.904338
	H117	H	0.394415	0.096425	0.104580
	H118	H	0.630507	0.918114	0.105687
	H119	H	0.399892	0.918101	0.910425
	C120	C	0.391998	0.011837	0.622622
	C121	C	0.635074	0.994975	0.623086
	C122	C	0.635269	0.012082	0.379482
	C123	C	0.392127	0.995540	0.379866
	C124	C	0.634211	0.383541	0.010220
	C125	C	0.635080	0.626162	0.993819
	C126	C	0.391655	0.625485	0.009858
	C127	C	0.390871	0.382462	0.993653
	C128	C	0.021463	0.625212	0.380379
	C129	C	1.004175	0.624463	0.623715
	C130	C	0.021315	0.381275	0.624828
	C131	C	1.005361	0.381885	0.381194
	C132	C	0.891403	0.512988	0.124322
	C133	C	0.134507	0.496046	0.124130
	C134	C	0.134058	0.512445	0.880495
	C135	C	0.891107	0.495892	0.881312
	C136	C	0.135446	0.881634	0.510089
	C137	C	0.135285	0.124965	0.494096
	C138	C	0.892357	0.124231	0.509824
	C139	C	0.891275	0.881283	0.493503
	C140	C	0.520717	0.126750	0.878611
	C141	C	0.505061	0.125140	0.122503
	C142	C	0.521174	0.882043	0.123651
	C143	C	0.504608	0.883018	0.880517
	C144	C	0.394828	0.888867	0.678079
	C145	C	0.632915	0.118222	0.677124
	C146	C	0.632343	0.888957	0.324423
	C147	C	0.395096	0.118767	0.324228
	C148	C	0.689540	0.386899	0.887325
	C149	C	0.690512	0.623976	0.116631
	C150	C	0.335934	0.623997	0.887405
	C151	C	0.335467	0.383552	0.116475
	C152	C	0.898580	0.680246	0.382845
	C153	C	0.127592	0.679433	0.620529
	C154	C	0.898653	0.325208	0.621843
	C155	C	0.128512	0.327654	0.384053
	C156	C	0.898401	0.383059	0.679629
	C157	C	0.127110	0.622288	0.678672
	C158	C	0.898264	0.622167	0.325886
	C159	C	0.127854	0.384631	0.325466
	C160	C	0.394437	0.680860	0.886795
	C161	C	0.631918	0.680277	0.117130
	C162	C	0.631286	0.329680	0.886847
	C163	C	0.393042	0.325779	0.116247
	C164	C	0.689404	0.888620	0.382565
	C165	C	0.690895	0.117878	0.620154
	C166	C	0.336626	0.889047	0.621196
	C167	C	0.336865	0.118434	0.380981
	C168	C	0.893372	0.389393	0.179303
	C169	C	0.132902	0.619021	0.179579
	C170	C	0.131319	0.389355	0.826234
	C171	C	0.894055	0.618497	0.825222
	C172	C	0.190030	0.885059	0.386858
	C173	C	0.190913	0.122190	0.616673
	C174	C	0.837628	0.122492	0.386855
	C175	C	0.835379	0.882573	0.616107
	C176	C	0.398117	0.181858	0.880657
	C177	C	0.627848	0.180810	0.118759
	C178	C	0.398228	0.826558	0.121356
	C179	C	0.627791	0.828537	0.883698
	C180	C	0.398770	0.884186	0.179331
	C181	C	0.627847	0.123794	0.177212
	C182	C	0.398280	0.123986	0.822889
	C183	C	0.627813	0.886283	0.825921
	C184	C	0.895360	0.180263	0.387159
	C185	C	0.133413	0.179858	0.616998
	C186	C	0.131861	0.827444	0.386803
	C187	C	0.894207	0.826003	0.616670
	C188	C	0.189286	0.389711	0.883376
	C189	C	0.190627	0.619183	0.121782
	C190	C	0.835271	0.390036	0.122390
	C191	C	0.837199	0.619313	0.883317
	C192	C	0.414329	0.097970	0.599484
	C193	C	0.612291	0.909186	0.601398
	C194	C	0.613847	0.097933	0.401045
	C195	C	0.413715	0.909777	0.402544
	C196	C	0.612162	0.404861	0.096071
	C197	C	0.613073	0.604212	0.907828
	C198	C	0.414426	0.602521	0.095599
	C199	C	0.412591	0.405359	0.907931
	C200	C	0.106854	0.602938	0.402789
	C201	C	0.918660	0.602117	0.601796
	C202	C	0.106721	0.404125	0.602715
	C203	C	0.919654	0.403640	0.403474
	C204	C	0.914060	0.598575	0.102081
	C205	C	0.112165	0.410650	0.101928
	C206	C	0.112305	0.598470	0.902445
	C207	C	0.912361	0.409987	0.904316
	C208	C	0.113593	0.903267	0.595989
	C209	C	0.112872	0.103064	0.408438
	C210	C	0.914335	0.101225	0.595869
	C211	C	0.913664	0.904138	0.407932
	C212	C	0.606629	0.104982	0.900922
	C213	C	0.419260	0.102653	0.100771
	C214	C	0.607069	0.904040	0.101361
	C215	C	0.418946	0.904413	0.902047
	Zn216	Zn	0.513362	0.004340	0.751027
	Zn217	Zn	0.513830	0.003936	0.251817
	Zn218	Zn	0.763086	0.504973	0.002474
	Zn219	Zn	0.262698	0.504488	0.001922
	Zn220	Zn	0.013020	0.752989	0.501804
	Zn221	Zn	0.013834	0.252876	0.502832
	Zn222	Zn	0.012399	0.503454	0.753139
	Zn223	Zn	0.012612	0.504027	0.252407
	Zn224	Zn	0.513308	0.753803	0.001994
	Zn225	Zn	0.512577	0.254321	0.001257
	Zn226	Zn	0.763136	0.003046	0.501575
	Zn227	Zn	0.263844	0.003866	0.501446
	N228	N	0.428514	0.966471	0.679095
	N229	N	0.598884	0.040832	0.678942
	N230	N	0.599205	0.966563	0.322614
	N231	N	0.428852	0.041363	0.323422
	N232	N	0.691523	0.419545	0.965158
	N233	N	0.692615	0.591275	0.038887
	N234	N	0.334366	0.590211	0.964933
	N235	N	0.333728	0.417841	0.039083
	N236	N	0.976216	0.682320	0.415943
	N237	N	0.050317	0.680990	0.587005
	N238	N	0.976294	0.323581	0.588877
	N239	N	0.051501	0.325959	0.418071
	N240	N	0.975573	0.417025	0.681715
	N241	N	0.049454	0.588891	0.680861
	N242	N	0.975517	0.588605	0.324303
	N243	N	0.050209	0.417664	0.323586
	N244	N	0.428418	0.681814	0.964194
	N245	N	0.598287	0.681982	0.039610
	N246	N	0.597713	0.327289	0.964232
	N247	N	0.426614	0.324927	0.038980
	N248	N	0.691450	0.966085	0.415945
	N249	N	0.692299	0.040289	0.587099
	N250	N	0.335092	0.966582	0.587254
	N251	N	0.334773	0.040909	0.414751
	N252	N	0.927681	0.466673	0.180478
	N253	N	0.098674	0.541743	0.180993
	N254	N	0.097725	0.466678	0.824703
	N255	N	0.926777	0.540768	0.824030
	N256	N	0.191976	0.918250	0.464527
	N257	N	0.192230	0.088948	0.539259
	N258	N	0.835950	0.088127	0.464155
	N259	N	0.833574	0.916427	0.538618
	N260	N	0.475405	0.183839	0.914432
	N261	N	0.550306	0.181924	0.085576
	N262	N	0.475370	0.825084	0.087487
	N263	N	0.550191	0.826135	0.916765
	N264	N	0.476253	0.917807	0.180870
	N265	N	0.550668	0.089727	0.179281
	N266	N	0.475555	0.090535	0.821516
	N267	N	0.550475	0.919460	0.823877
	N268	N	0.928801	0.181102	0.464709
	N269	N	0.099327	0.181633	0.539756
	N270	N	0.098873	0.824993	0.464389
	N271	N	0.928473	0.825400	0.539609
	N272	N	0.191244	0.467371	0.916374
	N273	N	0.191969	0.541844	0.088004
	N274	N	0.833938	0.467654	0.088848
	N275	N	0.835517	0.541934	0.917703
	O276	O	0.488144	0.471915	0.475689
	H277	H	0.491627	0.468292	0.475296
	H278	H	0.481378	0.467358	0.471545
	O279	O	0.034767	0.066517	0.008654
	H280	H	0.036548	0.067838	0.010865
	H281	H	0.044747	0.065167	0.013447
	O282	O	0.452871	0.492481	0.522656
	H283	H	0.453240	0.484634	0.521957
	H284	H	0.457361	0.498852	0.527048
	O285	O	0.493441	0.510850	0.470389
	H286	H	0.484451	0.507913	0.466338
	H287	H	0.494866	0.511718	0.460345
	O288	O	1.462077	0.503020	-0.543912
	H289	H	1.463778	0.505567	-0.544534
	H290	H	1.452819	0.505844	-0.551027
	O291	O	-0.978045	0.051993	0.014368
	H292	H	-0.975696	0.047273	0.004180
	H293	H	-0.970621	0.053422	0.016300
	O294	O	0.438529	0.505424	0.476414
	H295	H	0.433407	0.504249	0.484854
	H296	H	0.435590	0.500576	0.481389
	O297	O	-0.013242	1.053127	0.053995
	H298	H	-0.012920	1.066053	0.044762
	H299	H	-0.018446	1.044981	0.058051
	O300	O	0.450439	0.506742	0.552970
	H301	H	0.455209	0.513415	0.553774
	H302	H	0.450611	0.503134	0.558328
	O303	O	0.438299	0.484488	0.528644
	H304	H	0.434276	0.489402	0.529148
	H305	H	0.440799	0.483998	0.529435
	O306	O	0.027022	1.091539	1.075095
	H307	H	0.021917	1.094370	1.077646
	H308	H	0.021506	1.088807	1.070589
	O309	O	0.070096	0.054318	1.032035
	H310	H	0.070108	0.061091	1.031708
	H311	H	0.072112	0.059322	1.042739
