data_Molecule from HDF5

_cell_length_a		16.285572
_cell_length_b		16.116711
_cell_length_c		16.358769
_cell_angle_alpha	90.406612
_cell_angle_beta	90.432098
_cell_angle_gamma	90.057310
_symmetry_space_group_name_H-M	'P 1'
_symmetry_Int_Tables_number		1

loop_
	_symmetry_equiv_pos_as_xyz
	x,y,z

loop_
	_atom_site_label
	_atom_site_type_symbol
	_atom_site_fract_x
	_atom_site_fract_y
	_atom_site_fract_z
	H0	H	0.394452	0.836180	0.720710
	H1	H	0.598023	0.163824	0.727889
	H2	H	0.593821	0.837104	0.294712
	H3	H	0.395451	0.166774	0.293507
	H4	H	0.711452	0.398870	0.847223
	H5	H	0.713435	0.603917	0.172184
	H6	H	0.276910	0.601508	0.847845
	H7	H	0.281564	0.403678	0.173225
	H8	H	0.830543	0.713714	0.414006
	H9	H	0.158646	0.717637	0.609870
	H10	H	0.831676	0.288514	0.604858
	H11	H	0.159296	0.287529	0.411701
	H12	H	0.832232	0.400839	0.724836
	H13	H	0.156335	0.607474	0.730126
	H14	H	0.833230	0.603719	0.292465
	H15	H	0.158831	0.401864	0.294428
	H16	H	0.397155	0.712990	0.845556
	H17	H	0.594229	0.718253	0.172050
	H18	H	0.592978	0.284788	0.846456
	H19	H	0.398522	0.287327	0.173139
	H20	H	0.708013	0.837178	0.409927
	H21	H	0.709818	0.165962	0.610523
	H22	H	0.281825	0.837161	0.603533
	H23	H	0.279134	0.166897	0.407535
	H24	H	0.895668	0.337999	0.222984
	H25	H	0.096569	0.666664	0.227366
	H26	H	0.094874	0.338780	0.793565
	H27	H	0.894255	0.667251	0.796426
	H28	H	0.209704	0.900335	0.346041
	H29	H	0.217100	0.107895	0.670234
	H30	H	0.775897	0.103059	0.347275
	H31	H	0.779543	0.902188	0.671450
	H32	H	0.331371	0.214499	0.909555
	H33	H	0.659020	0.215904	0.107875
	H34	H	0.331964	0.788643	0.103691
	H35	H	0.659117	0.787032	0.911830
	H36	H	0.333399	0.900076	0.224161
	H37	H	0.657435	0.105290	0.228094
	H38	H	0.333377	0.102272	0.790108
	H39	H	0.658191	0.898126	0.792353
	H40	H	0.897198	0.214827	0.345300
	H41	H	0.095013	0.218468	0.672348
	H42	H	0.090753	0.786445	0.346103
	H43	H	0.898495	0.789365	0.672993
	H44	H	0.208199	0.337402	0.911331
	H45	H	0.211551	0.667012	0.112389
	H46	H	0.782946	0.336641	0.107105
	H47	H	0.779583	0.666548	0.911438
	H48	H	0.405234	0.120530	0.603606
	H49	H	0.586690	0.884859	0.595678
	H50	H	0.597484	0.120116	0.426791
	H51	H	0.408244	0.884006	0.408038
	H52	H	0.596094	0.410906	0.125784
	H53	H	0.596993	0.584875	0.893230
	H54	H	0.394546	0.600441	0.129785
	H55	H	0.397459	0.414481	0.895728
	H56	H	0.112846	0.590444	0.408455
	H57	H	0.879370	0.588915	0.603706
	H58	H	0.107553	0.422204	0.600975
	H59	H	0.877048	0.410160	0.407065
	H60	H	0.114752	0.410553	0.614180
	H61	H	0.875936	0.598449	0.608409
	H62	H	0.113972	0.604576	0.420817
	H63	H	0.877980	0.402342	0.418474
	H64	H	0.404296	0.584077	0.121666
	H65	H	0.578433	0.589712	0.897517
	H66	H	0.586522	0.414366	0.123145
	H67	H	0.407118	0.407542	0.896488
	H68	H	0.588258	0.124295	0.405992
	H69	H	0.593371	0.880982	0.600678
	H70	H	0.412974	0.116504	0.599683
	H71	H	0.405927	0.888217	0.421973
	H72	H	0.900804	0.620076	0.100126
	H73	H	0.090398	0.385099	0.101747
	H74	H	0.082168	0.616645	0.927083
	H75	H	0.905288	0.385572	0.917544
	H76	H	0.097499	0.909807	0.627286
	H77	H	0.082236	0.090420	0.396193
	H78	H	0.910867	0.100022	0.624348
	H79	H	0.906952	0.908041	0.395125
	H80	H	0.610604	0.088116	0.916911
	H81	H	0.374027	0.099940	0.110020
	H82	H	0.610340	0.915885	0.103704
	H83	H	0.380486	0.913369	0.914902
	H84	H	0.614091	0.909473	0.106468
	H85	H	0.380416	0.098129	0.091888
	H86	H	0.612803	0.094326	0.913992
	H87	H	0.376769	0.907702	0.907056
	H88	H	0.894548	0.101089	0.628843
	H89	H	0.086541	0.098802	0.392161
	H90	H	0.090046	0.918376	0.622400
	H91	H	0.897231	0.903252	0.391631
	H92	H	0.094845	0.622312	0.920113
	H93	H	0.087791	0.383866	0.105192
	H94	H	0.904422	0.620350	0.107150
	H95	H	0.900979	0.384052	0.916271
	H96	H	0.404772	0.117966	0.595459
	H97	H	0.585321	0.883044	0.604876
	H98	H	0.574806	0.114117	0.423253
	H99	H	0.393729	0.881988	0.414123
	H100	H	0.587706	0.404587	0.126102
	H101	H	0.589882	0.603351	0.890156
	H102	H	0.413540	0.601561	0.123823
	H103	H	0.396960	0.403251	0.891132
	H104	H	0.108440	0.587784	0.425924
	H105	H	0.878877	0.598208	0.598172
	H106	H	0.110990	0.403707	0.596771
	H107	H	0.883329	0.416815	0.418989
	H108	H	0.908201	0.618379	0.100211
	H109	H	0.086383	0.385749	0.100995
	H110	H	0.081640	0.620701	0.912053
	H111	H	0.904530	0.385136	0.913826
	H112	H	0.085201	0.907037	0.625145
	H113	H	0.092258	0.090385	0.393204
	H114	H	0.900761	0.086417	0.622407
	H115	H	0.897451	0.914098	0.394485
	H116	H	0.610785	0.093816	0.920495
	H117	H	0.380918	0.083394	0.103890
	H118	H	0.611347	0.908725	0.098162
	H119	H	0.378572	0.902980	0.915012
	C120	C	0.376742	0.009793	0.627586
	C121	C	0.617715	0.991621	0.630793
	C122	C	0.615641	0.010696	0.388674
	C123	C	0.373394	0.993635	0.385885
	C124	C	0.617601	0.379732	0.017472
	C125	C	0.617939	0.623397	1.001174
	C126	C	0.373984	0.623614	0.018018
	C127	C	0.372850	0.379566	1.001975
	C128	C	0.003886	0.623537	0.388971
	C129	C	0.985968	0.625102	0.633040
	C130	C	0.003487	0.381956	0.631433
	C131	C	0.987347	0.380285	0.386836
	C132	C	0.875104	0.510506	0.130697
	C133	C	0.117569	0.493732	0.132432
	C134	C	0.115154	0.511305	0.889760
	C135	C	0.873941	0.493557	0.887932
	C136	C	0.117757	0.880817	0.517561
	C137	C	0.117701	0.124117	0.500883
	C138	C	0.872680	0.124469	0.517658
	C139	C	0.873025	0.880481	0.501332
	C140	C	0.503652	0.122171	0.887154
	C141	C	0.486409	0.123714	0.131606
	C142	C	0.504109	0.881452	0.130145
	C143	C	0.486752	0.878499	0.884925
	C144	C	0.376122	0.885737	0.682613
	C145	C	0.617181	0.114980	0.688869
	C146	C	0.614013	0.886520	0.332448
	C147	C	0.374821	0.117440	0.330908
	C148	C	0.673020	0.379766	0.895665
	C149	C	0.674428	0.623187	0.123492
	C150	C	0.316215	0.621294	0.896127
	C151	C	0.318895	0.382416	0.124597
	C152	C	0.879923	0.677335	0.392259
	C153	C	0.109225	0.680742	0.630980
	C154	C	0.880658	0.325701	0.626876
	C155	C	0.110207	0.324806	0.390358
	C156	C	0.880870	0.382098	0.686249
	C157	C	0.108101	0.625889	0.690776
	C158	C	0.881428	0.622692	0.331852
	C159	C	0.109969	0.381712	0.332043
	C160	C	0.375781	0.677170	0.894848
	C161	C	0.615203	0.679961	0.123522
	C162	C	0.613644	0.323282	0.895105
	C163	C	0.377274	0.324751	0.124460
	C164	C	0.670889	0.886514	0.389764
	C165	C	0.673004	0.116052	0.630572
	C166	C	0.319834	0.886099	0.624435
	C167	C	0.317097	0.117365	0.387658
	C168	C	0.876162	0.387017	0.185614
	C169	C	0.116362	0.617469	0.189063
	C170	C	0.114429	0.387696	0.832502
	C171	C	0.874624	0.617618	0.833587
	C172	C	0.171640	0.881168	0.394836
	C173	C	0.176745	0.125770	0.622363
	C174	C	0.815470	0.122519	0.395543
	C175	C	0.818277	0.882753	0.623349
	C176	C	0.380728	0.177588	0.888988
	C177	C	0.609687	0.178999	0.129212
	C178	C	0.380888	0.826080	0.125587
	C179	C	0.609907	0.823544	0.889713
	C180	C	0.381650	0.881609	0.185279
	C181	C	0.608890	0.124076	0.189054
	C182	C	0.381806	0.121986	0.829139
	C183	C	0.609351	0.878914	0.830473
	C184	C	0.875812	0.178044	0.394439
	C185	C	0.116078	0.180739	0.623450
	C186	C	0.112936	0.824091	0.395081
	C187	C	0.877363	0.826529	0.624228
	C188	C	0.170363	0.386835	0.891263
	C189	C	0.173743	0.617504	0.131945
	C190	C	0.819768	0.386516	0.127797
	C191	C	0.818017	0.617459	0.891186
	C192	C	0.400748	0.095995	0.605962
	C193	C	0.595151	0.905311	0.607351
	C194	C	0.593244	0.097281	0.411749
	C195	C	0.396028	0.907113	0.408019
	C196	C	0.596355	0.403078	0.102892
	C197	C	0.595005	0.599536	0.915760
	C198	C	0.397476	0.601883	0.103141
	C199	C	0.394195	0.401981	0.916494
	C200	C	0.089565	0.600937	0.411808
	C201	C	0.900305	0.602081	0.610200
	C202	C	0.089026	0.405376	0.610232
	C203	C	0.901566	0.403176	0.408408
	C204	C	0.897855	0.597095	0.108767
	C205	C	0.094872	0.407289	0.109343
	C206	C	0.092913	0.597616	0.913109
	C207	C	0.896937	0.407172	0.909376
	C208	C	0.096895	0.904642	0.602799
	C209	C	0.094012	0.100192	0.416071
	C210	C	0.895360	0.102339	0.602933
	C211	C	0.894403	0.902062	0.415908
	C212	C	0.589217	0.099011	0.910245
	C213	C	0.400775	0.100608	0.108725
	C214	C	0.589791	0.904461	0.108874
	C215	C	0.400963	0.901327	0.905914
	Zn216	Zn	0.496182	0.000334	0.757626
	Zn217	Zn	0.495790	0.002443	0.259662
	Zn218	Zn	0.746960	0.501344	0.009698
	Zn219	Zn	0.244093	0.502177	0.010522
	Zn220	Zn	-0.005037	0.751599	0.510130
	Zn221	Zn	-0.004108	0.252789	0.509477
	Zn222	Zn	-0.005209	0.503324	0.760537
	Zn223	Zn	-0.004345	0.502476	0.259396
	Zn224	Zn	0.495604	0.752603	0.008254
	Zn225	Zn	0.494916	0.250751	0.009358
	Zn226	Zn	0.743888	0.001748	0.508987
	Zn227	Zn	0.246999	0.002703	0.508572
	N228	N	0.410947	0.963636	0.684574
	N229	N	0.583621	0.036534	0.689360
	N230	N	0.580535	0.964766	0.331727
	N231	N	0.409004	0.039542	0.329750
	N232	N	0.675574	0.414136	0.972815
	N233	N	0.676176	0.588778	0.046319
	N234	N	0.314739	0.588889	0.973735
	N235	N	0.316015	0.415614	0.047355
	N236	N	0.956925	0.677798	0.427186
	N237	N	0.032329	0.680339	0.595791
	N238	N	0.957909	0.325586	0.593542
	N239	N	0.032946	0.323729	0.423706
	N240	N	0.958257	0.416335	0.689122
	N241	N	0.030450	0.591885	0.692134
	N242	N	0.959474	0.590013	0.329788
	N243	N	0.032525	0.415571	0.329942
	N244	N	0.410908	0.678845	0.971587
	N245	N	0.580856	0.680291	0.046316
	N246	N	0.579948	0.323186	0.971909
	N247	N	0.409865	0.322790	0.047053
	N248	N	0.672107	0.964733	0.423973
	N249	N	0.673445	0.038512	0.595284
	N250	N	0.319819	0.964251	0.591200
	N251	N	0.315894	0.039202	0.421032
	N252	N	0.910046	0.465152	0.187337
	N253	N	0.081997	0.539620	0.189344
	N254	N	0.080825	0.465951	0.831538
	N255	N	0.908811	0.539613	0.831536
	N256	N	0.174755	0.915824	0.471897
	N257	N	0.177785	0.091218	0.545258
	N258	N	0.813390	0.089946	0.473020
	N259	N	0.815431	0.915612	0.546001
	N260	N	0.457760	0.178080	0.924085
	N261	N	0.532588	0.178884	0.094105
	N262	N	0.458003	0.825937	0.091863
	N263	N	0.532532	0.823128	0.922797
	N264	N	0.459274	0.915334	0.188247
	N265	N	0.531151	0.090543	0.190656
	N266	N	0.459212	0.087868	0.828079
	N267	N	0.531709	0.912356	0.827379
	N268	N	0.910488	0.179734	0.471419
	N269	N	0.080333	0.179986	0.546906
	N270	N	0.080065	0.823532	0.472332
	N271	N	0.910801	0.825023	0.547311
	N272	N	0.171152	0.464781	0.926043
	N273	N	0.174564	0.539473	0.097230
	N274	N	0.818943	0.464454	0.094334
	N275	N	0.817245	0.539194	0.924130
	O276	O	0.574892	0.394512	0.491191
	H277	H	0.587156	0.392873	0.483710
	H278	H	0.574098	0.406630	0.495820
	O279	O	0.432801	0.471524	0.466265
	H280	H	0.424877	0.467272	0.461744
	H281	H	0.445085	0.476476	0.483474
	O282	O	0.592368	0.554790	-0.418407
	H283	H	0.589346	0.547130	-0.402742
	H284	H	0.585269	0.565811	-0.420006
	O285	O	0.951789	0.063904	1.065544
	H286	H	0.954626	0.071322	1.069687
	H287	H	0.959793	0.067749	1.063776
	O288	O	0.476465	0.523495	0.423202
	H289	H	0.483631	0.526234	0.435111
	H290	H	0.478838	0.530845	0.424077
	O291	O	0.003729	0.997996	0.004539
	H292	H	-0.000755	0.993397	-0.003819
	H293	H	-0.003293	0.998951	0.002447
	O294	O	0.378850	0.472790	0.581565
	H295	H	0.377987	0.469044	0.563746
	H296	H	0.373211	0.451116	0.574809
	O297	O	0.081751	0.055601	1.107783
	H298	H	0.087516	0.048695	1.103984
	H299	H	0.088446	0.060874	1.118610
	O300	O	0.508092	0.480837	0.503807
	H301	H	0.516857	0.493700	0.511245
	H302	H	0.504410	0.479436	0.501613
	O303	O	1.004176	1.052057	0.075823
	H304	H	1.006316	1.056907	0.082110
	H305	H	1.010246	1.045276	0.080672
	O306	O	0.039608	0.987728	0.974303
	H307	H	0.037354	0.998155	0.981572
	H308	H	0.037530	0.995453	0.977130
	O309	O	0.536141	0.541861	0.548295
	H310	H	0.531203	0.518701	0.541304
	H311	H	0.528602	0.538647	0.563147
	O312	O	-0.119584	-0.063294	0.041115
	H313	H	-0.121204	-0.061084	0.029459
	H314	H	-0.112161	-0.057986	0.048019
	O315	O	0.885537	0.019764	0.024009
	H316	H	0.879296	0.023189	0.024362
	H317	H	0.870438	0.013159	0.029697
	O318	O	0.911194	0.972126	1.046037
	H319	H	0.919131	0.980836	1.045443
	H320	H	0.914228	0.969739	1.049400
	O321	O	-0.067980	0.093514	0.916498
	H322	H	-0.068025	0.086968	0.917143
	H323	H	-0.070098	0.099334	0.921805
	O324	O	1.051968	0.074608	0.084176
	H325	H	1.061818	0.084093	0.087894
	H326	H	1.047606	0.070698	0.086392
	O327	O	0.061764	0.065033	0.064508
	H328	H	0.064514	0.060946	0.065997
	H329	H	0.060361	0.058443	0.068625
	O330	O	0.525683	0.436845	0.434621
	H331	H	0.518451	0.445218	0.426831
	H332	H	0.532732	0.433555	0.426750
	O333	O	0.085292	1.112364	1.067947
	H334	H	0.094707	1.108895	1.052116
	H335	H	0.084299	1.107045	1.072507
	O336	O	0.035018	-0.082292	-0.088147
	H337	H	0.040587	-0.090255	-0.104955
	H338	H	0.039234	-0.082696	-0.090189
	O339	O	0.556345	0.537951	0.508665
	H340	H	0.550659	0.532423	0.506673
	H341	H	0.565358	0.544365	0.511784
	O342	O	1.580594	1.398836	1.477824
	H343	H	1.582775	1.395345	1.476732
	H344	H	1.584669	1.392852	1.479362
	O345	O	1.030228	0.933037	-0.080169
	H346	H	1.014180	0.944615	-0.077401
	H347	H	1.037093	0.927530	-0.074310
	O348	O	0.576740	0.551785	0.586383
	H349	H	0.573637	0.560551	0.594693
	H350	H	0.578894	0.564091	0.592174
	O351	O	0.422127	0.500158	0.538339
	H352	H	0.414776	0.509293	0.529958
	H353	H	0.439970	0.489454	0.534093
	O354	O	0.415700	0.582990	0.592830
	H355	H	0.407357	0.576063	0.590036
	H356	H	0.409483	0.586758	0.606001
	O357	O	1.385380	-0.586658	-0.322704
	H358	H	1.389995	-0.598695	-0.325690
	H359	H	1.391292	-0.588917	-0.317349
	O360	O	0.562551	0.391601	0.573963
	H361	H	0.568682	0.395418	0.580213
	H362	H	0.565952	0.376557	0.567592
	O363	O	0.478790	0.539116	0.430780
	H364	H	0.481371	0.534657	0.432862
	H365	H	0.482622	0.533444	0.416454
	O366	O	0.923779	1.017554	0.898899
	H367	H	0.925062	1.005159	0.898743
	H368	H	0.925297	1.012936	0.905315
	O369	O	1.003675	0.010864	1.057791
	H370	H	1.012991	0.018616	1.067169
	H371	H	1.011071	0.001777	1.055428
	O372	O	-0.011792	-0.105701	-0.172628
	H373	H	-0.009061	-0.099886	-0.182326
	H374	H	-0.016456	-0.091903	-0.169389
	O375	O	1.063252	-0.114076	-0.029698
	H376	H	1.070868	-0.129109	-0.035830
	H377	H	1.067781	-0.106158	-0.034522
	O378	O	0.939363	1.014319	1.079795
	H379	H	0.941034	0.997881	1.074366
	H380	H	0.933809	1.001973	1.075092
	O381	O	0.413295	0.425653	0.443386
	H382	H	0.412223	0.420494	0.439056
	H383	H	0.421802	0.429608	0.444966
