data_Molecule from HDF5

_cell_length_a		16.317089
_cell_length_b		16.449752
_cell_length_c		16.451705
_cell_angle_alpha	90.003349
_cell_angle_beta	89.888192
_cell_angle_gamma	89.897566
_symmetry_space_group_name_H-M	'P 1'
_symmetry_Int_Tables_number		1

loop_
	_symmetry_equiv_pos_as_xyz
	x,y,z

loop_
	_atom_site_label
	_atom_site_type_symbol
	_atom_site_fract_x
	_atom_site_fract_y
	_atom_site_fract_z
	H0	H	0.387882	0.837343	0.726639
	H1	H	0.600316	0.153429	0.724807
	H2	H	0.604211	0.837022	0.279096
	H3	H	0.387465	0.151593	0.279439
	H4	H	0.713417	0.391848	0.844927
	H5	H	0.711143	0.597817	0.163849
	H6	H	0.272698	0.599023	0.844631
	H7	H	0.269956	0.387696	0.161276
	H8	H	0.835712	0.717432	0.398573
	H9	H	0.153422	0.716310	0.610304
	H10	H	0.834296	0.275710	0.607140
	H11	H	0.153734	0.274255	0.396979
	H12	H	0.834258	0.390724	0.723164
	H13	H	0.152455	0.602019	0.727098
	H14	H	0.835255	0.603504	0.282593
	H15	H	0.152516	0.387233	0.279865
	H16	H	0.385744	0.717509	0.845823
	H17	H	0.599155	0.717465	0.162111
	H18	H	0.599895	0.273525	0.845688
	H19	H	0.384227	0.270403	0.160215
	H20	H	0.717461	0.836292	0.397535
	H21	H	0.713606	0.154730	0.604800
	H22	H	0.271351	0.837760	0.611205
	H23	H	0.273873	0.153256	0.398473
	H24	H	0.885492	0.337106	0.228054
	H25	H	0.098716	0.653478	0.225573
	H26	H	0.103063	0.338078	0.778804
	H27	H	0.884983	0.651191	0.779805
	H28	H	0.217855	0.888549	0.345164
	H29	H	0.214967	0.098868	0.661741
	H30	H	0.773487	0.100865	0.344461
	H31	H	0.773554	0.890740	0.660690
	H32	H	0.335032	0.216809	0.896693
	H33	H	0.652531	0.217911	0.110939
	H34	H	0.334687	0.772409	0.111711
	H35	H	0.651434	0.770284	0.895008
	H36	H	0.336234	0.885944	0.228185
	H37	H	0.653901	0.099355	0.224210
	H38	H	0.334590	0.100657	0.782193
	H39	H	0.652571	0.888711	0.781740
	H40	H	0.890031	0.217137	0.345076
	H41	H	0.104251	0.218966	0.660163
	H42	H	0.104950	0.769983	0.346245
	H43	H	0.888978	0.774258	0.660651
	H44	H	0.217255	0.337265	0.896256
	H45	H	0.215561	0.653786	0.109396
	H46	H	0.771759	0.335880	0.109740
	H47	H	0.770946	0.652117	0.898601
	H48	H	0.405544	0.107125	0.590405
	H49	H	0.582477	0.883255	0.589609
	H50	H	0.588319	0.109209	0.413878
	H51	H	0.406176	0.882293	0.416841
	H52	H	0.580086	0.404797	0.117570
	H53	H	0.579895	0.588365	0.890143
	H54	H	0.402814	0.587195	0.117507
	H55	H	0.400122	0.405622	0.888556
	H56	H	0.109828	0.587214	0.416114
	H57	H	0.880273	0.587950	0.588853
	H58	H	0.107026	0.406523	0.588348
	H59	H	0.881678	0.412609	0.412651
	H60	H	0.108040	0.410166	0.592997
	H61	H	0.882672	0.579794	0.591459
	H62	H	0.105460	0.579780	0.419416
	H63	H	0.876931	0.400464	0.412283
	H64	H	0.403077	0.579146	0.114908
	H65	H	0.585531	0.582234	0.889953
	H66	H	0.581963	0.405895	0.117385
	H67	H	0.408186	0.411615	0.894603
	H68	H	0.578748	0.108171	0.409325
	H69	H	0.588772	0.880127	0.594278
	H70	H	0.403958	0.108994	0.595164
	H71	H	0.408248	0.881748	0.413117
	H72	H	0.902028	0.609831	0.099266
	H73	H	0.082666	0.380532	0.097371
	H74	H	0.087515	0.609890	0.913814
	H75	H	0.908081	0.379075	0.903465
	H76	H	0.081562	0.898045	0.617817
	H77	H	0.086749	0.080507	0.390598
	H78	H	0.909494	0.083257	0.613803
	H79	H	0.909110	0.913028	0.392280
	H80	H	0.608355	0.086289	0.917262
	H81	H	0.382337	0.078367	0.091524
	H82	H	0.607993	0.911076	0.098848
	H83	H	0.380635	0.909248	0.915411
	H84	H	0.610162	0.896685	0.089273
	H85	H	0.381322	0.083233	0.092713
	H86	H	0.607030	0.080474	0.914682
	H87	H	0.378542	0.906313	0.913087
	H88	H	0.905226	0.089821	0.617089
	H89	H	0.078397	0.085092	0.392466
	H90	H	0.089961	0.909558	0.616543
	H91	H	0.913087	0.901800	0.389562
	H92	H	0.074197	0.606199	0.910051
	H93	H	0.075094	0.385039	0.091860
	H94	H	0.908781	0.605215	0.093272
	H95	H	0.912644	0.386139	0.921274
	H96	H	0.408214	0.107286	0.594012
	H97	H	0.580496	0.881473	0.597806
	H98	H	0.580289	0.103572	0.418945
	H99	H	0.409770	0.883068	0.416647
	H100	H	0.581094	0.406645	0.116240
	H101	H	0.577909	0.581044	0.893794
	H102	H	0.409983	0.583608	0.115335
	H103	H	0.410724	0.401280	0.890388
	H104	H	0.108784	0.579701	0.410504
	H105	H	0.878821	0.585610	0.596533
	H106	H	0.109754	0.404780	0.593247
	H107	H	0.882938	0.404740	0.422908
	H108	H	0.899222	0.607286	0.089886
	H109	H	0.084611	0.383492	0.087530
	H110	H	0.079001	0.603987	0.923041
	H111	H	0.894385	0.378864	0.917264
	H112	H	0.076975	0.909540	0.612109
	H113	H	0.085397	0.089525	0.387315
	H114	H	0.902149	0.082623	0.616733
	H115	H	0.901427	0.904738	0.387772
	H116	H	0.608906	0.085157	0.910677
	H117	H	0.382384	0.082084	0.087638
	H118	H	0.602165	0.910484	0.082190
	H119	H	0.379833	0.905062	0.916827
	C120	C	0.373018	0.003601	0.625439
	C121	C	0.616355	0.986657	0.625114
	C122	C	0.616477	0.002801	0.381102
	C123	C	0.374058	0.986153	0.381923
	C124	C	0.614597	0.373564	0.012532
	C125	C	0.614323	0.616596	0.995933
	C126	C	0.371989	0.616022	0.011428
	C127	C	0.371937	0.372707	0.994940
	C128	C	0.002835	0.615581	0.383526
	C129	C	0.985758	0.616773	0.625108
	C130	C	0.002939	0.374414	0.624053
	C131	C	0.985534	0.373485	0.382504
	C132	C	0.870522	0.503326	0.127088
	C133	C	0.114060	0.487150	0.125009
	C134	C	0.114811	0.503079	0.882021
	C135	C	0.872382	0.486017	0.882363
	C136	C	0.117256	0.872245	0.511534
	C137	C	0.116496	0.117325	0.494605
	C138	C	0.873724	0.116782	0.511139
	C139	C	0.874601	0.874388	0.494303
	C140	C	0.503060	0.116583	0.881833
	C141	C	0.486382	0.114913	0.124057
	C142	C	0.502082	0.872954	0.124508
	C143	C	0.484887	0.873847	0.882185
	C144	C	0.369834	0.884914	0.686333
	C145	C	0.618472	0.106048	0.684653
	C146	C	0.621210	0.884385	0.319670
	C147	C	0.369997	0.104580	0.320265
	C148	C	0.674408	0.372493	0.892848
	C149	C	0.672761	0.617335	0.115533
	C150	C	0.311902	0.617910	0.892420
	C151	C	0.310363	0.369712	0.113655
	C152	C	0.883345	0.677101	0.380725
	C153	C	0.105216	0.676938	0.628449
	C154	C	0.882398	0.314956	0.625885
	C155	C	0.105653	0.313541	0.378928
	C156	C	0.882304	0.372296	0.683581
	C157	C	0.104750	0.619801	0.686504
	C158	C	0.883093	0.619976	0.323194
	C159	C	0.104813	0.369881	0.320363
	C160	C	0.368403	0.676971	0.893164
	C161	C	0.616488	0.676717	0.114835
	C162	C	0.617726	0.313645	0.893214
	C163	C	0.367343	0.311156	0.113261
	C164	C	0.677868	0.884056	0.378630
	C165	C	0.674846	0.106509	0.624845
	C166	C	0.311928	0.885028	0.628568
	C167	C	0.313753	0.105463	0.379753
	C168	C	0.867754	0.384506	0.187750
	C169	C	0.117120	0.606208	0.185416
	C170	C	0.119928	0.385120	0.819647
	C171	C	0.867928	0.604323	0.821111
	C172	C	0.178375	0.869860	0.393023
	C173	C	0.176166	0.118351	0.613769
	C174	C	0.813801	0.119177	0.391962
	C175	C	0.813821	0.872612	0.613453
	C176	C	0.382546	0.176588	0.879162
	C177	C	0.605290	0.176915	0.128123
	C178	C	0.382620	0.812340	0.128955
	C179	C	0.604053	0.811886	0.878231
	C180	C	0.383488	0.869073	0.186979
	C181	C	0.606087	0.117762	0.184611
	C182	C	0.382724	0.119263	0.821512
	C183	C	0.605020	0.870937	0.821918
	C184	C	0.871625	0.177037	0.392293
	C185	C	0.120924	0.178243	0.612934
	C186	C	0.121970	0.810644	0.393547
	C187	C	0.871585	0.814726	0.613312
	C188	C	0.176904	0.384755	0.878412
	C189	C	0.175346	0.606060	0.127555
	C190	C	0.811099	0.383750	0.128512
	C191	C	0.811175	0.604739	0.880257
	C192	C	0.398566	0.086278	0.600274
	C193	C	0.591252	0.903361	0.600935
	C194	C	0.590093	0.085433	0.406716
	C195	C	0.400628	0.903856	0.407844
	C196	C	0.588733	0.398681	0.095285
	C197	C	0.588651	0.591334	0.912899
	C198	C	0.397637	0.590650	0.094443
	C199	C	0.398549	0.398572	0.912715
	C200	C	0.086259	0.589674	0.408508
	C201	C	0.902244	0.591642	0.599543
	C202	C	0.086474	0.399690	0.598893
	C203	C	0.902310	0.398577	0.408366
	C204	C	0.895872	0.585919	0.101552
	C205	C	0.088108	0.404644	0.099642
	C206	C	0.087937	0.585329	0.908141
	C207	C	0.897958	0.402921	0.906956
	C208	C	0.090485	0.898243	0.594170
	C209	C	0.090956	0.092113	0.411707
	C210	C	0.898413	0.092211	0.594215
	C211	C	0.900504	0.899364	0.411558
	C212	C	0.586126	0.091456	0.906987
	C213	C	0.403582	0.088639	0.098076
	C214	C	0.585242	0.898617	0.097732
	C215	C	0.401590	0.899469	0.907826
	Zn216	Zn	0.494607	-0.004874	0.754101
	Zn217	Zn	0.494927	-0.006069	0.252526
	Zn218	Zn	0.743177	0.494400	0.004207
	Zn219	Zn	0.243400	0.494548	0.003651
	Zn220	Zn	-0.004599	0.744796	0.502785
	Zn221	Zn	-0.004905	0.245637	0.503599
	Zn222	Zn	-0.006352	0.494492	0.752711
	Zn223	Zn	-0.006736	0.495113	0.255299
	Zn224	Zn	0.492617	0.745245	0.003678
	Zn225	Zn	0.493639	0.244497	0.003480
	Zn226	Zn	0.745109	-0.004941	0.502304
	Zn227	Zn	0.244686	-0.004882	0.503162
	N228	N	0.407065	0.959697	0.684594
	N229	N	0.582762	0.030360	0.684988
	N230	N	0.583704	0.959347	0.321066
	N231	N	0.406651	0.029229	0.321315
	N232	N	0.672368	0.409057	0.968069
	N233	N	0.671684	0.581068	0.040303
	N234	N	0.314212	0.580707	0.967074
	N235	N	0.312937	0.407085	0.039083
	N236	N	0.958955	0.674608	0.417540
	N237	N	0.030248	0.674959	0.590755
	N238	N	0.958574	0.315961	0.589875
	N239	N	0.030598	0.315650	0.416757
	N240	N	0.958272	0.408206	0.682744
	N241	N	0.029290	0.583096	0.684688
	N242	N	0.958379	0.582535	0.324645
	N243	N	0.029158	0.406732	0.322597
	N244	N	0.405045	0.675749	0.968359
	N245	N	0.581139	0.676558	0.038984
	N246	N	0.581600	0.313959	0.968652
	N247	N	0.404967	0.313022	0.038433
	N248	N	0.674887	0.958568	0.416185
	N249	N	0.673794	0.031197	0.588824
	N250	N	0.313795	0.959909	0.591215
	N251	N	0.316042	0.030824	0.417211
	N252	N	0.904064	0.459835	0.187032
	N253	N	0.079959	0.531285	0.184163
	N254	N	0.081587	0.459661	0.821921
	N255	N	0.905257	0.529439	0.822221
	N256	N	0.175423	0.907533	0.467458
	N257	N	0.173655	0.081272	0.538999
	N258	N	0.814887	0.082504	0.466762
	N259	N	0.815531	0.909067	0.538396
	N260	N	0.458229	0.175305	0.915825
	N261	N	0.529859	0.175301	0.091211
	N262	N	0.457542	0.814894	0.090509
	N263	N	0.528465	0.813722	0.915299
	N264	N	0.458869	0.906011	0.184372
	N265	N	0.531023	0.080098	0.182209
	N266	N	0.458380	0.082483	0.823038
	N267	N	0.529966	0.908585	0.824209
	N268	N	0.908348	0.175644	0.467397
	N269	N	0.084481	0.177853	0.537757
	N270	N	0.084905	0.812095	0.468562
	N271	N	0.908396	0.815581	0.538188
	N272	N	0.173977	0.459192	0.916252
	N273	N	0.173795	0.530978	0.090806
	N274	N	0.812295	0.458733	0.091837
	N275	N	0.813895	0.530206	0.917800
	O276	O	0.481085	0.333800	0.452687
	H277	H	0.493029	0.328954	0.449894
	H278	H	0.450215	0.333795	0.448322
	O279	O	0.449217	0.374943	0.413665
	H280	H	0.445658	0.392180	0.406283
	H281	H	0.432521	0.376422	0.410087
	O282	O	0.295269	0.692795	0.444186
	H283	H	0.293389	0.684504	0.455122
	H284	H	0.288399	0.705922	0.465374
	O285	O	1.017292	1.194051	0.070442
	H286	H	1.014754	1.187880	0.044316
	H287	H	1.048036	1.206696	0.077122
	O288	O	0.312902	0.623855	0.319327
	H289	H	0.311650	0.632210	0.330075
	H290	H	0.341088	0.617403	0.333205
	O291	O	0.653296	0.327067	0.546907
	H292	H	0.650105	0.346335	0.540160
	H293	H	0.623133	0.319325	0.568153
	O294	O	1.105616	0.954160	0.962434
	H295	H	1.094186	0.953399	0.966947
	H296	H	1.101303	0.967408	0.980710
	O297	O	0.590566	0.324232	0.321178
	H298	H	0.595129	0.318602	0.307461
	H299	H	0.590084	0.337830	0.347039
	O300	O	0.611802	0.429248	0.521964
	H301	H	0.606205	0.424704	0.524841
	H302	H	0.607911	0.438291	0.527638
	O303	O	0.489036	0.383807	0.709079
	H304	H	0.457603	0.383362	0.699362
	H305	H	0.475657	0.373778	0.720085
	O306	O	-0.087393	0.186412	1.050083
	H307	H	-0.069229	0.169801	1.031892
	H308	H	-0.113771	0.197154	1.031353
	O309	O	0.811813	0.178346	-0.174274
	H310	H	0.804496	0.144237	-0.165502
	H311	H	0.824002	0.178166	-0.187858
	O312	O	0.499280	0.479579	0.378961
	H313	H	0.516293	0.466633	0.362880
	H314	H	0.525358	0.482386	0.399578
	O315	O	0.308005	0.449487	0.636379
	H316	H	0.288104	0.479060	0.646393
	H317	H	0.309465	0.437259	0.609962
	O318	O	0.183128	-0.007924	-0.024846
	H319	H	0.189177	0.002713	-0.036036
	H320	H	0.170032	-0.014738	-0.045077
	O321	O	0.572552	0.446141	0.570617
	H322	H	0.577861	0.447607	0.564837
	H323	H	0.556813	0.438198	0.577316
	O324	O	0.854183	-0.015180	0.800833
	H325	H	0.848160	-0.040481	0.798776
	H326	H	0.849114	-0.027676	0.797881
	O327	O	0.493383	0.592286	0.694537
	H328	H	0.495608	0.589710	0.700951
	H329	H	0.498946	0.593892	0.709387
	O330	O	0.192616	1.107093	1.198871
	H331	H	0.208217	1.081667	1.201705
	H332	H	0.166153	1.114056	1.206798
	O333	O	-0.023870	1.212307	-0.209535
	H334	H	-0.046298	1.224178	-0.223801
	H335	H	-0.019001	1.214366	-0.220943
	O336	O	1.008892	0.982069	0.057214
	H337	H	1.003736	0.994224	0.065168
	H338	H	0.994956	0.983506	0.055264
	O339	O	-0.155059	1.036513	1.208308
	H340	H	-0.151105	1.038028	1.216680
	H341	H	-0.137914	1.051338	1.212467
	O342	O	0.419489	0.630644	0.642124
	H343	H	0.439441	0.632129	0.650841
	H344	H	0.434968	0.631763	0.639295
	O345	O	0.126414	-0.018280	1.202057
	H346	H	0.150354	-0.016712	1.202716
	H347	H	0.125549	-0.017584	1.185918
	O348	O	0.515661	0.421283	0.578950
	H349	H	0.506325	0.415623	0.570762
	H350	H	0.497417	0.422098	0.570161
	O351	O	1.121714	0.875289	0.048971
	H352	H	1.118713	0.899301	0.035065
	H353	H	1.147922	0.871510	0.040653
	O354	O	0.774932	1.168659	1.001626
	H355	H	0.767485	1.171926	0.973297
	H356	H	0.758433	1.167678	0.987995
	O357	O	-0.145588	-0.096710	-0.199796
	H358	H	-0.152190	-0.109935	-0.204574
	H359	H	-0.126452	-0.104696	-0.188832
	O360	O	0.529283	0.696542	0.365420
	H361	H	0.532213	0.689614	0.369044
	H362	H	0.538415	0.710319	0.361683
	O363	O	1.195868	0.209521	0.022191
	H364	H	1.186369	0.206271	0.036481
	H365	H	1.218527	0.240786	0.027855
	O366	O	0.179054	-0.139184	0.824674
	H367	H	0.154526	-0.137651	0.809213
	H368	H	0.170377	-0.116414	0.825499
	O369	O	0.395127	-0.678706	0.555700
	H370	H	0.390732	-0.681435	0.550822
	H371	H	0.393438	-0.686790	0.548561
	O372	O	0.623478	0.427950	0.693526
	H373	H	0.614988	0.424462	0.688796
	H374	H	0.615216	0.420069	0.703095
	O375	O	0.041002	0.042080	0.791394
	H376	H	0.022182	0.022901	0.789913
	H377	H	0.038311	0.049280	0.785318
	O378	O	0.476484	0.450154	0.391618
	H379	H	0.497301	0.439828	0.386317
	H380	H	0.471760	0.463281	0.378236
	O381	O	-0.225492	0.772310	0.028671
	H382	H	-0.214272	0.783422	0.078491
	H383	H	-0.262001	0.736465	0.037068
	O384	O	0.620383	0.578238	0.500467
	H385	H	0.607380	0.573833	0.506139
	H386	H	0.637338	0.596007	0.493802
	O387	O	0.816114	-0.188938	1.184505
	H388	H	0.850743	-0.181016	1.196567
	H389	H	0.825141	-0.156167	1.195101
	O390	O	0.961043	1.061905	0.132439
	H391	H	0.973235	1.068904	0.119471
	H392	H	0.988726	1.056745	0.130495
	O393	O	0.984748	-0.185994	1.201422
	H394	H	0.997368	-0.198423	1.203635
	H395	H	1.009010	-0.170709	1.202032
	O396	O	1.076478	1.191314	0.192621
	H397	H	1.067467	1.202761	0.171053
	H398	H	1.069604	1.192119	0.202919
	O399	O	0.220875	0.707393	0.786197
	H400	H	0.224749	0.703943	0.789000
	H401	H	0.224793	0.715527	0.791859
	O402	O	0.871400	0.840283	-0.053192
	H403	H	0.855315	0.824342	-0.037248
	H404	H	0.881522	0.843943	-0.039139
	O405	O	0.574258	0.590497	0.397324
	H406	H	0.576409	0.590171	0.386602
	H407	H	0.591084	0.587031	0.392404
	O408	O	0.321528	0.485952	0.290474
	H409	H	0.311936	0.501175	0.271507
	H410	H	0.337482	0.511870	0.291748
	O411	O	0.842665	0.992671	1.012234
	H412	H	0.844491	0.979444	1.028174
	H413	H	0.833826	0.995911	1.010025
	O414	O	0.473048	0.486185	0.586362
	H415	H	0.468873	0.474040	0.561482
	H416	H	0.476018	0.489390	0.597046
	O417	O	0.136750	0.780868	0.985858
	H418	H	0.145105	0.772411	0.986684
	H419	H	0.137940	0.771821	0.966025
	O420	O	0.283281	1.411213	0.515483
	H421	H	0.260514	1.397148	0.519458
	H422	H	0.281923	1.441095	0.497206
	O423	O	0.163215	1.056556	-0.131960
	H424	H	0.171354	1.057061	-0.136244
	H425	H	0.146573	1.062119	-0.132147
	O426	O	0.593600	0.634596	0.573292
	H427	H	0.588964	0.646610	0.591949
	H428	H	0.614893	0.624975	0.567461
	O429	O	0.584612	0.666690	0.675035
	H430	H	0.594449	0.651313	0.656074
	H431	H	0.596372	0.652177	0.696088
	O432	O	0.700298	0.475474	0.297548
	H433	H	0.694288	0.443461	0.306468
	H434	H	0.726032	0.470828	0.271013
	O435	O	-0.189921	-0.026158	0.082522
	H436	H	-0.202448	-0.024921	0.085807
	H437	H	-0.195095	-0.010281	0.091121
	O438	O	-0.010598	0.842572	0.813394
	H439	H	-0.014306	0.833952	0.829697
	H440	H	-0.009726	0.822342	0.820907
	O441	O	0.554286	0.590702	0.419769
	H442	H	0.538530	0.582499	0.412624
	H443	H	0.561507	0.597759	0.413508
