data_Molecule from HDF5

_cell_length_a		16.624694
_cell_length_b		16.596116
_cell_length_c		16.733981
_cell_angle_alpha	89.937428
_cell_angle_beta	89.995601
_cell_angle_gamma	89.937858
_symmetry_space_group_name_H-M	'P 1'
_symmetry_Int_Tables_number		1

loop_
	_symmetry_equiv_pos_as_xyz
	x,y,z

loop_
	_atom_site_label
	_atom_site_type_symbol
	_atom_site_fract_x
	_atom_site_fract_y
	_atom_site_fract_z
	H0	H	0.389189	0.848407	0.709557
	H1	H	0.606173	0.155258	0.711778
	H2	H	0.598786	0.846877	0.268365
	H3	H	0.390676	0.159272	0.266887
	H4	H	0.719080	0.396176	0.833861
	H5	H	0.716327	0.605987	0.143790
	H6	H	0.274656	0.610565	0.834192
	H7	H	0.270587	0.393974	0.138822
	H8	H	0.844966	0.730880	0.374289
	H9	H	0.148695	0.728136	0.595751
	H10	H	0.841237	0.281210	0.593144
	H11	H	0.151884	0.282140	0.382880
	H12	H	0.841431	0.395919	0.709469
	H13	H	0.145747	0.616711	0.715069
	H14	H	0.844046	0.613466	0.261163
	H15	H	0.150186	0.394287	0.263719
	H16	H	0.390774	0.726144	0.834182
	H17	H	0.599687	0.722427	0.144378
	H18	H	0.604297	0.279469	0.834671
	H19	H	0.387044	0.278128	0.139657
	H20	H	0.716513	0.847631	0.382479
	H21	H	0.718057	0.157010	0.593315
	H22	H	0.273224	0.848453	0.593723
	H23	H	0.277917	0.160950	0.385835
	H24	H	0.888810	0.349146	0.209333
	H25	H	0.111279	0.651557	0.215539
	H26	H	0.104366	0.349878	0.763167
	H27	H	0.887919	0.657578	0.764241
	H28	H	0.218919	0.897432	0.333408
	H29	H	0.217390	0.109494	0.641266
	H30	H	0.776719	0.106627	0.331991
	H31	H	0.767180	0.888436	0.637091
	H32	H	0.342131	0.225791	0.879805
	H33	H	0.651575	0.223468	0.091550
	H34	H	0.340447	0.781919	0.092725
	H35	H	0.652203	0.782363	0.884490
	H36	H	0.339915	0.897482	0.208315
	H37	H	0.650293	0.110121	0.210007
	H38	H	0.342909	0.111240	0.763498
	H39	H	0.649682	0.895071	0.765186
	H40	H	0.891872	0.222887	0.332401
	H41	H	0.100536	0.224035	0.641792
	H42	H	0.103693	0.779925	0.334346
	H43	H	0.884634	0.774342	0.637701
	H44	H	0.220949	0.349906	0.877844
	H45	H	0.222612	0.654640	0.096775
	H46	H	0.774844	0.348706	0.092864
	H47	H	0.775522	0.659367	0.882451
	H48	H	0.405841	0.117282	0.579584
	H49	H	0.585559	0.889666	0.575306
	H50	H	0.588704	0.118403	0.391877
	H51	H	0.402490	0.889771	0.398632
	H52	H	0.591825	0.415640	0.100653
	H53	H	0.588899	0.595468	0.874948
	H54	H	0.409246	0.588008	0.096964
	H55	H	0.415133	0.415202	0.879689
	H56	H	0.104602	0.582765	0.397783
	H57	H	0.886256	0.589375	0.571954
	H58	H	0.106486	0.416537	0.573204
	H59	H	0.884354	0.415901	0.397534
	H60	H	0.106912	0.416836	0.580008
	H61	H	0.887249	0.586844	0.570352
	H62	H	0.109021	0.592000	0.396836
	H63	H	0.883688	0.413173	0.395981
	H64	H	0.409979	0.593344	0.098595
	H65	H	0.587006	0.589663	0.878195
	H66	H	0.580532	0.418487	0.094974
	H67	H	0.407455	0.412273	0.875669
	H68	H	0.577803	0.112546	0.396774
	H69	H	0.578041	0.891616	0.577217
	H70	H	0.414078	0.112799	0.576781
	H71	H	0.406542	0.890317	0.393261
	H72	H	0.910008	0.614191	0.076075
	H73	H	0.079770	0.393042	0.073741
	H74	H	0.087192	0.612942	0.904916
	H75	H	0.899255	0.388333	0.896144
	H76	H	0.079697	0.911765	0.596394
	H77	H	0.081526	0.091413	0.377248
	H78	H	0.904214	0.088525	0.598231
	H79	H	0.901843	0.912667	0.374042
	H80	H	0.607724	0.093843	0.901767
	H81	H	0.384962	0.091823	0.074230
	H82	H	0.607161	0.915911	0.077171
	H83	H	0.382418	0.903638	0.902686
	H84	H	0.608568	0.914919	0.082052
	H85	H	0.385285	0.088689	0.077028
	H86	H	0.604546	0.086249	0.902578
	H87	H	0.389935	0.922629	0.906032
	H88	H	0.909895	0.093351	0.597541
	H89	H	0.087176	0.098544	0.373704
	H90	H	0.088644	0.916452	0.598316
	H91	H	0.908188	0.927475	0.381823
	H92	H	0.083718	0.616189	0.894868
	H93	H	0.081582	0.393460	0.069903
	H94	H	0.907958	0.615098	0.074742
	H95	H	0.914415	0.390807	0.891844
	H96	H	0.406478	0.112752	0.570520
	H97	H	0.581238	0.893385	0.570827
	H98	H	0.588428	0.114638	0.404863
	H99	H	0.408701	0.892588	0.399315
	H100	H	0.582950	0.406773	0.100549
	H101	H	0.582729	0.594923	0.877780
	H102	H	0.404394	0.590861	0.099478
	H103	H	0.408153	0.420827	0.878388
	H104	H	0.104142	0.589676	0.405773
	H105	H	0.886935	0.586444	0.573425
	H106	H	0.109077	0.411227	0.576476
	H107	H	0.884769	0.413197	0.398790
	H108	H	0.908419	0.615486	0.077220
	H109	H	0.083308	0.391454	0.073599
	H110	H	0.076663	0.611255	0.901627
	H111	H	0.909607	0.394816	0.905989
	H112	H	0.080975	0.921629	0.593903
	H113	H	0.090722	0.089694	0.375134
	H114	H	0.903695	0.095731	0.600335
	H115	H	0.918275	0.912844	0.379783
	H116	H	0.608064	0.087836	0.895382
	H117	H	0.384001	0.092286	0.078314
	H118	H	0.608746	0.910769	0.078777
	H119	H	0.382231	0.918178	0.887499
	C120	C	0.375378	0.011615	0.608335
	C121	C	0.616735	0.993299	0.608343
	C122	C	0.616967	0.012233	0.365737
	C123	C	0.374349	0.994744	0.366052
	C124	C	0.618325	0.381392	-0.003334
	C125	C	0.617885	0.624697	0.979870
	C126	C	0.375193	0.624417	-0.003507
	C127	C	0.375431	0.381764	0.978621
	C128	C	0.005383	0.624357	0.364622
	C129	C	0.987297	0.623166	0.606935
	C130	C	0.004875	0.381508	0.609101
	C131	C	0.987301	0.381620	0.365522
	C132	C	0.876002	0.512159	0.108352
	C133	C	0.116972	0.493568	0.107475
	C134	C	0.116942	0.512035	0.865857
	C135	C	0.875138	0.494334	0.866188
	C136	C	0.117172	0.882905	0.495116
	C137	C	0.117684	0.124833	0.478118
	C138	C	0.874371	0.124449	0.496253
	C139	C	0.874488	0.881290	0.478387
	C140	C	0.504996	0.123347	0.866333
	C141	C	0.487378	0.123897	0.108716
	C142	C	0.504456	0.882152	0.109794
	C143	C	0.487331	0.881653	0.866789
	C144	C	0.371486	0.895062	0.669276
	C145	C	0.622441	0.109038	0.670656
	C146	C	0.618223	0.894158	0.307158
	C147	C	0.372845	0.112602	0.307310
	C148	C	0.679046	0.378077	0.880645
	C149	C	0.676710	0.625160	0.097063
	C150	C	0.314753	0.628329	0.880544
	C151	C	0.312165	0.376753	0.093201
	C152	C	0.890883	0.688805	0.358331
	C153	C	0.102230	0.687048	0.612815
	C154	C	0.888269	0.321091	0.611420
	C155	C	0.104685	0.321663	0.363909
	C156	C	0.888299	0.378098	0.669540
	C157	C	0.100808	0.631626	0.672251
	C158	C	0.890645	0.630681	0.301435
	C159	C	0.103777	0.377493	0.304651
	C160	C	0.372502	0.685818	0.880795
	C161	C	0.618503	0.682798	0.097452
	C162	C	0.621723	0.320053	0.880875
	C163	C	0.370103	0.319149	0.093631
	C164	C	0.676455	0.894506	0.364095
	C165	C	0.678468	0.109817	0.611979
	C166	C	0.314134	0.894904	0.611470
	C167	C	0.316408	0.113294	0.366056
	C168	C	0.872084	0.395719	0.168997
	C169	C	0.125412	0.606942	0.172726
	C170	C	0.121648	0.396312	0.803807
	C171	C	0.871407	0.611387	0.805362
	C172	C	0.178836	0.879289	0.379848
	C173	C	0.177349	0.127337	0.594765
	C174	C	0.815709	0.125398	0.379173
	C175	C	0.809919	0.873355	0.591897
	C176	C	0.388730	0.184891	0.862905
	C177	C	0.604448	0.183880	0.110761
	C178	C	0.387124	0.822305	0.111072
	C179	C	0.604617	0.821859	0.865218
	C180	C	0.386896	0.879660	0.168761
	C181	C	0.603990	0.127314	0.169384
	C182	C	0.389038	0.127879	0.804830
	C183	C	0.603784	0.877848	0.805978
	C184	C	0.873136	0.183273	0.379205
	C185	C	0.119365	0.184570	0.594837
	C186	C	0.121415	0.821119	0.380122
	C187	C	0.868241	0.816275	0.592031
	C188	C	0.179668	0.396280	0.860925
	C189	C	0.181164	0.608138	0.113768
	C190	C	0.815257	0.395410	0.110995
	C191	C	0.815224	0.611886	0.864172
	C192	C	0.401449	0.092894	0.582765
	C193	C	0.589568	0.912478	0.581901
	C194	C	0.592029	0.093982	0.390553
	C195	C	0.398885	0.912375	0.390124
	C196	C	0.592468	0.406691	0.077594
	C197	C	0.593360	0.600294	0.898358
	C198	C	0.400741	0.598131	0.077353
	C199	C	0.402516	0.408463	0.898762
	C200	C	0.085125	0.596189	0.392312
	C201	C	0.907630	0.595328	0.579524
	C202	C	0.086261	0.407491	0.583699
	C203	C	0.905556	0.407083	0.390404
	C204	C	0.901356	0.593764	0.082937
	C205	C	0.089392	0.413443	0.080046
	C206	C	0.090078	0.592787	0.892742
	C207	C	0.900544	0.412688	0.890980
	C208	C	0.090529	0.909060	0.575546
	C209	C	0.093461	0.100129	0.396671
	C210	C	0.898965	0.099696	0.577587
	C211	C	0.901754	0.909702	0.399020
	C212	C	0.585847	0.096798	0.892305
	C213	C	0.405798	0.098227	0.083704
	C214	C	0.586715	0.906730	0.085918
	C215	C	0.405929	0.907382	0.891606
	Zn216	Zn	0.496486	0.002667	0.737240
	Zn217	Zn	0.495481	0.003333	0.237858
	Zn218	Zn	0.747042	0.503218	-0.012378
	Zn219	Zn	0.245919	0.503033	-0.013479
	Zn220	Zn	-0.003571	0.752323	0.486712
	Zn221	Zn	-0.003767	0.253529	0.486940
	Zn222	Zn	-0.004236	0.503485	0.737058
	Zn223	Zn	-0.003528	0.502279	0.236966
	Zn224	Zn	0.496077	0.753642	-0.011187
	Zn225	Zn	0.496478	0.252533	-0.012653
	Zn226	Zn	0.745084	0.002805	0.487609
	Zn227	Zn	0.246377	0.003316	0.487753
	N228	N	0.408659	0.968742	0.667741
	N229	N	0.584668	0.035495	0.668600
	N230	N	0.582167	0.968505	0.307777
	N231	N	0.407646	0.037605	0.306866
	N232	N	0.677048	0.415396	0.953600
	N233	N	0.676636	0.589972	0.022807
	N234	N	0.316173	0.590658	0.953574
	N235	N	0.315213	0.415040	0.020567
	N236	N	0.963409	0.685230	0.396980
	N237	N	0.030700	0.681892	0.572619
	N238	N	0.962006	0.322883	0.574691
	N239	N	0.031186	0.323973	0.401219
	N240	N	0.962048	0.415071	0.668522
	N241	N	0.028365	0.592397	0.668840
	N242	N	0.963022	0.591136	0.305119
	N243	N	0.029775	0.414334	0.305749
	N244	N	0.409202	0.683687	0.954130
	N245	N	0.582971	0.683124	0.023305
	N246	N	0.584486	0.321666	0.954262
	N247	N	0.408696	0.321973	0.021127
	N248	N	0.676105	0.969094	0.399719
	N249	N	0.675314	0.036608	0.574056
	N250	N	0.316092	0.968722	0.574491
	N251	N	0.317005	0.038698	0.401752
	N252	N	0.909105	0.469532	0.167705
	N253	N	0.085949	0.534543	0.168939
	N254	N	0.083321	0.469519	0.806628
	N255	N	0.907991	0.537185	0.806187
	N256	N	0.176153	0.917190	0.452565
	N257	N	0.176670	0.090887	0.521206
	N258	N	0.815902	0.089603	0.453156
	N259	N	0.813743	0.913427	0.520225
	N260	N	0.462004	0.182453	0.900544
	N261	N	0.530721	0.182225	0.073901
	N262	N	0.461366	0.823667	0.075265
	N263	N	0.531045	0.823841	0.902284
	N264	N	0.460903	0.916349	0.168225
	N265	N	0.529899	0.090862	0.168338
	N266	N	0.462503	0.090158	0.806795
	N267	N	0.529768	0.914424	0.806652
	N268	N	0.908658	0.183201	0.453222
	N269	N	0.082839	0.183287	0.521186
	N270	N	0.083710	0.823190	0.452956
	N271	N	0.907844	0.821054	0.520339
	N272	N	0.177065	0.469536	0.898665
	N273	N	0.176292	0.536481	0.073713
	N274	N	0.817550	0.468961	0.073804
	N275	N	0.816945	0.537984	0.900983
	O276	O	-0.016006	0.863757	0.036379
	H277	H	-0.012504	0.864320	0.051024
	H278	H	-0.007142	0.856630	0.032290
	O279	O	0.280914	0.639056	0.516427
	H280	H	0.281448	0.632631	0.529254
	H281	H	0.282276	0.647189	0.501741
	O282	O	1.022454	0.146967	0.919628
	H283	H	1.026886	0.137411	0.914814
	H284	H	1.032219	0.151774	0.910607
	O285	O	0.384170	0.488732	0.443071
	H286	H	0.385018	0.503337	0.451888
	H287	H	0.398314	0.486395	0.445033
	O288	O	0.274198	0.452245	0.423876
	H289	H	0.278921	0.459590	0.424512
	H290	H	0.274506	0.471272	0.422907
	O291	O	0.279269	0.293181	0.534926
	H292	H	0.267677	0.277867	0.521743
	H293	H	0.288140	0.302966	0.506602
	O294	O	1.031916	0.062153	0.779786
	H295	H	1.039023	0.044872	0.780010
	H296	H	1.032361	0.047859	0.792582
	O297	O	0.561693	0.452624	0.704291
	H298	H	0.573385	0.432760	0.705036
	H299	H	0.586362	0.452526	0.705284
	O300	O	-0.032357	0.221036	0.783785
	H301	H	-0.022825	0.218196	0.771094
	H302	H	-0.025520	0.214035	0.771493
	O303	O	0.708678	0.710708	0.699157
	H304	H	0.680117	0.720618	0.710656
	H305	H	0.715956	0.740184	0.724334
	O306	O	0.450851	0.589598	0.709813
	H307	H	0.455488	0.582598	0.706115
	H308	H	0.458931	0.550290	0.714971
	O309	O	0.347950	0.700288	0.636103
	H310	H	0.355597	0.678036	0.618739
	H311	H	0.362911	0.688645	0.629560
	O312	O	0.713469	0.552562	0.393264
	H313	H	0.704839	0.568161	0.406390
	H314	H	0.713467	0.558610	0.414582
	O315	O	0.806346	0.815906	0.796479
	H316	H	0.819369	0.838636	0.814131
	H317	H	0.829231	0.826814	0.816479
	O318	O	0.467154	0.718042	0.268644
	H319	H	0.443552	0.712040	0.268560
	H320	H	0.452402	0.736900	0.244413
	O321	O	0.060352	0.837810	0.900945
	H322	H	0.082082	0.835550	0.882540
	H323	H	0.048903	0.834324	0.910756
	O324	O	0.773314	0.968784	0.210505
	H325	H	0.786823	0.988855	0.205384
	H326	H	0.743355	0.973227	0.233176
	O327	O	0.058654	-0.200132	0.867507
	H328	H	0.032164	-0.210023	0.880385
	H329	H	0.083134	-0.217596	0.873715
	O330	O	0.433288	0.386628	0.315090
	H331	H	0.442485	0.375874	0.316622
	H332	H	0.457785	0.378597	0.307712
	O333	O	0.470657	0.281751	0.712146
	H334	H	0.454264	0.260528	0.725155
	H335	H	0.470546	0.273825	0.706027
	O336	O	0.704846	0.300816	0.278342
	H337	H	0.722708	0.319538	0.259576
	H338	H	0.707249	0.320535	0.304015
	O339	O	1.061926	-0.113528	0.807552
	H340	H	1.044172	-0.123637	0.804245
	H341	H	1.072166	-0.137591	0.805750
	O342	O	-0.021772	-0.019337	-0.068321
	H343	H	-0.007346	-0.025120	-0.057712
	H344	H	-0.021584	-0.022259	-0.082887
	O345	O	0.159494	0.899900	1.074685
	H346	H	0.148249	0.898878	1.073553
	H347	H	0.156156	0.900990	1.066125
	O348	O	0.578613	0.516803	0.488462
	H349	H	0.585708	0.505591	0.501463
	H350	H	0.586984	0.523208	0.492840
	O351	O	0.575273	0.591557	0.279558
	H352	H	0.549561	0.588043	0.286587
	H353	H	0.567987	0.592895	0.287116
	O354	O	0.184602	-0.192259	1.181237
	H355	H	0.149000	-0.188515	1.173051
	H356	H	0.183070	-0.167600	1.161457
	O357	O	0.279599	0.720920	0.389067
	H358	H	0.271595	0.709023	0.396527
	H359	H	0.257907	0.737258	0.368984
	O360	O	0.179358	0.185583	0.802883
	H361	H	0.160775	0.170634	0.800724
	H362	H	0.192587	0.189331	0.790741
	O363	O	0.015999	0.214064	0.145039
	H364	H	0.020087	0.206818	0.126118
	H365	H	0.019289	0.231599	0.159818
	O366	O	0.280690	0.288251	0.699938
	H367	H	0.264449	0.278125	0.675972
	H368	H	0.298966	0.301820	0.684275
	O369	O	0.860459	0.092167	0.175890
	H370	H	0.859160	0.115153	0.174754
	H371	H	0.865019	0.090964	0.156372
	O372	O	0.771675	0.779253	0.021593
	H373	H	0.735642	0.744072	0.023910
	H374	H	0.781103	0.787703	0.072308
	O375	O	0.965144	-0.154854	0.163009
	H376	H	0.947576	-0.164037	0.159010
	H377	H	0.958999	-0.153565	0.166676
	O378	O	0.551757	0.305956	0.529738
	H379	H	0.560942	0.313493	0.527480
	H380	H	0.564064	0.300219	0.524875
	O381	O	0.237405	0.758328	0.746484
	H382	H	0.271180	0.735500	0.718155
	H383	H	0.244484	0.764881	0.754849
	O384	O	0.793415	0.015601	0.759878
	H385	H	0.779252	0.020407	0.742616
	H386	H	0.799713	0.019909	0.759608
	O387	O	1.060221	1.025618	0.081711
	H388	H	1.069380	1.016238	0.079812
	H389	H	1.045890	1.021726	0.072562
	O390	O	0.293408	0.529604	0.277533
	H391	H	0.306862	0.528691	0.279071
	H392	H	0.282429	0.523524	0.262048
	O393	O	0.516831	0.724341	0.452257
	H394	H	0.505274	0.722133	0.431449
	H395	H	0.526098	0.731250	0.466646
	O396	O	0.110043	1.030637	0.954488
	H397	H	0.110851	1.039647	0.961322
	H398	H	0.124321	1.029447	0.947729
	O399	O	0.022920	0.010083	1.219622
	H400	H	0.044185	0.022972	1.217876
	H401	H	0.021750	0.014928	1.217803
	O402	O	0.347567	0.553645	0.510661
	H403	H	0.347640	0.546944	0.520690
	H404	H	0.340276	0.550129	0.513595
	O405	O	0.804168	0.196111	1.117010
	H406	H	0.827555	0.206103	1.099524
	H407	H	0.807216	0.197564	1.117549
	O408	O	0.218100	0.221803	0.013113
	H409	H	0.250273	0.250492	0.019717
	H410	H	0.214870	0.204007	0.021950
	O411	O	0.539840	0.694858	0.707272
	H412	H	0.525680	0.702093	0.719448
	H413	H	0.519469	0.682606	0.711102
	O414	O	0.761699	0.241593	0.749171
	H415	H	0.778475	0.226474	0.770680
	H416	H	0.776909	0.225983	0.758682
	O417	O	0.714722	0.458538	0.547256
	H418	H	0.713139	0.448932	0.554800
	H419	H	0.713156	0.460951	0.557149
	O420	O	0.329037	0.604157	0.276251
	H421	H	0.308338	0.613911	0.264975
	H422	H	0.330477	0.598283	0.288905
	O423	O	-0.161421	0.093114	0.889586
	H424	H	-0.156495	0.077811	0.891948
	H425	H	-0.150301	0.093972	0.902625
	O426	O	0.359282	0.364224	0.459093
	H427	H	0.375302	0.361541	0.480787
	H428	H	0.375224	0.371610	0.443430
	O429	O	1.205642	1.053304	0.947840
	H430	H	1.209340	1.046922	0.925464
	H431	H	1.194030	1.067391	0.949113
	O432	O	0.721338	0.713265	0.504449
	H433	H	0.726422	0.728891	0.529556
	H434	H	0.721130	0.727107	0.529472
	O435	O	0.553781	0.539355	0.460391
	H436	H	0.560085	0.534624	0.461883
	H437	H	0.545330	0.552477	0.446062
	O438	O	-0.026851	0.192338	0.097311
	H439	H	-0.010969	0.181768	0.087607
	H440	H	-0.025525	0.203311	0.104710
	O441	O	0.275198	0.245579	0.226542
	H442	H	0.274410	0.223904	0.229318
	H443	H	0.288044	0.253754	0.233425
	O444	O	0.496573	0.294536	0.455409
	H445	H	0.516446	0.307089	0.457661
	H446	H	0.507595	0.292819	0.445328
	O447	O	0.197123	1.025358	1.214265
	H448	H	0.223167	1.022538	1.231123
	H449	H	0.200551	1.029017	1.201564
	O450	O	-0.037801	0.843258	1.174617
	H451	H	-0.043213	0.826744	1.196512
	H452	H	-0.039195	0.862946	1.180792
	O453	O	0.270061	0.483325	0.708883
	H454	H	0.259832	0.470621	0.722405
	H455	H	0.272391	0.463006	0.719811
	O456	O	-0.052642	-0.066255	0.754980
	H457	H	-0.050520	-0.075325	0.758052
	H458	H	-0.054120	-0.081284	0.757106
	O459	O	0.789460	0.794572	0.185230
	H460	H	0.783032	0.778203	0.215547
	H461	H	0.792584	0.834208	0.199530
	O462	O	0.551181	0.302746	0.282074
	H463	H	0.567514	0.284821	0.263180
	H464	H	0.577781	0.301387	0.278276
	O465	O	1.214759	-0.006763	-0.191530
	H466	H	1.230472	-0.017867	-0.209483
	H467	H	1.209674	-0.007812	-0.187529
	O468	O	0.714697	0.466274	0.271604
	H469	H	0.722193	0.486944	0.265037
	H470	H	0.725584	0.488151	0.277913
	O471	O	0.686719	0.331589	0.645033
	H472	H	0.711863	0.311144	0.673525
	H473	H	0.682788	0.352375	0.643922
	O474	O	0.506917	0.655517	0.503989
	H475	H	0.513325	0.643732	0.491722
	H476	H	0.505328	0.661791	0.509166
	O477	O	0.426215	0.439180	1.583663
	H478	H	0.428851	0.424782	1.580863
	H479	H	0.426671	0.435882	1.578851
	O480	O	0.642618	0.635216	0.312953
	H481	H	0.625538	0.616258	0.317161
	H482	H	0.643347	0.631843	0.341414
	O483	O	0.722647	0.535960	0.707718
	H484	H	0.749167	0.543599	0.730706
	H485	H	0.722117	0.574107	0.711004
	O486	O	0.786113	0.204118	0.914641
	H487	H	0.768820	0.223270	0.912665
	H488	H	0.794925	0.181227	0.904554
	O489	O	1.091731	1.176851	0.060240
	H490	H	1.082606	1.180621	0.053786
	H491	H	1.091333	1.183906	0.044058
	O492	O	-0.226517	0.007331	0.033247
	H493	H	-0.213120	0.014420	0.032584
	H494	H	-0.230028	0.009398	0.044480
	O495	O	0.208973	0.786156	0.975371
	H496	H	0.231982	0.781561	0.963963
	H497	H	0.216240	0.800221	0.969440
	O498	O	0.852383	0.860312	0.911910
	H499	H	0.847344	0.870811	0.933434
	H500	H	0.842292	0.853731	0.933546
	O501	O	0.716254	0.282612	0.451226
	H502	H	0.706281	0.286869	0.442553
	H503	H	0.745313	0.261823	0.456991
