data_Molecule from HDF5

_cell_length_a		16.326033
_cell_length_b		16.218930
_cell_length_c		16.346301
_cell_angle_alpha	90.144554
_cell_angle_beta	90.046350
_cell_angle_gamma	90.137971
_symmetry_space_group_name_H-M	'P 1'
_symmetry_Int_Tables_number		1

loop_
	_symmetry_equiv_pos_as_xyz
	x,y,z

loop_
	_atom_site_label
	_atom_site_type_symbol
	_atom_site_fract_x
	_atom_site_fract_y
	_atom_site_fract_z
	H0	H	0.407135	0.843409	0.715628
	H1	H	0.604566	0.171827	0.716993
	H2	H	0.604521	0.843673	0.286900
	H3	H	0.408004	0.171808	0.288785
	H4	H	0.721727	0.408509	0.839288
	H5	H	0.723473	0.608928	0.165245
	H6	H	0.291463	0.604631	0.839441
	H7	H	0.290314	0.406233	0.164436
	H8	H	0.842072	0.720145	0.405058
	H9	H	0.169631	0.722821	0.601367
	H10	H	0.842859	0.293989	0.599222
	H11	H	0.170431	0.292521	0.404479
	H12	H	0.843765	0.407838	0.717087
	H13	H	0.169758	0.608106	0.718140
	H14	H	0.844127	0.607393	0.285242
	H15	H	0.170068	0.406808	0.286836
	H16	H	0.409241	0.720084	0.838090
	H17	H	0.605489	0.724244	0.164609
	H18	H	0.605040	0.292482	0.838788
	H19	H	0.408502	0.293211	0.165643
	H20	H	0.718969	0.843021	0.404006
	H21	H	0.720838	0.171252	0.602205
	H22	H	0.291748	0.843205	0.600046
	H23	H	0.292401	0.172305	0.405282
	H24	H	0.906501	0.342428	0.217683
	H25	H	0.106334	0.670762	0.217305
	H26	H	0.105085	0.343979	0.787101
	H27	H	0.909248	0.671470	0.788612
	H28	H	0.221258	0.908119	0.339779
	H29	H	0.221081	0.107213	0.666466
	H30	H	0.790331	0.106413	0.339618
	H31	H	0.790108	0.908072	0.665521
	H32	H	0.343169	0.220698	0.904805
	H33	H	0.670180	0.221711	0.100353
	H34	H	0.342576	0.793650	0.098783
	H35	H	0.669947	0.793587	0.902658
	H36	H	0.342967	0.908455	0.216992
	H37	H	0.668449	0.109281	0.220017
	H38	H	0.343568	0.105927	0.787351
	H39	H	0.669312	0.908436	0.785750
	H40	H	0.908717	0.221494	0.339115
	H41	H	0.101883	0.221145	0.666894
	H42	H	0.104293	0.792693	0.339482
	H43	H	0.907832	0.793402	0.666561
	H44	H	0.219279	0.342454	0.904483
	H45	H	0.222286	0.671121	0.101475
	H46	H	0.790078	0.343029	0.101305
	H47	H	0.793092	0.671475	0.904074
	H48	H	0.406021	0.125607	0.591848
	H49	H	0.597351	0.890902	0.594079
	H50	H	0.598303	0.119671	0.422204
	H51	H	0.413141	0.889149	0.401836
	H52	H	0.595748	0.415432	0.116427
	H53	H	0.594950	0.601817	0.887179
	H54	H	0.405976	0.604820	0.121167
	H55	H	0.404331	0.420310	0.885904
	H56	H	0.122899	0.597268	0.405556
	H57	H	0.889826	0.604729	0.593257
	H58	H	0.124586	0.410986	0.595278
	H59	H	0.895937	0.421666	0.418043
	H60	H	0.121221	0.417158	0.594185
	H61	H	0.892902	0.594913	0.593907
	H62	H	0.123701	0.605792	0.409521
	H63	H	0.889635	0.419875	0.399797
	H64	H	0.414959	0.590205	0.114256
	H65	H	0.605262	0.604869	0.884962
	H66	H	0.602017	0.414071	0.119116
	H67	H	0.421586	0.417399	0.889248
	H68	H	0.608991	0.128451	0.406536
	H69	H	0.598594	0.890720	0.594368
	H70	H	0.413918	0.126850	0.604785
	H71	H	0.419127	0.893762	0.413363
	H72	H	0.916107	0.620693	0.089406
	H73	H	0.097819	0.389754	0.098277
	H74	H	0.108836	0.627788	0.905569
	H75	H	0.919730	0.391046	0.907828
	H76	H	0.106012	0.922091	0.618798
	H77	H	0.101413	0.096988	0.387813
	H78	H	0.907969	0.100647	0.619898
	H79	H	0.916709	0.908789	0.386874
	H80	H	0.618991	0.097422	0.916088
	H81	H	0.390655	0.101262	0.094769
	H82	H	0.622465	0.915191	0.096804
	H83	H	0.390838	0.914036	0.911340
	H84	H	0.620982	0.915431	0.092919
	H85	H	0.390762	0.099140	0.095861
	H86	H	0.622917	0.095319	0.903547
	H87	H	0.390095	0.916633	0.905229
	H88	H	0.914069	0.096562	0.616853
	H89	H	0.096745	0.100744	0.387537
	H90	H	0.090688	0.916940	0.615069
	H91	H	0.905190	0.913192	0.385475
	H92	H	0.091744	0.623910	0.904983
	H93	H	0.096858	0.391825	0.092036
	H94	H	0.911052	0.624885	0.096986
	H95	H	0.912184	0.391545	0.914104
	H96	H	0.420535	0.121214	0.591580
	H97	H	0.597972	0.890779	0.595298
	H98	H	0.589030	0.123599	0.403986
	H99	H	0.406572	0.889623	0.413713
	H100	H	0.600336	0.420395	0.116473
	H101	H	0.603186	0.594173	0.886785
	H102	H	0.423443	0.606001	0.116659
	H103	H	0.411752	0.403731	0.882802
	H104	H	0.120406	0.598658	0.415096
	H105	H	0.889349	0.599563	0.602278
	H106	H	0.123815	0.416386	0.599675
	H107	H	0.888626	0.404089	0.411729
	H108	H	0.920235	0.621567	0.098262
	H109	H	0.102971	0.389204	0.094213
	H110	H	0.100556	0.621461	0.919650
	H111	H	0.910474	0.388322	0.904592
	H112	H	0.101732	0.906747	0.622084
	H113	H	0.102298	0.102319	0.385889
	H114	H	0.914709	0.104294	0.618715
	H115	H	0.914347	0.920866	0.389168
	H116	H	0.624978	0.107145	0.908943
	H117	H	0.390257	0.100376	0.097368
	H118	H	0.621205	0.919091	0.095896
	H119	H	0.389421	0.910269	0.906796
	C120	C	0.384710	0.015835	0.623865
	C121	C	0.626895	0.999442	0.623938
	C122	C	0.627253	0.015760	0.381364
	C123	C	0.384800	0.999431	0.381598
	C124	C	0.628038	0.386850	0.009923
	C125	C	0.629614	0.630041	0.993920
	C126	C	0.385860	0.628496	0.009945
	C127	C	0.384764	0.385325	0.993797
	C128	C	0.014416	0.629039	0.381121
	C129	C	0.998538	0.629105	0.624716
	C130	C	0.015029	0.386199	0.624064
	C131	C	0.999018	0.385759	0.381149
	C132	C	0.886003	0.514396	0.123630
	C133	C	0.128733	0.498356	0.124273
	C134	C	0.128405	0.515893	0.881331
	C135	C	0.886050	0.498933	0.881005
	C136	C	0.127717	0.885938	0.510898
	C137	C	0.128113	0.129121	0.494978
	C138	C	0.884223	0.128963	0.510456
	C139	C	0.883782	0.885575	0.494848
	C140	C	0.514830	0.128659	0.880776
	C141	C	0.497809	0.129766	0.124823
	C142	C	0.514172	0.886752	0.123746
	C143	C	0.497968	0.885342	0.879142
	C144	C	0.386879	0.892342	0.677995
	C145	C	0.625044	0.122568	0.679431
	C146	C	0.624814	0.892508	0.325360
	C147	C	0.387566	0.123038	0.326680
	C148	C	0.683638	0.388194	0.887730
	C149	C	0.685139	0.628802	0.116370
	C150	C	0.330159	0.625319	0.887612
	C151	C	0.329226	0.387083	0.116289
	C152	C	0.891061	0.683021	0.384078
	C153	C	0.121085	0.684753	0.621733
	C154	C	0.891742	0.331536	0.620336
	C155	C	0.121818	0.330407	0.383449
	C156	C	0.892385	0.387963	0.679145
	C157	C	0.121160	0.627648	0.679793
	C158	C	0.892247	0.627077	0.324410
	C159	C	0.121535	0.387415	0.325299
	C160	C	0.388825	0.682309	0.886871
	C161	C	0.626284	0.686065	0.116203
	C162	C	0.625662	0.330496	0.887687
	C163	C	0.387640	0.330435	0.116609
	C164	C	0.681591	0.892027	0.383504
	C165	C	0.682764	0.122460	0.622302
	C166	C	0.329377	0.892323	0.620691
	C167	C	0.330295	0.123266	0.384444
	C168	C	0.886924	0.391250	0.179262
	C169	C	0.126806	0.621773	0.179546
	C170	C	0.125611	0.392561	0.825400
	C171	C	0.888757	0.622656	0.826489
	C172	C	0.183004	0.888216	0.388295
	C173	C	0.183121	0.127422	0.617730
	C174	C	0.828853	0.126552	0.388106
	C175	C	0.828621	0.887913	0.617136
	C176	C	0.391963	0.183356	0.883789
	C177	C	0.620921	0.184821	0.122041
	C178	C	0.391434	0.831337	0.119901
	C179	C	0.621165	0.831188	0.881726
	C180	C	0.391744	0.887889	0.179078
	C181	C	0.620175	0.128503	0.180930
	C182	C	0.392044	0.125984	0.825808
	C183	C	0.620678	0.888100	0.823724
	C184	C	0.887863	0.183615	0.387695
	C185	C	0.123951	0.183933	0.618094
	C186	C	0.124703	0.830842	0.388137
	C187	C	0.886821	0.830654	0.617530
	C188	C	0.182407	0.391822	0.883670
	C189	C	0.184175	0.622024	0.121851
	C190	C	0.829110	0.391455	0.121594
	C191	C	0.831365	0.622574	0.883893
	C192	C	0.406957	0.102452	0.602377
	C193	C	0.604558	0.913039	0.601232
	C194	C	0.605383	0.101619	0.404309
	C195	C	0.406519	0.913209	0.403209
	C196	C	0.605758	0.410034	0.095297
	C197	C	0.607646	0.607104	0.908307
	C198	C	0.408289	0.606810	0.095454
	C199	C	0.406176	0.407463	0.908075
	C200	C	0.100110	0.607109	0.403567
	C201	C	0.912978	0.606520	0.602796
	C202	C	0.101090	0.408313	0.602481
	C203	C	0.913629	0.408389	0.403354
	C204	C	0.909005	0.600096	0.101245
	C205	C	0.105935	0.412457	0.101605
	C206	C	0.106684	0.602030	0.903572
	C207	C	0.907601	0.412679	0.902472
	C208	C	0.105782	0.908639	0.596532
	C209	C	0.106319	0.106678	0.409161
	C210	C	0.905931	0.106963	0.596277
	C211	C	0.905681	0.907803	0.409405
	C212	C	0.600243	0.106457	0.902953
	C213	C	0.412623	0.106932	0.102599
	C214	C	0.599329	0.909737	0.101682
	C215	C	0.412395	0.907136	0.901424
	Zn216	Zn	0.505951	0.007204	0.751891
	Zn217	Zn	0.506030	0.007740	0.253387
	Zn218	Zn	0.757976	0.507452	0.002104
	Zn219	Zn	0.256308	0.506825	0.002538
	Zn220	Zn	0.005857	0.757554	0.502862
	Zn221	Zn	0.006664	0.257621	0.502570
	Zn222	Zn	0.006818	0.507448	0.752778
	Zn223	Zn	0.007061	0.506881	0.252354
	Zn224	Zn	0.506741	0.758045	0.001205
	Zn225	Zn	0.506425	0.257406	0.002595
	Zn226	Zn	0.754735	0.007049	0.502736
	Zn227	Zn	0.256650	0.008040	0.502814
	N228	N	0.420360	0.970261	0.680143
	N229	N	0.590915	0.044927	0.680286
	N230	N	0.591957	0.970460	0.323753
	N231	N	0.420746	0.045060	0.324747
	N232	N	0.685187	0.422610	0.964783
	N233	N	0.687437	0.594849	0.039126
	N234	N	0.328241	0.592511	0.965030
	N235	N	0.327239	0.420480	0.038905
	N236	N	0.968069	0.684530	0.418263
	N237	N	0.043874	0.685696	0.588110
	N238	N	0.969088	0.330349	0.586843
	N239	N	0.044784	0.329132	0.417362
	N240	N	0.969995	0.421402	0.681446
	N241	N	0.043906	0.593493	0.681649
	N242	N	0.969970	0.594198	0.322420
	N243	N	0.044229	0.421274	0.323835
	N244	N	0.422828	0.684296	0.963923
	N245	N	0.592787	0.686982	0.038983
	N246	N	0.591688	0.329711	0.964696
	N247	N	0.421338	0.329222	0.039456
	N248	N	0.683168	0.969685	0.417612
	N249	N	0.683705	0.044782	0.588190
	N250	N	0.328062	0.970246	0.587652
	N251	N	0.328441	0.045570	0.417815
	N252	N	0.921589	0.468654	0.180563
	N253	N	0.092898	0.544108	0.181011
	N254	N	0.092663	0.470507	0.824012
	N255	N	0.922144	0.544970	0.824771
	N256	N	0.185049	0.921692	0.465767
	N257	N	0.185581	0.093923	0.540099
	N258	N	0.826381	0.093458	0.465520
	N259	N	0.826442	0.921239	0.539908
	N260	N	0.469193	0.184927	0.917578
	N261	N	0.544061	0.185537	0.087504
	N262	N	0.468603	0.830512	0.086242
	N263	N	0.544127	0.829430	0.915675
	N264	N	0.468937	0.921801	0.181344
	N265	N	0.542710	0.094861	0.182827
	N266	N	0.469347	0.092674	0.823811
	N267	N	0.543069	0.921178	0.822204
	N268	N	0.921491	0.185113	0.464789
	N269	N	0.090578	0.184937	0.540870
	N270	N	0.091182	0.829284	0.465275
	N271	N	0.920503	0.829121	0.540406
	N272	N	0.184308	0.469459	0.917707
	N273	N	0.185773	0.544046	0.088495
	N274	N	0.828485	0.469032	0.087664
	N275	N	0.829554	0.544727	0.917258
	O276	O	0.456359	0.513765	0.442052
	H277	H	0.454874	0.516730	0.440385
	H278	H	0.458552	0.518023	0.441955
	O279	O	0.020408	-0.051490	0.114372
	H280	H	0.028269	-0.057530	0.117875
	H281	H	0.022787	-0.043475	0.104938
	O282	O	0.482428	0.535750	0.420371
	H283	H	0.495424	0.528484	0.422012
	H284	H	0.492729	0.535626	0.412358
	O285	O	0.519588	0.472502	0.468959
	H286	H	0.517917	0.470171	0.470704
	H287	H	0.506552	0.476315	0.460704
	O288	O	0.939509	-0.057699	0.077194
	H289	H	0.937276	-0.046063	0.095743
	H290	H	0.927583	-0.077184	0.077588
	O291	O	-0.456196	0.509673	-0.535452
	H292	H	-0.466863	0.511741	-0.530491
	H293	H	-0.467100	0.504883	-0.529291
	O294	O	0.520819	0.504208	0.457586
	H295	H	0.528987	0.507725	0.461905
	H296	H	0.531211	0.492876	0.464155
	O297	O	-0.042213	0.931060	0.065052
	H298	H	-0.050212	0.926217	0.072579
	H299	H	-0.036723	0.925034	0.060106
	O300	O	0.996179	-0.046295	1.068638
	H301	H	0.989267	-0.039576	1.062201
	H302	H	0.988093	-0.051509	1.067475
	O303	O	0.535138	0.526050	0.442275
	H304	H	0.528048	0.518264	0.436861
	H305	H	0.530643	0.533315	0.441588
	O306	O	-0.052024	0.949465	1.113846
	H307	H	-0.036507	0.948810	1.116766
	H308	H	-0.052557	0.955611	1.121181
	O309	O	0.459348	0.458527	0.449472
	H310	H	0.454916	0.461259	0.436232
	H311	H	0.464035	0.464596	0.451273
