data_Molecule from HDF5

_cell_length_a		16.275915
_cell_length_b		16.310155
_cell_length_c		16.236169
_cell_angle_alpha	90.148377
_cell_angle_beta	90.065306
_cell_angle_gamma	90.061631
_symmetry_space_group_name_H-M	'P 1'
_symmetry_Int_Tables_number		1

loop_
	_symmetry_equiv_pos_as_xyz
	x,y,z

loop_
	_atom_site_label
	_atom_site_type_symbol
	_atom_site_fract_x
	_atom_site_fract_y
	_atom_site_fract_z
	H0	H	0.398336	0.841936	0.711999
	H1	H	0.596569	0.169342	0.714086
	H2	H	0.593271	0.842317	0.284561
	H3	H	0.398418	0.170639	0.282747
	H4	H	0.711671	0.408382	0.834134
	H5	H	0.710740	0.605140	0.161804
	H6	H	0.283852	0.603573	0.833570
	H7	H	0.284585	0.408991	0.162589
	H8	H	0.832838	0.720709	0.399099
	H9	H	0.159749	0.723317	0.598926
	H10	H	0.832980	0.292797	0.596957
	H11	H	0.160078	0.290968	0.398634
	H12	H	0.833553	0.409274	0.712432
	H13	H	0.161034	0.605578	0.711927
	H14	H	0.833723	0.605044	0.283717
	H15	H	0.161434	0.408134	0.284611
	H16	H	0.398309	0.719784	0.833305
	H17	H	0.597068	0.722592	0.160343
	H18	H	0.596860	0.292027	0.833821
	H19	H	0.398717	0.291565	0.162114
	H20	H	0.712007	0.843513	0.398303
	H21	H	0.712011	0.170147	0.596807
	H22	H	0.280493	0.843542	0.597116
	H23	H	0.282150	0.170269	0.398701
	H24	H	0.901378	0.342926	0.211210
	H25	H	0.096669	0.670404	0.214455
	H26	H	0.095247	0.343265	0.783853
	H27	H	0.899524	0.670748	0.784906
	H28	H	0.210804	0.908301	0.333208
	H29	H	0.211780	0.105385	0.662039
	H30	H	0.784891	0.103226	0.333106
	H31	H	0.783383	0.910287	0.662390
	H32	H	0.334619	0.220811	0.897738
	H33	H	0.660793	0.222648	0.098710
	H34	H	0.334288	0.791363	0.095960
	H35	H	0.660654	0.792069	0.897953
	H36	H	0.333339	0.908933	0.210051
	H37	H	0.661823	0.103911	0.211169
	H38	H	0.334526	0.104120	0.782370
	H39	H	0.661405	0.908541	0.784106
	H40	H	0.898058	0.220479	0.334260
	H41	H	0.097419	0.223198	0.661698
	H42	H	0.094753	0.791478	0.333849
	H43	H	0.896553	0.792707	0.661970
	H44	H	0.211582	0.342921	0.899664
	H45	H	0.211875	0.671599	0.096316
	H46	H	0.782272	0.343458	0.097420
	H47	H	0.782135	0.669592	0.899550
	H48	H	0.409994	0.120856	0.592153
	H49	H	0.584423	0.892876	0.587831
	H50	H	0.582452	0.122389	0.399198
	H51	H	0.405478	0.894188	0.411800
	H52	H	0.580623	0.423009	0.109661
	H53	H	0.594186	0.601387	0.879454
	H54	H	0.402880	0.594393	0.114020
	H55	H	0.405381	0.407413	0.880173
	H56	H	0.113148	0.603208	0.411450
	H57	H	0.878487	0.607446	0.591428
	H58	H	0.110612	0.422686	0.590409
	H59	H	0.881496	0.410051	0.410407
	H60	H	0.116339	0.411022	0.597687
	H61	H	0.883238	0.596597	0.584924
	H62	H	0.111307	0.594366	0.409694
	H63	H	0.881726	0.418630	0.403746
	H64	H	0.411390	0.600184	0.112519
	H65	H	0.590882	0.594709	0.881278
	H66	H	0.585604	0.400007	0.117588
	H67	H	0.399497	0.414602	0.880510
	H68	H	0.591234	0.119625	0.414717
	H69	H	0.595771	0.890866	0.586409
	H70	H	0.403800	0.121339	0.586096
	H71	H	0.395299	0.888345	0.402109
	H72	H	0.898464	0.622379	0.082843
	H73	H	0.091989	0.391042	0.090562
	H74	H	0.097575	0.622302	0.914137
	H75	H	0.913491	0.397141	0.918403
	H76	H	0.087964	0.907946	0.615519
	H77	H	0.089854	0.095532	0.382374
	H78	H	0.905080	0.089662	0.612003
	H79	H	0.906231	0.916382	0.382967
	H80	H	0.613490	0.101622	0.912403
	H81	H	0.381912	0.104364	0.083154
	H82	H	0.617332	0.910892	0.096823
	H83	H	0.376395	0.900438	0.901107
	H84	H	0.614158	0.909040	0.085040
	H85	H	0.384232	0.091741	0.089440
	H86	H	0.612712	0.092281	0.904022
	H87	H	0.385029	0.914876	0.916442
	H88	H	0.913447	0.107525	0.614872
	H89	H	0.085963	0.101760	0.382093
	H90	H	0.096301	0.915447	0.615710
	H91	H	0.905751	0.908941	0.381084
	H92	H	0.096624	0.626675	0.896713
	H93	H	0.093627	0.390419	0.092898
	H94	H	0.899144	0.627676	0.100809
	H95	H	0.887350	0.386110	0.907838
	H96	H	0.401997	0.123494	0.594664
	H97	H	0.590637	0.888052	0.595908
	H98	H	0.599871	0.127422	0.399897
	H99	H	0.409653	0.890745	0.397515
	H100	H	0.604028	0.417979	0.117481
	H101	H	0.587016	0.601644	0.879930
	H102	H	0.403206	0.604121	0.116664
	H103	H	0.408538	0.415914	0.883541
	H104	H	0.113793	0.600033	0.402952
	H105	H	0.879719	0.595584	0.597725
	H106	H	0.112528	0.409862	0.583349
	H107	H	0.877184	0.409113	0.399588
	H108	H	0.914792	0.620466	0.092522
	H109	H	0.090883	0.391419	0.092802
	H110	H	0.081692	0.620597	0.905141
	H111	H	0.911105	0.387515	0.889671
	H112	H	0.086045	0.918867	0.612158
	H113	H	0.093039	0.102005	0.380370
	H114	H	0.894320	0.104427	0.618776
	H115	H	0.900198	0.913753	0.379685
	H116	H	0.617200	0.103486	0.900130
	H117	H	0.378691	0.102463	0.096963
	H118	H	0.612252	0.919360	0.090757
	H119	H	0.380625	0.922192	0.895760
	C120	C	0.376202	0.014028	0.619381
	C121	C	0.618945	0.998247	0.619335
	C122	C	0.619011	0.014975	0.375739
	C123	C	0.375389	0.998903	0.375605
	C124	C	0.619010	0.384842	0.006375
	C125	C	0.619233	0.628161	0.988654
	C126	C	0.376781	0.627774	0.006121
	C127	C	0.376257	0.384622	0.989897
	C128	C	0.005085	0.628186	0.377887
	C129	C	0.988446	0.629030	0.620313
	C130	C	0.005173	0.385743	0.619407
	C131	C	0.988608	0.384688	0.376446
	C132	C	0.875885	0.515157	0.120137
	C133	C	0.120484	0.499128	0.120844
	C134	C	0.119570	0.514940	0.876806
	C135	C	0.875734	0.498319	0.876759
	C136	C	0.118301	0.885456	0.505987
	C137	C	0.118825	0.128758	0.489618
	C138	C	0.875869	0.128313	0.506349
	C139	C	0.875267	0.884926	0.489731
	C140	C	0.506602	0.127809	0.875998
	C141	C	0.489393	0.127980	0.118976
	C142	C	0.506139	0.884652	0.119124
	C143	C	0.488594	0.884221	0.875847
	C144	C	0.378123	0.891150	0.674318
	C145	C	0.616766	0.120946	0.675352
	C146	C	0.615065	0.891553	0.321545
	C147	C	0.377713	0.121630	0.320461
	C148	C	0.674131	0.387600	0.883160
	C149	C	0.673126	0.625495	0.112682
	C150	C	0.321385	0.624110	0.882651
	C151	C	0.321793	0.387858	0.113419
	C152	C	0.881854	0.682906	0.379367
	C153	C	0.111083	0.684887	0.618657
	C154	C	0.881952	0.330546	0.617233
	C155	C	0.111461	0.329150	0.378580
	C156	C	0.882287	0.388174	0.675005
	C157	C	0.111709	0.626340	0.675169
	C158	C	0.882372	0.625258	0.322158
	C159	C	0.112079	0.387366	0.321752
	C160	C	0.378240	0.682202	0.882482
	C161	C	0.616823	0.684023	0.111760
	C162	C	0.616979	0.329940	0.883042
	C163	C	0.378409	0.329410	0.113081
	C164	C	0.673966	0.892112	0.378144
	C165	C	0.673996	0.121433	0.617118
	C166	C	0.319571	0.891928	0.617038
	C167	C	0.320161	0.121724	0.378352
	C168	C	0.879617	0.391982	0.174187
	C169	C	0.117295	0.622031	0.176034
	C170	C	0.116135	0.392092	0.821642
	C171	C	0.878942	0.621657	0.822562
	C172	C	0.173140	0.887819	0.382368
	C173	C	0.174315	0.126389	0.613069
	C174	C	0.821438	0.124622	0.382738
	C175	C	0.820622	0.888732	0.613254
	C176	C	0.383593	0.183192	0.877457
	C177	C	0.612327	0.183724	0.117991
	C178	C	0.383093	0.828983	0.116890
	C179	C	0.612022	0.829856	0.877938
	C180	C	0.382621	0.887717	0.173304
	C181	C	0.612616	0.125137	0.174338
	C182	C	0.383264	0.124989	0.820471
	C183	C	0.612362	0.887287	0.821273
	C184	C	0.878170	0.182482	0.382957
	C185	C	0.117050	0.184408	0.613053
	C186	C	0.115510	0.829764	0.382600
	C187	C	0.877077	0.830477	0.613074
	C188	C	0.173937	0.391812	0.879310
	C189	C	0.175115	0.622214	0.117877
	C190	C	0.820618	0.392151	0.117637
	C191	C	0.820665	0.621266	0.879540
	C192	C	0.398667	0.099848	0.597538
	C193	C	0.596791	0.912803	0.596660
	C194	C	0.597394	0.100923	0.398039
	C195	C	0.397207	0.913059	0.397346
	C196	C	0.596746	0.407058	0.092642
	C197	C	0.597287	0.605809	0.902608
	C198	C	0.399298	0.606011	0.092135
	C199	C	0.398336	0.406034	0.903604
	C200	C	0.090679	0.605846	0.401128
	C201	C	0.902623	0.606481	0.597863
	C202	C	0.090764	0.407822	0.596967
	C203	C	0.902407	0.406480	0.398177
	C204	C	0.897669	0.601192	0.098436
	C205	C	0.098607	0.413071	0.098590
	C206	C	0.098295	0.600896	0.898792
	C207	C	0.897708	0.412517	0.898657
	C208	C	0.096548	0.907535	0.592146
	C209	C	0.096167	0.106359	0.403887
	C210	C	0.897874	0.106899	0.592890
	C211	C	0.897473	0.906492	0.403502
	C212	C	0.592304	0.105705	0.898729
	C213	C	0.403637	0.106053	0.096280
	C214	C	0.592263	0.906507	0.097348
	C215	C	0.402742	0.905954	0.898018
	Zn216	Zn	0.497733	0.005684	0.748669
	Zn217	Zn	0.497196	0.006705	0.247030
	Zn218	Zn	0.747265	0.506494	-0.001721
	Zn219	Zn	0.248485	0.506584	-0.001584
	Zn220	Zn	-0.003574	0.757056	0.498517
	Zn221	Zn	-0.003138	0.256777	0.498002
	Zn222	Zn	-0.002676	0.507147	0.748755
	Zn223	Zn	-0.002596	0.507176	0.248946
	Zn224	Zn	0.497789	0.756434	-0.003173
	Zn225	Zn	0.498011	0.256463	-0.002201
	Zn226	Zn	0.747906	0.006779	0.497883
	Zn227	Zn	0.246920	0.007108	0.497465
	N228	N	0.412786	0.968270	0.675711
	N229	N	0.582945	0.043627	0.676746
	N230	N	0.581663	0.968925	0.320011
	N231	N	0.411180	0.044168	0.318493
	N232	N	0.675367	0.421244	0.960913
	N233	N	0.674869	0.591428	0.035117
	N234	N	0.320244	0.591120	0.960612
	N235	N	0.320285	0.421538	0.035885
	N236	N	0.959198	0.684579	0.413553
	N237	N	0.033430	0.686716	0.585283
	N238	N	0.959430	0.328907	0.583382
	N239	N	0.033675	0.327342	0.411704
	N240	N	0.959744	0.421940	0.676339
	N241	N	0.034475	0.592198	0.676274
	N242	N	0.959978	0.591962	0.321110
	N243	N	0.034735	0.421201	0.320304
	N244	N	0.411995	0.684539	0.960047
	N245	N	0.583695	0.685527	0.033809
	N246	N	0.583489	0.328265	0.960789
	N247	N	0.411591	0.327418	0.035218
	N248	N	0.676414	0.969836	0.411338
	N249	N	0.675576	0.044189	0.583021
	N250	N	0.318202	0.969263	0.583668
	N251	N	0.318579	0.044446	0.411859
	N252	N	0.913273	0.469305	0.175688
	N253	N	0.084395	0.544374	0.178086
	N254	N	0.083266	0.469663	0.819974
	N255	N	0.912386	0.544197	0.820677
	N256	N	0.174801	0.921763	0.460046
	N257	N	0.175507	0.092696	0.535396
	N258	N	0.820145	0.091468	0.460595
	N259	N	0.819451	0.921812	0.535523
	N260	N	0.461275	0.185069	0.911444
	N261	N	0.534865	0.185582	0.084232
	N262	N	0.461073	0.827029	0.083800
	N263	N	0.534268	0.827655	0.910999
	N264	N	0.459938	0.921422	0.174782
	N265	N	0.535163	0.090910	0.174808
	N266	N	0.460584	0.091166	0.819701
	N267	N	0.534688	0.920504	0.819729
	N268	N	0.911211	0.184930	0.460848
	N269	N	0.083354	0.186083	0.535362
	N270	N	0.082455	0.827843	0.460493
	N271	N	0.910494	0.828178	0.535204
	N272	N	0.176184	0.469250	0.912955
	N273	N	0.177077	0.544696	0.084056
	N274	N	0.818059	0.470042	0.084765
	N275	N	0.818441	0.543596	0.912367
	O276	O	0.429658	0.491346	0.506428
	H277	H	0.429434	0.500395	0.500198
	H278	H	0.421807	0.483684	0.511559
	O279	O	0.536883	0.518389	0.532929
	H280	H	0.530944	0.517514	0.532596
	H281	H	0.532005	0.518572	0.526504
	O282	O	0.579339	0.549179	0.502359
	H283	H	0.580065	0.544020	0.505235
	H284	H	0.586964	0.553007	0.497997
	O285	O	0.446387	0.485411	1.431827
	H286	H	0.447004	0.493118	1.438236
	H287	H	0.436929	0.483898	1.434353
	O288	O	0.026961	0.043348	1.022567
	H289	H	0.021261	0.036964	1.028408
	H290	H	0.030622	0.037944	1.020977
	O291	O	-0.582378	0.547315	0.451994
	H292	H	-0.575051	0.550300	0.446232
	H293	H	-0.582499	0.545275	0.457058
	O294	O	0.493607	0.512788	0.548118
	H295	H	0.496315	0.522910	0.554341
	H296	H	0.489313	0.515372	0.547774
	O297	O	0.498695	0.561092	0.450828
	H298	H	0.491563	0.561219	0.453265
	H299	H	0.498796	0.565304	0.454576
	O300	O	0.515254	0.504930	0.423082
	H301	H	0.510642	0.506169	0.408627
	H302	H	0.519039	0.502360	0.422859
	O303	O	0.470949	0.573517	0.503622
	H304	H	0.468083	0.568176	0.503139
	H305	H	0.470879	0.566243	0.505593
	O306	O	1.047627	0.050271	1.022873
	H307	H	1.048926	0.055061	1.020254
	H308	H	1.047992	0.049983	1.026656
	O309	O	0.531037	0.508177	0.465562
	H310	H	0.534160	0.516089	0.472863
	H311	H	0.525364	0.508008	0.461212
	O312	O	0.447387	0.486976	0.546759
	H313	H	0.446243	0.495474	0.545554
	H314	H	0.447950	0.483140	0.540126
	O315	O	1.041895	0.022593	1.002028
	H316	H	1.041635	0.027043	1.006115
	H317	H	1.038478	0.023446	1.015635
	O318	O	0.446848	-0.507177	-0.502570
	H319	H	0.442394	-0.507939	-0.510098
	H320	H	0.451497	-0.498555	-0.508850
	O321	O	0.499177	0.424964	0.564215
	H322	H	0.500525	0.422159	0.576192
	H323	H	0.492432	0.427372	0.565335
	O324	O	1.060066	0.046364	-0.025870
	H325	H	1.061354	0.047526	-0.027245
	H326	H	1.062934	0.049410	-0.025657
	O327	O	1.019683	1.008095	0.037850
	H328	H	1.018408	1.009877	0.027744
	H329	H	1.028115	1.011153	0.026116
	O330	O	0.455156	0.546431	0.504297
	H331	H	0.454527	0.538243	0.511635
	H332	H	0.458137	0.551325	0.495515
	O333	O	0.489628	0.491219	0.567505
	H334	H	0.485888	0.486620	0.569263
	H335	H	0.491043	0.489368	0.571171
