data_Molecule from HDF5

_cell_length_a		16.580932
_cell_length_b		16.513487
_cell_length_c		16.551469
_cell_angle_alpha	89.995378
_cell_angle_beta	90.019430
_cell_angle_gamma	89.977650
_symmetry_space_group_name_H-M	'P 1'
_symmetry_Int_Tables_number		1

loop_
	_symmetry_equiv_pos_as_xyz
	x,y,z

loop_
	_atom_site_label
	_atom_site_type_symbol
	_atom_site_fract_x
	_atom_site_fract_y
	_atom_site_fract_z
	H0	H	0.373423	0.847094	0.703210
	H1	H	0.584049	0.160455	0.700628
	H2	H	0.582328	0.844388	0.260735
	H3	H	0.376469	0.160360	0.261569
	H4	H	0.697106	0.403763	0.822625
	H5	H	0.700959	0.609379	0.138144
	H6	H	0.259388	0.609886	0.822419
	H7	H	0.261125	0.402729	0.138308
	H8	H	0.823880	0.727952	0.372952
	H9	H	0.135593	0.726834	0.586451
	H10	H	0.820547	0.289066	0.578803
	H11	H	0.137173	0.284614	0.377468
	H12	H	0.821557	0.404567	0.697218
	H13	H	0.136287	0.611127	0.703421
	H14	H	0.824296	0.612882	0.255801
	H15	H	0.138160	0.402538	0.261938
	H16	H	0.377622	0.724408	0.822149
	H17	H	0.583445	0.724708	0.138562
	H18	H	0.579651	0.287829	0.822081
	H19	H	0.377933	0.286496	0.138808
	H20	H	0.699751	0.844951	0.374779
	H21	H	0.698653	0.160662	0.583021
	H22	H	0.255856	0.847663	0.588960
	H23	H	0.260033	0.160552	0.377553
	H24	H	0.877083	0.347322	0.199535
	H25	H	0.089073	0.660500	0.205290
	H26	H	0.080907	0.345762	0.763157
	H27	H	0.875124	0.661705	0.758794
	H28	H	0.203688	0.896037	0.325432
	H29	H	0.200435	0.109193	0.637662
	H30	H	0.758540	0.108382	0.322963
	H31	H	0.756884	0.897528	0.635662
	H32	H	0.322405	0.224400	0.875417
	H33	H	0.636685	0.221060	0.080950
	H34	H	0.323967	0.780366	0.086797
	H35	H	0.635646	0.781212	0.874133
	H36	H	0.322897	0.896549	0.202646
	H37	H	0.635431	0.106231	0.200345
	H38	H	0.322732	0.108415	0.758477
	H39	H	0.634793	0.896867	0.757043
	H40	H	0.875991	0.223820	0.322584
	H41	H	0.082004	0.223419	0.638178
	H42	H	0.087378	0.779291	0.325554
	H43	H	0.873590	0.781229	0.635938
	H44	H	0.198385	0.346401	0.877230
	H45	H	0.204358	0.660687	0.088600
	H46	H	0.760026	0.347444	0.084452
	H47	H	0.758334	0.661710	0.875034
	H48	H	0.392692	0.116862	0.575619
	H49	H	0.565678	0.889160	0.575819
	H50	H	0.568684	0.113387	0.392720
	H51	H	0.388856	0.890772	0.396397
	H52	H	0.568636	0.413337	0.093551
	H53	H	0.565157	0.596077	0.869811
	H54	H	0.392756	0.591324	0.090878
	H55	H	0.383648	0.415268	0.866160
	H56	H	0.084649	0.577431	0.393082
	H57	H	0.867998	0.591348	0.571749
	H58	H	0.095161	0.413382	0.577817
	H59	H	0.867058	0.414404	0.387996
	H60	H	0.093754	0.407386	0.570256
	H61	H	0.868270	0.594649	0.567830
	H62	H	0.096294	0.596248	0.381573
	H63	H	0.866816	0.412269	0.388721
	H64	H	0.391555	0.593013	0.090701
	H65	H	0.572828	0.594964	0.866930
	H66	H	0.571181	0.411625	0.095197
	H67	H	0.392526	0.416634	0.869023
	H68	H	0.572949	0.117537	0.389713
	H69	H	0.562230	0.894731	0.563355
	H70	H	0.395658	0.111577	0.564689
	H71	H	0.388129	0.888555	0.389178
	H72	H	0.892471	0.621108	0.079914
	H73	H	0.065491	0.392105	0.076767
	H74	H	0.068572	0.616528	0.893547
	H75	H	0.887806	0.393294	0.894154
	H76	H	0.070712	0.915896	0.593084
	H77	H	0.065023	0.101367	0.366988
	H78	H	0.890535	0.095888	0.593390
	H79	H	0.886963	0.914911	0.366322
	H80	H	0.590516	0.092305	0.891562
	H81	H	0.364330	0.100909	0.070750
	H82	H	0.593585	0.913708	0.077279
	H83	H	0.368569	0.916644	0.891901
	H84	H	0.590829	0.908991	0.063746
	H85	H	0.367962	0.091291	0.065796
	H86	H	0.592929	0.094450	0.886521
	H87	H	0.368592	0.915523	0.892839
	H88	H	0.885747	0.097172	0.594255
	H89	H	0.078536	0.092374	0.366204
	H90	H	0.066076	0.921553	0.589317
	H91	H	0.890973	0.919753	0.369447
	H92	H	0.072901	0.618976	0.890506
	H93	H	0.065430	0.397548	0.062798
	H94	H	0.900483	0.612085	0.063198
	H95	H	0.885659	0.389744	0.887205
	H96	H	0.384438	0.117025	0.566172
	H97	H	0.575601	0.890057	0.565680
	H98	H	0.567122	0.116387	0.386801
	H99	H	0.395077	0.891417	0.391934
	H100	H	0.571924	0.414739	0.094241
	H101	H	0.569264	0.588519	0.871022
	H102	H	0.390698	0.591164	0.091310
	H103	H	0.389816	0.408770	0.865759
	H104	H	0.089472	0.598893	0.405191
	H105	H	0.870402	0.589936	0.567312
	H106	H	0.091589	0.416738	0.569272
	H107	H	0.867447	0.413675	0.390151
	H108	H	0.881959	0.618397	0.062521
	H109	H	0.077108	0.390351	0.068199
	H110	H	0.067898	0.617917	0.888018
	H111	H	0.893205	0.392014	0.888272
	H112	H	0.063249	0.914009	0.590932
	H113	H	0.064796	0.086061	0.372703
	H114	H	0.886710	0.092335	0.592870
	H115	H	0.893766	0.913264	0.368790
	H116	H	0.592324	0.098139	0.890969
	H117	H	0.364778	0.091494	0.076686
	H118	H	0.586872	0.922355	0.067933
	H119	H	0.369404	0.916588	0.892669
	C120	C	0.358100	0.011958	0.602148
	C121	C	0.600580	0.994930	0.600869
	C122	C	0.601131	0.011483	0.358062
	C123	C	0.358103	0.994175	0.360044
	C124	C	0.600869	0.383318	-0.010569
	C125	C	0.601441	0.625692	0.972602
	C126	C	0.359022	0.625256	-0.012228
	C127	C	0.358166	0.382915	0.971682
	C128	C	-0.012137	0.625381	0.359205
	C129	C	0.971752	0.625317	0.601969
	C130	C	-0.011627	0.382748	0.601916
	C131	C	0.971450	0.382239	0.358170
	C132	C	0.859599	0.513241	0.100788
	C133	C	0.102366	0.496623	0.102268
	C134	C	0.100986	0.513238	0.859502
	C135	C	0.857762	0.496025	0.858707
	C136	C	0.100409	0.883052	0.488712
	C137	C	0.100797	0.125069	0.472546
	C138	C	0.857192	0.125653	0.488839
	C139	C	0.858107	0.882935	0.471455
	C140	C	0.488221	0.126064	0.857820
	C141	C	0.470046	0.124942	0.101730
	C142	C	0.487234	0.882154	0.101991
	C143	C	0.471439	0.883296	0.859478
	C144	C	0.355224	0.894087	0.663026
	C145	C	0.602322	0.113368	0.660395
	C146	C	0.601484	0.892092	0.299817
	C147	C	0.357072	0.112869	0.300892
	C148	C	0.657878	0.384319	0.869958
	C149	C	0.661113	0.627823	0.091036
	C150	C	0.299526	0.627750	0.869570
	C151	C	0.300337	0.383132	0.090872
	C152	C	0.870663	0.687156	0.355418
	C153	C	0.089076	0.686255	0.604362
	C154	C	0.868479	0.327031	0.599487
	C155	C	0.090117	0.324043	0.358103
	C156	C	0.868740	0.384518	0.658067
	C157	C	0.089462	0.628476	0.662403
	C158	C	0.871036	0.629962	0.296941
	C159	C	0.090594	0.382753	0.300865
	C160	C	0.358142	0.684935	0.869447
	C161	C	0.602849	0.685382	0.091101
	C162	C	0.599653	0.326720	0.869729
	C163	C	0.358282	0.325283	0.091095
	C164	C	0.660132	0.892483	0.356568
	C165	C	0.659435	0.113415	0.602165
	C166	C	0.296702	0.894469	0.606123
	C167	C	0.299244	0.113088	0.358453
	C168	C	0.858244	0.394619	0.160123
	C169	C	0.106222	0.613831	0.164051
	C170	C	0.100727	0.393619	0.801831
	C171	C	0.856229	0.614699	0.798977
	C172	C	0.162916	0.878455	0.372086
	C173	C	0.160142	0.127184	0.590566
	C174	C	0.798425	0.127239	0.370188
	C175	C	0.797077	0.879363	0.588976
	C176	C	0.369797	0.185224	0.856232
	C177	C	0.589195	0.182499	0.101532
	C178	C	0.370277	0.821175	0.104651
	C179	C	0.588713	0.821932	0.856272
	C180	C	0.370006	0.878889	0.162493
	C181	C	0.588549	0.125442	0.160349
	C182	C	0.370030	0.127444	0.798134
	C183	C	0.588475	0.879546	0.798117
	C184	C	0.856952	0.184386	0.369994
	C185	C	0.101637	0.184424	0.590719
	C186	C	0.104841	0.820783	0.371861
	C187	C	0.855219	0.821825	0.589071
	C188	C	0.159086	0.394020	0.858774
	C189	C	0.163948	0.613755	0.106276
	C190	C	0.799970	0.394883	0.102859
	C191	C	0.798337	0.614683	0.856839
	C192	C	0.383679	0.093962	0.576201
	C193	C	0.575313	0.912645	0.575491
	C194	C	0.576571	0.094105	0.382433
	C195	C	0.383360	0.911867	0.385367
	C196	C	0.577511	0.406694	0.072706
	C197	C	0.576444	0.600385	0.890699
	C198	C	0.384250	0.599349	0.069664
	C199	C	0.381760	0.406557	0.888617
	C200	C	0.068962	0.598723	0.385803
	C201	C	0.890142	0.599411	0.576231
	C202	C	0.071795	0.406064	0.579132
	C203	C	0.888729	0.406621	0.382038
	C204	C	0.884398	0.595840	0.075737
	C205	C	0.076740	0.414552	0.076437
	C206	C	0.076785	0.596208	0.883803
	C207	C	0.882063	0.413345	0.882995
	C208	C	0.073972	0.909555	0.569865
	C209	C	0.076323	0.100347	0.390077
	C210	C	0.880857	0.101725	0.571812
	C211	C	0.883431	0.908623	0.389589
	C212	C	0.570440	0.101811	0.882515
	C213	C	0.387312	0.101442	0.077925
	C214	C	0.569067	0.907714	0.076820
	C215	C	0.389984	0.909076	0.885042
	Zn216	Zn	0.479705	0.003660	0.729622
	Zn217	Zn	0.478849	0.002691	0.230895
	Zn218	Zn	0.729911	0.504897	-0.019057
	Zn219	Zn	0.229822	0.504691	-0.019858
	Zn220	Zn	-0.020650	0.753884	0.480242
	Zn221	Zn	-0.020601	0.253863	0.480280
	Zn222	Zn	-0.020149	0.504415	0.730631
	Zn223	Zn	-0.019316	0.504867	0.230257
	Zn224	Zn	0.479802	0.754069	-0.019597
	Zn225	Zn	0.479401	0.254221	-0.019751
	Zn226	Zn	0.729176	0.003369	0.479530
	Zn227	Zn	0.229898	0.003515	0.481029
	N228	N	0.392718	0.968229	0.660650
	N229	N	0.566367	0.038619	0.659720
	N230	N	0.565673	0.967169	0.300380
	N231	N	0.392716	0.037874	0.301517
	N232	N	0.659070	0.418504	0.945621
	N233	N	0.660793	0.591972	0.016237
	N234	N	0.299821	0.591489	0.944176
	N235	N	0.300043	0.418108	0.015592
	N236	N	0.944335	0.684453	0.393385
	N237	N	0.014911	0.684226	0.567375
	N238	N	0.944054	0.325509	0.565684
	N239	N	0.014936	0.323572	0.392908
	N240	N	0.944439	0.418253	0.659864
	N241	N	0.015372	0.591439	0.661152
	N242	N	0.944855	0.592354	0.299139
	N243	N	0.015531	0.418090	0.300677
	N244	N	0.394244	0.683453	0.944176
	N245	N	0.566426	0.684165	0.016489
	N246	N	0.565233	0.325667	0.945161
	N247	N	0.393290	0.324829	0.015801
	N248	N	0.660399	0.967838	0.391801
	N249	N	0.658436	0.038754	0.565689
	N250	N	0.298203	0.968870	0.569127
	N251	N	0.299652	0.038098	0.394338
	N252	N	0.894526	0.469419	0.159291
	N253	N	0.068341	0.539993	0.161600
	N254	N	0.065427	0.469022	0.801724
	N255	N	0.892374	0.539903	0.799722
	N256	N	0.160422	0.916251	0.445828
	N257	N	0.159822	0.091079	0.515993
	N258	N	0.798131	0.091630	0.445204
	N259	N	0.798602	0.916377	0.514765
	N260	N	0.444324	0.184662	0.892618
	N261	N	0.514375	0.182613	0.066071
	N262	N	0.444266	0.823054	0.067736
	N263	N	0.515029	0.824195	0.893955
	N264	N	0.443863	0.916101	0.161030
	N265	N	0.513523	0.090379	0.160835
	N266	N	0.444726	0.091442	0.798814
	N267	N	0.514672	0.916956	0.800039
	N268	N	0.892726	0.183691	0.444802
	N269	N	0.065499	0.183445	0.516145
	N270	N	0.066812	0.823273	0.445491
	N271	N	0.892263	0.823738	0.514894
	N272	N	0.159694	0.469549	0.893419
	N273	N	0.161611	0.539754	0.068533
	N274	N	0.800587	0.469799	0.066916
	N275	N	0.799034	0.539847	0.893191
	O276	O	0.985174	1.080310	0.003071
	H277	H	0.990396	1.084166	-0.016118
	H278	H	0.986513	1.091563	0.002946
	O279	O	0.193077	0.033876	1.201286
	H280	H	0.206240	0.022018	1.220890
	H281	H	0.195259	0.048740	1.204117
	O282	O	-0.050562	-0.200385	0.948868
	H283	H	-0.052277	-0.197466	0.948231
	H284	H	-0.045929	-0.186911	0.941692
	O285	O	0.514810	0.569680	0.641389
	H286	H	0.543967	0.561988	0.640338
	H287	H	0.484787	0.566494	0.637106
	O288	O	1.321419	-0.687473	1.317635
	H289	H	1.330259	-0.671031	1.329504
	H290	H	1.336430	-0.675534	1.329269
	O291	O	0.758122	0.218991	0.193653
	H292	H	0.770078	0.210788	0.170131
	H293	H	0.773449	0.202677	0.177586
	O294	O	0.489423	0.453499	0.456846
	H295	H	0.501586	0.456073	0.451604
	H296	H	0.488056	0.458407	0.476234
	O297	O	0.670494	-0.480718	-0.307080
	H298	H	0.684333	-0.471663	-0.298129
	H299	H	0.674045	-0.473086	-0.310357
	O300	O	0.205344	0.222901	0.015315
	H301	H	0.216173	0.238168	0.043707
	H302	H	0.214820	0.237514	0.038384
	O303	O	-0.240727	-0.213220	0.010493
	H304	H	-0.219893	-0.211777	-0.001454
	H305	H	-0.265068	-0.244481	0.007290
	O306	O	1.249893	0.274667	-0.292831
	H307	H	1.248125	0.258568	-0.277245
	H308	H	1.264061	0.286078	-0.280980
	O309	O	-0.204934	1.029340	-0.159459
	H310	H	-0.204772	1.026013	-0.170950
	H311	H	-0.214252	1.010622	-0.157408
	O312	O	0.622988	0.399519	0.528951
	H313	H	0.625307	0.401007	0.517966
	H314	H	0.621127	0.401058	0.527121
	O315	O	0.397090	0.697350	0.656161
	H316	H	0.392734	0.693982	0.648178
	H317	H	0.386487	0.705486	0.640198
	O318	O	1.083653	0.796369	0.071805
	H319	H	1.091457	0.805367	0.057509
	H320	H	1.064738	0.802735	0.064222
	O321	O	-0.126689	1.081371	1.026029
	H322	H	-0.133148	1.089678	1.037166
	H323	H	-0.117646	1.074018	1.023765
	O324	O	0.929396	0.088970	0.908587
	H325	H	0.942763	0.098053	0.924716
	H326	H	0.912423	0.099810	0.899334
	O327	O	0.184317	1.207209	1.183376
	H328	H	0.164864	1.181701	1.193049
	H329	H	0.198184	1.230788	1.208889
	O330	O	0.431418	0.715376	0.464449
	H331	H	0.435524	0.722289	0.471765
	H332	H	0.427336	0.704430	0.451253
	O333	O	0.524897	1.686813	1.330206
	H334	H	0.534961	1.686306	1.340131
	H335	H	0.524432	1.685226	1.340831
	O336	O	0.506949	0.292059	0.274202
	H337	H	0.527341	0.287660	0.277468
	H338	H	0.529753	0.276271	0.264760
	O339	O	0.406405	0.566433	0.282902
	H340	H	0.421277	0.574286	0.287361
	H341	H	0.413098	0.564337	0.274812
	O342	O	0.003258	0.990620	-0.159987
	H343	H	0.007615	0.987355	-0.160693
	H344	H	0.024457	0.996862	-0.172808
	O345	O	0.302492	0.488381	0.433487
	H346	H	0.301963	0.512983	0.437039
	H347	H	0.298528	0.479025	0.429458
	O348	O	0.651508	0.318453	0.454896
	H349	H	0.668486	0.304516	0.446492
	H350	H	0.648266	0.328953	0.418180
	O351	O	0.295259	-0.340380	1.497807
	H352	H	0.270215	-0.327691	1.486842
	H353	H	0.296343	-0.344479	1.462742
	O354	O	0.757802	0.226257	0.944094
	H355	H	0.750553	0.234963	0.921164
	H356	H	0.747808	0.239450	0.940242
	O357	O	0.471197	0.630548	0.507179
	H358	H	0.472806	0.625329	0.511122
	H359	H	0.472096	0.623197	0.489785
	O360	O	1.457494	0.693474	1.275527
	H361	H	1.450084	0.702617	1.278281
	H362	H	1.445241	0.695733	1.279242
	O363	O	0.850724	0.937752	-0.123633
	H364	H	0.866200	0.959855	-0.111185
	H365	H	0.844624	0.917253	-0.116923
	O366	O	0.759945	0.976888	1.201599
	H367	H	0.767356	0.938357	1.196750
	H368	H	0.734604	0.978844	1.227566
	O369	O	-0.021469	0.014617	1.153509
	H370	H	-0.028254	0.002275	1.154078
	H371	H	-0.028096	0.020969	1.149533
	O372	O	0.287201	0.684622	1.302047
	H373	H	0.307976	0.678038	1.286889
	H374	H	0.273910	0.670637	1.280950
	O375	O	1.348879	-0.492249	0.417708
	H376	H	1.349170	-0.487817	0.420620
	H377	H	1.347862	-0.486883	0.431076
	O378	O	0.352211	0.360913	0.511603
	H379	H	0.360618	0.370515	0.506486
	H380	H	0.339647	0.373335	0.518511
	O381	O	0.469013	0.640770	0.685844
	H382	H	0.465179	0.638947	0.683078
	H383	H	0.464647	0.643705	0.685861
	O384	O	0.522422	0.377065	0.514337
	H385	H	0.536496	0.374149	0.501723
	H386	H	0.520034	0.376619	0.505503
	O387	O	0.016274	1.221492	1.193990
	H388	H	0.019575	1.234126	1.195245
	H389	H	0.007950	1.216029	1.211678
	O390	O	-0.099862	1.144974	1.114804
	H391	H	-0.098655	1.156057	1.101278
	H392	H	-0.086485	1.138462	1.096994
	O393	O	1.031089	0.088726	-0.172879
	H394	H	1.034315	0.100672	-0.166969
	H395	H	1.024224	0.089379	-0.171275
	O396	O	0.599243	0.522291	0.369928
	H397	H	0.596635	0.530796	0.371506
	H398	H	0.603707	0.522959	0.390879
	O399	O	0.454303	0.328086	0.689661
	H400	H	0.460132	0.316575	0.684977
	H401	H	0.455077	0.320222	0.687230
	O402	O	0.893281	-0.107845	0.884684
	H403	H	0.895041	-0.097145	0.881987
	H404	H	0.901186	-0.087379	0.881089
	O405	O	0.911175	0.223446	0.760544
	H406	H	0.899847	0.229335	0.749322
	H407	H	0.875644	0.236463	0.746967
	O408	O	0.958866	0.786517	1.195450
	H409	H	0.968827	0.768140	1.207438
	H410	H	0.964528	0.776376	1.185751
	O411	O	1.187763	0.974180	-0.229655
	H412	H	1.198685	0.988742	-0.232596
	H413	H	1.188761	0.985902	-0.219210
	O414	O	-0.226802	0.017228	0.001073
	H415	H	-0.226121	0.022227	0.018493
	H416	H	-0.226484	0.010386	0.001572
	O417	O	1.130420	0.179895	-0.193896
	H418	H	1.127123	0.157586	-0.181653
	H419	H	1.116586	0.182240	-0.190024
	O420	O	1.049269	-0.058006	1.196249
	H421	H	1.048958	-0.048892	1.191284
	H422	H	1.051130	-0.073567	1.194302
	O423	O	0.987922	0.890777	-0.213490
	H424	H	0.994463	0.893803	-0.225965
	H425	H	0.982414	0.878676	-0.209443
	O426	O	0.636224	0.522612	0.408177
	H427	H	0.647371	0.542836	0.418011
	H428	H	0.622005	0.518057	0.420453
	O429	O	0.662484	0.316679	0.665333
	H430	H	0.644715	0.328289	0.643367
	H431	H	0.645833	0.338396	0.646333
	O432	O	1.170321	-0.215718	0.947572
	H433	H	1.173576	-0.195458	0.926900
	H434	H	1.197310	-0.242513	0.942936
	O435	O	0.264685	0.290569	0.508506
	H436	H	0.260505	0.282995	0.520016
	H437	H	0.250066	0.280296	0.529345
	O438	O	0.788728	0.816969	0.176006
	H439	H	0.814294	0.818554	0.167499
	H440	H	0.788985	0.798461	0.161867
	O441	O	0.693388	0.436098	0.297375
	H442	H	0.703579	0.447671	0.291739
	H443	H	0.696112	0.457307	0.296259
	O444	O	0.701054	0.720313	0.509274
	H445	H	0.724411	0.749638	0.524066
	H446	H	0.698165	0.718466	0.547399
	O447	O	0.169332	0.815251	0.792953
	H448	H	0.169689	0.797341	0.799740
	H449	H	0.174686	0.866648	0.786705
	O450	O	1.207900	-0.063946	0.016673
	H451	H	1.199276	-0.075514	0.018354
	H452	H	1.208682	-0.054788	0.026643
	O453	O	0.340143	0.524095	0.622969
	H454	H	0.310363	0.524574	0.643069
	H455	H	0.352061	0.522637	0.615996
	O456	O	-0.227723	1.190060	0.772608
	H457	H	-0.255629	1.210170	0.744297
	H458	H	-0.233760	1.153244	0.786021
	O459	O	0.677374	0.699477	0.678862
	H460	H	0.677349	0.695113	0.695040
	H461	H	0.647437	0.714660	0.694815
	O462	O	0.916919	-0.059608	0.774340
	H463	H	0.920992	-0.040448	0.781231
	H464	H	0.936793	-0.052549	0.773747
	O465	O	0.328485	0.465461	0.633487
	H466	H	0.311695	0.449588	0.644820
	H467	H	0.320002	0.471383	0.647747
	O468	O	-0.035728	0.953573	0.005727
	H469	H	-0.032152	0.966906	-0.000218
	H470	H	-0.038579	0.955578	0.006368
	O471	O	0.680393	0.320222	0.324708
	H472	H	0.711745	0.288532	0.293885
	H473	H	0.679802	0.366482	0.313346
	O474	O	1.188676	1.076033	-0.075332
	H475	H	1.196200	1.088374	-0.055988
	H476	H	1.179295	1.078496	-0.054783
	O477	O	0.330393	0.520165	0.288732
	H478	H	0.347405	0.504867	0.295708
	H479	H	0.331137	0.506619	0.273479
