data_Molecule from HDF5

_cell_length_a		16.347543
_cell_length_b		16.460085
_cell_length_c		16.412119
_cell_angle_alpha	90.177398
_cell_angle_beta	90.036049
_cell_angle_gamma	89.989274
_symmetry_space_group_name_H-M	'P 1'
_symmetry_Int_Tables_number		1

loop_
	_symmetry_equiv_pos_as_xyz
	x,y,z

loop_
	_atom_site_label
	_atom_site_type_symbol
	_atom_site_fract_x
	_atom_site_fract_y
	_atom_site_fract_z
	H0	H	0.389965	0.833795	0.719595
	H1	H	0.602778	0.150317	0.726095
	H2	H	0.600852	0.833742	0.279912
	H3	H	0.391274	0.151823	0.279291
	H4	H	0.715576	0.387652	0.842124
	H5	H	0.713841	0.595906	0.160635
	H6	H	0.273286	0.599803	0.842740
	H7	H	0.275693	0.389228	0.159502
	H8	H	0.836779	0.714877	0.395392
	H9	H	0.155271	0.716342	0.606042
	H10	H	0.837567	0.272068	0.607261
	H11	H	0.153780	0.270135	0.393098
	H12	H	0.836054	0.391181	0.719635
	H13	H	0.154760	0.601914	0.723874
	H14	H	0.835546	0.596733	0.282388
	H15	H	0.154856	0.388032	0.279764
	H16	H	0.389400	0.714168	0.841901
	H17	H	0.601470	0.715506	0.158876
	H18	H	0.601890	0.270785	0.843132
	H19	H	0.387412	0.270264	0.158721
	H20	H	0.714684	0.834350	0.398178
	H21	H	0.716162	0.152684	0.606466
	H22	H	0.274339	0.834585	0.603725
	H23	H	0.276793	0.152617	0.397401
	H24	H	0.889342	0.335771	0.224248
	H25	H	0.103781	0.650440	0.226243
	H26	H	0.105074	0.336962	0.775679
	H27	H	0.891417	0.651911	0.783290
	H28	H	0.217134	0.887390	0.341366
	H29	H	0.219036	0.101046	0.658129
	H30	H	0.774572	0.099436	0.342211
	H31	H	0.774229	0.888439	0.658422
	H32	H	0.336773	0.215758	0.893291
	H33	H	0.655021	0.214253	0.106561
	H34	H	0.336429	0.771466	0.105941
	H35	H	0.654965	0.772565	0.895623
	H36	H	0.335483	0.888495	0.220082
	H37	H	0.656459	0.096850	0.220495
	H38	H	0.335769	0.099062	0.778673
	H39	H	0.653457	0.887599	0.779558
	H40	H	0.887749	0.216055	0.343477
	H41	H	0.105171	0.218118	0.657925
	H42	H	0.102190	0.770815	0.342359
	H43	H	0.889414	0.773150	0.658355
	H44	H	0.218289	0.335661	0.894392
	H45	H	0.218678	0.651216	0.108376
	H46	H	0.772698	0.335278	0.109502
	H47	H	0.777522	0.651584	0.901130
	H48	H	0.416899	0.103474	0.593891
	H49	H	0.584307	0.880432	0.590945
	H50	H	0.583664	0.105674	0.413403
	H51	H	0.411181	0.883692	0.417548
	H52	H	0.584123	0.399852	0.115996
	H53	H	0.588864	0.579763	0.886655
	H54	H	0.409186	0.584408	0.113073
	H55	H	0.396776	0.407142	0.884844
	H56	H	0.106898	0.577463	0.416072
	H57	H	0.883461	0.586960	0.585623
	H58	H	0.108793	0.410751	0.590450
	H59	H	0.878330	0.404798	0.401101
	H60	H	0.111013	0.402887	0.590693
	H61	H	0.883585	0.578756	0.591225
	H62	H	0.111687	0.582183	0.407953
	H63	H	0.880427	0.394512	0.419084
	H64	H	0.406499	0.582171	0.114253
	H65	H	0.581691	0.581197	0.888064
	H66	H	0.587910	0.404819	0.115853
	H67	H	0.416504	0.410533	0.892734
	H68	H	0.588547	0.108330	0.409966
	H69	H	0.581623	0.882077	0.587929
	H70	H	0.407185	0.102972	0.580109
	H71	H	0.397491	0.877130	0.410488
	H72	H	0.904603	0.607517	0.094219
	H73	H	0.085108	0.379453	0.092586
	H74	H	0.080438	0.606772	0.907905
	H75	H	0.904903	0.378137	0.911281
	H76	H	0.088170	0.910568	0.612506
	H77	H	0.081627	0.075340	0.391658
	H78	H	0.911833	0.081742	0.611904
	H79	H	0.908305	0.903208	0.386869
	H80	H	0.608515	0.083712	0.911944
	H81	H	0.383449	0.079944	0.088337
	H82	H	0.610223	0.895813	0.085512
	H83	H	0.379329	0.901227	0.908606
	H84	H	0.606399	0.910956	0.086288
	H85	H	0.381436	0.080602	0.091986
	H86	H	0.606401	0.079743	0.916863
	H87	H	0.381583	0.901426	0.915013
	H88	H	0.906652	0.087697	0.615298
	H89	H	0.077824	0.090380	0.386678
	H90	H	0.078779	0.906852	0.611088
	H91	H	0.904581	0.903832	0.385775
	H92	H	0.082091	0.602872	0.918854
	H93	H	0.080466	0.383041	0.089245
	H94	H	0.909430	0.604109	0.091324
	H95	H	0.905045	0.378003	0.907834
	H96	H	0.401119	0.109477	0.593902
	H97	H	0.585829	0.881221	0.587096
	H98	H	0.582813	0.107337	0.406859
	H99	H	0.411715	0.878935	0.402146
	H100	H	0.581715	0.404679	0.113871
	H101	H	0.586574	0.586192	0.885507
	H102	H	0.409405	0.581460	0.111993
	H103	H	0.411217	0.391879	0.884785
	H104	H	0.110042	0.587274	0.417003
	H105	H	0.880285	0.587675	0.595319
	H106	H	0.108210	0.405736	0.582810
	H107	H	0.887153	0.414228	0.417862
	H108	H	0.904105	0.605494	0.087941
	H109	H	0.086357	0.381995	0.086051
	H110	H	0.091048	0.608264	0.912688
	H111	H	0.907860	0.379408	0.909730
	H112	H	0.086362	0.900756	0.615411
	H113	H	0.092661	0.083751	0.384057
	H114	H	0.903866	0.079870	0.614521
	H115	H	0.907244	0.906959	0.387548
	H116	H	0.607494	0.077209	0.910692
	H117	H	0.381864	0.083728	0.089364
	H118	H	0.612819	0.903772	0.099048
	H119	H	0.381706	0.906933	0.911066
	C120	C	0.374289	0.001452	0.621618
	C121	C	0.617108	0.985329	0.622435
	C122	C	0.617186	0.002049	0.378776
	C123	C	0.374548	0.984831	0.378508
	C124	C	0.617331	0.370829	0.010521
	C125	C	0.617038	0.614168	0.992241
	C126	C	0.374721	0.614907	0.009001
	C127	C	0.374623	0.371255	0.992134
	C128	C	0.004102	0.614081	0.381034
	C129	C	0.987601	0.616909	0.623239
	C130	C	0.004266	0.373535	0.621229
	C131	C	0.986923	0.371714	0.379755
	C132	C	0.873888	0.501447	0.123405
	C133	C	0.117184	0.485676	0.122800
	C134	C	0.117877	0.501870	0.879311
	C135	C	0.874672	0.483922	0.879839
	C136	C	0.117281	0.872934	0.508605
	C137	C	0.117908	0.116135	0.491516
	C138	C	0.874569	0.115442	0.509358
	C139	C	0.874355	0.872846	0.491570
	C140	C	0.502928	0.113507	0.879773
	C141	C	0.487565	0.113968	0.121913
	C142	C	0.504286	0.871706	0.121706
	C143	C	0.486341	0.871413	0.879570
	C144	C	0.371333	0.881858	0.680553
	C145	C	0.620380	0.103347	0.684831
	C146	C	0.618948	0.881833	0.319774
	C147	C	0.372972	0.104406	0.319403
	C148	C	0.676739	0.368806	0.890582
	C149	C	0.675620	0.615635	0.112408
	C150	C	0.313835	0.617074	0.889945
	C151	C	0.314702	0.370140	0.111659
	C152	C	0.884358	0.674536	0.378007
	C153	C	0.107375	0.676504	0.624814
	C154	C	0.884998	0.312661	0.624724
	C155	C	0.106463	0.311024	0.375962
	C156	C	0.884512	0.371499	0.681180
	C157	C	0.107175	0.619662	0.683549
	C158	C	0.883993	0.615979	0.321335
	C159	C	0.106706	0.369380	0.319325
	C160	C	0.371527	0.674439	0.889542
	C161	C	0.619430	0.674864	0.111490
	C162	C	0.619650	0.311104	0.890630
	C163	C	0.370333	0.310613	0.111054
	C164	C	0.675752	0.881989	0.378544
	C165	C	0.676815	0.104538	0.625256
	C166	C	0.313745	0.882335	0.622835
	C167	C	0.315750	0.104885	0.378088
	C168	C	0.871664	0.382774	0.183663
	C169	C	0.121124	0.603557	0.184955
	C170	C	0.121844	0.384047	0.816952
	C171	C	0.873128	0.603828	0.822261
	C172	C	0.177066	0.869709	0.388995
	C173	C	0.179230	0.119132	0.610422
	C174	C	0.813737	0.118027	0.390412
	C175	C	0.813869	0.870455	0.610592
	C176	C	0.383868	0.174504	0.876535
	C177	C	0.607417	0.174331	0.124411
	C178	C	0.384398	0.811552	0.124005
	C179	C	0.606754	0.812473	0.877506
	C180	C	0.383838	0.869859	0.181106
	C181	C	0.608074	0.115784	0.181220
	C182	C	0.383542	0.116628	0.818837
	C183	C	0.605999	0.869331	0.819383
	C184	C	0.870474	0.176376	0.390931
	C185	C	0.122484	0.177493	0.610408
	C186	C	0.119908	0.811660	0.389570
	C187	C	0.871301	0.812801	0.610542
	C188	C	0.178389	0.383347	0.876195
	C189	C	0.178383	0.603957	0.126110
	C190	C	0.813204	0.382807	0.126684
	C191	C	0.816300	0.603791	0.881128
	C192	C	0.400593	0.083871	0.596591
	C193	C	0.591422	0.902840	0.596240
	C194	C	0.592366	0.085304	0.402952
	C195	C	0.399349	0.901655	0.402991
	C196	C	0.592039	0.395908	0.093644
	C197	C	0.592712	0.589403	0.908634
	C198	C	0.400852	0.589950	0.091755
	C199	C	0.400733	0.395953	0.909145
	C200	C	0.087718	0.589339	0.406239
	C201	C	0.903947	0.591793	0.597998
	C202	C	0.087644	0.399110	0.595388
	C203	C	0.903884	0.397242	0.405402
	C204	C	0.898996	0.584283	0.098270
	C205	C	0.091296	0.403048	0.096681
	C206	C	0.091950	0.584681	0.905631
	C207	C	0.898939	0.400140	0.903060
	C208	C	0.091759	0.898699	0.591545
	C209	C	0.091639	0.090625	0.409034
	C210	C	0.900140	0.090253	0.592192
	C211	C	0.899476	0.897716	0.408361
	C212	C	0.586000	0.087731	0.905764
	C213	C	0.404027	0.088777	0.096899
	C214	C	0.588003	0.896366	0.097159
	C215	C	0.402619	0.896156	0.904485
	Zn216	Zn	0.494685	-0.007438	0.750789
	Zn217	Zn	0.495984	-0.007305	0.250163
	Zn218	Zn	0.745265	0.492230	0.001709
	Zn219	Zn	0.247004	0.493705	0.000896
	Zn220	Zn	-0.003959	0.744350	0.500159
	Zn221	Zn	-0.003913	0.243726	0.501146
	Zn222	Zn	-0.003926	0.494341	0.750374
	Zn223	Zn	-0.004600	0.493657	0.252252
	Zn224	Zn	0.495683	0.743101	0.000170
	Zn225	Zn	0.495547	0.242621	0.000889
	Zn226	Zn	0.745736	-0.005729	0.500421
	Zn227	Zn	0.245553	-0.006559	0.499880
	N228	N	0.408156	0.956953	0.680155
	N229	N	0.584046	0.028037	0.683168
	N230	N	0.583390	0.957462	0.319645
	N231	N	0.408635	0.028928	0.319496
	N232	N	0.675584	0.405224	0.966209
	N233	N	0.674068	0.578537	0.037354
	N234	N	0.315811	0.580622	0.965171
	N235	N	0.317021	0.406952	0.036651
	N236	N	0.960155	0.673448	0.414342
	N237	N	0.031715	0.675391	0.588366
	N238	N	0.960682	0.313884	0.588181
	N239	N	0.030991	0.312210	0.412655
	N240	N	0.959748	0.408717	0.678979
	N241	N	0.031577	0.583334	0.682573
	N242	N	0.959376	0.579077	0.323234
	N243	N	0.031337	0.406480	0.321414
	N244	N	0.408515	0.673351	0.964598
	N245	N	0.583747	0.674204	0.035670
	N246	N	0.583647	0.311898	0.966196
	N247	N	0.406790	0.311107	0.035533
	N248	N	0.674801	0.957650	0.414373
	N249	N	0.674825	0.030114	0.587234
	N250	N	0.315283	0.957784	0.586996
	N251	N	0.316373	0.029420	0.413788
	N252	N	0.908725	0.457551	0.181899
	N253	N	0.083631	0.528883	0.182944
	N254	N	0.085077	0.459165	0.818648
	N255	N	0.908380	0.528111	0.821165
	N256	N	0.175441	0.907153	0.463989
	N257	N	0.176543	0.081597	0.535639
	N258	N	0.815898	0.080891	0.465171
	N259	N	0.815798	0.907333	0.535667
	N260	N	0.459196	0.172658	0.913603
	N261	N	0.531346	0.173583	0.088567
	N262	N	0.460334	0.812553	0.087934
	N263	N	0.531154	0.813344	0.913844
	N264	N	0.459438	0.906663	0.179759
	N265	N	0.532554	0.079033	0.179852
	N266	N	0.458727	0.079237	0.820844
	N267	N	0.530067	0.905351	0.820637
	N268	N	0.907816	0.174731	0.465873
	N269	N	0.084968	0.175859	0.535523
	N270	N	0.083407	0.813527	0.465004
	N271	N	0.908167	0.813950	0.535403
	N272	N	0.176050	0.457818	0.914098
	N273	N	0.176139	0.529583	0.088289
	N274	N	0.814604	0.457589	0.089648
	N275	N	0.816942	0.528024	0.916110
	O276	O	0.372406	0.440486	0.695325
	H277	H	0.388623	0.441595	0.685807
	H278	H	0.372937	0.444749	0.716724
	O279	O	0.427987	0.408275	0.343322
	H280	H	0.433191	0.412315	0.338246
	H281	H	0.439361	0.388205	0.332176
	O282	O	0.399612	0.679479	0.541590
	H283	H	0.415314	0.669190	0.560432
	H284	H	0.405202	0.683566	0.547204
	O285	O	1.003931	1.050531	-0.153075
	H286	H	0.986923	1.035918	-0.164968
	H287	H	1.003086	1.041159	-0.159658
	O288	O	0.313112	0.679378	0.414663
	H289	H	0.291748	0.683836	0.416481
	H290	H	0.315618	0.667152	0.442700
	O291	O	0.660770	0.303311	0.448852
	H292	H	0.659511	0.310051	0.462967
	H293	H	0.669490	0.293910	0.460644
	O294	O	0.883077	1.174434	0.997144
	H295	H	0.913947	1.177563	1.008113
	H296	H	0.858371	1.210475	1.004083
	O297	O	0.414427	0.682684	0.305932
	H298	H	0.391623	0.684423	0.327270
	H299	H	0.406771	0.695142	0.291197
	O300	O	0.473489	0.313335	0.346937
	H301	H	0.491407	0.317204	0.339440
	H302	H	0.479162	0.308679	0.330490
	O303	O	0.677447	0.527011	0.514239
	H304	H	0.659066	0.535713	0.503523
	H305	H	0.671785	0.527802	0.499305
	O306	O	-0.074505	-0.059273	0.830847
	H307	H	-0.079694	-0.068197	0.825327
	H308	H	-0.076040	-0.055176	0.831002
	O309	O	0.810130	-0.192108	0.149132
	H310	H	0.835660	-0.180698	0.146567
	H311	H	0.796659	-0.204412	0.112566
	O312	O	0.542799	0.311635	0.654990
	H313	H	0.523014	0.302475	0.662518
	H314	H	0.530876	0.315037	0.651691
	O315	O	0.531384	0.567582	0.345619
	H316	H	0.517951	0.578324	0.342214
	H317	H	0.548376	0.562934	0.341593
	O318	O	0.145123	-0.066714	-0.105849
	H319	H	0.129447	-0.090119	-0.102334
	H320	H	0.131398	-0.040639	-0.105815
	O321	O	0.666075	0.491802	0.683330
	H322	H	0.668255	0.482354	0.685978
	H323	H	0.657718	0.490482	0.675589
	O324	O	0.973194	-0.072872	0.982221
	H325	H	0.961891	-0.069979	0.983517
	H326	H	0.964561	-0.073376	0.966708
	O327	O	0.550671	0.412178	0.417395
	H328	H	0.536886	0.416600	0.412345
	H329	H	0.565551	0.423722	0.415707
	O330	O	0.176198	1.195661	1.076016
	H331	H	0.187349	1.195164	1.072755
	H332	H	0.186905	1.176198	1.066765
	O333	O	0.050694	0.935144	0.071084
	H334	H	0.046691	0.930706	0.060832
	H335	H	0.050689	0.931346	0.069732
	O336	O	1.192162	0.950600	0.067510
	H337	H	1.200358	0.948877	0.086925
	H338	H	1.183925	0.980607	0.072341
	O339	O	0.022758	0.852277	1.043007
	H340	H	0.039888	0.856925	1.033280
	H341	H	0.042618	0.842573	1.062218
	O342	O	0.608746	0.466672	0.523090
	H343	H	0.609760	0.468667	0.514059
	H344	H	0.595933	0.464973	0.527883
	O345	O	0.066212	0.138870	1.216660
	H346	H	0.067798	0.151375	1.241827
	H347	H	0.059299	0.115695	1.219159
	O348	O	0.295353	0.397990	0.476566
	H349	H	0.294619	0.417227	0.461041
	H350	H	0.285416	0.392378	0.478429
	O351	O	1.047486	0.938071	0.084599
	H352	H	1.052389	0.947667	0.081898
	H353	H	1.056803	0.956876	0.096325
	O354	O	0.852354	1.179009	0.864535
	H355	H	0.850175	1.183226	0.906189
	H356	H	0.894880	1.190168	0.851035
	O357	O	-0.138732	0.140962	0.221583
	H358	H	-0.119236	0.121183	0.220588
	H359	H	-0.157005	0.118756	0.232064
	O360	O	0.661247	0.665133	0.475345
	H361	H	0.662469	0.675630	0.486076
	H362	H	0.677768	0.668410	0.478285
	O363	O	0.943366	0.176856	0.089674
	H364	H	0.949998	0.167240	0.087274
	H365	H	0.959551	0.168024	0.107454
	O366	O	-0.071091	0.040246	1.023234
	H367	H	-0.075015	0.056054	1.026830
	H368	H	-0.070183	0.062136	1.034578
	O369	O	0.515450	-0.649671	0.497266
	H370	H	0.506320	-0.641419	0.490902
	H371	H	0.528709	-0.651295	0.504495
	O372	O	0.309253	0.400039	0.652189
	H373	H	0.310003	0.411283	0.647762
	H374	H	0.302251	0.392028	0.639248
	O375	O	-0.056250	0.163014	0.792612
	H376	H	-0.063935	0.186305	0.768884
	H377	H	-0.033658	0.168350	0.816565
	O378	O	0.378941	0.523069	0.642075
	H379	H	0.399332	0.530490	0.637193
	H380	H	0.384356	0.513672	0.638420
	O381	O	0.114172	0.899315	0.020699
	H382	H	0.110628	0.894112	0.016871
	H383	H	0.101858	0.884923	0.033837
	O384	O	0.632482	0.358288	0.322574
	H385	H	0.650362	0.375476	0.325979
	H386	H	0.638386	0.347723	0.332305
	O387	O	0.948886	-0.201380	1.206362
	H388	H	0.933957	-0.211297	1.214279
	H389	H	0.948138	-0.213116	1.203103
	O390	O	0.864099	0.911195	-0.077571
	H391	H	0.867366	0.918256	-0.056507
	H392	H	0.858475	0.920546	-0.087621
	O393	O	0.940300	-0.133077	1.102585
	H394	H	0.942943	-0.122633	1.091508
	H395	H	0.931497	-0.144308	1.094493
	O396	O	0.797330	0.885009	-0.003190
	H397	H	0.790048	0.886928	-0.003332
	H398	H	0.806725	0.891752	-0.020391
	O399	O	0.187915	1.084489	1.129942
	H400	H	0.197873	1.096094	1.090247
	H401	H	0.157312	1.100764	1.127160
	O402	O	1.017255	0.781603	-0.213604
	H403	H	1.026617	0.770586	-0.226847
	H404	H	1.035168	0.774184	-0.217273
	O405	O	0.565183	0.621219	0.708493
	H406	H	0.578706	0.631548	0.724933
	H407	H	0.579810	0.623547	0.702593
	O408	O	0.619745	0.630544	0.387512
	H409	H	0.624917	0.645378	0.400946
	H410	H	0.580398	0.637525	0.382370
	O411	O	1.187253	0.886950	0.831815
	H412	H	1.202655	0.883333	0.845113
	H413	H	1.185867	0.889867	0.837601
	O414	O	0.314227	0.549759	0.401296
	H415	H	0.303740	0.554440	0.388424
	H416	H	0.318451	0.551693	0.412710
	O417	O	0.034102	1.149250	0.896347
	H418	H	0.047793	1.137092	0.911499
	H419	H	0.042302	1.144626	0.915963
	O420	O	0.512064	1.581609	0.533474
	H421	H	0.499687	1.573997	0.537680
	H422	H	0.507506	1.593349	0.538073
	O423	O	-0.206391	0.973315	0.206052
	H424	H	-0.224724	0.967273	0.223085
	H425	H	-0.205087	0.950331	0.200861
	O426	O	0.295479	0.420620	0.561732
	H427	H	0.300781	0.428364	0.563803
	H428	H	0.293477	0.408344	0.555209
	O429	O	0.424734	0.385530	0.542666
	H430	H	0.413000	0.364960	0.530535
	H431	H	0.434194	0.374117	0.538584
	O432	O	0.653526	0.647458	0.680969
	H433	H	0.645758	0.609338	0.687306
	H434	H	0.674471	0.660818	0.705160
	O435	O	0.198647	0.063248	-0.085751
	H436	H	0.217849	0.074229	-0.107801
	H437	H	0.171119	0.072382	-0.075963
	O438	O	-0.207813	1.056213	0.799660
	H439	H	-0.214516	1.077862	0.801394
	H440	H	-0.214048	1.079388	0.792974
	O441	O	0.496671	0.539151	0.565302
	H442	H	0.496170	0.534428	0.572715
	H443	H	0.496576	0.543187	0.573005
