data_Molecule from HDF5

_cell_length_a		16.417607
_cell_length_b		16.434942
_cell_length_c		16.522534
_cell_angle_alpha	89.969844
_cell_angle_beta	90.039877
_cell_angle_gamma	89.926035
_symmetry_space_group_name_H-M	'P 1'
_symmetry_Int_Tables_number		1

loop_
	_symmetry_equiv_pos_as_xyz
	x,y,z

loop_
	_atom_site_label
	_atom_site_type_symbol
	_atom_site_fract_x
	_atom_site_fract_y
	_atom_site_fract_z
	H0	H	0.383442	0.847188	0.733761
	H1	H	0.594902	0.162567	0.733536
	H2	H	0.598052	0.848525	0.287505
	H3	H	0.376353	0.160067	0.286094
	H4	H	0.713209	0.394420	0.855290
	H5	H	0.716482	0.614829	0.166292
	H6	H	0.266539	0.610773	0.855084
	H7	H	0.264308	0.396119	0.168384
	H8	H	0.830405	0.726567	0.404013
	H9	H	0.146307	0.723976	0.614967
	H10	H	0.830592	0.281484	0.617220
	H11	H	0.145373	0.280055	0.403299
	H12	H	0.831616	0.394615	0.735570
	H13	H	0.145736	0.610749	0.733393
	H14	H	0.830742	0.611616	0.287669
	H15	H	0.145697	0.396549	0.288391
	H16	H	0.381945	0.728364	0.855823
	H17	H	0.599219	0.730257	0.168296
	H18	H	0.596518	0.279455	0.854975
	H19	H	0.380171	0.280061	0.168247
	H20	H	0.708444	0.845391	0.407974
	H21	H	0.712000	0.160911	0.619172
	H22	H	0.268698	0.845359	0.616176
	H23	H	0.264181	0.160935	0.404035
	H24	H	0.877450	0.348039	0.236887
	H25	H	0.097749	0.660276	0.235860
	H26	H	0.099999	0.348155	0.785480
	H27	H	0.881526	0.660999	0.787621
	H28	H	0.214360	0.894742	0.354805
	H29	H	0.212459	0.112121	0.667601
	H30	H	0.760444	0.114455	0.356720
	H31	H	0.766180	0.895726	0.668303
	H32	H	0.331397	0.228927	0.903324
	H33	H	0.645755	0.228555	0.119734
	H34	H	0.331714	0.780327	0.120832
	H35	H	0.644375	0.778947	0.903559
	H36	H	0.332299	0.894855	0.237678
	H37	H	0.642881	0.116996	0.239671
	H38	H	0.332340	0.115199	0.786234
	H39	H	0.644842	0.893561	0.786731
	H40	H	0.876859	0.230384	0.355228
	H41	H	0.097560	0.229403	0.666557
	H42	H	0.096853	0.779732	0.353903
	H43	H	0.882251	0.779706	0.667415
	H44	H	0.211745	0.346611	0.905217
	H45	H	0.210057	0.661824	0.117954
	H46	H	0.762512	0.348184	0.120507
	H47	H	0.766685	0.662070	0.904390
	H48	H	0.392556	0.119610	0.597420
	H49	H	0.571040	0.894668	0.594644
	H50	H	0.573480	0.117148	0.422165
	H51	H	0.401747	0.891203	0.423080
	H52	H	0.572280	0.420974	0.118961
	H53	H	0.576023	0.592429	0.900373
	H54	H	0.389001	0.592924	0.128140
	H55	H	0.397818	0.420132	0.901125
	H56	H	0.100072	0.589585	0.421742
	H57	H	0.877087	0.588573	0.595928
	H58	H	0.105409	0.411499	0.605854
	H59	H	0.878481	0.422144	0.424918
	H60	H	0.099451	0.412245	0.588809
	H61	H	0.874593	0.589900	0.604506
	H62	H	0.101931	0.592908	0.421080
	H63	H	0.873486	0.416771	0.417396
	H64	H	0.404356	0.583468	0.119854
	H65	H	0.575166	0.591255	0.901291
	H66	H	0.571725	0.414458	0.122911
	H67	H	0.403118	0.416261	0.900543
	H68	H	0.570413	0.114352	0.427186
	H69	H	0.584958	0.888989	0.599718
	H70	H	0.402487	0.118787	0.607589
	H71	H	0.403181	0.892346	0.424784
	H72	H	0.907133	0.616690	0.105088
	H73	H	0.072031	0.392481	0.099766
	H74	H	0.075618	0.614796	0.926057
	H75	H	0.903897	0.394599	0.928574
	H76	H	0.077802	0.912029	0.623891
	H77	H	0.072485	0.089603	0.401620
	H78	H	0.900240	0.092276	0.622908
	H79	H	0.898672	0.914303	0.398538
	H80	H	0.600956	0.091239	0.924027
	H81	H	0.373945	0.090139	0.107444
	H82	H	0.600728	0.918445	0.101599
	H83	H	0.375092	0.915832	0.923176
	H84	H	0.600219	0.916354	0.098917
	H85	H	0.375617	0.099551	0.094705
	H86	H	0.600993	0.092124	0.923022
	H87	H	0.377139	0.917980	0.926452
	H88	H	0.902020	0.090451	0.621337
	H89	H	0.075561	0.091881	0.399155
	H90	H	0.079938	0.916575	0.622073
	H91	H	0.898570	0.916274	0.399038
	H92	H	0.080248	0.618508	0.920181
	H93	H	0.077152	0.392378	0.096297
	H94	H	0.905173	0.611667	0.091481
	H95	H	0.896113	0.389660	0.923417
	H96	H	0.405284	0.113816	0.594900
	H97	H	0.572405	0.890386	0.609748
	H98	H	0.576966	0.116537	0.427908
	H99	H	0.401020	0.892125	0.425224
	H100	H	0.578276	0.419281	0.122975
	H101	H	0.574077	0.593228	0.901534
	H102	H	0.406449	0.602418	0.126006
	H103	H	0.397585	0.413861	0.898077
	H104	H	0.101034	0.591905	0.424868
	H105	H	0.873391	0.596336	0.598317
	H106	H	0.097619	0.426730	0.599257
	H107	H	0.875013	0.412227	0.427083
	H108	H	0.894600	0.619129	0.098965
	H109	H	0.077097	0.390085	0.102340
	H110	H	0.072189	0.616810	0.919060
	H111	H	0.905540	0.391361	0.919014
	H112	H	0.074370	0.915586	0.621098
	H113	H	0.076441	0.087931	0.400798
	H114	H	0.902640	0.092804	0.621950
	H115	H	0.900283	0.915681	0.398980
	H116	H	0.600210	0.092179	0.924114
	H117	H	0.380609	0.084310	0.093669
	H118	H	0.599723	0.920055	0.098922
	H119	H	0.376108	0.920173	0.922499
	C120	C	0.367351	0.012931	0.632870
	C121	C	0.609836	0.995279	0.634276
	C122	C	0.608209	0.012538	0.391831
	C123	C	0.366975	0.995469	0.390104
	C124	C	0.608742	0.383690	0.018884
	C125	C	0.610041	0.626413	1.003743
	C126	C	0.366818	0.626405	0.021066
	C127	C	0.366297	0.382684	1.003419
	C128	C	-0.002916	0.625263	0.388878
	C129	C	0.979428	0.624252	0.631719
	C130	C	-0.003039	0.382600	0.632203
	C131	C	0.979658	0.382721	0.389168
	C132	C	0.867013	0.512534	0.132726
	C133	C	0.109280	0.495651	0.132968
	C134	C	0.110264	0.512961	0.889196
	C135	C	0.867751	0.495662	0.889956
	C136	C	0.110840	0.881149	0.519099
	C137	C	0.109465	0.124576	0.503071
	C138	C	0.866159	0.126156	0.519405
	C139	C	0.866756	0.881922	0.502573
	C140	C	0.497019	0.126176	0.889972
	C141	C	0.479553	0.126362	0.133611
	C142	C	0.496867	0.883947	0.133771
	C143	C	0.479859	0.883579	0.890873
	C144	C	0.364990	0.894231	0.693369
	C145	C	0.613037	0.114540	0.694126
	C146	C	0.613939	0.895096	0.329131
	C147	C	0.360726	0.113149	0.327324
	C148	C	0.672151	0.377924	0.901905
	C149	C	0.674219	0.631487	0.120196
	C150	C	0.306336	0.629127	0.902577
	C151	C	0.305147	0.378810	0.121312
	C152	C	0.878041	0.686507	0.385608
	C153	C	0.098816	0.684384	0.633785
	C154	C	0.878331	0.321335	0.635629
	C155	C	0.098053	0.320658	0.385516
	C156	C	0.878958	0.377984	0.694513
	C157	C	0.098431	0.627942	0.692536
	C158	C	0.878205	0.629051	0.327770
	C159	C	0.098265	0.378851	0.328456
	C160	C	0.363899	0.687756	0.903115
	C161	C	0.615901	0.689185	0.121017
	C162	C	0.613893	0.320559	0.901847
	C163	C	0.362870	0.320693	0.121064
	C164	C	0.669496	0.893734	0.388823
	C165	C	0.671222	0.113960	0.636965
	C166	C	0.307866	0.893433	0.634905
	C167	C	0.304464	0.113462	0.385964
	C168	C	0.861026	0.395163	0.195729
	C169	C	0.114003	0.613482	0.194839
	C170	C	0.116115	0.395116	0.826913
	C171	C	0.863855	0.613827	0.828352
	C172	C	0.173218	0.877333	0.401742
	C173	C	0.171901	0.129396	0.620335
	C174	C	0.802310	0.130920	0.402830
	C175	C	0.806613	0.878546	0.621041
	C176	C	0.378703	0.188096	0.886119
	C177	C	0.597765	0.188517	0.138031
	C178	C	0.378935	0.821186	0.138501
	C179	C	0.597712	0.820366	0.886478
	C180	C	0.379192	0.878353	0.196602
	C181	C	0.596439	0.132906	0.197812
	C182	C	0.379252	0.131539	0.827381
	C183	C	0.597530	0.877378	0.828033
	C184	C	0.860271	0.188889	0.402330
	C185	C	0.114654	0.188081	0.619611
	C186	C	0.114685	0.819769	0.401367
	C187	C	0.864194	0.820285	0.620519
	C188	C	0.171946	0.394333	0.886685
	C189	C	0.170345	0.614030	0.136287
	C190	C	0.803527	0.395211	0.137740
	C191	C	0.806211	0.614156	0.886297
	C192	C	0.392695	0.095726	0.607377
	C193	C	0.583762	0.912990	0.608813
	C194	C	0.581350	0.094580	0.418079
	C195	C	0.394282	0.913345	0.416647
	C196	C	0.581885	0.410568	0.100255
	C197	C	0.582987	0.599940	0.922276
	C198	C	0.392530	0.600385	0.103419
	C199	C	0.392138	0.409110	0.921219
	C200	C	0.079540	0.599081	0.414955
	C201	C	0.896791	0.598839	0.606732
	C202	C	0.079344	0.409237	0.605729
	C203	C	0.897212	0.409281	0.415614
	C204	C	0.894370	0.594373	0.106144
	C205	C	0.082867	0.413097	0.106786
	C206	C	0.083599	0.595135	0.914634
	C207	C	0.894119	0.413477	0.916065
	C208	C	0.084725	0.907243	0.601075
	C209	C	0.082567	0.097618	0.421783
	C210	C	0.893691	0.099476	0.600724
	C211	C	0.892060	0.907809	0.420275
	C212	C	0.579207	0.099323	0.916229
	C213	C	0.398059	0.099207	0.106459
	C214	C	0.578739	0.910753	0.107440
	C215	C	0.397588	0.910344	0.916826
	Zn216	Zn	0.488580	0.004659	0.762233
	Zn217	Zn	0.488183	0.004964	0.262266
	Zn218	Zn	0.738644	0.503991	0.011005
	Zn219	Zn	0.237620	0.504653	0.012083
	Zn220	Zn	-0.011945	0.752789	0.510330
	Zn221	Zn	-0.011987	0.254445	0.510516
	Zn222	Zn	-0.011113	0.503630	0.760665
	Zn223	Zn	-0.011554	0.504203	0.260919
	Zn224	Zn	0.488368	0.755398	0.012878
	Zn225	Zn	0.488465	0.254120	0.011774
	Zn226	Zn	0.738063	0.003706	0.512049
	Zn227	Zn	0.239374	0.003416	0.511229
	N228	N	0.400727	0.969689	0.692700
	N229	N	0.575766	0.039746	0.692680
	N230	N	0.576744	0.970026	0.330761
	N231	N	0.398753	0.038546	0.329662
	N232	N	0.669148	0.416553	0.975697
	N233	N	0.670573	0.593221	0.046462
	N234	N	0.308069	0.591799	0.977046
	N235	N	0.307027	0.416525	0.047096
	N236	N	0.952965	0.684539	0.422569
	N237	N	0.023920	0.682337	0.596719
	N238	N	0.952825	0.324125	0.597637
	N239	N	0.022998	0.322776	0.422358
	N240	N	0.954029	0.415130	0.692656
	N241	N	0.023334	0.591121	0.691425
	N242	N	0.953322	0.591902	0.329610
	N243	N	0.023520	0.416437	0.330485
	N244	N	0.400445	0.686421	0.977976
	N245	N	0.576666	0.686392	0.047464
	N246	N	0.575210	0.323858	0.975456
	N247	N	0.400243	0.322978	0.046574
	N248	N	0.666188	0.968008	0.427051
	N249	N	0.669818	0.038755	0.600777
	N250	N	0.309247	0.968491	0.598111
	N251	N	0.308175	0.039277	0.424163
	N252	N	0.899839	0.469170	0.192769
	N253	N	0.076705	0.538723	0.192812
	N254	N	0.078331	0.469726	0.828233
	N255	N	0.901064	0.539027	0.830052
	N256	N	0.171181	0.914696	0.476139
	N257	N	0.168957	0.090537	0.546726
	N258	N	0.805842	0.092488	0.476756
	N259	N	0.808017	0.916185	0.546792
	N260	N	0.453112	0.185134	0.924231
	N261	N	0.523957	0.184684	0.098894
	N262	N	0.453065	0.824294	0.100361
	N263	N	0.523643	0.824171	0.925062
	N264	N	0.453627	0.916520	0.194006
	N265	N	0.521870	0.095175	0.195494
	N266	N	0.453793	0.093602	0.829844
	N267	N	0.523480	0.916331	0.830855
	N268	N	0.899201	0.186130	0.475829
	N269	N	0.076434	0.185202	0.545722
	N270	N	0.076337	0.822186	0.475246
	N271	N	0.901055	0.822373	0.545820
	N272	N	0.168584	0.468759	0.924518
	N273	N	0.167489	0.539600	0.098567
	N274	N	0.806959	0.469384	0.099501
	N275	N	0.808478	0.539485	0.923840
	O276	O	0.638826	0.587128	0.715301
	H277	H	0.641042	0.597564	0.719950
	H278	H	0.646358	0.609463	0.711624
	O279	O	1.005193	-0.067221	0.797503
	H280	H	0.998189	-0.081006	0.797610
	H281	H	0.983136	-0.054947	0.799034
	O282	O	0.406128	0.420501	0.416227
	H283	H	0.399421	0.420187	0.421715
	H284	H	0.419680	0.407621	0.410574
	O285	O	0.488635	0.683669	0.291511
	H286	H	0.483032	0.685580	0.285394
	H287	H	0.477305	0.684654	0.284817
	O288	O	1.178244	1.123938	0.209331
	H289	H	1.194034	1.101605	0.221249
	H290	H	1.187830	1.140081	0.175245
	O291	O	0.453794	0.518119	0.729120
	H292	H	0.439620	0.520902	0.719893
	H293	H	0.471116	0.520790	0.730707
	O294	O	-0.206025	0.213329	1.001111
	H295	H	-0.179886	0.217635	1.024676
	H296	H	-0.220568	0.223886	1.005990
	O297	O	0.283119	0.366707	0.486217
	H298	H	0.272905	0.377213	0.503909
	H299	H	0.277444	0.353950	0.501302
	O300	O	0.349378	0.392689	0.712169
	H301	H	0.351991	0.401781	0.709227
	H302	H	0.350968	0.400749	0.721067
	O303	O	0.027482	1.037393	-0.128625
	H304	H	0.031685	1.015818	-0.136578
	H305	H	0.026836	1.027617	-0.110454
	O306	O	0.486826	0.416086	0.617977
	H307	H	0.501339	0.416537	0.615781
	H308	H	0.500224	0.421656	0.638868
	O309	O	1.324916	-0.622469	0.467006
	H310	H	1.328165	-0.609059	0.491239
	H311	H	1.318642	-0.644647	0.470753
	O312	O	-0.096850	1.059851	0.981395
	H313	H	-0.114450	1.044031	0.986500
	H314	H	-0.102527	1.053680	0.980683
	O315	O	0.548320	0.490478	0.553610
	H316	H	0.555197	0.506916	0.549569
	H317	H	0.565631	0.484084	0.546552
	O318	O	1.060786	-0.211732	0.034302
	H319	H	1.070552	-0.210934	0.040007
	H320	H	1.050060	-0.209446	0.033874
	O321	O	-0.199177	-0.177219	0.195686
	H322	H	-0.147869	-0.190045	0.206070
	H323	H	-0.206971	-0.164583	0.168526
	O324	O	0.458081	0.498753	0.656136
	H325	H	0.484589	0.505754	0.657877
	H326	H	0.452778	0.511210	0.651021
	O327	O	0.507836	0.291936	0.297893
	H328	H	0.484821	0.285609	0.321333
	H329	H	0.503349	0.265628	0.277308
	O330	O	0.149588	0.958728	0.047695
	H331	H	0.139235	0.946404	0.032580
	H332	H	0.136796	0.959896	0.044318
	O333	O	0.988824	0.001633	1.000097
	H334	H	0.994391	-0.002494	1.020379
	H335	H	0.976520	-0.006130	0.989747
	O336	O	-0.111390	-0.196922	-0.029503
	H337	H	-0.115407	-0.193684	-0.022506
	H338	H	-0.121166	-0.208541	-0.010714
	O339	O	-0.060807	1.125093	1.154335
	H340	H	-0.083553	1.115652	1.154112
	H341	H	-0.045611	1.152045	1.164261
	O342	O	-0.048804	1.184700	1.007426
	H343	H	-0.044503	1.183211	1.006577
	H344	H	-0.053466	1.177372	1.033898
	O345	O	1.196717	0.794826	-0.117765
	H346	H	1.190165	0.805477	-0.104131
	H347	H	1.218801	0.787652	-0.125674
	O348	O	0.399293	0.706298	0.636299
	H349	H	0.412573	0.705875	0.636014
	H350	H	0.387483	0.695148	0.623742
	O351	O	-0.172853	1.017415	1.237533
	H352	H	-0.156792	0.973639	1.230822
	H353	H	-0.208443	1.008599	1.257468
	O354	O	0.208296	0.979541	-0.206099
	H355	H	0.210929	0.969213	-0.222139
	H356	H	0.214622	0.953780	-0.221682
	O357	O	-0.215681	-0.125655	1.108505
	H358	H	-0.216224	-0.098368	1.083258
	H359	H	-0.243586	-0.133245	1.106708
	O360	O	0.314591	0.675674	0.342774
	H361	H	0.305239	0.631044	0.333596
	H362	H	0.331361	0.686291	0.351058
	O363	O	0.698540	-0.513018	0.294738
	H364	H	0.719697	-0.519934	0.269125
	H365	H	0.691098	-0.530756	0.293291
	O366	O	0.666868	0.328786	0.335477
	H367	H	0.677702	0.339092	0.363321
	H368	H	0.615455	0.315214	0.320806
	O369	O	0.684753	0.605669	0.705159
	H370	H	0.699508	0.618370	0.687819
	H371	H	0.659842	0.633411	0.710166
	O372	O	0.766067	0.000052	1.010911
	H373	H	0.769445	-0.003861	0.982376
	H374	H	0.766527	0.024656	1.004786
	O375	O	0.310695	0.710027	0.510944
	H376	H	0.316317	0.705994	0.491981
	H377	H	0.304255	0.729190	0.515734
	O378	O	0.530169	0.710032	0.404666
	H379	H	0.528521	0.715987	0.392127
	H380	H	0.535552	0.691586	0.394434
	O381	O	0.300487	0.503969	0.483242
	H382	H	0.299067	0.474969	0.493245
	H383	H	0.283083	0.501868	0.478162
	O384	O	0.665133	0.682561	0.499563
	H385	H	0.669933	0.660635	0.484122
	H386	H	0.679823	0.698229	0.489821
	O387	O	-0.235384	0.023697	0.791559
	H388	H	-0.217652	0.074798	0.805136
	H389	H	-0.272564	0.031633	0.753146
	O390	O	-0.032684	0.222751	-0.205545
	H391	H	-0.027613	0.250940	-0.228684
	H392	H	-0.020893	0.212895	-0.196690
	O393	O	1.004057	0.891360	1.052878
	H394	H	1.010068	0.905218	1.051770
	H395	H	0.994973	0.901673	1.054674
	O396	O	0.963466	-0.211976	0.225915
	H397	H	0.976591	-0.227739	0.235439
	H398	H	0.978029	-0.199528	0.243449
	O399	O	1.196838	0.112782	0.982508
	H400	H	1.185234	0.095252	0.962705
	H401	H	1.201439	0.117677	0.976453
	O402	O	1.403405	0.394008	0.682826
	H403	H	1.395339	0.410181	0.683077
	H404	H	1.442073	0.382605	0.699104
	O405	O	0.817212	1.171322	-0.166993
	H406	H	0.837446	1.175593	-0.145539
	H407	H	0.837203	1.183075	-0.144757
	O408	O	1.206180	-0.005329	0.159034
	H409	H	1.206281	-0.013485	0.147645
	H410	H	1.224957	0.000877	0.169687
	O411	O	0.914968	0.820126	-0.130975
	H412	H	0.906846	0.839690	-0.116254
	H413	H	0.908837	0.815378	-0.132721
	O414	O	-0.165791	1.070414	1.026843
	H415	H	-0.164116	1.043070	1.037153
	H416	H	-0.168674	1.068486	1.018397
	O417	O	0.464610	0.300211	0.463526
	H418	H	0.468303	0.307768	0.479621
	H419	H	0.440705	0.299841	0.480278
	O420	O	0.642250	0.475895	0.483132
	H421	H	0.645264	0.486073	0.473705
	H422	H	0.644271	0.484509	0.505425
	O423	O	0.616135	1.546660	0.473603
	H424	H	0.613175	1.525702	0.478154
	H425	H	0.619712	1.534891	0.449408
	O426	O	1.149145	0.812242	-0.124241
	H427	H	1.156363	0.803583	-0.120128
	H428	H	1.134818	0.794191	-0.127487
	O429	O	0.469326	0.458851	0.469534
	H430	H	0.457709	0.452762	0.457345
	H431	H	0.472034	0.454644	0.485491
	O432	O	1.111409	-0.035416	0.028874
	H433	H	1.099489	-0.027220	0.007478
	H434	H	1.103911	-0.052109	0.019906
	O435	O	0.592128	0.703461	0.680595
	H436	H	0.573653	0.717008	0.677486
	H437	H	0.587308	0.700741	0.665565
	O438	O	0.006885	0.223632	0.231061
	H439	H	0.028169	0.236951	0.244832
	H440	H	0.013907	0.225438	0.245202
	O441	O	1.149099	0.207669	-0.008100
	H442	H	1.139033	0.201393	-0.030449
	H443	H	1.173100	0.204766	-0.020335
	O444	O	0.694763	1.297900	0.495743
	H445	H	0.688997	1.309776	0.494226
	H446	H	0.713189	1.270334	0.494398
	O447	O	0.086546	0.034265	0.216006
	H448	H	0.095369	0.056426	0.208667
	H449	H	0.060231	0.052461	0.216086
	O450	O	0.461928	0.479313	0.302515
	H451	H	0.440427	0.485229	0.298585
	H452	H	0.469937	0.461540	0.302687
	O453	O	0.285448	0.473673	0.613795
	H454	H	0.300849	0.486445	0.613013
	H455	H	0.298117	0.482296	0.592176
