data_Molecule from HDF5

_cell_length_a		16.395498
_cell_length_b		16.782552
_cell_length_c		16.772493
_cell_angle_alpha	89.911513
_cell_angle_beta	90.069567
_cell_angle_gamma	90.025746
_symmetry_space_group_name_H-M	'P 1'
_symmetry_Int_Tables_number		1

loop_
	_symmetry_equiv_pos_as_xyz
	x,y,z

loop_
	_atom_site_label
	_atom_site_type_symbol
	_atom_site_fract_x
	_atom_site_fract_y
	_atom_site_fract_z
	H0	H	0.380795	0.846084	0.719495
	H1	H	0.592320	0.155075	0.720142
	H2	H	0.593732	0.849169	0.274452
	H3	H	0.380801	0.155525	0.278654
	H4	H	0.703593	0.401217	0.842082
	H5	H	0.705066	0.601255	0.155292
	H6	H	0.266136	0.604103	0.844054
	H7	H	0.268435	0.400201	0.154696
	H8	H	0.832592	0.724746	0.388114
	H9	H	0.144070	0.718836	0.601833
	H10	H	0.828640	0.280550	0.602626
	H11	H	0.144525	0.282158	0.396624
	H12	H	0.828411	0.396525	0.718058
	H13	H	0.144413	0.603081	0.716407
	H14	H	0.831604	0.607664	0.275250
	H15	H	0.143509	0.395966	0.279475
	H16	H	0.377839	0.725132	0.846443
	H17	H	0.591960	0.721449	0.153855
	H18	H	0.589905	0.281134	0.843288
	H19	H	0.380735	0.279435	0.152978
	H20	H	0.709438	0.848665	0.393482
	H21	H	0.706469	0.155278	0.600661
	H22	H	0.270613	0.843672	0.597602
	H23	H	0.269766	0.157462	0.399747
	H24	H	0.881120	0.345801	0.220550
	H25	H	0.099744	0.649354	0.227474
	H26	H	0.091080	0.347194	0.778177
	H27	H	0.878127	0.653266	0.774925
	H28	H	0.202350	0.902111	0.342575
	H29	H	0.202863	0.099447	0.656591
	H30	H	0.763735	0.106263	0.344911
	H31	H	0.762690	0.893488	0.652054
	H32	H	0.326590	0.216179	0.898665
	H33	H	0.643901	0.219592	0.102331
	H34	H	0.328176	0.782204	0.102198
	H35	H	0.645417	0.784456	0.898279
	H36	H	0.326584	0.899666	0.214973
	H37	H	0.642918	0.106348	0.220022
	H38	H	0.327382	0.101425	0.781816
	H39	H	0.644137	0.898065	0.781060
	H40	H	0.875681	0.226583	0.347546
	H41	H	0.090295	0.220074	0.654918
	H42	H	0.091686	0.780207	0.345458
	H43	H	0.875393	0.773699	0.649466
	H44	H	0.204703	0.345159	0.898297
	H45	H	0.209785	0.653906	0.104684
	H46	H	0.768469	0.344037	0.100458
	H47	H	0.768993	0.657059	0.898419
	H48	H	0.392704	0.112133	0.590769
	H49	H	0.575616	0.888922	0.590436
	H50	H	0.573451	0.111235	0.406985
	H51	H	0.398323	0.888282	0.401386
	H52	H	0.574005	0.409379	0.109183
	H53	H	0.578681	0.592041	0.887542
	H54	H	0.402018	0.595782	0.109278
	H55	H	0.397559	0.403923	0.886738
	H56	H	0.100591	0.589490	0.409298
	H57	H	0.872841	0.589810	0.586740
	H58	H	0.098657	0.412599	0.587404
	H59	H	0.871999	0.404549	0.412927
	H60	H	0.100418	0.410718	0.591640
	H61	H	0.873905	0.588692	0.584326
	H62	H	0.098444	0.590299	0.416086
	H63	H	0.877773	0.417529	0.416746
	H64	H	0.394552	0.590205	0.110860
	H65	H	0.574088	0.591067	0.889307
	H66	H	0.574764	0.406655	0.109914
	H67	H	0.391938	0.409445	0.886475
	H68	H	0.569228	0.109186	0.409438
	H69	H	0.572885	0.889754	0.591985
	H70	H	0.395684	0.114051	0.595191
	H71	H	0.396258	0.890498	0.409007
	H72	H	0.897979	0.611000	0.090429
	H73	H	0.070120	0.392496	0.089888
	H74	H	0.076700	0.611617	0.911661
	H75	H	0.892516	0.387316	0.905716
	H76	H	0.076321	0.908274	0.610896
	H77	H	0.081958	0.093976	0.386113
	H78	H	0.903980	0.091503	0.607314
	H79	H	0.900772	0.914532	0.390548
	H80	H	0.599295	0.090591	0.911946
	H81	H	0.371708	0.090609	0.089857
	H82	H	0.600928	0.913559	0.094098
	H83	H	0.374527	0.917059	0.909847
	H84	H	0.601812	0.905474	0.087699
	H85	H	0.372500	0.091681	0.085930
	H86	H	0.601406	0.089457	0.903610
	H87	H	0.370554	0.909270	0.905880
	H88	H	0.895521	0.093122	0.610916
	H89	H	0.074628	0.090791	0.389797
	H90	H	0.074909	0.907674	0.610993
	H91	H	0.902254	0.912189	0.389867
	H92	H	0.078515	0.614737	0.903024
	H93	H	0.073821	0.392430	0.084599
	H94	H	0.898800	0.610919	0.090332
	H95	H	0.899766	0.389561	0.904221
	H96	H	0.397913	0.110825	0.591677
	H97	H	0.573536	0.891236	0.589118
	H98	H	0.573348	0.110342	0.412403
	H99	H	0.391023	0.887143	0.404246
	H100	H	0.577193	0.408185	0.109663
	H101	H	0.574636	0.595453	0.887274
	H102	H	0.402215	0.586845	0.106362
	H103	H	0.399133	0.410998	0.888857
	H104	H	0.097062	0.583718	0.412688
	H105	H	0.872592	0.586496	0.586286
	H106	H	0.099815	0.408012	0.587850
	H107	H	0.872294	0.415429	0.403529
	H108	H	0.898060	0.610536	0.089636
	H109	H	0.075536	0.389712	0.090149
	H110	H	0.069678	0.610798	0.904413
	H111	H	0.896961	0.390678	0.910864
	H112	H	0.075962	0.907353	0.611310
	H113	H	0.075041	0.098651	0.387620
	H114	H	0.897224	0.085038	0.607383
	H115	H	0.899625	0.912349	0.389778
	H116	H	0.603036	0.096666	0.907460
	H117	H	0.373882	0.087699	0.087227
	H118	H	0.597926	0.915251	0.083985
	H119	H	0.373937	0.908663	0.914481
	C120	C	0.364806	0.009084	0.621488
	C121	C	0.607084	0.992293	0.621042
	C122	C	0.606491	0.009364	0.376856
	C123	C	0.364100	0.991875	0.376048
	C124	C	0.607258	0.378461	0.006733
	C125	C	0.607623	0.622721	0.990879
	C126	C	0.365771	0.622645	0.007146
	C127	C	0.364419	0.378037	0.990035
	C128	C	-0.004420	0.621039	0.378069
	C129	C	0.977677	0.619555	0.617307
	C130	C	-0.005065	0.379485	0.619962
	C131	C	0.977593	0.380006	0.378968
	C132	C	0.865886	0.508433	0.121141
	C133	C	0.107761	0.492277	0.120973
	C134	C	0.107208	0.509673	0.876692
	C135	C	0.864145	0.491774	0.876066
	C136	C	0.106947	0.878953	0.507901
	C137	C	0.108078	0.123294	0.491114
	C138	C	0.865416	0.122303	0.507063
	C139	C	0.865290	0.878902	0.490101
	C140	C	0.495257	0.121670	0.877862
	C141	C	0.477226	0.121540	0.119240
	C142	C	0.494877	0.880636	0.119385
	C143	C	0.477833	0.880942	0.879375
	C144	C	0.363154	0.892287	0.679215
	C145	C	0.610085	0.108617	0.679924
	C146	C	0.611590	0.894736	0.315453
	C147	C	0.362713	0.109177	0.318445
	C148	C	0.664601	0.380738	0.889034
	C149	C	0.665960	0.621447	0.108321
	C150	C	0.305335	0.623569	0.890784
	C151	C	0.306624	0.379372	0.107511
	C152	C	0.878949	0.683473	0.371790
	C153	C	0.096499	0.679176	0.620019
	C154	C	0.875816	0.320410	0.621458
	C155	C	0.096857	0.321483	0.377788
	C156	C	0.875932	0.377795	0.678634
	C157	C	0.096779	0.621338	0.676680
	C158	C	0.878357	0.625132	0.315985
	C159	C	0.096433	0.377961	0.319568
	C160	C	0.361314	0.683369	0.891903
	C161	C	0.609626	0.680963	0.107641
	C162	C	0.608405	0.321034	0.889562
	C163	C	0.362387	0.319382	0.106584
	C164	C	0.668365	0.894325	0.374679
	C165	C	0.666700	0.109117	0.620709
	C166	C	0.308096	0.891054	0.618665
	C167	C	0.307374	0.109892	0.378525
	C168	C	0.863644	0.392026	0.179939
	C169	C	0.114560	0.605383	0.184296
	C170	C	0.109419	0.393014	0.818186
	C171	C	0.861022	0.607702	0.816215
	C172	C	0.163884	0.881485	0.389926
	C173	C	0.164944	0.120741	0.609239
	C174	C	0.803662	0.124853	0.391514
	C175	C	0.803105	0.875412	0.605320
	C176	C	0.374614	0.177910	0.878531
	C177	C	0.596320	0.180302	0.121154
	C178	C	0.375697	0.821779	0.120677
	C179	C	0.597507	0.823064	0.878881
	C180	C	0.374875	0.880316	0.176662
	C181	C	0.595799	0.123984	0.179470
	C182	C	0.375033	0.120905	0.820890
	C183	C	0.596888	0.879467	0.820703
	C184	C	0.859399	0.184722	0.392926
	C185	C	0.108826	0.180386	0.608459
	C186	C	0.108953	0.820989	0.391249
	C187	C	0.859233	0.815915	0.604328
	C188	C	0.165873	0.392416	0.877633
	C189	C	0.169506	0.607517	0.123671
	C190	C	0.807294	0.391190	0.120426
	C191	C	0.806646	0.609431	0.877364
	C192	C	0.388509	0.091070	0.598873
	C193	C	0.581477	0.911142	0.597182
	C194	C	0.579693	0.089536	0.402338
	C195	C	0.388369	0.910125	0.398335
	C196	C	0.582415	0.401361	0.088398
	C197	C	0.582939	0.599602	0.909141
	C198	C	0.391960	0.597853	0.087756
	C199	C	0.389057	0.401463	0.908573
	C200	C	0.077432	0.595017	0.404904
	C201	C	0.894737	0.595156	0.592697
	C202	C	0.078194	0.403495	0.595764
	C203	C	0.895306	0.405303	0.404034
	C204	C	0.891090	0.589459	0.097096
	C205	C	0.080943	0.412314	0.095275
	C206	C	0.082214	0.590996	0.899817
	C207	C	0.888973	0.410325	0.899947
	C208	C	0.082656	0.901399	0.589586
	C209	C	0.084150	0.100942	0.409153
	C210	C	0.891667	0.096988	0.587748
	C211	C	0.892896	0.905469	0.410753
	C212	C	0.579383	0.099032	0.901149
	C213	C	0.394368	0.097009	0.094550
	C214	C	0.578478	0.904634	0.095429
	C215	C	0.394772	0.904886	0.903185
	Zn216	Zn	0.486115	0.000559	0.750724
	Zn217	Zn	0.485665	0.001407	0.247015
	Zn218	Zn	0.736361	0.500456	-0.000855
	Zn219	Zn	0.235923	0.501512	-0.000990
	Zn220	Zn	-0.013939	0.748960	0.498024
	Zn221	Zn	-0.013614	0.251948	0.499589
	Zn222	Zn	-0.014097	0.500860	0.747034
	Zn223	Zn	-0.013179	0.500717	0.250615
	Zn224	Zn	0.486605	0.752675	-0.001047
	Zn225	Zn	0.486201	0.249052	-0.001547
	Zn226	Zn	0.736068	0.001010	0.498868
	Zn227	Zn	0.236186	0.000759	0.499519
	N228	N	0.397430	0.966745	0.681446
	N229	N	0.574112	0.034731	0.680680
	N230	N	0.573875	0.967545	0.316620
	N231	N	0.397182	0.034694	0.316483
	N232	N	0.664305	0.415518	0.963030
	N233	N	0.665056	0.586009	0.034590
	N234	N	0.307942	0.586431	0.963541
	N235	N	0.307451	0.415107	0.033902
	N236	N	0.952833	0.680911	0.409931
	N237	N	0.021284	0.678474	0.583680
	N238	N	0.951089	0.321246	0.585822
	N239	N	0.021860	0.322268	0.413868
	N240	N	0.951147	0.413616	0.678072
	N241	N	0.021615	0.585236	0.675541
	N242	N	0.952127	0.586970	0.319624
	N243	N	0.021085	0.413598	0.319903
	N244	N	0.397986	0.683229	0.965356
	N245	N	0.574153	0.682038	0.033527
	N246	N	0.573646	0.319310	0.964003
	N247	N	0.397553	0.318281	0.032421
	N248	N	0.665026	0.966587	0.412496
	N249	N	0.665184	0.035706	0.584874
	N250	N	0.308822	0.964848	0.583430
	N251	N	0.307697	0.035965	0.413651
	N252	N	0.899137	0.466113	0.180730
	N253	N	0.076669	0.532849	0.182663
	N254	N	0.073765	0.467033	0.817157
	N255	N	0.896029	0.533448	0.815073
	N256	N	0.163110	0.916811	0.463693
	N257	N	0.164858	0.086196	0.535254
	N258	N	0.807394	0.086292	0.463688
	N259	N	0.806499	0.913964	0.533311
	N260	N	0.450606	0.178779	0.913094
	N261	N	0.521468	0.179181	0.084462
	N262	N	0.451620	0.821501	0.086086
	N263	N	0.522259	0.823418	0.914379
	N264	N	0.450395	0.915963	0.176404
	N265	N	0.520651	0.088349	0.178537
	N266	N	0.451192	0.086907	0.820225
	N267	N	0.521399	0.914625	0.820699
	N268	N	0.897071	0.183263	0.465807
	N269	N	0.074282	0.182396	0.533943
	N270	N	0.074493	0.819126	0.465625
	N271	N	0.897300	0.817953	0.531668
	N272	N	0.164898	0.466042	0.913055
	N273	N	0.165408	0.536198	0.084993
	N274	N	0.808231	0.464679	0.084650
	N275	N	0.808297	0.536105	0.913788
	O276	O	-0.220539	0.787117	0.206524
	H277	H	-0.255221	0.760020	0.241208
	H278	H	-0.225746	0.831465	0.206687
	O279	O	0.511846	0.725286	0.728919
	H280	H	0.532913	0.738804	0.726064
	H281	H	0.518382	0.747475	0.734534
	O282	O	1.056425	0.221388	0.933289
	H283	H	1.053852	0.229509	0.927128
	H284	H	1.046939	0.213230	0.958586
	O285	O	0.650605	0.304845	0.674195
	H286	H	0.629376	0.301963	0.666513
	H287	H	0.646564	0.326829	0.656483
	O288	O	-0.001477	-0.225363	-0.199685
	H289	H	-0.001271	-0.236643	-0.200002
	H290	H	0.028795	-0.226031	-0.197869
	O291	O	0.274570	0.533733	0.281733
	H292	H	0.263955	0.564740	0.270265
	H293	H	0.257324	0.546193	0.277298
	O294	O	1.541977	0.732971	0.430424
	H295	H	1.534527	0.718108	0.433249
	H296	H	1.537294	0.738970	0.433517
	O297	O	0.267734	0.725445	0.462190
	H298	H	0.257131	0.728279	0.437860
	H299	H	0.253670	0.733925	0.451146
	O300	O	-0.106406	-0.190499	0.936171
	H301	H	-0.117178	-0.208502	0.967657
	H302	H	-0.076668	-0.186649	0.935979
	O303	O	0.693107	0.713110	0.711462
	H304	H	0.720429	0.735281	0.730307
	H305	H	0.686412	0.680780	0.719800
	O306	O	0.449469	0.546048	0.732113
	H307	H	0.461222	0.571510	0.736667
	H308	H	0.473844	0.543288	0.715730
	O309	O	0.307885	0.433959	0.394418
	H310	H	0.309312	0.420829	0.410874
	H311	H	0.296996	0.443325	0.389252
	O312	O	0.764885	1.010756	0.145285
	H313	H	0.759061	1.007388	0.137505
	H314	H	0.749709	1.025912	0.128111
	O315	O	0.696873	0.505096	0.712078
	H316	H	0.702772	0.493473	0.710811
	H317	H	0.699486	0.503413	0.721919
	O318	O	0.264686	0.286467	0.545649
	H319	H	0.246791	0.270653	0.567053
	H320	H	0.262587	0.282142	0.573209
	O321	O	-0.100301	1.073633	0.938979
	H322	H	-0.091321	1.077881	0.938118
	H323	H	-0.088459	1.079008	0.940697
	O324	O	0.936504	0.985780	-0.214293
	H325	H	0.933650	0.977884	-0.211882
	H326	H	0.936220	0.978943	-0.213638
	O327	O	0.450581	-0.276777	0.275034
	H328	H	0.465905	-0.266130	0.263200
	H329	H	0.466755	-0.293566	0.266803
	O330	O	0.648573	0.665336	0.543317
	H331	H	0.657679	0.684340	0.547676
	H332	H	0.633140	0.673357	0.549067
	O333	O	0.696836	0.628493	0.493782
	H334	H	0.694114	0.645561	0.516392
	H335	H	0.705035	0.637542	0.507776
	O336	O	1.190944	0.210955	0.210471
	H337	H	1.190409	0.197834	0.217552
	H338	H	1.214719	0.234516	0.219483
	O339	O	1.203826	0.046545	1.222028
	H340	H	1.201718	0.062166	1.220595
	H341	H	1.230168	0.040552	1.236346
	O342	O	0.555563	-0.681365	0.367099
	H343	H	0.560633	-0.683354	0.397153
	H344	H	0.570608	-0.694001	0.356490
	O345	O	0.300978	1.309484	1.308293
	H346	H	0.321722	1.338437	1.309858
	H347	H	0.319454	1.314343	1.341150
	O348	O	0.445795	0.484541	0.505168
	H349	H	0.447897	0.478447	0.495625
	H350	H	0.419343	0.489500	0.504555
	O351	O	0.451297	0.711215	0.539563
	H352	H	0.443885	0.710987	0.517238
	H353	H	0.437534	0.701751	0.543688
	O354	O	-0.227762	-0.221871	1.041347
	H355	H	-0.217892	-0.224050	1.078104
	H356	H	-0.254858	-0.243331	1.043619
	O357	O	0.177214	1.025014	-0.143286
	H358	H	0.181472	1.024885	-0.119226
	H359	H	0.149580	1.025808	-0.142349
	O360	O	0.699671	0.350194	0.280193
	H361	H	0.686141	0.332703	0.293278
	H362	H	0.730479	0.333384	0.253859
	O363	O	0.024743	0.064513	0.065393
	H364	H	0.018189	0.065436	0.069109
	H365	H	0.015621	0.073639	0.071911
	O366	O	0.298483	0.670782	0.694376
	H367	H	0.331397	0.656111	0.692551
	H368	H	0.301968	0.663397	0.665862
	O369	O	1.088209	-0.043695	0.195143
	H370	H	1.086822	-0.054173	0.184977
	H371	H	1.111728	-0.033792	0.209181
	O372	O	1.037686	0.925358	-0.094029
	H373	H	1.039547	0.916945	-0.089242
	H374	H	1.026686	0.915407	-0.091963
	O375	O	1.014828	0.057491	-0.223235
	H376	H	0.997347	0.052319	-0.207292
	H377	H	1.005353	0.057400	-0.233887
	O378	O	0.675060	0.448138	0.498030
	H379	H	0.670966	0.455258	0.498629
	H380	H	0.675897	0.452851	0.488138
	O381	O	0.536527	0.312531	0.325553
	H382	H	0.538034	0.301381	0.326760
	H383	H	0.541801	0.307848	0.317085
	O384	O	1.157917	-0.164456	0.868815
	H385	H	1.150723	-0.150403	0.875681
	H386	H	1.168542	-0.184594	0.849114
	O387	O	1.194953	1.034537	-0.007985
	H388	H	1.176867	1.017349	-0.005053
	H389	H	1.202795	1.050238	-0.010339
	O390	O	0.202482	0.224134	0.041692
	H391	H	0.200300	0.221918	0.062745
	H392	H	0.227955	0.245130	0.035135
	O393	O	0.584644	0.552618	0.584834
	H394	H	0.589861	0.541384	0.575516
	H395	H	0.560809	0.555885	0.572959
	O396	O	-0.034501	0.891493	0.925280
	H397	H	-0.003849	0.888141	0.918137
	H398	H	-0.045769	0.882889	0.929402
	O399	O	-0.022654	-0.225562	1.213347
	H400	H	-0.046972	-0.202236	1.213000
	H401	H	-0.049421	-0.252241	1.237774
	O402	O	0.674738	0.489649	0.305985
	H403	H	0.695799	0.466272	0.286517
	H404	H	0.690400	0.487914	0.325826
	O405	O	0.772218	-0.029383	0.964052
	H406	H	0.788266	-0.021791	0.956435
	H407	H	0.777486	-0.042195	0.973191
	O408	O	0.095441	-0.053124	0.033977
	H409	H	0.089285	-0.045227	0.021502
	H410	H	0.092721	-0.057464	0.029741
	O411	O	0.016225	1.223610	1.223491
	H412	H	0.041388	1.231708	1.236821
	H413	H	0.021018	1.227692	1.233692
	O414	O	1.689058	0.292503	1.482291
	H415	H	1.686359	0.278444	1.490052
	H416	H	1.682256	0.301518	1.478617
	O417	O	0.307059	0.581725	0.488440
	H418	H	0.289207	0.588921	0.472327
	H419	H	0.308155	0.569537	0.480888
	O420	O	-0.324641	-0.301379	0.309419
	H421	H	-0.346691	-0.314610	0.328774
	H422	H	-0.338566	-0.320737	0.331769
	O423	O	0.174046	0.198624	0.805665
	H424	H	0.154010	0.171999	0.813602
	H425	H	0.153171	0.186520	0.832458
	O426	O	0.500447	0.524250	0.342581
	H427	H	0.525283	0.504184	0.340923
	H428	H	0.502218	0.522507	0.335527
	O429	O	1.515370	1.557794	1.365784
	H430	H	1.534307	1.547028	1.356813
	H431	H	1.504103	1.541493	1.356731
	O432	O	0.285558	0.522706	0.575142
	H433	H	0.277782	0.516026	0.594555
	H434	H	0.289635	0.513535	0.579240
	O435	O	0.517161	0.268457	0.531909
	H436	H	0.499726	0.262208	0.544388
	H437	H	0.505613	0.270550	0.535214
	O438	O	-0.192951	0.140093	0.119548
	H439	H	-0.198426	0.135755	0.090600
	H440	H	-0.170474	0.138296	0.113936
	O441	O	0.867940	0.129208	0.209962
	H442	H	0.891975	0.127095	0.201226
	H443	H	0.894361	0.121301	0.209000
	O444	O	-0.062580	0.921298	0.149640
	H445	H	-0.053898	0.926784	0.144455
	H446	H	-0.073214	0.917241	0.149038
	O447	O	-0.046752	1.226652	0.776985
	H448	H	-0.056820	1.235506	0.762151
	H449	H	-0.058375	1.236919	0.771645
	O450	O	0.193640	0.782211	0.940906
	H451	H	0.208014	0.781806	0.918004
	H452	H	0.190151	0.763518	0.928702
	O453	O	0.778408	0.211415	0.789387
	H454	H	0.794912	0.179170	0.781282
	H455	H	0.750474	0.221466	0.761063
	O456	O	-0.231008	0.039625	0.774461
	H457	H	-0.217801	0.026042	0.785617
	H458	H	-0.255834	0.031120	0.754465
	O459	O	1.173732	0.804721	0.195458
	H460	H	1.181245	0.831321	0.178999
	H461	H	1.136141	0.796478	0.181492
	O462	O	0.402893	0.330335	0.504719
	H463	H	0.384554	0.329774	0.511016
	H464	H	0.404479	0.341447	0.507199
	O465	O	1.282009	0.712560	-0.707887
	H466	H	1.337201	0.719545	-0.717602
	H467	H	1.256179	0.738996	-0.725218
	O468	O	0.565713	0.462487	0.721447
	H469	H	0.561420	0.461479	0.721635
	H470	H	0.560699	0.473280	0.709500
	O471	O	0.288770	0.462583	0.726142
	H472	H	0.290251	0.482879	0.748995
	H473	H	0.292180	0.456052	0.734478
	O474	O	0.455159	0.274416	0.722366
	H475	H	0.440615	0.278023	0.732155
	H476	H	0.436177	0.261175	0.738938
	O477	O	0.281362	0.290274	1.708625
	H478	H	0.290146	0.327205	1.715295
	H479	H	0.246340	0.261447	1.741875
	O480	O	0.629774	0.490999	0.490413
	H481	H	0.632994	0.488317	0.500484
	H482	H	0.635485	0.489983	0.496628
	O483	O	0.194326	0.874190	0.778845
	H484	H	0.223933	0.871720	0.760543
	H485	H	0.190949	0.903402	0.783072
	O486	O	1.017377	-0.245517	1.039027
	H487	H	1.013541	-0.251886	1.061400
	H488	H	1.027723	-0.248052	1.047496
	O489	O	0.863705	1.019262	0.222988
	H490	H	0.866762	1.028189	0.233209
	H491	H	0.861724	1.022990	0.218982
	O492	O	-0.237188	0.228449	-0.038903
	H493	H	-0.230427	0.218572	-0.082743
	H494	H	-0.272039	0.258575	-0.047881
	O495	O	-0.056923	1.236058	1.050924
	H496	H	-0.061143	1.241741	1.070193
	H497	H	-0.074424	1.238855	1.044206
	O498	O	0.801508	0.810021	0.805305
	H499	H	0.823592	0.815246	0.837846
	H500	H	0.813496	0.824307	0.812263
	O501	O	0.461163	0.403836	0.265298
	H502	H	0.459304	0.414286	0.271064
	H503	H	0.457112	0.380780	0.260250
