data_Molecule from HDF5

_cell_length_a		16.297051
_cell_length_b		16.339518
_cell_length_c		16.228095
_cell_angle_alpha	89.915613
_cell_angle_beta	89.966151
_cell_angle_gamma	90.117334
_symmetry_space_group_name_H-M	'P 1'
_symmetry_Int_Tables_number		1

loop_
	_symmetry_equiv_pos_as_xyz
	x,y,z

loop_
	_atom_site_label
	_atom_site_type_symbol
	_atom_site_fract_x
	_atom_site_fract_y
	_atom_site_fract_z
	H0	H	0.414422	0.840589	0.717160
	H1	H	0.608930	0.167517	0.719758
	H2	H	0.608152	0.840247	0.292137
	H3	H	0.412714	0.167572	0.288912
	H4	H	0.724779	0.406692	0.840319
	H5	H	0.722795	0.601776	0.169470
	H6	H	0.297123	0.602327	0.840001
	H7	H	0.294525	0.404111	0.169159
	H8	H	0.846890	0.720303	0.406144
	H9	H	0.173621	0.720176	0.603295
	H10	H	0.846770	0.288538	0.605411
	H11	H	0.173434	0.291742	0.405872
	H12	H	0.845553	0.408268	0.718124
	H13	H	0.173839	0.602551	0.717784
	H14	H	0.845769	0.602863	0.290704
	H15	H	0.174092	0.409764	0.292665
	H16	H	0.410838	0.719119	0.839974
	H17	H	0.609916	0.718595	0.168808
	H18	H	0.609897	0.289700	0.840310
	H19	H	0.411009	0.288554	0.168359
	H20	H	0.726169	0.841460	0.406211
	H21	H	0.724221	0.168394	0.601952
	H22	H	0.294343	0.842080	0.604859
	H23	H	0.296264	0.167890	0.403898
	H24	H	0.912684	0.341113	0.219101
	H25	H	0.107577	0.669560	0.217706
	H26	H	0.107242	0.342140	0.789539
	H27	H	0.912005	0.668660	0.791065
	H28	H	0.223204	0.909409	0.339088
	H29	H	0.223879	0.103049	0.668919
	H30	H	0.796684	0.103593	0.339717
	H31	H	0.797221	0.907412	0.668226
	H32	H	0.346921	0.220466	0.904052
	H33	H	0.672934	0.220990	0.105206
	H34	H	0.346323	0.788376	0.104542
	H35	H	0.674181	0.789889	0.906819
	H36	H	0.346671	0.905246	0.220335
	H37	H	0.674428	0.101081	0.217883
	H38	H	0.346476	0.102317	0.789357
	H39	H	0.674333	0.906534	0.791045
	H40	H	0.912786	0.218897	0.339899
	H41	H	0.109598	0.220511	0.667967
	H42	H	0.108645	0.791718	0.340090
	H43	H	0.910803	0.791078	0.668237
	H44	H	0.224771	0.341560	0.905274
	H45	H	0.225876	0.668313	0.102331
	H46	H	0.794120	0.341550	0.104745
	H47	H	0.794755	0.667774	0.905798
	H48	H	0.419502	0.122787	0.606921
	H49	H	0.598198	0.890471	0.596587
	H50	H	0.602429	0.122873	0.399623
	H51	H	0.412886	0.887582	0.412294
	H52	H	0.604033	0.410451	0.121757
	H53	H	0.605827	0.598485	0.887104
	H54	H	0.408664	0.594805	0.124168
	H55	H	0.417970	0.408269	0.887193
	H56	H	0.126398	0.603083	0.413394
	H57	H	0.890927	0.607552	0.598701
	H58	H	0.130237	0.397515	0.597317
	H59	H	0.893299	0.410362	0.414970
	H60	H	0.119371	0.419455	0.583142
	H61	H	0.895866	0.596625	0.590989
	H62	H	0.124776	0.596127	0.413898
	H63	H	0.894075	0.414536	0.410674
	H64	H	0.422869	0.590485	0.117187
	H65	H	0.603171	0.594492	0.887859
	H66	H	0.601610	0.413801	0.119563
	H67	H	0.414622	0.414713	0.888473
	H68	H	0.596250	0.115787	0.417105
	H69	H	0.609270	0.888992	0.591860
	H70	H	0.425842	0.117055	0.590824
	H71	H	0.419055	0.888709	0.409574
	H72	H	0.920980	0.619389	0.096981
	H73	H	0.103851	0.390228	0.097346
	H74	H	0.120170	0.623621	0.919123
	H75	H	0.916502	0.387795	0.907266
	H76	H	0.108422	0.915168	0.621864
	H77	H	0.103534	0.113550	0.383164
	H78	H	0.916560	0.089117	0.618496
	H79	H	0.918480	0.915322	0.388530
	H80	H	0.623188	0.092500	0.914940
	H81	H	0.396210	0.091268	0.097597
	H82	H	0.626784	0.904816	0.094194
	H83	H	0.391932	0.905879	0.909141
	H84	H	0.623645	0.915590	0.094163
	H85	H	0.392133	0.099645	0.100837
	H86	H	0.627205	0.097191	0.905809
	H87	H	0.395403	0.910167	0.917048
	H88	H	0.925546	0.101470	0.619746
	H89	H	0.116593	0.091734	0.385638
	H90	H	0.098733	0.916021	0.617872
	H91	H	0.920973	0.910085	0.386599
	H92	H	0.102465	0.625547	0.895265
	H93	H	0.104751	0.388359	0.100283
	H94	H	0.913881	0.619836	0.093428
	H95	H	0.922064	0.390797	0.913320
	H96	H	0.408319	0.121705	0.592515
	H97	H	0.607300	0.885639	0.604006
	H98	H	0.615353	0.122701	0.414980
	H99	H	0.417595	0.890361	0.416751
	H100	H	0.599917	0.410379	0.120857
	H101	H	0.600900	0.599060	0.888448
	H102	H	0.420858	0.605822	0.122817
	H103	H	0.421413	0.413624	0.890584
	H104	H	0.127108	0.599093	0.407250
	H105	H	0.892221	0.594739	0.604682
	H106	H	0.126527	0.422175	0.610482
	H107	H	0.891552	0.408755	0.408994
	H108	H	0.915234	0.621871	0.100496
	H109	H	0.101720	0.389281	0.100125
	H110	H	0.091707	0.614863	0.920920
	H111	H	0.913283	0.388834	0.915849
	H112	H	0.101989	0.906768	0.622328
	H113	H	0.091575	0.092802	0.392759
	H114	H	0.911102	0.102529	0.624299
	H115	H	0.914595	0.910913	0.385504
	H116	H	0.626878	0.102625	0.916047
	H117	H	0.395241	0.099165	0.091611
	H118	H	0.627594	0.910657	0.104059
	H119	H	0.394069	0.915034	0.908949
	C120	C	0.389098	0.012922	0.625773
	C121	C	0.633202	0.995987	0.626548
	C122	C	0.632889	0.012569	0.382726
	C123	C	0.388454	0.996499	0.383021
	C124	C	0.631406	0.382895	0.012655
	C125	C	0.631652	0.625486	0.996577
	C126	C	0.389556	0.625238	0.012470
	C127	C	0.388989	0.382969	0.996912
	C128	C	0.018030	0.627286	0.383029
	C129	C	1.001495	0.627389	0.626133
	C130	C	0.017681	0.383827	0.626368
	C131	C	1.001299	0.383720	0.383244
	C132	C	0.887731	0.512947	0.126450
	C133	C	0.132138	0.497061	0.126509
	C134	C	0.132252	0.513278	0.883018
	C135	C	0.888819	0.497037	0.883798
	C136	C	0.131958	0.884267	0.512498
	C137	C	0.132528	0.127474	0.495823
	C138	C	0.889357	0.126374	0.512535
	C139	C	0.889480	0.884008	0.495689
	C140	C	0.518063	0.126042	0.883066
	C141	C	0.502452	0.125397	0.125425
	C142	C	0.518295	0.881325	0.126883
	C143	C	0.502055	0.882270	0.883393
	C144	C	0.392607	0.889547	0.680144
	C145	C	0.629801	0.118980	0.681608
	C146	C	0.629422	0.889320	0.328885
	C147	C	0.392354	0.119045	0.327081
	C148	C	0.686803	0.385967	0.889100
	C149	C	0.686042	0.622568	0.120225
	C150	C	0.334531	0.623015	0.889258
	C151	C	0.332896	0.384543	0.119992
	C152	C	0.895344	0.682096	0.385717
	C153	C	0.124715	0.682424	0.623850
	C154	C	0.895127	0.327841	0.624494
	C155	C	0.124565	0.329369	0.385746
	C156	C	0.894582	0.386833	0.681116
	C157	C	0.124917	0.623746	0.680466
	C158	C	0.894928	0.623957	0.328225
	C159	C	0.124941	0.388099	0.329404
	C160	C	0.391554	0.680881	0.889123
	C161	C	0.629596	0.680591	0.119805
	C162	C	0.629624	0.327994	0.889076
	C163	C	0.390457	0.327081	0.119865
	C164	C	0.688319	0.890024	0.385351
	C165	C	0.686925	0.119415	0.623050
	C166	C	0.333110	0.890557	0.624168
	C167	C	0.334066	0.119114	0.383983
	C168	C	0.891158	0.389997	0.181714
	C169	C	0.128533	0.620675	0.180291
	C170	C	0.128721	0.390724	0.827475
	C171	C	0.891242	0.619888	0.828953
	C172	C	0.186213	0.887917	0.388556
	C173	C	0.186853	0.124097	0.619419
	C174	C	0.834613	0.123653	0.388661
	C175	C	0.834822	0.886896	0.619338
	C176	C	0.395394	0.181587	0.884455
	C177	C	0.624684	0.181814	0.124349
	C178	C	0.395360	0.826222	0.124903
	C179	C	0.625240	0.827426	0.885891
	C180	C	0.395421	0.884149	0.182604
	C181	C	0.625483	0.122413	0.180432
	C182	C	0.395175	0.123029	0.827510
	C183	C	0.625299	0.885308	0.828169
	C184	C	0.891996	0.181149	0.388770
	C185	C	0.129917	0.182211	0.619240
	C186	C	0.129339	0.829609	0.388810
	C187	C	0.891484	0.829233	0.619317
	C188	C	0.186933	0.390435	0.885077
	C189	C	0.187336	0.620003	0.123215
	C190	C	0.832532	0.390169	0.124766
	C191	C	0.832955	0.619275	0.885725
	C192	C	0.411374	0.098345	0.603387
	C193	C	0.611273	0.910536	0.604161
	C194	C	0.611218	0.098281	0.404121
	C195	C	0.410410	0.910985	0.405982
	C196	C	0.608434	0.404933	0.098507
	C197	C	0.609620	0.603647	0.910122
	C198	C	0.411467	0.603389	0.099187
	C199	C	0.411466	0.405508	0.910898
	C200	C	0.103867	0.605717	0.404973
	C201	C	0.915406	0.605978	0.604602
	C202	C	0.103356	0.406432	0.603697
	C203	C	0.915110	0.405080	0.405104
	C204	C	0.910090	0.598316	0.103756
	C205	C	0.110074	0.411530	0.105508
	C206	C	0.111060	0.599048	0.905044
	C207	C	0.910880	0.411299	0.905726
	C208	C	0.109605	0.906198	0.598599
	C209	C	0.110467	0.105666	0.409648
	C210	C	0.911265	0.104368	0.598555
	C211	C	0.911708	0.905523	0.409160
	C212	C	0.603596	0.103941	0.905726
	C213	C	0.416610	0.103120	0.103156
	C214	C	0.603908	0.903696	0.104141
	C215	C	0.416114	0.904220	0.905199
	Zn216	Zn	0.510635	0.004242	0.754818
	Zn217	Zn	0.510687	0.003668	0.254707
	Zn218	Zn	0.759355	0.504584	0.004327
	Zn219	Zn	0.261094	0.504321	0.004777
	Zn220	Zn	0.010342	0.755930	0.504614
	Zn221	Zn	0.010089	0.255290	0.504403
	Zn222	Zn	0.009801	0.505715	0.755094
	Zn223	Zn	0.009527	0.505252	0.255003
	Zn224	Zn	0.510409	0.753459	0.004428
	Zn225	Zn	0.510010	0.254723	0.004180
	Zn226	Zn	0.761580	0.004835	0.504255
	Zn227	Zn	0.260242	0.005278	0.504150
	N228	N	0.426830	0.966590	0.681300
	N229	N	0.597091	0.041282	0.683854
	N230	N	0.595739	0.966463	0.326972
	N231	N	0.425313	0.041409	0.326141
	N232	N	0.688021	0.419415	0.966799
	N233	N	0.687493	0.589055	0.042423
	N234	N	0.333227	0.589089	0.966920
	N235	N	0.331968	0.418677	0.042422
	N236	N	0.972807	0.684181	0.419157
	N237	N	0.047070	0.684806	0.590714
	N238	N	0.972783	0.325814	0.591444
	N239	N	0.046714	0.326946	0.418743
	N240	N	0.971896	0.421113	0.682216
	N241	N	0.047299	0.590440	0.682190
	N242	N	0.972206	0.590308	0.326728
	N243	N	0.047421	0.421170	0.327684
	N244	N	0.425061	0.682175	0.967114
	N245	N	0.596494	0.682615	0.041882
	N246	N	0.595885	0.326096	0.966857
	N247	N	0.424580	0.326128	0.042454
	N248	N	0.690671	0.967713	0.418008
	N249	N	0.689159	0.042180	0.589485
	N250	N	0.330794	0.968267	0.591136
	N251	N	0.331744	0.042119	0.418106
	N252	N	0.924835	0.467278	0.182942
	N253	N	0.094870	0.543239	0.182544
	N254	N	0.095641	0.468143	0.826101
	N255	N	0.925308	0.542997	0.827705
	N256	N	0.187745	0.921187	0.466399
	N257	N	0.188708	0.090908	0.541643
	N258	N	0.832926	0.090033	0.466641
	N259	N	0.833660	0.920337	0.541551
	N260	N	0.472830	0.183635	0.918132
	N261	N	0.547078	0.183642	0.090949
	N262	N	0.472720	0.824370	0.091145
	N263	N	0.547791	0.825447	0.919342
	N264	N	0.472849	0.917800	0.183986
	N265	N	0.548450	0.087816	0.181196
	N266	N	0.472393	0.089069	0.826540
	N267	N	0.547690	0.918853	0.826741
	N268	N	0.925478	0.182766	0.466503
	N269	N	0.096800	0.184446	0.541397
	N270	N	0.096595	0.826809	0.466980
	N271	N	0.924922	0.827392	0.541281
	N272	N	0.189185	0.467572	0.918893
	N273	N	0.189772	0.542369	0.090772
	N274	N	0.830503	0.467462	0.091067
	N275	N	0.831366	0.541763	0.919179
	O276	O	0.410673	0.493245	0.483612
	H277	H	0.409611	0.495002	0.478599
	H278	H	0.418357	0.493298	0.484992
	O279	O	-0.037278	0.048194	0.014248
	H280	H	-0.035692	0.039700	0.004043
	H281	H	-0.045930	0.057728	0.015061
	O282	O	0.428797	0.502434	0.539261
	H283	H	0.432510	0.494942	0.539436
	H284	H	0.421023	0.497423	0.537869
	O285	O	0.446231	0.511782	0.514628
	H286	H	0.453216	0.514795	0.514149
	H287	H	0.439655	0.507718	0.515976
	O288	O	0.957856	0.027951	-0.041008
	H289	H	0.959684	0.022401	-0.052523
	H290	H	0.959622	0.030545	-0.055628
	O291	O	-0.599933	0.511063	-0.522931
	H292	H	-0.610365	0.512694	-0.523375
	H293	H	-0.598441	0.509547	-0.531575
	O294	O	0.429437	0.537533	0.440392
	H295	H	0.422887	0.529320	0.436667
	H296	H	0.427151	0.536574	0.433059
	O297	O	-0.036478	0.985654	0.007489
	H298	H	-0.045299	0.984384	-0.000959
	H299	H	-0.033203	0.994867	-0.000430
	O300	O	0.971773	0.031995	0.921098
	H301	H	0.976316	0.027457	0.933403
	H302	H	0.970731	0.028173	0.920647
	O303	O	0.404576	0.493725	0.448728
	H304	H	0.398461	0.500108	0.450982
	H305	H	0.398190	0.487325	0.442811
	O306	O	-0.013856	1.012375	0.987612
	H307	H	-0.012913	1.017381	1.001795
	H308	H	-0.014070	1.011672	1.006241
	O309	O	0.434607	0.490858	0.472507
	H310	H	0.439366	0.495288	0.475663
	H311	H	0.429142	0.498185	0.480480
