data_Molecule from HDF5

_cell_length_a		16.751488
_cell_length_b		16.581462
_cell_length_c		16.619275
_cell_angle_alpha	89.916936
_cell_angle_beta	89.822987
_cell_angle_gamma	90.156315
_symmetry_space_group_name_H-M	'P 1'
_symmetry_Int_Tables_number		1

loop_
	_symmetry_equiv_pos_as_xyz
	x,y,z

loop_
	_atom_site_label
	_atom_site_type_symbol
	_atom_site_fract_x
	_atom_site_fract_y
	_atom_site_fract_z
	H0	H	0.381277	0.846742	0.723204
	H1	H	0.595998	0.156241	0.724038
	H2	H	0.594070	0.845732	0.281951
	H3	H	0.383896	0.156161	0.277253
	H4	H	0.714670	0.393767	0.848680
	H5	H	0.712357	0.610562	0.155814
	H6	H	0.267165	0.610326	0.847056
	H7	H	0.262624	0.390014	0.152693
	H8	H	0.836439	0.724551	0.395905
	H9	H	0.144428	0.723855	0.603945
	H10	H	0.836063	0.280320	0.607846
	H11	H	0.142151	0.278390	0.393070
	H12	H	0.835391	0.398848	0.721954
	H13	H	0.144156	0.608080	0.721494
	H14	H	0.837951	0.611035	0.277408
	H15	H	0.143029	0.396360	0.277503
	H16	H	0.383536	0.724883	0.847121
	H17	H	0.593770	0.722551	0.157461
	H18	H	0.597257	0.279867	0.847433
	H19	H	0.379741	0.275858	0.153321
	H20	H	0.710345	0.846175	0.396208
	H21	H	0.712750	0.156640	0.608549
	H22	H	0.263989	0.849318	0.610434
	H23	H	0.266087	0.156022	0.390782
	H24	H	0.881744	0.347261	0.225132
	H25	H	0.097050	0.657366	0.222342
	H26	H	0.094473	0.347523	0.779562
	H27	H	0.886982	0.659254	0.782451
	H28	H	0.216006	0.893559	0.348311
	H29	H	0.215659	0.114116	0.653020
	H30	H	0.768776	0.108759	0.345882
	H31	H	0.767381	0.894754	0.655663
	H32	H	0.338563	0.225255	0.892724
	H33	H	0.643289	0.226745	0.108903
	H34	H	0.334746	0.781144	0.106038
	H35	H	0.644748	0.781044	0.897775
	H36	H	0.335802	0.896100	0.223996
	H37	H	0.644012	0.109865	0.224302
	H38	H	0.337515	0.107263	0.778777
	H39	H	0.643385	0.894371	0.777748
	H40	H	0.884692	0.224974	0.346587
	H41	H	0.097525	0.226006	0.655706
	H42	H	0.096370	0.781723	0.345498
	H43	H	0.886332	0.782557	0.657244
	H44	H	0.212662	0.348170	0.892436
	H45	H	0.214194	0.655462	0.108825
	H46	H	0.765035	0.348934	0.111267
	H47	H	0.769550	0.658064	0.897610
	H48	H	0.409869	0.112146	0.593362
	H49	H	0.579606	0.890462	0.586461
	H50	H	0.577005	0.113204	0.411425
	H51	H	0.401434	0.892097	0.416543
	H52	H	0.570956	0.413365	0.110574
	H53	H	0.580186	0.591260	0.890280
	H54	H	0.406347	0.590872	0.111186
	H55	H	0.402584	0.415171	0.890521
	H56	H	0.099416	0.591481	0.418663
	H57	H	0.879154	0.592379	0.589795
	H58	H	0.098314	0.417053	0.584873
	H59	H	0.884131	0.421531	0.418339
	H60	H	0.100802	0.417456	0.593790
	H61	H	0.878303	0.590963	0.593571
	H62	H	0.100369	0.585500	0.406452
	H63	H	0.877458	0.416257	0.405262
	H64	H	0.395631	0.593038	0.115377
	H65	H	0.580120	0.589036	0.889934
	H66	H	0.580251	0.411509	0.114383
	H67	H	0.402162	0.414363	0.890433
	H68	H	0.581631	0.114309	0.414667
	H69	H	0.580698	0.888665	0.590334
	H70	H	0.404691	0.109267	0.579959
	H71	H	0.400555	0.890357	0.414312
	H72	H	0.905635	0.610872	0.087381
	H73	H	0.074009	0.391266	0.088820
	H74	H	0.073815	0.611765	0.914630
	H75	H	0.898640	0.389856	0.911212
	H76	H	0.074720	0.919730	0.609080
	H77	H	0.080919	0.087069	0.390495
	H78	H	0.898024	0.094546	0.614961
	H79	H	0.898362	0.913917	0.388630
	H80	H	0.599795	0.091037	0.915284
	H81	H	0.382997	0.085301	0.087096
	H82	H	0.602690	0.904958	0.088327
	H83	H	0.379828	0.917037	0.907118
	H84	H	0.598632	0.916568	0.088078
	H85	H	0.380381	0.087069	0.091484
	H86	H	0.599421	0.085880	0.914034
	H87	H	0.376709	0.906673	0.911838
	H88	H	0.896491	0.087031	0.612422
	H89	H	0.074219	0.087150	0.393756
	H90	H	0.074888	0.911300	0.611739
	H91	H	0.900539	0.913927	0.389449
	H92	H	0.084000	0.614447	0.916622
	H93	H	0.077535	0.390831	0.085095
	H94	H	0.898636	0.612962	0.085527
	H95	H	0.903791	0.391052	0.912190
	H96	H	0.396118	0.116788	0.589773
	H97	H	0.576473	0.891140	0.590143
	H98	H	0.581668	0.115784	0.408896
	H99	H	0.403223	0.891569	0.414192
	H100	H	0.577870	0.420606	0.110953
	H101	H	0.578586	0.589663	0.890547
	H102	H	0.398338	0.582484	0.110409
	H103	H	0.401656	0.415568	0.889999
	H104	H	0.104330	0.598029	0.408019
	H105	H	0.876661	0.594419	0.592754
	H106	H	0.101691	0.409497	0.588846
	H107	H	0.877958	0.407433	0.417794
	H108	H	0.901559	0.614724	0.092101
	H109	H	0.078610	0.389673	0.090037
	H110	H	0.080050	0.616283	0.907114
	H111	H	0.900228	0.391604	0.916010
	H112	H	0.081590	0.916639	0.613149
	H113	H	0.076552	0.092966	0.390004
	H114	H	0.903881	0.090508	0.611217
	H115	H	0.900162	0.911930	0.388549
	H116	H	0.601624	0.089818	0.910904
	H117	H	0.381699	0.090267	0.087139
	H118	H	0.603157	0.912355	0.098873
	H119	H	0.381962	0.914906	0.918589
	C120	C	0.369206	0.010674	0.621716
	C121	C	0.611298	0.992765	0.622145
	C122	C	0.611383	0.010738	0.380164
	C123	C	0.368754	0.993291	0.380164
	C124	C	0.610779	0.381421	0.010368
	C125	C	0.611134	0.622864	0.993237
	C126	C	0.368132	0.622617	0.010067
	C127	C	0.367521	0.380065	0.991553
	C128	C	-0.000557	0.624487	0.378611
	C129	C	0.980807	0.624498	0.622827
	C130	C	-0.001560	0.381747	0.622400
	C131	C	0.981048	0.381438	0.379977
	C132	C	0.868178	0.510828	0.122730
	C133	C	0.110257	0.493155	0.121191
	C134	C	0.111515	0.511419	0.879441
	C135	C	0.868974	0.494030	0.881091
	C136	C	0.110548	0.882667	0.509335
	C137	C	0.110933	0.123830	0.492654
	C138	C	0.867837	0.123532	0.510034
	C139	C	0.868066	0.880789	0.492222
	C140	C	0.499180	0.122042	0.879991
	C141	C	0.482333	0.122482	0.122342
	C142	C	0.498902	0.879267	0.123960
	C143	C	0.481556	0.879865	0.879978
	C144	C	0.364248	0.894063	0.683093
	C145	C	0.614032	0.109717	0.683334
	C146	C	0.612699	0.892799	0.321267
	C147	C	0.365624	0.109745	0.317713
	C148	C	0.673607	0.376816	0.894765
	C149	C	0.671456	0.627134	0.109508
	C150	C	0.307601	0.627272	0.893669
	C151	C	0.304241	0.373941	0.106625
	C152	C	0.883087	0.684394	0.377197
	C153	C	0.097822	0.683886	0.623230
	C154	C	0.882296	0.320998	0.625416
	C155	C	0.096474	0.319751	0.375890
	C156	C	0.881918	0.379603	0.682336
	C157	C	0.097804	0.626418	0.681642
	C158	C	0.883495	0.627875	0.318308
	C159	C	0.096744	0.377995	0.318207
	C160	C	0.365474	0.684626	0.893784
	C161	C	0.612557	0.683016	0.110323
	C162	C	0.615077	0.320193	0.894175
	C163	C	0.362680	0.317271	0.107083
	C164	C	0.670592	0.893097	0.378077
	C165	C	0.672098	0.109918	0.626043
	C166	C	0.305780	0.895227	0.626927
	C167	C	0.307193	0.109444	0.374436
	C168	C	0.864144	0.394337	0.184606
	C169	C	0.114416	0.610099	0.182358
	C170	C	0.113440	0.394340	0.818942
	C171	C	0.867968	0.612200	0.822167
	C172	C	0.173542	0.877792	0.393616
	C173	C	0.173880	0.129923	0.607617
	C174	C	0.808858	0.126368	0.392593
	C175	C	0.807870	0.877558	0.609121
	C176	C	0.384274	0.183865	0.876135
	C177	C	0.597263	0.185655	0.126399
	C178	C	0.381753	0.820313	0.125188
	C179	C	0.598013	0.820286	0.878350
	C180	C	0.382171	0.877811	0.183489
	C181	C	0.597852	0.127062	0.183406
	C182	C	0.383635	0.125443	0.819039
	C183	C	0.597407	0.876871	0.819079
	C184	C	0.866380	0.184169	0.392970
	C185	C	0.114924	0.185791	0.608680
	C186	C	0.114342	0.821688	0.392548
	C187	C	0.866741	0.821322	0.609584
	C188	C	0.172064	0.394756	0.875129
	C189	C	0.172810	0.609231	0.125817
	C190	C	0.805830	0.394986	0.128041
	C191	C	0.809732	0.611452	0.879297
	C192	C	0.395956	0.091701	0.595068
	C193	C	0.585987	0.911472	0.596314
	C194	C	0.587000	0.092902	0.404782
	C195	C	0.394372	0.912470	0.407260
	C196	C	0.583977	0.407714	0.090999
	C197	C	0.586526	0.597187	0.911487
	C198	C	0.392823	0.596375	0.091220
	C199	C	0.394434	0.407290	0.911230
	C200	C	0.080386	0.598897	0.403782
	C201	C	0.899461	0.599787	0.598951
	C202	C	0.079240	0.407448	0.596670
	C203	C	0.900784	0.407678	0.406245
	C204	C	0.894486	0.591747	0.095849
	C205	C	0.084117	0.411767	0.095331
	C206	C	0.086493	0.593060	0.905434
	C207	C	0.894027	0.412150	0.905891
	C208	C	0.084543	0.908594	0.590120
	C209	C	0.084679	0.096570	0.412305
	C210	C	0.892471	0.097999	0.591557
	C211	C	0.892681	0.906089	0.410113
	C212	C	0.579350	0.096065	0.905907
	C213	C	0.402411	0.095325	0.095966
	C214	C	0.580313	0.903994	0.098908
	C215	C	0.400536	0.905338	0.905195
	Zn216	Zn	0.489793	0.001041	0.750242
	Zn217	Zn	0.490581	0.001493	0.252151
	Zn218	Zn	0.739754	0.502305	0.002147
	Zn219	Zn	0.239041	0.501571	0.000706
	Zn220	Zn	-0.009868	0.753029	0.500447
	Zn221	Zn	-0.010126	0.251996	0.501676
	Zn222	Zn	-0.010259	0.502992	0.751760
	Zn223	Zn	-0.010537	0.502302	0.250280
	Zn224	Zn	0.489749	0.750851	0.001890
	Zn225	Zn	0.490147	0.252015	0.001405
	Zn226	Zn	0.739479	0.001962	0.500647
	Zn227	Zn	0.240019	0.003385	0.501298
	N228	N	0.403040	0.967096	0.680161
	N229	N	0.577051	0.035799	0.681362
	N230	N	0.576708	0.967112	0.322204
	N231	N	0.403086	0.036204	0.320700
	N232	N	0.671301	0.414163	0.968235
	N233	N	0.670719	0.590500	0.035566
	N234	N	0.308894	0.589442	0.967094
	N235	N	0.307050	0.412386	0.033662
	N236	N	0.956249	0.682721	0.413869
	N237	N	0.024143	0.682991	0.587499
	N238	N	0.955898	0.321899	0.589000
	N239	N	0.023507	0.321632	0.413581
	N240	N	0.955188	0.416541	0.680797
	N241	N	0.023917	0.590397	0.681822
	N242	N	0.956977	0.591402	0.318997
	N243	N	0.023991	0.415687	0.320590
	N244	N	0.402497	0.681978	0.967211
	N245	N	0.575531	0.680689	0.036735
	N246	N	0.576594	0.322864	0.967025
	N247	N	0.401530	0.320828	0.034437
	N248	N	0.670180	0.967664	0.413813
	N249	N	0.670879	0.036036	0.588942
	N250	N	0.308385	0.969010	0.589460
	N251	N	0.308627	0.035996	0.412199
	N252	N	0.902241	0.467474	0.181571
	N253	N	0.076070	0.536710	0.179747
	N254	N	0.076586	0.468163	0.821265
	N255	N	0.904117	0.537976	0.822897
	N256	N	0.171460	0.915111	0.467207
	N257	N	0.171714	0.092061	0.534386
	N258	N	0.809415	0.089505	0.466525
	N259	N	0.808506	0.913952	0.534844
	N260	N	0.457123	0.181995	0.913513
	N261	N	0.524261	0.183043	0.089241
	N262	N	0.455432	0.821020	0.089032
	N263	N	0.524749	0.821950	0.915394
	N264	N	0.456142	0.913613	0.183066
	N265	N	0.525345	0.088426	0.181277
	N266	N	0.456147	0.087675	0.821127
	N267	N	0.523794	0.912991	0.819656
	N268	N	0.902267	0.182844	0.467116
	N269	N	0.076162	0.181961	0.536237
	N270	N	0.075754	0.824501	0.465481
	N271	N	0.903633	0.823242	0.535820
	N272	N	0.171093	0.468647	0.911928
	N273	N	0.170574	0.535372	0.088556
	N274	N	0.808184	0.468512	0.090209
	N275	N	0.810224	0.536905	0.915240
	O276	O	-0.198154	1.164722	0.139924
	H277	H	-0.190336	1.163733	0.148907
	H278	H	-0.198195	1.161553	0.158823
	O279	O	0.276730	0.718462	0.472046
	H280	H	0.282551	0.734099	0.480819
	H281	H	0.286131	0.728476	0.479842
	O282	O	1.204947	-0.215909	0.976746
	H283	H	1.212568	-0.189752	0.991075
	H284	H	1.229077	-0.236199	0.980704
	O285	O	0.562116	0.437874	0.398944
	H286	H	0.571795	0.435782	0.406991
	H287	H	0.554901	0.459642	0.398122
	O288	O	-0.189600	0.219874	-0.008382
	H289	H	-0.176798	0.222693	0.009013
	H290	H	-0.196160	0.230339	0.002244
	O291	O	0.289174	0.698874	0.304837
	H292	H	0.277980	0.689041	0.327168
	H293	H	0.285967	0.664056	0.318118
	O294	O	1.708747	0.636115	0.491069
	H295	H	1.701415	0.636698	0.506587
	H296	H	1.719314	0.643851	0.495451
	O297	O	0.433027	0.487846	0.618763
	H298	H	0.435952	0.495677	0.619355
	H299	H	0.447929	0.499985	0.631912
	O300	O	-0.037362	0.019556	1.220402
	H301	H	-0.028466	0.011488	1.230283
	H302	H	-0.034486	-0.006598	1.213018
	O303	O	0.691131	0.705132	0.706971
	H304	H	0.716941	0.727061	0.725912
	H305	H	0.677218	0.683936	0.700026
	O306	O	0.271619	0.281606	0.515171
	H307	H	0.250739	0.268822	0.520297
	H308	H	0.283608	0.283136	0.530058
	O309	O	0.521805	0.726449	0.723222
	H310	H	0.541180	0.723827	0.708571
	H311	H	0.528609	0.757180	0.750088
	O312	O	1.014374	0.903757	-0.030978
	H313	H	1.008308	0.911854	-0.019416
	H314	H	1.016144	0.907478	-0.010400
	O315	O	0.718220	0.566152	0.726847
	H316	H	0.731007	0.568262	0.736494
	H317	H	0.722621	0.571030	0.722914
	O318	O	0.464820	0.500544	0.607348
	H319	H	0.458901	0.502020	0.618958
	H320	H	0.457562	0.508337	0.595512
	O321	O	0.204803	1.119773	0.966011
	H322	H	0.218956	1.144553	0.976875
	H323	H	0.184929	1.119905	0.982161
	O324	O	1.213294	1.023303	0.216847
	H325	H	1.226924	1.030068	0.243522
	H326	H	1.211930	1.049780	0.226236
	O327	O	0.494860	-0.299274	0.440332
	H328	H	0.479330	-0.307646	0.441852
	H329	H	0.494308	-0.288355	0.425899
	O330	O	0.422557	0.437841	0.269005
	H331	H	0.444737	0.463647	0.269854
	H332	H	0.428824	0.423846	0.274220
	O333	O	0.706831	0.291068	0.409282
	H334	H	0.702271	0.305594	0.409184
	H335	H	0.717123	0.280855	0.415819
	O336	O	0.948125	0.088049	0.082198
	H337	H	0.941998	0.096452	0.081444
	H338	H	0.933006	0.087090	0.083460
	O339	O	0.997847	0.193589	0.819328
	H340	H	0.994147	0.179004	0.816986
	H341	H	0.995984	0.210137	0.793979
	O342	O	0.430376	-0.729302	0.441109
	H343	H	0.433577	-0.721936	0.441147
	H344	H	0.422589	-0.728301	0.451639
	O345	O	0.148576	0.988806	1.047946
	H346	H	0.153980	0.996618	1.072992
	H347	H	0.144752	1.007477	1.035926
	O348	O	0.440228	0.338330	0.677074
	H349	H	0.442223	0.322145	0.694351
	H350	H	0.457342	0.352543	0.671749
	O351	O	0.253252	0.449647	0.435501
	H352	H	0.244237	0.429842	0.431662
	H353	H	0.261212	0.456748	0.440682
	O354	O	-0.197996	-0.071013	0.959848
	H355	H	-0.202336	-0.052808	0.959683
	H356	H	-0.201383	-0.058237	0.959597
	O357	O	0.174417	0.827563	0.180525
	H358	H	0.183513	0.813902	0.184173
	H359	H	0.163756	0.836171	0.178505
	O360	O	0.543311	0.540269	0.282591
	H361	H	0.549155	0.553692	0.293232
	H362	H	0.556398	0.572994	0.272943
	O363	O	0.025271	0.214610	0.222699
	H364	H	0.020331	0.212134	0.220145
	H365	H	0.018543	0.229084	0.235761
	O366	O	0.632461	0.562398	0.604320
	H367	H	0.629802	0.571175	0.604600
	H368	H	0.620645	0.554311	0.602655
	O369	O	0.883517	0.071984	-0.063258
	H370	H	0.882250	0.079975	-0.063748
	H371	H	0.884313	0.077932	-0.055384
	O372	O	1.033103	0.784693	-0.223021
	H373	H	1.028407	0.788867	-0.225823
	H374	H	1.016183	0.772649	-0.233576
	O375	O	1.055068	0.218149	-0.022680
	H376	H	1.057303	0.213374	-0.055970
	H377	H	1.058060	0.196726	-0.019481
	O378	O	0.712750	0.499043	0.348216
	H379	H	0.717286	0.505417	0.338950
	H380	H	0.710809	0.501869	0.346914
	O381	O	0.636811	0.380201	0.612896
	H382	H	0.632246	0.385585	0.621194
	H383	H	0.637057	0.387505	0.623723
	O384	O	1.031981	0.056156	0.871396
	H385	H	1.035306	0.060767	0.887398
	H386	H	1.053700	0.065936	0.854858
	O387	O	0.779369	0.794345	0.032515
	H388	H	0.758108	0.789657	0.027446
	H389	H	0.779169	0.812584	0.028024
	O390	O	0.199919	0.192714	0.137817
	H391	H	0.186414	0.198981	0.119305
	H392	H	0.207711	0.212221	0.148610
	O393	O	0.542873	0.528545	0.632159
	H394	H	0.559205	0.538808	0.628591
	H395	H	0.530827	0.522643	0.634784
	O396	O	-0.035716	0.783215	1.223543
	H397	H	-0.035228	0.757577	1.241611
	H398	H	-0.044599	0.775416	1.208392
	O399	O	-0.218181	-0.203649	1.207800
	H400	H	-0.214355	-0.204985	1.176572
	H401	H	-0.212784	-0.191120	1.215538
	O402	O	0.466578	0.693751	0.306321
	H403	H	0.429772	0.689302	0.322974
	H404	H	0.457831	0.723026	0.277026
	O405	O	1.007951	0.025063	0.939565
	H406	H	1.015282	0.039884	0.937809
	H407	H	1.019319	0.033999	0.940080
	O408	O	0.045083	-0.128145	0.088228
	H409	H	0.047836	-0.130290	0.081076
	H410	H	0.055849	-0.137206	0.080893
	O411	O	0.077814	0.903897	0.864057
	H412	H	0.060712	0.915428	0.862878
	H413	H	0.083744	0.916462	0.893133
	O414	O	1.399383	0.377370	1.403591
	H415	H	1.391135	0.371039	1.402719
	H416	H	1.406926	0.390023	1.403750
	O417	O	0.517570	0.284509	0.282013
	H418	H	0.506161	0.294686	0.298198
	H419	H	0.517830	0.260637	0.255832
	O420	O	-0.231873	-0.029297	0.221581
	H421	H	-0.247972	-0.024917	0.234057
	H422	H	-0.230960	-0.039651	0.224714
	O423	O	-0.163370	0.024946	1.091635
	H424	H	-0.159535	0.014716	1.107294
	H425	H	-0.162137	0.041429	1.096265
	O426	O	0.273305	0.534427	0.283253
	H427	H	0.278175	0.519141	0.275868
	H428	H	0.270184	0.517975	0.274639
	O429	O	1.254938	1.267513	1.263297
	H430	H	1.269583	1.268241	1.253862
	H431	H	1.239431	1.275178	1.274807
	O432	O	0.545979	0.273764	0.563149
	H433	H	0.558935	0.271552	0.555748
	H434	H	0.543431	0.281772	0.567559
	O435	O	0.419293	0.577327	0.467878
	H436	H	0.422412	0.579923	0.477189
	H437	H	0.425083	0.577736	0.456236
	O438	O	-0.186859	-0.172501	-0.191871
	H439	H	-0.165524	-0.152131	-0.179888
	H440	H	-0.183469	-0.157545	-0.175669
	O441	O	0.698706	0.368134	0.297806
	H442	H	0.698082	0.379200	0.307531
	H443	H	0.675381	0.364221	0.293685
	O444	O	0.494219	0.447844	0.671599
	H445	H	0.487539	0.445456	0.681472
	H446	H	0.499236	0.441072	0.683918
	O447	O	-0.050570	1.106794	0.833483
	H448	H	-0.051397	1.103213	0.837173
	H449	H	-0.037116	1.103443	0.818031
	O450	O	0.226669	1.040941	0.958460
	H451	H	0.221965	1.056319	0.967107
	H452	H	0.226421	1.059720	0.948363
	O453	O	0.676307	0.316066	0.678955
	H454	H	0.687261	0.299777	0.700878
	H455	H	0.661470	0.327168	0.659823
	O456	O	-0.231902	0.025597	0.781808
	H457	H	-0.230524	0.025146	0.760637
	H458	H	-0.230736	0.035807	0.774012
	O459	O	1.200641	0.982591	-0.220214
	H460	H	1.221403	0.974253	-0.228846
	H461	H	1.212485	0.966872	-0.221039
	O462	O	0.684001	0.688993	0.313118
	H463	H	0.702270	0.682806	0.313506
	H464	H	0.676889	0.694538	0.318699
	O465	O	1.212653	0.218776	-0.209329
	H466	H	1.211578	0.224041	-0.194213
	H467	H	1.240537	0.248082	-0.234945
	O468	O	0.288601	0.321196	0.681863
	H469	H	0.291425	0.353360	0.672038
	H470	H	0.314771	0.328315	0.661683
	O471	O	0.273960	0.472732	0.718028
	H472	H	0.260017	0.481863	0.730425
	H473	H	0.269030	0.480227	0.709043
	O474	O	0.355133	0.714284	0.617501
	H475	H	0.365201	0.708629	0.605873
	H476	H	0.352385	0.731473	0.637964
	O477	O	0.254525	0.561269	1.563073
	H478	H	0.256133	0.567906	1.552203
	H479	H	0.259320	0.570402	1.559464
	O480	O	0.546836	0.704369	0.433457
	H481	H	0.548843	0.708019	0.419975
	H482	H	0.557546	0.706472	0.425648
	O483	O	0.256753	0.737087	0.742516
	H484	H	0.226650	0.746947	0.744594
	H485	H	0.260564	0.738310	0.768303
	O486	O	0.958595	-0.179768	0.961335
	H487	H	0.963174	-0.177526	0.964783
	H488	H	0.954716	-0.179480	0.962537
	O489	O	0.816559	1.034723	0.098905
	H490	H	0.835325	1.027183	0.089368
	H491	H	0.828854	1.056852	0.105430
	O492	O	-0.218083	0.207757	-0.206557
	H493	H	-0.227601	0.209079	-0.174322
	H494	H	-0.200346	0.188247	-0.202151
	O495	O	0.040808	0.906447	1.163174
	H496	H	0.043235	0.889341	1.163460
	H497	H	0.044596	0.902721	1.162264
	O498	O	1.008463	1.042984	0.783364
	H499	H	1.030729	1.048070	0.779816
	H500	H	1.013096	1.038703	0.785774
	O501	O	0.714910	0.522145	0.548670
	H502	H	0.722018	0.523071	0.551120
	H503	H	0.705331	0.517812	0.553034
