data_Molecule from HDF5

_cell_length_a		16.320777
_cell_length_b		16.511895
_cell_length_c		16.276907
_cell_angle_alpha	89.950943
_cell_angle_beta	90.166763
_cell_angle_gamma	90.459671
_symmetry_space_group_name_H-M	'P 1'
_symmetry_Int_Tables_number		1

loop_
	_symmetry_equiv_pos_as_xyz
	x,y,z

loop_
	_atom_site_label
	_atom_site_type_symbol
	_atom_site_fract_x
	_atom_site_fract_y
	_atom_site_fract_z
	H0	H	0.393978	0.835662	0.719735
	H1	H	0.602699	0.154927	0.720598
	H2	H	0.602682	0.836350	0.279377
	H3	H	0.396004	0.153782	0.279475
	H4	H	0.716391	0.392435	0.837724
	H5	H	0.717595	0.595939	0.161346
	H6	H	0.281003	0.593229	0.839697
	H7	H	0.282643	0.391127	0.163345
	H8	H	0.838251	0.715142	0.395781
	H9	H	0.158434	0.720380	0.610167
	H10	H	0.841590	0.270972	0.610509
	H11	H	0.159838	0.276776	0.397298
	H12	H	0.837650	0.394397	0.718027
	H13	H	0.161849	0.597834	0.718997
	H14	H	0.839657	0.599516	0.279788
	H15	H	0.161081	0.394691	0.284820
	H16	H	0.391381	0.713824	0.840240
	H17	H	0.607662	0.716882	0.159248
	H18	H	0.599591	0.276783	0.837705
	H19	H	0.394490	0.273403	0.160864
	H20	H	0.721332	0.838345	0.394918
	H21	H	0.719908	0.155557	0.604432
	H22	H	0.276218	0.837409	0.604719
	H23	H	0.279238	0.154257	0.394143
	H24	H	0.897429	0.336038	0.221199
	H25	H	0.106072	0.654661	0.221422
	H26	H	0.098648	0.335951	0.783519
	H27	H	0.897650	0.654966	0.781473
	H28	H	0.214101	0.896408	0.339308
	H29	H	0.218834	0.096959	0.662882
	H30	H	0.783736	0.097206	0.339913
	H31	H	0.780047	0.892569	0.662452
	H32	H	0.336988	0.211163	0.895467
	H33	H	0.658398	0.214675	0.103862
	H34	H	0.338995	0.771952	0.103461
	H35	H	0.659002	0.774768	0.894162
	H36	H	0.336595	0.890375	0.217405
	H37	H	0.659541	0.096582	0.217599
	H38	H	0.336627	0.091893	0.783034
	H39	H	0.661072	0.895754	0.783298
	H40	H	0.898232	0.214871	0.342195
	H41	H	0.106154	0.215001	0.662681
	H42	H	0.105134	0.774362	0.341828
	H43	H	0.892933	0.774389	0.661650
	H44	H	0.212362	0.334024	0.901470
	H45	H	0.222874	0.652434	0.104827
	H46	H	0.780005	0.335155	0.103193
	H47	H	0.778584	0.652978	0.895452
	H48	H	0.418195	0.107313	0.594551
	H49	H	0.592125	0.883321	0.585795
	H50	H	0.593367	0.111462	0.401543
	H51	H	0.408557	0.883867	0.413766
	H52	H	0.586589	0.400380	0.114617
	H53	H	0.586589	0.587071	0.884497
	H54	H	0.418664	0.579672	0.111536
	H55	H	0.406041	0.399125	0.883880
	H56	H	0.115300	0.591080	0.412820
	H57	H	0.884221	0.584305	0.595920
	H58	H	0.113402	0.404867	0.589871
	H59	H	0.887327	0.405125	0.415546
	H60	H	0.115056	0.407806	0.595073
	H61	H	0.884842	0.590779	0.588240
	H62	H	0.111142	0.587580	0.417771
	H63	H	0.886415	0.406968	0.412630
	H64	H	0.413607	0.589550	0.116872
	H65	H	0.590359	0.583516	0.884985
	H66	H	0.591501	0.403060	0.115443
	H67	H	0.403904	0.401992	0.883963
	H68	H	0.579511	0.104506	0.409669
	H69	H	0.591916	0.880860	0.595094
	H70	H	0.409309	0.105477	0.582180
	H71	H	0.402018	0.881286	0.409734
	H72	H	0.908582	0.606245	0.083749
	H73	H	0.093371	0.377460	0.103416
	H74	H	0.093766	0.608942	0.913890
	H75	H	0.911152	0.380664	0.903138
	H76	H	0.086693	0.903960	0.616508
	H77	H	0.090602	0.078808	0.388863
	H78	H	0.912512	0.086511	0.616926
	H79	H	0.916801	0.908586	0.389860
	H80	H	0.614186	0.091308	0.911556
	H81	H	0.384953	0.081239	0.085562
	H82	H	0.614343	0.902774	0.091673
	H83	H	0.385814	0.899975	0.914178
	H84	H	0.610964	0.904529	0.084071
	H85	H	0.381524	0.083263	0.094078
	H86	H	0.612256	0.085815	0.913959
	H87	H	0.385564	0.906105	0.909625
	H88	H	0.909220	0.086118	0.617800
	H89	H	0.078871	0.092527	0.388145
	H90	H	0.091454	0.909778	0.615888
	H91	H	0.910608	0.899458	0.385380
	H92	H	0.091981	0.609263	0.910000
	H93	H	0.080312	0.384741	0.094627
	H94	H	0.905322	0.610467	0.094309
	H95	H	0.911673	0.385234	0.916217
	H96	H	0.403801	0.111707	0.595321
	H97	H	0.583836	0.884361	0.591270
	H98	H	0.595069	0.106432	0.419078
	H99	H	0.409097	0.881864	0.406279
	H100	H	0.587035	0.406360	0.112926
	H101	H	0.585837	0.582124	0.886765
	H102	H	0.406898	0.579591	0.114890
	H103	H	0.407414	0.401650	0.885040
	H104	H	0.112996	0.584985	0.411564
	H105	H	0.888329	0.581885	0.587383
	H106	H	0.115957	0.402069	0.594312
	H107	H	0.885046	0.404018	0.413329
	H108	H	0.916431	0.606105	0.093193
	H109	H	0.094814	0.381062	0.087100
	H110	H	0.089557	0.607212	0.913477
	H111	H	0.899201	0.380016	0.911101
	H112	H	0.084616	0.909310	0.614224
	H113	H	0.096098	0.094653	0.381979
	H114	H	0.910857	0.083625	0.617204
	H115	H	0.905505	0.909916	0.386709
	H116	H	0.613851	0.086645	0.908300
	H117	H	0.382207	0.089919	0.087444
	H118	H	0.611347	0.910327	0.090201
	H119	H	0.382375	0.899581	0.907148
	C120	C	0.377781	0.003453	0.621991
	C121	C	0.621451	0.987524	0.622677
	C122	C	0.621153	0.003606	0.378201
	C123	C	0.376136	0.986956	0.378119
	C124	C	0.618907	0.373365	0.007514
	C125	C	0.620610	0.616168	0.991140
	C126	C	0.379911	0.613660	0.008337
	C127	C	0.376354	0.371220	0.991847
	C128	C	0.007407	0.618477	0.380796
	C129	C	0.991542	0.617842	0.623064
	C130	C	0.008662	0.373417	0.624338
	C131	C	0.991851	0.375250	0.382451
	C132	C	0.878483	0.502681	0.122134
	C133	C	0.122293	0.486214	0.124914
	C134	C	0.120301	0.503059	0.881430
	C135	C	0.876968	0.486943	0.878399
	C136	C	0.119025	0.875906	0.509551
	C137	C	0.121557	0.118487	0.492871
	C138	C	0.879750	0.116707	0.510709
	C139	C	0.878216	0.874294	0.493405
	C140	C	0.506702	0.116280	0.879379
	C141	C	0.489502	0.115820	0.120713
	C142	C	0.506415	0.873458	0.120478
	C143	C	0.490522	0.872419	0.878391
	C144	C	0.375619	0.883760	0.680785
	C145	C	0.622345	0.107279	0.681411
	C146	C	0.621884	0.884328	0.318665
	C147	C	0.376442	0.106346	0.318696
	C148	C	0.676824	0.373670	0.885903
	C149	C	0.679463	0.616145	0.112531
	C150	C	0.320210	0.613166	0.887780
	C151	C	0.319946	0.371358	0.113983
	C152	C	0.887060	0.676330	0.377453
	C153	C	0.111005	0.679235	0.626970
	C154	C	0.888803	0.312437	0.627417
	C155	C	0.112029	0.316683	0.380008
	C156	C	0.886937	0.373706	0.681156
	C157	C	0.112843	0.618186	0.681226
	C158	C	0.887400	0.618503	0.319728
	C159	C	0.112886	0.375835	0.324108
	C160	C	0.375556	0.673004	0.887988
	C161	C	0.624503	0.676161	0.111354
	C162	C	0.619183	0.315640	0.886022
	C163	C	0.375831	0.312821	0.112901
	C164	C	0.680892	0.885146	0.376442
	C165	C	0.680606	0.107485	0.623680
	C166	C	0.316972	0.884329	0.623281
	C167	C	0.318499	0.106590	0.376237
	C168	C	0.877870	0.383339	0.181210
	C169	C	0.124780	0.606398	0.182553
	C170	C	0.118428	0.383503	0.822819
	C171	C	0.877636	0.606910	0.820238
	C172	C	0.176469	0.875942	0.387789
	C173	C	0.180399	0.117374	0.614266
	C174	C	0.822182	0.116874	0.388865
	C175	C	0.818711	0.873036	0.613956
	C176	C	0.385507	0.172524	0.877218
	C177	C	0.610547	0.174756	0.122051
	C178	C	0.386319	0.812713	0.121929
	C179	C	0.611232	0.814537	0.876184
	C180	C	0.385334	0.871530	0.178865
	C181	C	0.610939	0.115949	0.178747
	C182	C	0.385092	0.113148	0.821336
	C183	C	0.612280	0.874814	0.821233
	C184	C	0.879072	0.175312	0.389794
	C185	C	0.124132	0.175740	0.614362
	C186	C	0.121973	0.815413	0.389349
	C187	C	0.875082	0.814376	0.613666
	C188	C	0.175035	0.382371	0.881779
	C189	C	0.182724	0.605374	0.124492
	C190	C	0.819822	0.382831	0.122340
	C191	C	0.818263	0.605946	0.876858
	C192	C	0.403148	0.086362	0.597575
	C193	C	0.596575	0.904570	0.597776
	C194	C	0.596564	0.086181	0.403031
	C195	C	0.399678	0.903782	0.402861
	C196	C	0.595207	0.396555	0.092152
	C197	C	0.594959	0.591325	0.907198
	C198	C	0.405691	0.589719	0.092491
	C199	C	0.399058	0.394382	0.906741
	C200	C	0.091402	0.594812	0.406569
	C201	C	0.907447	0.592950	0.597875
	C202	C	0.092952	0.397885	0.600041
	C203	C	0.908193	0.398629	0.406848
	C204	C	0.903035	0.586010	0.097557
	C205	C	0.096852	0.402779	0.101753
	C206	C	0.098136	0.586777	0.905474
	C207	C	0.900452	0.403640	0.903020
	C208	C	0.094503	0.900570	0.593610
	C209	C	0.095998	0.095240	0.408318
	C210	C	0.903961	0.092597	0.595432
	C211	C	0.903536	0.899058	0.409221
	C212	C	0.591457	0.094140	0.904058
	C213	C	0.404958	0.091724	0.096266
	C214	C	0.590451	0.898635	0.095706
	C215	C	0.406438	0.895277	0.903126
	Zn216	Zn	0.499299	-0.004995	0.751382
	Zn217	Zn	0.497747	-0.005414	0.249257
	Zn218	Zn	0.747924	0.494177	-0.000048
	Zn219	Zn	0.250222	0.493490	0.001736
	Zn220	Zn	-0.000737	0.746514	0.501967
	Zn221	Zn	0.000476	0.245646	0.502875
	Zn222	Zn	-0.000121	0.496233	0.750716
	Zn223	Zn	-0.000064	0.495967	0.253091
	Zn224	Zn	0.499313	0.743802	-0.000151
	Zn225	Zn	0.498016	0.244441	-0.000363
	Zn226	Zn	0.750895	-0.003737	0.501038
	Zn227	Zn	0.248116	-0.003719	0.500646
	N228	N	0.412685	0.958669	0.680041
	N229	N	0.586228	0.031779	0.681083
	N230	N	0.585272	0.958996	0.319711
	N231	N	0.411500	0.030957	0.319575
	N232	N	0.676633	0.409122	0.962288
	N233	N	0.677302	0.579505	0.036721
	N234	N	0.323022	0.576666	0.963684
	N235	N	0.320029	0.406830	0.037490
	N236	N	0.962778	0.676375	0.414577
	N237	N	0.034413	0.679005	0.591577
	N238	N	0.965572	0.312198	0.592787
	N239	N	0.036065	0.316503	0.416001
	N240	N	0.962569	0.410877	0.679475
	N241	N	0.037317	0.580947	0.679145
	N242	N	0.963543	0.583375	0.321586
	N243	N	0.037247	0.411934	0.325290
	N244	N	0.412149	0.673286	0.964009
	N245	N	0.588664	0.676186	0.034897
	N246	N	0.583503	0.315684	0.962378
	N247	N	0.409906	0.312271	0.035855
	N248	N	0.680489	0.960135	0.412727
	N249	N	0.680271	0.032067	0.587909
	N250	N	0.317973	0.959793	0.587568
	N251	N	0.318013	0.031340	0.412421
	N252	N	0.913375	0.458946	0.181306
	N253	N	0.087806	0.531345	0.182996
	N254	N	0.085046	0.459496	0.822428
	N255	N	0.913322	0.531851	0.821086
	N256	N	0.174860	0.912805	0.463511
	N257	N	0.178950	0.082544	0.537657
	N258	N	0.822638	0.081210	0.465138
	N259	N	0.820260	0.909302	0.537864
	N260	N	0.462014	0.174319	0.912608
	N261	N	0.533821	0.174954	0.086897
	N262	N	0.462656	0.813787	0.086558
	N263	N	0.534470	0.812926	0.910987
	N264	N	0.461291	0.908370	0.178230
	N265	N	0.534734	0.080204	0.177991
	N266	N	0.461553	0.078892	0.822576
	N267	N	0.536273	0.909797	0.822222
	N268	N	0.913637	0.175438	0.466895
	N269	N	0.088391	0.176610	0.537853
	N270	N	0.087096	0.815321	0.466104
	N271	N	0.911080	0.815064	0.537517
	N272	N	0.176377	0.457754	0.917545
	N273	N	0.181557	0.529547	0.089867
	N274	N	0.819915	0.458292	0.086577
	N275	N	0.817729	0.530426	0.912296
	O276	O	1.092547	1.026899	-0.115243
	H277	H	1.095497	1.030262	-0.110633
	H278	H	1.092590	1.037874	-0.100573
	O279	O	0.498205	0.514456	0.624844
	H280	H	0.506346	0.517701	0.614489
	H281	H	0.501234	0.511329	0.622107
	O282	O	0.706311	0.635749	0.576499
	H283	H	0.717300	0.653981	0.585639
	H284	H	0.701552	0.660363	0.570445
	O285	O	0.945705	-0.092640	0.180934
	H286	H	0.944376	-0.080886	0.176227
	H287	H	0.942957	-0.091283	0.181287
	O288	O	-0.181726	0.013747	0.811931
	H289	H	-0.187087	0.022298	0.816047
	H290	H	-0.194461	0.004512	0.815141
	O291	O	0.471302	0.316516	0.414367
	H292	H	0.481095	0.307040	0.407461
	H293	H	0.476093	0.307365	0.433786
	O294	O	0.688828	0.664798	0.672365
	H295	H	0.691583	0.638051	0.676811
	H296	H	0.702454	0.678239	0.645184
	O297	O	0.893405	0.865155	1.116870
	H298	H	0.874483	0.871099	1.111496
	H299	H	0.887722	0.847483	1.128898
	O300	O	0.075731	0.093268	0.146519
	H301	H	0.066120	0.085427	0.147439
	H302	H	0.088473	0.102606	0.139343
	O303	O	0.311536	0.309502	0.651437
	H304	H	0.319785	0.305053	0.650758
	H305	H	0.314199	0.326114	0.669720
	O306	O	0.915236	0.012949	0.030647
	H307	H	0.910065	0.021025	0.032614
	H308	H	0.915141	0.004107	0.022642
	O309	O	0.525221	0.665099	0.365877
	H310	H	0.513049	0.669255	0.352329
	H311	H	0.512259	0.658924	0.364511
	O312	O	1.148737	1.177338	-0.023079
	H313	H	1.141844	1.154982	-0.014666
	H314	H	1.152731	1.188868	-0.021911
	O315	O	0.474366	0.539752	0.546375
	H316	H	0.469131	0.552165	0.535191
	H317	H	0.486368	0.553373	0.556318
	O318	O	0.494217	0.574046	0.442157
	H319	H	0.483620	0.587305	0.442084
	H320	H	0.488531	0.577817	0.448425
	O321	O	1.091928	-0.015071	1.071286
	H322	H	1.087457	-0.015459	1.078424
	H323	H	1.099327	-0.000595	1.066361
	O324	O	0.511344	0.477162	0.672796
	H325	H	0.522281	0.471558	0.672546
	H326	H	0.505728	0.472231	0.685867
	O327	O	0.431487	0.667605	0.475172
	H328	H	0.438039	0.673896	0.488621
	H329	H	0.424680	0.666793	0.473032
	O330	O	0.342535	0.413885	0.510668
	H331	H	0.335638	0.402969	0.501425
	H332	H	0.353276	0.424075	0.524411
	O333	O	1.131445	0.895772	0.990617
	H334	H	1.135612	0.896039	1.003671
	H335	H	1.120563	0.886482	0.994588
	O336	O	0.639240	0.543402	0.547602
	H337	H	0.634775	0.533895	0.552365
	H338	H	0.641476	0.550326	0.566158
	O339	O	1.023400	-0.067625	0.807567
	H340	H	1.013260	-0.070527	0.799293
	H341	H	1.049884	-0.058937	0.808519
	O342	O	-0.014864	1.036563	0.894270
	H343	H	0.001217	1.025277	0.892655
	H344	H	-0.021670	1.033200	0.907552
	O345	O	-0.110215	1.069219	1.041930
	H346	H	-0.100477	1.060492	1.042706
	H347	H	-0.107790	1.073437	1.047761
	O348	O	0.315828	0.454860	0.474097
	H349	H	0.300794	0.470590	0.457922
	H350	H	0.318028	0.445119	0.484004
	O351	O	0.359536	-0.342131	-0.611276
	H352	H	0.346516	-0.334732	-0.618692
	H353	H	0.352473	-0.348930	-0.610433
	O354	O	1.114463	0.961867	0.032413
	H355	H	1.112190	0.966262	0.037009
	H356	H	1.113103	0.964129	0.048423
	O357	O	-0.169744	1.157844	-0.027391
	H358	H	-0.156792	1.161360	-0.026119
	H359	H	-0.166113	1.165829	-0.032961
	O360	O	0.176327	1.134399	1.152930
	H361	H	0.162374	1.145958	1.138190
	H362	H	0.176785	1.131907	1.155737
	O363	O	0.704550	0.446158	0.324053
	H364	H	0.692623	0.464711	0.329395
	H365	H	0.727299	0.445436	0.309362
	O366	O	0.450277	0.487937	0.374532
	H367	H	0.441749	0.484977	0.369317
	H368	H	0.442210	0.504649	0.379004
	O369	O	0.624174	0.496869	0.406666
	H370	H	0.635732	0.497798	0.407291
	H371	H	0.621341	0.499315	0.434794
	O372	O	0.514768	0.689686	0.711990
	H373	H	0.519978	0.713069	0.732435
	H374	H	0.546189	0.686806	0.714308
	O375	O	0.516342	0.313367	0.626002
	H376	H	0.520583	0.301217	0.632937
	H377	H	0.518614	0.322784	0.610621
	O378	O	0.459103	0.575490	0.319183
	H379	H	0.447821	0.574131	0.306566
	H380	H	0.438849	0.572271	0.324894
	O381	O	0.690382	0.305254	0.302816
	H382	H	0.656895	0.302785	0.314089
	H383	H	0.687766	0.333513	0.301991
	O384	O	-0.043149	0.985633	1.182078
	H385	H	-0.032529	0.984190	1.176760
	H386	H	-0.054344	0.973991	1.199461
	O387	O	0.876336	0.794526	0.094183
	H388	H	0.868076	0.793214	0.107348
	H389	H	0.861642	0.780421	0.094339
	O390	O	0.527938	0.372117	0.315550
	H391	H	0.519851	0.363951	0.306322
	H392	H	0.514130	0.380338	0.325353
	O393	O	0.816205	0.085317	1.135026
	H394	H	0.804307	0.103798	1.137316
	H395	H	0.813976	0.089430	1.131783
	O396	O	0.083706	0.817145	0.903468
	H397	H	0.074027	0.823056	0.886602
	H398	H	0.076142	0.812967	0.886834
	O399	O	0.653225	0.285380	0.477474
	H400	H	0.676651	0.272557	0.473417
	H401	H	0.654551	0.282850	0.449254
	O402	O	0.996086	0.121921	0.904609
	H403	H	0.995509	0.127935	0.890571
	H404	H	1.013696	0.118544	0.913642
	O405	O	-0.033898	-0.037359	0.017242
	H406	H	-0.034665	-0.045727	0.017749
	H407	H	-0.029911	-0.035397	0.016417
	O408	O	0.631132	1.452523	0.572745
	H409	H	0.625456	1.434883	0.569123
	H410	H	0.633264	1.450359	0.568517
	O411	O	0.980317	1.046102	0.005160
	H412	H	0.973976	1.054643	-0.008463
	H413	H	0.979770	1.046940	0.003269
	O414	O	-0.701258	-0.663336	1.497464
	H415	H	-0.705478	-0.684009	1.503434
	H416	H	-0.707020	-0.662080	1.524177
	O417	O	0.427286	0.559320	0.620114
	H418	H	0.444778	0.572872	0.622362
	H419	H	0.429502	0.538477	0.638041
	O420	O	-0.088004	0.927571	-0.088528
	H421	H	-0.070148	0.930309	-0.094392
	H422	H	-0.079416	0.922427	-0.087874
	O423	O	1.162483	-0.099316	-0.118361
	H424	H	1.151286	-0.096929	-0.120551
	H425	H	1.175351	-0.103603	-0.098070
	O426	O	-0.030332	-0.157286	1.056059
	H427	H	-0.052639	-0.170132	1.049339
	H428	H	-0.041324	-0.153992	1.054095
	O429	O	0.361914	0.624577	0.488742
	H430	H	0.365285	0.635945	0.477385
	H431	H	0.344264	0.613422	0.487935
