data_Molecule from HDF5

_cell_length_a		16.777874
_cell_length_b		16.564924
_cell_length_c		16.618990
_cell_angle_alpha	89.939817
_cell_angle_beta	89.866822
_cell_angle_gamma	89.959123
_symmetry_space_group_name_H-M	'P 1'
_symmetry_Int_Tables_number		1

loop_
	_symmetry_equiv_pos_as_xyz
	x,y,z

loop_
	_atom_site_label
	_atom_site_type_symbol
	_atom_site_fract_x
	_atom_site_fract_y
	_atom_site_fract_z
	H0	H	0.379928	0.848091	0.730766
	H1	H	0.590091	0.158027	0.728244
	H2	H	0.592449	0.847691	0.286673
	H3	H	0.380174	0.157278	0.286040
	H4	H	0.708394	0.396009	0.855637
	H5	H	0.709862	0.613780	0.162752
	H6	H	0.265153	0.609060	0.852741
	H7	H	0.257706	0.391823	0.160195
	H8	H	0.831698	0.722664	0.406796
	H9	H	0.142322	0.721857	0.611129
	H10	H	0.828636	0.287311	0.608533
	H11	H	0.141119	0.282366	0.404172
	H12	H	0.828623	0.403589	0.725188
	H13	H	0.142141	0.604581	0.726843
	H14	H	0.832246	0.607604	0.288596
	H15	H	0.140495	0.398104	0.286948
	H16	H	0.383690	0.722734	0.852620
	H17	H	0.591130	0.725835	0.164326
	H18	H	0.590601	0.282257	0.855342
	H19	H	0.374038	0.275889	0.160595
	H20	H	0.710594	0.849060	0.399493
	H21	H	0.705253	0.159066	0.611859
	H22	H	0.261387	0.850251	0.618928
	H23	H	0.264166	0.157713	0.401456
	H24	H	0.882630	0.347116	0.228730
	H25	H	0.091044	0.659390	0.228974
	H26	H	0.086113	0.344922	0.791788
	H27	H	0.884502	0.661739	0.792389
	H28	H	0.211922	0.894840	0.354724
	H29	H	0.205136	0.107318	0.664467
	H30	H	0.768624	0.105525	0.351089
	H31	H	0.766997	0.899810	0.664308
	H32	H	0.334328	0.225802	0.901783
	H33	H	0.638501	0.226084	0.115810
	H34	H	0.331701	0.780690	0.115649
	H35	H	0.638217	0.778534	0.901523
	H36	H	0.333419	0.894493	0.234137
	H37	H	0.637847	0.111125	0.233488
	H38	H	0.334896	0.109876	0.784946
	H39	H	0.638150	0.893530	0.784338
	H40	H	0.887082	0.219302	0.350076
	H41	H	0.085677	0.219164	0.666140
	H42	H	0.091599	0.783412	0.352445
	H43	H	0.886112	0.787496	0.666337
	H44	H	0.205759	0.346807	0.903697
	H45	H	0.207042	0.659122	0.113688
	H46	H	0.764589	0.348461	0.115522
	H47	H	0.766603	0.660084	0.906044
	H48	H	0.396451	0.116414	0.598246
	H49	H	0.578147	0.889282	0.596295
	H50	H	0.575319	0.112650	0.425655
	H51	H	0.401004	0.894129	0.424715
	H52	H	0.570487	0.415056	0.119858
	H53	H	0.572948	0.593151	0.898452
	H54	H	0.396069	0.594766	0.121795
	H55	H	0.400952	0.422373	0.902430
	H56	H	0.095539	0.593740	0.423977
	H57	H	0.875754	0.593330	0.599833
	H58	H	0.095533	0.412428	0.597006
	H59	H	0.874195	0.415943	0.412241
	H60	H	0.098173	0.412857	0.605475
	H61	H	0.872567	0.596107	0.604408
	H62	H	0.096310	0.586206	0.418103
	H63	H	0.873529	0.405403	0.420354
	H64	H	0.390213	0.589564	0.121432
	H65	H	0.577939	0.590924	0.897327
	H66	H	0.575305	0.415385	0.122199
	H67	H	0.401590	0.409630	0.898263
	H68	H	0.581503	0.116710	0.418705
	H69	H	0.577122	0.890376	0.598024
	H70	H	0.400619	0.114340	0.596721
	H71	H	0.395284	0.891102	0.424789
	H72	H	0.896137	0.616227	0.096391
	H73	H	0.074240	0.391673	0.097084
	H74	H	0.077118	0.617288	0.915610
	H75	H	0.894211	0.391978	0.922908
	H76	H	0.075941	0.914164	0.619169
	H77	H	0.080287	0.098812	0.392813
	H78	H	0.895681	0.102830	0.622286
	H79	H	0.896594	0.913649	0.395057
	H80	H	0.596099	0.087150	0.918386
	H81	H	0.375489	0.091265	0.097462
	H82	H	0.593717	0.917483	0.094044
	H83	H	0.376521	0.914708	0.923021
	H84	H	0.595551	0.916425	0.099836
	H85	H	0.377666	0.089325	0.092938
	H86	H	0.599629	0.094467	0.916506
	H87	H	0.376048	0.916769	0.918177
	H88	H	0.884956	0.093533	0.623683
	H89	H	0.081585	0.084797	0.397341
	H90	H	0.076131	0.915264	0.619178
	H91	H	0.896157	0.914973	0.396158
	H92	H	0.073261	0.614740	0.918045
	H93	H	0.071073	0.392710	0.095804
	H94	H	0.896294	0.615759	0.098160
	H95	H	0.889144	0.388100	0.916285
	H96	H	0.396640	0.114084	0.593833
	H97	H	0.575877	0.889938	0.595968
	H98	H	0.571924	0.114735	0.416196
	H99	H	0.398983	0.890326	0.419611
	H100	H	0.573313	0.419354	0.120031
	H101	H	0.573869	0.587681	0.899705
	H102	H	0.396897	0.588391	0.117989
	H103	H	0.390267	0.416930	0.895892
	H104	H	0.098991	0.594720	0.415308
	H105	H	0.873801	0.599044	0.599142
	H106	H	0.099153	0.405070	0.600814
	H107	H	0.878606	0.416766	0.424561
	H108	H	0.897179	0.615150	0.096912
	H109	H	0.073751	0.392749	0.093747
	H110	H	0.077826	0.615281	0.920452
	H111	H	0.897755	0.389669	0.914895
	H112	H	0.074573	0.915754	0.619645
	H113	H	0.069191	0.092199	0.399402
	H114	H	0.897272	0.088922	0.618831
	H115	H	0.897094	0.914220	0.396087
	H116	H	0.596488	0.092766	0.923502
	H117	H	0.376690	0.086019	0.097169
	H118	H	0.596061	0.911635	0.095561
	H119	H	0.374456	0.911919	0.919397
	C120	C	0.365154	0.012361	0.629920
	C121	C	0.608058	0.993258	0.628964
	C122	C	0.608307	0.011929	0.386910
	C123	C	0.366127	0.994549	0.389136
	C124	C	0.606093	0.383232	0.018405
	C125	C	0.607122	0.624468	1.001011
	C126	C	0.363758	0.623505	0.017208
	C127	C	0.363154	0.381450	0.999908
	C128	C	-0.005220	0.624060	0.387362
	C129	C	0.977711	0.625477	0.630627
	C130	C	-0.006303	0.381527	0.630117
	C131	C	0.978025	0.381257	0.387004
	C132	C	0.864817	0.512468	0.129871
	C133	C	0.106380	0.495067	0.128613
	C134	C	0.106677	0.511626	0.887032
	C135	C	0.863875	0.494606	0.887569
	C136	C	0.108838	0.881816	0.516846
	C137	C	0.107170	0.123687	0.499959
	C138	C	0.863886	0.124749	0.516915
	C139	C	0.866013	0.883086	0.499662
	C140	C	0.496175	0.124770	0.886685
	C141	C	0.477254	0.123387	0.129919
	C142	C	0.493950	0.881401	0.130312
	C143	C	0.477141	0.881176	0.887115
	C144	C	0.362160	0.895104	0.690637
	C145	C	0.608827	0.111088	0.688343
	C146	C	0.610307	0.894591	0.326799
	C147	C	0.362715	0.110969	0.327127
	C148	C	0.667442	0.379007	0.902174
	C149	C	0.668757	0.629895	0.116521
	C150	C	0.305237	0.626466	0.899444
	C151	C	0.299488	0.375224	0.114489
	C152	C	0.878244	0.683102	0.387044
	C153	C	0.095460	0.682548	0.630305
	C154	C	0.875541	0.325689	0.628674
	C155	C	0.094723	0.322444	0.385933
	C156	C	0.875632	0.383569	0.686462
	C157	C	0.095316	0.624162	0.687691
	C158	C	0.878476	0.626133	0.328342
	C159	C	0.094272	0.379669	0.327232
	C160	C	0.363860	0.683049	0.899400
	C161	C	0.609415	0.685588	0.117390
	C162	C	0.609132	0.322388	0.901677
	C163	C	0.357550	0.317856	0.114814
	C164	C	0.669190	0.895213	0.382698
	C165	C	0.665685	0.111812	0.630172
	C166	C	0.303222	0.896153	0.634950
	C167	C	0.305028	0.111215	0.384562
	C168	C	0.863609	0.394494	0.189373
	C169	C	0.109179	0.612483	0.189017
	C170	C	0.106073	0.392496	0.829803
	C171	C	0.865116	0.613725	0.830860
	C172	C	0.170324	0.877913	0.400833
	C173	C	0.165075	0.125068	0.617711
	C174	C	0.807539	0.124633	0.398239
	C175	C	0.807354	0.881930	0.617557
	C176	C	0.380621	0.185474	0.883578
	C177	C	0.592207	0.185708	0.133848
	C178	C	0.378311	0.820272	0.134292
	C179	C	0.592096	0.819042	0.883380
	C180	C	0.379274	0.877071	0.193080
	C181	C	0.592096	0.128390	0.192151
	C182	C	0.380677	0.127928	0.825697
	C183	C	0.592073	0.876409	0.825275
	C184	C	0.866201	0.181159	0.397672
	C185	C	0.105711	0.180833	0.618601
	C186	C	0.110773	0.822435	0.399570
	C187	C	0.866393	0.825688	0.618369
	C188	C	0.165267	0.393522	0.885575
	C189	C	0.166794	0.612126	0.131646
	C190	C	0.805007	0.395003	0.133056
	C191	C	0.806303	0.613080	0.887332
	C192	C	0.390698	0.093780	0.603709
	C193	C	0.584070	0.911149	0.603901
	C194	C	0.583294	0.093683	0.412882
	C195	C	0.391279	0.913021	0.415564
	C196	C	0.580072	0.409118	0.099456
	C197	C	0.582003	0.598038	0.919624
	C198	C	0.387548	0.598367	0.099086
	C199	C	0.390119	0.408748	0.919657
	C200	C	0.075995	0.598772	0.412071
	C201	C	0.895605	0.602724	0.607703
	C202	C	0.076080	0.403841	0.607564
	C203	C	0.896670	0.405695	0.411867
	C204	C	0.889498	0.594424	0.104382
	C205	C	0.080490	0.413618	0.102850
	C206	C	0.083100	0.594309	0.911208
	C207	C	0.887041	0.411481	0.911217
	C208	C	0.083146	0.907675	0.598124
	C209	C	0.083585	0.099137	0.417856
	C210	C	0.886260	0.101810	0.600039
	C211	C	0.889919	0.907392	0.417171
	C212	C	0.576691	0.098997	0.912210
	C213	C	0.397458	0.096398	0.103453
	C214	C	0.574162	0.907597	0.103959
	C215	C	0.396495	0.907227	0.913046
	Zn216	Zn	0.486109	0.002237	0.757939
	Zn217	Zn	0.486427	0.002328	0.259583
	Zn218	Zn	0.735835	0.503438	0.009765
	Zn219	Zn	0.234644	0.503331	0.008027
	Zn220	Zn	-0.012937	0.753995	0.508371
	Zn221	Zn	-0.014616	0.252249	0.508548
	Zn222	Zn	-0.014665	0.503165	0.759391
	Zn223	Zn	-0.013606	0.503203	0.257491
	Zn224	Zn	0.485117	0.752437	0.009191
	Zn225	Zn	0.485764	0.253148	0.009335
	Zn226	Zn	0.736231	0.002926	0.507682
	Zn227	Zn	0.236705	0.002949	0.508745
	N228	N	0.400213	0.968334	0.687527
	N229	N	0.573636	0.036252	0.688045
	N230	N	0.572904	0.968282	0.329432
	N231	N	0.399919	0.037319	0.329691
	N232	N	0.665919	0.416099	0.975840
	N233	N	0.667328	0.592420	0.042881
	N234	N	0.304809	0.590366	0.973790
	N235	N	0.302956	0.414127	0.041970
	N236	N	0.951849	0.682274	0.422794
	N237	N	0.021242	0.683708	0.595601
	N238	N	0.950128	0.323824	0.594566
	N239	N	0.021205	0.322988	0.422205
	N240	N	0.950164	0.417397	0.687749
	N241	N	0.020950	0.589763	0.688556
	N242	N	0.952097	0.590164	0.328300
	N243	N	0.020591	0.415460	0.327758
	N244	N	0.399549	0.681585	0.973687
	N245	N	0.571669	0.682480	0.044285
	N246	N	0.571486	0.324713	0.974978
	N247	N	0.396609	0.321453	0.042351
	N248	N	0.668070	0.969313	0.419523
	N249	N	0.665544	0.037345	0.594134
	N250	N	0.304777	0.970115	0.597818
	N251	N	0.306948	0.037716	0.422404
	N252	N	0.899784	0.468644	0.187818
	N253	N	0.072467	0.538370	0.187518
	N254	N	0.070662	0.467227	0.830233
	N255	N	0.900074	0.538728	0.830783
	N256	N	0.169317	0.913954	0.475077
	N257	N	0.166295	0.090303	0.542840
	N258	N	0.805846	0.090376	0.473457
	N259	N	0.806563	0.916490	0.542369
	N260	N	0.453454	0.183748	0.920742
	N261	N	0.519632	0.182904	0.096040
	N262	N	0.450769	0.822557	0.096053
	N263	N	0.519433	0.821759	0.921321
	N264	N	0.452192	0.914291	0.190783
	N265	N	0.519536	0.090357	0.189900
	N266	N	0.453886	0.091071	0.827095
	N267	N	0.519456	0.914279	0.827372
	N268	N	0.900380	0.181517	0.472680
	N269	N	0.070529	0.180530	0.544081
	N270	N	0.073048	0.824744	0.472912
	N271	N	0.901956	0.825966	0.543878
	N272	N	0.166045	0.468821	0.920167
	N273	N	0.165351	0.537879	0.095011
	N274	N	0.805535	0.469500	0.096674
	N275	N	0.804863	0.537660	0.921507
	O276	O	0.055768	1.137653	-0.125618
	H277	H	0.033579	1.131638	-0.129173
	H278	H	0.038508	1.140885	-0.132538
	O279	O	0.266005	0.722864	0.486413
	H280	H	0.280201	0.721157	0.481085
	H281	H	0.252866	0.749315	0.478377
	O282	O	0.770602	0.218549	0.976061
	H283	H	0.760496	0.232214	0.965479
	H284	H	0.769580	0.221851	0.967158
	O285	O	0.356420	0.541290	0.493469
	H286	H	0.366290	0.550074	0.508609
	H287	H	0.361844	0.554293	0.498940
	O288	O	0.028180	0.062371	0.090137
	H289	H	0.040716	0.066694	0.098143
	H290	H	0.020073	0.072696	0.100228
	O291	O	0.669092	0.471846	0.430236
	H292	H	0.677263	0.485642	0.436693
	H293	H	0.661282	0.485280	0.443667
	O294	O	1.415406	0.444529	0.272077
	H295	H	1.435961	0.430114	0.267678
	H296	H	1.429535	0.438529	0.276262
	O297	O	0.258291	0.276673	0.542712
	H298	H	0.239360	0.260916	0.566424
	H299	H	0.249848	0.268236	0.565666
	O300	O	0.195671	0.206696	1.215826
	H301	H	0.210162	0.222450	1.238685
	H302	H	0.176997	0.206125	1.206855
	O303	O	0.693413	0.715858	0.714011
	H304	H	0.693209	0.669766	0.722967
	H305	H	0.702811	0.738568	0.740677
	O306	O	0.313509	0.500840	0.442482
	H307	H	0.303021	0.484870	0.447256
	H308	H	0.313972	0.511385	0.442127
	O309	O	0.337066	0.550708	0.663154
	H310	H	0.345588	0.547312	0.659925
	H311	H	0.320762	0.531714	0.665453
	O312	O	1.076078	1.061307	-0.022822
	H313	H	1.080622	1.066530	-0.003528
	H314	H	1.077478	1.062854	-0.003570
	O315	O	0.792518	0.816108	0.820480
	H316	H	0.818155	0.825207	0.840452
	H317	H	0.783550	0.826311	0.837181
	O318	O	0.260058	0.466753	0.734804
	H319	H	0.246189	0.451582	0.749602
	H320	H	0.246130	0.458070	0.735735
	O321	O	-0.068537	0.909702	0.820109
	H322	H	-0.071083	0.920991	0.816562
	H323	H	-0.049283	0.894707	0.812473
	O324	O	0.896149	1.049536	-0.138973
	H325	H	0.880357	1.040631	-0.139315
	H326	H	0.890511	1.047265	-0.129350
	O327	O	0.331229	-0.389936	0.616630
	H328	H	0.346534	-0.395416	0.617262
	H329	H	0.338820	-0.402418	0.607452
	O330	O	0.675365	0.504306	0.568852
	H331	H	0.691499	0.506487	0.584988
	H332	H	0.667012	0.527908	0.561876
	O333	O	0.546159	0.468164	0.693701
	H334	H	0.529646	0.466078	0.679731
	H335	H	0.530999	0.482632	0.688503
	O336	O	0.713555	0.270325	0.270993
	H337	H	0.735609	0.253657	0.258364
	H338	H	0.720315	0.295871	0.274741
	O339	O	0.767334	-0.038382	0.936274
	H340	H	0.764866	-0.048629	0.962659
	H341	H	0.770168	-0.027959	0.960896
	O342	O	0.115198	-0.130251	0.036703
	H343	H	0.106241	-0.126087	0.025810
	H344	H	0.121341	-0.138098	0.054634
	O345	O	0.207697	0.782629	0.977026
	H346	H	0.213560	0.763248	0.965105
	H347	H	0.213506	0.777133	0.952182
	O348	O	0.521542	0.280445	0.580375
	H349	H	0.522598	0.281666	0.572170
	H350	H	0.518006	0.291920	0.567910
	O351	O	0.294233	0.313371	0.316740
	H352	H	0.308426	0.332976	0.337523
	H353	H	0.314748	0.319166	0.314195
	O354	O	-0.240008	0.036287	0.790777
	H355	H	-0.265855	0.022418	0.779266
	H356	H	-0.249170	0.019128	0.809321
	O357	O	0.279771	0.706163	0.303700
	H358	H	0.283133	0.692776	0.330383
	H359	H	0.292367	0.674728	0.304982
	O360	O	0.427100	0.271144	0.448816
	H361	H	0.425702	0.275519	0.446919
	H362	H	0.409381	0.260689	0.445045
	O363	O	-0.053440	0.228299	-0.216700
	H364	H	-0.062075	0.249513	-0.243963
	H365	H	-0.093264	0.226920	-0.219410
	O366	O	0.487641	0.345484	0.735050
	H367	H	0.482278	0.325924	0.743347
	H368	H	0.488087	0.343767	0.723466
	O369	O	1.199254	-0.031854	-0.193478
	H370	H	1.183391	-0.018441	-0.190960
	H371	H	1.208570	-0.030753	-0.207478
	O372	O	1.104206	0.961040	-0.187275
	H373	H	1.107571	0.966018	-0.208037
	H374	H	1.105650	0.967777	-0.190404
	O375	O	0.998068	0.230079	-0.000669
	H376	H	1.003686	0.229388	-0.020737
	H377	H	1.006397	0.226773	-0.007914
	O378	O	0.699356	0.282235	0.480287
	H379	H	0.709003	0.262236	0.471769
	H380	H	0.696675	0.289106	0.470214
	O381	O	0.424455	0.704017	0.607872
	H382	H	0.453002	0.712971	0.605281
	H383	H	0.428723	0.693885	0.591799
	O384	O	1.184034	0.190942	0.821236
	H385	H	1.156364	0.168719	0.827491
	H386	H	1.177200	0.175022	0.852198
	O387	O	0.775630	0.875128	0.204344
	H388	H	0.787489	0.860539	0.212473
	H389	H	0.769994	0.888236	0.223126
	O390	O	0.111357	0.127446	0.223642
	H391	H	0.124448	0.132743	0.236437
	H392	H	0.097728	0.130804	0.206478
	O393	O	0.710249	0.546287	0.734676
	H394	H	0.705585	0.532323	0.755625
	H395	H	0.711630	0.532555	0.750749
	O396	O	-0.000044	0.900022	1.166941
	H397	H	0.002608	0.892252	1.173553
	H398	H	0.007461	0.900009	1.157587
	O399	O	-0.050651	-0.054210	1.230069
	H400	H	-0.031530	-0.067172	1.214137
	H401	H	-0.026057	-0.064341	1.249423
	O402	O	0.464300	0.721688	0.292998
	H403	H	0.460184	0.739141	0.272830
	H404	H	0.456708	0.703580	0.285072
	O405	O	0.841133	0.163707	1.191081
	H406	H	0.861285	0.144725	1.182920
	H407	H	0.846117	0.141732	1.173811
	O408	O	0.028690	-0.220165	-0.214007
	H409	H	0.053123	-0.227046	-0.219154
	H410	H	0.047890	-0.239552	-0.232536
	O411	O	0.672597	0.324538	0.703186
	H412	H	0.663180	0.329136	0.706499
	H413	H	0.664552	0.337222	0.667960
	O414	O	1.206237	0.216371	1.032084
	H415	H	1.195968	0.212333	1.050201
	H416	H	1.228952	0.234682	1.040483
	O417	O	0.268229	0.535142	0.287326
	H418	H	0.267977	0.520400	0.269851
	H419	H	0.267124	0.521504	0.284015
	O420	O	-0.183752	-0.000110	0.209521
	H421	H	-0.177308	-0.007231	0.230899
	H422	H	-0.165757	-0.001462	0.188176
	O423	O	-0.042081	0.152937	1.119961
	H424	H	-0.028267	0.156049	1.110955
	H425	H	-0.034176	0.160668	1.106553
	O426	O	0.493755	0.534873	0.656310
	H427	H	0.478718	0.524511	0.659368
	H428	H	0.505807	0.537694	0.644419
	O429	O	1.101607	0.897382	1.219524
	H430	H	1.116135	0.887107	1.231556
	H431	H	1.121674	0.907118	1.212873
	O432	O	0.530195	0.552791	0.280980
	H433	H	0.535806	0.553890	0.281660
	H434	H	0.543542	0.541782	0.285043
	O435	O	0.518677	0.717365	0.715869
	H436	H	0.528941	0.728640	0.726538
	H437	H	0.523049	0.719156	0.715673
	O438	O	-0.015713	-0.215304	0.033956
	H439	H	0.004191	-0.218330	0.037491
	H440	H	-0.005714	-0.210662	0.016526
	O441	O	0.707165	0.417057	0.288880
	H442	H	0.700687	0.412296	0.299780
	H443	H	0.730821	0.424362	0.284702
	O444	O	0.501740	0.287033	0.280655
	H445	H	0.525090	0.282253	0.299579
	H446	H	0.521271	0.258414	0.258207
	O447	O	-0.028650	0.876036	1.065399
	H448	H	-0.021632	0.874791	1.065334
	H449	H	-0.020001	0.870396	1.067106
	O450	O	-0.232286	0.796057	1.029736
	H451	H	-0.233534	0.789690	1.043036
	H452	H	-0.227581	0.781989	1.035579
	O453	O	0.611356	0.529237	0.483575
	H454	H	0.616593	0.540265	0.479851
	H455	H	0.610050	0.535843	0.481026
	O456	O	0.235616	-0.241549	0.762053
	H457	H	0.261716	-0.270244	0.736733
	H458	H	0.254197	-0.217895	0.760185
	O459	O	0.756694	1.061462	0.060336
	H460	H	0.763317	1.061998	0.069418
	H461	H	0.751354	1.083024	0.068666
	O462	O	0.708319	0.726213	0.538488
	H463	H	0.711118	0.739355	0.561908
	H464	H	0.715192	0.744860	0.559225
	O465	O	1.276613	0.293694	-0.282136
	H466	H	1.248546	0.260006	-0.247536
	H467	H	1.311311	0.305475	-0.277030
	O468	O	0.426359	0.417607	0.608618
	H469	H	0.435894	0.414193	0.598215
	H470	H	0.432390	0.403701	0.601351
	O471	O	0.474043	0.599758	0.452279
	H472	H	0.465149	0.607093	0.455581
	H473	H	0.479301	0.589003	0.445110
	O474	O	0.669792	0.617268	0.313943
	H475	H	0.683555	0.625855	0.312543
	H476	H	0.657881	0.621207	0.320060
	O477	O	0.472293	0.432699	1.516444
	H478	H	0.474888	0.426021	1.489119
	H479	H	0.463577	0.432310	1.517770
	O480	O	0.755146	0.747741	0.262774
	H481	H	0.752674	0.736317	0.280974
	H482	H	0.766456	0.753042	0.240508
	O483	O	0.490210	0.425764	0.488197
	H484	H	0.481079	0.424290	0.492309
	H485	H	0.493539	0.412177	0.482361
	O486	O	1.154667	-0.056411	1.002139
	H487	H	1.140005	-0.057385	1.008822
	H488	H	1.162155	-0.071366	1.009539
	O489	O	0.942974	0.886695	-0.025794
	H490	H	0.940129	0.881452	-0.022020
	H491	H	0.952745	0.877568	-0.035999
	O492	O	-0.232893	0.217024	-0.204669
	H493	H	-0.235839	0.167650	-0.207787
	H494	H	-0.257693	0.233643	-0.223199
	O495	O	0.148852	1.055917	1.018055
	H496	H	0.143180	1.058062	1.009141
	H497	H	0.154162	1.050008	1.011931
	O498	O	1.186924	0.989041	1.140690
	H499	H	1.184986	0.989105	1.139507
	H500	H	1.193004	1.004434	1.139397
	O501	O	0.553929	0.725624	0.464859
	H502	H	0.558785	0.725259	0.472644
	H503	H	0.544608	0.721049	0.453218
