data_Molecule from HDF5

_cell_length_a		16.360884
_cell_length_b		16.176209
_cell_length_c		16.235295
_cell_angle_alpha	90.998586
_cell_angle_beta	89.430092
_cell_angle_gamma	89.510482
_symmetry_space_group_name_H-M	'P 1'
_symmetry_Int_Tables_number		1

loop_
	_symmetry_equiv_pos_as_xyz
	x,y,z

loop_
	_atom_site_label
	_atom_site_type_symbol
	_atom_site_fract_x
	_atom_site_fract_y
	_atom_site_fract_z
	H0	H	0.400809	0.834307	0.710714
	H1	H	0.594779	0.162993	0.718889
	H2	H	0.600751	0.836783	0.280611
	H3	H	0.399570	0.165079	0.291286
	H4	H	0.718964	0.394546	0.836961
	H5	H	0.711804	0.603726	0.163059
	H6	H	0.284392	0.598866	0.836206
	H7	H	0.279844	0.402555	0.161840
	H8	H	0.835974	0.715685	0.405391
	H9	H	0.161039	0.716881	0.601046
	H10	H	0.834467	0.291499	0.597245
	H11	H	0.161253	0.280822	0.396936
	H12	H	0.837262	0.404434	0.715941
	H13	H	0.161826	0.600541	0.715607
	H14	H	0.834849	0.599768	0.288647
	H15	H	0.160415	0.395655	0.278734
	H16	H	0.403253	0.709241	0.834486
	H17	H	0.595433	0.718355	0.163176
	H18	H	0.599243	0.281716	0.836216
	H19	H	0.400983	0.293733	0.165838
	H20	H	0.717850	0.837572	0.394497
	H21	H	0.711149	0.164392	0.604209
	H22	H	0.282651	0.836661	0.599979
	H23	H	0.281614	0.163557	0.403966
	H24	H	0.900868	0.335473	0.210965
	H25	H	0.094901	0.664050	0.217202
	H26	H	0.101395	0.336161	0.780247
	H27	H	0.902247	0.665787	0.791649
	H28	H	0.218124	0.893354	0.337917
	H29	H	0.211205	0.103574	0.664186
	H30	H	0.781957	0.099458	0.337055
	H31	H	0.779909	0.903090	0.662857
	H32	H	0.335494	0.215896	0.904848
	H33	H	0.661664	0.215350	0.099837
	H34	H	0.334924	0.788490	0.098747
	H35	H	0.660478	0.781314	0.898046
	H36	H	0.335860	0.903573	0.217089
	H37	H	0.660943	0.100799	0.216714
	H38	H	0.334636	0.098545	0.789067
	H39	H	0.659374	0.894970	0.779439
	H40	H	0.900423	0.211630	0.335430
	H41	H	0.093460	0.216716	0.663989
	H42	H	0.099943	0.779723	0.337704
	H43	H	0.901144	0.792457	0.666252
	H44	H	0.218036	0.336277	0.894136
	H45	H	0.209682	0.664579	0.100303
	H46	H	0.783456	0.336832	0.099306
	H47	H	0.782808	0.663466	0.903009
	H48	H	0.404834	0.118111	0.600030
	H49	H	0.581425	0.888742	0.580669
	H50	H	0.585726	0.114481	0.412760
	H51	H	0.406344	0.880942	0.403582
	H52	H	0.592393	0.401577	0.119229
	H53	H	0.591969	0.593892	0.882221
	H54	H	0.401465	0.596980	0.118307
	H55	H	0.405711	0.398393	0.878826
	H56	H	0.113591	0.587124	0.405723
	H57	H	0.882855	0.600169	0.592168
	H58	H	0.113714	0.406641	0.585198
	H59	H	0.885284	0.404385	0.415865
	H60	H	0.113645	0.411065	0.590368
	H61	H	0.884422	0.589611	0.596611
	H62	H	0.114384	0.591561	0.406944
	H63	H	0.883979	0.415372	0.401067
	H64	H	0.402441	0.592377	0.116146
	H65	H	0.598435	0.585621	0.882500
	H66	H	0.600440	0.413776	0.117931
	H67	H	0.403687	0.414389	0.884251
	H68	H	0.595993	0.118188	0.414384
	H69	H	0.602136	0.882242	0.581123
	H70	H	0.405662	0.115080	0.592722
	H71	H	0.411803	0.884591	0.406558
	H72	H	0.899999	0.619614	0.098143
	H73	H	0.088002	0.382771	0.091772
	H74	H	0.100149	0.619281	0.907394
	H75	H	0.909122	0.384901	0.913838
	H76	H	0.086590	0.909450	0.615900
	H77	H	0.091068	0.084116	0.385276
	H78	H	0.903232	0.101109	0.618790
	H79	H	0.901652	0.913127	0.384187
	H80	H	0.612318	0.081152	0.905049
	H81	H	0.382744	0.097429	0.096750
	H82	H	0.613274	0.900034	0.077676
	H83	H	0.384536	0.909480	0.911206
	H84	H	0.609206	0.922151	0.088758
	H85	H	0.382047	0.095868	0.097564
	H86	H	0.616064	0.094665	0.903636
	H87	H	0.379436	0.907564	0.898098
	H88	H	0.896821	0.093459	0.617178
	H89	H	0.089639	0.090142	0.384115
	H90	H	0.094148	0.905668	0.619637
	H91	H	0.916242	0.909648	0.387207
	H92	H	0.087376	0.618135	0.902411
	H93	H	0.088048	0.385913	0.082939
	H94	H	0.907354	0.617917	0.097507
	H95	H	0.904206	0.380603	0.904179
	H96	H	0.398858	0.118375	0.595122
	H97	H	0.589769	0.879797	0.598930
	H98	H	0.590895	0.120043	0.403678
	H99	H	0.406163	0.883624	0.410206
	H100	H	0.586162	0.413826	0.113221
	H101	H	0.588672	0.584590	0.885522
	H102	H	0.405932	0.596371	0.115445
	H103	H	0.418391	0.406258	0.886212
	H104	H	0.112862	0.588446	0.410702
	H105	H	0.880366	0.598476	0.603222
	H106	H	0.116348	0.404298	0.590943
	H107	H	0.878754	0.397744	0.399993
	H108	H	0.903571	0.617446	0.092370
	H109	H	0.096047	0.382057	0.087005
	H110	H	0.090740	0.614684	0.915669
	H111	H	0.915529	0.383842	0.903639
	H112	H	0.093947	0.914629	0.617003
	H113	H	0.094955	0.088192	0.382572
	H114	H	0.907118	0.092469	0.614780
	H115	H	0.907030	0.898490	0.381404
	H116	H	0.611087	0.090052	0.916094
	H117	H	0.382555	0.098094	0.098016
	H118	H	0.618907	0.903463	0.101394
	H119	H	0.379465	0.896981	0.906658
	C120	C	0.375771	0.008339	0.622857
	C121	C	0.618610	0.991711	0.619651
	C122	C	0.621213	0.009404	0.377976
	C123	C	0.377737	0.991643	0.379642
	C124	C	0.623009	0.377557	0.008882
	C125	C	0.619858	0.620092	0.991397
	C126	C	0.376401	0.622209	0.008363
	C127	C	0.378721	0.379632	0.991567
	C128	C	0.006253	0.619660	0.380183
	C129	C	0.990368	0.624201	0.624730
	C130	C	0.007251	0.379655	0.619677
	C131	C	0.990038	0.375304	0.375352
	C132	C	0.875990	0.509548	0.122661
	C133	C	0.118759	0.491815	0.119005
	C134	C	0.122412	0.508850	0.877025
	C135	C	0.879789	0.491682	0.880160
	C136	C	0.121683	0.877465	0.509744
	C137	C	0.119074	0.119587	0.492118
	C138	C	0.875107	0.123027	0.508496
	C139	C	0.878043	0.880004	0.492075
	C140	C	0.505936	0.119341	0.880438
	C141	C	0.489979	0.124778	0.125236
	C142	C	0.506397	0.880060	0.119953
	C143	C	0.488905	0.874991	0.875850
	C144	C	0.379370	0.884107	0.675326
	C145	C	0.615448	0.114435	0.679214
	C146	C	0.620443	0.885921	0.319476
	C147	C	0.379268	0.115484	0.327533
	C148	C	0.679991	0.375848	0.885934
	C149	C	0.674292	0.622117	0.114297
	C150	C	0.322404	0.618656	0.884924
	C151	C	0.320027	0.382979	0.113772
	C152	C	0.884298	0.676992	0.384328
	C153	C	0.112433	0.679202	0.621630
	C154	C	0.884246	0.327236	0.618156
	C155	C	0.112385	0.318805	0.376564
	C156	C	0.885321	0.383262	0.677483
	C157	C	0.112917	0.621025	0.678397
	C158	C	0.883717	0.619210	0.326303
	C159	C	0.111989	0.376105	0.317837
	C160	C	0.381437	0.673947	0.884154
	C161	C	0.616226	0.678949	0.114297
	C162	C	0.620427	0.319896	0.885628
	C163	C	0.380205	0.328691	0.115802
	C164	C	0.678810	0.886355	0.375757
	C165	C	0.673536	0.115080	0.622248
	C166	C	0.321231	0.885106	0.619628
	C167	C	0.320516	0.114585	0.383577
	C168	C	0.879662	0.385029	0.175012
	C169	C	0.115276	0.615248	0.177529
	C170	C	0.121612	0.385406	0.818745
	C171	C	0.881262	0.616076	0.827579
	C172	C	0.179159	0.875228	0.386771
	C173	C	0.173287	0.121738	0.615225
	C174	C	0.820564	0.119560	0.385530
	C175	C	0.819933	0.883282	0.614803
	C176	C	0.383870	0.177015	0.884408
	C177	C	0.612533	0.178956	0.121610
	C178	C	0.383666	0.825990	0.119134
	C179	C	0.611663	0.818992	0.877424
	C180	C	0.384165	0.883350	0.177787
	C181	C	0.612376	0.121741	0.179479
	C182	C	0.383346	0.118635	0.826550
	C183	C	0.611036	0.875378	0.818403
	C184	C	0.879009	0.175563	0.384877
	C185	C	0.114589	0.178155	0.614998
	C186	C	0.120773	0.818362	0.386633
	C187	C	0.880179	0.828315	0.616466
	C188	C	0.179566	0.385413	0.875406
	C189	C	0.172549	0.615567	0.119551
	C190	C	0.821259	0.385792	0.119516
	C191	C	0.822205	0.614948	0.883095
	C192	C	0.396896	0.094846	0.602218
	C193	C	0.597319	0.905817	0.594029
	C194	C	0.597570	0.095356	0.402956
	C195	C	0.401343	0.905194	0.400663
	C196	C	0.599717	0.402510	0.094614
	C197	C	0.598947	0.595149	0.905444
	C198	C	0.397122	0.601293	0.094322
	C199	C	0.402452	0.400210	0.905447
	C200	C	0.091557	0.595886	0.401443
	C201	C	0.904568	0.602417	0.603655
	C202	C	0.092598	0.400962	0.595919
	C203	C	0.904659	0.398946	0.398706
	C204	C	0.897166	0.595768	0.102109
	C205	C	0.097238	0.405938	0.094301
	C206	C	0.099335	0.594996	0.901460
	C207	C	0.902975	0.405728	0.900854
	C208	C	0.098193	0.902457	0.595229
	C209	C	0.098131	0.094663	0.406268
	C210	C	0.896145	0.101911	0.594430
	C211	C	0.901487	0.900984	0.406696
	C212	C	0.590903	0.095461	0.901900
	C213	C	0.404531	0.103434	0.103793
	C214	C	0.591523	0.901983	0.096331
	C215	C	0.403358	0.898004	0.898755
	Zn216	Zn	0.497444	-0.001737	0.749175
	Zn217	Zn	0.499114	0.000837	0.251073
	Zn218	Zn	0.749992	0.500147	0.000155
	Zn219	Zn	0.249490	0.500118	-0.001170
	Zn220	Zn	-0.001153	0.750496	0.501478
	Zn221	Zn	-0.002167	0.248868	0.499083
	Zn222	Zn	-0.000477	0.500812	0.750429
	Zn223	Zn	-0.002208	0.499622	0.248723
	Zn224	Zn	0.497937	0.749072	-0.000529
	Zn225	Zn	0.499069	0.250511	0.001723
	Zn226	Zn	0.748488	0.000964	0.499458
	Zn227	Zn	0.248922	-0.000569	0.501108
	N228	N	0.412836	0.961818	0.677248
	N229	N	0.582304	0.036725	0.677873
	N230	N	0.585112	0.963456	0.320968
	N231	N	0.414169	0.037746	0.324988
	N232	N	0.681732	0.410787	0.963748
	N233	N	0.676479	0.585944	0.036918
	N234	N	0.318856	0.587327	0.963010
	N235	N	0.318909	0.413861	0.035438
	N236	N	0.961504	0.677210	0.417195
	N237	N	0.035236	0.681113	0.588866
	N238	N	0.961047	0.324892	0.583068
	N239	N	0.035451	0.318143	0.411338
	N240	N	0.963047	0.415144	0.678645
	N241	N	0.035894	0.587374	0.680262
	N242	N	0.960599	0.583960	0.323866
	N243	N	0.034676	0.410192	0.316713
	N244	N	0.414386	0.676293	0.961831
	N245	N	0.583092	0.677913	0.036786
	N246	N	0.585632	0.320727	0.963180
	N247	N	0.416038	0.326429	0.038705
	N248	N	0.679454	0.964145	0.411370
	N249	N	0.675427	0.037627	0.585490
	N250	N	0.318727	0.963310	0.587787
	N251	N	0.319571	0.036303	0.415215
	N252	N	0.913018	0.462824	0.177359
	N253	N	0.082584	0.537245	0.177441
	N254	N	0.086913	0.463199	0.819399
	N255	N	0.916644	0.538609	0.825739
	N256	N	0.179784	0.911186	0.464271
	N257	N	0.176186	0.086010	0.537665
	N258	N	0.817834	0.087618	0.463453
	N259	N	0.818314	0.914638	0.536592
	N260	N	0.461166	0.177660	0.917254
	N261	N	0.535411	0.180902	0.088544
	N262	N	0.460435	0.823832	0.083861
	N263	N	0.534818	0.818594	0.912333
	N264	N	0.461582	0.916116	0.178509
	N265	N	0.535121	0.089163	0.182096
	N266	N	0.460120	0.083368	0.824097
	N267	N	0.533723	0.909473	0.817387
	N268	N	0.911970	0.178022	0.462364
	N269	N	0.081546	0.176837	0.537318
	N270	N	0.085515	0.819818	0.463812
	N271	N	0.915634	0.825936	0.539312
	N272	N	0.180347	0.463207	0.910786
	N273	N	0.174860	0.537806	0.083779
	N274	N	0.818780	0.464107	0.087762
	N275	N	0.820893	0.536685	0.914907
	O276	O	0.476495	0.479557	0.593148
	H277	H	0.459677	0.471521	0.596762
	H278	H	0.474526	0.482672	0.592747
	O279	O	0.453115	0.575262	0.495129
	H280	H	0.447461	0.573571	0.493779
	H281	H	0.458431	0.569298	0.500937
	O282	O	1.064363	0.953499	-0.117081
	H283	H	1.065227	0.959480	-0.118219
	H284	H	1.060928	0.941923	-0.107684
	O285	O	0.912689	0.001070	0.935623
	H286	H	0.916232	-0.010364	0.930055
	H287	H	0.902392	0.015268	0.930343
	O288	O	0.449804	0.569876	0.565691
	H289	H	0.457253	0.559733	0.556304
	H290	H	0.435325	0.567844	0.569020
	O291	O	0.488707	0.482248	0.504630
	H292	H	0.501226	0.484155	0.496899
	H293	H	0.485904	0.482484	0.511348
	O294	O	0.557549	0.576559	0.566820
	H295	H	0.554802	0.588308	0.576916
	H296	H	0.545850	0.576806	0.562911
	O297	O	0.065441	0.038821	1.079394
	H298	H	0.070963	0.039463	1.068295
	H299	H	0.078054	0.046325	1.079843
	O300	O	0.353536	0.473122	0.559061
	H301	H	0.353639	0.470459	0.560016
	H302	H	0.352232	0.463445	0.553923
	O303	O	1.052353	1.039216	-0.117858
	H304	H	1.047299	1.033065	-0.111961
	H305	H	1.055860	1.023814	-0.125712
	O306	O	0.040240	1.044243	1.158739
	H307	H	0.049421	1.057572	1.169367
	H308	H	0.054448	1.032339	1.160902
	O309	O	0.628574	0.522453	0.484718
	H310	H	0.622262	0.522449	0.490792
	H311	H	0.637850	0.527249	0.494404
	O312	O	-0.011428	-0.047563	0.068734
	H313	H	-0.007219	-0.041253	0.059023
	H314	H	-0.013825	-0.040407	0.081532
	O315	O	1.103532	0.057233	-0.025620
	H316	H	1.099709	0.059546	-0.033436
	H317	H	1.102620	0.054081	-0.025215
	O318	O	0.946008	0.871324	1.065004
	H319	H	0.939533	0.874940	1.068965
	H320	H	0.934827	0.877709	1.067223
	O321	O	-0.001185	0.103502	0.934339
	H322	H	0.001196	0.095460	0.927623
	H323	H	-0.008431	0.104983	0.927924
	O324	O	0.546152	0.512234	0.499525
	H325	H	0.547023	0.515926	0.494496
	H326	H	0.547480	0.510659	0.499260
	O327	O	0.038687	0.057452	0.066548
	H328	H	0.043905	0.065013	0.079065
	H329	H	0.044822	0.058897	0.061768
	O330	O	0.613086	0.381598	0.402374
	H331	H	0.617932	0.393022	0.389348
	H332	H	0.612794	0.385526	0.405608
	O333	O	-0.041920	1.060162	0.865003
	H334	H	-0.035368	1.059729	0.854379
	H335	H	-0.044119	1.057484	0.872138
	O336	O	-0.131918	0.011621	-0.047289
	H337	H	-0.134849	0.019538	-0.050164
	H338	H	-0.128772	0.020686	-0.044755
	O339	O	0.490511	0.520565	0.474788
	H340	H	0.488943	0.521088	0.475643
	H341	H	0.484866	0.512062	0.468764
	O342	O	1.150084	1.078803	1.128789
	H343	H	1.150315	1.082434	1.128571
	H344	H	1.146269	1.077459	1.136554
	O345	O	0.918970	1.009208	-0.047845
	H346	H	0.916906	1.009251	-0.038035
	H347	H	0.923706	1.018303	-0.055145
	O348	O	0.435629	0.505242	0.413998
	H349	H	0.445895	0.498639	0.408914
	H350	H	0.435725	0.511900	0.411636
	O351	O	0.397195	0.465305	0.558454
	H352	H	0.400523	0.453657	0.551913
	H353	H	0.389486	0.465765	0.561094
	O354	O	0.580284	0.529300	0.399775
	H355	H	0.589584	0.527037	0.389201
	H356	H	0.581073	0.533452	0.409781
	O357	O	0.981714	-0.038383	0.918147
	H358	H	0.972933	-0.053258	0.914613
	H359	H	0.998922	-0.036683	0.907480
	O360	O	0.510589	0.437699	0.379319
	H361	H	0.517181	0.440277	0.379211
	H362	H	0.524216	0.439343	0.375274
	O363	O	0.464741	0.478524	0.495516
	H364	H	0.468683	0.466224	0.494024
	H365	H	0.459031	0.478571	0.490769
	O366	O	1.066997	0.934036	1.075293
	H367	H	1.059026	0.933476	1.075802
	H368	H	1.070015	0.949870	1.082160
	O369	O	0.904567	0.106150	1.050311
	H370	H	0.901785	0.106850	1.049297
	H371	H	0.908064	0.101948	1.041559
	O372	O	0.136903	-0.043252	0.031959
	H373	H	0.142070	-0.056454	0.026704
	H374	H	0.132001	-0.048283	0.031324
	O375	O	0.981754	-0.011347	0.061635
	H376	H	0.989321	-0.024843	0.055599
	H377	H	0.985507	-0.015191	0.071396
	O378	O	0.588208	0.456619	0.542208
	H379	H	0.593528	0.456131	0.544914
	H380	H	0.583423	0.461373	0.538618
	O381	O	0.593687	0.429439	0.383781
	H382	H	0.597748	0.427802	0.375760
	H383	H	0.608496	0.424470	0.374672
