data_Molecule from HDF5

_cell_length_a		16.208788
_cell_length_b		16.294029
_cell_length_c		16.257499
_cell_angle_alpha	89.946824
_cell_angle_beta	89.955173
_cell_angle_gamma	90.085491
_symmetry_space_group_name_H-M	'P 1'
_symmetry_Int_Tables_number		1

loop_
	_symmetry_equiv_pos_as_xyz
	x,y,z

loop_
	_atom_site_label
	_atom_site_type_symbol
	_atom_site_fract_x
	_atom_site_fract_y
	_atom_site_fract_z
	H0	H	0.410186	0.833373	0.713945
	H1	H	0.611222	0.159606	0.716698
	H2	H	0.609761	0.832590	0.285982
	H3	H	0.411892	0.160060	0.284212
	H4	H	0.721910	0.399255	0.836096
	H5	H	0.722869	0.595884	0.164121
	H6	H	0.294355	0.595006	0.836309
	H7	H	0.293316	0.397057	0.163514
	H8	H	0.845638	0.712663	0.400959
	H9	H	0.174453	0.711737	0.598561
	H10	H	0.846264	0.280827	0.600924
	H11	H	0.173795	0.284552	0.401509
	H12	H	0.843935	0.401358	0.711522
	H13	H	0.173107	0.597553	0.715552
	H14	H	0.845559	0.597395	0.285479
	H15	H	0.173124	0.399187	0.284438
	H16	H	0.407037	0.713609	0.837691
	H17	H	0.608968	0.711314	0.163572
	H18	H	0.608855	0.281692	0.836599
	H19	H	0.408527	0.280711	0.163404
	H20	H	0.724594	0.833918	0.402277
	H21	H	0.724595	0.161145	0.598753
	H22	H	0.293110	0.834966	0.599547
	H23	H	0.297292	0.162175	0.401949
	H24	H	0.907692	0.334715	0.217399
	H25	H	0.109420	0.660487	0.215212
	H26	H	0.107555	0.334116	0.784295
	H27	H	0.909618	0.661726	0.785680
	H28	H	0.222894	0.902058	0.335839
	H29	H	0.224309	0.097345	0.663472
	H30	H	0.794861	0.096932	0.336584
	H31	H	0.795128	0.898803	0.664057
	H32	H	0.344336	0.211267	0.900347
	H33	H	0.673196	0.211460	0.098814
	H34	H	0.345082	0.781254	0.100818
	H35	H	0.673484	0.782375	0.901568
	H36	H	0.344542	0.897140	0.215009
	H37	H	0.673798	0.094088	0.212549
	H38	H	0.344450	0.095268	0.785296
	H39	H	0.672897	0.896925	0.784281
	H40	H	0.909347	0.214730	0.337112
	H41	H	0.110189	0.213923	0.663140
	H42	H	0.111523	0.782718	0.337295
	H43	H	0.910479	0.782356	0.663660
	H44	H	0.221749	0.332437	0.901973
	H45	H	0.224520	0.659749	0.098756
	H46	H	0.794351	0.333519	0.098313
	H47	H	0.793164	0.660518	0.901133
	H48	H	0.402926	0.119534	0.593475
	H49	H	0.599978	0.881219	0.595216
	H50	H	0.605932	0.113420	0.408603
	H51	H	0.407383	0.877636	0.407008
	H52	H	0.604502	0.395352	0.120080
	H53	H	0.599442	0.593026	0.883489
	H54	H	0.421930	0.590643	0.115440
	H55	H	0.413583	0.399929	0.881562
	H56	H	0.128519	0.597621	0.409009
	H57	H	0.894270	0.582088	0.597403
	H58	H	0.125846	0.405805	0.592600
	H59	H	0.890487	0.407296	0.399737
	H60	H	0.126798	0.405617	0.592723
	H61	H	0.888007	0.598720	0.597984
	H62	H	0.124586	0.587072	0.410331
	H63	H	0.891684	0.397321	0.414177
	H64	H	0.411902	0.592270	0.118870
	H65	H	0.603725	0.588421	0.882744
	H66	H	0.606523	0.409220	0.117181
	H67	H	0.413347	0.407565	0.883751
	H68	H	0.603436	0.115062	0.401370
	H69	H	0.602383	0.881755	0.590439
	H70	H	0.426564	0.115460	0.606148
	H71	H	0.420455	0.879918	0.399506
	H72	H	0.919135	0.614536	0.098370
	H73	H	0.096540	0.383558	0.086732
	H74	H	0.105320	0.613361	0.909186
	H75	H	0.909285	0.378419	0.902474
	H76	H	0.100530	0.904632	0.617094
	H77	H	0.103352	0.095393	0.381744
	H78	H	0.914527	0.085134	0.615535
	H79	H	0.921259	0.895071	0.381857
	H80	H	0.626535	0.090959	0.905968
	H81	H	0.393901	0.087758	0.085689
	H82	H	0.624324	0.903326	0.088183
	H83	H	0.394811	0.906332	0.913330
	H84	H	0.625851	0.907491	0.095172
	H85	H	0.391260	0.083297	0.098443
	H86	H	0.624334	0.090521	0.911824
	H87	H	0.391722	0.907743	0.902491
	H88	H	0.924032	0.088595	0.614259
	H89	H	0.105587	0.090198	0.382415
	H90	H	0.102755	0.902676	0.617730
	H91	H	0.907525	0.905166	0.380907
	H92	H	0.099871	0.614667	0.903641
	H93	H	0.107141	0.378732	0.092447
	H94	H	0.918165	0.611145	0.087872
	H95	H	0.920487	0.380955	0.902136
	H96	H	0.424008	0.107945	0.580474
	H97	H	0.604076	0.879856	0.593980
	H98	H	0.598335	0.111781	0.406538
	H99	H	0.419578	0.883856	0.413909
	H100	H	0.593769	0.403338	0.115094
	H101	H	0.597960	0.586525	0.885063
	H102	H	0.414499	0.583068	0.115187
	H103	H	0.420094	0.403460	0.884641
	H104	H	0.128916	0.590715	0.399898
	H105	H	0.894409	0.592987	0.583101
	H106	H	0.127116	0.406105	0.592806
	H107	H	0.896919	0.414088	0.414202
	H108	H	0.909563	0.616072	0.093182
	H109	H	0.096033	0.379602	0.099928
	H110	H	0.098554	0.611317	0.910238
	H111	H	0.914522	0.382933	0.912513
	H112	H	0.103025	0.906223	0.616753
	H113	H	0.100482	0.090965	0.384075
	H114	H	0.916055	0.094380	0.618219
	H115	H	0.922651	0.912017	0.386853
	H116	H	0.624506	0.085292	0.908795
	H117	H	0.389171	0.096141	0.095907
	H118	H	0.627668	0.899907	0.093708
	H119	H	0.390215	0.897366	0.907497
	C120	C	0.388035	0.006364	0.622053
	C121	C	0.631765	0.988739	0.622267
	C122	C	0.631444	0.005157	0.377712
	C123	C	0.387920	0.989118	0.378420
	C124	C	0.630280	0.374752	0.008766
	C125	C	0.629337	0.617936	0.992201
	C126	C	0.386721	0.618022	0.008585
	C127	C	0.386514	0.374627	0.991539
	C128	C	0.018423	0.620173	0.377894
	C129	C	1.000853	0.619855	0.621702
	C130	C	0.017970	0.376608	0.621597
	C131	C	1.001166	0.376857	0.379265
	C132	C	0.886938	0.505740	0.122126
	C133	C	0.130038	0.488359	0.121684
	C134	C	0.130130	0.505190	0.878228
	C135	C	0.886513	0.489231	0.877743
	C136	C	0.131030	0.876791	0.508654
	C137	C	0.131881	0.120066	0.490902
	C138	C	0.888482	0.119123	0.508433
	C139	C	0.888103	0.875647	0.491649
	C140	C	0.517020	0.117983	0.879172
	C141	C	0.500226	0.117789	0.121457
	C142	C	0.517534	0.874864	0.121695
	C143	C	0.500781	0.875107	0.878693
	C144	C	0.389396	0.882865	0.677165
	C145	C	0.630558	0.111409	0.678070
	C146	C	0.629513	0.881873	0.323457
	C147	C	0.391214	0.111644	0.322604
	C148	C	0.684763	0.378131	0.885276
	C149	C	0.685406	0.615851	0.115019
	C150	C	0.331976	0.615371	0.885284
	C151	C	0.331037	0.376552	0.114663
	C152	C	0.894854	0.675124	0.380360
	C153	C	0.125057	0.674439	0.619270
	C154	C	0.894951	0.319941	0.620215
	C155	C	0.124570	0.321989	0.380981
	C156	C	0.893713	0.379628	0.675513
	C157	C	0.124473	0.617573	0.677225
	C158	C	0.894541	0.617222	0.323477
	C159	C	0.124174	0.379063	0.322993
	C160	C	0.388005	0.674361	0.886011
	C161	C	0.628388	0.673109	0.115044
	C162	C	0.628501	0.319629	0.885504
	C163	C	0.388353	0.319016	0.114684
	C164	C	0.686498	0.882426	0.381494
	C165	C	0.686973	0.112050	0.619278
	C166	C	0.331403	0.883586	0.620166
	C167	C	0.334260	0.112543	0.381070
	C168	C	0.888162	0.383177	0.178461
	C169	C	0.129166	0.611466	0.177238
	C170	C	0.128079	0.382549	0.822336
	C171	C	0.889459	0.612552	0.823195
	C172	C	0.185597	0.880570	0.384974
	C173	C	0.186597	0.117553	0.614779
	C174	C	0.832786	0.117453	0.385458
	C175	C	0.832931	0.878315	0.614901
	C176	C	0.393549	0.173093	0.880430
	C177	C	0.624250	0.173286	0.118779
	C178	C	0.393910	0.819279	0.120554
	C179	C	0.624277	0.819944	0.881161
	C180	C	0.393730	0.876933	0.177225
	C181	C	0.624472	0.115003	0.175520
	C182	C	0.393533	0.115316	0.823372
	C183	C	0.624276	0.877449	0.823250
	C184	C	0.889778	0.175695	0.385597
	C185	C	0.129917	0.175359	0.614504
	C186	C	0.129974	0.821591	0.385668
	C187	C	0.890153	0.820358	0.614872
	C188	C	0.184715	0.381822	0.880973
	C189	C	0.186619	0.611114	0.119596
	C190	C	0.831334	0.382654	0.119774
	C191	C	0.831482	0.612055	0.880587
	C192	C	0.410941	0.091995	0.599933
	C193	C	0.609042	0.903137	0.599833
	C194	C	0.609087	0.091303	0.399226
	C195	C	0.409357	0.902586	0.400534
	C196	C	0.608158	0.396393	0.094939
	C197	C	0.606855	0.595824	0.906093
	C198	C	0.409316	0.595333	0.094377
	C199	C	0.409240	0.396898	0.905585
	C200	C	0.104974	0.598142	0.399799
	C201	C	0.914771	0.597923	0.599201
	C202	C	0.104227	0.399072	0.599404
	C203	C	0.915203	0.399544	0.402591
	C204	C	0.909079	0.591501	0.099736
	C205	C	0.106845	0.402860	0.099569
	C206	C	0.107896	0.590879	0.900911
	C207	C	0.908459	0.403033	0.899298
	C208	C	0.108795	0.898163	0.594799
	C209	C	0.109653	0.098416	0.405173
	C210	C	0.911352	0.096143	0.594004
	C211	C	0.910488	0.897593	0.405511
	C212	C	0.602834	0.095631	0.902120
	C213	C	0.413879	0.095771	0.099632
	C214	C	0.603626	0.897009	0.099100
	C215	C	0.414531	0.897252	0.901052
	Zn216	Zn	0.509474	-0.002743	0.750501
	Zn217	Zn	0.509472	-0.004352	0.249544
	Zn218	Zn	0.758229	0.497180	0.000135
	Zn219	Zn	0.258740	0.496545	0.000033
	Zn220	Zn	0.010300	0.747657	0.499861
	Zn221	Zn	0.010301	0.247670	0.500117
	Zn222	Zn	0.008707	0.497889	0.749515
	Zn223	Zn	0.008705	0.497812	0.250513
	Zn224	Zn	0.508855	0.746343	0.000943
	Zn225	Zn	0.508509	0.246573	0.000178
	Zn226	Zn	0.759558	-0.002341	0.499899
	Zn227	Zn	0.259305	-0.001563	0.500379
	N228	N	0.424144	0.960017	0.678350
	N229	N	0.596839	0.033965	0.679841
	N230	N	0.595964	0.959345	0.321055
	N231	N	0.423820	0.033836	0.320980
	N232	N	0.685994	0.411761	0.962809
	N233	N	0.686034	0.581937	0.037457
	N234	N	0.331169	0.581142	0.962522
	N235	N	0.329801	0.410321	0.037067
	N236	N	0.972998	0.677214	0.413433
	N237	N	0.047241	0.675954	0.585416
	N238	N	0.973219	0.317982	0.587497
	N239	N	0.046921	0.320659	0.415339
	N240	N	0.971230	0.414227	0.676399
	N241	N	0.046448	0.584543	0.678933
	N242	N	0.972515	0.584065	0.321702
	N243	N	0.046473	0.412637	0.322025
	N244	N	0.421548	0.676122	0.963648
	N245	N	0.594516	0.674608	0.037603
	N246	N	0.595198	0.317406	0.963449
	N247	N	0.421940	0.317433	0.036978
	N248	N	0.687874	0.960155	0.414539
	N249	N	0.687913	0.034622	0.585347
	N250	N	0.330369	0.961138	0.586551
	N251	N	0.332330	0.035108	0.415229
	N252	N	0.921924	0.460712	0.180004
	N253	N	0.094797	0.534156	0.178927
	N254	N	0.094891	0.460184	0.820554
	N255	N	0.922968	0.534963	0.821438
	N256	N	0.186376	0.914259	0.462400
	N257	N	0.187829	0.083818	0.537292
	N258	N	0.831988	0.082855	0.462728
	N259	N	0.831660	0.912082	0.537275
	N260	N	0.471130	0.174993	0.914308
	N261	N	0.546048	0.175108	0.085870
	N262	N	0.471794	0.817726	0.086726
	N263	N	0.546416	0.818462	0.915152
	N264	N	0.471411	0.910992	0.177818
	N265	N	0.546677	0.081105	0.177211
	N266	N	0.471432	0.081570	0.822495
	N267	N	0.546451	0.910897	0.821588
	N268	N	0.923981	0.176526	0.462953
	N269	N	0.096354	0.176995	0.536803
	N270	N	0.096868	0.818928	0.463616
	N271	N	0.923914	0.818678	0.537191
	N272	N	0.186103	0.459163	0.914948
	N273	N	0.187010	0.533880	0.085483
	N274	N	0.830618	0.459800	0.085326
	N275	N	0.829463	0.534447	0.913695
	O276	O	1.025849	1.022758	0.020884
	H277	H	1.024933	1.014091	0.025394
	H278	H	1.019661	1.023718	0.012720
	O279	O	0.040988	-0.022725	1.028643
	H280	H	0.043065	-0.015504	1.031700
	H281	H	0.044289	-0.017778	1.027914
	O282	O	-0.076749	0.016910	-0.070560
	H283	H	-0.067378	0.011362	-0.077172
	H284	H	-0.078719	0.014029	-0.068396
	O285	O	0.446340	0.612113	0.473919
	H286	H	0.448009	0.609896	0.474369
	H287	H	0.451484	0.614881	0.480435
	O288	O	0.002643	0.028227	-0.075685
	H289	H	0.005651	0.028602	-0.084333
	H290	H	-0.003689	0.036153	-0.072613
	O291	O	-0.012967	1.048006	-0.038043
	H292	H	-0.011857	1.052363	-0.038296
	H293	H	-0.019951	1.046412	-0.027365
	O294	O	0.039436	0.969372	-0.059646
	H295	H	0.032052	0.963880	-0.068801
	H296	H	0.042218	0.978480	-0.052006
	O297	O	0.505878	0.559801	0.536853
	H298	H	0.516898	0.559123	0.538159
	H299	H	0.498762	0.574909	0.541374
	O300	O	0.477818	0.502144	0.514820
	H301	H	0.467250	0.495701	0.514720
	H302	H	0.477860	0.515569	0.511933
	O303	O	0.933895	-0.050348	1.027606
	H304	H	0.933415	-0.054154	1.026696
	H305	H	0.933730	-0.046780	1.015767
	O306	O	-0.001980	1.016300	0.970872
	H307	H	-0.002356	1.021090	0.970396
	H308	H	-0.005642	1.016824	0.965847
	O309	O	0.054994	0.949265	0.987396
	H310	H	0.057890	0.947717	0.985915
	H311	H	0.059101	0.936407	0.986322
	O312	O	-0.046588	0.003796	1.018501
	H313	H	-0.043589	0.003552	1.016135
	H314	H	-0.045742	0.002821	1.020624
	O315	O	0.441505	0.512962	0.566006
	H316	H	0.439662	0.524188	0.559913
	H317	H	0.442067	0.508916	0.568035
	O318	O	0.077993	-0.050828	0.987336
	H319	H	0.087153	-0.059815	0.988259
	H320	H	0.077500	-0.049494	0.987497
	O321	O	0.539540	0.487493	0.470322
	H322	H	0.543430	0.489532	0.465017
	H323	H	0.529180	0.486308	0.467513
	O324	O	0.938941	-0.066657	1.029657
	H325	H	0.940751	-0.072972	1.022149
	H326	H	0.936898	-0.068110	1.036642
	O327	O	1.015200	0.955674	1.012864
	H328	H	1.011129	0.949871	1.017002
	H329	H	1.019485	0.959439	1.016060
	O330	O	0.504654	0.437958	0.522446
	H331	H	0.506226	0.437324	0.532170
	H332	H	0.499414	0.430520	0.530701
	O333	O	0.589777	0.589910	0.518937
	H334	H	0.583934	0.595868	0.513157
	H335	H	0.596607	0.581817	0.519839
	O336	O	0.536338	0.497463	0.454691
	H337	H	0.538754	0.495858	0.452828
	H338	H	0.531881	0.491265	0.460315
	O339	O	-0.459042	0.499650	-0.460481
	H340	H	-0.459546	0.503999	-0.466272
	H341	H	-0.457276	0.504816	-0.454886
	O342	O	0.559092	0.577271	0.624284
	H343	H	0.577465	0.567135	0.623931
	H344	H	0.561849	0.573907	0.622055
	O345	O	0.501335	0.484511	0.513704
	H346	H	0.507770	0.484511	0.521319
	H347	H	0.494077	0.482975	0.506500
