data_Molecule from HDF5

_cell_length_a		16.350158
_cell_length_b		16.220442
_cell_length_c		16.301758
_cell_angle_alpha	90.317367
_cell_angle_beta	89.861518
_cell_angle_gamma	89.977369
_symmetry_space_group_name_H-M	'P 1'
_symmetry_Int_Tables_number		1

loop_
	_symmetry_equiv_pos_as_xyz
	x,y,z

loop_
	_atom_site_label
	_atom_site_type_symbol
	_atom_site_fract_x
	_atom_site_fract_y
	_atom_site_fract_z
	H0	H	0.402889	0.838180	0.718222
	H1	H	0.598895	0.167027	0.721012
	H2	H	0.600415	0.838641	0.289987
	H3	H	0.403946	0.167785	0.294412
	H4	H	0.716029	0.401846	0.842668
	H5	H	0.715996	0.605815	0.168480
	H6	H	0.285737	0.600968	0.842569
	H7	H	0.283332	0.404020	0.169293
	H8	H	0.836727	0.716433	0.409919
	H9	H	0.164274	0.717478	0.604518
	H10	H	0.836685	0.289211	0.603338
	H11	H	0.163830	0.288187	0.407038
	H12	H	0.837951	0.402512	0.722186
	H13	H	0.163304	0.601322	0.721223
	H14	H	0.836769	0.602653	0.291464
	H15	H	0.163161	0.402859	0.289406
	H16	H	0.402739	0.715168	0.841697
	H17	H	0.597127	0.718379	0.169130
	H18	H	0.596551	0.288973	0.842263
	H19	H	0.401824	0.290307	0.170509
	H20	H	0.714918	0.838362	0.407023
	H21	H	0.713490	0.167446	0.604720
	H22	H	0.285614	0.839473	0.604059
	H23	H	0.285739	0.167112	0.407982
	H24	H	0.901835	0.338190	0.218294
	H25	H	0.098636	0.667248	0.221469
	H26	H	0.098740	0.338788	0.790640
	H27	H	0.901815	0.667793	0.792558
	H28	H	0.217311	0.901081	0.342751
	H29	H	0.214974	0.102918	0.669621
	H30	H	0.785941	0.100936	0.342718
	H31	H	0.784590	0.905096	0.669396
	H32	H	0.336209	0.215447	0.910256
	H33	H	0.664084	0.217145	0.103171
	H34	H	0.336895	0.790616	0.102961
	H35	H	0.663554	0.787846	0.906550
	H36	H	0.338076	0.904017	0.222256
	H37	H	0.664016	0.102672	0.220849
	H38	H	0.337275	0.101382	0.791274
	H39	H	0.663206	0.902964	0.788835
	H40	H	0.902832	0.215874	0.341978
	H41	H	0.097206	0.217686	0.670172
	H42	H	0.098681	0.787207	0.342576
	H43	H	0.902868	0.791056	0.670219
	H44	H	0.215163	0.339311	0.904986
	H45	H	0.213988	0.667832	0.104911
	H46	H	0.784233	0.339171	0.104533
	H47	H	0.786122	0.667399	0.908976
	H48	H	0.403509	0.118811	0.592007
	H49	H	0.595135	0.884746	0.600073
	H50	H	0.582988	0.114392	0.420155
	H51	H	0.406666	0.888137	0.418825
	H52	H	0.599521	0.403816	0.126578
	H53	H	0.597658	0.591908	0.889041
	H54	H	0.410590	0.587628	0.118088
	H55	H	0.400385	0.411646	0.888716
	H56	H	0.118565	0.598177	0.403946
	H57	H	0.887484	0.587529	0.600049
	H58	H	0.112313	0.415657	0.589909
	H59	H	0.883665	0.413914	0.403732
	H60	H	0.117072	0.415264	0.608265
	H61	H	0.881055	0.599928	0.609194
	H62	H	0.115428	0.601361	0.420931
	H63	H	0.881644	0.399394	0.412335
	H64	H	0.412294	0.606556	0.123424
	H65	H	0.589887	0.592996	0.891982
	H66	H	0.596637	0.422012	0.120345
	H67	H	0.411646	0.414057	0.892991
	H68	H	0.605052	0.120939	0.419885
	H69	H	0.589979	0.887142	0.597876
	H70	H	0.401903	0.122762	0.605799
	H71	H	0.404652	0.884170	0.409966
	H72	H	0.910727	0.620550	0.105353
	H73	H	0.098488	0.385612	0.095088
	H74	H	0.098014	0.621373	0.914152
	H75	H	0.915121	0.390742	0.918098
	H76	H	0.093065	0.918680	0.619265
	H77	H	0.094453	0.088543	0.391355
	H78	H	0.905611	0.095385	0.622009
	H79	H	0.911297	0.913210	0.392111
	H80	H	0.612498	0.090478	0.919888
	H81	H	0.387478	0.094703	0.093115
	H82	H	0.616428	0.910771	0.098590
	H83	H	0.385922	0.912406	0.914940
	H84	H	0.617261	0.909586	0.098741
	H85	H	0.384664	0.089631	0.106284
	H86	H	0.616673	0.090971	0.904637
	H87	H	0.383415	0.911032	0.906060
	H88	H	0.907488	0.096007	0.621920
	H89	H	0.089830	0.097970	0.391094
	H90	H	0.087805	0.905614	0.621871
	H91	H	0.908169	0.903330	0.388125
	H92	H	0.090142	0.620126	0.909197
	H93	H	0.090804	0.385311	0.104051
	H94	H	0.909941	0.616652	0.094038
	H95	H	0.897881	0.385056	0.917468
	H96	H	0.415029	0.118255	0.601047
	H97	H	0.594701	0.886416	0.594196
	H98	H	0.592477	0.122624	0.401129
	H99	H	0.414034	0.887718	0.411879
	H100	H	0.582602	0.409104	0.119465
	H101	H	0.594154	0.599219	0.887985
	H102	H	0.395458	0.597178	0.126057
	H103	H	0.408585	0.402783	0.888724
	H104	H	0.111948	0.585336	0.414422
	H105	H	0.885465	0.602466	0.593352
	H106	H	0.119106	0.399752	0.597793
	H107	H	0.887477	0.413889	0.420058
	H108	H	0.900377	0.621584	0.099566
	H109	H	0.087357	0.389457	0.093430
	H110	H	0.090817	0.617538	0.918073
	H111	H	0.908262	0.383845	0.901979
	H112	H	0.101480	0.908440	0.624803
	H113	H	0.099563	0.097615	0.387425
	H114	H	0.906389	0.097876	0.622756
	H115	H	0.901440	0.911784	0.388685
	H116	H	0.617478	0.103886	0.913914
	H117	H	0.381562	0.103499	0.103125
	H118	H	0.616547	0.910241	0.097445
	H119	H	0.383517	0.903931	0.912074
	C120	C	0.379052	0.011373	0.627309
	C121	C	0.621624	0.994678	0.626669
	C122	C	0.622458	0.010897	0.384439
	C123	C	0.379492	0.994975	0.385121
	C124	C	0.621464	0.381872	0.014256
	C125	C	0.621852	0.624299	0.997559
	C126	C	0.377783	0.624994	0.014351
	C127	C	0.377831	0.381346	0.998071
	C128	C	0.007706	0.624243	0.384612
	C129	C	0.992294	0.625512	0.629058
	C130	C	0.008350	0.381673	0.627087
	C131	C	0.992043	0.380323	0.383392
	C132	C	0.878223	0.511519	0.127770
	C133	C	0.120820	0.495235	0.126656
	C134	C	0.121635	0.511041	0.884284
	C135	C	0.879131	0.495136	0.884791
	C136	C	0.122246	0.881350	0.514060
	C137	C	0.122285	0.124359	0.497811
	C138	C	0.878689	0.124350	0.514153
	C139	C	0.878623	0.881832	0.497920
	C140	C	0.508183	0.123994	0.884504
	C141	C	0.492637	0.125178	0.128779
	C142	C	0.508836	0.881708	0.127496
	C143	C	0.491894	0.880668	0.882797
	C144	C	0.382142	0.887315	0.680992
	C145	C	0.619142	0.118080	0.682864
	C146	C	0.620182	0.887533	0.328674
	C147	C	0.382577	0.118594	0.331206
	C148	C	0.677474	0.382513	0.891484
	C149	C	0.677393	0.624307	0.120107
	C150	C	0.323213	0.621722	0.891346
	C151	C	0.322078	0.384099	0.120887
	C152	C	0.885273	0.679078	0.388495
	C153	C	0.114881	0.680432	0.625470
	C154	C	0.885594	0.326882	0.624345
	C155	C	0.114911	0.325697	0.386367
	C156	C	0.886074	0.383539	0.683108
	C157	C	0.114835	0.622660	0.683306
	C158	C	0.885398	0.622230	0.329848
	C159	C	0.114606	0.382727	0.327873
	C160	C	0.381599	0.678328	0.890880
	C161	C	0.618141	0.680328	0.120475
	C162	C	0.618430	0.326029	0.891112
	C163	C	0.381439	0.327931	0.121601
	C164	C	0.677536	0.887500	0.386323
	C165	C	0.676311	0.118263	0.625289
	C166	C	0.323930	0.887952	0.624203
	C167	C	0.323835	0.118071	0.387716
	C168	C	0.880695	0.387431	0.181424
	C169	C	0.118844	0.618492	0.182997
	C170	C	0.118836	0.387701	0.828899
	C171	C	0.881661	0.618714	0.830496
	C172	C	0.178276	0.881952	0.391290
	C173	C	0.177186	0.123099	0.620920
	C174	C	0.823926	0.121543	0.391210
	C175	C	0.822759	0.884429	0.620631
	C176	C	0.385115	0.178358	0.888530
	C177	C	0.615232	0.179962	0.125003
	C178	C	0.385816	0.827888	0.124344
	C179	C	0.614981	0.825695	0.886062
	C180	C	0.386396	0.884367	0.183434
	C181	C	0.615044	0.122844	0.183246
	C182	C	0.385805	0.121880	0.829194
	C183	C	0.614759	0.882685	0.827450
	C184	C	0.882462	0.178185	0.390774
	C185	C	0.118567	0.179959	0.621206
	C186	C	0.119440	0.825486	0.390961
	C187	C	0.881701	0.827905	0.621171
	C188	C	0.176809	0.388184	0.885681
	C189	C	0.176368	0.618616	0.125336
	C190	C	0.822812	0.387796	0.124394
	C191	C	0.823976	0.618493	0.888060
	C192	C	0.400533	0.097600	0.606183
	C193	C	0.599702	0.908411	0.604085
	C194	C	0.600108	0.097242	0.407036
	C195	C	0.401935	0.908777	0.407091
	C196	C	0.599371	0.404842	0.100004
	C197	C	0.600101	0.601615	0.911875
	C198	C	0.399592	0.603455	0.100279
	C199	C	0.400314	0.403054	0.912422
	C200	C	0.093438	0.601513	0.406661
	C201	C	0.906665	0.603120	0.607367
	C202	C	0.093915	0.403769	0.605286
	C203	C	0.906375	0.402504	0.405486
	C204	C	0.900420	0.597324	0.106218
	C205	C	0.098803	0.409132	0.103986
	C206	C	0.099460	0.597536	0.907083
	C207	C	0.900872	0.408880	0.906159
	C208	C	0.100473	0.904165	0.599663
	C209	C	0.101011	0.101615	0.412216
	C210	C	0.900242	0.102730	0.599967
	C211	C	0.900524	0.903151	0.411827
	C212	C	0.593485	0.101637	0.906447
	C213	C	0.406838	0.102621	0.107120
	C214	C	0.594780	0.903722	0.105029
	C215	C	0.406415	0.902535	0.904716
	Zn216	Zn	0.500443	0.002626	0.754590
	Zn217	Zn	0.500821	0.003055	0.256546
	Zn218	Zn	0.750336	0.503229	0.006101
	Zn219	Zn	0.249966	0.503374	0.005995
	Zn220	Zn	0.000301	0.753198	0.506196
	Zn221	Zn	0.000103	0.252426	0.505581
	Zn222	Zn	0.000524	0.502958	0.756497
	Zn223	Zn	-0.000251	0.502722	0.255660
	Zn224	Zn	0.500010	0.752804	0.005688
	Zn225	Zn	0.500017	0.253090	0.006805
	Zn226	Zn	0.749855	0.003425	0.505621
	Zn227	Zn	0.250491	0.002905	0.505969
	N228	N	0.415633	0.965015	0.682908
	N229	N	0.585847	0.040099	0.683892
	N230	N	0.586565	0.965359	0.327265
	N231	N	0.416543	0.041027	0.329432
	N232	N	0.679389	0.416532	0.969046
	N233	N	0.679788	0.590192	0.042729
	N234	N	0.320853	0.589183	0.969074
	N235	N	0.319857	0.416554	0.043083
	N236	N	0.962496	0.680294	0.421740
	N237	N	0.037543	0.682027	0.592167
	N238	N	0.962423	0.325838	0.589952
	N239	N	0.037776	0.324309	0.420274
	N240	N	0.963567	0.416947	0.684873
	N241	N	0.037607	0.589446	0.685670
	N242	N	0.962550	0.588376	0.327711
	N243	N	0.037128	0.415990	0.325888
	N244	N	0.414878	0.680597	0.968270
	N245	N	0.584132	0.680317	0.043386
	N246	N	0.584395	0.325503	0.968320
	N247	N	0.415072	0.325839	0.044121
	N248	N	0.678672	0.965189	0.420383
	N249	N	0.677928	0.040515	0.591161
	N250	N	0.321721	0.965871	0.591674
	N251	N	0.322095	0.040068	0.420466
	N252	N	0.914577	0.465065	0.183624
	N253	N	0.085073	0.540833	0.184189
	N254	N	0.085363	0.465577	0.827897
	N255	N	0.914985	0.540771	0.828015
	N256	N	0.180161	0.915971	0.468692
	N257	N	0.179546	0.089260	0.543296
	N258	N	0.821606	0.088859	0.468757
	N259	N	0.820785	0.917058	0.542935
	N260	N	0.462229	0.179954	0.922141
	N261	N	0.537981	0.181274	0.091683
	N262	N	0.462613	0.826481	0.090301
	N263	N	0.537655	0.824255	0.919698
	N264	N	0.464259	0.917187	0.185450
	N265	N	0.537614	0.089666	0.185766
	N266	N	0.463185	0.088694	0.826569
	N267	N	0.537535	0.916085	0.825217
	N268	N	0.915675	0.180219	0.468284
	N269	N	0.085051	0.180731	0.543899
	N270	N	0.085552	0.824750	0.468357
	N271	N	0.915623	0.826042	0.543799
	N272	N	0.178620	0.466077	0.919359
	N273	N	0.177573	0.541005	0.090963
	N274	N	0.821043	0.465910	0.091868
	N275	N	0.822358	0.540764	0.921121
	O276	O	0.497521	0.490236	0.484562
	H277	H	0.496026	0.496315	0.485712
	H278	H	0.496575	0.498360	0.485130
	O279	O	0.137899	0.000072	-0.012917
	H280	H	0.138251	0.002550	-0.013872
	H281	H	0.152352	-0.002729	-0.022413
	O282	O	0.480996	0.466789	0.485962
	H283	H	0.478986	0.463049	0.486289
	H284	H	0.487973	0.460633	0.484121
	O285	O	0.431134	0.547955	0.473247
	H286	H	0.429512	0.542447	0.481715
	H287	H	0.430066	0.550094	0.474708
	O288	O	1.483195	0.503865	-0.486714
	H289	H	1.489181	0.502606	-0.485673
	H290	H	1.488433	0.508558	-0.490045
	O291	O	-0.534703	0.518137	-0.437743
	H292	H	-0.534107	0.512573	-0.435597
	H293	H	-0.531941	0.512047	-0.441599
	O294	O	0.508368	0.438600	0.514835
	H295	H	0.500536	0.450593	0.517773
	H296	H	0.514997	0.443668	0.505329
	O297	O	0.108696	0.988573	0.024845
	H298	H	0.110725	0.978432	0.023839
	H299	H	0.113029	0.992573	0.030206
	O300	O	1.130582	0.017188	0.997862
	H301	H	1.135264	0.029426	0.998653
	H302	H	1.133117	0.018863	0.988910
	O303	O	0.452869	0.516028	0.509743
	H304	H	0.443882	0.515432	0.510016
	H305	H	0.445238	0.519815	0.512746
	O306	O	0.117083	1.014126	0.994525
	H307	H	0.114205	1.009581	0.994783
	H308	H	0.115101	1.009703	0.998833
	O309	O	0.509790	0.418247	0.505431
	H310	H	0.516649	0.413619	0.495375
	H311	H	0.503880	0.414807	0.509333
