data_Molecule from HDF5

_cell_length_a		16.094530
_cell_length_b		16.405857
_cell_length_c		16.241966
_cell_angle_alpha	90.007368
_cell_angle_beta	90.512085
_cell_angle_gamma	90.022969
_symmetry_space_group_name_H-M	'P 1'
_symmetry_Int_Tables_number		1

loop_
	_symmetry_equiv_pos_as_xyz
	x,y,z

loop_
	_atom_site_label
	_atom_site_type_symbol
	_atom_site_fract_x
	_atom_site_fract_y
	_atom_site_fract_z
	H0	H	0.408377	0.840534	0.710789
	H1	H	0.609580	0.164823	0.712211
	H2	H	0.606857	0.841212	0.279871
	H3	H	0.406809	0.166328	0.279525
	H4	H	0.717105	0.407220	0.829909
	H5	H	0.722403	0.600788	0.159552
	H6	H	0.291901	0.599789	0.830171
	H7	H	0.296118	0.407857	0.160109
	H8	H	0.842296	0.717477	0.392484
	H9	H	0.172242	0.715962	0.596866
	H10	H	0.843028	0.287005	0.594057
	H11	H	0.172248	0.287789	0.397219
	H12	H	0.841474	0.404143	0.705558
	H13	H	0.172005	0.600029	0.710883
	H14	H	0.841859	0.599420	0.279972
	H15	H	0.172967	0.404209	0.284361
	H16	H	0.402621	0.720918	0.831980
	H17	H	0.609795	0.720746	0.158276
	H18	H	0.608464	0.285760	0.832761
	H19	H	0.405677	0.286897	0.157940
	H20	H	0.720629	0.839827	0.398491
	H21	H	0.724764	0.165133	0.595912
	H22	H	0.293878	0.839686	0.591297
	H23	H	0.291314	0.165571	0.395730
	H24	H	0.907856	0.339472	0.209424
	H25	H	0.106373	0.664471	0.211971
	H26	H	0.105835	0.339797	0.781672
	H27	H	0.905465	0.663782	0.776772
	H28	H	0.217179	0.906646	0.329299
	H29	H	0.221924	0.098237	0.659070
	H30	H	0.794567	0.097182	0.330692
	H31	H	0.796883	0.905740	0.660287
	H32	H	0.341943	0.217356	0.894596
	H33	H	0.671605	0.219252	0.097674
	H34	H	0.342477	0.788396	0.095280
	H35	H	0.671255	0.788178	0.896055
	H36	H	0.340673	0.907737	0.205880
	H37	H	0.671748	0.103088	0.210568
	H38	H	0.342124	0.101957	0.779486
	H39	H	0.673419	0.906712	0.785423
	H40	H	0.904060	0.219298	0.332546
	H41	H	0.110977	0.218335	0.658346
	H42	H	0.108727	0.784499	0.331714
	H43	H	0.907667	0.786027	0.658293
	H44	H	0.220182	0.340002	0.899585
	H45	H	0.220957	0.666143	0.094713
	H46	H	0.792511	0.339545	0.091184
	H47	H	0.793156	0.665801	0.896647
	H48	H	0.416126	0.119804	0.591389
	H49	H	0.605583	0.887091	0.586373
	H50	H	0.592001	0.116864	0.402019
	H51	H	0.409432	0.886485	0.400973
	H52	H	0.602445	0.416833	0.111048
	H53	H	0.602805	0.596153	0.877044
	H54	H	0.423729	0.598237	0.109518
	H55	H	0.415963	0.416123	0.881135
	H56	H	0.127496	0.598138	0.400223
	H57	H	0.889943	0.589895	0.586972
	H58	H	0.125031	0.410308	0.586455
	H59	H	0.889477	0.412108	0.402619
	H60	H	0.126245	0.411125	0.592323
	H61	H	0.886759	0.598831	0.588252
	H62	H	0.124767	0.598087	0.409551
	H63	H	0.888101	0.407689	0.399892
	H64	H	0.412723	0.605469	0.115327
	H65	H	0.593577	0.594888	0.880765
	H66	H	0.592481	0.411578	0.109576
	H67	H	0.419168	0.404320	0.877904
	H68	H	0.604687	0.117902	0.409769
	H69	H	0.603156	0.884684	0.595418
	H70	H	0.418564	0.116164	0.586250
	H71	H	0.415231	0.886263	0.394912
	H72	H	0.919799	0.619440	0.097148
	H73	H	0.111988	0.381844	0.094859
	H74	H	0.103718	0.619987	0.903673
	H75	H	0.918269	0.389735	0.904979
	H76	H	0.096437	0.907539	0.610224
	H77	H	0.105425	0.091775	0.377074
	H78	H	0.920837	0.102294	0.613426
	H79	H	0.916241	0.903583	0.377000
	H80	H	0.622107	0.088949	0.907053
	H81	H	0.391771	0.090236	0.084916
	H82	H	0.626187	0.908186	0.091033
	H83	H	0.391371	0.911602	0.910084
	H84	H	0.623748	0.909890	0.084491
	H85	H	0.385539	0.098761	0.094086
	H86	H	0.627956	0.099360	0.895798
	H87	H	0.389224	0.918427	0.898433
	H88	H	0.912257	0.094537	0.613580
	H89	H	0.089533	0.093865	0.380492
	H90	H	0.103010	0.903621	0.612839
	H91	H	0.910603	0.910290	0.377656
	H92	H	0.095462	0.619070	0.896470
	H93	H	0.091855	0.386731	0.097981
	H94	H	0.919472	0.614262	0.081088
	H95	H	0.903099	0.385149	0.903871
	H96	H	0.411846	0.118366	0.585297
	H97	H	0.596718	0.888862	0.590572
	H98	H	0.604414	0.122170	0.396156
	H99	H	0.416993	0.889522	0.402100
	H100	H	0.601518	0.405357	0.114068
	H101	H	0.596229	0.603748	0.876428
	H102	H	0.411597	0.591879	0.111276
	H103	H	0.406298	0.408818	0.875686
	H104	H	0.124233	0.589885	0.404169
	H105	H	0.891549	0.595850	0.579441
	H106	H	0.126738	0.405797	0.589221
	H107	H	0.890284	0.408243	0.405088
	H108	H	0.905260	0.620172	0.087906
	H109	H	0.100388	0.389876	0.079445
	H110	H	0.093762	0.616273	0.906864
	H111	H	0.912603	0.383936	0.891541
	H112	H	0.103823	0.911257	0.611665
	H113	H	0.098359	0.106434	0.373874
	H114	H	0.922169	0.091766	0.609845
	H115	H	0.919420	0.911318	0.380310
	H116	H	0.626491	0.104705	0.911889
	H117	H	0.388152	0.103624	0.080996
	H118	H	0.624795	0.914850	0.089198
	H119	H	0.385685	0.905336	0.898721
	C120	C	0.386370	0.010840	0.616223
	C121	C	0.631083	0.994343	0.619049
	C122	C	0.629227	0.011581	0.374004
	C123	C	0.384299	0.994823	0.371259
	C124	C	0.627625	0.382382	0.003543
	C125	C	0.628176	0.626304	0.986696
	C126	C	0.385219	0.626366	0.003677
	C127	C	0.385608	0.381736	0.986606
	C128	C	0.016029	0.623833	0.374307
	C129	C	0.998464	0.623430	0.615743
	C130	C	0.016664	0.380573	0.616755
	C131	C	0.998554	0.381246	0.374949
	C132	C	0.885882	0.510407	0.116580
	C133	C	0.129940	0.493781	0.118925
	C134	C	0.127416	0.511154	0.874337
	C135	C	0.883413	0.493901	0.871446
	C136	C	0.129398	0.879389	0.503228
	C137	C	0.128249	0.124713	0.486082
	C138	C	0.886988	0.124493	0.504130
	C139	C	0.886600	0.880552	0.486631
	C140	C	0.516023	0.125596	0.874367
	C141	C	0.497764	0.125765	0.116531
	C142	C	0.515641	0.882756	0.116646
	C143	C	0.498322	0.883567	0.874681
	C144	C	0.388250	0.888875	0.672259
	C145	C	0.629592	0.116413	0.674115
	C146	C	0.626960	0.889665	0.318131
	C147	C	0.386331	0.117362	0.316805
	C148	C	0.681027	0.385928	0.879470
	C149	C	0.684742	0.622362	0.110190
	C150	C	0.328849	0.622034	0.879786
	C151	C	0.332165	0.386089	0.110431
	C152	C	0.891645	0.679201	0.373683
	C153	C	0.122480	0.678597	0.616285
	C154	C	0.892081	0.325486	0.613751
	C155	C	0.122976	0.325827	0.377305
	C156	C	0.891320	0.383746	0.669277
	C157	C	0.122668	0.620237	0.672462
	C158	C	0.891338	0.620569	0.317907
	C159	C	0.123460	0.383817	0.321269
	C160	C	0.384442	0.681801	0.880467
	C161	C	0.628855	0.682015	0.109612
	C162	C	0.627150	0.325395	0.880972
	C163	C	0.386694	0.325934	0.109571
	C164	C	0.683525	0.888723	0.377167
	C165	C	0.686835	0.116477	0.615999
	C166	C	0.331377	0.888279	0.612897
	C167	C	0.328735	0.116903	0.374744
	C168	C	0.887170	0.388210	0.171991
	C169	C	0.127696	0.616139	0.174462
	C170	C	0.125287	0.388236	0.820077
	C171	C	0.885668	0.615708	0.815606
	C172	C	0.182009	0.884156	0.379106
	C173	C	0.184364	0.120086	0.609772
	C174	C	0.830985	0.119870	0.380461
	C175	C	0.833290	0.884305	0.610786
	C176	C	0.391230	0.179601	0.875160
	C177	C	0.622227	0.181258	0.116680
	C178	C	0.391515	0.827158	0.114547
	C179	C	0.622287	0.826934	0.876554
	C180	C	0.390734	0.885992	0.169959
	C181	C	0.622385	0.123493	0.172812
	C182	C	0.391772	0.122646	0.817195
	C183	C	0.623599	0.885963	0.821594
	C184	C	0.885737	0.180109	0.381137
	C185	C	0.129002	0.179714	0.609375
	C186	C	0.127752	0.823528	0.380404
	C187	C	0.888066	0.824588	0.609688
	C188	C	0.182719	0.388669	0.878024
	C189	C	0.184486	0.616817	0.115909
	C190	C	0.830129	0.388101	0.112655
	C191	C	0.829622	0.616585	0.875095
	C192	C	0.408772	0.096090	0.594165
	C193	C	0.608489	0.908821	0.597149
	C194	C	0.606842	0.096783	0.396104
	C195	C	0.407198	0.909495	0.392949
	C196	C	0.605230	0.404640	0.089231
	C197	C	0.604475	0.604684	0.900348
	C198	C	0.408916	0.604855	0.089798
	C199	C	0.407404	0.403263	0.900460
	C200	C	0.102988	0.601878	0.397823
	C201	C	0.911795	0.601397	0.591734
	C202	C	0.103535	0.402392	0.595670
	C203	C	0.911753	0.402927	0.396064
	C204	C	0.908365	0.595909	0.095054
	C205	C	0.107922	0.408427	0.097203
	C206	C	0.104375	0.596411	0.895856
	C207	C	0.905056	0.408186	0.893393
	C208	C	0.107614	0.901107	0.589458
	C209	C	0.104900	0.103535	0.399461
	C210	C	0.911256	0.102730	0.590099
	C211	C	0.908750	0.902170	0.400729
	C212	C	0.603059	0.104107	0.897933
	C213	C	0.410808	0.104162	0.093280
	C214	C	0.602342	0.904663	0.094926
	C215	C	0.411290	0.905458	0.896051
	Zn216	Zn	0.508362	0.003127	0.746887
	Zn217	Zn	0.507104	0.004655	0.243649
	Zn218	Zn	0.755721	0.503103	-0.005343
	Zn219	Zn	0.257263	0.503577	-0.004618
	Zn220	Zn	0.007236	0.751666	0.495032
	Zn221	Zn	0.007777	0.253658	0.495427
	Zn222	Zn	0.006535	0.501776	0.743730
	Zn223	Zn	0.007822	0.502013	0.247287
	Zn224	Zn	0.506752	0.755364	-0.005358
	Zn225	Zn	0.506980	0.253426	-0.004440
	Zn226	Zn	0.758859	0.002565	0.495797
	Zn227	Zn	0.256324	0.002300	0.493864
	N228	N	0.421856	0.966042	0.674237
	N229	N	0.595540	0.039573	0.675791
	N230	N	0.593920	0.967121	0.315911
	N231	N	0.420209	0.040343	0.314568
	N232	N	0.681549	0.420757	0.956607
	N233	N	0.684445	0.588619	0.032533
	N234	N	0.329175	0.588250	0.957407
	N235	N	0.331340	0.420045	0.033094
	N236	N	0.970072	0.681147	0.408071
	N237	N	0.044094	0.680451	0.581679
	N238	N	0.970924	0.323370	0.581765
	N239	N	0.044283	0.323993	0.409800
	N240	N	0.969687	0.417254	0.671315
	N241	N	0.044322	0.586705	0.672565
	N242	N	0.969783	0.586896	0.318097
	N243	N	0.045251	0.417765	0.319594
	N244	N	0.418685	0.684743	0.958393
	N245	N	0.594447	0.684457	0.031756
	N246	N	0.594487	0.323203	0.959080
	N247	N	0.419499	0.323153	0.031574
	N248	N	0.685092	0.965441	0.411229
	N249	N	0.687980	0.039419	0.582356
	N250	N	0.330229	0.964965	0.578627
	N251	N	0.327593	0.039689	0.407869
	N252	N	0.920983	0.465322	0.174514
	N253	N	0.094595	0.538783	0.176612
	N254	N	0.091819	0.465531	0.817356
	N255	N	0.918207	0.538100	0.813171
	N256	N	0.183105	0.918284	0.456516
	N257	N	0.183875	0.086426	0.532058
	N258	N	0.831709	0.086019	0.458018
	N259	N	0.832298	0.918597	0.533477
	N260	N	0.469624	0.181776	0.909764
	N261	N	0.543720	0.182663	0.082301
	N262	N	0.470225	0.824720	0.082224
	N263	N	0.543507	0.825380	0.908734
	N264	N	0.468830	0.920197	0.171198
	N265	N	0.544100	0.089772	0.172818
	N266	N	0.470498	0.089862	0.816728
	N267	N	0.545526	0.920498	0.820503
	N268	N	0.919774	0.183232	0.459055
	N269	N	0.094864	0.182516	0.531387
	N270	N	0.095870	0.820433	0.458568
	N271	N	0.920477	0.822034	0.531450
	N272	N	0.183886	0.465886	0.911016
	N273	N	0.186177	0.539830	0.082207
	N274	N	0.829029	0.465148	0.079225
	N275	N	0.828194	0.539806	0.909139
	O276	O	0.017733	0.003800	-0.020666
	H277	H	0.019006	0.006295	-0.024635
	H278	H	0.008214	0.005889	-0.020378
	O279	O	0.471778	0.561707	0.538240
	H280	H	0.474730	0.561089	0.537228
	H281	H	0.471761	0.570601	0.535163
	O282	O	0.471322	0.421923	0.590302
	H283	H	0.460738	0.418747	0.585207
	H284	H	0.472814	0.415296	0.592794
	O285	O	0.996312	-0.010256	1.032474
	H286	H	0.993062	-0.018400	1.029874
	H287	H	0.992753	-0.002961	1.025580
	O288	O	0.953663	0.032611	0.052734
	H289	H	0.950226	0.030168	0.055213
	H290	H	0.952879	0.040808	0.059863
	O291	O	0.467421	0.597172	0.417759
	H292	H	0.462429	0.610443	0.415111
	H293	H	0.464382	0.600063	0.405945
	O294	O	0.964822	0.084515	0.949645
	H295	H	0.966092	0.096775	0.948472
	H296	H	0.971396	0.088508	0.955074
	O297	O	-0.038421	-0.032598	0.009823
	H298	H	-0.046173	-0.031799	0.013307
	H299	H	-0.028709	-0.034903	-0.000502
	O300	O	0.453487	0.469246	0.559468
	H301	H	0.453475	0.472676	0.569893
	H302	H	0.442739	0.474593	0.549370
	O303	O	0.398909	0.523208	0.366107
	H304	H	0.390658	0.525837	0.357354
	H305	H	0.407995	0.524308	0.362647
	O306	O	1.014161	-0.067604	-0.032133
	H307	H	1.007512	-0.075151	-0.032458
	H308	H	1.016585	-0.070785	-0.038789
	O309	O	-0.067112	-0.007414	1.012331
	H310	H	-0.070363	-0.010596	1.009872
	H311	H	-0.067980	-0.004978	1.019601
	O312	O	1.005353	0.953128	1.009060
	H313	H	0.998064	0.957936	1.019435
	H314	H	1.005603	0.953511	1.012909
	O315	O	0.541041	0.541864	0.493445
	H316	H	0.541576	0.555254	0.504994
	H317	H	0.534530	0.546532	0.488759
	O318	O	0.523081	0.551309	0.470328
	H319	H	0.516664	0.547154	0.463206
	H320	H	0.525907	0.562245	0.483221
	O321	O	0.003296	0.951061	0.965406
	H322	H	-0.001005	0.951738	0.968893
	H323	H	0.011483	0.945928	0.964198
	O324	O	0.570322	0.424227	0.520838
	H325	H	0.567973	0.421851	0.509687
	H326	H	0.563881	0.427999	0.521239
	O327	O	0.470779	0.508893	0.448677
	H328	H	0.478976	0.504682	0.455861
	H329	H	0.472313	0.513387	0.442363
	O330	O	0.588908	0.484145	0.493880
	H331	H	0.577146	0.472273	0.505708
	H332	H	0.604762	0.481661	0.494924
	O333	O	0.546552	0.495465	0.485429
	H334	H	0.548831	0.486731	0.483396
	H335	H	0.550760	0.497098	0.484248
	O336	O	0.597520	0.511588	0.529025
	H337	H	0.590995	0.513401	0.529098
	H338	H	0.599147	0.508540	0.539699
	O339	O	1.031121	0.950807	0.007079
	H340	H	1.043204	0.944392	0.006919
	H341	H	1.030711	0.952703	-0.003110
	O342	O	0.471566	0.480618	0.423240
	H343	H	0.474196	0.484709	0.413959
	H344	H	0.483077	0.477542	0.424064
	O345	O	0.572563	0.539650	0.561702
	H346	H	0.556876	0.529452	0.569056
	H347	H	0.565638	0.537384	0.553787
	O348	O	0.009935	-0.055552	-0.017481
	H349	H	0.004022	-0.059003	-0.016878
	H350	H	0.010738	-0.054006	-0.020532
	O351	O	0.052571	0.996587	1.005126
	H352	H	0.051022	0.995613	0.997270
	H353	H	0.053617	0.994290	0.997268
	O354	O	0.515004	0.582983	0.483117
	H355	H	0.524028	0.575192	0.492187
	H356	H	0.520472	0.588130	0.480475
	O357	O	-0.336965	1.366933	1.324430
	H358	H	-0.328439	1.365547	1.322487
	H359	H	-0.338380	1.375209	1.322579
