data_Molecule from HDF5

_cell_length_a		16.241839
_cell_length_b		16.345054
_cell_length_c		16.328352
_cell_angle_alpha	90.063844
_cell_angle_beta	90.015372
_cell_angle_gamma	89.935853
_symmetry_space_group_name_H-M	'P 1'
_symmetry_Int_Tables_number		1

loop_
	_symmetry_equiv_pos_as_xyz
	x,y,z

loop_
	_atom_site_label
	_atom_site_type_symbol
	_atom_site_fract_x
	_atom_site_fract_y
	_atom_site_fract_z
	H0	H	0.396921	0.836199	0.725389
	H1	H	0.595009	0.162073	0.726367
	H2	H	0.595946	0.835803	0.295476
	H3	H	0.396240	0.161865	0.294931
	H4	H	0.709469	0.402089	0.845482
	H5	H	0.709119	0.595933	0.174061
	H6	H	0.281978	0.597368	0.845842
	H7	H	0.283253	0.402851	0.172675
	H8	H	0.832495	0.714894	0.411482
	H9	H	0.160536	0.713636	0.608631
	H10	H	0.831950	0.286933	0.608075
	H11	H	0.160390	0.285649	0.412589
	H12	H	0.831650	0.403765	0.723062
	H13	H	0.160488	0.597927	0.724657
	H14	H	0.832042	0.598578	0.296439
	H15	H	0.160926	0.400558	0.296183
	H16	H	0.397824	0.714235	0.846541
	H17	H	0.594806	0.714683	0.173053
	H18	H	0.595325	0.283558	0.846629
	H19	H	0.397994	0.285033	0.172366
	H20	H	0.711725	0.836938	0.412573
	H21	H	0.708279	0.163991	0.607476
	H22	H	0.281301	0.837101	0.608545
	H23	H	0.282450	0.163568	0.413681
	H24	H	0.898553	0.336556	0.224576
	H25	H	0.094225	0.662832	0.224626
	H26	H	0.095101	0.337396	0.794286
	H27	H	0.897334	0.663298	0.796323
	H28	H	0.209834	0.902166	0.346374
	H29	H	0.209430	0.096803	0.674403
	H30	H	0.781571	0.097082	0.346489
	H31	H	0.783133	0.904282	0.674297
	H32	H	0.332191	0.213463	0.911868
	H33	H	0.660010	0.213287	0.108690
	H34	H	0.331989	0.785767	0.108740
	H35	H	0.659855	0.785050	0.912397
	H36	H	0.332004	0.902555	0.223415
	H37	H	0.659714	0.097354	0.224931
	H38	H	0.332212	0.097663	0.796108
	H39	H	0.659825	0.901457	0.796792
	H40	H	0.897266	0.215094	0.346426
	H41	H	0.096050	0.216130	0.672440
	H42	H	0.096046	0.782757	0.347591
	H43	H	0.898348	0.786122	0.673901
	H44	H	0.208268	0.335873	0.913965
	H45	H	0.209465	0.663359	0.107309
	H46	H	0.783487	0.335346	0.105770
	H47	H	0.782919	0.663459	0.914480
	H48	H	0.401788	0.116348	0.605559
	H49	H	0.606845	0.879934	0.597320
	H50	H	0.591184	0.115842	0.417809
	H51	H	0.409723	0.885975	0.416931
	H52	H	0.585482	0.403130	0.125409
	H53	H	0.586617	0.596523	0.893920
	H54	H	0.405007	0.592328	0.124855
	H55	H	0.411611	0.405707	0.895953
	H56	H	0.112814	0.593112	0.417275
	H57	H	0.875971	0.605538	0.602496
	H58	H	0.113559	0.414233	0.612558
	H59	H	0.882064	0.407119	0.426252
	H60	H	0.116773	0.396037	0.602817
	H61	H	0.884444	0.588132	0.594596
	H62	H	0.111959	0.591992	0.419078
	H63	H	0.881438	0.415501	0.412884
	H64	H	0.402247	0.595166	0.125726
	H65	H	0.593243	0.594401	0.892382
	H66	H	0.593056	0.403997	0.127178
	H67	H	0.399876	0.397579	0.888824
	H68	H	0.586293	0.114725	0.413997
	H69	H	0.585668	0.879787	0.622313
	H70	H	0.404207	0.115477	0.604673
	H71	H	0.399534	0.884100	0.422563
	H72	H	0.904333	0.613885	0.100837
	H73	H	0.091036	0.384674	0.099964
	H74	H	0.083678	0.617165	0.909088
	H75	H	0.900815	0.385280	0.921950
	H76	H	0.098023	0.912044	0.626987
	H77	H	0.086321	0.093362	0.395137
	H78	H	0.896839	0.099328	0.629170
	H79	H	0.905385	0.906466	0.395335
	H80	H	0.615500	0.107399	0.924660
	H81	H	0.378722	0.096268	0.101470
	H82	H	0.610265	0.909731	0.097525
	H83	H	0.378193	0.909535	0.911773
	H84	H	0.614240	0.909674	0.108067
	H85	H	0.381142	0.090456	0.101735
	H86	H	0.606399	0.079077	0.926808
	H87	H	0.377706	0.900927	0.917351
	H88	H	0.901242	0.087526	0.624600
	H89	H	0.090450	0.095687	0.393106
	H90	H	0.079961	0.910243	0.622497
	H91	H	0.902773	0.905165	0.393587
	H92	H	0.084936	0.612188	0.924535
	H93	H	0.092588	0.381269	0.107012
	H94	H	0.897679	0.616825	0.104237
	H95	H	0.898905	0.380469	0.910392
	H96	H	0.402144	0.115158	0.603033
	H97	H	0.576261	0.891011	0.592715
	H98	H	0.585744	0.113766	0.420365
	H99	H	0.400427	0.880981	0.411578
	H100	H	0.589506	0.410069	0.123806
	H101	H	0.588721	0.589486	0.895177
	H102	H	0.401408	0.590853	0.125639
	H103	H	0.397426	0.412912	0.893605
	H104	H	0.112365	0.590754	0.417642
	H105	H	0.877056	0.588283	0.614608
	H106	H	0.108642	0.412251	0.592419
	H107	H	0.877029	0.399828	0.412385
	H108	H	0.904439	0.615864	0.108810
	H109	H	0.085573	0.384790	0.105280
	H110	H	0.097731	0.618365	0.916868
	H111	H	0.910454	0.385204	0.913683
	H112	H	0.089210	0.895453	0.629108
	H113	H	0.090767	0.090406	0.395000
	H114	H	0.909601	0.098010	0.624384
	H115	H	0.902821	0.908596	0.394909
	H116	H	0.617022	0.089129	0.901217
	H117	H	0.377552	0.092576	0.106535
	H118	H	0.614110	0.900104	0.102839
	H119	H	0.381580	0.909819	0.922254
	C120	C	0.374199	0.007928	0.632595
	C121	C	0.617877	0.991680	0.632236
	C122	C	0.617475	0.007329	0.388643
	C123	C	0.374403	0.991228	0.388842
	C124	C	0.617941	0.377448	0.017518
	C125	C	0.617951	0.621453	1.001900
	C126	C	0.374175	0.621305	0.017966
	C127	C	0.374714	0.377764	1.000562
	C128	C	0.004357	0.620929	0.389242
	C129	C	0.987982	0.621970	0.632138
	C130	C	0.004326	0.379535	0.630905
	C131	C	0.988525	0.378611	0.388769
	C132	C	0.874329	0.507688	0.132104
	C133	C	0.117694	0.491490	0.131910
	C134	C	0.117474	0.508266	0.888178
	C135	C	0.874896	0.491735	0.888227
	C136	C	0.117837	0.877199	0.518526
	C137	C	0.117368	0.121106	0.502282
	C138	C	0.874024	0.122607	0.518243
	C139	C	0.874756	0.878658	0.502332
	C140	C	0.504462	0.120290	0.888968
	C141	C	0.487601	0.121235	0.131908
	C142	C	0.504528	0.877954	0.131647
	C143	C	0.487480	0.878119	0.888808
	C144	C	0.376841	0.885076	0.687539
	C145	C	0.615526	0.113719	0.687869
	C146	C	0.616291	0.884864	0.332863
	C147	C	0.376146	0.113711	0.333523
	C148	C	0.672358	0.380712	0.894490
	C149	C	0.671682	0.617214	0.125167
	C150	C	0.319662	0.618166	0.894650
	C151	C	0.320637	0.381658	0.123948
	C152	C	0.881173	0.676405	0.391430
	C153	C	0.111421	0.676562	0.629482
	C154	C	0.881036	0.324524	0.628550
	C155	C	0.111689	0.323448	0.391574
	C156	C	0.880793	0.382589	0.685553
	C157	C	0.111443	0.619059	0.686991
	C158	C	0.881105	0.618812	0.334173
	C159	C	0.111861	0.380687	0.333936
	C160	C	0.376978	0.676428	0.895044
	C161	C	0.615147	0.676460	0.124614
	C162	C	0.615552	0.321952	0.895007
	C163	C	0.377655	0.323204	0.123798
	C164	C	0.673340	0.885093	0.391405
	C165	C	0.671992	0.114552	0.628877
	C166	C	0.319081	0.885397	0.629801
	C167	C	0.319568	0.114421	0.392445
	C168	C	0.877065	0.385243	0.187226
	C169	C	0.115198	0.614249	0.186850
	C170	C	0.115383	0.385762	0.832558
	C171	C	0.877261	0.614892	0.834378
	C172	C	0.172666	0.880645	0.395391
	C173	C	0.172278	0.118063	0.625239
	C174	C	0.819585	0.118271	0.395026
	C175	C	0.820453	0.882508	0.625422
	C176	C	0.381191	0.175595	0.891541
	C177	C	0.611254	0.175379	0.129009
	C178	C	0.381104	0.823301	0.129208
	C179	C	0.611076	0.823118	0.891618
	C180	C	0.380982	0.881496	0.186136
	C181	C	0.610880	0.118046	0.186969
	C182	C	0.381098	0.117815	0.834249
	C183	C	0.610837	0.880491	0.833948
	C184	C	0.876826	0.176995	0.395150
	C185	C	0.115436	0.176821	0.624595
	C186	C	0.115815	0.821723	0.395780
	C187	C	0.877310	0.823834	0.625188
	C188	C	0.171807	0.385107	0.891751
	C189	C	0.172384	0.614387	0.128583
	C190	C	0.820307	0.384457	0.127945
	C191	C	0.820116	0.614704	0.892798
	C192	C	0.396281	0.093512	0.610864
	C193	C	0.596104	0.905564	0.610347
	C194	C	0.594420	0.092586	0.410886
	C195	C	0.396711	0.905885	0.410548
	C196	C	0.595901	0.399302	0.103516
	C197	C	0.596088	0.599856	0.915867
	C198	C	0.396322	0.599388	0.103282
	C199	C	0.396496	0.398974	0.915030
	C200	C	0.090472	0.598485	0.411494
	C201	C	0.901372	0.600334	0.610389
	C202	C	0.090669	0.401120	0.609131
	C203	C	0.902311	0.401002	0.410726
	C204	C	0.895726	0.593536	0.110697
	C205	C	0.096002	0.405572	0.110528
	C206	C	0.095422	0.593888	0.910453
	C207	C	0.897061	0.405900	0.908986
	C208	C	0.095596	0.899289	0.604052
	C209	C	0.095552	0.099528	0.416444
	C210	C	0.895966	0.101362	0.604041
	C211	C	0.896961	0.900331	0.416697
	C212	C	0.590727	0.098277	0.911046
	C213	C	0.401273	0.099545	0.109731
	C214	C	0.590687	0.899949	0.109412
	C215	C	0.401385	0.900074	0.910687
	Zn216	Zn	0.496076	-0.000535	0.760770
	Zn217	Zn	0.496239	-0.000879	0.259886
	Zn218	Zn	0.746221	0.499300	0.009526
	Zn219	Zn	0.245985	0.499797	0.009390
	Zn220	Zn	-0.003991	0.749334	0.510371
	Zn221	Zn	-0.003429	0.250737	0.510082
	Zn222	Zn	-0.003890	0.500340	0.759447
	Zn223	Zn	-0.003329	0.499876	0.260755
	Zn224	Zn	0.495850	0.749896	0.010054
	Zn225	Zn	0.496390	0.248916	0.009740
	Zn226	Zn	0.745960	0.000005	0.510294
	Zn227	Zn	0.245885	-0.000458	0.510423
	N228	N	0.410476	0.962505	0.689392
	N229	N	0.582491	0.036320	0.689905
	N230	N	0.581766	0.961986	0.331325
	N231	N	0.409369	0.036288	0.330983
	N232	N	0.673920	0.414543	0.971748
	N233	N	0.673327	0.583814	0.047911
	N234	N	0.317847	0.584666	0.971897
	N235	N	0.318817	0.415222	0.046724
	N236	N	0.958756	0.677692	0.425128
	N237	N	0.033536	0.678255	0.596109
	N238	N	0.958932	0.322492	0.595426
	N239	N	0.034036	0.322188	0.424912
	N240	N	0.958488	0.416147	0.687142
	N241	N	0.033724	0.585733	0.688653
	N242	N	0.958804	0.584984	0.332723
	N243	N	0.034133	0.414565	0.332338
	N244	N	0.410457	0.678365	0.972470
	N245	N	0.582194	0.678995	0.046822
	N246	N	0.582187	0.320178	0.972475
	N247	N	0.410435	0.320502	0.046228
	N248	N	0.674226	0.962079	0.425141
	N249	N	0.673384	0.037247	0.595038
	N250	N	0.317375	0.962452	0.596309
	N251	N	0.318405	0.037251	0.426312
	N252	N	0.910123	0.462747	0.189728
	N253	N	0.082034	0.536983	0.188848
	N254	N	0.082311	0.463330	0.830346
	N255	N	0.910551	0.537404	0.831378
	N256	N	0.174003	0.914539	0.472591
	N257	N	0.173339	0.083949	0.548093
	N258	N	0.817460	0.085538	0.472481
	N259	N	0.818920	0.916051	0.548215
	N260	N	0.459055	0.177063	0.924968
	N261	N	0.533527	0.177585	0.095549
	N262	N	0.458994	0.821004	0.096175
	N263	N	0.533469	0.821768	0.925251
	N264	N	0.458840	0.914581	0.187753
	N265	N	0.532998	0.085108	0.188779
	N266	N	0.458834	0.084284	0.832615
	N267	N	0.533177	0.914218	0.832520
	N268	N	0.910160	0.179553	0.472649
	N269	N	0.082063	0.178775	0.547242
	N270	N	0.082614	0.819611	0.473336
	N271	N	0.910521	0.821452	0.547621
	N272	N	0.173146	0.462191	0.925587
	N273	N	0.174208	0.537015	0.095066
	N274	N	0.818344	0.461730	0.094662
	N275	N	0.818584	0.537206	0.925507
	O276	O	0.509392	0.514030	0.399647
	H277	H	0.503327	0.515807	0.398925
	H278	H	0.513711	0.512811	0.412600
	O279	O	0.525798	0.494189	0.428779
	H280	H	0.530139	0.496777	0.420589
	H281	H	0.534795	0.483140	0.423125
	O282	O	1.545435	0.478708	-0.582289
	H283	H	1.552932	0.483708	-0.592975
	H284	H	1.545212	0.477206	-0.580378
	O285	O	0.514767	0.503807	0.360856
	H286	H	0.514866	0.512163	0.360110
	H287	H	0.505453	0.503857	0.355026
