data_Molecule from HDF5

_cell_length_a		16.304297
_cell_length_b		16.267336
_cell_length_c		16.332551
_cell_angle_alpha	90.038599
_cell_angle_beta	89.936971
_cell_angle_gamma	90.011281
_symmetry_space_group_name_H-M	'P 1'
_symmetry_Int_Tables_number		1

loop_
	_symmetry_equiv_pos_as_xyz
	x,y,z

loop_
	_atom_site_label
	_atom_site_type_symbol
	_atom_site_fract_x
	_atom_site_fract_y
	_atom_site_fract_z
	H0	H	0.398024	0.835892	0.720158
	H1	H	0.597119	0.162732	0.720900
	H2	H	0.597715	0.836185	0.291677
	H3	H	0.398137	0.162857	0.289860
	H4	H	0.713169	0.400009	0.843005
	H5	H	0.712613	0.598162	0.169474
	H6	H	0.282582	0.598667	0.842720
	H7	H	0.281601	0.399927	0.168873
	H8	H	0.834086	0.714754	0.407416
	H9	H	0.161867	0.713340	0.601749
	H10	H	0.834034	0.286545	0.602409
	H11	H	0.162057	0.287405	0.407118
	H12	H	0.834245	0.401241	0.720596
	H13	H	0.160959	0.599077	0.720844
	H14	H	0.834360	0.598346	0.290669
	H15	H	0.161396	0.402702	0.291350
	H16	H	0.400649	0.713554	0.842364
	H17	H	0.595763	0.713931	0.169622
	H18	H	0.596313	0.284889	0.842658
	H19	H	0.399477	0.284427	0.169010
	H20	H	0.713296	0.837099	0.406846
	H21	H	0.711608	0.163935	0.604583
	H22	H	0.283153	0.836384	0.603292
	H23	H	0.283797	0.163830	0.407648
	H24	H	0.899298	0.336319	0.220794
	H25	H	0.097621	0.663465	0.220886
	H26	H	0.096820	0.336016	0.790455
	H27	H	0.900592	0.664141	0.793076
	H28	H	0.212720	0.901999	0.342564
	H29	H	0.211891	0.098581	0.668682
	H30	H	0.782600	0.099313	0.342048
	H31	H	0.782498	0.902419	0.668334
	H32	H	0.334245	0.214108	0.907734
	H33	H	0.661262	0.214427	0.103032
	H34	H	0.334717	0.784925	0.103604
	H35	H	0.662250	0.785521	0.908840
	H36	H	0.335315	0.900098	0.220653
	H37	H	0.662040	0.097681	0.219428
	H38	H	0.334604	0.098067	0.790677
	H39	H	0.661766	0.900151	0.790361
	H40	H	0.900972	0.214320	0.340739
	H41	H	0.095844	0.214787	0.668657
	H42	H	0.095858	0.785592	0.342144
	H43	H	0.898831	0.786159	0.668976
	H44	H	0.210731	0.335402	0.908914
	H45	H	0.211368	0.663295	0.103488
	H46	H	0.784480	0.335625	0.104246
	H47	H	0.784963	0.663715	0.909258
	H48	H	0.401720	0.117727	0.600412
	H49	H	0.586976	0.884523	0.598980
	H50	H	0.595610	0.118209	0.412473
	H51	H	0.400355	0.884329	0.419652
	H52	H	0.589759	0.404526	0.122202
	H53	H	0.593288	0.594044	0.889050
	H54	H	0.408438	0.585625	0.117015
	H55	H	0.411772	0.399997	0.889999
	H56	H	0.116146	0.598274	0.409283
	H57	H	0.881162	0.591944	0.600406
	H58	H	0.115505	0.405971	0.600942
	H59	H	0.877493	0.401537	0.402978
	H60	H	0.113544	0.406236	0.596165
	H61	H	0.880724	0.594508	0.599090
	H62	H	0.111809	0.593070	0.419390
	H63	H	0.882456	0.402160	0.422102
	H64	H	0.408879	0.598834	0.122826
	H65	H	0.593170	0.590202	0.890979
	H66	H	0.594269	0.406419	0.122610
	H67	H	0.395593	0.404217	0.886876
	H68	H	0.588331	0.117488	0.408233
	H69	H	0.592080	0.883556	0.594224
	H70	H	0.408040	0.116015	0.601459
	H71	H	0.401934	0.880098	0.406364
	H72	H	0.899037	0.618751	0.100111
	H73	H	0.093484	0.383022	0.096469
	H74	H	0.091485	0.617498	0.909724
	H75	H	0.905111	0.381195	0.908401
	H76	H	0.097046	0.906104	0.624106
	H77	H	0.090485	0.093722	0.389326
	H78	H	0.912174	0.094233	0.618495
	H79	H	0.908451	0.903366	0.389977
	H80	H	0.614484	0.097836	0.915994
	H81	H	0.379399	0.100400	0.100453
	H82	H	0.613917	0.904085	0.094659
	H83	H	0.382101	0.904862	0.913369
	H84	H	0.614042	0.911102	0.101489
	H85	H	0.385261	0.089805	0.090037
	H86	H	0.611447	0.086061	0.916704
	H87	H	0.382906	0.907597	0.913480
	H88	H	0.900679	0.099373	0.623286
	H89	H	0.092927	0.095565	0.388178
	H90	H	0.089528	0.912841	0.619661
	H91	H	0.899060	0.906668	0.387293
	H92	H	0.087904	0.615634	0.913127
	H93	H	0.090134	0.381503	0.103451
	H94	H	0.910288	0.615641	0.103856
	H95	H	0.907410	0.384006	0.913103
	H96	H	0.405307	0.115443	0.596171
	H97	H	0.593369	0.881996	0.601146
	H98	H	0.588761	0.114890	0.416080
	H99	H	0.412735	0.886312	0.413089
	H100	H	0.590335	0.409260	0.120598
	H101	H	0.589605	0.592356	0.890862
	H102	H	0.397239	0.590921	0.124004
	H103	H	0.406659	0.415621	0.893557
	H104	H	0.113099	0.586762	0.409461
	H105	H	0.882278	0.592514	0.598053
	H106	H	0.113125	0.410818	0.599159
	H107	H	0.884817	0.418303	0.410777
	H108	H	0.907214	0.613727	0.092525
	H109	H	0.085782	0.384485	0.097478
	H110	H	0.092796	0.615849	0.914227
	H111	H	0.901419	0.382039	0.913305
	H112	H	0.087120	0.902489	0.622265
	H113	H	0.093283	0.092531	0.389802
	H114	H	0.901315	0.086380	0.619879
	H115	H	0.906167	0.912895	0.391535
	H116	H	0.615539	0.091024	0.906211
	H117	H	0.381524	0.085427	0.105125
	H118	H	0.617287	0.902201	0.103324
	H119	H	0.381590	0.906343	0.910693
	C120	C	0.376590	0.008031	0.627255
	C121	C	0.619112	0.991595	0.626743
	C122	C	0.619474	0.008336	0.384247
	C123	C	0.376502	0.991548	0.384396
	C124	C	0.619595	0.378203	0.014000
	C125	C	0.620335	0.620797	0.997989
	C126	C	0.376505	0.620476	0.013735
	C127	C	0.375960	0.377876	0.997899
	C128	C	0.006002	0.621632	0.383889
	C129	C	0.989525	0.622015	0.627373
	C130	C	0.005819	0.379106	0.626857
	C131	C	0.989715	0.378950	0.383834
	C132	C	0.876871	0.508038	0.127208
	C133	C	0.118884	0.491120	0.127356
	C134	C	0.119357	0.508098	0.883932
	C135	C	0.876720	0.491261	0.884389
	C136	C	0.119218	0.878909	0.513885
	C137	C	0.120212	0.122287	0.496920
	C138	C	0.876471	0.122102	0.512482
	C139	C	0.875788	0.878884	0.497216
	C140	C	0.505957	0.120966	0.883963
	C141	C	0.490074	0.120624	0.126953
	C142	C	0.506858	0.877066	0.127909
	C143	C	0.490283	0.877530	0.883898
	C144	C	0.377972	0.884884	0.682400
	C145	C	0.617401	0.114246	0.682700
	C146	C	0.617500	0.885251	0.329370
	C147	C	0.378337	0.114371	0.328322
	C148	C	0.675150	0.379867	0.891595
	C149	C	0.674960	0.618586	0.120707
	C150	C	0.320942	0.618753	0.891232
	C151	C	0.320347	0.379925	0.120369
	C152	C	0.883037	0.677161	0.386430
	C153	C	0.112783	0.676491	0.623698
	C154	C	0.882955	0.323936	0.623902
	C155	C	0.113054	0.324725	0.386746
	C156	C	0.883154	0.380790	0.682635
	C157	C	0.112319	0.619735	0.682783
	C158	C	0.882978	0.619228	0.328558
	C159	C	0.112686	0.381785	0.328998
	C160	C	0.379488	0.675758	0.890987
	C161	C	0.616960	0.676098	0.120766
	C162	C	0.616882	0.322778	0.891300
	C163	C	0.378524	0.322390	0.120511
	C164	C	0.674891	0.885555	0.386767
	C165	C	0.674439	0.114699	0.624916
	C166	C	0.320828	0.884994	0.624446
	C167	C	0.321579	0.114858	0.386838
	C168	C	0.879366	0.384608	0.182259
	C169	C	0.117312	0.614452	0.182779
	C170	C	0.116949	0.384833	0.828885
	C171	C	0.879434	0.614899	0.830205
	C172	C	0.174385	0.881699	0.390978
	C173	C	0.174409	0.119319	0.619971
	C174	C	0.821030	0.119654	0.390498
	C175	C	0.820576	0.881550	0.619900
	C176	C	0.383174	0.176336	0.886607
	C177	C	0.612751	0.176424	0.124219
	C178	C	0.383688	0.822289	0.124463
	C179	C	0.613530	0.822970	0.887302
	C180	C	0.384049	0.879530	0.182702
	C181	C	0.612955	0.118462	0.181899
	C182	C	0.383111	0.118407	0.829000
	C183	C	0.613182	0.880226	0.828873
	C184	C	0.879870	0.176626	0.389803
	C185	C	0.116726	0.176871	0.620031
	C186	C	0.116523	0.823800	0.390898
	C187	C	0.878300	0.823716	0.620055
	C188	C	0.173604	0.384492	0.887395
	C189	C	0.173920	0.614468	0.124504
	C190	C	0.822087	0.384582	0.124503
	C191	C	0.822283	0.614650	0.888220
	C192	C	0.398615	0.094030	0.605703
	C193	C	0.597305	0.905561	0.604316
	C194	C	0.597281	0.094738	0.405914
	C195	C	0.398330	0.905693	0.406656
	C196	C	0.597790	0.400162	0.099782
	C197	C	0.598446	0.598858	0.912440
	C198	C	0.398185	0.598179	0.099234
	C199	C	0.398029	0.399964	0.912348
	C200	C	0.091565	0.599153	0.406104
	C201	C	0.903631	0.599725	0.605632
	C202	C	0.091843	0.401308	0.605132
	C203	C	0.903797	0.400783	0.405630
	C204	C	0.899130	0.593938	0.105327
	C205	C	0.096505	0.405227	0.105503
	C206	C	0.097352	0.594144	0.905883
	C207	C	0.898376	0.404915	0.905360
	C208	C	0.097447	0.900854	0.599751
	C209	C	0.098784	0.100559	0.411061
	C210	C	0.898389	0.099988	0.598529
	C211	C	0.897952	0.901016	0.411546
	C212	C	0.591733	0.098365	0.906405
	C213	C	0.404256	0.098277	0.104872
	C214	C	0.592843	0.899221	0.106100
	C215	C	0.404513	0.899672	0.906043
	Zn216	Zn	0.498118	-0.000475	0.755337
	Zn217	Zn	0.498387	-0.000519	0.256189
	Zn218	Zn	0.748928	0.499170	0.005960
	Zn219	Zn	0.246940	0.499559	0.006033
	Zn220	Zn	-0.002651	0.750262	0.505321
	Zn221	Zn	-0.001690	0.250723	0.504932
	Zn222	Zn	-0.002063	0.500124	0.755808
	Zn223	Zn	-0.002304	0.500088	0.255156
	Zn224	Zn	0.498331	0.749026	0.005721
	Zn225	Zn	0.497850	0.249276	0.005630
	Zn226	Zn	0.746896	0.000657	0.505739
	Zn227	Zn	0.248093	0.000488	0.505999
	N228	N	0.411889	0.962304	0.684249
	N229	N	0.583601	0.036856	0.683741
	N230	N	0.583549	0.962723	0.328035
	N231	N	0.412085	0.036870	0.326820
	N232	N	0.676644	0.413870	0.968639
	N233	N	0.677078	0.584863	0.043554
	N234	N	0.319253	0.584849	0.968305
	N235	N	0.318383	0.413545	0.043112
	N236	N	0.960171	0.678477	0.420070
	N237	N	0.035426	0.677941	0.590127
	N238	N	0.960152	0.322793	0.590002
	N239	N	0.035535	0.322639	0.419908
	N240	N	0.960657	0.414490	0.684383
	N241	N	0.034870	0.586209	0.684820
	N242	N	0.960482	0.585567	0.326737
	N243	N	0.035073	0.414882	0.326980
	N244	N	0.413184	0.677090	0.968074
	N245	N	0.583495	0.677601	0.043487
	N246	N	0.582843	0.321737	0.968324
	N247	N	0.412496	0.321244	0.043471
	N248	N	0.676145	0.963143	0.420166
	N249	N	0.675444	0.037407	0.590738
	N250	N	0.319736	0.962479	0.590860
	N251	N	0.320170	0.037468	0.420721
	N252	N	0.912713	0.462273	0.184065
	N253	N	0.083711	0.536786	0.184472
	N254	N	0.083980	0.462574	0.826638
	N255	N	0.912388	0.537175	0.827587
	N256	N	0.176165	0.915117	0.468514
	N257	N	0.176326	0.085873	0.542643
	N258	N	0.818970	0.086330	0.468002
	N259	N	0.818743	0.915076	0.542701
	N260	N	0.460574	0.177865	0.920094
	N261	N	0.535230	0.177887	0.090932
	N262	N	0.461134	0.820681	0.090955
	N263	N	0.536234	0.821568	0.921120
	N264	N	0.461488	0.912633	0.185094
	N265	N	0.535744	0.084347	0.183485
	N266	N	0.460542	0.084765	0.827272
	N267	N	0.535628	0.913451	0.826704
	N268	N	0.913693	0.177827	0.466829
	N269	N	0.083562	0.178856	0.542596
	N270	N	0.082907	0.822214	0.468095
	N271	N	0.912117	0.822251	0.542800
	N272	N	0.175124	0.462058	0.921004
	N273	N	0.175144	0.537004	0.090940
	N274	N	0.820628	0.462122	0.090879
	N275	N	0.820441	0.536729	0.920885
	O276	O	0.430567	0.460782	0.563216
	H277	H	0.422093	0.453757	0.564906
	H278	H	0.443457	0.454517	0.568690
	O279	O	0.438354	0.492650	0.574700
	H280	H	0.440407	0.492486	0.575404
	H281	H	0.429674	0.475450	0.569389
	O282	O	1.479076	0.548261	-0.423726
	H283	H	1.466837	0.543458	-0.423967
	H284	H	1.473852	0.558884	-0.420451
	O285	O	0.474129	0.475503	0.575877
	H286	H	0.481341	0.486273	0.572111
	H287	H	0.479389	0.483673	0.584702
