data_Molecule from HDF5

_cell_length_a		16.093687
_cell_length_b		16.318816
_cell_length_c		16.332206
_cell_angle_alpha	90.049428
_cell_angle_beta	89.847263
_cell_angle_gamma	89.381155
_symmetry_space_group_name_H-M	'P 1'
_symmetry_Int_Tables_number		1

loop_
	_symmetry_equiv_pos_as_xyz
	x,y,z

loop_
	_atom_site_label
	_atom_site_type_symbol
	_atom_site_fract_x
	_atom_site_fract_y
	_atom_site_fract_z
	H0	H	0.403380	0.840339	0.716643
	H1	H	0.601596	0.165449	0.714543
	H2	H	0.608097	0.840764	0.281311
	H3	H	0.400938	0.165990	0.282691
	H4	H	0.719838	0.404402	0.835668
	H5	H	0.714029	0.598383	0.163602
	H6	H	0.287865	0.601721	0.834919
	H7	H	0.291570	0.408435	0.163645
	H8	H	0.837730	0.716933	0.401838
	H9	H	0.169145	0.713686	0.597789
	H10	H	0.837576	0.291060	0.599065
	H11	H	0.167782	0.286686	0.400859
	H12	H	0.838070	0.406297	0.713051
	H13	H	0.169155	0.597516	0.711673
	H14	H	0.837399	0.603145	0.286918
	H15	H	0.167564	0.400548	0.284234
	H16	H	0.401156	0.720317	0.835842
	H17	H	0.602281	0.718294	0.161622
	H18	H	0.607326	0.285062	0.836129
	H19	H	0.404610	0.287967	0.161506
	H20	H	0.718341	0.839288	0.401835
	H21	H	0.713842	0.167435	0.594727
	H22	H	0.292830	0.837618	0.594845
	H23	H	0.288374	0.166615	0.402929
	H24	H	0.903816	0.339350	0.215947
	H25	H	0.099922	0.666092	0.215550
	H26	H	0.108856	0.339889	0.783058
	H27	H	0.901547	0.664857	0.783252
	H28	H	0.219666	0.902437	0.335209
	H29	H	0.213139	0.095706	0.662581
	H30	H	0.789586	0.100099	0.334557
	H31	H	0.789725	0.906376	0.662238
	H32	H	0.339304	0.219685	0.900179
	H33	H	0.669228	0.215359	0.096894
	H34	H	0.337484	0.792193	0.097091
	H35	H	0.667494	0.785604	0.897942
	H36	H	0.338348	0.906591	0.213260
	H37	H	0.669113	0.101016	0.212087
	H38	H	0.338415	0.105750	0.785793
	H39	H	0.668578	0.903303	0.784770
	H40	H	0.900367	0.221115	0.336784
	H41	H	0.102968	0.216862	0.661205
	H42	H	0.106235	0.783354	0.335890
	H43	H	0.904236	0.787680	0.661395
	H44	H	0.220536	0.339758	0.902058
	H45	H	0.213574	0.668292	0.095971
	H46	H	0.792302	0.337893	0.096345
	H47	H	0.789179	0.666193	0.903446
	H48	H	0.410636	0.120953	0.601075
	H49	H	0.597208	0.884711	0.597226
	H50	H	0.594664	0.121644	0.397163
	H51	H	0.416208	0.887411	0.402812
	H52	H	0.596963	0.410135	0.115086
	H53	H	0.598856	0.587929	0.884138
	H54	H	0.414069	0.594642	0.112500
	H55	H	0.414689	0.406962	0.882313
	H56	H	0.119404	0.589358	0.408047
	H57	H	0.884390	0.596206	0.596717
	H58	H	0.120254	0.410598	0.593312
	H59	H	0.884843	0.415784	0.403090
	H60	H	0.122494	0.405385	0.592443
	H61	H	0.885216	0.599448	0.591431
	H62	H	0.122270	0.592329	0.403518
	H63	H	0.882288	0.405892	0.406846
	H64	H	0.410680	0.605861	0.117224
	H65	H	0.587163	0.596858	0.884794
	H66	H	0.594120	0.406182	0.114587
	H67	H	0.409841	0.412115	0.882172
	H68	H	0.589103	0.117111	0.406484
	H69	H	0.591317	0.888625	0.591898
	H70	H	0.415307	0.115793	0.587779
	H71	H	0.412904	0.887351	0.406624
	H72	H	0.904833	0.622036	0.101617
	H73	H	0.097746	0.386136	0.095807
	H74	H	0.097267	0.620782	0.903365
	H75	H	0.910219	0.384036	0.902467
	H76	H	0.098387	0.906636	0.615704
	H77	H	0.100023	0.096913	0.379870
	H78	H	0.901786	0.090497	0.614890
	H79	H	0.907518	0.906639	0.379577
	H80	H	0.617782	0.085380	0.911556
	H81	H	0.388762	0.092092	0.086414
	H82	H	0.620363	0.909948	0.087407
	H83	H	0.386622	0.909268	0.912863
	H84	H	0.621280	0.910794	0.092044
	H85	H	0.383756	0.095277	0.097981
	H86	H	0.624828	0.092362	0.896376
	H87	H	0.386440	0.919764	0.905472
	H88	H	0.918070	0.093773	0.611498
	H89	H	0.093527	0.088745	0.383771
	H90	H	0.095638	0.907542	0.613894
	H91	H	0.911631	0.912048	0.383666
	H92	H	0.090162	0.617737	0.902399
	H93	H	0.093866	0.387975	0.092964
	H94	H	0.916537	0.616291	0.094561
	H95	H	0.917940	0.387385	0.904852
	H96	H	0.399636	0.120249	0.590338
	H97	H	0.599364	0.887087	0.588462
	H98	H	0.600404	0.120244	0.406783
	H99	H	0.410359	0.885117	0.402351
	H100	H	0.597899	0.405372	0.116274
	H101	H	0.599846	0.602058	0.879716
	H102	H	0.401521	0.596590	0.116404
	H103	H	0.415755	0.413851	0.884694
	H104	H	0.121518	0.595231	0.408115
	H105	H	0.886831	0.593408	0.591607
	H106	H	0.120517	0.408464	0.588243
	H107	H	0.887585	0.413357	0.413097
	H108	H	0.904083	0.617582	0.087741
	H109	H	0.098848	0.387422	0.091160
	H110	H	0.094120	0.618317	0.908992
	H111	H	0.911942	0.386898	0.910951
	H112	H	0.096013	0.904835	0.614333
	H113	H	0.089987	0.098866	0.382278
	H114	H	0.908717	0.105612	0.617936
	H115	H	0.915401	0.905608	0.382559
	H116	H	0.623145	0.102543	0.910155
	H117	H	0.384712	0.104198	0.088786
	H118	H	0.622210	0.906441	0.089816
	H119	H	0.383106	0.909049	0.901060
	C120	C	0.380797	0.011104	0.621790
	C121	C	0.623918	0.994778	0.620375
	C122	C	0.625230	0.011737	0.375685
	C123	C	0.382323	0.994541	0.376400
	C124	C	0.626115	0.379373	0.007349
	C125	C	0.623699	0.623789	0.990793
	C126	C	0.379909	0.626953	0.007201
	C127	C	0.383706	0.382640	0.990828
	C128	C	0.011708	0.622579	0.378562
	C129	C	0.994842	0.623765	0.620914
	C130	C	0.012045	0.380392	0.620762
	C131	C	0.994186	0.381028	0.378396
	C132	C	0.880838	0.510620	0.122386
	C133	C	0.124552	0.495143	0.121439
	C134	C	0.124865	0.511109	0.877150
	C135	C	0.882820	0.493922	0.877575
	C136	C	0.126470	0.877960	0.506926
	C137	C	0.123118	0.122629	0.489874
	C138	C	0.880086	0.125691	0.507434
	C139	C	0.882570	0.880684	0.490179
	C140	C	0.512550	0.123910	0.877630
	C141	C	0.495235	0.124628	0.119618
	C142	C	0.512063	0.881919	0.119343
	C143	C	0.494271	0.882149	0.877375
	C144	C	0.383554	0.888676	0.677786
	C145	C	0.621594	0.117188	0.676162
	C146	C	0.625816	0.889146	0.320374
	C147	C	0.381856	0.117362	0.321229
	C148	C	0.681987	0.382873	0.884392
	C149	C	0.677350	0.619867	0.114238
	C150	C	0.325213	0.623154	0.884119
	C151	C	0.328589	0.386487	0.114173
	C152	C	0.887105	0.678891	0.381426
	C153	C	0.119529	0.676712	0.617888
	C154	C	0.887283	0.327597	0.619022
	C155	C	0.118280	0.324390	0.380271
	C156	C	0.887678	0.384502	0.676146
	C157	C	0.119612	0.619191	0.674826
	C158	C	0.886977	0.622291	0.324178
	C159	C	0.118199	0.381064	0.322457
	C160	C	0.381474	0.681979	0.884425
	C161	C	0.621801	0.679709	0.113163
	C162	C	0.626005	0.323802	0.884668
	C163	C	0.385045	0.326766	0.113211
	C164	C	0.681017	0.888455	0.380155
	C165	C	0.677603	0.117986	0.616663
	C166	C	0.328537	0.887266	0.617246
	C167	C	0.325789	0.117498	0.380751
	C168	C	0.883966	0.387934	0.177553
	C169	C	0.120952	0.617809	0.177103
	C170	C	0.127046	0.388578	0.821231
	C171	C	0.882661	0.616482	0.821922
	C172	C	0.182094	0.881014	0.384055
	C173	C	0.176932	0.118001	0.613353
	C174	C	0.826195	0.121886	0.383865
	C175	C	0.827495	0.885162	0.613372
	C176	C	0.388453	0.181045	0.880161
	C177	C	0.619890	0.178034	0.117080
	C178	C	0.387138	0.828894	0.117580
	C179	C	0.618477	0.824611	0.878643
	C180	C	0.387510	0.885871	0.175197
	C181	C	0.619843	0.121044	0.174185
	C182	C	0.388170	0.124503	0.823052
	C183	C	0.618843	0.882709	0.821989
	C184	C	0.881258	0.181889	0.385066
	C185	C	0.122018	0.178129	0.612671
	C186	C	0.125778	0.821826	0.384699
	C187	C	0.884312	0.826014	0.612853
	C188	C	0.182517	0.388383	0.880580
	C189	C	0.177167	0.618934	0.117407
	C190	C	0.828335	0.387178	0.118144
	C191	C	0.826794	0.617084	0.881815
	C192	C	0.402213	0.096941	0.599714
	C193	C	0.602183	0.909133	0.598933
	C194	C	0.601645	0.097635	0.397159
	C195	C	0.406065	0.908765	0.397594
	C196	C	0.603315	0.401045	0.092903
	C197	C	0.601814	0.601931	0.904953
	C198	C	0.402246	0.605455	0.093043
	C199	C	0.406663	0.404629	0.905174
	C200	C	0.098603	0.599192	0.400271
	C201	C	0.907907	0.602548	0.599555
	C202	C	0.098877	0.401561	0.597837
	C203	C	0.907412	0.404629	0.401053
	C204	C	0.901951	0.596554	0.100804
	C205	C	0.103287	0.409419	0.099740
	C206	C	0.100808	0.596688	0.898614
	C207	C	0.906450	0.408240	0.899504
	C208	C	0.103518	0.899761	0.592615
	C209	C	0.100753	0.101123	0.404193
	C210	C	0.902760	0.103264	0.592876
	C211	C	0.904902	0.901955	0.404212
	C212	C	0.599442	0.100429	0.899556
	C213	C	0.408129	0.103473	0.097633
	C214	C	0.598560	0.902954	0.096669
	C215	C	0.407815	0.905632	0.899882
	Zn216	Zn	0.502793	0.003572	0.750138
	Zn217	Zn	0.504027	0.003325	0.246990
	Zn218	Zn	0.753073	0.502238	-0.000318
	Zn219	Zn	0.253543	0.503691	-0.000897
	Zn220	Zn	0.003740	0.750235	0.498643
	Zn221	Zn	0.002135	0.252775	0.499707
	Zn222	Zn	0.004348	0.501669	0.748260
	Zn223	Zn	0.002854	0.502638	0.250931
	Zn224	Zn	0.502744	0.753901	-0.001696
	Zn225	Zn	0.504671	0.251326	-0.001931
	Zn226	Zn	0.752920	0.003033	0.498364
	Zn227	Zn	0.253278	0.001770	0.498452
	N228	N	0.415128	0.966696	0.680677
	N229	N	0.588995	0.039677	0.678523
	N230	N	0.591807	0.966858	0.317418
	N231	N	0.416404	0.039929	0.318369
	N232	N	0.682072	0.416901	0.961554
	N233	N	0.678706	0.585781	0.037079
	N234	N	0.323943	0.589782	0.961567
	N235	N	0.327859	0.420564	0.037119
	N236	N	0.965715	0.679245	0.414435
	N237	N	0.040968	0.679665	0.585132
	N238	N	0.965596	0.324955	0.585398
	N239	N	0.040034	0.324408	0.414358
	N240	N	0.966355	0.416737	0.677370
	N241	N	0.041110	0.587028	0.676936
	N242	N	0.965429	0.587833	0.322444
	N243	N	0.039913	0.415601	0.321155
	N244	N	0.414751	0.684442	0.961966
	N245	N	0.589282	0.682266	0.035336
	N246	N	0.592266	0.321180	0.962069
	N247	N	0.418414	0.324199	0.035543
	N248	N	0.680627	0.965638	0.413864
	N249	N	0.679210	0.040871	0.582601
	N250	N	0.326689	0.964442	0.583150
	N251	N	0.325898	0.040125	0.414304
	N252	N	0.915895	0.465851	0.180270
	N253	N	0.089213	0.539897	0.179857
	N254	N	0.091863	0.465857	0.818887
	N255	N	0.916907	0.538937	0.819500
	N256	N	0.182779	0.915170	0.460990
	N257	N	0.177598	0.083863	0.536193
	N258	N	0.825276	0.087631	0.460940
	N259	N	0.826361	0.918462	0.535975
	N260	N	0.466925	0.180865	0.913291
	N261	N	0.541431	0.180284	0.083852
	N262	N	0.465374	0.826329	0.083474
	N263	N	0.539900	0.823990	0.911990
	N264	N	0.466243	0.918095	0.176376
	N265	N	0.541246	0.088708	0.175944
	N266	N	0.466365	0.089632	0.821401
	N267	N	0.540751	0.917890	0.821130
	N268	N	0.914098	0.184087	0.462813
	N269	N	0.089250	0.181041	0.535013
	N270	N	0.091777	0.819995	0.462151
	N271	N	0.917733	0.823193	0.535246
	N272	N	0.181455	0.465407	0.914598
	N273	N	0.179696	0.541658	0.083750
	N274	N	0.826249	0.464398	0.084432
	N275	N	0.826569	0.539861	0.915641
	O276	O	-0.026972	0.059943	-0.057827
	H277	H	-0.029898	0.054216	-0.063140
	H278	H	-0.033076	0.059375	-0.053296
	O279	O	0.490591	0.515439	0.455586
	H280	H	0.489386	0.517028	0.452103
	H281	H	0.490406	0.511448	0.445119
	O282	O	0.576524	0.560305	0.490318
	H283	H	0.576349	0.558286	0.488024
	H284	H	0.578424	0.567539	0.490944
	O285	O	1.069462	-0.008244	0.912679
	H286	H	1.084980	-0.010477	0.909394
	H287	H	1.065242	-0.015599	0.921044
	O288	O	1.050062	-0.039056	-0.055018
	H289	H	1.045703	-0.035377	-0.050472
	H290	H	1.049839	-0.041847	-0.054285
	O291	O	0.440481	0.606106	0.401325
	H292	H	0.425578	0.610422	0.399874
	H293	H	0.436162	0.614803	0.399854
	O294	O	0.923665	0.060152	0.972636
	H295	H	0.928155	0.063529	0.967906
	H296	H	0.925241	0.068385	0.969249
	O297	O	0.002098	0.039585	-0.010559
	H298	H	0.010106	0.026989	-0.005568
	H299	H	0.001304	0.044223	-0.005433
	O300	O	0.560152	0.530896	0.500308
	H301	H	0.573602	0.531627	0.499281
	H302	H	0.560929	0.517004	0.502806
	O303	O	0.972135	0.023749	-0.023855
	H304	H	0.970927	0.011704	-0.025144
	H305	H	0.974630	0.032839	-0.032142
	O306	O	0.985565	-0.071078	-0.074727
	H307	H	0.976432	-0.062553	-0.070526
	H308	H	0.981643	-0.074266	-0.079214
	O309	O	0.028182	-0.003737	0.977390
	H310	H	0.029005	-0.000247	0.985019
	H311	H	0.034120	-0.017507	0.975307
	O312	O	1.039424	1.077062	0.916368
	H313	H	1.041410	1.078855	0.923013
	H314	H	1.038751	1.084809	0.903151
	O315	O	0.579310	0.473442	0.545573
	H316	H	0.578422	0.476205	0.543380
	H317	H	0.586025	0.468277	0.544748
	O318	O	0.502829	0.409314	0.535309
	H319	H	0.512991	0.402034	0.537188
	H320	H	0.500107	0.409150	0.527377
	O321	O	0.058729	0.952211	0.968890
	H322	H	0.062595	0.950334	0.960764
	H323	H	0.058193	0.954476	0.975863
	O324	O	0.464474	0.572227	0.592972
	H325	H	0.479937	0.580128	0.591431
	H326	H	0.459377	0.574384	0.603978
	O327	O	0.460785	0.494521	0.518754
	H328	H	0.460537	0.471509	0.527821
	H329	H	0.476540	0.502989	0.531578
	O330	O	0.545922	0.461722	0.477693
	H331	H	0.540458	0.461715	0.465915
	H332	H	0.537810	0.454274	0.477977
	O333	O	0.510965	0.579077	0.503054
	H334	H	0.508757	0.581888	0.501275
	H335	H	0.508199	0.578822	0.512490
	O336	O	0.461621	0.428191	0.475802
	H337	H	0.462565	0.430565	0.476793
	H338	H	0.465455	0.431592	0.479570
	O339	O	0.993455	0.971764	0.012573
	H340	H	1.002393	0.971237	0.007389
	H341	H	0.987551	0.982411	0.002946
	O342	O	0.571897	0.456549	0.522474
	H343	H	0.576322	0.450936	0.518386
	H344	H	0.563667	0.454829	0.521725
	O345	O	0.420937	0.499413	0.487825
	H346	H	0.420298	0.501130	0.495679
	H347	H	0.430176	0.493129	0.501098
	O348	O	0.237274	0.190316	0.257574
	H349	H	0.249011	0.189289	0.251804
	H350	H	0.241073	0.202902	0.248465
	O351	O	-0.014085	1.010814	0.978859
	H352	H	-0.014821	1.011787	0.985329
	H353	H	-0.013685	1.014758	0.982597
	O354	O	0.524732	0.455598	0.414153
	H355	H	0.505535	0.460299	0.407458
	H356	H	0.533260	0.466607	0.404095
	O357	O	-0.578315	1.619969	1.415562
	H358	H	-0.568132	1.624043	1.420376
	H359	H	-0.589680	1.624820	1.418003
