data_Molecule from HDF5

_cell_length_a		16.286856
_cell_length_b		16.282885
_cell_length_c		16.240053
_cell_angle_alpha	89.796101
_cell_angle_beta	89.586405
_cell_angle_gamma	90.298022
_symmetry_space_group_name_H-M	'P 1'
_symmetry_Int_Tables_number		1

loop_
	_symmetry_equiv_pos_as_xyz
	x,y,z

loop_
	_atom_site_label
	_atom_site_type_symbol
	_atom_site_fract_x
	_atom_site_fract_y
	_atom_site_fract_z
	H0	H	0.395751	0.845159	0.712685
	H1	H	0.595478	0.172542	0.709158
	H2	H	0.595452	0.845733	0.282551
	H3	H	0.401426	0.172908	0.282985
	H4	H	0.711567	0.411975	0.833376
	H5	H	0.709013	0.606512	0.161988
	H6	H	0.284942	0.606731	0.833023
	H7	H	0.280580	0.408569	0.161391
	H8	H	0.833013	0.723699	0.399239
	H9	H	0.158918	0.726833	0.596749
	H10	H	0.833290	0.292764	0.598790
	H11	H	0.161010	0.297196	0.398491
	H12	H	0.833065	0.409244	0.713889
	H13	H	0.160379	0.609784	0.711144
	H14	H	0.832548	0.605981	0.285000
	H15	H	0.159945	0.412178	0.281442
	H16	H	0.399452	0.723259	0.832937
	H17	H	0.595013	0.723528	0.161120
	H18	H	0.596017	0.296796	0.832487
	H19	H	0.396701	0.293753	0.161230
	H20	H	0.713146	0.846221	0.396265
	H21	H	0.712530	0.172318	0.594705
	H22	H	0.279198	0.846255	0.598000
	H23	H	0.283891	0.172480	0.397116
	H24	H	0.897887	0.344716	0.211774
	H25	H	0.094655	0.673132	0.209511
	H26	H	0.094926	0.345710	0.782832
	H27	H	0.899519	0.672231	0.782081
	H28	H	0.211058	0.912100	0.333606
	H29	H	0.212981	0.110061	0.660443
	H30	H	0.786416	0.106983	0.332208
	H31	H	0.778733	0.908728	0.660231
	H32	H	0.333775	0.223409	0.898444
	H33	H	0.660735	0.223990	0.093287
	H34	H	0.333917	0.793074	0.097899
	H35	H	0.660763	0.794943	0.895950
	H36	H	0.334355	0.910386	0.212497
	H37	H	0.661300	0.107735	0.208111
	H38	H	0.333010	0.106903	0.782615
	H39	H	0.660142	0.911226	0.780182
	H40	H	0.899780	0.224183	0.333112
	H41	H	0.094390	0.223881	0.661242
	H42	H	0.095745	0.796433	0.333623
	H43	H	0.893687	0.791812	0.660756
	H44	H	0.211994	0.345829	0.897486
	H45	H	0.212146	0.672011	0.095981
	H46	H	0.780146	0.345295	0.097675
	H47	H	0.783616	0.672792	0.899256
	H48	H	0.406700	0.126140	0.592703
	H49	H	0.596554	0.889516	0.589483
	H50	H	0.598726	0.128924	0.398906
	H51	H	0.408015	0.895524	0.409309
	H52	H	0.586451	0.415012	0.113640
	H53	H	0.590786	0.601861	0.880960
	H54	H	0.400803	0.602786	0.115200
	H55	H	0.402302	0.416504	0.879974
	H56	H	0.111699	0.601946	0.406441
	H57	H	0.882721	0.597559	0.586531
	H58	H	0.113727	0.421842	0.596457
	H59	H	0.881291	0.419439	0.406133
	H60	H	0.114924	0.408995	0.589753
	H61	H	0.880368	0.598449	0.595361
	H62	H	0.113018	0.601460	0.400861
	H63	H	0.879068	0.414804	0.401841
	H64	H	0.403691	0.598319	0.112447
	H65	H	0.590893	0.603873	0.879721
	H66	H	0.588118	0.413753	0.114650
	H67	H	0.405064	0.417733	0.881456
	H68	H	0.587675	0.126143	0.397097
	H69	H	0.581359	0.892982	0.595057
	H70	H	0.407622	0.123602	0.586011
	H71	H	0.395736	0.890400	0.406355
	H72	H	0.908016	0.624569	0.091420
	H73	H	0.091394	0.390907	0.091512
	H74	H	0.087359	0.623000	0.905817
	H75	H	0.908933	0.397214	0.914833
	H76	H	0.085798	0.921866	0.612470
	H77	H	0.086548	0.107456	0.380798
	H78	H	0.906788	0.097010	0.611295
	H79	H	0.900136	0.920376	0.380200
	H80	H	0.617880	0.113818	0.897820
	H81	H	0.380828	0.095726	0.094856
	H82	H	0.612976	0.908510	0.079537
	H83	H	0.381676	0.916599	0.909575
	H84	H	0.611180	0.927115	0.087990
	H85	H	0.377506	0.107754	0.093338
	H86	H	0.610498	0.102564	0.911888
	H87	H	0.381053	0.918065	0.901782
	H88	H	0.905947	0.105909	0.614635
	H89	H	0.096411	0.105917	0.378123
	H90	H	0.084492	0.912836	0.614159
	H91	H	0.911000	0.916354	0.382124
	H92	H	0.096379	0.626237	0.906700
	H93	H	0.085715	0.392628	0.091646
	H94	H	0.900646	0.624938	0.086144
	H95	H	0.892654	0.389801	0.906944
	H96	H	0.400732	0.125794	0.587904
	H97	H	0.585679	0.896342	0.580108
	H98	H	0.592602	0.124987	0.407374
	H99	H	0.405405	0.891073	0.396871
	H100	H	0.588648	0.416504	0.113883
	H101	H	0.592803	0.602419	0.879632
	H102	H	0.406189	0.603098	0.114794
	H103	H	0.404423	0.414743	0.880381
	H104	H	0.113743	0.606828	0.403490
	H105	H	0.879085	0.605915	0.590154
	H106	H	0.109339	0.421108	0.582006
	H107	H	0.879914	0.412777	0.408583
	H108	H	0.899999	0.627550	0.095536
	H109	H	0.089419	0.393576	0.087269
	H110	H	0.092386	0.627372	0.897957
	H111	H	0.908798	0.391516	0.896000
	H112	H	0.092406	0.917228	0.615805
	H113	H	0.090710	0.098129	0.382002
	H114	H	0.898565	0.100508	0.615410
	H115	H	0.902859	0.909293	0.378427
	H116	H	0.613377	0.095346	0.894260
	H117	H	0.382818	0.101431	0.083949
	H118	H	0.618453	0.911092	0.098964
	H119	H	0.379825	0.911233	0.904911
	C120	C	0.374922	0.017389	0.618441
	C121	C	0.617667	1.000649	0.616995
	C122	C	0.620392	0.018185	0.373584
	C123	C	0.376056	1.000584	0.375529
	C124	C	0.617395	0.387568	0.005479
	C125	C	0.618927	0.630982	0.988838
	C126	C	0.376101	0.630202	0.005660
	C127	C	0.374454	0.386742	0.988810
	C128	C	0.004660	0.631269	0.375776
	C129	C	0.988446	0.630561	0.619041
	C130	C	0.004817	0.387718	0.619331
	C131	C	0.988131	0.387705	0.375746
	C132	C	0.874092	0.517157	0.119881
	C133	C	0.117568	0.500660	0.118179
	C134	C	0.119379	0.517553	0.875057
	C135	C	0.875693	0.500714	0.876898
	C136	C	0.116962	0.888826	0.506160
	C137	C	0.119353	0.132120	0.488541
	C138	C	0.876369	0.130130	0.505208
	C139	C	0.874488	0.886539	0.488459
	C140	C	0.505533	0.131214	0.874108
	C141	C	0.488721	0.130126	0.117826
	C142	C	0.506105	0.886779	0.118576
	C143	C	0.488758	0.887268	0.875480
	C144	C	0.375389	0.894540	0.675089
	C145	C	0.615919	0.123769	0.671602
	C146	C	0.616409	0.894593	0.320028
	C147	C	0.380499	0.124151	0.320849
	C148	C	0.673375	0.391509	0.882237
	C149	C	0.672187	0.627513	0.112728
	C150	C	0.322305	0.627340	0.881997
	C151	C	0.318484	0.388551	0.112259
	C152	C	0.881728	0.685647	0.379042
	C153	C	0.110635	0.687866	0.616925
	C154	C	0.881955	0.331335	0.618268
	C155	C	0.111716	0.334294	0.378140
	C156	C	0.881901	0.389071	0.675735
	C157	C	0.111363	0.629135	0.673470
	C158	C	0.881505	0.627138	0.322303
	C159	C	0.111207	0.391206	0.319821
	C160	C	0.379500	0.685054	0.881961
	C161	C	0.615747	0.685774	0.112208
	C162	C	0.615957	0.334004	0.881817
	C163	C	0.376479	0.331469	0.112146
	C164	C	0.675073	0.895069	0.376175
	C165	C	0.674143	0.123543	0.614574
	C166	C	0.317714	0.894825	0.617680
	C167	C	0.322172	0.123842	0.377604
	C168	C	0.876694	0.393839	0.174666
	C169	C	0.115095	0.624049	0.172267
	C170	C	0.116112	0.394398	0.820239
	C171	C	0.878916	0.623837	0.820838
	C172	C	0.172802	0.891605	0.382488
	C173	C	0.174709	0.130264	0.611644
	C174	C	0.823186	0.127745	0.381338
	C175	C	0.817349	0.888345	0.611513
	C176	C	0.382294	0.185592	0.877637
	C177	C	0.611875	0.185723	0.113717
	C178	C	0.383028	0.831213	0.117335
	C179	C	0.611792	0.832382	0.875963
	C180	C	0.383068	0.889152	0.174584
	C181	C	0.612317	0.127955	0.170987
	C182	C	0.382158	0.127829	0.819916
	C183	C	0.611582	0.890486	0.818772
	C184	C	0.879608	0.186008	0.382013
	C185	C	0.116280	0.187089	0.612025
	C186	C	0.115542	0.834115	0.382658
	C187	C	0.874640	0.830586	0.611942
	C188	C	0.173904	0.394467	0.877467
	C189	C	0.173801	0.623448	0.116061
	C190	C	0.818464	0.394079	0.117760
	C191	C	0.821245	0.623957	0.878786
	C192	C	0.398021	0.102994	0.595470
	C193	C	0.594693	0.914768	0.594767
	C194	C	0.599299	0.104219	0.394691
	C195	C	0.396847	0.914458	0.397711
	C196	C	0.594463	0.408820	0.091885
	C197	C	0.597690	0.609232	0.902380
	C198	C	0.397290	0.607870	0.091858
	C199	C	0.397299	0.409540	0.902757
	C200	C	0.090669	0.609711	0.397251
	C201	C	0.902752	0.607418	0.597084
	C202	C	0.090603	0.410622	0.596291
	C203	C	0.902295	0.409362	0.398769
	C204	C	0.896508	0.603455	0.097599
	C205	C	0.095212	0.414563	0.096355
	C206	C	0.098180	0.603309	0.896918
	C207	C	0.897269	0.414925	0.899319
	C208	C	0.094216	0.910935	0.591927
	C209	C	0.097653	0.110228	0.402485
	C210	C	0.897427	0.107666	0.591445
	C211	C	0.897763	0.908932	0.402476
	C212	C	0.591645	0.110118	0.895010
	C213	C	0.402639	0.107941	0.097028
	C214	C	0.592101	0.909119	0.095630
	C215	C	0.403171	0.908885	0.898740
	Zn216	Zn	0.496787	0.008969	0.746517
	Zn217	Zn	0.498094	0.009154	0.246556
	Zn218	Zn	0.746173	0.508920	-0.002176
	Zn219	Zn	0.247094	0.508962	-0.002495
	Zn220	Zn	-0.003506	0.759623	0.497675
	Zn221	Zn	-0.003050	0.259280	0.497615
	Zn222	Zn	-0.002929	0.509086	0.747655
	Zn223	Zn	-0.003247	0.509289	0.247240
	Zn224	Zn	0.497342	0.758575	-0.003049
	Zn225	Zn	0.496659	0.259149	-0.003419
	Zn226	Zn	0.747403	0.009352	0.496230
	Zn227	Zn	0.246641	0.009388	0.497140
	N228	N	0.410350	0.971639	0.675542
	N229	N	0.581443	0.046527	0.673082
	N230	N	0.583028	0.972081	0.318110
	N231	N	0.413316	0.046396	0.319321
	N232	N	0.674055	0.424302	0.960124
	N233	N	0.674427	0.594329	0.034892
	N234	N	0.320143	0.593744	0.959871
	N235	N	0.317165	0.422267	0.034445
	N236	N	0.959406	0.688060	0.411831
	N237	N	0.033239	0.688676	0.583888
	N238	N	0.959461	0.330371	0.583922
	N239	N	0.034089	0.332133	0.412358
	N240	N	0.959265	0.423325	0.676606
	N241	N	0.034183	0.594143	0.674798
	N242	N	0.959050	0.594135	0.319895
	N243	N	0.033507	0.423675	0.318392
	N244	N	0.411946	0.687034	0.959883
	N245	N	0.583422	0.688088	0.034174
	N246	N	0.581679	0.331586	0.959559
	N247	N	0.410494	0.330152	0.034281
	N248	N	0.677599	0.972808	0.408656
	N249	N	0.675120	0.045884	0.581181
	N250	N	0.317048	0.972202	0.583439
	N251	N	0.319217	0.046183	0.410902
	N252	N	0.910489	0.471550	0.176165
	N253	N	0.080785	0.546598	0.173651
	N254	N	0.083323	0.471907	0.818296
	N255	N	0.911885	0.546235	0.819328
	N256	N	0.173932	0.925029	0.460130
	N257	N	0.176955	0.096900	0.533913
	N258	N	0.821115	0.093716	0.458921
	N259	N	0.817353	0.922669	0.533963
	N260	N	0.460061	0.188181	0.910133
	N261	N	0.534074	0.187200	0.081362
	N262	N	0.460616	0.829733	0.083164
	N263	N	0.534508	0.830429	0.910710
	N264	N	0.460651	0.923032	0.175518
	N265	N	0.534767	0.094168	0.173711
	N266	N	0.459688	0.094719	0.817739
	N267	N	0.534097	0.923654	0.818109
	N268	N	0.911958	0.187644	0.460099
	N269	N	0.082450	0.188165	0.534675
	N270	N	0.081441	0.832438	0.460418
	N271	N	0.909192	0.829165	0.534439
	N272	N	0.176281	0.472054	0.910784
	N273	N	0.175434	0.545807	0.083132
	N274	N	0.816873	0.471764	0.084288
	N275	N	0.819328	0.546592	0.913061
	O276	O	0.525600	0.578203	0.483374
	H277	H	0.525602	0.574158	0.479276
	H278	H	0.532903	0.589400	0.483825
	O279	O	0.525999	0.530534	0.467102
	H280	H	0.525412	0.529777	0.470128
	H281	H	0.520552	0.526316	0.465323
	O282	O	0.463579	0.531608	0.556406
	H283	H	0.464197	0.525821	0.556050
	H284	H	0.457768	0.534537	0.561953
	O285	O	0.090685	0.994032	0.985793
	H286	H	0.087833	0.997205	0.990026
	H287	H	0.088325	0.993504	0.985627
	O288	O	0.053690	-0.071036	0.997187
	H289	H	0.061989	-0.067684	0.989823
	H290	H	0.049778	-0.054299	0.994670
	O291	O	0.049319	0.011246	1.057091
	H292	H	0.044327	0.008296	1.066117
	H293	H	0.040864	0.004136	1.054138
	O294	O	0.444020	0.503433	0.540845
	H295	H	0.436922	0.497750	0.553326
	H296	H	0.442499	0.515814	0.535737
	O297	O	0.439253	0.510413	0.519165
	H298	H	0.438625	0.509484	0.518605
	H299	H	0.443734	0.519846	0.510336
	O300	O	0.496237	0.484846	0.479269
	H301	H	0.495458	0.483410	0.480823
	H302	H	0.489138	0.492334	0.488507
	O303	O	0.528146	0.498594	0.517156
	H304	H	0.532126	0.504699	0.517403
	H305	H	0.523380	0.495598	0.518126
	O306	O	1.010787	0.010876	1.002010
	H307	H	1.014492	0.009627	1.015223
	H308	H	1.013602	0.003093	1.001200
	O309	O	0.476779	0.531103	0.508677
	H310	H	0.473983	0.528177	0.500732
	H311	H	0.469397	0.527926	0.506258
	O312	O	0.395618	0.474559	0.538128
	H313	H	0.389715	0.472465	0.543348
	H314	H	0.401121	0.476442	0.548412
	O315	O	1.015118	-0.087501	1.009535
	H316	H	1.012759	-0.086100	1.000915
	H317	H	1.026396	-0.089058	1.002486
	O318	O	0.428390	-0.487294	-0.458678
	H319	H	0.431421	-0.482028	-0.456946
	H320	H	0.432410	-0.503125	-0.456553
	O321	O	0.529215	0.538657	0.480216
	H322	H	0.531297	0.535826	0.481554
	H323	H	0.539075	0.534883	0.475412
	O324	O	1.016705	-0.032813	-0.047105
	H325	H	1.015625	-0.027064	-0.053324
	H326	H	1.012092	-0.028478	-0.044880
	O327	O	1.013354	0.967723	0.035782
	H328	H	1.008275	0.966789	0.033844
	H329	H	1.019549	0.954466	0.041580
	O330	O	0.557344	0.543995	0.502501
	H331	H	0.560245	0.550664	0.507161
	H332	H	0.555527	0.536548	0.505181
	O333	O	0.471595	0.456316	0.529809
	H334	H	0.473918	0.462079	0.526061
	H335	H	0.473256	0.447485	0.526467
