data_Molecule from HDF5

_cell_length_a		16.294537
_cell_length_b		16.270428
_cell_length_c		16.279184
_cell_angle_alpha	90.092178
_cell_angle_beta	89.875103
_cell_angle_gamma	90.143276
_symmetry_space_group_name_H-M	'P 1'
_symmetry_Int_Tables_number		1

loop_
	_symmetry_equiv_pos_as_xyz
	x,y,z

loop_
	_atom_site_label
	_atom_site_type_symbol
	_atom_site_fract_x
	_atom_site_fract_y
	_atom_site_fract_z
	H0	H	0.398713	0.838858	0.714502
	H1	H	0.596553	0.166605	0.712458
	H2	H	0.596801	0.839347	0.284075
	H3	H	0.400481	0.167314	0.285112
	H4	H	0.712376	0.405589	0.835764
	H5	H	0.713223	0.602723	0.163084
	H6	H	0.285684	0.601200	0.834875
	H7	H	0.281497	0.403255	0.162702
	H8	H	0.834376	0.715857	0.399292
	H9	H	0.160492	0.718338	0.598126
	H10	H	0.833858	0.288050	0.596524
	H11	H	0.161565	0.287300	0.399613
	H12	H	0.834602	0.402019	0.714378
	H13	H	0.160989	0.602532	0.713243
	H14	H	0.834503	0.599169	0.284938
	H15	H	0.161435	0.402114	0.281972
	H16	H	0.400311	0.718069	0.836008
	H17	H	0.597169	0.717921	0.162914
	H18	H	0.597808	0.288757	0.835876
	H19	H	0.399978	0.288537	0.163658
	H20	H	0.712304	0.837897	0.400133
	H21	H	0.713624	0.165114	0.598454
	H22	H	0.282005	0.838843	0.599806
	H23	H	0.283313	0.166841	0.401583
	H24	H	0.899599	0.338910	0.211404
	H25	H	0.098642	0.666202	0.215485
	H26	H	0.096663	0.338553	0.783563
	H27	H	0.901385	0.666333	0.784899
	H28	H	0.214006	0.902867	0.336007
	H29	H	0.211225	0.101470	0.663960
	H30	H	0.784052	0.098837	0.335417
	H31	H	0.782966	0.902885	0.663099
	H32	H	0.335840	0.218016	0.900552
	H33	H	0.663403	0.217435	0.096931
	H34	H	0.335136	0.788812	0.098146
	H35	H	0.662877	0.790176	0.901627
	H36	H	0.335930	0.903594	0.215065
	H37	H	0.663113	0.102530	0.213960
	H38	H	0.335266	0.101716	0.785182
	H39	H	0.662387	0.906416	0.785203
	H40	H	0.899792	0.215569	0.334887
	H41	H	0.095992	0.218263	0.662854
	H42	H	0.096301	0.787389	0.335083
	H43	H	0.898949	0.787456	0.662447
	H44	H	0.214107	0.339386	0.898085
	H45	H	0.212691	0.667473	0.096867
	H46	H	0.782455	0.340016	0.097278
	H47	H	0.785689	0.667131	0.900819
	H48	H	0.404910	0.118008	0.591643
	H49	H	0.608379	0.880578	0.589183
	H50	H	0.593759	0.116349	0.415278
	H51	H	0.403044	0.886159	0.406221
	H52	H	0.596813	0.410070	0.118110
	H53	H	0.594264	0.604689	0.880452
	H54	H	0.406635	0.602824	0.117832
	H55	H	0.405257	0.406781	0.882553
	H56	H	0.115314	0.596942	0.402948
	H57	H	0.878779	0.604370	0.590220
	H58	H	0.114622	0.410858	0.596106
	H59	H	0.885565	0.411058	0.414711
	H60	H	0.114331	0.405674	0.587280
	H61	H	0.885509	0.588552	0.585541
	H62	H	0.113090	0.596768	0.410639
	H63	H	0.881507	0.415148	0.396555
	H64	H	0.398406	0.592004	0.116669
	H65	H	0.597628	0.591209	0.882696
	H66	H	0.589460	0.414621	0.113804
	H67	H	0.404429	0.411957	0.883779
	H68	H	0.598232	0.121703	0.403002
	H69	H	0.583717	0.882560	0.610261
	H70	H	0.403197	0.118900	0.593216
	H71	H	0.407707	0.887299	0.404472
	H72	H	0.901882	0.623529	0.100293
	H73	H	0.088016	0.391006	0.081401
	H74	H	0.086028	0.618321	0.898358
	H75	H	0.903858	0.386784	0.909493
	H76	H	0.092312	0.899193	0.619097
	H77	H	0.089934	0.091677	0.384667
	H78	H	0.899948	0.096081	0.616668
	H79	H	0.910225	0.896174	0.380848
	H80	H	0.616678	0.100505	0.904776
	H81	H	0.379619	0.098614	0.100984
	H82	H	0.611420	0.920294	0.089444
	H83	H	0.382687	0.913831	0.904338
	H84	H	0.618508	0.908630	0.102059
	H85	H	0.384508	0.100559	0.085237
	H86	H	0.613899	0.095928	0.909619
	H87	H	0.380633	0.905383	0.903688
	H88	H	0.906530	0.091445	0.613353
	H89	H	0.089903	0.096997	0.382719
	H90	H	0.098324	0.915654	0.615852
	H91	H	0.890608	0.910199	0.379294
	H92	H	0.090437	0.615727	0.914371
	H93	H	0.097449	0.384849	0.090124
	H94	H	0.914292	0.617441	0.092711
	H95	H	0.902123	0.384636	0.903846
	H96	H	0.406540	0.119513	0.593498
	H97	H	0.579786	0.892496	0.579524
	H98	H	0.584489	0.117138	0.404417
	H99	H	0.406419	0.887949	0.409862
	H100	H	0.588752	0.406077	0.116705
	H101	H	0.584324	0.595390	0.885480
	H102	H	0.411525	0.590482	0.112663
	H103	H	0.409462	0.409964	0.885167
	H104	H	0.112489	0.590073	0.406267
	H105	H	0.879324	0.590748	0.601553
	H106	H	0.110830	0.415075	0.588147
	H107	H	0.878251	0.397866	0.403019
	H108	H	0.900879	0.619197	0.084677
	H109	H	0.084403	0.387756	0.094751
	H110	H	0.101826	0.622732	0.902831
	H111	H	0.907534	0.386655	0.904696
	H112	H	0.080965	0.911781	0.611999
	H113	H	0.094586	0.094213	0.382705
	H114	H	0.908024	0.099505	0.616198
	H115	H	0.911783	0.919374	0.387627
	H116	H	0.615305	0.093475	0.903494
	H117	H	0.386291	0.085427	0.092241
	H118	H	0.615677	0.902703	0.085162
	H119	H	0.383267	0.908613	0.911363
	C120	C	0.376114	0.010824	0.621895
	C121	C	0.619355	0.993648	0.620907
	C122	C	0.620303	0.010486	0.378355
	C123	C	0.376650	0.994909	0.378023
	C124	C	0.620238	0.381998	0.008056
	C125	C	0.620567	0.625219	0.990992
	C126	C	0.377427	0.624129	0.007545
	C127	C	0.376604	0.380630	0.991356
	C128	C	0.006112	0.623115	0.377196
	C129	C	0.989082	0.623350	0.620518
	C130	C	0.005766	0.381002	0.619836
	C131	C	0.989674	0.379367	0.375884
	C132	C	0.876805	0.511719	0.120313
	C133	C	0.119409	0.495512	0.119061
	C134	C	0.121032	0.510822	0.876039
	C135	C	0.876882	0.494479	0.877662
	C136	C	0.119854	0.879909	0.507635
	C137	C	0.119393	0.123796	0.491473
	C138	C	0.876449	0.123339	0.507179
	C139	C	0.875740	0.880076	0.490925
	C140	C	0.507334	0.124644	0.877641
	C141	C	0.491415	0.124405	0.121385
	C142	C	0.507328	0.881639	0.121284
	C143	C	0.490452	0.881404	0.877754
	C144	C	0.378669	0.887644	0.676794
	C145	C	0.616967	0.117299	0.675451
	C146	C	0.617591	0.887664	0.322493
	C147	C	0.379477	0.118211	0.323030
	C148	C	0.674605	0.385068	0.884653
	C149	C	0.675574	0.623131	0.114055
	C150	C	0.323228	0.621440	0.884009
	C151	C	0.320158	0.383102	0.114246
	C152	C	0.883245	0.678229	0.379330
	C153	C	0.111872	0.679914	0.618313
	C154	C	0.882709	0.325559	0.617484
	C155	C	0.112798	0.324675	0.378693
	C156	C	0.883241	0.382246	0.676203
	C157	C	0.112231	0.622039	0.675467
	C158	C	0.883116	0.620084	0.322549
	C159	C	0.112556	0.381677	0.320221
	C160	C	0.380175	0.679702	0.884473
	C161	C	0.617868	0.680262	0.114198
	C162	C	0.617667	0.326980	0.884824
	C163	C	0.378964	0.326003	0.114671
	C164	C	0.675076	0.887238	0.380007
	C165	C	0.675262	0.116663	0.618720
	C166	C	0.320386	0.887787	0.619831
	C167	C	0.321206	0.117996	0.380700
	C168	C	0.879157	0.388025	0.174418
	C169	C	0.118291	0.617649	0.176679
	C170	C	0.117682	0.387597	0.821405
	C171	C	0.880598	0.617574	0.822723
	C172	C	0.175636	0.882383	0.384580
	C173	C	0.173920	0.121979	0.614784
	C174	C	0.821280	0.120060	0.384445
	C175	C	0.820931	0.882849	0.614139
	C176	C	0.384300	0.179793	0.880528
	C177	C	0.614355	0.179991	0.118304
	C178	C	0.384225	0.826184	0.119043
	C179	C	0.613803	0.827510	0.880827
	C180	C	0.384519	0.883630	0.176812
	C181	C	0.614304	0.122856	0.176437
	C182	C	0.384129	0.122259	0.822890
	C183	C	0.613708	0.885332	0.823204
	C184	C	0.878733	0.178068	0.384109
	C185	C	0.116766	0.180070	0.614253
	C186	C	0.117403	0.824812	0.384262
	C187	C	0.878555	0.825372	0.613915
	C188	C	0.176184	0.388144	0.878057
	C189	C	0.175476	0.618310	0.118319
	C190	C	0.820869	0.388534	0.117489
	C191	C	0.823088	0.618029	0.880250
	C192	C	0.398233	0.096650	0.599203
	C193	C	0.597203	0.907524	0.599376
	C194	C	0.598382	0.096176	0.400867
	C195	C	0.399079	0.909387	0.400253
	C196	C	0.598183	0.403941	0.094016
	C197	C	0.598774	0.603466	0.905001
	C198	C	0.399136	0.601709	0.093262
	C199	C	0.399644	0.402949	0.905927
	C200	C	0.091658	0.601124	0.399782
	C201	C	0.903445	0.600984	0.598901
	C202	C	0.091251	0.403878	0.597111
	C203	C	0.903925	0.401448	0.398188
	C204	C	0.899201	0.597816	0.098927
	C205	C	0.096500	0.410042	0.095620
	C206	C	0.099203	0.596778	0.898532
	C207	C	0.898189	0.408279	0.899702
	C208	C	0.097261	0.902407	0.593345
	C209	C	0.097761	0.100907	0.405729
	C210	C	0.898520	0.101877	0.593352
	C211	C	0.897860	0.901919	0.404755
	C212	C	0.593147	0.103020	0.899437
	C213	C	0.405579	0.101571	0.099213
	C214	C	0.593184	0.904077	0.098822
	C215	C	0.404407	0.902796	0.899905
	Zn216	Zn	0.498248	0.002960	0.749396
	Zn217	Zn	0.499486	0.002908	0.249988
	Zn218	Zn	0.748408	0.503780	-0.000633
	Zn219	Zn	0.248501	0.503214	-0.001298
	Zn220	Zn	-0.002645	0.751566	0.498832
	Zn221	Zn	-0.002157	0.252087	0.498560
	Zn222	Zn	-0.002063	0.502040	0.749090
	Zn223	Zn	-0.001552	0.502390	0.248514
	Zn224	Zn	0.498815	0.752879	-0.000259
	Zn225	Zn	0.499182	0.252765	-0.000257
	Zn226	Zn	0.748007	0.001561	0.499826
	Zn227	Zn	0.248097	0.002532	0.500073
	N228	N	0.412567	0.965142	0.678180
	N229	N	0.582737	0.039862	0.676873
	N230	N	0.584392	0.965223	0.321303
	N231	N	0.413028	0.040643	0.321168
	N232	N	0.676078	0.418662	0.962142
	N233	N	0.677203	0.589552	0.036422
	N234	N	0.321473	0.587633	0.961412
	N235	N	0.318538	0.416302	0.036564
	N236	N	0.960783	0.680244	0.412938
	N237	N	0.034465	0.680799	0.584810
	N238	N	0.959815	0.324778	0.583083
	N239	N	0.035336	0.323089	0.412454
	N240	N	0.960857	0.416035	0.677675
	N241	N	0.034987	0.587575	0.677256
	N242	N	0.960426	0.586487	0.321314
	N243	N	0.035077	0.414969	0.318326
	N244	N	0.413259	0.681474	0.962102
	N245	N	0.584243	0.681693	0.036745
	N246	N	0.584203	0.324946	0.962552
	N247	N	0.413206	0.324407	0.037367
	N248	N	0.676628	0.964542	0.414187
	N249	N	0.676704	0.038993	0.585438
	N250	N	0.318737	0.965393	0.586311
	N251	N	0.319310	0.040436	0.414186
	N252	N	0.913287	0.465444	0.176189
	N253	N	0.084249	0.540011	0.177258
	N254	N	0.084099	0.464938	0.820046
	N255	N	0.913284	0.539662	0.821048
	N256	N	0.177439	0.915713	0.462290
	N257	N	0.175755	0.087815	0.537471
	N258	N	0.819666	0.087087	0.462162
	N259	N	0.819320	0.916089	0.536585
	N260	N	0.461799	0.181346	0.914002
	N261	N	0.536919	0.181105	0.084888
	N262	N	0.461565	0.824837	0.085175
	N263	N	0.536009	0.824820	0.913923
	N264	N	0.462107	0.917229	0.178288
	N265	N	0.536833	0.088972	0.178479
	N266	N	0.461543	0.088811	0.820980
	N267	N	0.536024	0.917989	0.821266
	N268	N	0.912361	0.180181	0.461530
	N269	N	0.083659	0.181370	0.536616
	N270	N	0.083429	0.823216	0.461717
	N271	N	0.911913	0.823608	0.536203
	N272	N	0.178463	0.466001	0.911264
	N273	N	0.176178	0.541309	0.083213
	N274	N	0.819487	0.466281	0.084559
	N275	N	0.820743	0.540469	0.913731
	O276	O	0.574288	0.551899	0.506952
	H277	H	0.578968	0.559602	0.511100
	H278	H	0.571484	0.555969	0.522611
	O279	O	0.480847	0.502957	0.493295
	H280	H	0.476413	0.504972	0.493541
	H281	H	0.486581	0.505338	0.494722
	O282	O	0.444886	0.443979	0.445888
	H283	H	0.438801	0.450783	0.440733
	H284	H	0.445665	0.444785	0.452948
	O285	O	0.112462	1.031273	1.082086
	H286	H	0.106370	1.045144	1.082238
	H287	H	0.111935	1.029629	1.088009
	O288	O	0.052222	0.089010	1.016016
	H289	H	0.054026	0.090409	1.013136
	H290	H	0.053287	0.103366	1.015111
	O291	O	-0.454509	0.526591	0.471489
	H292	H	-0.453970	0.523309	0.469722
	H293	H	-0.457174	0.535726	0.464712
	O294	O	0.479700	0.477446	0.520095
	H295	H	0.481789	0.477488	0.512874
	H296	H	0.481519	0.481985	0.520420
	O297	O	0.443600	0.517995	0.576372
	H298	H	0.432286	0.520590	0.576720
	H299	H	0.445020	0.509475	0.580596
	O300	O	0.460551	0.455595	0.543054
	H301	H	0.452024	0.448831	0.538865
	H302	H	0.458440	0.453738	0.549237
	O303	O	0.486228	0.526601	0.495119
	H304	H	0.488165	0.510906	0.497275
	H305	H	0.483492	0.537717	0.501448
	O306	O	1.090607	0.077375	1.028488
	H307	H	1.088938	0.069014	1.027637
	H308	H	1.098158	0.080743	1.031444
	O309	O	0.491252	0.555222	0.495572
	H310	H	0.489529	0.543988	0.501863
	H311	H	0.482593	0.556021	0.493974
	O312	O	0.458785	0.490186	0.551618
	H313	H	0.452179	0.483619	0.548636
	H314	H	0.445507	0.495177	0.548040
	O315	O	1.019876	0.036237	1.039067
	H316	H	1.032559	0.037637	1.035860
	H317	H	1.022660	0.044930	1.035186
	O318	O	0.471864	-0.491870	-0.530178
	H319	H	0.476436	-0.494530	-0.530629
	H320	H	0.477316	-0.501607	-0.521100
	O321	O	0.499020	0.492246	0.460577
	H322	H	0.503792	0.492624	0.459450
	H323	H	0.502443	0.491514	0.461446
	O324	O	1.091856	0.082272	0.026863
	H325	H	1.110578	0.086953	0.025982
	H326	H	1.090852	0.092340	0.039987
	O327	O	1.153389	1.090771	0.045595
	H328	H	1.143196	1.075583	0.053550
	H329	H	1.163784	1.088060	0.046301
	O330	O	0.466882	0.467053	0.578805
	H331	H	0.469498	0.470906	0.583222
	H332	H	0.467723	0.475394	0.576195
	O333	O	0.485999	0.558057	0.524019
	H334	H	0.488990	0.563836	0.516716
	H335	H	0.497638	0.556590	0.528197
